data_PCOD9580056
_publ_section_title
;
Structure prediction by ZEFSAII (Michael W. Deem and Ramdas Pophale) SiO2 
 PCOD9580056
Probable space group: P 61
;
_chemical_formula_sum "Si O2"
_cell_formula_units_Z 48
_cell_length_a 13.922673
_cell_length_b 13.922673
_cell_length_c 12.659197
_cell_angle_alpha 90.000000
_cell_angle_beta 90.000000
_cell_angle_gamma 120.000000
_cell_volume 2125.113040
_symmetry_space_group_name_H-M "P 61"
_symmetry_group_IT_number 169
_symmetry_cell_setting 'hexagonal'
loop_
_space_group_symop_operation_xyz
x,y,z
x-y,x,1/6+z
-y,x-y,1/3+z
-x,-y,1/2+z
-x+y,-x,2/3+z
y,-x+y,5/6+z
loop_
_atom_site_type_symbol
_atom_site_label
_atom_site_fract_x
_atom_site_fract_y
_atom_site_fract_z
Si Si1 0.893402 0.309345 0.905860
Si Si2 0.195716 0.557413 0.926350
Si Si3 0.823700 0.976494 0.998488
Si Si4 0.451951 0.727297 0.926093
Si Si5 0.841747 0.175216 0.107148
Si Si6 0.448700 0.521334 0.469599
Si Si7 0.448567 0.381941 0.296473
Si Si8 0.345935 0.423415 0.114412
O O1 0.762125 0.253651 0.873964
O O2 0.937134 0.440392 0.926521
O O3 0.932240 0.241865 0.827239
O O4 0.909952 0.268360 0.019606
O O5 0.328957 0.624239 0.929890
O O6 0.143757 0.426734 0.908404
O O7 0.157221 0.622281 0.847048
O O8 0.154385 0.557086 0.044751
O O9 0.864146 0.076510 0.083727
O O10 0.847550 0.885294 0.055294
O O11 0.464918 0.844809 0.895735
O O12 0.513335 0.702581 0.832558
O O13 0.864869 0.228658 0.222630
O O14 0.405084 0.407822 0.404883
O O15 0.563085 0.546681 0.522971
O O16 0.363547 0.349056 0.201244
#
# Coordination Sequence:
#
# PCOD9580056 Si02
#       8
#     6   6   6   6   6   6   6   6
#     4  11  22  39  67  98 135 177 225 281 349 426
#     4  11  24  38  62  98 135 186 225 275 351 425
#     4  10  24  46  72 102 126 174 240 302 351 403
#     4  12  24  40  65  99 141 185 223 285 358 443
#     4  11  23  39  69  96 131 177 230 287 350 417
#     4  11  23  35  59  88 134 180 230 275 333 415
#     4  11  23  42  59  97 139 186 224 282 353 424
#     4  11  23  41  61  90 139 177 229 287 337 421
#
# _framework density 22.587032000000001
#
# number of rings (size 3 to 8) (size 9 to 14) (size 15 to 20)
#    0.000    1.000    3.750    3.000    5.250    1.000 
#    0.000    1.250    0.000    0.000    0.000    0.000 
#    0.000    0.000    0.000    0.000    0.000    0.000 
#
# Total GULP energy -267680.919458 kJ/mol
# GULP energy per Si atom -5576.685822 kJ/mol
# Density = 2.253562 g / cm^3
# Si number density = 22.587032 Si / 1000 Ang^3
#
#
#
# Elastic Constant Matrix: (Units=GPa)
#
#
# Indices 1 2 3 4 5 6 
#
# 1 49.3191 0.2704 -2.5516 0.0000 0.0000 0.0000
# 2 0.2704 49.3191 -2.5516 0.0000 0.0000 0.0000
# 3 -2.5516 -2.5516 68.4087 0.0000 0.0000 0.0000
# 4 0.0000 0.0000 0.0000 35.2023 0.0000 0.0000
# 5 0.0000 0.0000 0.0000 0.0000 35.2023 0.0000
# 6 0.0000 0.0000 0.0000 0.0000 0.0000 24.5243
#
#
#
# Elastic Compliance Matrix: (Units=1/GPa)
#
#
# Indices 1 2 3 4 5 6 
#
# 1 0.020316 -0.000072 0.000755 0.000000 0.000000 0.000000
# 2 -0.000072 0.020316 0.000755 0.000000 0.000000 0.000000
# 3 0.000755 0.000755 0.014674 0.000000 0.000000 0.000000
# 4 0.000000 0.000000 0.000000 0.028407 0.000000 0.000000
# 5 0.000000 0.000000 0.000000 0.000000 0.028407 0.000000
# 6 0.000000 0.000000 0.000000 0.000000 0.000000 0.040776
#
#
# Mechanical properties :
#
#
# Convention : Reuss Voigt Hill
#
# Bulk Modulus (GPa) = 17.18772 17.48682 17.33727
# Shear Modulus (GPa) = 29.51350 30.44442 29.97896
#
# Velocity S-wave (km/s) = 3.61869 3.67532 3.64712
# Velocity P-wave (km/s) = 5.00859 5.07636 5.04259
#
# Compressibility (1/GPa) = 0.05818107
#
# Stress axis : x y z
#
# Youngs Moduli (GPa) = 49.22328 49.22328 68.14614
#
# Poissons Ratio (x) = 0.00356 -0.05145
# Poissons Ratio (y) = 0.00356 -0.05145
# Poissons Ratio (z) = -0.03717 -0.03717
#
# Static dielectric constant tensor:
#      x y z
#    x 1.911790 0.000000 0.000000 
#    y 0.000000 1.911790 0.000000 
#    z 0.000000 0.000000 1.954870 
# 
# From -- ./inp_files/1051.got.cif
#   From: 2010.05.17/outbox.cif.g08.bks.cpg/sg169_cif.got.tgz:1051.got - 2010.05.20 11:12:54.
