data_PCOD9580867
_publ_section_title
;
Structure prediction by ZEFSAII (Michael W. Deem and Ramdas Pophale) SiO2 
 PCOD9580867
Probable space group: P 62
;
_chemical_formula_sum "Si O2"
_cell_formula_units_Z 15
_cell_length_a 11.034779
_cell_length_b 11.034779
_cell_length_c 6.481432
_cell_angle_alpha 90.000000
_cell_angle_beta 90.000000
_cell_angle_gamma 120.000000
_cell_volume 683.484830
_symmetry_space_group_name_H-M "P 62"
_symmetry_group_IT_number 171
_symmetry_cell_setting 'hexagonal'
loop_
_space_group_symop_operation_xyz
x,y,z
x-y,x,1/3+z
-y,x-y,2/3+z
-x,-y,z
-x+y,-x,1/3+z
y,-x+y,2/3+z
loop_
_atom_site_type_symbol
_atom_site_label
_atom_site_fract_x
_atom_site_fract_y
_atom_site_fract_z
Si Si1 0.969065 0.174895 0.278350
Si Si2 0.000000 0.500000 0.730662
Si Si3 0.802463 0.603539 0.596405
O O1 0.092342 0.284666 0.426344
O O2 0.885562 0.040002 0.413650
O O3 0.853259 0.201197 0.166290
O O4 0.876886 0.509567 0.609395
O O5 0.907268 0.354553 0.853382
#
# Coordination Sequence:
#
# PCOD9580867 Si02
#       3
#     6   3   6
#     4  12  24  48  78 116 146 205 271 328 400 499
#     4  12  28  54  78 120 158 218 268 344 416 512
#     4  12  28  49  80 115 158 212 272 336 422 485
#
# _framework density 21.946356000000002
#
# number of rings (size 3 to 8) (size 9 to 14) (size 15 to 20)
#    0.000    0.000    8.000    0.000    0.000   16.000 
#    0.000    0.000    0.000    0.000    0.000    0.000 
#    0.000    0.000    0.000    0.000    0.000    0.000 
#
# Total GULP energy -83554.103504 kJ/mol
# GULP energy per Si atom -5570.273567 kJ/mol
# Density = 2.189641 g / cm^3
# Si number density = 21.946356 Si / 1000 Ang^3
#
#
#
# Elastic Constant Matrix: (Units=GPa)
#
#
# Indices 1 2 3 4 5 6 
#
# 1 96.7462 17.5686 3.1647 0.0000 0.0000 0.0000
# 2 17.5686 96.7462 3.1647 0.0000 0.0000 0.0000
# 3 3.1647 3.1647 67.4419 0.0000 0.0000 0.0000
# 4 0.0000 0.0000 0.0000 29.2267 0.0000 0.0000
# 5 0.0000 0.0000 0.0000 0.0000 29.2267 0.0000
# 6 0.0000 0.0000 0.0000 0.0000 0.0000 39.5888
#
#
#
# Elastic Compliance Matrix: (Units=1/GPa)
#
#
# Indices 1 2 3 4 5 6 
#
# 1 0.010700 -0.001930 -0.000412 0.000000 0.000000 0.000000
# 2 -0.001930 0.010700 -0.000412 0.000000 0.000000 0.000000
# 3 -0.000412 -0.000412 0.014866 0.000000 0.000000 0.000000
# 4 0.000000 0.000000 0.000000 0.034215 0.000000 0.000000
# 5 0.000000 0.000000 0.000000 0.000000 0.034215 0.000000
# 6 0.000000 0.000000 0.000000 0.000000 0.000000 0.025260
#
#
# Mechanical properties :
#
#
# Convention : Reuss Voigt Hill
#
# Bulk Modulus (GPa) = 32.50860 34.30338 33.40599
# Shear Modulus (GPa) = 34.31333 35.41087 34.86210
#
# Velocity S-wave (km/s) = 3.95841 4.02122 3.98994
# Velocity P-wave (km/s) = 5.97804 6.10121 6.03994
#
# Compressibility (1/GPa) = 0.03076109
#
# Stress axis : x y z
#
# Youngs Moduli (GPa) = 93.45621 93.45621 67.26664
#
# Poissons Ratio (x) = 0.18034 0.02768
# Poissons Ratio (y) = 0.18034 0.02768
# Poissons Ratio (z) = 0.03846 0.03846
#
# Static dielectric constant tensor:
#      x y z
#    x 1.868410 0.000000 0.000000 
#    y 0.000000 1.868410 0.000000 
#    z 0.000000 0.000000 1.803630 
# 
# From -- ./inp_files/70.got.cif
#   From: 2010.05.17/outbox.cif.g08.bks.cpg/sg171_1_cif.got.tgz:70.got - 2010.05.20 11:16:09.
