data_PCOD9580556
_publ_section_title
;
Structure prediction by ZEFSAII (Michael W. Deem and Ramdas Pophale) SiO2 
 PCOD9580556
Probable space group: P 62
;
_chemical_formula_sum "Si O2"
_cell_formula_units_Z 21
_cell_length_a 7.151235
_cell_length_b 7.151235
_cell_length_c 19.780674
_cell_angle_alpha 90.000000
_cell_angle_beta 90.000000
_cell_angle_gamma 120.000000
_cell_volume 876.059930
_symmetry_space_group_name_H-M "P 62"
_symmetry_group_IT_number 171
_symmetry_cell_setting 'hexagonal'
loop_
_space_group_symop_operation_xyz
x,y,z
x-y,x,1/3+z
-y,x-y,2/3+z
-x,-y,z
-x+y,-x,1/3+z
y,-x+y,2/3+z
loop_
_atom_site_type_symbol
_atom_site_label
_atom_site_fract_x
_atom_site_fract_y
_atom_site_fract_z
Si Si1 0.528581 0.307087 0.668290
Si Si2 0.689386 0.857817 0.975435
Si Si3 0.410345 0.266206 0.438580
Si Si4 0.000000 0.000000 0.860129
O O1 0.500000 0.500000 0.640480
O O2 0.704194 0.268982 0.629976
O O3 0.631275 0.392349 0.743628
O O4 0.307555 0.079261 0.665427
O O5 0.818835 0.989209 0.910534
O O6 0.724330 0.016319 0.036674
O O7 0.500000 0.500000 0.471497
O O8 0.219103 0.092722 0.484153
#
# Coordination Sequence:
#
# PCOD9580556 Si02
#       4
#     6   6   6   3
#     4  10  20  42  70  92 135 191 229 285 368 429
#     4  10  23  41  67 101 141 185 237 297 367 436
#     4  10  23  43  70  97 138 188 232 300 361 426
#     4  12  22  40  68 108 140 182 252 308 358 446
#
# _framework density 23.970965
#
# number of rings (size 3 to 8) (size 9 to 14) (size 15 to 20)
#    0.000    1.714    0.000    4.286    0.000    3.429 
#   15.429    0.000   50.286    0.000    0.000    0.000 
#    0.000    0.000    0.000    0.000    0.000    0.000 
#
# Total GULP energy -117434.975986 kJ/mol
# GULP energy per Si atom -5592.141714 kJ/mol
# Density = 2.391641 g / cm^3
# Si number density = 23.970965 Si / 1000 Ang^3
#
#
#
# Elastic Constant Matrix: (Units=GPa)
#
#
# Indices 1 2 3 4 5 6 
#
# 1 120.5421 21.5333 19.9194 0.0000 0.0000 0.0000
# 2 21.5333 120.5421 19.9194 0.0000 0.0000 0.0000
# 3 19.9194 19.9194 68.5130 0.0000 0.0000 0.0000
# 4 0.0000 0.0000 0.0000 3.0042 0.0000 0.0000
# 5 0.0000 0.0000 0.0000 0.0000 3.0042 0.0000
# 6 0.0000 0.0000 0.0000 0.0000 0.0000 49.5044
#
#
#
# Elastic Compliance Matrix: (Units=1/GPa)
#
#
# Indices 1 2 3 4 5 6 
#
# 1 0.008882 -0.001218 -0.002228 0.000000 0.000000 0.000000
# 2 -0.001218 0.008882 -0.002228 0.000000 0.000000 0.000000
# 3 -0.002228 -0.002228 0.015891 0.000000 0.000000 0.000000
# 4 0.000000 0.000000 0.000000 0.332867 0.000000 0.000000
# 5 0.000000 0.000000 0.000000 0.000000 0.332867 0.000000
# 6 0.000000 0.000000 0.000000 0.000000 0.000000 0.020200
#
#
# Mechanical properties :
#
#
# Convention : Reuss Voigt Hill
#
# Bulk Modulus (GPa) = 44.83141 48.03794 46.43467
# Shear Modulus (GPa) = 6.77165 27.65089 17.21127
#
# Velocity S-wave (km/s) = 1.68258 3.40003 2.68247
# Velocity P-wave (km/s) = 4.74529 5.95795 5.38586
#
# Compressibility (1/GPa) = 0.02230579
#
# Stress axis : x y z
#
# Youngs Moduli (GPa) = 112.59115 112.59115 62.92746
#
# Poissons Ratio (x) = 0.13718 0.14020
# Poissons Ratio (y) = 0.13718 0.14020
# Poissons Ratio (z) = 0.25085 0.25085
#
# Static dielectric constant tensor:
#      x y z
#    x 1.974660 0.000000 0.000000 
#    y 0.000000 1.974660 0.000000 
#    z 0.000000 0.000000 1.877060 
# 
# From -- ./inp_files/3340.got.cif
#   From: 2010.05.17/outbox.cif.g08.bks.cpg/sg171_2_cif.got.tgz:3340.got - 2010.05.20 11:16:09.
