data_PCOD9580094
_publ_section_title
;
Structure prediction by ZEFSAII (Michael W. Deem and Ramdas Pophale) SiO2 
 PCOD9580094
Probable space group: P 61
;
_chemical_formula_sum "Si O2"
_cell_formula_units_Z 24
_cell_length_a 16.323347
_cell_length_b 16.323347
_cell_length_c 5.160536
_cell_angle_alpha 90.000000
_cell_angle_beta 90.000000
_cell_angle_gamma 120.000000
_cell_volume 1190.813829
_symmetry_space_group_name_H-M "P 61"
_symmetry_group_IT_number 169
_symmetry_cell_setting 'hexagonal'
loop_
_space_group_symop_operation_xyz
x,y,z
x-y,x,1/6+z
-y,x-y,1/3+z
-x,-y,1/2+z
-x+y,-x,2/3+z
y,-x+y,5/6+z
loop_
_atom_site_type_symbol
_atom_site_label
_atom_site_fract_x
_atom_site_fract_y
_atom_site_fract_z
Si Si1 0.777978 0.603132 0.219020
Si Si2 0.013689 0.359948 0.723918
Si Si3 0.070095 0.616575 0.723316
Si Si4 0.578721 0.237339 0.184215
O O1 0.748031 0.674496 0.087391
O O2 0.729016 0.587221 0.499784
O O3 0.716520 0.506285 0.054099
O O4 0.885298 0.630848 0.242411
O O5 0.001775 0.397791 0.449558
O O6 0.984816 0.410686 0.950638
O O7 0.148377 0.593187 0.831304
O O8 0.673635 0.270285 0.345706
#
# Coordination Sequence:
#
# PCOD9580094 Si02
#       4
#     6   6   6   6
#     4   9  21  38  65  91 122 162 207 252 306 381
#     4   9  20  35  64  90 120 154 207 244 316 362
#     4   9  21  37  62  87 115 159 202 251 300 376
#     4  11  22  38  65  82 119 167 218 257 318 371
#
# _framework density 20.154285000000002
#
# number of rings (size 3 to 8) (size 9 to 14) (size 15 to 20)
#    1.500    1.000    0.000    1.500    7.000    0.000 
#    0.000    0.000   55.000    0.000    6.500    0.000 
#    0.000    0.000    0.000    0.000    0.000    0.000 
#
# Total GULP energy -133688.696328 kJ/mol
# GULP energy per Si atom -5570.362347 kJ/mol
# Density = 2.010841 g / cm^3
# Si number density = 20.154285 Si / 1000 Ang^3
#
#
#
# Elastic Constant Matrix: (Units=GPa)
#
#
# Indices 1 2 3 4 5 6 
#
# 1 110.8898 60.5611 22.6258 0.0000 0.0000 0.0000
# 2 60.5611 110.8898 22.6258 0.0000 0.0000 0.0000
# 3 22.6258 22.6258 121.4024 0.0000 0.0000 0.0000
# 4 0.0000 0.0000 0.0000 5.6112 0.0000 0.0000
# 5 0.0000 0.0000 0.0000 0.0000 5.6112 0.0000
# 6 0.0000 0.0000 0.0000 0.0000 0.0000 25.1643
#
#
#
# Elastic Compliance Matrix: (Units=1/GPa)
#
#
# Indices 1 2 3 4 5 6 
#
# 1 0.013002 -0.006868 -0.001143 0.000000 0.000000 0.000000
# 2 -0.006868 0.013002 -0.001143 0.000000 0.000000 0.000000
# 3 -0.001143 -0.001143 0.008663 0.000000 0.000000 0.000000
# 4 0.000000 0.000000 0.000000 0.178216 0.000000 0.000000
# 5 0.000000 0.000000 0.000000 0.000000 0.178216 0.000000
# 6 0.000000 0.000000 0.000000 0.000000 0.000000 0.039739
#
#
# Mechanical properties :
#
#
# Convention : Reuss Voigt Hill
#
# Bulk Modulus (GPa) = 61.12910 61.64527 61.38718
# Shear Modulus (GPa) = 10.99872 23.10196 17.05034
#
# Velocity S-wave (km/s) = 2.33861 3.38931 2.91175
# Velocity P-wave (km/s) = 6.13910 6.78009 6.46754
#
# Compressibility (1/GPa) = 0.01635882
#
# Stress axis : x y z
#
# Youngs Moduli (GPa) = 76.91213 76.91213 115.43067
#
# Poissons Ratio (x) = 0.52820 0.13197
# Poissons Ratio (y) = 0.52820 0.13197
# Poissons Ratio (z) = 0.08793 0.08793
#
# Static dielectric constant tensor:
#      x y z
#    x 1.746560 0.000000 0.000000 
#    y 0.000000 1.746560 0.000000 
#    z 0.000000 0.000000 1.779830 
# 
# From -- ./inp_files/130.got.cif
#   From: 2010.05.17/outbox.cif.g08.bks.cpg/sg169_cif.got.tgz:130.got - 2010.05.20 11:12:54.
