data_PCOD9580022
_publ_section_title
;
Structure prediction by ZEFSAII (Michael W. Deem and Ramdas Pophale) SiO2 
 PCOD9580022
Probable space group: P 61
;
_chemical_formula_sum "Si O2"
_cell_formula_units_Z 18
_cell_length_a 7.384936
_cell_length_b 7.384936
_cell_length_c 12.868452
_cell_angle_alpha 90.000000
_cell_angle_beta 90.000000
_cell_angle_gamma 120.000000
_cell_volume 607.785606
_symmetry_space_group_name_H-M "P 61"
_symmetry_group_IT_number 169
_symmetry_cell_setting 'hexagonal'
loop_
_space_group_symop_operation_xyz
x,y,z
x-y,x,1/6+z
-y,x-y,1/3+z
-x,-y,1/2+z
-x+y,-x,2/3+z
y,-x+y,5/6+z
loop_
_atom_site_type_symbol
_atom_site_label
_atom_site_fract_x
_atom_site_fract_y
_atom_site_fract_z
Si Si1 0.748676 0.102165 0.022090
Si Si2 0.170518 0.863753 0.019661
Si Si3 0.276999 0.507662 0.548068
O O1 0.274390 0.098418 0.066207
O O2 0.739528 0.948608 0.112777
O O3 0.739018 0.292403 0.076598
O O4 0.537841 0.971458 0.948359
O O5 0.932455 0.715594 0.067370
O O6 0.252857 0.737692 0.090034
#
# Coordination Sequence:
#
# PCOD9580022 Si02
#       3
#     6   6   6
#     4  12  26  54  93 129 184 240 307 370 463 552
#     4   8  16  39  76 111 164 220 286 354 428 525
#     4  10  22  45  85 120 172 230 297 362 437 537
#
# _framework density 29.615704000000001
#
# number of rings (size 3 to 8) (size 9 to 14) (size 15 to 20)
#    2.000    0.000    3.333    0.000    0.000    2.667 
#    0.000    6.667    7.333    0.000    0.000    0.000 
#    0.000    0.000    0.000    0.000    0.000    0.000 
#
# Total GULP energy -100200.968580 kJ/mol
# GULP energy per Si atom -5566.720477 kJ/mol
# Density = 2.954830 g / cm^3
# Si number density = 29.615704 Si / 1000 Ang^3
#
#
#
# Elastic Constant Matrix: (Units=GPa)
#
#
# Indices 1 2 3 4 5 6 
#
# 1 139.0046 35.4651 66.7068 0.0000 0.0000 0.0000
# 2 35.4651 139.0046 66.7068 0.0000 0.0000 0.0000
# 3 66.7068 66.7068 172.7817 0.0000 0.0000 0.0000
# 4 0.0000 0.0000 0.0000 70.0252 0.0000 0.0000
# 5 0.0000 0.0000 0.0000 0.0000 70.0252 0.0000
# 6 0.0000 0.0000 0.0000 0.0000 0.0000 51.7697
#
#
#
# Elastic Compliance Matrix: (Units=1/GPa)
#
#
# Indices 1 2 3 4 5 6 
#
# 1 0.008895 -0.000763 -0.003140 0.000000 0.000000 0.000000
# 2 -0.000763 0.008895 -0.003140 0.000000 0.000000 0.000000
# 3 -0.003140 -0.003140 0.008212 0.000000 0.000000 0.000000
# 4 0.000000 0.000000 0.000000 0.014281 0.000000 0.000000
# 5 0.000000 0.000000 0.000000 0.000000 0.014281 0.000000
# 6 0.000000 0.000000 0.000000 0.000000 0.000000 0.019316
#
#
# Mechanical properties :
#
#
# Convention : Reuss Voigt Hill
#
# Bulk Modulus (GPa) = 83.90636 87.61651 85.76143
# Shear Modulus (GPa) = 54.38467 57.15818 55.77143
#
# Velocity S-wave (km/s) = 4.28991 4.39794 4.34426
# Velocity P-wave (km/s) = 7.27537 7.44566 7.36101
#
# Compressibility (1/GPa) = 0.01191805
#
# Stress axis : x y z
#
# Youngs Moduli (GPa) = 112.41797 112.41797 121.77226
#
# Poissons Ratio (x) = 0.08575 0.38234
# Poissons Ratio (y) = 0.08575 0.38234
# Poissons Ratio (z) = 0.35297 0.35297
#
# Static dielectric constant tensor:
#      x y z
#    x 2.524940 0.000000 0.000000 
#    y 0.000000 2.524940 0.000000 
#    z 0.000000 0.000000 2.393500 
# 
# From -- ./inp_files/422.got.cif
#   From: 2010.05.17/outbox.cif.g08.bks.cpg/sg169_cif.got.tgz:422.got - 2010.05.20 11:12:54.
