data_PCOD9580126
_publ_section_title
;
Structure prediction by ZEFSAII (Michael W. Deem and Ramdas Pophale) SiO2 
 PCOD9580126
Probable space group: P 61
;
_chemical_formula_sum "Si O2"
_cell_formula_units_Z 36
_cell_length_a 7.895642
_cell_length_b 7.895642
_cell_length_c 29.544404
_cell_angle_alpha 90.000000
_cell_angle_beta 90.000000
_cell_angle_gamma 120.000000
_cell_volume 1595.073729
_symmetry_space_group_name_H-M "P 61"
_symmetry_group_IT_number 169
_symmetry_cell_setting 'hexagonal'
loop_
_space_group_symop_operation_xyz
x,y,z
x-y,x,1/6+z
-y,x-y,1/3+z
-x,-y,1/2+z
-x+y,-x,2/3+z
y,-x+y,5/6+z
loop_
_atom_site_type_symbol
_atom_site_label
_atom_site_fract_x
_atom_site_fract_y
_atom_site_fract_z
Si Si1 0.723877 0.015556 0.189060
Si Si2 0.028924 0.969191 0.607069
Si Si3 0.709994 0.314784 0.664199
Si Si4 0.682661 0.287281 0.562349
Si Si5 0.660519 0.635845 0.078695
Si Si6 0.354127 0.333904 0.149108
O O1 0.842747 0.076401 0.142388
O O2 0.685874 0.179784 0.210557
O O3 0.849645 0.974662 0.225430
O O4 0.513967 0.827314 0.179120
O O5 0.810688 0.864118 0.626548
O O6 0.141483 0.201876 0.601851
O O7 0.738427 0.264690 0.613199
O O8 0.741084 0.532383 0.661182
O O9 0.848993 0.300798 0.700763
O O10 0.466959 0.261564 0.566283
O O11 0.696947 0.143472 0.527200
O O12 0.526211 0.461810 0.113309
#
# Coordination Sequence:
#
# PCOD9580126 Si02
#       6
#     6   6   6   6   6   6
#     4  12  26  48  76 104 152 194 258 316 392 464
#     4  12  26  50  74 110 150 204 252 328 380 468
#     4  11  25  48  75 112 147 201 253 319 391 466
#     4  11  25  48  75 112 147 201 253 319 391 466
#     4  11  25  48  78 106 151 199 258 318 396 465
#     4  11  25  48  78 106 151 199 258 318 396 465
#
# _framework density 22.569486999999999
#
# number of rings (size 3 to 8) (size 9 to 14) (size 15 to 20)
#    0.000    0.667    6.667    2.000    2.333    1.333 
#    6.000    0.000    0.000    0.000    0.000    0.000 
#    0.000    0.000    0.000    0.000    0.000    0.000 
#
# Total GULP energy -201764.176962 kJ/mol
# GULP energy per Si atom -5604.560471 kJ/mol
# Density = 2.251812 g / cm^3
# Si number density = 22.569487 Si / 1000 Ang^3
#
#
#
# Elastic Constant Matrix: (Units=GPa)
#
#
# Indices 1 2 3 4 5 6 
#
# 1 88.2180 41.0239 30.7517 0.0000 0.0000 0.0000
# 2 41.0239 88.2180 30.7517 0.0000 0.0000 0.0000
# 3 30.7517 30.7517 89.2157 0.0000 0.0000 0.0000
# 4 0.0000 0.0000 0.0000 39.1777 0.0000 0.0000
# 5 0.0000 0.0000 0.0000 0.0000 39.1777 0.0000
# 6 0.0000 0.0000 0.0000 0.0000 0.0000 23.5970
#
#
#
# Elastic Compliance Matrix: (Units=1/GPa)
#
#
# Indices 1 2 3 4 5 6 
#
# 1 0.015222 -0.005967 -0.003190 0.000000 0.000000 0.000000
# 2 -0.005967 0.015222 -0.003190 0.000000 0.000000 0.000000
# 3 -0.003190 -0.003190 0.013408 0.000000 0.000000 0.000000
# 4 0.000000 0.000000 0.000000 0.025525 0.000000 0.000000
# 5 0.000000 0.000000 0.000000 0.000000 0.025525 0.000000
# 6 0.000000 0.000000 0.000000 0.000000 0.000000 0.042378
#
#
# Mechanical properties :
#
#
# Convention : Reuss Voigt Hill
#
# Bulk Modulus (GPa) = 52.19721 52.30072 52.24897
# Shear Modulus (GPa) = 29.69804 31.26544 30.48174
#
# Velocity S-wave (km/s) = 3.63140 3.72600 3.67900
# Velocity P-wave (km/s) = 6.38438 6.46020 6.42240
#
# Compressibility (1/GPa) = 0.01915811
#
# Stress axis : x y z
#
# Youngs Moduli (GPa) = 65.69283 65.69283 74.58161
#
# Poissons Ratio (x) = 0.39197 0.23794
# Poissons Ratio (y) = 0.39197 0.23794
# Poissons Ratio (z) = 0.20958 0.20958
#
# Static dielectric constant tensor:
#      x y z
#    x 1.839120 0.000000 0.000000 
#    y 0.000000 1.839120 0.000000 
#    z 0.000000 0.000000 1.806720 
# 
# From -- ./inp_files/1827.got.cif
#   From: 2010.05.17/outbox.cif.g08.bks.cpg/sg169_cif.got.tgz:1827.got - 2010.05.20 11:12:54.
