data_PCOD9580941
_publ_section_title
;
Structure prediction by ZEFSAII (Michael W. Deem and Ramdas Pophale) SiO2 
 PCOD9580941
Probable space group: P 64
;
_chemical_formula_sum "Si O2"
_cell_formula_units_Z 36
_cell_length_a 9.117565
_cell_length_b 9.117565
_cell_length_c 26.493529
_cell_angle_alpha 90.000000
_cell_angle_beta 90.000000
_cell_angle_gamma 120.000000
_cell_volume 1907.340274
_symmetry_space_group_name_H-M "P 64"
_symmetry_group_IT_number 172
_symmetry_cell_setting 'hexagonal'
loop_
_space_group_symop_operation_xyz
x,y,z
x-y,x,2/3+z
-y,x-y,1/3+z
-x,-y,z
-x+y,-x,2/3+z
y,-x+y,1/3+z
loop_
_atom_site_type_symbol
_atom_site_label
_atom_site_fract_x
_atom_site_fract_y
_atom_site_fract_z
Si Si1 0.169299 0.673212 0.337940
Si Si2 0.514652 0.835542 0.884430
Si Si3 0.173839 0.135395 0.061303
Si Si4 0.822196 0.477970 0.844572
Si Si5 0.522099 0.173477 0.397588
Si Si6 0.162367 0.170992 0.840608
O O1 0.171838 0.698113 0.278112
O O2 0.153784 0.822979 0.363740
O O3 0.339513 0.682994 0.361194
O O4 0.000000 0.500000 0.350974
O O5 0.340736 0.672214 0.869519
O O6 0.670682 0.834434 0.856293
O O7 0.500000 0.000000 0.870848
O O8 0.200699 0.325331 0.070039
O O9 0.171413 0.045679 0.114187
O O10 0.000000 0.000000 0.035257
O O11 0.809178 0.420947 0.785322
O O12 0.825245 0.652524 0.855565
O O13 0.000000 0.500000 0.862335
O O14 0.500000 0.000000 0.374622
O O15 0.000000 0.000000 0.861098
#
# Coordination Sequence:
#
# PCOD9580941 Si02
#       6
#     6   6   6   6   6   6
#     4  10  22  42  61  89 130 166 208 265 324 385
#     4  11  26  40  60  96 135 173 214 266 323 393
#     4  10  21  38  64  92 119 164 213 264 320 380
#     4  11  20  39  64  94 124 170 210 269 322 375
#     4   9  18  37  63  86 122 157 209 265 313 379
#     4  11  22  38  62  95 126 166 218 266 317 379
#
# _framework density 18.874451000000001
#
# number of rings (size 3 to 8) (size 9 to 14) (size 15 to 20)
#    0.000    1.667    5.000    1.500    4.667    4.667 
#    0.000    4.167    0.000    0.000    0.000    0.000 
#    0.000    0.000    0.000    0.000    0.000    0.000 
#
# Total GULP energy -200468.931372 kJ/mol
# GULP energy per Si atom -5568.581427 kJ/mol
# Density = 1.883149 g / cm^3
# Si number density = 18.874451 Si / 1000 Ang^3
#
#
#
# Elastic Constant Matrix: (Units=GPa)
#
#
# Indices 1 2 3 4 5 6 
#
# 1 165.7217 89.6915 48.9220 0.0000 0.0000 0.0000
# 2 89.6915 165.7217 48.9220 0.0000 0.0000 0.0000
# 3 48.9220 48.9220 40.6419 0.0000 0.0000 0.0000
# 4 0.0000 0.0000 0.0000 31.0038 0.0000 0.0000
# 5 0.0000 0.0000 0.0000 0.0000 31.0038 0.0000
# 6 0.0000 0.0000 0.0000 0.0000 0.0000 38.0151
#
#
#
# Elastic Compliance Matrix: (Units=1/GPa)
#
#
# Indices 1 2 3 4 5 6 
#
# 1 0.010209 -0.002944 -0.008746 0.000000 0.000000 0.000000
# 2 -0.002944 0.010209 -0.008746 0.000000 0.000000 0.000000
# 3 -0.008746 -0.008746 0.045660 0.000000 0.000000 0.000000
# 4 0.000000 0.000000 0.000000 0.032254 0.000000 0.000000
# 5 0.000000 0.000000 0.000000 0.000000 0.032254 0.000000
# 6 0.000000 0.000000 0.000000 0.000000 0.000000 0.026305
#
#
# Mechanical properties :
#
#
# Convention : Reuss Voigt Hill
#
# Bulk Modulus (GPa) = 39.66952 83.01734 61.34343
# Shear Modulus (GPa) = 24.25241 32.30788 28.28015
#
# Velocity S-wave (km/s) = 3.58849 4.14179 3.87503
# Velocity P-wave (km/s) = 6.18327 8.18242 7.25206
#
# Compressibility (1/GPa) = 0.02520827
#
# Stress axis : x y z
#
# Youngs Moduli (GPa) = 97.95164 97.95164 21.90085
#
# Poissons Ratio (x) = 0.28833 0.19154
# Poissons Ratio (y) = 0.28833 0.19154
# Poissons Ratio (z) = 0.85667 0.85667
#
# Static dielectric constant tensor:
#      x y z
#    x 1.705130 0.000000 0.000000 
#    y 0.000000 1.705130 0.000000 
#    z 0.000000 0.000000 1.677260 
# 
# From -- ./inp_files/2588.got.cif
#   From: 2010.05.17/outbox.cif.g08.bks.cpg/sg172_2_cif.got.tgz:2588.got - 2010.05.20 11:19:57.
