data_PCOD9580218
_publ_section_title
;
Structure prediction by ZEFSAII (Michael W. Deem and Ramdas Pophale) SiO2 
 PCOD9580218
Probable space group: P 65
;
_chemical_formula_sum "Si O2"
_cell_formula_units_Z 42
_cell_length_a 15.275779
_cell_length_b 15.275779
_cell_length_c 11.418532
_cell_angle_alpha 90.000000
_cell_angle_beta 90.000000
_cell_angle_gamma 120.000000
_cell_volume 2307.531500
_symmetry_space_group_name_H-M "P 65"
_symmetry_group_IT_number 170
_symmetry_cell_setting 'hexagonal'
loop_
_space_group_symop_operation_xyz
x,y,z
x-y,x,5/6+z
-y,x-y,2/3+z
-x,-y,1/2+z
-x+y,-x,1/3+z
y,-x+y,1/6+z
loop_
_atom_site_type_symbol
_atom_site_label
_atom_site_fract_x
_atom_site_fract_y
_atom_site_fract_z
Si Si1 0.754089 0.539707 0.843960
Si Si2 0.781379 0.179769 0.744699
Si Si3 0.699605 0.158199 0.395929
Si Si4 0.415704 0.470556 0.178772
Si Si5 0.344277 0.996494 0.107815
Si Si6 0.488997 0.338786 0.298843
Si Si7 0.311346 0.717659 0.088665
O O1 0.686823 0.567067 0.757077
O O2 0.840227 0.539694 0.763217
O O3 0.673088 0.426995 0.891218
O O4 0.812357 0.596342 0.962834
O O5 0.756112 0.076591 0.681319
O O6 0.749667 0.162596 0.879163
O O7 0.709349 0.219181 0.687589
O O8 0.896226 0.262481 0.730848
O O9 0.590919 0.123047 0.337545
O O10 0.670143 0.071526 0.493743
O O11 0.731618 0.258207 0.472067
O O12 0.481907 0.434875 0.254983
O O13 0.403332 0.426526 0.046804
O O14 0.600747 0.355090 0.284824
#
# Coordination Sequence:
#
# PCOD9580218 Si02
#       7
#     6   6   6   6   6   6   6
#     4  11  21  36  52  81 116 150 192 242 287 341
#     4  10  20  36  57  78 106 147 188 239 279 353
#     4  10  22  34  52  82 112 149 193 243 279 340
#     4  10  22  36  55  78 114 151 201 234 285 345
#     4  10  21  39  55  80 107 144 193 234 299 349
#     4  11  20  33  56  78 107 156 190 238 276 342
#     4  10  20  32  51  77 112 153 191 228 283 332
#
# _framework density 18.201270000000001
#
# number of rings (size 3 to 8) (size 9 to 14) (size 15 to 20)
#    0.000    1.714    1.429    4.286    4.000    1.143 
#    5.143    0.000    0.000    0.000    0.000    4.000 
#    0.000    0.000    0.000    0.000    0.000    0.000 
#
# Total GULP energy -233837.820223 kJ/mol
# GULP energy per Si atom -5567.567148 kJ/mol
# Density = 1.815984 g / cm^3
# Si number density = 18.201270 Si / 1000 Ang^3
#
#
#
# Elastic Constant Matrix: (Units=GPa)
#
#
# Indices 1 2 3 4 5 6 
#
# 1 37.4432 14.4191 14.8092 0.0000 0.0000 0.0000
# 2 14.4191 37.4432 14.8092 0.0000 0.0000 0.0000
# 3 14.8092 14.8092 118.6043 0.0000 0.0000 0.0000
# 4 0.0000 0.0000 0.0000 22.6261 0.0000 0.0000
# 5 0.0000 0.0000 0.0000 0.0000 22.6261 0.0000
# 6 0.0000 0.0000 0.0000 0.0000 0.0000 11.5120
#
#
#
# Elastic Compliance Matrix: (Units=1/GPa)
#
#
# Indices 1 2 3 4 5 6 
#
# 1 0.032098 -0.011335 -0.002592 0.000000 0.000000 0.000000
# 2 -0.011335 0.032098 -0.002592 0.000000 0.000000 0.000000
# 3 -0.002592 -0.002592 0.009079 0.000000 0.000000 0.000000
# 4 0.000000 0.000000 0.000000 0.044197 0.000000 0.000000
# 5 0.000000 0.000000 0.000000 0.000000 0.044197 0.000000
# 6 0.000000 0.000000 0.000000 0.000000 0.000000 0.086866
#
#
# Mechanical properties :
#
#
# Convention : Reuss Voigt Hill
#
# Bulk Modulus (GPa) = 24.85478 31.28511 28.06994
# Shear Modulus (GPa) = 16.95005 21.31638 19.13322
#
# Velocity S-wave (km/s) = 3.05496 3.42592 3.24574
# Velocity P-wave (km/s) = 5.11164 5.73367 5.43157
#
# Compressibility (1/GPa) = 0.04023372
#
# Stress axis : x y z
#
# Youngs Moduli (GPa) = 31.15503 31.15503 110.14680
#
# Poissons Ratio (x) = 0.35315 0.28555
# Poissons Ratio (y) = 0.35315 0.28555
# Poissons Ratio (z) = 0.08077 0.08077
#
# Static dielectric constant tensor:
#      x y z
#    x 1.654760 0.000000 0.000000 
#    y 0.000000 1.654760 0.000000 
#    z 0.000000 0.000000 1.708210 
# 
# From -- ./inp_files/1015.got.cif
#   From: 2010.05.17/outbox.cif.g08.bks.cpg/sg170_cif.got.tgz:1015.got - 2010.05.20 11:14:30.
