data_PCOD9580501
_publ_section_title
;
Structure prediction by ZEFSAII (Michael W. Deem and Ramdas Pophale) SiO2 
 PCOD9580501
Probable space group: P 62
;
_chemical_formula_sum "Si O2"
_cell_formula_units_Z 42
_cell_length_a 11.265860
_cell_length_b 11.265860
_cell_length_c 21.163170
_cell_angle_alpha 90.000000
_cell_angle_beta 90.000000
_cell_angle_gamma 120.000000
_cell_volume 2326.162511
_symmetry_space_group_name_H-M "P 62"
_symmetry_group_IT_number 171
_symmetry_cell_setting 'hexagonal'
loop_
_space_group_symop_operation_xyz
x,y,z
x-y,x,1/3+z
-y,x-y,2/3+z
-x,-y,z
-x+y,-x,1/3+z
y,-x+y,2/3+z
loop_
_atom_site_type_symbol
_atom_site_label
_atom_site_fract_x
_atom_site_fract_y
_atom_site_fract_z
Si Si1 0.500000 0.000000 0.315630
Si Si2 0.985073 0.356137 0.673035
Si Si3 0.306149 0.048039 0.224939
Si Si4 0.000000 0.000000 0.373215
Si Si5 0.280174 0.480277 0.737499
Si Si6 0.059488 0.871178 0.593896
Si Si7 0.510572 0.148593 0.127796
Si Si8 0.166783 0.228586 0.811003
O O1 0.625915 0.008781 0.274575
O O2 0.456236 0.866289 0.358485
O O3 0.923215 0.253978 0.615480
O O4 0.882185 0.299371 0.732458
O O5 0.000000 0.500000 0.656529
O O6 0.137794 0.394290 0.696597
O O7 0.203241 0.098580 0.248557
O O8 0.436575 0.168374 0.187746
O O9 0.211302 0.933831 0.174060
O O10 0.959905 0.875634 0.324266
O O11 0.876397 0.970368 0.420041
O O12 0.254764 0.588017 0.776950
O O13 0.288110 0.367983 0.781898
O O14 0.147213 0.954990 0.533917
O O15 0.500000 0.000000 0.139066
#
# Coordination Sequence:
#
# PCOD9580501 Si02
#       8
#     3   6   6   3   6   6   6   6
#     4  12  22  32  60  82 122 152 200 244 282 354
#     4   9  18  35  56  76 108 151 195 235 274 337
#     4  12  18  34  53  90 109 151 196 235 284 352
#     4  12  18  30  50  86 124 140 172 232 318 356
#     4  10  20  36  53  81 110 149 195 240 287 336
#     4  12  22  32  55  91 120 146 187 245 304 360
#     4   9  17  33  58  72 105 145 197 241 267 328
#     4  12  21  34  54  87 124 147 183 245 318 356
#
# _framework density 18.055486999999999
#
# number of rings (size 3 to 8) (size 9 to 14) (size 15 to 20)
#    0.000    1.429    9.286    0.000    0.000    0.000 
#    0.000    1.429    3.143    0.000    0.000    0.000 
#    0.000    0.000    0.000    0.000    0.000    0.000 
#
# Total GULP energy -233828.073363 kJ/mol
# GULP energy per Si atom -5567.335080 kJ/mol
# Density = 1.801439 g / cm^3
# Si number density = 18.055487 Si / 1000 Ang^3
#
#
#
# Elastic Constant Matrix: (Units=GPa)
#
#
# Indices 1 2 3 4 5 6 
#
# 1 68.5920 32.9178 48.6080 0.0000 0.0000 0.0000
# 2 32.9178 68.5920 48.6080 0.0000 0.0000 0.0000
# 3 48.6080 48.6080 107.0195 0.0000 0.0000 0.0000
# 4 0.0000 0.0000 0.0000 28.0371 0.0000 0.0000
# 5 0.0000 0.0000 0.0000 0.0000 28.0371 0.0000
# 6 0.0000 0.0000 0.0000 0.0000 0.0000 17.8371
#
#
#
# Elastic Compliance Matrix: (Units=1/GPa)
#
#
# Indices 1 2 3 4 5 6 
#
# 1 0.022733 -0.005298 -0.007919 0.000000 0.000000 0.000000
# 2 -0.005298 0.022733 -0.007919 0.000000 0.000000 0.000000
# 3 -0.007919 -0.007919 0.016538 0.000000 0.000000 0.000000
# 4 0.000000 0.000000 0.000000 0.035667 0.000000 0.000000
# 5 0.000000 0.000000 0.000000 0.000000 0.035667 0.000000
# 6 0.000000 0.000000 0.000000 0.000000 0.000000 0.056063
#
#
# Mechanical properties :
#
#
# Convention : Reuss Voigt Hill
#
# Bulk Modulus (GPa) = 50.67881 56.05237 53.36559
# Shear Modulus (GPa) = 20.98620 22.38688 21.68654
#
# Velocity S-wave (km/s) = 3.41298 3.52503 3.46946
# Velocity P-wave (km/s) = 6.60761 6.90505 6.75797
#
# Compressibility (1/GPa) = 0.01973211
#
# Stress axis : x y z
#
# Youngs Moduli (GPa) = 43.98803 43.98803 60.46747
#
# Poissons Ratio (x) = 0.23305 0.47885
# Poissons Ratio (y) = 0.23305 0.47885
# Poissons Ratio (z) = 0.34835 0.34835
#
# Static dielectric constant tensor:
#      x y z
#    x 1.651160 0.000000 0.000000 
#    y 0.000000 1.651160 0.000000 
#    z 0.000000 0.000000 1.704520 
# 
# From -- ./inp_files/5200.got.cif
#   From: 2010.05.17/outbox.cif.g08.bks.cpg/sg171_3_cif.got.tgz:5200.got - 2010.05.20 11:16:09.
