data_PCOD9580417
_publ_section_title
;
Structure prediction by ZEFSAII (Michael W. Deem and Ramdas Pophale) SiO2 
 PCOD9580417
Probable space group: P 62
;
_chemical_formula_sum "Si O2"
_cell_formula_units_Z 42
_cell_length_a 15.132918
_cell_length_b 15.132918
_cell_length_c 12.284513
_cell_angle_alpha 90.000000
_cell_angle_beta 90.000000
_cell_angle_gamma 120.000000
_cell_volume 2436.317774
_symmetry_space_group_name_H-M "P 62"
_symmetry_group_IT_number 171
_symmetry_cell_setting 'hexagonal'
loop_
_space_group_symop_operation_xyz
x,y,z
x-y,x,1/3+z
-y,x-y,2/3+z
-x,-y,z
-x+y,-x,1/3+z
y,-x+y,2/3+z
loop_
_atom_site_type_symbol
_atom_site_label
_atom_site_fract_x
_atom_site_fract_y
_atom_site_fract_z
Si Si1 0.049480 0.339605 0.028840
Si Si2 0.734942 0.614111 0.989635
Si Si3 0.748228 0.333891 0.922660
Si Si4 0.382553 0.604389 0.068611
Si Si5 0.932570 0.555887 0.253636
Si Si6 0.614258 0.080728 0.145835
Si Si7 0.600931 0.826564 0.408747
O O1 0.079915 0.415876 0.131625
O O2 0.938449 0.241079 0.050671
O O3 0.145204 0.321516 0.014257
O O4 0.043696 0.400446 0.923681
O O5 0.664482 0.664751 0.980800
O O6 0.732856 0.572188 0.866417
O O7 0.675767 0.518247 0.069873
O O8 0.660224 0.245483 0.850197
O O9 0.819395 0.426888 0.843745
O O10 0.697230 0.370617 0.011795
O O11 0.814028 0.296839 0.988860
O O12 0.479384 0.645248 0.988238
O O13 0.000000 0.500000 0.249878
O O14 0.717574 0.120536 0.074160
O O15 0.500000 0.000000 0.105869
#
# Coordination Sequence:
#
# PCOD9580417 Si02
#       7
#     6   6   6   6   6   6   6
#     4  10  17  29  52  67  95 128 175 230 260 295
#     4   9  18  32  48  71  93 126 179 224 261 300
#     4  12  20  29  45  69  99 138 175 202 254 315
#     4  11  19  29  45  64 100 137 170 207 250 318
#     4   9  19  29  46  70  94 130 174 214 263 312
#     4  11  20  30  47  71 103 135 172 219 257 303
#     4  10  20  31  46  73  93 131 179 215 256 303
#
# _framework density 17.239129999999999
#
# number of rings (size 3 to 8) (size 9 to 14) (size 15 to 20)
#    0.000    1.714    5.714    1.286    4.000    0.000 
#    0.000    2.143    0.000    0.000    0.000    0.000 
#    0.000    1.143    1.143    0.000    0.000    2.429 
#
# Total GULP energy -233836.317501 kJ/mol
# GULP energy per Si atom -5567.531369 kJ/mol
# Density = 1.719989 g / cm^3
# Si number density = 17.239130 Si / 1000 Ang^3
#
#
#
# Elastic Constant Matrix: (Units=GPa)
#
#
# Indices 1 2 3 4 5 6 
#
# 1 74.6095 22.6791 3.4070 0.0000 0.0000 0.0000
# 2 22.6791 74.6095 3.4070 0.0000 0.0000 0.0000
# 3 3.4070 3.4070 16.4289 0.0000 0.0000 0.0000
# 4 0.0000 0.0000 0.0000 16.4437 0.0000 0.0000
# 5 0.0000 0.0000 0.0000 0.0000 16.4437 0.0000
# 6 0.0000 0.0000 0.0000 0.0000 0.0000 25.9652
#
#
#
# Elastic Compliance Matrix: (Units=1/GPa)
#
#
# Indices 1 2 3 4 5 6 
#
# 1 0.014843 -0.004413 -0.002163 0.000000 0.000000 0.000000
# 2 -0.004413 0.014843 -0.002163 0.000000 0.000000 0.000000
# 3 -0.002163 -0.002163 0.061765 0.000000 0.000000 0.000000
# 4 0.000000 0.000000 0.000000 0.060813 0.000000 0.000000
# 5 0.000000 0.000000 0.000000 0.000000 0.060813 0.000000
# 6 0.000000 0.000000 0.000000 0.000000 0.000000 0.038513
#
#
# Mechanical properties :
#
#
# Convention : Reuss Voigt Hill
#
# Bulk Modulus (GPa) = 13.51828 24.95934 19.23881
# Shear Modulus (GPa) = 17.02253 20.84752 18.93503
#
# Velocity S-wave (km/s) = 3.14576 3.48129 3.31777
# Velocity P-wave (km/s) = 4.58836 5.53795 5.08537
#
# Compressibility (1/GPa) = 0.07397392
#
# Stress axis : x y z
#
# Youngs Moduli (GPa) = 67.37018 67.37018 16.19029
#
# Poissons Ratio (x) = 0.29732 0.03502
# Poissons Ratio (y) = 0.29732 0.03502
# Poissons Ratio (z) = 0.14572 0.14572
#
# Static dielectric constant tensor:
#      x y z
#    x 1.618990 0.000000 0.000000 
#    y 0.000000 1.618990 0.000000 
#    z 0.000000 0.000000 1.595190 
# 
# From -- ./inp_files/4666.got.cif
#   From: 2010.05.17/outbox.cif.g08.bks.cpg/sg171_3_cif.got.tgz:4666.got - 2010.05.20 11:16:09.
