data_PCOD9580060
_publ_section_title
;
Structure prediction by ZEFSAII (Michael W. Deem and Ramdas Pophale) SiO2 
 PCOD9580060
Probable space group: P 61
;
_chemical_formula_sum "Si O2"
_cell_formula_units_Z 48
_cell_length_a 11.018115
_cell_length_b 11.018115
_cell_length_c 18.132299
_cell_angle_alpha 90.000000
_cell_angle_beta 90.000000
_cell_angle_gamma 120.000000
_cell_volume 1906.330101
_symmetry_space_group_name_H-M "P 61"
_symmetry_group_IT_number 169
_symmetry_cell_setting 'hexagonal'
loop_
_space_group_symop_operation_xyz
x,y,z
x-y,x,1/6+z
-y,x-y,1/3+z
-x,-y,1/2+z
-x+y,-x,2/3+z
y,-x+y,5/6+z
loop_
_atom_site_type_symbol
_atom_site_label
_atom_site_fract_x
_atom_site_fract_y
_atom_site_fract_z
Si Si1 0.622958 0.551613 0.893830
Si Si2 0.095927 0.352233 0.348274
Si Si3 0.058416 0.746219 0.357269
Si Si4 0.787175 0.099425 0.353396
Si Si5 0.009437 0.054821 0.019444
Si Si6 0.286133 0.555310 0.078175
Si Si7 0.577633 0.616832 0.041970
Si Si8 0.549993 0.141573 0.629949
O O1 0.772215 0.668341 0.864728
O O2 0.601340 0.405577 0.861272
O O3 0.493262 0.567508 0.870198
O O4 0.630136 0.547946 0.981719
O O5 0.100126 0.386690 0.262305
O O6 0.108531 0.472355 0.402017
O O7 0.951132 0.214088 0.361753
O O8 0.960847 0.816138 0.356433
O O9 0.221481 0.865568 0.348569
O O10 0.064094 0.672357 0.432833
O O11 0.014078 0.638790 0.289440
O O12 0.744025 0.166653 0.287946
O O13 0.799924 0.959849 0.345792
O O14 0.015111 0.003518 0.104191
O O15 0.408754 0.541061 0.039913
O O16 0.382668 0.691428 0.129925
#
# Coordination Sequence:
#
# PCOD9580060 Si02
#       8
#     6   6   6   6   6   6   6   6
#     4  11  26  45  79 108 141 200 266 309 377 480
#     4  11  24  43  72 109 142 198 247 316 384 448
#     4  11  25  47  73 110 155 199 258 326 400 468
#     4  12  25  44  77 107 162 191 253 318 392 480
#     4  12  27  47  73 113 154 210 259 327 407 486
#     4  10  27  48  68 115 144 200 250 311 398 450
#     4  11  26  45  79 106 153 197 254 330 388 471
#     4  10  24  49  73 108 149 203 257 325 388 467
#
# _framework density 25.179269000000001
#
# number of rings (size 3 to 8) (size 9 to 14) (size 15 to 20)
#    0.000    1.000    3.750    0.750    8.750    3.000 
#    2.250    0.000    0.000    0.000    0.000    0.000 
#    0.000    0.000    0.000    0.000    0.000    0.000 
#
# Total GULP energy -268009.642376 kJ/mol
# GULP energy per Si atom -5583.534216 kJ/mol
# Density = 2.512196 g / cm^3
# Si number density = 25.179269 Si / 1000 Ang^3
#
#
#
# Elastic Constant Matrix: (Units=GPa)
#
#
# Indices 1 2 3 4 5 6 
#
# 1 82.8840 4.7102 19.1708 0.0000 0.0000 0.0000
# 2 4.7102 82.8840 19.1708 0.0000 0.0000 0.0000
# 3 19.1708 19.1708 105.0731 0.0000 0.0000 0.0000
# 4 0.0000 0.0000 0.0000 33.1634 0.0000 0.0000
# 5 0.0000 0.0000 0.0000 0.0000 33.1634 0.0000
# 6 0.0000 0.0000 0.0000 0.0000 0.0000 39.0869
#
#
#
# Elastic Compliance Matrix: (Units=1/GPa)
#
#
# Indices 1 2 3 4 5 6 
#
# 1 0.012600 -0.000192 -0.002264 0.000000 0.000000 0.000000
# 2 -0.000192 0.012600 -0.002264 0.000000 0.000000 0.000000
# 3 -0.002264 -0.002264 0.010343 0.000000 0.000000 0.000000
# 4 0.000000 0.000000 0.000000 0.030154 0.000000 0.000000
# 5 0.000000 0.000000 0.000000 0.000000 0.030154 0.000000
# 6 0.000000 0.000000 0.000000 0.000000 0.000000 0.025584
#
#
# Mechanical properties :
#
#
# Convention : Reuss Voigt Hill
#
# Bulk Modulus (GPa) = 38.31024 39.66052 38.98538
# Shear Modulus (GPa) = 35.82316 36.26868 36.04592
#
# Velocity S-wave (km/s) = 3.77599 3.79940 3.78772
# Velocity P-wave (km/s) = 5.85311 5.91884 5.88607
#
# Compressibility (1/GPa) = 0.02610268
#
# Stress axis : x y z
#
# Youngs Moduli (GPa) = 79.36774 79.36774 96.68168
#
# Poissons Ratio (x) = 0.01527 0.21886
# Poissons Ratio (y) = 0.01527 0.21886
# Poissons Ratio (z) = 0.17967 0.17967
#
# Static dielectric constant tensor:
#      x y z
#    x 2.061550 0.000000 0.000000 
#    y 0.000000 2.061550 0.000000 
#    z 0.000000 0.000000 1.959850 
# 
# From -- ./inp_files/1432.got.cif
#   From: 2010.05.17/outbox.cif.g08.bks.cpg/sg169_cif.got.tgz:1432.got - 2010.05.20 11:12:54.
