data_PCOD9580330
_publ_section_title
;
Structure prediction by ZEFSAII (Michael W. Deem and Ramdas Pophale) SiO2 
 PCOD9580330
Probable space group: P 65
;
_chemical_formula_sum "Si O2"
_cell_formula_units_Z 18
_cell_length_a 12.069121
_cell_length_b 12.069121
_cell_length_c 5.540007
_cell_angle_alpha 90.000000
_cell_angle_beta 90.000000
_cell_angle_gamma 120.000000
_cell_volume 698.863289
_symmetry_space_group_name_H-M "P 65"
_symmetry_group_IT_number 170
_symmetry_cell_setting 'hexagonal'
loop_
_space_group_symop_operation_xyz
x,y,z
x-y,x,5/6+z
-y,x-y,2/3+z
-x,-y,1/2+z
-x+y,-x,1/3+z
y,-x+y,1/6+z
loop_
_atom_site_type_symbol
_atom_site_label
_atom_site_fract_x
_atom_site_fract_y
_atom_site_fract_z
Si Si1 0.567090 0.057599 0.681740
Si Si2 0.089164 0.287270 0.552677
Si Si3 0.270298 0.542036 0.309150
O O1 0.702175 0.073587 0.599068
O O2 0.394814 0.231337 0.511050
O O3 0.563399 0.188759 0.679868
O O4 0.585573 0.227392 0.238061
O O5 0.178561 0.229847 0.633939
O O6 0.475460 0.990113 0.451453
#
# Coordination Sequence:
#
# PCOD9580330 Si02
#       3
#     6   6   6
#     4  11  25  49  81 115 158 207 267 332 396 469
#     4  11  25  51  75 117 163 215 266 324 405 487
#     4  10  24  42  78 112 153 200 269 330 397 458
#
# _framework density 25.756108999999999
#
# number of rings (size 3 to 8) (size 9 to 14) (size 15 to 20)
#    0.000    1.333    3.333    0.000    9.333    0.000 
#    6.000    0.000    0.000    0.000    0.000    0.000 
#    0.000    0.000    0.000    0.000    0.000    0.000 
#
# Total GULP energy -100537.114865 kJ/mol
# GULP energy per Si atom -5585.395270 kJ/mol
# Density = 2.569749 g / cm^3
# Si number density = 25.756109 Si / 1000 Ang^3
#
#
#
# Elastic Constant Matrix: (Units=GPa)
#
#
# Indices 1 2 3 4 5 6 
#
# 1 201.9358 104.7765 81.0793 0.0000 0.0000 0.0000
# 2 104.7765 201.9358 81.0793 0.0000 0.0000 0.0000
# 3 81.0793 81.0793 142.6450 0.0000 0.0000 0.0000
# 4 0.0000 0.0000 0.0000 42.7334 0.0000 0.0000
# 5 0.0000 0.0000 0.0000 0.0000 42.7334 0.0000
# 6 0.0000 0.0000 0.0000 0.0000 0.0000 48.5797
#
#
#
# Elastic Compliance Matrix: (Units=1/GPa)
#
#
# Indices 1 2 3 4 5 6 
#
# 1 0.007477 -0.002816 -0.002649 0.000000 0.000000 0.000000
# 2 -0.002816 0.007477 -0.002649 0.000000 0.000000 0.000000
# 3 -0.002649 -0.002649 0.010022 0.000000 0.000000 0.000000
# 4 0.000000 0.000000 0.000000 0.023401 0.000000 0.000000
# 5 0.000000 0.000000 0.000000 0.000000 0.023401 0.000000
# 6 0.000000 0.000000 0.000000 0.000000 0.000000 0.020585
#
#
# Mechanical properties :
#
#
# Convention : Reuss Voigt Hill
#
# Bulk Modulus (GPa) = 114.32562 120.04296 117.18429
# Shear Modulus (GPa) = 44.84039 45.44806 45.14423
#
# Velocity S-wave (km/s) = 4.17701 4.20522 4.19114
# Velocity P-wave (km/s) = 8.23088 8.38375 8.30766
#
# Compressibility (1/GPa) = 0.00874695
#
# Stress axis : x y z
#
# Youngs Moduli (GPa) = 133.74817 133.74817 99.77839
#
# Poissons Ratio (x) = 0.37659 0.26435
# Poissons Ratio (y) = 0.37659 0.26435
# Poissons Ratio (z) = 0.35435 0.35435
#
# Static dielectric constant tensor:
#      x y z
#    x 2.206450 0.000000 0.000000 
#    y 0.000000 2.206450 0.000000 
#    z 0.000000 0.000000 1.986210 
# 
# From -- ./inp_files/436.got.cif
#   From: 2010.05.17/outbox.cif.g08.bks.cpg/sg170_cif.got.tgz:436.got - 2010.05.20 11:14:30.
