data_PCOD9580270
_publ_section_title
;
Structure prediction by ZEFSAII (Michael W. Deem and Ramdas Pophale) SiO2 
 PCOD9580270
Probable space group: P 65
;
_chemical_formula_sum "Si O2"
_cell_formula_units_Z 36
_cell_length_a 11.681521
_cell_length_b 11.681521
_cell_length_c 13.992686
_cell_angle_alpha 90.000000
_cell_angle_beta 90.000000
_cell_angle_gamma 120.000000
_cell_volume 1653.600170
_symmetry_space_group_name_H-M "P 65"
_symmetry_group_IT_number 170
_symmetry_cell_setting 'hexagonal'
loop_
_space_group_symop_operation_xyz
x,y,z
x-y,x,5/6+z
-y,x-y,2/3+z
-x,-y,1/2+z
-x+y,-x,1/3+z
y,-x+y,1/6+z
loop_
_atom_site_type_symbol
_atom_site_label
_atom_site_fract_x
_atom_site_fract_y
_atom_site_fract_z
Si Si1 0.493765 0.361567 0.674900
Si Si2 0.147517 0.753476 0.426793
Si Si3 0.339284 0.403027 0.509492
Si Si4 0.160379 0.371023 0.890789
Si Si5 0.191572 0.149761 0.391538
Si Si6 0.565722 0.614753 0.389563
O O1 0.625179 0.476568 0.627552
O O2 0.378789 0.361328 0.608714
O O3 0.490578 0.222185 0.681524
O O4 0.486842 0.398294 0.783832
O O5 0.237285 0.808481 0.332121
O O6 0.183231 0.850888 0.515144
O O7 0.998683 0.725870 0.400826
O O8 0.226764 0.276070 0.454804
O O9 0.473704 0.478826 0.446833
O O10 0.278817 0.339384 0.878489
O O11 0.163452 0.445228 0.793499
O O12 0.104062 0.133099 0.298759
#
# Coordination Sequence:
#
# PCOD9580270 Si02
#       6
#     6   6   6   6   6   6
#     4  12  26  47  69 107 145 191 238 302 366 429
#     4  11  23  45  76 103 144 188 242 301 360 430
#     4  12  26  46  71 103 147 190 241 299 372 426
#     4  10  21  44  68 105 142 180 242 291 351 430
#     4  12  25  46  72 105 142 191 245 296 357 440
#     4  11  25  44  72 105 146 192 240 303 360 429
#
# _framework density 21.770679000000001
#
# number of rings (size 3 to 8) (size 9 to 14) (size 15 to 20)
#    0.000    0.667    6.667    2.000    0.000    2.667 
#    3.000    0.000    0.000    0.000    0.000    0.000 
#    0.000    0.000    0.000    0.000    0.000    0.000 
#
# Total GULP energy -200537.458055 kJ/mol
# GULP energy per Si atom -5570.484946 kJ/mol
# Density = 2.172113 g / cm^3
# Si number density = 21.770679 Si / 1000 Ang^3
#
#
#
# Elastic Constant Matrix: (Units=GPa)
#
#
# Indices 1 2 3 4 5 6 
#
# 1 -37.7737 120.5768 47.3510 0.0000 0.0000 0.0000
# 2 120.5768 -37.7737 47.3510 0.0000 0.0000 0.0000
# 3 47.3510 47.3510 178.8533 0.0000 0.0000 0.0000
# 4 0.0000 0.0000 0.0000 17.3467 0.0000 0.0000
# 5 0.0000 0.0000 0.0000 0.0000 17.3467 0.0000
# 6 0.0000 0.0000 0.0000 0.0000 0.0000 -79.1753
#
#
#
# Elastic Compliance Matrix: (Units=1/GPa)
#
#
# Indices 1 2 3 4 5 6 
#
# 1 0.005503 0.011818 -0.004586 0.000000 0.000000 0.000000
# 2 0.011818 0.005503 -0.004586 0.000000 0.000000 0.000000
# 3 -0.004586 -0.004586 0.008019 0.000000 0.000000 0.000000
# 4 0.000000 0.000000 0.000000 0.057648 0.000000 0.000000
# 5 0.000000 0.000000 0.000000 0.000000 0.057648 0.000000
# 6 0.000000 0.000000 0.000000 0.000000 0.000000 -0.012630
#
#
# Mechanical properties :
#
#
# Convention : Reuss Voigt Hill
#
# Bulk Modulus (GPa) = 41.11963 59.31817 50.21890
# Shear Modulus (GPa) = 40.15911 -16.36125 11.89893
#
# Velocity S-wave (km/s) = 4.29959 -2.74437 2.34039
# Velocity P-wave (km/s) = 6.60131 4.15498 5.51548
#
# Compressibility (1/GPa) = 0.02431929
#
# Stress axis : x y z
#
# Youngs Moduli (GPa) = 181.70857 181.70857 124.69780
#
# Poissons Ratio (x) = -2.14751 0.57185
# Poissons Ratio (y) = -2.14751 0.57185
# Poissons Ratio (z) = 0.83330 0.83330
#
# Static dielectric constant tensor:
#      x y z
#    x 1.831630 0.000000 0.000000 
#    y 0.000000 1.831630 0.000000 
#    z 0.000000 0.000000 1.814190 
# 
# From -- ./inp_files/1213.got.cif
#   From: 2010.05.17/outbox.cif.g08.bks.cpg/sg170_cif.got.tgz:1213.got - 2010.05.20 11:14:30.
