data_PCOD9580994
_publ_section_title
;
Structure prediction by ZEFSAII (Michael W. Deem and Ramdas Pophale) SiO2 
 PCOD9580994
Probable space group: P 64
;
_chemical_formula_sum "Si O2"
_cell_formula_units_Z 36
_cell_length_a 8.623147
_cell_length_b 8.623147
_cell_length_c 23.119827
_cell_angle_alpha 90.000000
_cell_angle_beta 90.000000
_cell_angle_gamma 120.000000
_cell_volume 1488.835758
_symmetry_space_group_name_H-M "P 64"
_symmetry_group_IT_number 172
_symmetry_cell_setting 'hexagonal'
loop_
_space_group_symop_operation_xyz
x,y,z
x-y,x,2/3+z
-y,x-y,1/3+z
-x,-y,z
-x+y,-x,2/3+z
y,-x+y,1/3+z
loop_
_atom_site_type_symbol
_atom_site_label
_atom_site_fract_x
_atom_site_fract_y
_atom_site_fract_z
Si Si1 0.171768 0.976037 0.589580
Si Si2 0.371986 0.046908 0.820797
Si Si3 0.364895 0.044549 0.455886
Si Si4 0.177787 0.536903 0.269235
Si Si5 0.054899 0.706777 0.480309
Si Si6 0.520974 0.834190 0.331047
O O1 0.138359 0.830276 0.538245
O O2 0.157813 0.860567 0.645467
O O3 0.351585 0.170857 0.595180
O O4 0.000000 0.000000 0.584617
O O5 0.511413 0.148417 0.877294
O O6 0.316894 0.182604 0.797716
O O7 0.500000 0.000000 0.784191
O O8 0.179519 0.863350 0.821091
O O9 0.473309 0.152586 0.399835
O O10 0.500000 0.000000 0.491079
O O11 0.201599 0.851530 0.437016
O O12 0.356148 0.665365 0.302283
O O13 0.000000 0.500000 0.303440
O O14 0.000000 0.500000 0.486317
O O15 0.500000 0.000000 0.309219
#
# Coordination Sequence:
#
# PCOD9580994 Si02
#       6
#     6   6   6   6   6   6
#     4  12  23  42  71 112 143 192 247 302 371 438
#     4  11  24  43  73 111 141 188 248 306 369 443
#     4  11  25  48  71 108 150 193 246 308 379 452
#     4  11  24  44  72 108 147 192 246 306 364 444
#     4  12  25  45  77 110 145 192 250 316 372 446
#     4  11  27  46  70 107 152 195 245 308 377 451
#
# _framework density 24.179967000000001
#
# number of rings (size 3 to 8) (size 9 to 14) (size 15 to 20)
#    0.000    0.667    3.333    3.500    9.333    2.667 
#    0.000   10.000    0.000    0.000    0.000    0.000 
#    0.000    0.000    0.000    0.000    0.000    0.000 
#
# Total GULP energy -200426.274990 kJ/mol
# GULP energy per Si atom -5567.396527 kJ/mol
# Density = 2.412493 g / cm^3
# Si number density = 24.179967 Si / 1000 Ang^3
#
#
#
# Elastic Constant Matrix: (Units=GPa)
#
#
# Indices 1 2 3 4 5 6 
#
# 1 228.7764 97.1112 32.4440 0.0000 0.0000 0.0000
# 2 97.1112 228.7764 32.4440 0.0000 0.0000 0.0000
# 3 32.4440 32.4440 38.8228 0.0000 0.0000 0.0000
# 4 0.0000 0.0000 0.0000 0.9728 0.0000 0.0000
# 5 0.0000 0.0000 0.0000 0.0000 0.9728 0.0000
# 6 0.0000 0.0000 0.0000 0.0000 0.0000 65.8326
#
#
#
# Elastic Compliance Matrix: (Units=1/GPa)
#
#
# Indices 1 2 3 4 5 6 
#
# 1 0.005638 -0.001957 -0.003076 0.000000 0.000000 0.000000
# 2 -0.001957 0.005638 -0.003076 0.000000 0.000000 0.000000
# 3 -0.003076 -0.003076 0.030900 0.000000 0.000000 0.000000
# 4 0.000000 0.000000 0.000000 1.027957 0.000000 0.000000
# 5 0.000000 0.000000 0.000000 0.000000 1.027957 0.000000
# 6 0.000000 0.000000 0.000000 0.000000 0.000000 0.015190
#
#
# Mechanical properties :
#
#
# Convention : Reuss Voigt Hill
#
# Bulk Modulus (GPa) = 38.52553 91.15265 64.83909
# Shear Modulus (GPa) = 2.33847 35.84740 19.09293
#
# Velocity S-wave (km/s) = 0.98448 3.85453 2.81306
# Velocity P-wave (km/s) = 4.15448 7.58876 6.11756
#
# Compressibility (1/GPa) = 0.02595681
#
# Stress axis : x y z
#
# Youngs Moduli (GPa) = 177.36659 177.36659 32.36282
#
# Poissons Ratio (x) = 0.34710 0.09956
# Poissons Ratio (y) = 0.34710 0.09956
# Poissons Ratio (z) = 0.54562 0.54562
#
# Static dielectric constant tensor:
#      x y z
#    x 1.987210 0.000000 0.000000 
#    y 0.000000 1.987210 0.000000 
#    z 0.000000 0.000000 2.100760 
# 
# From -- ./inp_files/2584.got.cif
#   From: 2010.05.17/outbox.cif.g08.bks.cpg/sg172_2_cif.got.tgz:2584.got - 2010.05.20 11:19:57.
