data_PCOD9580937
_publ_section_title
;
Structure prediction by ZEFSAII (Michael W. Deem and Ramdas Pophale) SiO2 
 PCOD9580937
Probable space group: P 64
;
_chemical_formula_sum "Si O2"
_cell_formula_units_Z 36
_cell_length_a 11.060292
_cell_length_b 11.060292
_cell_length_c 12.473247
_cell_angle_alpha 90.000000
_cell_angle_beta 90.000000
_cell_angle_gamma 120.000000
_cell_volume 1321.427498
_symmetry_space_group_name_H-M "P 64"
_symmetry_group_IT_number 172
_symmetry_cell_setting 'hexagonal'
loop_
_space_group_symop_operation_xyz
x,y,z
x-y,x,2/3+z
-y,x-y,1/3+z
-x,-y,z
-x+y,-x,2/3+z
y,-x+y,1/3+z
loop_
_atom_site_type_symbol
_atom_site_label
_atom_site_fract_x
_atom_site_fract_y
_atom_site_fract_z
Si Si1 0.943321 0.224831 0.008060
Si Si2 0.803522 0.328976 0.868786
Si Si3 0.388790 0.352135 0.640140
Si Si4 0.755145 0.109283 0.269259
Si Si5 0.667311 0.499020 0.948099
Si Si6 0.974129 0.128803 0.783435
O O1 0.065424 0.253655 0.086353
O O2 0.786944 0.112725 0.049266
O O3 0.922585 0.341192 0.950233
O O4 0.977820 0.154401 0.908555
O O5 0.839288 0.334465 0.744542
O O6 0.681392 0.170034 0.897492
O O7 0.764786 0.445086 0.898761
O O8 0.500000 0.500000 0.691082
O O9 0.259034 0.358407 0.585585
O O10 0.634257 0.148541 0.263342
O O11 0.648773 0.945192 0.233042
O O12 0.805726 0.068924 0.380014
O O13 0.000000 0.000000 0.764744
#
# Coordination Sequence:
#
# PCOD9580937 Si02
#       6
#     6   6   6   6   6   6
#     4  10  24  41  67 105 139 185 245 310 376 458
#     4  10  23  47  69 106 147 200 252 320 383 472
#     4  10  20  44  69  98 144 183 249 306 374 455
#     4  11  22  44  70 100 143 193 241 320 368 472
#     4  11  24  46  71 103 151 193 258 304 399 466
#     4  12  22  42  67 104 143 184 246 306 385 451
#
# _framework density 27.243265000000001
#
# number of rings (size 3 to 8) (size 9 to 14) (size 15 to 20)
#    1.000    0.333    5.000    0.500    0.000    2.667 
#    0.000    5.000    0.000    0.000    0.000    0.000 
#    0.000    0.000    0.000    0.000    0.000    0.000 
#
# Total GULP energy -200823.119222 kJ/mol
# GULP energy per Si atom -5578.419978 kJ/mol
# Density = 2.718126 g / cm^3
# Si number density = 27.243265 Si / 1000 Ang^3
#
#
#
# Elastic Constant Matrix: (Units=GPa)
#
#
# Indices 1 2 3 4 5 6 
#
# 1 176.1235 43.6815 28.5591 0.0000 0.0000 0.0000
# 2 43.6815 176.1235 28.5591 0.0000 0.0000 0.0000
# 3 28.5591 28.5591 23.7134 0.0000 0.0000 0.0000
# 4 0.0000 0.0000 0.0000 7.8390 0.0000 0.0000
# 5 0.0000 0.0000 0.0000 0.0000 7.8390 0.0000
# 6 0.0000 0.0000 0.0000 0.0000 0.0000 66.2210
#
#
#
# Elastic Compliance Matrix: (Units=1/GPa)
#
#
# Indices 1 2 3 4 5 6 
#
# 1 0.007086 -0.000464 -0.007975 0.000000 0.000000 0.000000
# 2 -0.000464 0.007086 -0.007975 0.000000 0.000000 0.000000
# 3 -0.007975 -0.007975 0.061380 0.000000 0.000000 0.000000
# 4 0.000000 0.000000 0.000000 0.127567 0.000000 0.000000
# 5 0.000000 0.000000 0.000000 0.000000 0.127567 0.000000
# 6 0.000000 0.000000 0.000000 0.000000 0.000000 0.015101
#
#
# Mechanical properties :
#
#
# Convention : Reuss Voigt Hill
#
# Bulk Modulus (GPa) = 23.40644 64.17332 43.78988
# Shear Modulus (GPa) = 12.72728 34.72384 23.72556
#
# Velocity S-wave (km/s) = 2.16376 3.57401 2.95427
# Velocity P-wave (km/s) = 3.85393 6.37481 5.26740
#
# Compressibility (1/GPa) = 0.04272328
#
# Stress axis : x y z
#
# Youngs Moduli (GPa) = 141.11992 141.11992 16.29205
#
# Poissons Ratio (x) = 0.06552 0.12993
# Poissons Ratio (y) = 0.06552 0.12993
# Poissons Ratio (z) = 1.12543 1.12543
#
# Static dielectric constant tensor:
#      x y z
#    x 2.316020 0.000000 0.000000 
#    y 0.000000 2.316020 0.000000 
#    z 0.000000 0.000000 2.187630 
# 
# From -- ./inp_files/1259.got.cif
#   From: 2010.05.17/outbox.cif.g08.bks.cpg/sg172_1_cif.got.tgz:1259.got - 2010.05.20 11:19:57.
