data_PCOD9580782
_publ_section_title
;
Structure prediction by ZEFSAII (Michael W. Deem and Ramdas Pophale) SiO2 
 PCOD9580782
Probable space group: P 62
;
_chemical_formula_sum "Si O2"
_cell_formula_units_Z 42
_cell_length_a 13.066780
_cell_length_b 13.066780
_cell_length_c 11.750493
_cell_angle_alpha 90.000000
_cell_angle_beta 90.000000
_cell_angle_gamma 120.000000
_cell_volume 1737.496258
_symmetry_space_group_name_H-M "P 62"
_symmetry_group_IT_number 171
_symmetry_cell_setting 'hexagonal'
loop_
_space_group_symop_operation_xyz
x,y,z
x-y,x,1/3+z
-y,x-y,2/3+z
-x,-y,z
-x+y,-x,1/3+z
y,-x+y,2/3+z
loop_
_atom_site_type_symbol
_atom_site_label
_atom_site_fract_x
_atom_site_fract_y
_atom_site_fract_z
Si Si1 0.092888 0.881667 0.045500
Si Si2 0.670498 0.736090 0.018443
Si Si3 0.654804 0.393058 0.253828
Si Si4 0.809089 0.924340 0.851784
Si Si5 0.925993 0.650102 0.897810
Si Si6 0.683559 0.522087 0.475585
Si Si7 0.328458 0.496762 0.009443
O O1 0.014568 0.897576 0.140888
O O2 0.195598 0.880010 0.117529
O O3 0.004691 0.763070 0.978686
O O4 0.146673 0.986713 0.956423
O O5 0.794638 0.779038 0.082814
O O6 0.604145 0.784407 0.098761
O O7 0.696939 0.805973 0.900345
O O8 0.629066 0.599219 0.999289
O O9 0.622752 0.443629 0.363940
O O10 0.561414 0.255150 0.235804
O O11 0.780863 0.401069 0.275168
O O12 0.658940 0.462114 0.140362
O O13 0.028800 0.626075 0.853340
O O14 0.807229 0.561927 0.965249
#
# Coordination Sequence:
#
# PCOD9580782 Si02
#       7
#     6   6   6   6   6   6   6
#     4  12  24  41  62 114 156 192 224 289 346 472
#     4  12  24  44  74 106 148 186 240 278 378 432
#     4  10  27  51  79  96 142 186 273 288 370 402
#     4  12  23  41  63 110 159 188 227 281 350 464
#     4  12  26  42  76 108 152 182 246 286 382 422
#     4  11  25  52  73 111 137 196 231 319 347 454
#     4  11  25  52  73 111 137 196 231 319 347 454
#
# _framework density 24.172715
#
# number of rings (size 3 to 8) (size 9 to 14) (size 15 to 20)
#    0.000    0.571    5.714    0.857    0.000   10.857 
#    0.000    8.571    0.000    0.000    0.000    0.000 
#    0.000    0.000    0.000    0.000    0.000    0.000 
#
# Total GULP energy -235169.154570 kJ/mol
# GULP energy per Si atom -5599.265585 kJ/mol
# Density = 2.411770 g / cm^3
# Si number density = 24.172715 Si / 1000 Ang^3
#
#
#
# Elastic Constant Matrix: (Units=GPa)
#
#
# Indices 1 2 3 4 5 6 
#
# 1 79.7922 14.5056 13.3943 0.0000 0.0000 0.0000
# 2 14.5056 79.7922 13.3943 0.0000 0.0000 0.0000
# 3 13.3943 13.3943 83.8040 0.0000 0.0000 0.0000
# 4 0.0000 0.0000 0.0000 28.0303 0.0000 0.0000
# 5 0.0000 0.0000 0.0000 0.0000 28.0303 0.0000
# 6 0.0000 0.0000 0.0000 0.0000 0.0000 32.6433
#
#
#
# Elastic Compliance Matrix: (Units=1/GPa)
#
#
# Indices 1 2 3 4 5 6 
#
# 1 0.013213 -0.002104 -0.001776 0.000000 0.000000 0.000000
# 2 -0.002104 0.013213 -0.001776 0.000000 0.000000 0.000000
# 3 -0.001776 -0.001776 0.012500 0.000000 0.000000 0.000000
# 4 0.000000 0.000000 0.000000 0.035676 0.000000 0.000000
# 5 0.000000 0.000000 0.000000 0.000000 0.035676 0.000000
# 6 0.000000 0.000000 0.000000 0.000000 0.000000 0.030634
#
#
# Mechanical properties :
#
#
# Convention : Reuss Voigt Hill
#
# Bulk Modulus (GPa) = 36.21067 36.21965 36.21516
# Shear Modulus (GPa) = 30.97366 31.21372 31.09369
#
# Velocity S-wave (km/s) = 3.58348 3.59734 3.59041
# Velocity P-wave (km/s) = 5.66871 5.68073 5.67472
#
# Compressibility (1/GPa) = 0.02761617
#
# Stress axis : x y z
#
# Youngs Moduli (GPa) = 75.68246 75.68246 79.99884
#
# Poissons Ratio (x) = 0.15924 0.14204
# Poissons Ratio (y) = 0.15924 0.14204
# Poissons Ratio (z) = 0.13438 0.13438
#
# Static dielectric constant tensor:
#      x y z
#    x 1.960880 0.000000 0.000000 
#    y 0.000000 1.960880 0.000000 
#    z 0.000000 0.000000 1.863670 
# 
# From -- ./inp_files/1682.got.cif
#   From: 2010.05.17/outbox.cif.g08.bks.cpg/sg171_1_cif.got.tgz:1682.got - 2010.05.20 11:16:09.
