data_PCOD9580043
_publ_section_title
;
Structure prediction by ZEFSAII (Michael W. Deem and Ramdas Pophale) SiO2 
 PCOD9580043
Probable space group: P 61
;
_chemical_formula_sum "Si O2"
_cell_formula_units_Z 48
_cell_length_a 14.228914
_cell_length_b 14.228914
_cell_length_c 12.953319
_cell_angle_alpha 90.000000
_cell_angle_beta 90.000000
_cell_angle_gamma 120.000000
_cell_volume 2271.199070
_symmetry_space_group_name_H-M "P 61"
_symmetry_group_IT_number 169
_symmetry_cell_setting 'hexagonal'
loop_
_space_group_symop_operation_xyz
x,y,z
x-y,x,1/6+z
-y,x-y,1/3+z
-x,-y,1/2+z
-x+y,-x,2/3+z
y,-x+y,5/6+z
loop_
_atom_site_type_symbol
_atom_site_label
_atom_site_fract_x
_atom_site_fract_y
_atom_site_fract_z
Si Si1 0.984774 0.502801 0.102670
Si Si2 0.855405 0.021532 0.210465
Si Si3 0.628710 0.676897 0.284971
Si Si4 0.673480 0.563586 0.101695
Si Si5 0.266504 0.630842 0.409342
Si Si6 0.705190 0.475978 0.464564
Si Si7 0.843355 0.003968 0.545641
Si Si8 0.608162 0.737874 0.807878
O O1 0.888896 0.395168 0.157088
O O2 0.071919 0.578338 0.185270
O O3 0.938384 0.574293 0.049955
O O4 0.026572 0.456983 0.011841
O O5 0.736069 0.994482 0.180058
O O6 0.926387 0.065370 0.105958
O O7 0.907435 0.118990 0.294642
O O8 0.649251 0.640243 0.174415
O O9 0.579527 0.756651 0.284097
O O10 0.673379 0.468957 0.169375
O O11 0.787399 0.627526 0.043235
O O12 0.256752 0.669393 0.522685
O O13 0.390909 0.684875 0.377935
O O14 0.203466 0.500621 0.408412
O O15 0.771244 0.057325 0.574075
O O16 0.951505 0.090741 0.483200
#
# Coordination Sequence:
#
# PCOD9580043 Si02
#       8
#     6   6   6   6   6   6   6   6
#     4  11  24  43  66 105 142 180 239 284 350 434
#     4  10  24  48  70  98 138 178 238 300 362 427
#     4  12  25  42  70 105 137 185 238 289 354 425
#     4  12  24  43  68 103 140 183 238 284 348 432
#     4  11  22  43  67  95 141 180 225 275 347 423
#     4  11  23  43  64  97 140 182 223 287 348 413
#     4  10  23  48  70 101 136 180 236 293 354 422
#     4  11  23  44  71 100 146 180 231 292 351 426
#
# _framework density 21.134208999999998
#
# number of rings (size 3 to 8) (size 9 to 14) (size 15 to 20)
#    0.000    1.000    5.000    3.000    0.000    3.000 
#   13.500    0.000    0.000    0.000    0.000    0.000 
#    0.000    0.000    0.000    0.000    0.000    0.000 
#
# Total GULP energy -268280.207574 kJ/mol
# GULP energy per Si atom -5589.170991 kJ/mol
# Density = 2.108611 g / cm^3
# Si number density = 21.134209 Si / 1000 Ang^3
#
#
#
# Elastic Constant Matrix: (Units=GPa)
#
#
# Indices 1 2 3 4 5 6 
#
# 1 54.2157 4.6842 9.5540 0.0000 0.0000 0.0000
# 2 4.6842 54.2157 9.5540 0.0000 0.0000 0.0000
# 3 9.5540 9.5540 48.2896 0.0000 0.0000 0.0000
# 4 0.0000 0.0000 0.0000 23.7030 0.0000 0.0000
# 5 0.0000 0.0000 0.0000 0.0000 23.7030 0.0000
# 6 0.0000 0.0000 0.0000 0.0000 0.0000 24.7657
#
#
#
# Elastic Compliance Matrix: (Units=1/GPa)
#
#
# Indices 1 2 3 4 5 6 
#
# 1 0.019166 -0.001023 -0.003589 0.000000 0.000000 0.000000
# 2 -0.001023 0.019166 -0.003589 0.000000 0.000000 0.000000
# 3 -0.003589 -0.003589 0.022129 0.000000 0.000000 0.000000
# 4 0.000000 0.000000 0.000000 0.042189 0.000000 0.000000
# 5 0.000000 0.000000 0.000000 0.000000 0.042189 0.000000
# 6 0.000000 0.000000 0.000000 0.000000 0.000000 0.040378
#
#
# Mechanical properties :
#
#
# Convention : Reuss Voigt Hill
#
# Bulk Modulus (GPa) = 22.69850 22.70062 22.69956
# Shear Modulus (GPa) = 23.11543 23.29630 23.20586
#
# Velocity S-wave (km/s) = 3.31077 3.32370 3.31724
# Velocity P-wave (km/s) = 5.03770 5.04914 5.04342
#
# Compressibility (1/GPa) = 0.04405577
#
# Stress axis : x y z
#
# Youngs Moduli (GPa) = 52.17632 52.17632 45.19021
#
# Poissons Ratio (x) = 0.05340 0.16221
# Poissons Ratio (y) = 0.05340 0.16221
# Poissons Ratio (z) = 0.18728 0.18728
#
# Static dielectric constant tensor:
#      x y z
#    x 1.765530 0.000000 0.000000 
#    y 0.000000 1.765530 0.000000 
#    z 0.000000 0.000000 1.741060 
# 
# From -- ./inp_files/1053.got.cif
#   From: 2010.05.17/outbox.cif.g08.bks.cpg/sg169_cif.got.tgz:1053.got - 2010.05.20 11:12:54.
