data_PCOD9580392
_publ_section_title
;
Structure prediction by ZEFSAII (Michael W. Deem and Ramdas Pophale) SiO2 
 PCOD9580392
Probable space group: P 65
;
_chemical_formula_sum "Si O2"
_cell_formula_units_Z 48
_cell_length_a 14.010021
_cell_length_b 14.010021
_cell_length_c 11.730245
_cell_angle_alpha 90.000000
_cell_angle_beta 90.000000
_cell_angle_gamma 120.000000
_cell_volume 1993.954699
_symmetry_space_group_name_H-M "P 65"
_symmetry_group_IT_number 170
_symmetry_cell_setting 'hexagonal'
loop_
_space_group_symop_operation_xyz
x,y,z
x-y,x,5/6+z
-y,x-y,2/3+z
-x,-y,1/2+z
-x+y,-x,1/3+z
y,-x+y,1/6+z
loop_
_atom_site_type_symbol
_atom_site_label
_atom_site_fract_x
_atom_site_fract_y
_atom_site_fract_z
Si Si1 0.796812 0.867237 0.748020
Si Si2 0.085560 0.698018 0.331520
Si Si3 0.591636 0.730738 0.388405
Si Si4 0.330928 0.351918 0.674000
Si Si5 0.883380 0.438594 0.629984
Si Si6 0.783452 0.331474 0.250821
Si Si7 0.763780 0.322270 0.996221
Si Si8 0.000883 0.329384 0.258690
O O1 0.875302 0.854366 0.656813
O O2 0.693147 0.864847 0.683306
O O3 0.672866 0.707552 0.055939
O O4 0.126920 0.651167 0.226018
O O5 0.125692 0.660200 0.441719
O O6 0.232993 0.983703 0.506448
O O7 0.637208 0.861070 0.373953
O O8 0.636647 0.702656 0.274695
O O9 0.460177 0.645400 0.409223
O O10 0.647011 0.691693 0.484891
O O11 0.425701 0.480480 0.688320
O O12 0.769227 0.428853 0.592492
O O13 0.945621 0.554042 0.694122
O O14 0.680357 0.257345 0.329062
O O15 0.880898 0.311378 0.284407
O O16 0.751792 0.283003 0.124038
#
# Coordination Sequence:
#
# PCOD9580392 Si02
#       8
#     6   6   6   6   6   6   6   6
#     4  12  31  56  80 114 149 205 276 336 399 450
#     4  11  25  48  76 105 155 195 256 314 386 465
#     4  11  26  47  71 113 148 204 256 316 383 458
#     4  11  26  47  75 108 156 201 259 314 387 464
#     4  11  24  47  71 120 155 201 247 308 387 467
#     4  12  25  41  72 109 159 200 240 302 385 475
#     4  12  24  43  71 112 155 198 247 302 383 479
#     4  12  27  49  78 111 159 202 251 326 390 470
#
# _framework density 24.072761
#
# number of rings (size 3 to 8) (size 9 to 14) (size 15 to 20)
#    0.000    0.500    6.250    1.500    7.000    1.000 
#    2.250    0.000    0.000    0.000    0.000    0.000 
#    0.000    0.000    0.000    0.000    0.000    0.000 
#
# Total GULP energy -268343.506957 kJ/mol
# GULP energy per Si atom -5590.489728 kJ/mol
# Density = 2.401797 g / cm^3
# Si number density = 24.072761 Si / 1000 Ang^3
#
#
#
# Elastic Constant Matrix: (Units=GPa)
#
#
# Indices 1 2 3 4 5 6 
#
# 1 108.5269 52.2076 32.8724 0.0000 0.0000 0.0000
# 2 52.2076 108.5269 32.8724 0.0000 0.0000 0.0000
# 3 32.8724 32.8724 50.0828 0.0000 0.0000 0.0000
# 4 0.0000 0.0000 0.0000 29.4241 0.0000 0.0000
# 5 0.0000 0.0000 0.0000 0.0000 29.4241 0.0000
# 6 0.0000 0.0000 0.0000 0.0000 0.0000 28.1596
#
#
#
# Elastic Compliance Matrix: (Units=1/GPa)
#
#
# Indices 1 2 3 4 5 6 
#
# 1 0.013130 -0.004626 -0.005582 0.000000 0.000000 0.000000
# 2 -0.004626 0.013130 -0.005582 0.000000 0.000000 0.000000
# 3 -0.005582 -0.005582 0.027295 0.000000 0.000000 0.000000
# 4 0.000000 0.000000 0.000000 0.033986 0.000000 0.000000
# 5 0.000000 0.000000 0.000000 0.000000 0.033986 0.000000
# 6 0.000000 0.000000 0.000000 0.000000 0.000000 0.035512
#
#
# Mechanical properties :
#
#
# Convention : Reuss Voigt Hill
#
# Bulk Modulus (GPa) = 45.50516 55.89348 50.69932
# Shear Modulus (GPa) = 25.51756 27.34718 26.43237
#
# Velocity S-wave (km/s) = 3.25932 3.37415 3.31723
# Velocity P-wave (km/s) = 5.75400 6.20071 5.98152
#
# Compressibility (1/GPa) = 0.02197553
#
# Stress axis : x y z
#
# Youngs Moduli (GPa) = 76.15975 76.15975 36.63717
#
# Poissons Ratio (x) = 0.35229 0.20451
# Poissons Ratio (y) = 0.35229 0.20451
# Poissons Ratio (z) = 0.42513 0.42513
#
# Static dielectric constant tensor:
#      x y z
#    x 1.983350 0.000000 0.000000 
#    y 0.000000 1.983350 0.000000 
#    z 0.000000 0.000000 1.951870 
# 
# From -- ./inp_files/1275.got.cif
#   From: 2010.05.17/outbox.cif.g08.bks.cpg/sg170_cif.got.tgz:1275.got - 2010.05.20 11:14:30.
