data_PCOD9580432
_publ_section_title
;
Structure prediction by ZEFSAII (Michael W. Deem and Ramdas Pophale) SiO2 
 PCOD9580432
Probable space group: P 62
;
_chemical_formula_sum "Si O2"
_cell_formula_units_Z 39
_cell_length_a 13.814018
_cell_length_b 13.814018
_cell_length_c 11.290647
_cell_angle_alpha 90.000000
_cell_angle_beta 90.000000
_cell_angle_gamma 120.000000
_cell_volume 1865.904862
_symmetry_space_group_name_H-M "P 62"
_symmetry_group_IT_number 171
_symmetry_cell_setting 'hexagonal'
loop_
_space_group_symop_operation_xyz
x,y,z
x-y,x,1/3+z
-y,x-y,2/3+z
-x,-y,z
-x+y,-x,1/3+z
y,-x+y,2/3+z
loop_
_atom_site_type_symbol
_atom_site_label
_atom_site_fract_x
_atom_site_fract_y
_atom_site_fract_z
Si Si1 0.862989 0.231597 0.849850
Si Si2 0.500000 0.500000 0.963992
Si Si3 0.203066 0.584012 0.824884
Si Si4 0.440004 0.758526 0.718206
Si Si5 0.353798 0.290430 0.364267
Si Si6 0.115300 0.770192 0.502599
Si Si7 0.267392 0.944438 0.641435
O O1 0.851521 0.341718 0.863688
O O2 0.778070 0.152335 0.744895
O O3 0.987953 0.273567 0.803613
O O4 0.821974 0.158347 0.968660
O O5 0.577513 0.461307 0.033111
O O6 0.408755 0.382808 0.908748
O O7 0.316092 0.670794 0.757571
O O8 0.122456 0.481035 0.741625
O O9 0.244128 0.538599 0.934548
O O10 0.531146 0.780475 0.818218
O O11 0.322188 0.350528 0.259973
O O12 0.163853 0.892829 0.554451
O O13 0.054655 0.757287 0.379750
#
# Coordination Sequence:
#
# PCOD9580432 Si02
#       7
#     6   3   6   6   6   6   6
#     4  10  20  37  58  91 126 177 228 277 329 406
#     4  10  18  34  50  80 120 174 208 262 312 382
#     4  12  22  37  55  93 129 179 226 276 331 415
#     4  11  23  33  57  84 132 173 227 264 331 396
#     4  10  22  39  63  89 132 181 230 277 337 405
#     4   9  20  37  59  87 122 172 224 272 323 402
#     4   9  17  33  55  85 119 166 217 262 318 378
#
# _framework density 20.901387
#
# number of rings (size 3 to 8) (size 9 to 14) (size 15 to 20)
#    0.000    1.846    3.077    1.385    2.154    1.231 
#   11.077    4.615    0.000    0.000    0.000    0.000 
#    0.000  301.538    0.000    0.000    0.000    0.000 
#
# Total GULP energy -217270.218571 kJ/mol
# GULP energy per Si atom -5571.031245 kJ/mol
# Density = 2.085381 g / cm^3
# Si number density = 20.901387 Si / 1000 Ang^3
#
#
#
# Elastic Constant Matrix: (Units=GPa)
#
#
# Indices 1 2 3 4 5 6 
#
# 1 103.5342 47.3046 45.2431 0.0000 0.0000 0.0000
# 2 47.3046 103.5342 45.2431 0.0000 0.0000 0.0000
# 3 45.2431 45.2431 58.5181 0.0000 0.0000 0.0000
# 4 0.0000 0.0000 0.0000 12.3181 0.0000 0.0000
# 5 0.0000 0.0000 0.0000 0.0000 12.3181 0.0000
# 6 0.0000 0.0000 0.0000 0.0000 0.0000 28.1148
#
#
#
# Elastic Compliance Matrix: (Units=1/GPa)
#
#
# Indices 1 2 3 4 5 6 
#
# 1 0.015074 -0.002710 -0.009559 0.000000 0.000000 0.000000
# 2 -0.002710 0.015074 -0.009559 0.000000 0.000000 0.000000
# 3 -0.009559 -0.009559 0.031870 0.000000 0.000000 0.000000
# 4 0.000000 0.000000 0.000000 0.081181 0.000000 0.000000
# 5 0.000000 0.000000 0.000000 0.000000 0.081181 0.000000
# 6 0.000000 0.000000 0.000000 0.000000 0.000000 0.035568
#
#
# Mechanical properties :
#
#
# Convention : Reuss Voigt Hill
#
# Bulk Modulus (GPa) = 54.46239 60.12978 57.29608
# Shear Modulus (GPa) = 16.14325 19.06991 17.60658
#
# Velocity S-wave (km/s) = 2.78214 3.02383 2.90550
# Velocity P-wave (km/s) = 6.03604 6.40486 6.22318
#
# Compressibility (1/GPa) = 0.01836129
#
# Stress axis : x y z
#
# Youngs Moduli (GPa) = 66.33879 66.33879 31.37740
#
# Poissons Ratio (x) = 0.17978 0.29994
# Poissons Ratio (y) = 0.17978 0.29994
# Poissons Ratio (z) = 0.63415 0.63415
#
# Static dielectric constant tensor:
#      x y z
#    x 1.774770 0.000000 0.000000 
#    y 0.000000 1.774770 0.000000 
#    z 0.000000 0.000000 1.815330 
# 
# From -- ./inp_files/2018.got.cif
#   From: 2010.05.17/outbox.cif.g08.bks.cpg/sg171_2_cif.got.tgz:2018.got - 2010.05.20 11:16:09.
