data_PCOD9580231
_publ_section_title
;
Structure prediction by ZEFSAII (Michael W. Deem and Ramdas Pophale) SiO2 
 PCOD9580231
Probable space group: P 65
;
_chemical_formula_sum "Si O2"
_cell_formula_units_Z 42
_cell_length_a 14.473718
_cell_length_b 14.473718
_cell_length_c 11.577768
_cell_angle_alpha 90.000000
_cell_angle_beta 90.000000
_cell_angle_gamma 120.000000
_cell_volume 2100.466154
_symmetry_space_group_name_H-M "P 65"
_symmetry_group_IT_number 170
_symmetry_cell_setting 'hexagonal'
loop_
_space_group_symop_operation_xyz
x,y,z
x-y,x,5/6+z
-y,x-y,2/3+z
-x,-y,1/2+z
-x+y,-x,1/3+z
y,-x+y,1/6+z
loop_
_atom_site_type_symbol
_atom_site_label
_atom_site_fract_x
_atom_site_fract_y
_atom_site_fract_z
Si Si1 0.179062 0.408027 0.473470
Si Si2 0.934002 0.283798 0.521588
Si Si3 0.373286 0.628725 0.238519
Si Si4 0.201630 0.616444 0.085979
Si Si5 0.127878 0.379780 0.035702
Si Si6 0.102605 0.202801 0.861881
Si Si7 0.725108 0.610219 0.743382
O O1 0.227914 0.370679 0.577741
O O2 0.236151 0.536148 0.479044
O O3 0.199816 0.370301 0.352094
O O4 0.054472 0.363632 0.486801
O O5 0.887467 0.349434 0.590478
O O6 0.939202 0.195111 0.599873
O O7 0.256317 0.607556 0.202684
O O8 0.413116 0.701635 0.350333
O O9 0.363445 0.514451 0.247936
O O10 0.165288 0.504777 0.019493
O O11 0.210067 0.372388 0.124276
O O12 0.010460 0.327445 0.088896
O O13 0.110969 0.306877 0.924523
O O14 0.991356 0.131247 0.792706
#
# Coordination Sequence:
#
# PCOD9580231 Si02
#       7
#     6   6   6   6   6   6   6
#     4  11  22  40  63  94 131 169 216 269 331 397
#     4  11  23  41  66  94 131 169 218 268 333 394
#     4  10  20  38  62  90 132 168 212 260 324 400
#     4  10  21  38  62  98 128 172 209 260 324 398
#     4  11  23  41  66  94 131 169 218 268 333 394
#     4  12  25  50  70  98 128 176 233 284 334 390
#     4  11  22  40  63  94 131 169 216 269 331 397
#
# _framework density 19.995562
#
# number of rings (size 3 to 8) (size 9 to 14) (size 15 to 20)
#    0.000    1.143    4.286    2.571    0.000    0.000 
#    2.571    0.000    0.000    0.000    0.000    0.000 
#    0.000    0.000    0.000    0.000    0.000    0.000 
#
# Total GULP energy -234374.009435 kJ/mol
# GULP energy per Si atom -5580.333558 kJ/mol
# Density = 1.995005 g / cm^3
# Si number density = 19.995562 Si / 1000 Ang^3
#
#
#
# Elastic Constant Matrix: (Units=GPa)
#
#
# Indices 1 2 3 4 5 6 
#
# 1 66.0632 38.3603 2.2781 0.0000 0.0000 0.0000
# 2 38.3603 66.0632 2.2781 0.0000 0.0000 0.0000
# 3 2.2781 2.2781 43.8024 0.0000 0.0000 0.0000
# 4 0.0000 0.0000 0.0000 30.9953 0.0000 0.0000
# 5 0.0000 0.0000 0.0000 0.0000 30.9953 0.0000
# 6 0.0000 0.0000 0.0000 0.0000 0.0000 13.8514
#
#
#
# Elastic Compliance Matrix: (Units=1/GPa)
#
#
# Indices 1 2 3 4 5 6 
#
# 1 0.022848 -0.013250 -0.000499 0.000000 0.000000 0.000000
# 2 -0.013250 0.022848 -0.000499 0.000000 0.000000 0.000000
# 3 -0.000499 -0.000499 0.022882 0.000000 0.000000 0.000000
# 4 0.000000 0.000000 0.000000 0.032263 0.000000 0.000000
# 5 0.000000 0.000000 0.000000 0.000000 0.032263 0.000000
# 6 0.000000 0.000000 0.000000 0.000000 0.000000 0.072195
#
#
# Mechanical properties :
#
#
# Convention : Reuss Voigt Hill
#
# Bulk Modulus (GPa) = 24.94928 29.08464 27.01696
# Shear Modulus (GPa) = 20.23028 24.03587 22.13308
#
# Velocity S-wave (km/s) = 3.18423 3.47084 3.33062
# Velocity P-wave (km/s) = 5.10134 5.53529 5.32273
#
# Compressibility (1/GPa) = 0.04008132
#
# Stress axis : x y z
#
# Youngs Moduli (GPa) = 43.76796 43.76796 43.70303
#
# Poissons Ratio (x) = 0.57991 0.02182
# Poissons Ratio (y) = 0.57991 0.02182
# Poissons Ratio (z) = 0.02185 0.02185
#
# Static dielectric constant tensor:
#      x y z
#    x 1.702250 0.000000 0.000000 
#    y 0.000000 1.702250 0.000000 
#    z 0.000000 0.000000 1.729170 
# 
# From -- ./inp_files/980.got.cif
#   From: 2010.05.17/outbox.cif.g08.bks.cpg/sg170_cif.got.tgz:980.got - 2010.05.20 11:14:30.
