data_PCOD9580366
_publ_section_title
;
Structure prediction by ZEFSAII (Michael W. Deem and Ramdas Pophale) SiO2 
 PCOD9580366
Probable space group: P 65
;
_chemical_formula_sum "Si O2"
_cell_formula_units_Z 48
_cell_length_a 14.868919
_cell_length_b 14.868919
_cell_length_c 11.000074
_cell_angle_alpha 90.000000
_cell_angle_beta 90.000000
_cell_angle_gamma 120.000000
_cell_volume 2106.129298
_symmetry_space_group_name_H-M "P 65"
_symmetry_group_IT_number 170
_symmetry_cell_setting 'hexagonal'
loop_
_space_group_symop_operation_xyz
x,y,z
x-y,x,5/6+z
-y,x-y,2/3+z
-x,-y,1/2+z
-x+y,-x,1/3+z
y,-x+y,1/6+z
loop_
_atom_site_type_symbol
_atom_site_label
_atom_site_fract_x
_atom_site_fract_y
_atom_site_fract_z
Si Si1 0.539895 0.129371 0.719180
Si Si2 0.835814 0.828012 0.981310
Si Si3 0.618367 0.525248 0.782589
Si Si4 0.711919 0.106690 0.824692
Si Si5 0.194266 0.370063 0.612922
Si Si6 0.088406 0.459174 0.460843
Si Si7 0.212405 0.131588 0.995917
Si Si8 0.617149 0.772167 0.904601
O O1 0.524055 0.095604 0.578753
O O2 0.656643 0.156840 0.746887
O O3 0.487703 0.197696 0.758654
O O4 0.461294 0.029257 0.796433
O O5 0.740259 0.817895 0.903862
O O6 0.941144 0.856540 0.913058
O O7 0.791605 0.713432 0.035024
O O8 0.604986 0.619303 0.734534
O O9 0.574240 0.432071 0.684373
O O10 0.739714 0.582617 0.807020
O O11 0.776646 0.060892 0.757753
O O12 0.774898 0.185534 0.931814
O O13 0.102749 0.381149 0.549168
O O14 0.160820 0.307269 0.740021
O O15 0.111559 0.441188 0.322868
O O16 0.135562 0.156891 0.909009
#
# Coordination Sequence:
#
# PCOD9580366 Si02
#       8
#     6   6   6   6   6   6   6   6
#     4  11  21  42  71 103 135 186 244 303 374 448
#     4  12  23  41  72 106 146 196 249 302 359 444
#     4  11  23  42  69  99 136 182 243 302 371 438
#     4  11  25  45  71 103 142 192 246 306 381 449
#     4  12  22  45  73 107 147 193 253 312 376 451
#     4  11  22  40  71 101 135 184 236 303 367 440
#     4  12  28  51  75 109 159 209 262 321 387 460
#     4  12  22  46  70 102 142 186 243 303 375 444
#
# _framework density 22.790624999999999
#
# number of rings (size 3 to 8) (size 9 to 14) (size 15 to 20)
#    0.000    0.500    5.000    3.750    0.000    1.000 
#    4.500   15.000    0.000    0.000    0.000    0.000 
#    0.000    0.000    0.000    0.000    0.000    0.000 
#
# Total GULP energy -267312.828469 kJ/mol
# GULP energy per Si atom -5569.017260 kJ/mol
# Density = 2.273875 g / cm^3
# Si number density = 22.790625 Si / 1000 Ang^3
#
#
#
# Elastic Constant Matrix: (Units=GPa)
#
#
# Indices 1 2 3 4 5 6 
#
# 1 67.2515 24.2951 34.7072 0.0000 0.0000 0.0000
# 2 24.2951 67.2515 34.7072 0.0000 0.0000 0.0000
# 3 34.7072 34.7072 107.7413 0.0000 0.0000 0.0000
# 4 0.0000 0.0000 0.0000 34.5385 0.0000 0.0000
# 5 0.0000 0.0000 0.0000 0.0000 34.5385 0.0000
# 6 0.0000 0.0000 0.0000 0.0000 0.0000 21.4782
#
#
#
# Elastic Compliance Matrix: (Units=1/GPa)
#
#
# Indices 1 2 3 4 5 6 
#
# 1 0.018867 -0.004413 -0.004656 0.000000 0.000000 0.000000
# 2 -0.004413 0.018867 -0.004656 0.000000 0.000000 0.000000
# 3 -0.004656 -0.004656 0.012281 0.000000 0.000000 0.000000
# 4 0.000000 0.000000 0.000000 0.028953 0.000000 0.000000
# 5 0.000000 0.000000 0.000000 0.000000 0.028953 0.000000
# 6 0.000000 0.000000 0.000000 0.000000 0.000000 0.046559
#
#
# Mechanical properties :
#
#
# Convention : Reuss Voigt Hill
#
# Bulk Modulus (GPa) = 44.31720 47.74036 46.02878
# Shear Modulus (GPa) = 26.39204 28.01336 27.20270
#
# Velocity S-wave (km/s) = 3.40666 3.50974 3.45859
# Velocity P-wave (km/s) = 5.91282 6.11696 6.01576
#
# Compressibility (1/GPa) = 0.02256460
#
# Stress axis : x y z
#
# Youngs Moduli (GPa) = 53.00372 53.00372 81.42497
#
# Poissons Ratio (x) = 0.23389 0.37912
# Poissons Ratio (y) = 0.23389 0.37912
# Poissons Ratio (z) = 0.24679 0.24679
#
# Static dielectric constant tensor:
#      x y z
#    x 2.055910 0.000000 0.000000 
#    y 0.000000 2.055910 0.000000 
#    z 0.000000 0.000000 1.933940 
# 
# From -- ./inp_files/1047.got.cif
#   From: 2010.05.17/outbox.cif.g08.bks.cpg/sg170_cif.got.tgz:1047.got - 2010.05.20 11:14:30.
