data_PCOD9580471
_publ_section_title
;
Structure prediction by ZEFSAII (Michael W. Deem and Ramdas Pophale) SiO2 
 PCOD9580471
Probable space group: P 62
;
_chemical_formula_sum "Si O2"
_cell_formula_units_Z 18
_cell_length_a 13.976034
_cell_length_b 13.976034
_cell_length_c 5.035592
_cell_angle_alpha 90.000000
_cell_angle_beta 90.000000
_cell_angle_gamma 120.000000
_cell_volume 851.822414
_symmetry_space_group_name_H-M "P 62"
_symmetry_group_IT_number 171
_symmetry_cell_setting 'hexagonal'
loop_
_space_group_symop_operation_xyz
x,y,z
x-y,x,1/3+z
-y,x-y,2/3+z
-x,-y,z
-x+y,-x,1/3+z
y,-x+y,2/3+z
loop_
_atom_site_type_symbol
_atom_site_label
_atom_site_fract_x
_atom_site_fract_y
_atom_site_fract_z
Si Si1 0.603756 0.392936 0.530450
Si Si2 0.227160 0.379991 0.338138
Si Si3 0.363626 0.270853 0.511172
O O1 0.581835 0.274671 0.424112
O O2 0.668209 0.494979 0.328528
O O3 0.483374 0.371239 0.603041
O O4 0.272928 0.306948 0.474668
O O5 0.140686 0.379830 0.547603
O O6 0.164720 0.339807 0.057679
#
# Coordination Sequence:
#
# PCOD9580471 Si02
#       3
#     6   6   6
#     4  10  19  36  58  92 134 164 203 248 328 406
#     4  11  23  39  62  90 126 168 216 266 321 387
#     4  11  23  39  62  90 126 168 216 266 321 387
#
# _framework density 21.131166
#
# number of rings (size 3 to 8) (size 9 to 14) (size 15 to 20)
#    0.000    1.333    3.333    3.000    0.000    0.000 
#    0.000    6.667    0.000   10.000    0.000    0.000 
#    0.000    0.000    0.000    0.000    0.000    0.000 
#
# Total GULP energy -100347.852291 kJ/mol
# GULP energy per Si atom -5574.880683 kJ/mol
# Density = 2.108307 g / cm^3
# Si number density = 21.131166 Si / 1000 Ang^3
#
#
#
# Elastic Constant Matrix: (Units=GPa)
#
#
# Indices 1 2 3 4 5 6 
#
# 1 59.5633 29.0216 12.7969 0.0000 0.0000 0.0000
# 2 29.0216 59.5633 12.7969 0.0000 0.0000 0.0000
# 3 12.7969 12.7969 88.0282 0.0000 0.0000 0.0000
# 4 0.0000 0.0000 0.0000 31.2417 0.0000 0.0000
# 5 0.0000 0.0000 0.0000 0.0000 31.2417 0.0000
# 6 0.0000 0.0000 0.0000 0.0000 0.0000 15.2709
#
#
#
# Elastic Compliance Matrix: (Units=1/GPa)
#
#
# Indices 1 2 3 4 5 6 
#
# 1 0.022263 -0.010479 -0.001713 0.000000 0.000000 0.000000
# 2 -0.010479 0.022263 -0.001713 0.000000 0.000000 0.000000
# 3 -0.001713 -0.001713 0.011858 0.000000 0.000000 0.000000
# 4 0.000000 0.000000 0.000000 0.032008 0.000000 0.000000
# 5 0.000000 0.000000 0.000000 0.000000 0.032008 0.000000
# 6 0.000000 0.000000 0.000000 0.000000 0.000000 0.065484
#
#
# Mechanical properties :
#
#
# Convention : Reuss Voigt Hill
#
# Bulk Modulus (GPa) = 34.99798 35.15395 35.07597
# Shear Modulus (GPa) = 22.39947 25.72017 24.05982
#
# Velocity S-wave (km/s) = 3.25933 3.49258 3.37797
# Velocity P-wave (km/s) = 5.54640 5.73902 5.64353
#
# Compressibility (1/GPa) = 0.02857308
#
# Stress axis : x y z
#
# Youngs Moduli (GPa) = 44.91800 44.91800 84.33093
#
# Poissons Ratio (x) = 0.47071 0.14446
# Poissons Ratio (y) = 0.47071 0.14446
# Poissons Ratio (z) = 0.07694 0.07694
#
# Static dielectric constant tensor:
#      x y z
#    x 1.819110 0.000000 0.000000 
#    y 0.000000 1.819110 0.000000 
#    z 0.000000 0.000000 1.782810 
# 
# From -- ./inp_files/114.got.cif
#   From: 2010.05.17/outbox.cif.g08.bks.cpg/sg171_1_cif.got.tgz:114.got - 2010.05.20 11:16:09.
