data_PCOD9580978
_publ_section_title
;
Structure prediction by ZEFSAII (Michael W. Deem and Ramdas Pophale) SiO2 
 PCOD9580978
Probable space group: P 64
;
_chemical_formula_sum "Si O2"
_cell_formula_units_Z 18
_cell_length_a 12.635077
_cell_length_b 12.635077
_cell_length_c 4.944340
_cell_angle_alpha 90.000000
_cell_angle_beta 90.000000
_cell_angle_gamma 120.000000
_cell_volume 683.588495
_symmetry_space_group_name_H-M "P 64"
_symmetry_group_IT_number 172
_symmetry_cell_setting 'hexagonal'
loop_
_space_group_symop_operation_xyz
x,y,z
x-y,x,2/3+z
-y,x-y,1/3+z
-x,-y,z
-x+y,-x,2/3+z
y,-x+y,1/3+z
loop_
_atom_site_type_symbol
_atom_site_label
_atom_site_fract_x
_atom_site_fract_y
_atom_site_fract_z
Si Si1 0.847112 0.517673 0.653280
Si Si2 0.001897 0.213850 0.665864
Si Si3 0.455572 0.180611 0.511777
O O1 0.942048 0.650983 0.532954
O O2 0.872820 0.408516 0.711247
O O3 0.735088 0.479310 0.446629
O O4 0.813753 0.545715 0.946549
O O5 0.912618 0.104386 0.468762
O O6 0.918451 0.232190 0.890687
#
# Coordination Sequence:
#
# PCOD9580978 Si02
#       3
#     6   6   6
#     4  11  23  43  73 109 146 188 239 304 376 442
#     4  10  25  48  73 106 150 202 256 304 362 440
#     4  11  23  43  73 109 146 188 239 304 376 442
#
# _framework density 26.331627999999998
#
# number of rings (size 3 to 8) (size 9 to 14) (size 15 to 20)
#    0.000    1.333    0.000    5.000    0.000   10.667 
#    0.000   25.000    0.000    0.000    0.000    0.000 
#    0.000    0.000    0.000    0.000    0.000    0.000 
#
# Total GULP energy -100612.418187 kJ/mol
# GULP energy per Si atom -5589.578788 kJ/mol
# Density = 2.627170 g / cm^3
# Si number density = 26.331628 Si / 1000 Ang^3
#
#
#
# Elastic Constant Matrix: (Units=GPa)
#
#
# Indices 1 2 3 4 5 6 
#
# 1 164.4823 66.2838 32.7701 0.0000 0.0000 0.0000
# 2 66.2838 164.4823 32.7701 0.0000 0.0000 0.0000
# 3 32.7701 32.7701 105.8574 0.0000 0.0000 0.0000
# 4 0.0000 0.0000 0.0000 41.6497 0.0000 0.0000
# 5 0.0000 0.0000 0.0000 0.0000 41.6497 0.0000
# 6 0.0000 0.0000 0.0000 0.0000 0.0000 49.0992
#
#
#
# Elastic Compliance Matrix: (Units=1/GPa)
#
#
# Indices 1 2 3 4 5 6 
#
# 1 0.007467 -0.002716 -0.001471 0.000000 0.000000 0.000000
# 2 -0.002716 0.007467 -0.001471 0.000000 0.000000 0.000000
# 3 -0.001471 -0.001471 0.010357 0.000000 0.000000 0.000000
# 4 0.000000 0.000000 0.000000 0.024010 0.000000 0.000000
# 5 0.000000 0.000000 0.000000 0.000000 0.024010 0.000000
# 6 0.000000 0.000000 0.000000 0.000000 0.000000 0.020367
#
#
# Mechanical properties :
#
#
# Convention : Reuss Voigt Hill
#
# Bulk Modulus (GPa) = 71.54944 77.60775 74.57859
# Shear Modulus (GPa) = 45.59856 46.67961 46.13909
#
# Velocity S-wave (km/s) = 4.16589 4.21498 4.19051
# Velocity P-wave (km/s) = 7.09725 7.29557 7.19709
#
# Compressibility (1/GPa) = 0.01397635
#
# Stress axis : x y z
#
# Youngs Moduli (GPa) = 133.91745 133.91745 96.55034
#
# Poissons Ratio (x) = 0.36374 0.14201
# Poissons Ratio (y) = 0.36374 0.14201
# Poissons Ratio (z) = 0.19696 0.19696
#
# Static dielectric constant tensor:
#      x y z
#    x 2.196030 0.000000 0.000000 
#    y 0.000000 2.196030 0.000000 
#    z 0.000000 0.000000 2.035430 
# 
# From -- ./inp_files/78.got.cif
#   From: 2010.05.17/outbox.cif.g08.bks.cpg/sg172_1_cif.got.tgz:78.got - 2010.05.20 11:19:57.
