data_PCOD9580897
_publ_section_title
;
Structure prediction by ZEFSAII (Michael W. Deem and Ramdas Pophale) SiO2 
 PCOD9580897
Probable space group: P 64
;
_chemical_formula_sum "Si O2"
_cell_formula_units_Z 45
_cell_length_a 18.666654
_cell_length_b 18.666654
_cell_length_c 8.444227
_cell_angle_alpha 90.000000
_cell_angle_beta 90.000000
_cell_angle_gamma 120.000000
_cell_volume 2548.141180
_symmetry_space_group_name_H-M "P 64"
_symmetry_group_IT_number 172
_symmetry_cell_setting 'hexagonal'
loop_
_space_group_symop_operation_xyz
x,y,z
x-y,x,2/3+z
-y,x-y,1/3+z
-x,-y,z
-x+y,-x,2/3+z
y,-x+y,1/3+z
loop_
_atom_site_type_symbol
_atom_site_label
_atom_site_fract_x
_atom_site_fract_y
_atom_site_fract_z
Si Si1 0.688719 0.781959 0.182160
Si Si2 0.456276 0.236055 0.966574
Si Si3 0.500000 0.500000 0.591463
Si Si4 0.426672 0.385130 0.333674
Si Si5 0.911982 0.357984 0.498128
Si Si6 0.311173 0.080830 0.377234
Si Si7 0.153754 0.700538 0.964544
Si Si8 0.583277 0.147668 0.425206
O O1 0.630012 0.772537 0.031670
O O2 0.630628 0.712133 0.310653
O O3 0.718811 0.868193 0.270714
O O4 0.756729 0.758094 0.129267
O O5 0.464779 0.172245 0.080901
O O6 0.530398 0.327367 0.011335
O O7 0.455277 0.205697 0.785945
O O8 0.489734 0.425673 0.478776
O O9 0.579483 0.547139 0.699236
O O10 0.366085 0.423552 0.340498
O O11 0.486232 0.410807 0.183219
O O12 0.947394 0.307971 0.591632
O O13 0.892823 0.409183 0.623143
O O14 0.382478 0.140624 0.503245
O O15 0.186213 0.644100 0.877260
#
# Coordination Sequence:
#
# PCOD9580897 Si02
#       8
#     6   6   3   6   6   6   6   6
#     4   9  20  36  58  81 115 149 178 236 291 346
#     4  10  20  37  51  81 111 147 195 241 283 334
#     4  12  20  28  58  84 108 144 196 236 274 330
#     4  10  18  33  55  81 108 144 186 233 282 329
#     4  10  22  33  51  83 107 147 196 243 277 327
#     4   9  20  38  57  80 117 149 180 234 297 340
#     4  10  18  35  54  78 110 146 188 235 274 333
#     4  10  20  34  56  71 108 151 192 229 290 326
#
# _framework density 17.659932000000001
#
# number of rings (size 3 to 8) (size 9 to 14) (size 15 to 20)
#    0.000    2.133    2.667    0.000    7.467    1.067 
#    2.400    1.333    0.000    0.000    0.000    0.000 
#    0.000   25.600    0.000    0.000    0.000    0.000 
#
# Total GULP energy -250572.392219 kJ/mol
# GULP energy per Si atom -5568.275383 kJ/mol
# Density = 1.761974 g / cm^3
# Si number density = 17.659932 Si / 1000 Ang^3
#
#
#
# Elastic Constant Matrix: (Units=GPa)
#
#
# Indices 1 2 3 4 5 6 
#
# 1 71.9151 46.3614 42.6480 0.0000 0.0000 0.0000
# 2 46.3614 71.9151 42.6480 0.0000 0.0000 0.0000
# 3 42.6480 42.6480 109.5574 0.0000 0.0000 0.0000
# 4 0.0000 0.0000 0.0000 24.2733 0.0000 0.0000
# 5 0.0000 0.0000 0.0000 0.0000 24.2733 0.0000
# 6 0.0000 0.0000 0.0000 0.0000 0.0000 12.7768
#
#
#
# Elastic Compliance Matrix: (Units=1/GPa)
#
#
# Indices 1 2 3 4 5 6 
#
# 1 0.025444 -0.013689 -0.004576 0.000000 0.000000 0.000000
# 2 -0.013689 0.025444 -0.004576 0.000000 0.000000 0.000000
# 3 -0.004576 -0.004576 0.012690 0.000000 0.000000 0.000000
# 4 0.000000 0.000000 0.000000 0.041197 0.000000 0.000000
# 5 0.000000 0.000000 0.000000 0.000000 0.041197 0.000000
# 6 0.000000 0.000000 0.000000 0.000000 0.000000 0.078267
#
#
# Mechanical properties :
#
#
# Convention : Reuss Voigt Hill
#
# Bulk Modulus (GPa) = 55.87769 57.41136 56.64453
# Shear Modulus (GPa) = 18.12337 20.38006 19.25172
#
# Velocity S-wave (km/s) = 3.20698 3.40078 3.30530
# Velocity P-wave (km/s) = 6.73963 6.92823 6.83458
#
# Compressibility (1/GPa) = 0.01789623
#
# Stress axis : x y z
#
# Youngs Moduli (GPa) = 39.30204 39.30204 78.80155
#
# Poissons Ratio (x) = 0.53802 0.36058
# Poissons Ratio (y) = 0.53802 0.36058
# Poissons Ratio (z) = 0.17984 0.17984
#
# Static dielectric constant tensor:
#      x y z
#    x 1.636490 0.000000 0.000000 
#    y 0.000000 1.636490 0.000000 
#    z 0.000000 0.000000 1.661240 
# 
# From -- ./inp_files/747.got.cif
#   From: 2010.05.17/outbox.cif.g08.bks.cpg/sg172_1_cif.got.tgz:747.got - 2010.05.20 11:19:57.
