data_PCOD9580586
_publ_section_title
;
Structure prediction by ZEFSAII (Michael W. Deem and Ramdas Pophale) SiO2 
 PCOD9580586
Probable space group: P 62
;
_chemical_formula_sum "Si O2"
_cell_formula_units_Z 21
_cell_length_a 9.444763
_cell_length_b 9.444763
_cell_length_c 9.841036
_cell_angle_alpha 90.000000
_cell_angle_beta 90.000000
_cell_angle_gamma 120.000000
_cell_volume 760.245015
_symmetry_space_group_name_H-M "P 62"
_symmetry_group_IT_number 171
_symmetry_cell_setting 'hexagonal'
loop_
_space_group_symop_operation_xyz
x,y,z
x-y,x,1/3+z
-y,x-y,2/3+z
-x,-y,z
-x+y,-x,1/3+z
y,-x+y,2/3+z
loop_
_atom_site_type_symbol
_atom_site_label
_atom_site_fract_x
_atom_site_fract_y
_atom_site_fract_z
Si Si1 0.733022 0.159465 0.061750
Si Si2 0.500000 0.500000 0.186834
Si Si3 0.883110 0.691115 0.320496
Si Si4 0.900342 0.657827 0.012498
O O1 0.718972 0.183606 0.221046
O O2 0.911262 0.289309 0.012335
O O3 0.589497 0.144964 0.967981
O O4 0.726445 0.983561 0.039813
O O5 0.410072 0.345449 0.086118
O O6 0.058314 0.860419 0.309907
O O7 0.847010 0.616094 0.168550
#
# Coordination Sequence:
#
# PCOD9580586 Si02
#       4
#     6   3   6   6
#     4  11  21  40  66 101 133 168 218 278 339 395
#     4  12  24  38  62  96 148 162 212 286 338 418
#     4  11  21  40  66 101 133 168 218 278 339 395
#     4  10  21  39  72  96 126 170 228 282 322 402
#
# _framework density 27.622672999999999
#
# number of rings (size 3 to 8) (size 9 to 14) (size 15 to 20)
#    0.000    1.143    5.714    0.857    0.000    5.714 
#    0.000    5.714    0.000    0.000    0.000    0.000 
#    0.000    0.000    0.000    0.000    0.000    0.000 
#
# Total GULP energy -117263.623729 kJ/mol
# GULP energy per Si atom -5583.982082 kJ/mol
# Density = 2.755980 g / cm^3
# Si number density = 27.622673 Si / 1000 Ang^3
#
#
#
# Elastic Constant Matrix: (Units=GPa)
#
#
# Indices 1 2 3 4 5 6 
#
# 1 90.4316 9.9806 17.7894 0.0000 0.0000 0.0000
# 2 9.9806 90.4316 17.7894 0.0000 0.0000 0.0000
# 3 17.7894 17.7894 218.4898 0.0000 0.0000 0.0000
# 4 0.0000 0.0000 0.0000 34.9303 0.0000 0.0000
# 5 0.0000 0.0000 0.0000 0.0000 34.9303 0.0000
# 6 0.0000 0.0000 0.0000 0.0000 0.0000 40.2255
#
#
#
# Elastic Compliance Matrix: (Units=1/GPa)
#
#
# Indices 1 2 3 4 5 6 
#
# 1 0.011342 -0.001088 -0.000835 0.000000 0.000000 0.000000
# 2 -0.001088 0.011342 -0.000835 0.000000 0.000000 0.000000
# 3 -0.000835 -0.000835 0.004713 0.000000 0.000000 0.000000
# 4 0.000000 0.000000 0.000000 0.028628 0.000000 0.000000
# 5 0.000000 0.000000 0.000000 0.000000 0.028628 0.000000
# 6 0.000000 0.000000 0.000000 0.000000 0.000000 0.024860
#
#
# Mechanical properties :
#
#
# Convention : Reuss Voigt Hill
#
# Bulk Modulus (GPa) = 45.69831 54.49687 50.09759
# Shear Modulus (GPa) = 40.87526 45.60346 43.23936
#
# Velocity S-wave (km/s) = 3.85095 4.06759 3.96075
# Velocity P-wave (km/s) = 6.02933 6.46778 6.25240
#
# Compressibility (1/GPa) = 0.02188265
#
# Stress axis : x y z
#
# Youngs Moduli (GPa) = 88.16508 88.16508 212.18649
#
# Poissons Ratio (x) = 0.09588 0.17716
# Poissons Ratio (y) = 0.09588 0.17716
# Poissons Ratio (z) = 0.07361 0.07361
#
# Static dielectric constant tensor:
#      x y z
#    x 2.287190 0.000000 0.000000 
#    y 0.000000 2.287190 0.000000 
#    z 0.000000 0.000000 2.129560 
# 
# From -- ./inp_files/1416.got.cif
#   From: 2010.05.17/outbox.cif.g08.bks.cpg/sg171_1_cif.got.tgz:1416.got - 2010.05.20 11:16:09.
