data_PCOD9580789
_publ_section_title
;
Structure prediction by ZEFSAII (Michael W. Deem and Ramdas Pophale) SiO2 
 PCOD9580789
Probable space group: P 62
;
_chemical_formula_sum "Si O2"
_cell_formula_units_Z 48
_cell_length_a 11.761635
_cell_length_b 11.761635
_cell_length_c 20.177079
_cell_angle_alpha 90.000000
_cell_angle_beta 90.000000
_cell_angle_gamma 120.000000
_cell_volume 2417.265322
_symmetry_space_group_name_H-M "P 62"
_symmetry_group_IT_number 171
_symmetry_cell_setting 'hexagonal'
loop_
_space_group_symop_operation_xyz
x,y,z
x-y,x,1/3+z
-y,x-y,2/3+z
-x,-y,z
-x+y,-x,1/3+z
y,-x+y,2/3+z
loop_
_atom_site_type_symbol
_atom_site_label
_atom_site_fract_x
_atom_site_fract_y
_atom_site_fract_z
Si Si1 0.412248 0.566636 0.175280
Si Si2 0.642211 0.615145 0.341615
Si Si3 0.887110 0.350254 0.035059
Si Si4 0.885365 0.296008 0.179018
Si Si5 0.401167 0.674556 0.032532
Si Si6 0.648249 0.025220 0.160503
Si Si7 0.150462 0.484981 0.233523
Si Si8 0.809561 0.179447 0.913384
O O1 0.500000 0.500000 0.170089
O O2 0.398398 0.608811 0.101842
O O3 0.274696 0.474205 0.211082
O O4 0.489168 0.695436 0.220581
O O5 0.500000 0.500000 0.318249
O O6 0.711036 0.530579 0.360427
O O7 0.624041 0.663596 0.413870
O O8 0.690286 0.730216 0.286429
O O9 0.914621 0.292716 0.101672
O O10 0.738203 0.328324 0.030864
O O11 0.000000 0.500000 0.031999
O O12 0.895721 0.277693 0.970684
O O13 0.756861 0.159460 0.194539
O O14 0.852317 0.413294 0.181307
O O15 0.013894 0.350369 0.225214
O O16 0.433713 0.613481 0.968552
O O17 0.500000 0.000000 0.173972
O O18 0.676390 0.909972 0.184751
#
# Coordination Sequence:
#
# PCOD9580789 Si02
#       8
#     6   6   6   6   6   6   6   6
#     4  12  24  40  62  95 124 166 225 269 313 395
#     4  11  20  38  62  89 128 167 207 264 326 367
#     4  12  21  36  60  95 129 167 209 260 332 396
#     4  11  22  41  61  90 133 166 200 264 339 391
#     4  12  23  40  62  90 131 170 212 265 320 395
#     4  11  22  37  61  98 131 166 215 271 324 395
#     4  11  23  40  60  89 131 176 202 255 345 391
#     4  12  22  35  62  95 124 165 215 268 318 382
#
# _framework density 19.857149
#
# number of rings (size 3 to 8) (size 9 to 14) (size 15 to 20)
#    0.000    0.500    7.500    3.000    3.500    0.000 
#    0.000    0.000    0.000    3.000    0.000    0.000 
#    0.000    0.000    0.000    0.000    0.000    0.000 
#
# Total GULP energy -267422.023341 kJ/mol
# GULP energy per Si atom -5571.292153 kJ/mol
# Density = 1.981195 g / cm^3
# Si number density = 19.857149 Si / 1000 Ang^3
#
#
#
# Elastic Constant Matrix: (Units=GPa)
#
#
# Indices 1 2 3 4 5 6 
#
# 1 94.0994 28.3714 14.9771 0.0000 0.0000 0.0000
# 2 28.3714 94.0994 14.9771 0.0000 0.0000 0.0000
# 3 14.9771 14.9771 106.6514 0.0000 0.0000 0.0000
# 4 0.0000 0.0000 0.0000 28.3042 0.0000 0.0000
# 5 0.0000 0.0000 0.0000 0.0000 28.3042 0.0000
# 6 0.0000 0.0000 0.0000 0.0000 0.0000 32.8640
#
#
#
# Elastic Compliance Matrix: (Units=1/GPa)
#
#
# Indices 1 2 3 4 5 6 
#
# 1 0.011835 -0.003379 -0.001187 0.000000 0.000000 0.000000
# 2 -0.003379 0.011835 -0.001187 0.000000 0.000000 0.000000
# 3 -0.001187 -0.001187 0.009710 0.000000 0.000000 0.000000
# 4 0.000000 0.000000 0.000000 0.035330 0.000000 0.000000
# 5 0.000000 0.000000 0.000000 0.000000 0.035330 0.000000
# 6 0.000000 0.000000 0.000000 0.000000 0.000000 0.030428
#
#
# Mechanical properties :
#
#
# Convention : Reuss Voigt Hill
#
# Bulk Modulus (GPa) = 45.72180 45.72237 45.72209
# Shear Modulus (GPa) = 32.62264 33.66279 33.14272
#
# Velocity S-wave (km/s) = 4.05763 4.12181 4.08984
# Velocity P-wave (km/s) = 6.71027 6.76225 6.73631
#
# Compressibility (1/GPa) = 0.02187141
#
# Stress axis : x y z
#
# Youngs Moduli (GPa) = 84.49568 84.49568 102.98831
#
# Poissons Ratio (x) = 0.28554 0.12229
# Poissons Ratio (y) = 0.28554 0.12229
# Poissons Ratio (z) = 0.10033 0.10033
#
# Static dielectric constant tensor:
#      x y z
#    x 1.759680 0.000000 0.000000 
#    y 0.000000 1.759680 0.000000 
#    z 0.000000 0.000000 1.785980 
# 
# From -- ./inp_files/5208.got.cif
#   From: 2010.05.17/outbox.cif.g08.bks.cpg/sg171_3_cif.got.tgz:5208.got - 2010.05.20 11:16:09.
