data_PCOD9580264
_publ_section_title
;
Structure prediction by ZEFSAII (Michael W. Deem and Ramdas Pophale) SiO2 
 PCOD9580264
Probable space group: P 65
;
_chemical_formula_sum "Si O2"
_cell_formula_units_Z 24
_cell_length_a 9.679727
_cell_length_b 9.679727
_cell_length_c 11.240101
_cell_angle_alpha 90.000000
_cell_angle_beta 90.000000
_cell_angle_gamma 120.000000
_cell_volume 912.067674
_symmetry_space_group_name_H-M "P 65"
_symmetry_group_IT_number 170
_symmetry_cell_setting 'hexagonal'
loop_
_space_group_symop_operation_xyz
x,y,z
x-y,x,5/6+z
-y,x-y,2/3+z
-x,-y,1/2+z
-x+y,-x,1/3+z
y,-x+y,1/6+z
loop_
_atom_site_type_symbol
_atom_site_label
_atom_site_fract_x
_atom_site_fract_y
_atom_site_fract_z
Si Si1 0.818696 0.706821 0.636130
Si Si2 0.849323 0.559310 0.310212
Si Si3 0.386581 0.621573 0.235725
Si Si4 0.967429 0.729350 0.999506
O O1 0.986394 0.793636 0.571501
O O2 0.689677 0.677492 0.534135
O O3 0.766220 0.536819 0.692242
O O4 0.658629 0.891970 0.428800
O O5 0.419529 0.663065 0.572493
O O6 0.846213 0.458602 0.195242
O O7 0.538905 0.671719 0.148752
O O8 0.840709 0.771966 0.057129
#
# Coordination Sequence:
#
# PCOD9580264 Si02
#       4
#     6   6   6   6
#     4  12  26  47  74 107 151 197 246 307 378 450
#     4  11  24  44  70 100 141 186 233 298 373 440
#     4  11  23  44  73 105 136 185 249 308 365 441
#     4  10  21  41  69 100 138 182 228 287 358 429
#
# _framework density 26.313836999999999
#
# number of rings (size 3 to 8) (size 9 to 14) (size 15 to 20)
#    0.000    1.000    0.000    9.000    0.000    2.000 
#    0.000   15.000    0.000    3.000    0.000    0.000 
#    0.000    0.000    0.000    0.000    0.000    0.000 
#
# Total GULP energy -134617.086919 kJ/mol
# GULP energy per Si atom -5609.045288 kJ/mol
# Density = 2.625395 g / cm^3
# Si number density = 26.313837 Si / 1000 Ang^3
#
#
#
# Elastic Constant Matrix: (Units=GPa)
#
#
# Indices 1 2 3 4 5 6 
#
# 1 54.4834 42.0864 23.2082 0.0000 0.0000 0.0000
# 2 42.0864 54.4834 23.2082 0.0000 0.0000 0.0000
# 3 23.2082 23.2082 83.9231 0.0000 0.0000 0.0000
# 4 0.0000 0.0000 0.0000 38.7691 0.0000 0.0000
# 5 0.0000 0.0000 0.0000 0.0000 38.7691 0.0000
# 6 0.0000 0.0000 0.0000 0.0000 0.0000 6.1985
#
#
#
# Elastic Compliance Matrix: (Units=1/GPa)
#
#
# Indices 1 2 3 4 5 6 
#
# 1 0.046304 -0.034361 -0.003303 0.000000 0.000000 0.000000
# 2 -0.034361 0.046304 -0.003303 0.000000 0.000000 0.000000
# 3 -0.003303 -0.003303 0.013742 0.000000 0.000000 0.000000
# 4 0.000000 0.000000 0.000000 0.025794 0.000000 0.000000
# 5 0.000000 0.000000 0.000000 0.000000 0.025794 0.000000
# 6 0.000000 0.000000 0.000000 0.000000 0.000000 0.161329
#
#
# Mechanical properties :
#
#
# Convention : Reuss Voigt Hill
#
# Bulk Modulus (GPa) = 40.95505 41.09951 41.02728
# Shear Modulus (GPa) = 12.21485 23.70647 17.96066
#
# Velocity S-wave (km/s) = 2.15686 3.00478 2.61541
# Velocity P-wave (km/s) = 4.66911 5.26224 4.97452
#
# Compressibility (1/GPa) = 0.02441702
#
# Stress axis : x y z
#
# Youngs Moduli (GPa) = 21.59658 21.59658 72.76804
#
# Poissons Ratio (x) = 0.74208 0.24033
# Poissons Ratio (y) = 0.74208 0.24033
# Poissons Ratio (z) = 0.07133 0.07133
#
# Static dielectric constant tensor:
#      x y z
#    x 1.999670 0.000000 0.000000 
#    y 0.000000 1.999670 0.000000 
#    z 0.000000 0.000000 2.147230 
# 
# From -- ./inp_files/490.got.cif
#   From: 2010.05.17/outbox.cif.g08.bks.cpg/sg170_cif.got.tgz:490.got - 2010.05.20 11:14:30.
