data_PCOD9580661
_publ_section_title
;
Structure prediction by ZEFSAII (Michael W. Deem and Ramdas Pophale) SiO2 
 PCOD9580661
Probable space group: P 62
;
_chemical_formula_sum "Si O2"
_cell_formula_units_Z 42
_cell_length_a 14.450623
_cell_length_b 14.450623
_cell_length_c 10.154288
_cell_angle_alpha 90.000000
_cell_angle_beta 90.000000
_cell_angle_gamma 120.000000
_cell_volume 1836.340660
_symmetry_space_group_name_H-M "P 62"
_symmetry_group_IT_number 171
_symmetry_cell_setting 'hexagonal'
loop_
_space_group_symop_operation_xyz
x,y,z
x-y,x,1/3+z
-y,x-y,2/3+z
-x,-y,z
-x+y,-x,1/3+z
y,-x+y,2/3+z
loop_
_atom_site_type_symbol
_atom_site_label
_atom_site_fract_x
_atom_site_fract_y
_atom_site_fract_z
Si Si1 0.267116 0.582688 0.429350
Si Si2 0.620791 0.643417 0.705498
Si Si3 0.775811 0.082948 0.130503
Si Si4 0.779122 0.249313 0.488074
Si Si5 0.807557 0.000556 0.565283
Si Si6 0.019592 0.785797 0.517193
Si Si7 0.491325 0.789479 0.373637
O O1 0.189976 0.633460 0.433946
O O2 0.247188 0.514716 0.299015
O O3 0.380919 0.694012 0.430577
O O4 0.269081 0.517204 0.555200
O O5 0.660957 0.674122 0.555066
O O6 0.541634 0.690779 0.735442
O O7 0.715705 0.721764 0.803814
O O8 0.612667 0.527933 0.722447
O O9 0.878249 0.101377 0.215686
O O10 0.780139 0.194835 0.110311
O O11 0.776550 0.040695 0.985210
O O12 0.883746 0.238737 0.499896
O O13 0.794263 0.038158 0.710357
O O14 0.925799 0.086114 0.523196
#
# Coordination Sequence:
#
# PCOD9580661 Si02
#       7
#     6   6   6   6   6   6   6
#     4  10  23  43  67  96 140 174 225 292 344 391
#     4  10  22  41  69  96 131 173 235 266 342 412
#     4  11  23  42  71  99 135 179 226 279 341 413
#     4  10  22  42  67  97 134 179 223 286 344 406
#     4  10  22  41  64  99 133 175 221 278 327 403
#     4  11  24  41  71  94 140 177 228 278 347 408
#     4  10  24  42  70  94 136 179 221 285 343 401
#
# _framework density 22.871576000000001
#
# number of rings (size 3 to 8) (size 9 to 14) (size 15 to 20)
#    0.000    1.714    2.857    0.857   12.000    0.571 
#    0.000    9.286    0.000    0.000    0.000    0.000 
#    0.000    0.000    0.000    0.000    0.000    0.000 
#
# Total GULP energy -234341.967401 kJ/mol
# GULP energy per Si atom -5579.570652 kJ/mol
# Density = 2.281952 g / cm^3
# Si number density = 22.871576 Si / 1000 Ang^3
#
#
#
# Elastic Constant Matrix: (Units=GPa)
#
#
# Indices 1 2 3 4 5 6 
#
# 1 46.2461 10.9750 -1.1651 0.0000 0.0000 0.0000
# 2 10.9750 46.2461 -1.1651 0.0000 0.0000 0.0000
# 3 -1.1651 -1.1651 117.0609 0.0000 0.0000 0.0000
# 4 0.0000 0.0000 0.0000 27.4488 0.0000 0.0000
# 5 0.0000 0.0000 0.0000 0.0000 27.4488 0.0000
# 6 0.0000 0.0000 0.0000 0.0000 0.0000 17.6355
#
#
#
# Elastic Compliance Matrix: (Units=1/GPa)
#
#
# Indices 1 2 3 4 5 6 
#
# 1 0.022918 -0.005434 0.000174 0.000000 0.000000 0.000000
# 2 -0.005434 0.022918 0.000174 0.000000 0.000000 0.000000
# 3 0.000174 0.000174 0.008546 0.000000 0.000000 0.000000
# 4 0.000000 0.000000 0.000000 0.036431 0.000000 0.000000
# 5 0.000000 0.000000 0.000000 0.000000 0.036431 0.000000
# 6 0.000000 0.000000 0.000000 0.000000 0.000000 0.056704
#
#
# Mechanical properties :
#
#
# Convention : Reuss Voigt Hill
#
# Bulk Modulus (GPa) = 22.62013 25.20473 23.91243
# Shear Modulus (GPa) = 23.93989 27.90051 25.92020
#
# Velocity S-wave (km/s) = 3.23880 3.49646 3.37009
# Velocity P-wave (km/s) = 4.88855 5.22918 5.06173
#
# Compressibility (1/GPa) = 0.04420842
#
# Stress axis : x y z
#
# Youngs Moduli (GPa) = 43.63476 43.63476 117.01350
#
# Poissons Ratio (x) = 0.23713 -0.02036
# Poissons Ratio (y) = 0.23713 -0.02036
# Poissons Ratio (z) = -0.00759 -0.00759
#
# Static dielectric constant tensor:
#      x y z
#    x 1.890010 0.000000 0.000000 
#    y 0.000000 1.890010 0.000000 
#    z 0.000000 0.000000 1.878030 
# 
# From -- ./inp_files/1657.got.cif
#   From: 2010.05.17/outbox.cif.g08.bks.cpg/sg171_1_cif.got.tgz:1657.got - 2010.05.20 11:16:09.
