data_PCOD9580899
_publ_section_title
;
Structure prediction by ZEFSAII (Michael W. Deem and Ramdas Pophale) SiO2 
 PCOD9580899
Probable space group: P 64
;
_chemical_formula_sum "Si O2"
_cell_formula_units_Z 42
_cell_length_a 12.835437
_cell_length_b 12.835437
_cell_length_c 13.552610
_cell_angle_alpha 90.000000
_cell_angle_beta 90.000000
_cell_angle_gamma 120.000000
_cell_volume 1933.636750
_symmetry_space_group_name_H-M "P 64"
_symmetry_group_IT_number 172
_symmetry_cell_setting 'hexagonal'
loop_
_space_group_symop_operation_xyz
x,y,z
x-y,x,2/3+z
-y,x-y,1/3+z
-x,-y,z
-x+y,-x,2/3+z
y,-x+y,1/3+z
loop_
_atom_site_type_symbol
_atom_site_label
_atom_site_fract_x
_atom_site_fract_y
_atom_site_fract_z
Si Si1 0.629167 0.816982 0.053710
Si Si2 0.192127 0.446042 0.498796
Si Si3 0.000000 0.000000 0.402102
Si Si4 0.744013 0.932587 0.468928
Si Si5 0.500000 0.000000 0.209343
Si Si6 0.811026 0.285603 0.680516
Si Si7 0.281282 0.611153 0.837002
Si Si8 0.737900 0.827343 0.672458
O O1 0.691506 0.755034 0.117642
O O2 0.499725 0.767967 0.103556
O O3 0.711701 0.960566 0.037316
O O4 0.607318 0.771092 0.941692
O O5 0.082671 0.469071 0.476825
O O6 0.303881 0.581474 0.503117
O O7 0.184092 0.348720 0.421524
O O8 0.116299 0.025539 0.462177
O O9 0.049819 0.122518 0.343180
O O10 0.660944 0.851384 0.377871
O O11 0.695776 0.850294 0.566688
O O12 0.524158 0.914162 0.280736
O O13 0.692923 0.246949 0.613276
O O14 0.799239 0.344061 0.782060
#
# Coordination Sequence:
#
# PCOD9580899 Si02
#       8
#     6   6   3   6   3   6   6   6
#     4  11  23  42  65  92 130 177 224 279 336 422
#     4  11  22  40  65  97 129 171 226 278 334 419
#     4  10  24  44  62  98 136 182 214 276 344 410
#     4  11  24  41  68  97 135 172 230 279 346 409
#     4  10  18  42  64  94 122 182 232 268 328 428
#     4  11  22  39  68  95 130 175 225 282 340 412
#     4  11  23  41  66  95 130 172 226 277 340 408
#     4  11  24  39  67  95 132 171 224 281 345 398
#
# _framework density 21.720727
#
# number of rings (size 3 to 8) (size 9 to 14) (size 15 to 20)
#    0.000    1.143    4.286    3.000    4.000    2.286 
#    0.000    0.000    0.000    2.571    0.000    0.000 
#    0.000    0.000    0.000    0.000    0.000    0.000 
#
# Total GULP energy -233967.671019 kJ/mol
# GULP energy per Si atom -5570.658834 kJ/mol
# Density = 2.167129 g / cm^3
# Si number density = 21.720727 Si / 1000 Ang^3
#
#
#
# Elastic Constant Matrix: (Units=GPa)
#
#
# Indices 1 2 3 4 5 6 
#
# 1 39.1616 29.0901 14.7861 0.0000 0.0000 0.0000
# 2 29.0901 39.1616 14.7861 0.0000 0.0000 0.0000
# 3 14.7861 14.7861 81.5809 0.0000 0.0000 0.0000
# 4 0.0000 0.0000 0.0000 9.8959 0.0000 0.0000
# 5 0.0000 0.0000 0.0000 0.0000 9.8959 0.0000
# 6 0.0000 0.0000 0.0000 0.0000 0.0000 5.0357
#
#
#
# Elastic Compliance Matrix: (Units=1/GPa)
#
#
# Indices 1 2 3 4 5 6 
#
# 1 0.057595 -0.041695 -0.002882 0.000000 0.000000 0.000000
# 2 -0.041695 0.057595 -0.002882 0.000000 0.000000 0.000000
# 3 -0.002882 -0.002882 0.013302 0.000000 0.000000 0.000000
# 4 0.000000 0.000000 0.000000 0.101052 0.000000 0.000000
# 5 0.000000 0.000000 0.000000 0.000000 0.101052 0.000000
# 6 0.000000 0.000000 0.000000 0.000000 0.000000 0.198581
#
#
# Mechanical properties :
#
#
# Convention : Reuss Voigt Hill
#
# Bulk Modulus (GPa) = 29.78350 30.80318 30.29334
# Shear Modulus (GPa) = 7.87044 11.71496 9.79270
#
# Velocity S-wave (km/s) = 1.90561 2.32490 2.12562
# Velocity P-wave (km/s) = 4.31087 4.62808 4.47229
#
# Compressibility (1/GPa) = 0.03357564
#
# Stress axis : x y z
#
# Youngs Moduli (GPa) = 17.36247 17.36247 75.17439
#
# Poissons Ratio (x) = 0.72393 0.21664
# Poissons Ratio (y) = 0.72393 0.21664
# Poissons Ratio (z) = 0.05004 0.05004
#
# Static dielectric constant tensor:
#      x y z
#    x 1.903170 0.000000 0.000000 
#    y 0.000000 1.903170 0.000000 
#    z 0.000000 0.000000 1.809340 
# 
# From -- ./inp_files/1121.got.cif
#   From: 2010.05.17/outbox.cif.g08.bks.cpg/sg172_1_cif.got.tgz:1121.got - 2010.05.20 11:19:57.
