data_PCOD9580606
_publ_section_title
;
Structure prediction by ZEFSAII (Michael W. Deem and Ramdas Pophale) SiO2 
 PCOD9580606
Probable space group: P 62
;
_chemical_formula_sum "Si O2"
_cell_formula_units_Z 48
_cell_length_a 14.024963
_cell_length_b 14.024963
_cell_length_c 11.980734
_cell_angle_alpha 90.000000
_cell_angle_beta 90.000000
_cell_angle_gamma 120.000000
_cell_volume 2040.880170
_symmetry_space_group_name_H-M "P 62"
_symmetry_group_IT_number 171
_symmetry_cell_setting 'hexagonal'
loop_
_space_group_symop_operation_xyz
x,y,z
x-y,x,1/3+z
-y,x-y,2/3+z
-x,-y,z
-x+y,-x,1/3+z
y,-x+y,2/3+z
loop_
_atom_site_type_symbol
_atom_site_label
_atom_site_fract_x
_atom_site_fract_y
_atom_site_fract_z
Si Si1 0.901634 0.026355 0.195790
Si Si2 0.540509 0.271471 0.002357
Si Si3 0.885498 0.164052 0.378741
Si Si4 0.079021 0.250805 0.656408
Si Si5 0.520997 0.615780 0.345288
Si Si6 0.753075 0.385311 0.113577
Si Si7 0.823823 0.123015 0.641377
Si Si8 0.525402 0.692484 0.573628
O O1 0.789082 0.913152 0.222232
O O2 0.918298 0.082334 0.317294
O O3 0.000000 0.000000 0.173916
O O4 0.887058 0.108630 0.111145
O O5 0.601678 0.200232 0.991370
O O6 0.536255 0.326581 0.886760
O O7 0.413798 0.198249 0.029650
O O8 0.628996 0.361833 0.085538
O O9 0.839055 0.134704 0.504810
O O10 0.786092 0.159325 0.307582
O O11 0.004847 0.273706 0.357651
O O12 0.099236 0.372504 0.637525
O O13 0.950184 0.162182 0.665675
O O14 0.500000 0.500000 0.299685
O O15 0.546185 0.624587 0.479165
O O16 0.748907 0.277584 0.164167
O O17 0.819652 0.436889 0.000771
#
# Coordination Sequence:
#
# PCOD9580606 Si02
#       8
#     6   6   6   6   6   6   6   6
#     4  12  25  44  66  98 137 183 227 280 344 414
#     4  10  21  41  68  93 132 171 223 278 348 405
#     4  12  25  44  68 100 139 176 233 287 340 418
#     4  12  25  42  67  94 134 178 226 273 346 403
#     4  11  23  43  62  97 131 174 228 286 335 409
#     4   9  20  42  69  93 127 175 214 274 346 404
#     4  12  25  42  66  99 136 179 228 287 339 419
#     4  10  21  44  68  96 133 173 223 278 338 408
#
# _framework density 23.519265000000001
#
# number of rings (size 3 to 8) (size 9 to 14) (size 15 to 20)
#    0.000    1.000    5.000    1.875    0.000    2.000 
#    6.750    2.500    0.000    0.000    0.000    0.000 
#    0.000    0.000    0.000    0.000    0.000    0.000 
#
# Total GULP energy -267342.632947 kJ/mol
# GULP energy per Si atom -5569.638186 kJ/mol
# Density = 2.346573 g / cm^3
# Si number density = 23.519265 Si / 1000 Ang^3
#
#
#
# Elastic Constant Matrix: (Units=GPa)
#
#
# Indices 1 2 3 4 5 6 
#
# 1 58.2176 12.5253 4.2647 0.0000 0.0000 0.0000
# 2 12.5253 58.2176 4.2647 0.0000 0.0000 0.0000
# 3 4.2647 4.2647 95.2205 0.0000 0.0000 0.0000
# 4 0.0000 0.0000 0.0000 21.4079 0.0000 0.0000
# 5 0.0000 0.0000 0.0000 0.0000 21.4079 0.0000
# 6 0.0000 0.0000 0.0000 0.0000 0.0000 22.8462
#
#
#
# Elastic Compliance Matrix: (Units=1/GPa)
#
#
# Indices 1 2 3 4 5 6 
#
# 1 0.018049 -0.003837 -0.000637 0.000000 0.000000 0.000000
# 2 -0.003837 0.018049 -0.000637 0.000000 0.000000 0.000000
# 3 -0.000637 -0.000637 0.010559 0.000000 0.000000 0.000000
# 4 0.000000 0.000000 0.000000 0.046712 0.000000 0.000000
# 5 0.000000 0.000000 0.000000 0.000000 0.046712 0.000000
# 6 0.000000 0.000000 0.000000 0.000000 0.000000 0.043771
#
#
# Mechanical properties :
#
#
# Convention : Reuss Voigt Hill
#
# Bulk Modulus (GPa) = 27.44413 28.19614 27.82014
# Shear Modulus (GPa) = 24.24638 25.83914 25.04276
#
# Velocity S-wave (km/s) = 3.21427 3.31817 3.26663
# Velocity P-wave (km/s) = 5.04673 5.16671 5.10707
#
# Compressibility (1/GPa) = 0.03643766
#
# Stress axis : x y z
#
# Youngs Moduli (GPa) = 55.40479 55.40479 94.70630
#
# Poissons Ratio (x) = 0.21256 0.06029
# Poissons Ratio (y) = 0.21256 0.06029
# Poissons Ratio (z) = 0.03527 0.03527
#
# Static dielectric constant tensor:
#      x y z
#    x 1.975310 0.000000 0.000000 
#    y 0.000000 1.975310 0.000000 
#    z 0.000000 0.000000 2.030520 
# 
# From -- ./inp_files/4712.got.cif
#   From: 2010.05.17/outbox.cif.g08.bks.cpg/sg171_3_cif.got.tgz:4712.got - 2010.05.20 11:16:09.
