data_PCOD9580916
_publ_section_title
;
Structure prediction by ZEFSAII (Michael W. Deem and Ramdas Pophale) SiO2 
 PCOD9580916
Probable space group: P 64
;
_chemical_formula_sum "Si O2"
_cell_formula_units_Z 45
_cell_length_a 14.584371
_cell_length_b 14.584371
_cell_length_c 12.832176
_cell_angle_alpha 90.000000
_cell_angle_beta 90.000000
_cell_angle_gamma 120.000000
_cell_volume 2363.776149
_symmetry_space_group_name_H-M "P 64"
_symmetry_group_IT_number 172
_symmetry_cell_setting 'hexagonal'
loop_
_space_group_symop_operation_xyz
x,y,z
x-y,x,2/3+z
-y,x-y,1/3+z
-x,-y,z
-x+y,-x,2/3+z
y,-x+y,1/3+z
loop_
_atom_site_type_symbol
_atom_site_label
_atom_site_fract_x
_atom_site_fract_y
_atom_site_fract_z
Si Si1 0.478714 0.387488 0.060090
Si Si2 0.433118 0.051845 0.040705
Si Si3 0.559184 0.211566 0.864568
Si Si4 0.891240 0.615773 0.515177
Si Si5 0.292745 0.699431 0.679804
Si Si6 0.844736 0.839653 0.896666
Si Si7 0.000000 0.000000 0.729536
Si Si8 0.803163 0.200099 0.526474
O O1 0.500000 0.500000 0.093772
O O2 0.591802 0.393054 0.063419
O O3 0.399243 0.295175 0.135924
O O4 0.430954 0.361104 0.942971
O O5 0.442680 0.148189 0.108059
O O6 0.500000 0.000000 0.081686
O O7 0.315867 0.958288 0.074303
O O8 0.487089 0.103890 0.930141
O O9 0.475006 0.247075 0.831789
O O10 0.624194 0.218043 0.762017
O O11 0.648617 0.302465 0.939104
O O12 0.906665 0.724751 0.563611
O O13 0.238302 0.755579 0.618107
O O14 0.903221 0.918379 0.800915
O O15 0.828220 0.721705 0.886881
O O16 0.922112 0.899846 0.992311
#
# Coordination Sequence:
#
# PCOD9580916 Si02
#       8
#     6   6   6   6   6   6   3   6
#     4  11  20  34  60  90 122 165 217 261 303 379
#     4  11  20  36  62  95 125 167 215 271 315 380
#     4  11  21  38  62  93 134 168 213 264 325 385
#     4  10  20  35  62  93 123 159 214 262 309 380
#     4  11  20  36  59  89 128 171 205 261 324 374
#     4  10  22  39  66  88 119 155 206 267 321 385
#     4  10  22  42  64  90 118 156 198 272 344 366
#     4  11  21  38  62  92 126 166 218 264 315 395
#
# _framework density 19.037337000000001
#
# number of rings (size 3 to 8) (size 9 to 14) (size 15 to 20)
#    0.000    1.333    4.000    5.200    1.867    0.000 
#    0.000    3.333    8.800    0.000    0.000    0.000 
#    0.000    0.000    0.000    0.000    0.000    0.000 
#
# Total GULP energy -250693.613073 kJ/mol
# GULP energy per Si atom -5570.969179 kJ/mol
# Density = 1.899401 g / cm^3
# Si number density = 19.037337 Si / 1000 Ang^3
#
#
#
# Elastic Constant Matrix: (Units=GPa)
#
#
# Indices 1 2 3 4 5 6 
#
# 1 73.9488 17.3551 32.1019 0.0000 0.0000 0.0000
# 2 17.3551 73.9488 32.1019 0.0000 0.0000 0.0000
# 3 32.1019 32.1019 65.8293 0.0000 0.0000 0.0000
# 4 0.0000 0.0000 0.0000 0.3450 0.0000 0.0000
# 5 0.0000 0.0000 0.0000 0.0000 0.3450 0.0000
# 6 0.0000 0.0000 0.0000 0.0000 0.0000 28.2969
#
#
#
# Elastic Compliance Matrix: (Units=1/GPa)
#
#
# Indices 1 2 3 4 5 6 
#
# 1 0.017169 -0.000501 -0.008128 0.000000 0.000000 0.000000
# 2 -0.000501 0.017169 -0.008128 0.000000 0.000000 0.000000
# 3 -0.008128 -0.008128 0.023118 0.000000 0.000000 0.000000
# 4 0.000000 0.000000 0.000000 2.898703 0.000000 0.000000
# 5 0.000000 0.000000 0.000000 0.000000 2.898704 0.000000
# 6 0.000000 0.000000 0.000000 0.000000 0.000000 0.035340
#
#
# Mechanical properties :
#
#
# Convention : Reuss Voigt Hill
#
# Bulk Modulus (GPa) = 41.76842 41.87165 41.82004
# Shear Modulus (GPa) = 0.84293 14.60857 7.72575
#
# Velocity S-wave (km/s) = 0.66614 2.77314 2.01669
# Velocity P-wave (km/s) = 4.75179 5.68295 5.23811
#
# Compressibility (1/GPa) = 0.02394153
#
# Stress axis : x y z
#
# Youngs Moduli (GPa) = 58.24460 58.24460 43.25562
#
# Poissons Ratio (x) = 0.02917 0.35159
# Poissons Ratio (y) = 0.02917 0.35159
# Poissons Ratio (z) = 0.47343 0.47343
#
# Static dielectric constant tensor:
#      x y z
#    x 1.691010 0.000000 0.000000 
#    y 0.000000 1.691010 0.000000 
#    z 0.000000 0.000000 1.703860 
# 
# From -- ./inp_files/1133.got.cif
#   From: 2010.05.17/outbox.cif.g08.bks.cpg/sg172_1_cif.got.tgz:1133.got - 2010.05.20 11:19:57.
