data_PCOD9580703
_publ_section_title
;
Structure prediction by ZEFSAII (Michael W. Deem and Ramdas Pophale) SiO2 
 PCOD9580703
Probable space group: P 62
;
_chemical_formula_sum "Si O2"
_cell_formula_units_Z 42
_cell_length_a 12.125069
_cell_length_b 12.125069
_cell_length_c 15.448474
_cell_angle_alpha 90.000000
_cell_angle_beta 90.000000
_cell_angle_gamma 120.000000
_cell_volume 1966.910757
_symmetry_space_group_name_H-M "P 62"
_symmetry_group_IT_number 171
_symmetry_cell_setting 'hexagonal'
loop_
_space_group_symop_operation_xyz
x,y,z
x-y,x,1/3+z
-y,x-y,2/3+z
-x,-y,z
-x+y,-x,1/3+z
y,-x+y,2/3+z
loop_
_atom_site_type_symbol
_atom_site_label
_atom_site_fract_x
_atom_site_fract_y
_atom_site_fract_z
Si Si1 0.274073 0.972562 0.455100
Si Si2 0.592562 0.257188 0.722603
Si Si3 0.359081 0.977192 0.940336
Si Si4 0.093458 0.449568 0.950374
Si Si5 0.742667 0.140384 0.629548
Si Si6 0.463465 0.267418 0.440737
Si Si7 0.954163 0.260710 0.439686
O O1 0.367793 0.120863 0.464246
O O2 0.283298 0.943394 0.354109
O O3 0.312749 0.908345 0.533184
O O4 0.121225 0.888054 0.466659
O O5 0.549593 0.312223 0.642675
O O6 0.659347 0.184371 0.683405
O O7 0.694419 0.386716 0.772367
O O8 0.459524 0.152085 0.767749
O O9 0.371528 0.113335 0.962741
O O10 0.290236 0.946173 0.847401
O O11 0.500000 0.000000 0.929523
O O12 0.294331 0.871821 0.014204
O O13 0.091742 0.432750 0.848413
O O14 0.000000 0.500000 0.975137
O O15 0.735006 0.022065 0.681368
#
# Coordination Sequence:
#
# PCOD9580703 Si02
#       7
#     6   6   6   6   6   6   6
#     4  10  23  44  63  93 138 180 230 277 338 408
#     4  11  23  39  68  96 133 181 217 279 346 414
#     4  11  23  42  63  97 137 172 224 286 349 409
#     4  11  24  38  59  98 137 176 218 267 345 408
#     4  11  23  43  70  96 133 173 232 278 344 410
#     4  12  25  41  66  98 138 185 226 288 344 416
#     4  10  24  42  67  97 132 178 227 283 336 418
#
# _framework density 21.353282
#
# number of rings (size 3 to 8) (size 9 to 14) (size 15 to 20)
#    0.000    1.143    2.857    3.429    6.000    3.429 
#    0.000    0.714    0.000    3.429    0.000    0.000 
#    0.000    0.000    0.000    0.000    0.000    0.000 
#
# Total GULP energy -234069.871522 kJ/mol
# GULP energy per Si atom -5573.092179 kJ/mol
# Density = 2.130468 g / cm^3
# Si number density = 21.353282 Si / 1000 Ang^3
#
#
#
# Elastic Constant Matrix: (Units=GPa)
#
#
# Indices 1 2 3 4 5 6 
#
# 1 50.4342 -0.8582 -3.8316 0.0000 0.0000 0.0000
# 2 -0.8582 50.4342 -3.8316 0.0000 0.0000 0.0000
# 3 -3.8316 -3.8316 84.8803 0.0000 0.0000 0.0000
# 4 0.0000 0.0000 0.0000 -3.3604 0.0000 0.0000
# 5 0.0000 0.0000 0.0000 0.0000 -3.3604 0.0000
# 6 0.0000 0.0000 0.0000 0.0000 0.0000 25.6462
#
#
#
# Elastic Compliance Matrix: (Units=1/GPa)
#
#
# Indices 1 2 3 4 5 6 
#
# 1 0.019904 0.000408 0.000917 0.000000 0.000000 0.000000
# 2 0.000408 0.019904 0.000917 0.000000 0.000000 0.000000
# 3 0.000917 0.000917 0.011864 0.000000 0.000000 0.000000
# 4 0.000000 0.000000 0.000000 -0.297580 0.000000 0.000000
# 5 0.000000 0.000000 0.000000 0.000000 -0.297580 0.000000
# 6 0.000000 0.000000 0.000000 0.000000 0.000000 0.038992
#
#
# Mechanical properties :
#
#
# Convention : Reuss Voigt Hill
#
# Bulk Modulus (GPa) = 17.80707 18.74509 18.27608
# Shear Modulus (GPa) = -10.19867 16.73641 3.26887
#
# Velocity S-wave (km/s) = -2.18781 2.80266 1.23862
# Velocity P-wave (km/s) = 1.40547 4.38985 3.25930
#
# Compressibility (1/GPa) = 0.05615746
#
# Stress axis : x y z
#
# Youngs Moduli (GPa) = 50.24008 50.24008 84.28803
#
# Poissons Ratio (x) = -0.02052 -0.07729
# Poissons Ratio (y) = -0.02052 -0.07729
# Poissons Ratio (z) = -0.04607 -0.04607
#
# Static dielectric constant tensor:
#      x y z
#    x 1.809190 0.000000 0.000000 
#    y 0.000000 1.809190 0.000000 
#    z 0.000000 0.000000 1.814270 
# 
# From -- ./inp_files/2489.got.cif
#   From: 2010.05.17/outbox.cif.g08.bks.cpg/sg171_2_cif.got.tgz:2489.got - 2010.05.20 11:16:09.
