data_PCOD9580631
_publ_section_title
;
Structure prediction by ZEFSAII (Michael W. Deem and Ramdas Pophale) SiO2 
 PCOD9580631
Probable space group: P 62
;
_chemical_formula_sum "Si O2"
_cell_formula_units_Z 42
_cell_length_a 16.367552
_cell_length_b 16.367552
_cell_length_c 9.218242
_cell_angle_alpha 90.000000
_cell_angle_beta 90.000000
_cell_angle_gamma 120.000000
_cell_volume 2138.681908
_symmetry_space_group_name_H-M "P 62"
_symmetry_group_IT_number 171
_symmetry_cell_setting 'hexagonal'
loop_
_space_group_symop_operation_xyz
x,y,z
x-y,x,1/3+z
-y,x-y,2/3+z
-x,-y,z
-x+y,-x,1/3+z
y,-x+y,2/3+z
loop_
_atom_site_type_symbol
_atom_site_label
_atom_site_fract_x
_atom_site_fract_y
_atom_site_fract_z
Si Si1 0.609994 0.035334 0.239790
Si Si2 0.546360 0.204764 0.552833
Si Si3 0.914513 0.249476 0.701567
Si Si4 0.594740 0.597987 0.891755
Si Si5 0.477276 0.673895 0.333075
Si Si6 0.520259 0.242196 0.872770
Si Si7 0.251598 0.915023 0.816054
O O1 0.646666 0.123303 0.131894
O O2 0.500000 0.000000 0.253929
O O3 0.628235 0.957969 0.160301
O O4 0.643439 0.054889 0.406526
O O5 0.451739 0.107155 0.522093
O O6 0.560899 0.263841 0.407995
O O7 0.522311 0.239841 0.699738
O O8 0.647751 0.212301 0.582706
O O9 0.832837 0.253644 0.607782
O O10 0.856816 0.144915 0.767383
O O11 0.002813 0.275957 0.597279
O O12 0.500000 0.500000 0.938364
O O13 0.636856 0.674081 0.018138
O O14 0.385542 0.588651 0.261019
O O15 0.563248 0.724844 0.221489
#
# Coordination Sequence:
#
# PCOD9580631 Si02
#       7
#     6   6   6   6   6   6   6
#     4  10  22  37  61  82 122 164 210 258 311 376
#     4  12  25  36  58  90 122 169 223 267 302 373
#     4  11  23  42  62  89 123 172 216 269 331 388
#     4  11  23  37  58  86 121 165 216 266 309 365
#     4  11  24  39  57  87 123 171 216 262 315 375
#     4  12  22  37  59  84 129 177 226 265 308 365
#     4  11  25  41  64  87 126 166 219 268 337 388
#
# _framework density 19.638263999999999
#
# number of rings (size 3 to 8) (size 9 to 14) (size 15 to 20)
#    0.000    0.857    4.286    3.429    6.000    0.000 
#    0.000    0.000    0.000    0.000    0.000    0.000 
#    0.000   44.571    0.000    0.000    0.000    0.000 
#
# Total GULP energy -234530.524388 kJ/mol
# GULP energy per Si atom -5584.060104 kJ/mol
# Density = 1.959357 g / cm^3
# Si number density = 19.638264 Si / 1000 Ang^3
#
#
#
# Elastic Constant Matrix: (Units=GPa)
#
#
# Indices 1 2 3 4 5 6 
#
# 1 78.0104 27.7313 32.1246 0.0000 0.0000 0.0000
# 2 27.7313 78.0104 32.1246 0.0000 0.0000 0.0000
# 3 32.1246 32.1246 96.4272 0.0000 0.0000 0.0000
# 4 0.0000 0.0000 0.0000 26.4171 0.0000 0.0000
# 5 0.0000 0.0000 0.0000 0.0000 26.4171 0.0000
# 6 0.0000 0.0000 0.0000 0.0000 0.0000 25.1396
#
#
#
# Elastic Compliance Matrix: (Units=1/GPa)
#
#
# Indices 1 2 3 4 5 6 
#
# 1 0.015873 -0.004016 -0.003950 0.000000 0.000000 0.000000
# 2 -0.004016 0.015873 -0.003950 0.000000 0.000000 0.000000
# 3 -0.003950 -0.003950 0.013003 0.000000 0.000000 0.000000
# 4 0.000000 0.000000 0.000000 0.037854 0.000000 0.000000
# 5 0.000000 0.000000 0.000000 0.000000 0.037854 0.000000
# 6 0.000000 0.000000 0.000000 0.000000 0.000000 0.039778
#
#
# Mechanical properties :
#
#
# Convention : Reuss Voigt Hill
#
# Bulk Modulus (GPa) = 47.81013 48.48987 48.15000
# Shear Modulus (GPa) = 26.17257 26.29259 26.23258
#
# Velocity S-wave (km/s) = 3.65462 3.66299 3.65881
# Velocity P-wave (km/s) = 6.49666 6.52956 6.51313
#
# Compressibility (1/GPa) = 0.02091607
#
# Stress axis : x y z
#
# Youngs Moduli (GPa) = 62.99979 62.99979 76.90820
#
# Poissons Ratio (x) = 0.25300 0.30380
# Poissons Ratio (y) = 0.25300 0.30380
# Poissons Ratio (z) = 0.24886 0.24886
#
# Static dielectric constant tensor:
#      x y z
#    x 1.753750 0.000000 0.000000 
#    y 0.000000 1.753750 0.000000 
#    z 0.000000 0.000000 1.723670 
# 
# From -- ./inp_files/1258.got.cif
#   From: 2010.05.17/outbox.cif.g08.bks.cpg/sg171_1_cif.got.tgz:1258.got - 2010.05.20 11:16:09.
