data_PCOD9580112
_publ_section_title
;
Structure prediction by ZEFSAII (Michael W. Deem and Ramdas Pophale) SiO2 
 PCOD9580112
Probable space group: P 61
;
_chemical_formula_sum "Si O2"
_cell_formula_units_Z 42
_cell_length_a 9.059478
_cell_length_b 9.059478
_cell_length_c 27.687777
_cell_angle_alpha 90.000000
_cell_angle_beta 90.000000
_cell_angle_gamma 120.000000
_cell_volume 1967.999889
_symmetry_space_group_name_H-M "P 61"
_symmetry_group_IT_number 169
_symmetry_cell_setting 'hexagonal'
loop_
_space_group_symop_operation_xyz
x,y,z
x-y,x,1/6+z
-y,x-y,1/3+z
-x,-y,1/2+z
-x+y,-x,2/3+z
y,-x+y,5/6+z
loop_
_atom_site_type_symbol
_atom_site_label
_atom_site_fract_x
_atom_site_fract_y
_atom_site_fract_z
Si Si1 0.310518 0.370980 0.959640
Si Si2 0.085316 0.849888 0.319758
Si Si3 0.181591 0.427990 0.751021
Si Si4 0.810167 0.399175 0.573251
Si Si5 0.731230 0.797964 0.763411
Si Si6 0.504605 0.429938 0.800217
Si Si7 0.170520 0.079164 0.879144
O O1 0.508748 0.447441 0.950753
O O2 0.237226 0.495672 0.946256
O O3 0.232480 0.203941 0.925177
O O4 0.243575 0.307413 0.013004
O O5 0.184464 0.816516 0.362806
O O6 0.994875 0.703373 0.278408
O O7 0.202787 0.038952 0.298472
O O8 0.929106 0.855565 0.345656
O O9 0.242435 0.628469 0.749450
O O10 0.333800 0.421616 0.780201
O O11 0.776460 0.209233 0.568757
O O12 0.907199 0.494334 0.524635
O O13 0.663799 0.612859 0.787099
O O14 0.890361 0.848915 0.729694
#
# Coordination Sequence:
#
# PCOD9580112 Si02
#       7
#     6   6   6   6   6   6   6
#     4  12  23  44  69  95 136 183 231 288 359 432
#     4  12  20  43  74 102 134 187 240 290 361 436
#     4  11  25  43  73 101 137 192 239 293 372 440
#     4  11  27  44  63 104 140 180 237 300 369 424
#     4  11  25  41  69 102 140 178 234 297 355 433
#     4  11  23  45  67  97 144 183 227 302 360 438
#     4  12  21  42  73  95 125 185 236 278 350 441
#
# _framework density 21.341462
#
# number of rings (size 3 to 8) (size 9 to 14) (size 15 to 20)
#    0.000    0.571    7.143    0.857    2.000    2.286 
#    2.571    0.000    0.000    0.000    0.000    0.000 
#    0.000    0.000    0.000    0.000    0.000    0.000 
#
# Total GULP energy -234477.637842 kJ/mol
# GULP energy per Si atom -5582.800901 kJ/mol
# Density = 2.129289 g / cm^3
# Si number density = 21.341462 Si / 1000 Ang^3
#
#
#
# Elastic Constant Matrix: (Units=GPa)
#
#
# Indices 1 2 3 4 5 6 
#
# 1 100.6307 22.8347 31.3958 0.0000 0.0000 0.0000
# 2 22.8347 100.6307 31.3958 0.0000 0.0000 0.0000
# 3 31.3958 31.3958 84.5125 0.0000 0.0000 0.0000
# 4 0.0000 0.0000 0.0000 23.0654 0.0000 0.0000
# 5 0.0000 0.0000 0.0000 0.0000 23.0654 0.0000
# 6 0.0000 0.0000 0.0000 0.0000 0.0000 38.8980
#
#
#
# Elastic Compliance Matrix: (Units=1/GPa)
#
#
# Indices 1 2 3 4 5 6 
#
# 1 0.011420 -0.001434 -0.003710 0.000000 0.000000 0.000000
# 2 -0.001434 0.011420 -0.003710 0.000000 0.000000 0.000000
# 3 -0.003710 -0.003710 0.014589 0.000000 0.000000 0.000000
# 4 0.000000 0.000000 0.000000 0.043355 0.000000 0.000000
# 5 0.000000 0.000000 0.000000 0.000000 0.043355 0.000000
# 6 0.000000 0.000000 0.000000 0.000000 0.000000 0.025708
#
#
# Mechanical properties :
#
#
# Convention : Reuss Voigt Hill
#
# Bulk Modulus (GPa) = 50.70468 50.78071 50.74270
# Shear Modulus (GPa) = 28.71439 30.34891 29.53165
#
# Velocity S-wave (km/s) = 3.67205 3.77512 3.72394
# Velocity P-wave (km/s) = 6.46444 6.54584 6.50527
#
# Compressibility (1/GPa) = 0.01972205
#
# Stress axis : x y z
#
# Youngs Moduli (GPa) = 87.56458 87.56458 68.54539
#
# Poissons Ratio (x) = 0.12557 0.25429
# Poissons Ratio (y) = 0.12557 0.25429
# Poissons Ratio (z) = 0.32485 0.32485
#
# Static dielectric constant tensor:
#      x y z
#    x 1.813060 0.000000 0.000000 
#    y 0.000000 1.813060 0.000000 
#    z 0.000000 0.000000 1.769080 
# 
# From -- ./inp_files/1845.got.cif
#   From: 2010.05.17/outbox.cif.g08.bks.cpg/sg169_cif.got.tgz:1845.got - 2010.05.20 11:12:54.
