data_PCOD9580129
_publ_section_title
;
Structure prediction by ZEFSAII (Michael W. Deem and Ramdas Pophale) SiO2 
 PCOD9580129
Probable space group: P 61
;
_chemical_formula_sum "Si O2"
_cell_formula_units_Z 24
_cell_length_a 13.894810
_cell_length_b 13.894810
_cell_length_c 7.970189
_cell_angle_alpha 90.000000
_cell_angle_beta 90.000000
_cell_angle_gamma 120.000000
_cell_volume 1332.614323
_symmetry_space_group_name_H-M "P 61"
_symmetry_group_IT_number 169
_symmetry_cell_setting 'hexagonal'
loop_
_space_group_symop_operation_xyz
x,y,z
x-y,x,1/6+z
-y,x-y,1/3+z
-x,-y,1/2+z
-x+y,-x,2/3+z
y,-x+y,5/6+z
loop_
_atom_site_type_symbol
_atom_site_label
_atom_site_fract_x
_atom_site_fract_y
_atom_site_fract_z
Si Si1 0.423458 0.583098 0.431630
Si Si2 0.003614 0.398675 0.350131
Si Si3 0.471250 0.178517 0.773694
Si Si4 0.294362 0.810695 0.255273
O O1 0.487595 0.571688 0.588353
O O2 0.417516 0.500429 0.289307
O O3 0.490931 0.710633 0.380078
O O4 0.297691 0.544486 0.473168
O O5 0.930635 0.308269 0.205972
O O6 0.085095 0.387218 0.485299
O O7 0.450837 0.217219 0.589934
O O8 0.578311 0.160691 0.779845
#
# Coordination Sequence:
#
# PCOD9580129 Si02
#       4
#     6   6   6   6
#     4  12  20  36  54  78 116 158 204 254 292 360
#     4  12  22  34  54  82 110 156 220 250 296 364
#     4  12  21  35  53  77 111 154 207 255 297 358
#     4  12  21  35  53  77 111 154 207 255 297 358
#
# _framework density 18.009713000000001
#
# number of rings (size 3 to 8) (size 9 to 14) (size 15 to 20)
#    0.000    0.000   10.000    1.500    0.000    0.000 
#    0.000    0.000    0.000    0.000    0.000    0.000 
#    0.000    0.000    0.000  216.000    0.000   38.000 
#
# Total GULP energy -133752.024415 kJ/mol
# GULP energy per Si atom -5573.001017 kJ/mol
# Density = 1.796872 g / cm^3
# Si number density = 18.009713 Si / 1000 Ang^3
#
#
#
# Elastic Constant Matrix: (Units=GPa)
#
#
# Indices 1 2 3 4 5 6 
#
# 1 42.8286 16.3420 21.1351 0.0000 0.0000 0.0000
# 2 16.3420 42.8286 21.1351 0.0000 0.0000 0.0000
# 3 21.1351 21.1351 104.5037 0.0000 0.0000 0.0000
# 4 0.0000 0.0000 0.0000 38.1176 0.0000 0.0000
# 5 0.0000 0.0000 0.0000 0.0000 38.1176 0.0000
# 6 0.0000 0.0000 0.0000 0.0000 0.0000 13.2433
#
#
#
# Elastic Compliance Matrix: (Units=1/GPa)
#
#
# Indices 1 2 3 4 5 6 
#
# 1 0.028755 -0.009000 -0.003995 0.000000 0.000000 0.000000
# 2 -0.009000 0.028755 -0.003995 0.000000 0.000000 0.000000
# 3 -0.003995 -0.003995 0.011185 0.000000 0.000000 0.000000
# 4 0.000000 0.000000 0.000000 0.026235 0.000000 0.000000
# 5 0.000000 0.000000 0.000000 0.000000 0.026235 0.000000
# 6 0.000000 0.000000 0.000000 0.000000 0.000000 0.075510
#
#
# Mechanical properties :
#
#
# Convention : Reuss Voigt Hill
#
# Bulk Modulus (GPa) = 28.80762 34.15392 31.48077
# Shear Modulus (GPa) = 20.64189 26.66559 23.65374
#
# Velocity S-wave (km/s) = 3.38916 3.85206 3.62800
# Velocity P-wave (km/s) = 5.59871 6.22815 5.92180
#
# Compressibility (1/GPa) = 0.03471304
#
# Stress axis : x y z
#
# Youngs Moduli (GPa) = 34.77697 34.77697 89.40522
#
# Poissons Ratio (x) = 0.31300 0.35719
# Poissons Ratio (y) = 0.31300 0.35719
# Poissons Ratio (z) = 0.13894 0.13894
#
# Static dielectric constant tensor:
#      x y z
#    x 1.637870 0.000000 0.000000 
#    y 0.000000 1.637870 0.000000 
#    z 0.000000 0.000000 1.785700 
# 
# From -- ./inp_files/455.got.cif
#   From: 2010.05.17/outbox.cif.g08.bks.cpg/sg169_cif.got.tgz:455.got - 2010.05.20 11:12:54.
