data_PCOD9580464
_publ_section_title
;
Structure prediction by ZEFSAII (Michael W. Deem and Ramdas Pophale) SiO2 
 PCOD9580464
Probable space group: P 62
;
_chemical_formula_sum "Si O2"
_cell_formula_units_Z 42
_cell_length_a 10.899362
_cell_length_b 10.899362
_cell_length_c 18.031336
_cell_angle_alpha 90.000000
_cell_angle_beta 90.000000
_cell_angle_gamma 120.000000
_cell_volume 1855.071665
_symmetry_space_group_name_H-M "P 62"
_symmetry_group_IT_number 171
_symmetry_cell_setting 'hexagonal'
loop_
_space_group_symop_operation_xyz
x,y,z
x-y,x,1/3+z
-y,x-y,2/3+z
-x,-y,z
-x+y,-x,1/3+z
y,-x+y,2/3+z
loop_
_atom_site_type_symbol
_atom_site_label
_atom_site_fract_x
_atom_site_fract_y
_atom_site_fract_z
Si Si1 0.285983 0.773988 0.434660
Si Si2 0.088477 0.292200 0.565518
Si Si3 0.004895 0.251745 0.396488
Si Si4 0.702676 0.550090 0.326989
Si Si5 0.000000 0.500000 0.214369
Si Si6 0.566751 0.289436 0.610328
Si Si7 0.000000 0.000000 0.647201
Si Si8 0.530248 0.187485 0.157063
O O1 0.128941 0.733343 0.413872
O O2 0.350908 0.809145 0.352451
O O3 0.280271 0.631309 0.463408
O O4 0.367471 0.900528 0.493120
O O5 0.248260 0.420216 0.554834
O O6 0.060461 0.261889 0.478905
O O7 0.982805 0.333972 0.608738
O O8 0.052627 0.144349 0.601948
O O9 0.128681 0.365369 0.344221
O O10 0.968392 0.102834 0.362819
O O11 0.673641 0.405074 0.288401
O O12 0.642020 0.528855 0.411401
O O13 0.119225 0.632609 0.261368
O O14 0.527946 0.353900 0.539336
#
# Coordination Sequence:
#
# PCOD9580464 Si02
#       8
#     6   6   6   6   3   6   3   6
#     4  10  21  35  57  84 113 150 194 240 296 360
#     4  10  19  35  58  81 114 155 192 244 295 342
#     4  10  20  35  54  80 110 147 195 239 289 358
#     4   9  19  33  54  84 110 143 193 238 290 349
#     4  10  20  34  54  84 114 148 194 238 294 360
#     4  10  19  35  57  83 116 148 186 248 300 348
#     4  10  22  36  54  82 114 150 194 242 296 360
#     4   9  20  35  56  85 115 149 196 244 293 357
#
# _framework density 22.640636000000001
#
# number of rings (size 3 to 8) (size 9 to 14) (size 15 to 20)
#    0.000    2.286    0.000    3.000    0.000    9.714 
#    0.000    0.000    0.000   20.571    0.000    0.000 
#    0.000    0.000    0.000    0.000    0.000    0.000 
#
# Total GULP energy -233870.428309 kJ/mol
# GULP energy per Si atom -5568.343531 kJ/mol
# Density = 2.258910 g / cm^3
# Si number density = 22.640636 Si / 1000 Ang^3
#
#
#
# Elastic Constant Matrix: (Units=GPa)
#
#
# Indices 1 2 3 4 5 6 
#
# 1 55.3846 11.3281 5.7900 0.0000 0.0000 0.0000
# 2 11.3281 55.3846 5.7900 0.0000 0.0000 0.0000
# 3 5.7900 5.7900 91.6090 0.0000 0.0000 0.0000
# 4 0.0000 0.0000 0.0000 22.0626 0.0000 0.0000
# 5 0.0000 0.0000 0.0000 0.0000 22.0626 0.0000
# 6 0.0000 0.0000 0.0000 0.0000 0.0000 22.0282
#
#
#
# Elastic Compliance Matrix: (Units=1/GPa)
#
#
# Indices 1 2 3 4 5 6 
#
# 1 0.018927 -0.003771 -0.000958 0.000000 0.000000 0.000000
# 2 -0.003771 0.018927 -0.000958 0.000000 0.000000 0.000000
# 3 -0.000958 -0.000958 0.011037 0.000000 0.000000 0.000000
# 4 0.000000 0.000000 0.000000 0.045326 0.000000 0.000000
# 5 0.000000 0.000000 0.000000 0.000000 0.045326 0.000000
# 6 0.000000 0.000000 0.000000 0.000000 0.000000 0.045396
#
#
# Mechanical properties :
#
#
# Convention : Reuss Voigt Hill
#
# Bulk Modulus (GPa) = 26.65438 27.57714 27.11576
# Shear Modulus (GPa) = 23.94427 25.19535 24.56981
#
# Velocity S-wave (km/s) = 3.25557 3.33954 3.29782
# Velocity P-wave (km/s) = 5.09215 5.20354 5.14815
#
# Compressibility (1/GPa) = 0.03751728
#
# Stress axis : x y z
#
# Youngs Moduli (GPa) = 52.83448 52.83448 90.60397
#
# Poissons Ratio (x) = 0.19924 0.08679
# Poissons Ratio (y) = 0.19924 0.08679
# Poissons Ratio (z) = 0.05061 0.05061
#
# Static dielectric constant tensor:
#      x y z
#    x 1.981370 0.000000 0.000000 
#    y 0.000000 1.981370 0.000000 
#    z 0.000000 0.000000 1.977280 
# 
# From -- ./inp_files/5035.got.cif
#   From: 2010.05.17/outbox.cif.g08.bks.cpg/sg171_3_cif.got.tgz:5035.got - 2010.05.20 11:16:09.
