data_PCOD9580895
_publ_section_title
;
Structure prediction by ZEFSAII (Michael W. Deem and Ramdas Pophale) SiO2 
 PCOD9580895
Probable space group: P 64
;
_chemical_formula_sum "Si O2"
_cell_formula_units_Z 45
_cell_length_a 24.554250
_cell_length_b 24.554250
_cell_length_c 5.847026
_cell_angle_alpha 90.000000
_cell_angle_beta 90.000000
_cell_angle_gamma 120.000000
_cell_volume 3052.945161
_symmetry_space_group_name_H-M "P 64"
_symmetry_group_IT_number 172
_symmetry_cell_setting 'hexagonal'
loop_
_space_group_symop_operation_xyz
x,y,z
x-y,x,2/3+z
-y,x-y,1/3+z
-x,-y,z
-x+y,-x,2/3+z
y,-x+y,1/3+z
loop_
_atom_site_type_symbol
_atom_site_label
_atom_site_fract_x
_atom_site_fract_y
_atom_site_fract_z
Si Si1 0.600487 0.176849 0.017950
Si Si2 0.399865 0.393638 0.667740
Si Si3 0.463153 0.198478 0.484769
Si Si4 0.500000 0.500000 0.342599
Si Si5 0.870742 0.557725 0.114490
Si Si6 0.696547 0.303697 0.814908
Si Si7 0.682940 0.545453 0.651235
Si Si8 0.092809 0.490270 0.719571
O O1 0.645097 0.250532 0.983540
O O2 0.606832 0.152232 0.262584
O O3 0.633745 0.146378 0.865378
O O4 0.527407 0.152615 0.975820
O O5 0.445105 0.447509 0.491541
O O6 0.393444 0.329071 0.570870
O O7 0.341735 0.405017 0.682662
O O8 0.442026 0.406566 0.892433
O O9 0.435726 0.246286 0.491733
O O10 0.538984 0.243021 0.481524
O O11 0.445850 0.161054 0.730414
O O12 0.448704 0.166905 0.229519
O O13 0.476421 0.538459 0.194881
O O14 0.885722 0.552840 0.852318
O O15 0.711998 0.370664 0.912697
#
# Coordination Sequence:
#
# PCOD9580895 Si02
#       8
#     6   6   6   3   6   6   6   6
#     4  10  21  32  51  70  92 124 158 201 242 297
#     4  10  21  34  53  73  92 124 159 197 247 300
#     4  11  27  38  53  75 102 127 155 207 249 296
#     4  10  18  32  46  74  90 114 152 204 242 290
#     4   9  22  38  55  68  97 128 163 190 252 309
#     4  11  22  37  48  63  91 133 166 191 239 312
#     4  12  24  38  53  79  99 120 159 208 246 286
#     4  10  19  32  54  67  95 120 159 196 248 298
#
# _framework density 14.739864000000001
#
# number of rings (size 3 to 8) (size 9 to 14) (size 15 to 20)
#    0.000    1.600    1.333    4.400   13.067    1.067 
#    0.000    0.000    0.000    0.000    0.000    0.000 
#    0.000    0.000    0.000    0.000    0.000    0.000 
#
# Total GULP energy -250589.093474 kJ/mol
# GULP energy per Si atom -5568.646522 kJ/mol
# Density = 1.470632 g / cm^3
# Si number density = 14.739864 Si / 1000 Ang^3
#
#
#
# Elastic Constant Matrix: (Units=GPa)
#
#
# Indices 1 2 3 4 5 6 
#
# 1 62.9247 29.9062 32.9928 0.0000 0.0000 0.0000
# 2 29.9062 62.9247 32.9928 0.0000 0.0000 0.0000
# 3 32.9928 32.9928 79.8699 0.0000 0.0000 0.0000
# 4 0.0000 0.0000 0.0000 69.1588 0.0000 0.0000
# 5 0.0000 0.0000 0.0000 0.0000 69.1588 0.0000
# 6 0.0000 0.0000 0.0000 0.0000 0.0000 16.5093
#
#
#
# Elastic Compliance Matrix: (Units=1/GPa)
#
#
# Indices 1 2 3 4 5 6 
#
# 1 0.022768 -0.007518 -0.006300 0.000000 0.000000 0.000000
# 2 -0.007518 0.022768 -0.006300 0.000000 0.000000 0.000000
# 3 -0.006300 -0.006300 0.017725 0.000000 0.000000 0.000000
# 4 0.000000 0.000000 0.000000 0.014459 0.000000 0.000000
# 5 0.000000 0.000000 0.000000 0.000000 0.014459 0.000000
# 6 0.000000 0.000000 0.000000 0.000000 0.000000 0.060572
#
#
# Mechanical properties :
#
#
# Convention : Reuss Voigt Hill
#
# Bulk Modulus (GPa) = 43.42757 44.16697 43.79727
# Shear Modulus (GPa) = 24.91758 38.28722 31.60240
#
# Velocity S-wave (km/s) = 4.11602 5.10212 4.63537
# Velocity P-wave (km/s) = 7.21910 8.04601 7.64374
#
# Compressibility (1/GPa) = 0.02302685
#
# Stress axis : x y z
#
# Youngs Moduli (GPa) = 43.92120 43.92120 56.41818
#
# Poissons Ratio (x) = 0.33020 0.35541
# Poissons Ratio (y) = 0.33020 0.35541
# Poissons Ratio (z) = 0.27668 0.27668
#
# Static dielectric constant tensor:
#      x y z
#    x 1.494410 0.000000 0.000000 
#    y 0.000000 1.494410 0.000000 
#    z 0.000000 0.000000 1.634880 
# 
# From -- ./inp_files/402.got.cif
#   From: 2010.05.17/outbox.cif.g08.bks.cpg/sg172_1_cif.got.tgz:402.got - 2010.05.20 11:19:57.
