data_PCOD9580475
_publ_section_title
;
Structure prediction by ZEFSAII (Michael W. Deem and Ramdas Pophale) SiO2 
 PCOD9580475
Probable space group: P 62
;
_chemical_formula_sum "Si O2"
_cell_formula_units_Z 36
_cell_length_a 10.734282
_cell_length_b 10.734282
_cell_length_c 17.144504
_cell_angle_alpha 90.000000
_cell_angle_beta 90.000000
_cell_angle_gamma 120.000000
_cell_volume 1710.809124
_symmetry_space_group_name_H-M "P 62"
_symmetry_group_IT_number 171
_symmetry_cell_setting 'hexagonal'
loop_
_space_group_symop_operation_xyz
x,y,z
x-y,x,1/3+z
-y,x-y,2/3+z
-x,-y,z
-x+y,-x,1/3+z
y,-x+y,2/3+z
loop_
_atom_site_type_symbol
_atom_site_label
_atom_site_fract_x
_atom_site_fract_y
_atom_site_fract_z
Si Si1 0.142021 0.368352 0.356270
Si Si2 0.649725 0.021861 0.531168
Si Si3 0.191448 0.735164 0.849997
Si Si4 0.282500 0.853909 0.172104
Si Si5 0.938918 0.835867 0.081243
Si Si6 0.893599 0.667080 0.670524
O O1 0.191506 0.459996 0.435721
O O2 0.265828 0.329745 0.338503
O O3 0.111199 0.427741 0.277575
O O4 0.003027 0.215383 0.378234
O O5 0.619517 0.862744 0.550512
O O6 0.500000 0.000000 0.495905
O O7 0.788952 0.076408 0.474891
O O8 0.184086 0.585225 0.864115
O O9 0.022191 0.687525 0.844504
O O10 0.250211 0.835368 0.924019
O O11 0.257291 0.824599 0.079426
O O12 0.062433 0.858213 0.019194
O O13 0.000000 0.000000 0.115197
#
# Coordination Sequence:
#
# PCOD9580475 Si02
#       6
#     6   6   6   6   6   6
#     4  10  20  35  60  86 119 153 206 257 311 366
#     4  11  23  40  55  90 132 158 191 270 325 381
#     4  10  19  37  62  87 112 165 209 251 300 374
#     4   9  21  38  56  86 121 159 211 242 302 384
#     4   9  19  37  63  91 116 159 214 267 310 367
#     4   9  18  35  62  89 114 152 210 265 303 357
#
# _framework density 21.042676
#
# number of rings (size 3 to 8) (size 9 to 14) (size 15 to 20)
#    0.000    2.333    0.000    3.000    0.000    3.333 
#   21.000    0.000    7.333    0.000    0.000    0.000 
#    0.000    0.000    0.000    0.000    0.000    0.000 
#
# Total GULP energy -200828.928004 kJ/mol
# GULP energy per Si atom -5578.581333 kJ/mol
# Density = 2.099478 g / cm^3
# Si number density = 21.042676 Si / 1000 Ang^3
#
#
#
# Elastic Constant Matrix: (Units=GPa)
#
#
# Indices 1 2 3 4 5 6 
#
# 1 29.0220 14.6931 13.7736 0.0000 0.0000 0.0000
# 2 14.6931 29.0220 13.7736 0.0000 0.0000 0.0000
# 3 13.7736 13.7736 97.8613 0.0000 0.0000 0.0000
# 4 0.0000 0.0000 0.0000 11.7277 0.0000 0.0000
# 5 0.0000 0.0000 0.0000 0.0000 11.7277 0.0000
# 6 0.0000 0.0000 0.0000 0.0000 0.0000 7.1644
#
#
#
# Elastic Compliance Matrix: (Units=1/GPa)
#
#
# Indices 1 2 3 4 5 6 
#
# 1 0.047445 -0.022344 -0.003533 0.000000 0.000000 0.000000
# 2 -0.022344 0.047445 -0.003533 0.000000 0.000000 0.000000
# 3 -0.003533 -0.003533 0.011213 0.000000 0.000000 0.000000
# 4 0.000000 0.000000 0.000000 0.085268 0.000000 0.000000
# 5 0.000000 0.000000 0.000000 0.000000 0.085268 0.000000
# 6 0.000000 0.000000 0.000000 0.000000 0.000000 0.139578
#
#
# Mechanical properties :
#
#
# Convention : Reuss Voigt Hill
#
# Bulk Modulus (GPa) = 21.14857 26.70956 23.92906
# Shear Modulus (GPa) = 10.18746 13.70163 11.94455
#
# Velocity S-wave (km/s) = 2.20269 2.55450 2.38509
# Velocity P-wave (km/s) = 4.06710 4.62831 4.35675
#
# Compressibility (1/GPa) = 0.04728452
#
# Stress axis : x y z
#
# Youngs Moduli (GPa) = 21.07685 21.07685 89.18178
#
# Poissons Ratio (x) = 0.47094 0.31508
# Poissons Ratio (y) = 0.47094 0.31508
# Poissons Ratio (z) = 0.07446 0.07446
#
# Static dielectric constant tensor:
#      x y z
#    x 1.769950 0.000000 0.000000 
#    y 0.000000 1.769950 0.000000 
#    z 0.000000 0.000000 1.776650 
# 
# From -- ./inp_files/3615.got.cif
#   From: 2010.05.17/outbox.cif.g08.bks.cpg/sg171_2_cif.got.tgz:3615.got - 2010.05.20 11:16:09.
