data_PCOD9580921
_publ_section_title
;
Structure prediction by ZEFSAII (Michael W. Deem and Ramdas Pophale) SiO2 
 PCOD9580921
Probable space group: P 64
;
_chemical_formula_sum "Si O2"
_cell_formula_units_Z 24
_cell_length_a 7.827362
_cell_length_b 7.827362
_cell_length_c 20.897858
_cell_angle_alpha 90.000000
_cell_angle_beta 90.000000
_cell_angle_gamma 120.000000
_cell_volume 1108.825601
_symmetry_space_group_name_H-M "P 64"
_symmetry_group_IT_number 172
_symmetry_cell_setting 'hexagonal'
loop_
_space_group_symop_operation_xyz
x,y,z
x-y,x,2/3+z
-y,x-y,1/3+z
-x,-y,z
-x+y,-x,2/3+z
y,-x+y,1/3+z
loop_
_atom_site_type_symbol
_atom_site_label
_atom_site_fract_x
_atom_site_fract_y
_atom_site_fract_z
Si Si1 0.829044 0.770383 0.235310
Si Si2 0.643938 0.717520 0.441625
Si Si3 0.909511 0.282194 0.656147
Si Si4 0.974902 0.687598 0.360148
O O1 0.821902 0.692795 0.165019
O O2 0.651852 0.787668 0.265846
O O3 0.879062 0.655082 0.289264
O O4 0.000000 0.000000 0.234711
O O5 0.500000 0.500000 0.467052
O O6 0.540805 0.765126 0.383183
O O7 0.834353 0.718729 0.410019
O O8 0.000000 0.500000 0.632129
O O9 0.098764 0.271744 0.684127
O O10 0.000000 0.500000 0.376584
#
# Coordination Sequence:
#
# PCOD9580921 Si02
#       4
#     6   6   6   6
#     4   9  19  37  60  85 120 159 198 246 300 357
#     4  11  21  37  61  89 121 157 201 250 302 362
#     4  10  21  39  60  87 122 160 200 248 303 359
#     4  10  20  37  61  87 121 160 197 246 301 356
#
# _framework density 21.644521999999998
#
# number of rings (size 3 to 8) (size 9 to 14) (size 15 to 20)
#    0.000    2.000    0.000    6.000    0.000    0.000 
#    0.000   23.750    0.000    9.000    0.000    0.000 
#    0.000    0.000    0.000    0.000    0.000    0.000 
#
# Total GULP energy -133951.361618 kJ/mol
# GULP energy per Si atom -5581.306734 kJ/mol
# Density = 2.159526 g / cm^3
# Si number density = 21.644522 Si / 1000 Ang^3
#
#
#
# Elastic Constant Matrix: (Units=GPa)
#
#
# Indices 1 2 3 4 5 6 
#
# 1 61.9535 0.9697 25.5316 0.0000 0.0000 0.0000
# 2 0.9697 61.9535 25.5316 0.0000 0.0000 0.0000
# 3 25.5316 25.5316 147.6726 0.0000 0.0000 0.0000
# 4 0.0000 0.0000 0.0000 4.3421 0.0000 0.0000
# 5 0.0000 0.0000 0.0000 0.0000 4.3421 0.0000
# 6 0.0000 0.0000 0.0000 0.0000 0.0000 30.4919
#
#
#
# Elastic Compliance Matrix: (Units=1/GPa)
#
#
# Indices 1 2 3 4 5 6 
#
# 1 0.017442 0.001044 -0.003196 0.000000 0.000000 0.000000
# 2 0.001044 0.017442 -0.003196 0.000000 0.000000 0.000000
# 3 -0.003196 -0.003196 0.007877 0.000000 0.000000 0.000000
# 4 0.000000 0.000000 0.000000 0.230305 0.000000 0.000000
# 5 0.000000 0.000000 0.000000 0.000000 0.230305 0.000000
# 6 0.000000 0.000000 0.000000 0.000000 0.000000 0.032796
#
#
# Mechanical properties :
#
#
# Convention : Reuss Voigt Hill
#
# Bulk Modulus (GPa) = 31.18703 41.73838 36.46270
# Shear Modulus (GPa) = 8.96778 22.47167 15.71972
#
# Velocity S-wave (km/s) = 2.03770 3.22563 2.69786
# Velocity P-wave (km/s) = 4.46948 5.76180 5.15629
#
# Compressibility (1/GPa) = 0.03206461
#
# Stress axis : x y z
#
# Youngs Moduli (GPa) = 57.33309 57.33309 126.95336
#
# Poissons Ratio (x) = -0.05986 0.40576
# Poissons Ratio (y) = -0.05986 0.40576
# Poissons Ratio (z) = 0.18324 0.18324
#
# Static dielectric constant tensor:
#      x y z
#    x 1.820120 0.000000 0.000000 
#    y 0.000000 1.820120 0.000000 
#    z 0.000000 0.000000 1.745300 
# 
# From -- ./inp_files/1867.got.cif
#   From: 2010.05.17/outbox.cif.g08.bks.cpg/sg172_1_cif.got.tgz:1867.got - 2010.05.20 11:19:57.
