data_PCOD9580230
_publ_section_title
;
Structure prediction by ZEFSAII (Michael W. Deem and Ramdas Pophale) SiO2 
 PCOD9580230
Probable space group: P 65
;
_chemical_formula_sum "Si O2"
_cell_formula_units_Z 36
_cell_length_a 12.346883
_cell_length_b 12.346883
_cell_length_c 12.359473
_cell_angle_alpha 90.000000
_cell_angle_beta 90.000000
_cell_angle_gamma 120.000000
_cell_volume 1631.718548
_symmetry_space_group_name_H-M "P 65"
_symmetry_group_IT_number 170
_symmetry_cell_setting 'hexagonal'
loop_
_space_group_symop_operation_xyz
x,y,z
x-y,x,5/6+z
-y,x-y,2/3+z
-x,-y,1/2+z
-x+y,-x,1/3+z
y,-x+y,1/6+z
loop_
_atom_site_type_symbol
_atom_site_label
_atom_site_fract_x
_atom_site_fract_y
_atom_site_fract_z
Si Si1 0.162994 0.476089 0.770040
Si Si2 0.323354 0.832949 0.718744
Si Si3 0.228757 0.580108 0.010787
Si Si4 0.806073 0.804096 0.514882
Si Si5 0.369596 0.235298 0.329723
Si Si6 0.340572 0.417925 0.452363
O O1 0.211713 0.539949 0.887483
O O2 0.289949 0.525284 0.703089
O O3 0.074627 0.330003 0.791599
O O4 0.092272 0.548979 0.729041
O O5 0.404289 0.765632 0.718309
O O6 0.249894 0.796571 0.602168
O O7 0.214713 0.772203 0.806059
O O8 0.396248 0.981935 0.716396
O O9 0.127372 0.464184 0.078475
O O10 0.907256 0.829403 0.421390
O O11 0.813413 0.707418 0.600383
O O12 0.288693 0.292610 0.380290
#
# Coordination Sequence:
#
# PCOD9580230 Si02
#       6
#     6   6   6   6   6   6
#     4  11  23  41  67 102 140 174 224 297 357 414
#     4   9  19  34  53  90 124 161 205 268 330 410
#     4  11  20  38  65  95 136 164 216 287 358 406
#     4  12  26  44  71 100 138 194 239 278 334 427
#     4  10  20  38  61  93 124 172 224 275 326 406
#     4   9  20  35  59  92 126 163 218 277 341 399
#
# _framework density 22.062626999999999
#
# number of rings (size 3 to 8) (size 9 to 14) (size 15 to 20)
#    1.000    0.667    3.333    2.000    2.333    0.000 
#    0.000    1.667    0.000    0.000    0.000    0.000 
#    0.000    0.000    0.000    0.000    0.000    0.000 
#
# Total GULP energy -200641.340509 kJ/mol
# GULP energy per Si atom -5573.370570 kJ/mol
# Density = 2.201241 g / cm^3
# Si number density = 22.062627 Si / 1000 Ang^3
#
#
#
# Elastic Constant Matrix: (Units=GPa)
#
#
# Indices 1 2 3 4 5 6 
#
# 1 86.5042 40.4194 15.1442 0.0000 0.0000 0.0000
# 2 40.4194 86.5042 15.1442 0.0000 0.0000 0.0000
# 3 15.1442 15.1442 71.6206 0.0000 0.0000 0.0000
# 4 0.0000 0.0000 0.0000 33.0340 0.0000 0.0000
# 5 0.0000 0.0000 0.0000 0.0000 33.0340 0.0000
# 6 0.0000 0.0000 0.0000 0.0000 0.0000 23.0424
#
#
#
# Elastic Compliance Matrix: (Units=1/GPa)
#
#
# Indices 1 2 3 4 5 6 
#
# 1 0.014998 -0.006701 -0.001754 0.000000 0.000000 0.000000
# 2 -0.006701 0.014998 -0.001754 0.000000 0.000000 0.000000
# 3 -0.001754 -0.001754 0.014704 0.000000 0.000000 0.000000
# 4 0.000000 0.000000 0.000000 0.030272 0.000000 0.000000
# 5 0.000000 0.000000 0.000000 0.000000 0.030272 0.000000
# 6 0.000000 0.000000 0.000000 0.000000 0.000000 0.043398
#
#
# Mechanical properties :
#
#
# Convention : Reuss Voigt Hill
#
# Bulk Modulus (GPa) = 41.18393 42.89387 42.03890
# Shear Modulus (GPa) = 28.22365 29.41683 28.82024
#
# Velocity S-wave (km/s) = 3.58054 3.65544 3.61819
# Velocity P-wave (km/s) = 5.98340 6.10741 6.04572
#
# Compressibility (1/GPa) = 0.02428132
#
# Stress axis : x y z
#
# Youngs Moduli (GPa) = 66.67432 66.67432 68.00669
#
# Poissons Ratio (x) = 0.44677 0.11932
# Poissons Ratio (y) = 0.44677 0.11932
# Poissons Ratio (z) = 0.11698 0.11698
#
# Static dielectric constant tensor:
#      x y z
#    x 1.830930 0.000000 0.000000 
#    y 0.000000 1.830930 0.000000 
#    z 0.000000 0.000000 1.870100 
# 
# From -- ./inp_files/1364.got.cif
#   From: 2010.05.17/outbox.cif.g08.bks.cpg/sg170_cif.got.tgz:1364.got - 2010.05.20 11:14:30.
