data_PCOD9580904
_publ_section_title
;
Structure prediction by ZEFSAII (Michael W. Deem and Ramdas Pophale) SiO2 
 PCOD9580904
Probable space group: P 64
;
_chemical_formula_sum "Si O2"
_cell_formula_units_Z 36
_cell_length_a 9.150067
_cell_length_b 9.150067
_cell_length_c 24.702093
_cell_angle_alpha 90.000000
_cell_angle_beta 90.000000
_cell_angle_gamma 120.000000
_cell_volume 1791.071537
_symmetry_space_group_name_H-M "P 64"
_symmetry_group_IT_number 172
_symmetry_cell_setting 'hexagonal'
loop_
_space_group_symop_operation_xyz
x,y,z
x-y,x,2/3+z
-y,x-y,1/3+z
-x,-y,z
-x+y,-x,2/3+z
y,-x+y,1/3+z
loop_
_atom_site_type_symbol
_atom_site_label
_atom_site_fract_x
_atom_site_fract_y
_atom_site_fract_z
Si Si1 0.802572 0.369649 0.343500
Si Si2 0.506627 0.178977 0.577891
Si Si3 0.674464 0.514208 0.528676
Si Si4 0.691136 0.051445 0.286539
Si Si5 0.125161 0.695873 0.072947
Si Si6 0.010761 0.830859 0.972918
O O1 0.696136 0.398804 0.296498
O O2 0.766211 0.180628 0.337257
O O3 0.744186 0.426193 0.396209
O O4 0.000000 0.500000 0.336672
O O5 0.609272 0.311737 0.529971
O O6 0.500000 0.000000 0.574838
O O7 0.311446 0.122021 0.592497
O O8 0.500000 0.500000 0.548658
O O9 0.829865 0.619207 0.568781
O O10 0.716131 0.601696 0.470238
O O11 0.500000 0.000000 0.279355
O O12 0.698498 0.883104 0.295301
O O13 0.000000 0.500000 0.059918
O O14 0.077235 0.798651 0.030024
O O15 0.000000 0.000000 0.972495
#
# Coordination Sequence:
#
# PCOD9580904 Si02
#       6
#     6   6   6   6   6   6
#     4  10  19  35  58  81 110 151 186 223 279 349
#     4  10  19  36  59  82 108 147 193 232 277 347
#     4  10  21  39  57  78 114 159 190 230 296 351
#     4  11  20  33  57  87 112 140 189 242 280 332
#     4  10  21  39  57  77 113 158 195 232 284 349
#     4  11  20  34  58  87 111 141 189 241 284 334
#
# _framework density 20.099701
#
# number of rings (size 3 to 8) (size 9 to 14) (size 15 to 20)
#    0.000    1.667    0.000   10.000    0.000    0.667 
#    0.000    8.333    0.000    0.000    0.000    0.000 
#    0.000    0.000    0.000    0.000    0.000    0.000 
#
# Total GULP energy -200537.499832 kJ/mol
# GULP energy per Si atom -5570.486106 kJ/mol
# Density = 2.005395 g / cm^3
# Si number density = 20.099701 Si / 1000 Ang^3
#
#
#
# Elastic Constant Matrix: (Units=GPa)
#
#
# Indices 1 2 3 4 5 6 
#
# 1 95.3474 -0.2597 21.2921 0.0000 0.0000 0.0000
# 2 -0.2597 95.3474 21.2921 0.0000 0.0000 0.0000
# 3 21.2921 21.2921 65.5526 0.0000 0.0000 0.0000
# 4 0.0000 0.0000 0.0000 18.9731 0.0000 0.0000
# 5 0.0000 0.0000 0.0000 0.0000 18.9731 0.0000
# 6 0.0000 0.0000 0.0000 0.0000 0.0000 47.8035
#
#
#
# Elastic Compliance Matrix: (Units=1/GPa)
#
#
# Indices 1 2 3 4 5 6 
#
# 1 0.011383 0.000924 -0.003997 0.000000 0.000000 0.000000
# 2 0.000924 0.011383 -0.003997 0.000000 0.000000 0.000000
# 3 -0.003997 -0.003997 0.017852 0.000000 0.000000 0.000000
# 4 0.000000 0.000000 0.000000 0.052706 0.000000 0.000000
# 5 0.000000 0.000000 0.000000 0.000000 0.052706 0.000000
# 6 0.000000 0.000000 0.000000 0.000000 0.000000 0.020919
#
#
# Mechanical properties :
#
#
# Convention : Reuss Voigt Hill
#
# Bulk Modulus (GPa) = 37.77030 37.87736 37.82383
# Shear Modulus (GPa) = 26.32734 31.41148 28.86941
#
# Velocity S-wave (km/s) = 3.62309 3.95749 3.79398
# Velocity P-wave (km/s) = 6.02783 6.30619 6.16858
#
# Compressibility (1/GPa) = 0.02647583
#
# Stress axis : x y z
#
# Youngs Moduli (GPa) = 87.84926 87.84926 56.01715
#
# Poissons Ratio (x) = -0.08114 0.22392
# Poissons Ratio (y) = -0.08114 0.22392
# Poissons Ratio (z) = 0.35116 0.35116
#
# Static dielectric constant tensor:
#      x y z
#    x 1.791820 0.000000 0.000000 
#    y 0.000000 1.791820 0.000000 
#    z 0.000000 0.000000 1.730250 
# 
# From -- ./inp_files/2602.got.cif
#   From: 2010.05.17/outbox.cif.g08.bks.cpg/sg172_2_cif.got.tgz:2602.got - 2010.05.20 11:19:57.
