data_PCOD9580312
_publ_section_title
;
Structure prediction by ZEFSAII (Michael W. Deem and Ramdas Pophale) SiO2 
 PCOD9580312
Probable space group: P 65
;
_chemical_formula_sum "Si O2"
_cell_formula_units_Z 36
_cell_length_a 11.540723
_cell_length_b 11.540723
_cell_length_c 15.889796
_cell_angle_alpha 90.000000
_cell_angle_beta 90.000000
_cell_angle_gamma 120.000000
_cell_volume 1832.799627
_symmetry_space_group_name_H-M "P 65"
_symmetry_group_IT_number 170
_symmetry_cell_setting 'hexagonal'
loop_
_space_group_symop_operation_xyz
x,y,z
x-y,x,5/6+z
-y,x-y,2/3+z
-x,-y,1/2+z
-x+y,-x,1/3+z
y,-x+y,1/6+z
loop_
_atom_site_type_symbol
_atom_site_label
_atom_site_fract_x
_atom_site_fract_y
_atom_site_fract_z
Si Si1 0.666925 0.609782 0.198350
Si Si2 0.365798 0.795714 0.823522
Si Si3 0.878764 0.923331 0.193783
Si Si4 0.461662 0.058445 0.166533
Si Si5 0.622268 0.927502 0.167668
Si Si6 0.495221 0.244004 0.021312
O O1 0.521917 0.595763 0.213822
O O2 0.780153 0.764964 0.205948
O O3 0.702467 0.529350 0.264052
O O4 0.671586 0.577290 0.100032
O O5 0.473582 0.848031 0.748478
O O6 0.217095 0.759161 0.790240
O O7 0.332594 0.656694 0.865742
O O8 0.970857 0.950077 0.114444
O O9 0.778263 0.978239 0.171594
O O10 0.430268 0.134632 0.094494
O O11 0.576529 0.027302 0.133074
O O12 0.340677 0.909240 0.186660
#
# Coordination Sequence:
#
# PCOD9580312 Si02
#       6
#     6   6   6   6   6   6
#     4   9  19  35  58  88 114 158 208 252 311 375
#     4   9  20  35  60  86 122 151 199 264 305 374
#     4   9  17  31  58  84 115 157 211 264 300 374
#     4  10  23  38  57  95 125 161 206 258 320 381
#     4   8  17  36  59  85 113 152 207 257 302 371
#     4  11  24  37  64  90 127 167 205 263 318 391
#
# _framework density 19.642081999999998
#
# number of rings (size 3 to 8) (size 9 to 14) (size 15 to 20)
#    0.000    2.667    0.000    1.000   14.000    1.333 
#    0.000    0.000    3.667    0.000    0.000    0.000 
#    0.000    0.000    0.000    0.000    0.000    0.000 
#
# Total GULP energy -200566.364369 kJ/mol
# GULP energy per Si atom -5571.287899 kJ/mol
# Density = 1.959738 g / cm^3
# Si number density = 19.642082 Si / 1000 Ang^3
#
#
#
# Elastic Constant Matrix: (Units=GPa)
#
#
# Indices 1 2 3 4 5 6 
#
# 1 73.2855 28.0654 39.5296 0.0000 0.0000 0.0000
# 2 28.0654 73.2855 39.5296 0.0000 0.0000 0.0000
# 3 39.5296 39.5296 86.6909 0.0000 0.0000 0.0000
# 4 0.0000 0.0000 0.0000 30.6159 0.0000 0.0000
# 5 0.0000 0.0000 0.0000 0.0000 30.6159 0.0000
# 6 0.0000 0.0000 0.0000 0.0000 0.0000 22.6100
#
#
#
# Elastic Compliance Matrix: (Units=1/GPa)
#
#
# Indices 1 2 3 4 5 6 
#
# 1 0.018714 -0.003400 -0.006983 0.000000 0.000000 0.000000
# 2 -0.003400 0.018714 -0.006983 0.000000 0.000000 0.000000
# 3 -0.006983 -0.006983 0.017903 0.000000 0.000000 0.000000
# 4 0.000000 0.000000 0.000000 0.032663 0.000000 0.000000
# 5 0.000000 0.000000 0.000000 0.000000 0.032663 0.000000
# 6 0.000000 0.000000 0.000000 0.000000 0.000000 0.044228
#
#
# Mechanical properties :
#
#
# Convention : Reuss Voigt Hill
#
# Bulk Modulus (GPa) = 48.54482 49.72344 49.13413
# Shear Modulus (GPa) = 24.21510 25.17751 24.69631
#
# Velocity S-wave (km/s) = 3.51496 3.58413 3.54971
# Velocity P-wave (km/s) = 6.42196 6.51902 6.47068
#
# Compressibility (1/GPa) = 0.02059952
#
# Stress axis : x y z
#
# Youngs Moduli (GPa) = 53.43633 53.43633 55.85574
#
# Poissons Ratio (x) = 0.18170 0.39003
# Poissons Ratio (y) = 0.18170 0.39003
# Poissons Ratio (z) = 0.37313 0.37313
#
# Static dielectric constant tensor:
#      x y z
#    x 1.739820 0.000000 0.000000 
#    y 0.000000 1.739820 0.000000 
#    z 0.000000 0.000000 1.692690 
# 
# From -- ./inp_files/1197.got.cif
#   From: 2010.05.17/outbox.cif.g08.bks.cpg/sg170_cif.got.tgz:1197.got - 2010.05.20 11:14:30.
