data_PCOD9580125
_publ_section_title
;
Structure prediction by ZEFSAII (Michael W. Deem and Ramdas Pophale) SiO2 
 PCOD9580125
Probable space group: P 61
;
_chemical_formula_sum "Si O2"
_cell_formula_units_Z 42
_cell_length_a 11.414958
_cell_length_b 11.414958
_cell_length_c 15.960657
_cell_angle_alpha 90.000000
_cell_angle_beta 90.000000
_cell_angle_gamma 120.000000
_cell_volume 1801.067676
_symmetry_space_group_name_H-M "P 61"
_symmetry_group_IT_number 169
_symmetry_cell_setting 'hexagonal'
loop_
_space_group_symop_operation_xyz
x,y,z
x-y,x,1/6+z
-y,x-y,1/3+z
-x,-y,1/2+z
-x+y,-x,2/3+z
y,-x+y,5/6+z
loop_
_atom_site_type_symbol
_atom_site_label
_atom_site_fract_x
_atom_site_fract_y
_atom_site_fract_z
Si Si1 0.365868 0.457785 0.582010
Si Si2 0.604300 0.613065 0.698185
Si Si3 0.605049 0.322429 0.287219
Si Si4 0.148805 0.054985 0.000336
Si Si5 0.383265 0.209928 0.569932
Si Si6 0.910065 0.236488 0.067334
Si Si7 0.498525 0.625094 0.324393
O O1 0.518333 0.550462 0.613990
O O2 0.315763 0.550841 0.538071
O O3 0.360836 0.329702 0.536260
O O4 0.271671 0.391852 0.663293
O O5 0.520835 0.669200 0.749027
O O6 0.754291 0.727520 0.678385
O O7 0.587686 0.490839 0.756865
O O8 0.737661 0.470019 0.282211
O O9 0.634260 0.231262 0.225229
O O10 0.204032 0.997059 0.794814
O O11 0.050541 0.958675 0.926793
O O12 0.281358 0.121955 0.644031
O O13 0.769398 0.185068 0.113889
O O14 0.990410 0.393625 0.039660
#
# Coordination Sequence:
#
# PCOD9580125 Si02
#       7
#     6   6   6   6   6   6   6
#     4  11  26  45  78 106 146 195 243 315 386 451
#     4  11  26  51  71 112 153 192 257 321 384 465
#     4  11  28  43  77 108 146 195 243 316 384 452
#     4  12  29  52  79 113 158 215 266 325 400 479
#     4  11  25  48  69 110 147 184 250 311 378 457
#     4  12  24  46  73 110 144 198 248 318 373 466
#     4  12  26  45  75 109 152 189 261 314 385 462
#
# _framework density 23.319503000000001
#
# number of rings (size 3 to 8) (size 9 to 14) (size 15 to 20)
#    0.000    0.571    5.714    0.857   12.000    0.000 
#    2.571    0.000    0.000    0.000    0.000    0.000 
#    0.000    0.000    0.000    0.000    0.000    0.000 
#
# Total GULP energy -235130.167162 kJ/mol
# GULP energy per Si atom -5598.337313 kJ/mol
# Density = 2.326643 g / cm^3
# Si number density = 23.319503 Si / 1000 Ang^3
#
#
#
# Elastic Constant Matrix: (Units=GPa)
#
#
# Indices 1 2 3 4 5 6 
#
# 1 66.0974 14.7584 22.2281 0.0000 0.0000 0.0000
# 2 14.7584 66.0974 22.2281 0.0000 0.0000 0.0000
# 3 22.2281 22.2281 68.1769 0.0000 0.0000 0.0000
# 4 0.0000 0.0000 0.0000 34.0937 0.0000 0.0000
# 5 0.0000 0.0000 0.0000 0.0000 34.0937 0.0000
# 6 0.0000 0.0000 0.0000 0.0000 0.0000 25.6695
#
#
#
# Elastic Compliance Matrix: (Units=1/GPa)
#
#
# Indices 1 2 3 4 5 6 
#
# 1 0.017274 -0.002205 -0.004913 0.000000 0.000000 0.000000
# 2 -0.002205 0.017274 -0.004913 0.000000 0.000000 0.000000
# 3 -0.004913 -0.004913 0.017871 0.000000 0.000000 0.000000
# 4 0.000000 0.000000 0.000000 0.029331 0.000000 0.000000
# 5 0.000000 0.000000 0.000000 0.000000 0.029331 0.000000
# 6 0.000000 0.000000 0.000000 0.000000 0.000000 0.038957
#
#
# Mechanical properties :
#
#
# Convention : Reuss Voigt Hill
#
# Bulk Modulus (GPa) = 35.26437 35.42231 35.34334
# Shear Modulus (GPa) = 27.24033 28.18183 27.71108
#
# Velocity S-wave (km/s) = 3.42151 3.48013 3.45094
# Velocity P-wave (km/s) = 5.54653 5.60102 5.57384
#
# Compressibility (1/GPa) = 0.02835724
#
# Stress axis : x y z
#
# Youngs Moduli (GPa) = 57.89152 57.89152 55.95540
#
# Poissons Ratio (x) = 0.12763 0.27491
# Poissons Ratio (y) = 0.12763 0.27491
# Poissons Ratio (z) = 0.28442 0.28442
#
# Static dielectric constant tensor:
#      x y z
#    x 1.901260 0.000000 0.000000 
#    y 0.000000 1.901260 0.000000 
#    z 0.000000 0.000000 1.897740 
# 
# From -- ./inp_files/1360.got.cif
#   From: 2010.05.17/outbox.cif.g08.bks.cpg/sg169_cif.got.tgz:1360.got - 2010.05.20 11:12:54.
