data_PCOD9580439
_publ_section_title
;
Structure prediction by ZEFSAII (Michael W. Deem and Ramdas Pophale) SiO2 
 PCOD9580439
Probable space group: P 62
;
_chemical_formula_sum "Si O2"
_cell_formula_units_Z 27
_cell_length_a 15.857454
_cell_length_b 15.857454
_cell_length_c 6.099972
_cell_angle_alpha 90.000000
_cell_angle_beta 90.000000
_cell_angle_gamma 120.000000
_cell_volume 1328.389376
_symmetry_space_group_name_H-M "P 62"
_symmetry_group_IT_number 171
_symmetry_cell_setting 'hexagonal'
loop_
_space_group_symop_operation_xyz
x,y,z
x-y,x,1/3+z
-y,x-y,2/3+z
-x,-y,z
-x+y,-x,1/3+z
y,-x+y,2/3+z
loop_
_atom_site_type_symbol
_atom_site_label
_atom_site_fract_x
_atom_site_fract_y
_atom_site_fract_z
Si Si1 0.142332 0.432961 0.140480
Si Si2 0.850310 0.693255 0.762795
Si Si3 0.500000 0.500000 0.635091
Si Si4 0.868877 0.301335 0.721074
Si Si5 0.746072 0.743839 0.092875
O O1 0.244878 0.484693 0.276354
O O2 0.082044 0.334769 0.278970
O O3 0.149347 0.394264 0.899647
O O4 0.072425 0.478345 0.114095
O O5 0.763402 0.637272 0.588209
O O6 0.948646 0.759989 0.631235
O O7 0.831197 0.757511 0.935013
O O8 0.590215 0.514100 0.483765
O O9 0.934059 0.297773 0.524637
#
# Coordination Sequence:
#
# PCOD9580439 Si02
#       5
#     6   6   3   6   6
#     4  10  22  37  61  91 127 170 241 281 334 424
#     4  10  18  36  54  90 122 159 212 297 310 412
#     4  12  20  42  68  88 130 208 214 290 380 402
#     4  10  22  37  61  91 127 170 241 281 334 424
#     4  10  18  35  58  86 126 163 212 290 322 393
#
# _framework density 20.325367
#
# number of rings (size 3 to 8) (size 9 to 14) (size 15 to 20)
#    0.000    1.778    4.444    0.000    0.000    0.889 
#    0.000    0.000    4.889    0.000    0.000    0.000 
#    0.000 1048.889    0.000    0.000    0.000    0.000 
#
# Total GULP energy -150355.148115 kJ/mol
# GULP energy per Si atom -5568.709189 kJ/mol
# Density = 2.027911 g / cm^3
# Si number density = 20.325367 Si / 1000 Ang^3
#
#
#
# Elastic Constant Matrix: (Units=GPa)
#
#
# Indices 1 2 3 4 5 6 
#
# 1 97.8718 32.6522 37.6261 0.0000 0.0000 0.0000
# 2 32.6522 97.8718 37.6261 0.0000 0.0000 0.0000
# 3 37.6261 37.6261 92.3835 0.0000 0.0000 0.0000
# 4 0.0000 0.0000 0.0000 27.4419 0.0000 0.0000
# 5 0.0000 0.0000 0.0000 0.0000 27.4419 0.0000
# 6 0.0000 0.0000 0.0000 0.0000 0.0000 32.6098
#
#
#
# Elastic Compliance Matrix: (Units=1/GPa)
#
#
# Indices 1 2 3 4 5 6 
#
# 1 0.012673 -0.002660 -0.004078 0.000000 0.000000 0.000000
# 2 -0.002660 0.012673 -0.004078 0.000000 0.000000 0.000000
# 3 -0.004078 -0.004078 0.014146 0.000000 0.000000 0.000000
# 4 0.000000 0.000000 0.000000 0.036441 0.000000 0.000000
# 5 0.000000 0.000000 0.000000 0.000000 0.036441 0.000000
# 6 0.000000 0.000000 0.000000 0.000000 0.000000 0.030666
#
#
# Mechanical properties :
#
#
# Convention : Reuss Voigt Hill
#
# Bulk Modulus (GPa) = 55.99251 55.99286 55.99269
# Shear Modulus (GPa) = 29.30429 29.51356 29.40892
#
# Velocity S-wave (km/s) = 3.80117 3.81472 3.80795
# Velocity P-wave (km/s) = 6.84639 6.85645 6.85142
#
# Compressibility (1/GPa) = 0.01785953
#
# Stress axis : x y z
#
# Youngs Moduli (GPa) = 78.91002 78.91002 70.69054
#
# Poissons Ratio (x) = 0.20991 0.28827
# Poissons Ratio (y) = 0.20991 0.28827
# Poissons Ratio (z) = 0.32179 0.32179
#
# Static dielectric constant tensor:
#      x y z
#    x 1.777230 0.000000 0.000000 
#    y 0.000000 1.777230 0.000000 
#    z 0.000000 0.000000 1.755160 
# 
# From -- ./inp_files/4131.got.cif
#   From: 2010.05.17/outbox.cif.g08.bks.cpg/sg171_3_cif.got.tgz:4131.got - 2010.05.20 11:16:09.
