data_PCOD9580467
_publ_section_title
;
Structure prediction by ZEFSAII (Michael W. Deem and Ramdas Pophale) SiO2 
 PCOD9580467
Probable space group: P 62
;
_chemical_formula_sum "Si O2"
_cell_formula_units_Z 33
_cell_length_a 11.032292
_cell_length_b 11.032292
_cell_length_c 15.466676
_cell_angle_alpha 90.000000
_cell_angle_beta 90.000000
_cell_angle_gamma 120.000000
_cell_volume 1630.268420
_symmetry_space_group_name_H-M "P 62"
_symmetry_group_IT_number 171
_symmetry_cell_setting 'hexagonal'
loop_
_space_group_symop_operation_xyz
x,y,z
x-y,x,1/3+z
-y,x-y,2/3+z
-x,-y,z
-x+y,-x,1/3+z
y,-x+y,2/3+z
loop_
_atom_site_type_symbol
_atom_site_label
_atom_site_fract_x
_atom_site_fract_y
_atom_site_fract_z
Si Si1 0.988559 0.212323 0.712650
Si Si2 0.846919 0.783758 0.560237
Si Si3 0.802959 0.600438 0.849756
Si Si4 0.733589 0.258106 0.683721
Si Si5 0.751302 0.303022 0.880876
Si Si6 0.000000 0.500000 0.244638
O O1 0.032298 0.161742 0.629058
O O2 0.126714 0.340655 0.756834
O O3 0.926337 0.106432 0.793640
O O4 0.881294 0.264030 0.688923
O O5 0.733594 0.832387 0.576498
O O6 0.760731 0.613328 0.561009
O O7 0.822774 0.471174 0.877662
O O8 0.641537 0.555018 0.856255
O O9 0.689866 0.261621 0.783064
O O10 0.744528 0.381627 0.623241
O O11 0.622265 0.114946 0.637724
#
# Coordination Sequence:
#
# PCOD9580467 Si02
#       6
#     6   6   6   6   6   3
#     4   9  20  38  61  92 128 175 220 271 326 402
#     4   9  19  34  60  89 124 165 215 269 320 397
#     4   9  20  38  60  86 131 166 218 268 330 390
#     4  10  22  37  64  92 133 173 220 275 336 393
#     4  10  19  35  60  98 126 170 212 273 329 389
#     4  10  22  44  56  90 132 166 224 278 334 392
#
# _framework density 20.242065
#
# number of rings (size 3 to 8) (size 9 to 14) (size 15 to 20)
#    1.091    1.455    0.000    1.636    0.000    5.091 
#   16.364    0.909    4.000    0.000    0.000    0.000 
#    0.000    0.000    0.000    0.000    0.000    0.000 
#
# Total GULP energy -183899.505977 kJ/mol
# GULP energy per Si atom -5572.712302 kJ/mol
# Density = 2.019599 g / cm^3
# Si number density = 20.242065 Si / 1000 Ang^3
#
#
#
# Elastic Constant Matrix: (Units=GPa)
#
#
# Indices 1 2 3 4 5 6 
#
# 1 74.3618 26.8854 42.4752 0.0000 0.0000 0.0000
# 2 26.8854 74.3618 42.4752 0.0000 0.0000 0.0000
# 3 42.4752 42.4752 123.0357 0.0000 0.0000 0.0000
# 4 0.0000 0.0000 0.0000 25.6347 0.0000 0.0000
# 5 0.0000 0.0000 0.0000 0.0000 25.6347 0.0000
# 6 0.0000 0.0000 0.0000 0.0000 0.0000 23.7382
#
#
#
# Elastic Compliance Matrix: (Units=1/GPa)
#
#
# Indices 1 2 3 4 5 6 
#
# 1 0.017484 -0.003579 -0.004800 0.000000 0.000000 0.000000
# 2 -0.003579 0.017484 -0.004800 0.000000 0.000000 0.000000
# 3 -0.004800 -0.004800 0.011442 0.000000 0.000000 0.000000
# 4 0.000000 0.000000 0.000000 0.039010 0.000000 0.000000
# 5 0.000000 0.000000 0.000000 0.000000 0.039010 0.000000
# 6 0.000000 0.000000 0.000000 0.000000 0.000000 0.042126
#
#
# Mechanical properties :
#
#
# Convention : Reuss Voigt Hill
#
# Bulk Modulus (GPa) = 49.87512 55.04786 52.46149
# Shear Modulus (GPa) = 25.05042 25.66310 25.35676
#
# Velocity S-wave (km/s) = 3.52169 3.56450 3.54316
# Velocity P-wave (km/s) = 6.42100 6.64791 6.53544
#
# Compressibility (1/GPa) = 0.02005008
#
# Stress axis : x y z
#
# Youngs Moduli (GPa) = 57.19613 57.19613 87.39740
#
# Poissons Ratio (x) = 0.20473 0.41952
# Poissons Ratio (y) = 0.20473 0.41952
# Poissons Ratio (z) = 0.27455 0.27455
#
# Static dielectric constant tensor:
#      x y z
#    x 1.719460 0.000000 0.000000 
#    y 0.000000 1.719460 0.000000 
#    z 0.000000 0.000000 1.739960 
# 
# From -- ./inp_files/4929.got.cif
#   From: 2010.05.17/outbox.cif.g08.bks.cpg/sg171_3_cif.got.tgz:4929.got - 2010.05.20 11:16:09.
