data_PCOD9580720
_publ_section_title
;
Structure prediction by ZEFSAII (Michael W. Deem and Ramdas Pophale) SiO2 
 PCOD9580720
Probable space group: P 62
;
_chemical_formula_sum "Si O2"
_cell_formula_units_Z 39
_cell_length_a 12.269983
_cell_length_b 12.269983
_cell_length_c 12.941254
_cell_angle_alpha 90.000000
_cell_angle_beta 90.000000
_cell_angle_gamma 120.000000
_cell_volume 1687.310134
_symmetry_space_group_name_H-M "P 62"
_symmetry_group_IT_number 171
_symmetry_cell_setting 'hexagonal'
loop_
_space_group_symop_operation_xyz
x,y,z
x-y,x,1/3+z
-y,x-y,2/3+z
-x,-y,z
-x+y,-x,1/3+z
y,-x+y,2/3+z
loop_
_atom_site_type_symbol
_atom_site_label
_atom_site_fract_x
_atom_site_fract_y
_atom_site_fract_z
Si Si1 0.988547 0.168764 0.680610
Si Si2 0.351814 0.286925 0.788108
Si Si3 0.500000 0.500000 0.521491
Si Si4 0.838701 0.383650 0.044573
Si Si5 0.000000 0.000000 0.505820
Si Si6 0.000000 0.500000 0.487346
Si Si7 0.270540 0.289531 0.024752
Si Si8 0.664466 0.116566 0.007859
O O1 0.075144 0.310482 0.645446
O O2 0.979585 0.089945 0.580190
O O3 0.047444 0.123295 0.769478
O O4 0.843963 0.105207 0.719218
O O5 0.506052 0.355011 0.784463
O O6 0.341993 0.398396 0.730786
O O7 0.299156 0.152336 0.727824
O O8 0.301357 0.292317 0.902389
O O9 0.560978 0.440264 0.595735
O O10 0.584292 0.603811 0.437572
O O11 0.711137 0.254571 0.049780
O O12 0.977225 0.383943 0.416655
O O13 0.895470 0.480025 0.572764
#
# Coordination Sequence:
#
# PCOD9580720 Si02
#       8
#     6   6   3   6   3   3   6   6
#     4  11  25  41  70 105 146 184 232 304 381 453
#     4  10  25  46  76 108 145 198 254 326 381 476
#     4   9  24  43  64 104 134 191 240 293 386 442
#     4  10  25  46  69 107 137 198 253 307 393 449
#     4  10  24  40  62 112 136 186 224 270 388 454
#     4  11  26  47  66 108 144 197 246 317 388 472
#     4  12  25  49  73 111 152 188 262 318 403 463
#     4  11  25  45  72  99 149 191 251 315 385 468
#
# _framework density 23.113712
#
# number of rings (size 3 to 8) (size 9 to 14) (size 15 to 20)
#    0.000    1.538    0.000    3.692   15.077    1.231 
#    8.308    0.000    0.000    0.000    0.000    0.000 
#    0.000    0.000    0.000    0.000    0.000    0.000 
#
# Total GULP energy -217163.933713 kJ/mol
# GULP energy per Si atom -5568.305993 kJ/mol
# Density = 2.306110 g / cm^3
# Si number density = 23.113712 Si / 1000 Ang^3
#
#
#
# Elastic Constant Matrix: (Units=GPa)
#
#
# Indices 1 2 3 4 5 6 
#
# 1 73.8293 35.8130 39.9564 0.0000 0.0000 0.0000
# 2 35.8130 73.8293 39.9564 0.0000 0.0000 0.0000
# 3 39.9564 39.9564 154.4710 0.0000 0.0000 0.0000
# 4 0.0000 0.0000 0.0000 25.3430 0.0000 0.0000
# 5 0.0000 0.0000 0.0000 0.0000 25.3430 0.0000
# 6 0.0000 0.0000 0.0000 0.0000 0.0000 19.0082
#
#
#
# Elastic Compliance Matrix: (Units=1/GPa)
#
#
# Indices 1 2 3 4 5 6 
#
# 1 0.018772 -0.007532 -0.002907 0.000000 0.000000 0.000000
# 2 -0.007532 0.018772 -0.002907 0.000000 0.000000 0.000000
# 3 -0.002907 -0.002907 0.007978 0.000000 0.000000 0.000000
# 4 0.000000 0.000000 0.000000 0.039459 0.000000 0.000000
# 5 0.000000 0.000000 0.000000 0.000000 0.039459 0.000000
# 6 0.000000 0.000000 0.000000 0.000000 0.000000 0.052609
#
#
# Mechanical properties :
#
#
# Convention : Reuss Voigt Hill
#
# Bulk Modulus (GPa) = 53.11330 59.28681 56.20005
# Shear Modulus (GPa) = 23.80750 26.36576 25.08663
#
# Velocity S-wave (km/s) = 3.21287 3.38109 3.29805
# Velocity P-wave (km/s) = 6.06567 6.39907 6.23460
#
# Compressibility (1/GPa) = 0.01882768
#
# Stress axis : x y z
#
# Youngs Moduli (GPa) = 53.27080 53.27080 125.34874
#
# Poissons Ratio (x) = 0.40126 0.36443
# Poissons Ratio (y) = 0.40126 0.36443
# Poissons Ratio (z) = 0.15487 0.15487
#
# Static dielectric constant tensor:
#      x y z
#    x 1.998770 0.000000 0.000000 
#    y 0.000000 1.998770 0.000000 
#    z 0.000000 0.000000 1.874030 
# 
# From -- ./inp_files/2041.got.cif
#   From: 2010.05.17/outbox.cif.g08.bks.cpg/sg171_2_cif.got.tgz:2041.got - 2010.05.20 11:16:09.
