data_PCOD9580695
_publ_section_title
;
Structure prediction by ZEFSAII (Michael W. Deem and Ramdas Pophale) SiO2 
 PCOD9580695
Probable space group: P 62
;
_chemical_formula_sum "Si O2"
_cell_formula_units_Z 36
_cell_length_a 9.245339
_cell_length_b 9.245339
_cell_length_c 25.712477
_cell_angle_alpha 90.000000
_cell_angle_beta 90.000000
_cell_angle_gamma 120.000000
_cell_volume 1903.356888
_symmetry_space_group_name_H-M "P 62"
_symmetry_group_IT_number 171
_symmetry_cell_setting 'hexagonal'
loop_
_space_group_symop_operation_xyz
x,y,z
x-y,x,1/3+z
-y,x-y,2/3+z
-x,-y,z
-x+y,-x,1/3+z
y,-x+y,2/3+z
loop_
_atom_site_type_symbol
_atom_site_label
_atom_site_fract_x
_atom_site_fract_y
_atom_site_fract_z
Si Si1 0.916480 0.616402 0.493930
Si Si2 0.025871 0.339071 0.612238
Si Si3 0.685618 0.567950 0.698067
Si Si4 0.904907 0.104349 0.407093
Si Si5 0.068957 0.373990 0.326219
Si Si6 0.809253 0.353336 0.747093
O O1 0.913742 0.659856 0.553808
O O2 0.732648 0.512436 0.469403
O O3 0.000000 0.500000 0.490265
O O4 0.022017 0.775949 0.456803
O O5 0.166027 0.363280 0.654699
O O6 0.000000 0.500000 0.617989
O O7 0.844080 0.172451 0.618856
O O8 0.500000 0.500000 0.676157
O O9 0.732933 0.710368 0.740904
O O10 0.690458 0.422854 0.730291
O O11 0.926940 0.209562 0.354367
O O12 0.000000 0.000000 0.401326
O O13 0.205103 0.448367 0.372569
O O14 0.000000 0.500000 0.312320
O O15 0.000000 0.500000 0.741516
#
# Coordination Sequence:
#
# PCOD9580695 Si02
#       6
#     6   6   6   6   6   6
#     4  10  23  41  61  85 125 168 207 250 317 384
#     4  11  22  42  61  90 128 166 213 269 316 386
#     4  12  21  35  63  94 122 152 212 266 312 377
#     4  11  21  38  60  91 121 155 202 262 309 377
#     4  11  20  38  65  88 117 167 213 248 315 389
#     4  11  19  39  66  89 118 165 214 248 304 392
#
# _framework density 18.91395
#
# number of rings (size 3 to 8) (size 9 to 14) (size 15 to 20)
#    0.000    1.000    5.000    5.000    0.000    0.667 
#    3.000    4.167    0.000    0.000    0.000    0.000 
#    0.000    0.000    0.000    0.000    0.000    0.000 
#
# Total GULP energy -200763.429501 kJ/mol
# GULP energy per Si atom -5576.761931 kJ/mol
# Density = 1.887090 g / cm^3
# Si number density = 18.913950 Si / 1000 Ang^3
#
#
#
# Elastic Constant Matrix: (Units=GPa)
#
#
# Indices 1 2 3 4 5 6 
#
# 1 85.6350 8.5772 37.3377 0.0000 0.0000 0.0000
# 2 8.5772 85.6350 37.3377 0.0000 0.0000 0.0000
# 3 37.3377 37.3377 114.4542 0.0000 0.0000 0.0000
# 4 0.0000 0.0000 0.0000 26.1020 0.0000 0.0000
# 5 0.0000 0.0000 0.0000 0.0000 26.1020 0.0000
# 6 0.0000 0.0000 0.0000 0.0000 0.0000 38.5289
#
#
#
# Elastic Compliance Matrix: (Units=1/GPa)
#
#
# Indices 1 2 3 4 5 6 
#
# 1 0.013647 0.000669 -0.004670 0.000000 0.000000 0.000000
# 2 0.000669 0.013647 -0.004670 0.000000 0.000000 0.000000
# 3 -0.004670 -0.004670 0.011784 0.000000 0.000000 0.000000
# 4 0.000000 0.000000 0.000000 0.038311 0.000000 0.000000
# 5 0.000000 0.000000 0.000000 0.000000 0.038311 0.000000
# 6 0.000000 0.000000 0.000000 0.000000 0.000000 0.025955
#
#
# Mechanical properties :
#
#
# Convention : Reuss Voigt Hill
#
# Bulk Modulus (GPa) = 46.00787 50.24773 48.12780
# Shear Modulus (GPa) = 30.07666 31.64470 30.86068
#
# Velocity S-wave (km/s) = 3.99204 4.09478 4.04373
# Velocity P-wave (km/s) = 6.75471 6.99860 6.87774
#
# Compressibility (1/GPa) = 0.02173541
#
# Stress axis : x y z
#
# Youngs Moduli (GPa) = 73.27780 73.27780 84.85918
#
# Poissons Ratio (x) = -0.04905 0.39631
# Poissons Ratio (y) = -0.04905 0.39631
# Poissons Ratio (z) = 0.34223 0.34223
#
# Static dielectric constant tensor:
#      x y z
#    x 1.701240 0.000000 0.000000 
#    y 0.000000 1.701240 0.000000 
#    z 0.000000 0.000000 1.645770 
# 
# From -- ./inp_files/5752.got.cif
#   From: 2010.05.17/outbox.cif.g08.bks.cpg/sg171_3_cif.got.tgz:5752.got - 2010.05.20 11:16:09.
