data_PCOD9580149
_publ_section_title
;
Structure prediction by ZEFSAII (Michael W. Deem and Ramdas Pophale) SiO2 
 PCOD9580149
Probable space group: P 61
;
_chemical_formula_sum "Si O2"
_cell_formula_units_Z 24
_cell_length_a 13.755647
_cell_length_b 13.755647
_cell_length_c 6.681515
_cell_angle_alpha 90.000000
_cell_angle_beta 90.000000
_cell_angle_gamma 120.000000
_cell_volume 1094.882777
_symmetry_space_group_name_H-M "P 61"
_symmetry_group_IT_number 169
_symmetry_cell_setting 'hexagonal'
loop_
_space_group_symop_operation_xyz
x,y,z
x-y,x,1/6+z
-y,x-y,1/3+z
-x,-y,1/2+z
-x+y,-x,2/3+z
y,-x+y,5/6+z
loop_
_atom_site_type_symbol
_atom_site_label
_atom_site_fract_x
_atom_site_fract_y
_atom_site_fract_z
Si Si1 0.939776 0.339991 0.692000
Si Si2 0.173317 0.392359 0.866643
Si Si3 0.594814 0.361074 0.982540
Si Si4 0.925513 0.164464 0.378608
O O1 0.856970 0.254109 0.858732
O O2 0.891218 0.423532 0.662034
O O3 0.928889 0.268712 0.494241
O O4 0.142828 0.285163 0.005015
O O5 0.231624 0.498515 0.013166
O O6 0.065196 0.390349 0.771814
O O7 0.710890 0.401156 0.862110
O O8 0.052088 0.194379 0.340537
#
# Coordination Sequence:
#
# PCOD9580149 Si02
#       4
#     6   6   6   6
#     4  12  26  44  72 104 138 178 228 282 340 402
#     4  12  26  44  72 104 138 178 228 282 340 402
#     4  12  26  44  72 104 138 178 228 282 340 402
#     4  12  26  44  72 104 138 178 228 282 340 402
#
# _framework density 21.920155000000001
#
# number of rings (size 3 to 8) (size 9 to 14) (size 15 to 20)
#    0.000    0.000   10.000    0.000    0.000    8.000 
#    0.000    0.000    0.000    0.000    0.000    0.000 
#    0.000    0.000    0.000    0.000    0.000    0.000 
#
# Total GULP energy -134387.408323 kJ/mol
# GULP energy per Si atom -5599.475347 kJ/mol
# Density = 2.187026 g / cm^3
# Si number density = 21.920155 Si / 1000 Ang^3
#
#
#
# Elastic Constant Matrix: (Units=GPa)
#
#
# Indices 1 2 3 4 5 6 
#
# 1 34.1699 -20.6605 -8.6473 0.0000 0.0000 0.0000
# 2 -20.6605 34.1699 -8.6473 0.0000 0.0000 0.0000
# 3 -8.6473 -8.6473 57.9827 0.0000 0.0000 0.0000
# 4 0.0000 0.0000 0.0000 42.4051 0.0000 0.0000
# 5 0.0000 0.0000 0.0000 0.0000 42.4051 0.0000
# 6 0.0000 0.0000 0.0000 0.0000 0.0000 27.4152
#
#
#
# Elastic Compliance Matrix: (Units=1/GPa)
#
#
# Indices 1 2 3 4 5 6 
#
# 1 0.054864 0.036626 0.013644 0.000000 0.000000 0.000000
# 2 0.036626 0.054864 0.013644 0.000000 0.000000 0.000000
# 3 0.013644 0.013644 0.021316 0.000000 0.000000 0.000000
# 4 0.000000 0.000000 0.000000 0.023582 0.000000 0.000000
# 5 0.000000 0.000000 0.000000 0.000000 0.023582 0.000000
# 6 0.000000 0.000000 0.000000 0.000000 0.000000 0.036476
#
#
# Mechanical properties :
#
#
# Convention : Reuss Voigt Hill
#
# Bulk Modulus (GPa) = 3.86291 5.60139 4.73215
# Shear Modulus (GPa) = 28.87737 33.39694 31.13715
#
# Velocity S-wave (km/s) = 3.63352 3.90753 3.77302
# Velocity P-wave (km/s) = 4.40107 4.78741 4.59830
#
# Compressibility (1/GPa) = 0.25887219
#
# Stress axis : x y z
#
# Youngs Moduli (GPa) = 18.22699 18.22699 46.91261
#
# Poissons Ratio (x) = -0.66758 -0.64009
# Poissons Ratio (y) = -0.66758 -0.64009
# Poissons Ratio (z) = -0.24869 -0.24869
#
# Static dielectric constant tensor:
#      x y z
#    x 1.786260 0.000000 0.000000 
#    y 0.000000 1.786260 0.000000 
#    z 0.000000 0.000000 1.782840 
# 
# From -- ./inp_files/98.got.cif
#   From: 2010.05.17/outbox.cif.g08.bks.cpg/sg169_cif.got.tgz:98.got - 2010.05.20 11:12:54.
