data_PCOD9580630
_publ_section_title
;
Structure prediction by ZEFSAII (Michael W. Deem and Ramdas Pophale) SiO2 
 PCOD9580630
Probable space group: P 62
;
_chemical_formula_sum "Si O2"
_cell_formula_units_Z 42
_cell_length_a 16.906090
_cell_length_b 16.906090
_cell_length_c 8.999672
_cell_angle_alpha 90.000000
_cell_angle_beta 90.000000
_cell_angle_gamma 120.000000
_cell_volume 2227.633121
_symmetry_space_group_name_H-M "P 62"
_symmetry_group_IT_number 171
_symmetry_cell_setting 'hexagonal'
loop_
_space_group_symop_operation_xyz
x,y,z
x-y,x,1/3+z
-y,x-y,2/3+z
-x,-y,z
-x+y,-x,1/3+z
y,-x+y,2/3+z
loop_
_atom_site_type_symbol
_atom_site_label
_atom_site_fract_x
_atom_site_fract_y
_atom_site_fract_z
Si Si1 0.507562 0.691643 0.863790
Si Si2 0.085990 0.746314 0.160160
Si Si3 0.342807 0.539839 0.696300
Si Si4 0.372458 0.593081 0.362378
Si Si5 0.090997 0.336958 0.961623
Si Si6 0.601543 0.048301 0.048279
Si Si7 0.601903 0.016144 0.729263
O O1 0.438686 0.595429 0.782485
O O2 0.586622 0.746241 0.744655
O O3 0.456611 0.745095 0.917696
O O4 0.550751 0.669540 0.005417
O O5 0.154139 0.717923 0.080950
O O6 0.147112 0.849439 0.219436
O O7 0.044331 0.672941 0.293661
O O8 0.002369 0.727568 0.050978
O O9 0.351879 0.541716 0.519183
O O10 0.298006 0.602199 0.731189
O O11 0.469078 0.607818 0.309452
O O12 0.067559 0.390570 0.835992
O O13 0.500000 0.000000 0.116080
O O14 0.608207 0.997126 0.903083
O O15 0.500000 0.000000 0.705782
#
# Coordination Sequence:
#
# PCOD9580630 Si02
#       7
#     6   6   6   6   6   6   6
#     4  11  23  35  56  86 122 178 228 268 309 367
#     4  11  24  43  61  88 121 173 216 271 342 390
#     4  12  20  34  57  81 125 169 230 264 309 364
#     4  12  23  33  56  89 122 176 225 268 297 373
#     4  11  25  43  65  87 127 172 224 274 341 390
#     4  11  23  38  58  90 125 174 213 264 316 378
#     4  10  22  37  58  82 126 167 218 268 315 368
#
# _framework density 18.854091
#
# number of rings (size 3 to 8) (size 9 to 14) (size 15 to 20)
#    0.000    0.857    5.714    1.714    4.000    0.000 
#    0.000    0.000    0.000    0.000    0.000    0.000 
#    0.000    5.714    0.000    0.000    0.000    0.000 
#
# Total GULP energy -234491.589679 kJ/mol
# GULP energy per Si atom -5583.133088 kJ/mol
# Density = 1.881118 g / cm^3
# Si number density = 18.854091 Si / 1000 Ang^3
#
#
#
# Elastic Constant Matrix: (Units=GPa)
#
#
# Indices 1 2 3 4 5 6 
#
# 1 87.3560 35.2623 44.9946 0.0000 0.0000 0.0000
# 2 35.2623 87.3560 44.9946 0.0000 0.0000 0.0000
# 3 44.9946 44.9946 106.6236 0.0000 0.0000 0.0000
# 4 0.0000 0.0000 0.0000 19.1999 0.0000 0.0000
# 5 0.0000 0.0000 0.0000 0.0000 19.1999 0.0000
# 6 0.0000 0.0000 0.0000 0.0000 0.0000 26.0469
#
#
#
# Elastic Compliance Matrix: (Units=1/GPa)
#
#
# Indices 1 2 3 4 5 6 
#
# 1 0.015505 -0.003691 -0.004986 0.000000 0.000000 0.000000
# 2 -0.003691 0.015505 -0.004986 0.000000 0.000000 0.000000
# 3 -0.004986 -0.004986 0.013587 0.000000 0.000000 0.000000
# 4 0.000000 0.000000 0.000000 0.052084 0.000000 0.000000
# 5 0.000000 0.000000 0.000000 0.000000 0.052084 0.000000
# 6 0.000000 0.000000 0.000000 0.000000 0.000000 0.038392
#
#
# Mechanical properties :
#
#
# Convention : Reuss Voigt Hill
#
# Bulk Modulus (GPa) = 57.89433 59.09319 58.49376
# Shear Modulus (GPa) = 22.70268 23.29495 22.99881
#
# Velocity S-wave (km/s) = 3.47381 3.51884 3.49640
# Velocity P-wave (km/s) = 6.84566 6.92243 6.88415
#
# Compressibility (1/GPa) = 0.01727285
#
# Stress axis : x y z
#
# Youngs Moduli (GPa) = 64.49442 64.49442 73.60220
#
# Poissons Ratio (x) = 0.23805 0.36695
# Poissons Ratio (y) = 0.23805 0.36695
# Poissons Ratio (z) = 0.32154 0.32154
#
# Static dielectric constant tensor:
#      x y z
#    x 1.733610 0.000000 0.000000 
#    y 0.000000 1.733610 0.000000 
#    z 0.000000 0.000000 1.694500 
# 
# From -- ./inp_files/4433.got.cif
#   From: 2010.05.17/outbox.cif.g08.bks.cpg/sg171_3_cif.got.tgz:4433.got - 2010.05.20 11:16:09.
