data_PCOD9580133
_publ_section_title
;
Structure prediction by ZEFSAII (Michael W. Deem and Ramdas Pophale) SiO2 
 PCOD9580133
Probable space group: P 61
;
_chemical_formula_sum "Si O2"
_cell_formula_units_Z 48
_cell_length_a 15.483619
_cell_length_b 15.483619
_cell_length_c 11.828680
_cell_angle_alpha 90.000000
_cell_angle_beta 90.000000
_cell_angle_gamma 120.000000
_cell_volume 2455.906719
_symmetry_space_group_name_H-M "P 61"
_symmetry_group_IT_number 169
_symmetry_cell_setting 'hexagonal'
loop_
_space_group_symop_operation_xyz
x,y,z
x-y,x,1/6+z
-y,x-y,1/3+z
-x,-y,1/2+z
-x+y,-x,2/3+z
y,-x+y,5/6+z
loop_
_atom_site_type_symbol
_atom_site_label
_atom_site_fract_x
_atom_site_fract_y
_atom_site_fract_z
Si Si1 0.929400 0.373307 0.293860
Si Si2 0.828638 0.209918 0.104126
Si Si3 0.403841 0.443045 0.553796
Si Si4 0.239806 0.578394 0.824387
Si Si5 0.727088 0.712653 0.235564
Si Si6 0.055673 0.364903 0.499459
Si Si7 0.180920 0.097418 0.400751
Si Si8 0.264439 0.539299 0.564909
O O1 0.884043 0.280755 0.208900
O O2 0.838611 0.384559 0.344480
O O3 0.996007 0.478339 0.229091
O O4 0.994236 0.360472 0.389706
O O5 0.734388 0.222024 0.071224
O O6 0.788788 0.093027 0.120451
O O7 0.903431 0.246766 0.997724
O O8 0.365099 0.366813 0.659555
O O9 0.375448 0.376704 0.441478
O O10 0.342002 0.500030 0.561688
O O11 0.232274 0.543537 0.694105
O O12 0.351749 0.665268 0.845654
O O13 0.821601 0.768256 0.152196
O O14 0.068986 0.269293 0.516441
O O15 0.164952 0.462255 0.498961
O O16 0.109510 0.124104 0.472383
#
# Coordination Sequence:
#
# PCOD9580133 Si02
#       8
#     6   6   6   6   6   6   6   6
#     4  12  29  44  68 106 150 192 235 303 370 430
#     4  12  25  46  71 102 145 185 243 301 364 426
#     4  12  23  43  75  99 135 195 244 289 356 436
#     4  12  23  43  65 103 142 186 241 291 349 433
#     4  12  22  44  79 102 131 187 249 298 351 438
#     4  12  24  47  69 104 146 187 241 302 370 436
#     4  12  24  50  78 108 136 185 253 312 370 445
#     4  12  24  41  71 100 137 187 244 294 344 438
#
# _framework density 19.544715
#
# number of rings (size 3 to 8) (size 9 to 14) (size 15 to 20)
#    0.000    0.000    8.750    0.750    3.500    1.000 
#    9.000    0.000    0.000    0.000    0.000    0.000 
#    0.000    0.000    0.000    0.000    0.000    0.000 
#
# Total GULP energy -268727.520316 kJ/mol
# GULP energy per Si atom -5598.490007 kJ/mol
# Density = 1.950023 g / cm^3
# Si number density = 19.544715 Si / 1000 Ang^3
#
#
#
# Elastic Constant Matrix: (Units=GPa)
#
#
# Indices 1 2 3 4 5 6 
#
# 1 121.7156 71.0494 40.0690 0.0000 0.0000 0.0000
# 2 71.0494 121.7156 40.0690 0.0000 0.0000 0.0000
# 3 40.0690 40.0690 43.5688 0.0000 0.0000 0.0000
# 4 0.0000 0.0000 0.0000 28.0817 0.0000 0.0000
# 5 0.0000 0.0000 0.0000 0.0000 28.0817 0.0000
# 6 0.0000 0.0000 0.0000 0.0000 0.0000 25.3331
#
#
#
# Elastic Compliance Matrix: (Units=1/GPa)
#
#
# Indices 1 2 3 4 5 6 
#
# 1 0.014068 -0.005669 -0.007724 0.000000 0.000000 0.000000
# 2 -0.005669 0.014068 -0.007724 0.000000 0.000000 0.000000
# 3 -0.007724 -0.007724 0.037160 0.000000 0.000000 0.000000
# 4 0.000000 0.000000 0.000000 0.035610 0.000000 0.000000
# 5 0.000000 0.000000 0.000000 0.000000 0.035610 0.000000
# 6 0.000000 0.000000 0.000000 0.000000 0.000000 0.039474
#
#
# Mechanical properties :
#
#
# Convention : Reuss Voigt Hill
#
# Bulk Modulus (GPa) = 43.36400 65.48609 54.42505
# Shear Modulus (GPa) = 22.13252 25.35348 23.74300
#
# Velocity S-wave (km/s) = 3.36877 3.60558 3.48919
# Velocity P-wave (km/s) = 6.11283 7.13527 6.64375
#
# Compressibility (1/GPa) = 0.02306060
#
# Stress axis : x y z
#
# Youngs Moduli (GPa) = 71.08376 71.08376 26.91091
#
# Poissons Ratio (x) = 0.40298 0.20786
# Poissons Ratio (y) = 0.40298 0.20786
# Poissons Ratio (z) = 0.54906 0.54906
#
# Static dielectric constant tensor:
#      x y z
#    x 1.673510 0.000000 0.000000 
#    y 0.000000 1.673510 0.000000 
#    z 0.000000 0.000000 1.663540 
# 
# From -- ./inp_files/1028.got.cif
#   From: 2010.05.17/outbox.cif.g08.bks.cpg/sg169_cif.got.tgz:1028.got - 2010.05.20 11:12:54.
