data_PCOD9580791
_publ_section_title
;
Structure prediction by ZEFSAII (Michael W. Deem and Ramdas Pophale) SiO2 
 PCOD9580791
Probable space group: P 62
;
_chemical_formula_sum "Si O2"
_cell_formula_units_Z 42
_cell_length_a 17.530287
_cell_length_b 17.530287
_cell_length_c 5.855909
_cell_angle_alpha 90.000000
_cell_angle_beta 90.000000
_cell_angle_gamma 120.000000
_cell_volume 1558.486352
_symmetry_space_group_name_H-M "P 62"
_symmetry_group_IT_number 171
_symmetry_cell_setting 'hexagonal'
loop_
_space_group_symop_operation_xyz
x,y,z
x-y,x,1/3+z
-y,x-y,2/3+z
-x,-y,z
-x+y,-x,1/3+z
y,-x+y,2/3+z
loop_
_atom_site_type_symbol
_atom_site_label
_atom_site_fract_x
_atom_site_fract_y
_atom_site_fract_z
Si Si1 0.116157 0.812380 0.431310
Si Si2 0.844459 0.904384 0.463145
Si Si3 0.236138 0.930732 0.836885
Si Si4 0.774916 0.505220 0.988599
Si Si5 0.290981 0.782684 0.837324
Si Si6 0.590823 0.497128 0.191473
Si Si7 0.901185 0.419194 0.020648
O O1 0.069246 0.857029 0.292620
O O2 0.160695 0.875649 0.648276
O O3 0.200498 0.811190 0.324083
O O4 0.030491 0.715209 0.460849
O O5 0.913495 0.889333 0.601063
O O6 0.764368 0.813379 0.370035
O O7 0.271002 0.862828 0.870595
O O8 0.741374 0.481912 0.252253
O O9 0.844681 0.469598 0.995257
O O10 0.727721 0.467953 0.740979
O O11 0.394927 0.831661 0.842197
O O12 0.500000 0.500000 0.195613
O O13 0.630462 0.527416 0.448701
O O14 0.627156 0.521583 0.931267
O O15 0.000000 0.500000 0.026299
#
# Coordination Sequence:
#
# PCOD9580791 Si02
#       7
#     6   6   6   6   6   6   6
#     4  11  21  34  49  65  82 104 140 192 242 308
#     4  12  24  40  57  64  77 100 140 198 270 330
#     4  11  21  34  49  65  82 104 140 192 242 308
#     4   9  17  28  44  64  85 108 138 174 207 261
#     4   9  17  28  44  64  85 108 138 174 207 261
#     4   8  13  22  37  59  86 112 134 160 185 225
#     4   8  13  22  37  59  86 112 134 160 185 225
#
# _framework density 26.949225999999999
#
# number of rings (size 3 to 8) (size 9 to 14) (size 15 to 20)
#    0.000    2.286    4.286    0.000    0.000    0.000 
#    0.000    3.571    0.000    0.000    0.000    0.000 
#    0.000    0.000    0.000    0.000    0.000    0.000 
#
# Total GULP energy -234277.622246 kJ/mol
# GULP energy per Si atom -5578.038625 kJ/mol
# Density = 2.688789 g / cm^3
# Si number density = 26.949226 Si / 1000 Ang^3
#
#
#
# Elastic Constant Matrix: (Units=GPa)
#
#
# Indices 1 2 3 4 5 6 
#
# 1 89.3660 83.4194 40.7923 0.0000 0.0000 0.0000
# 2 83.4194 89.3660 40.7923 0.0000 0.0000 0.0000
# 3 40.7923 40.7923 230.8381 0.0000 0.0000 0.0000
# 4 0.0000 0.0000 0.0000 278.2431 0.0000 0.0000
# 5 0.0000 0.0000 0.0000 0.0000 278.2431 0.0000
# 6 0.0000 0.0000 0.0000 0.0000 0.0000 2.9733
#
#
#
# Elastic Compliance Matrix: (Units=1/GPa)
#
#
# Indices 1 2 3 4 5 6 
#
# 1 0.087238 -0.080924 -0.001116 0.000000 0.000000 0.000000
# 2 -0.080924 0.087238 -0.001116 0.000000 0.000000 0.000000
# 3 -0.001116 -0.001116 0.004726 0.000000 0.000000 0.000000
# 4 0.000000 0.000000 0.000000 0.003594 0.000000 0.000000
# 5 0.000000 0.000000 0.000000 0.000000 0.003594 0.000000
# 6 0.000000 0.000000 0.000000 0.000000 0.000000 0.336325
#
#
# Mechanical properties :
#
#
# Convention : Reuss Voigt Hill
#
# Bulk Modulus (GPa) = 77.56848 82.17536 79.87192
# Shear Modulus (GPa) = 7.21163 128.19632 67.70397
#
# Velocity S-wave (km/s) = 1.63762 6.90455 5.01770
# Velocity P-wave (km/s) = 5.69398 9.70168 7.95437
#
# Compressibility (1/GPa) = 0.01289183
#
# Stress axis : x y z
#
# Youngs Moduli (GPa) = 11.46284 11.46284 211.57710
#
# Poissons Ratio (x) = 0.92762 0.23609
# Poissons Ratio (y) = 0.92762 0.23609
# Poissons Ratio (z) = 0.01279 0.01279
#
# Static dielectric constant tensor:
#      x y z
#    x 2.162710 0.000000 0.000000 
#    y 0.000000 2.162710 0.000000 
#    z 0.000000 0.000000 2.249150 
# 
# From -- ./inp_files/4244.got.cif
#   From: 2010.05.17/outbox.cif.g08.bks.cpg/sg171_3_cif.got.tgz:4244.got - 2010.05.20 11:16:09.
