data_PCOD9580863
_publ_section_title
;
Structure prediction by ZEFSAII (Michael W. Deem and Ramdas Pophale) SiO2 
 PCOD9580863
Probable space group: P 62
;
_chemical_formula_sum "Si O2"
_cell_formula_units_Z 18
_cell_length_a 4.963627
_cell_length_b 4.963627
_cell_length_c 35.448592
_cell_angle_alpha 90.000000
_cell_angle_beta 90.000000
_cell_angle_gamma 120.000000
_cell_volume 756.358859
_symmetry_space_group_name_H-M "P 62"
_symmetry_group_IT_number 171
_symmetry_cell_setting 'hexagonal'
loop_
_space_group_symop_operation_xyz
x,y,z
x-y,x,1/3+z
-y,x-y,2/3+z
-x,-y,z
-x+y,-x,1/3+z
y,-x+y,2/3+z
loop_
_atom_site_type_symbol
_atom_site_label
_atom_site_fract_x
_atom_site_fract_y
_atom_site_fract_z
Si Si1 0.000000 0.500000 0.281070
Si Si2 0.500000 0.500000 0.558072
Si Si3 0.000000 0.000000 0.834146
Si Si4 0.000000 0.500000 0.443553
Si Si5 0.500000 0.500000 0.334146
Si Si6 0.500000 0.000000 0.387221
O O1 0.804856 0.594178 0.308917
O O2 0.279021 0.727686 0.253364
O O3 0.257968 0.240391 0.529534
O O4 0.742031 0.982420 0.805425
O O5 0.272315 0.720978 0.414928
O O6 0.594178 0.804856 0.359375
#
# Coordination Sequence:
#
# PCOD9580863 Si02
#       6
#     3   3   3   3   3   3
#     4  12  27  47  74 108 150 200 252 314 378 452
#     4  12  25  45  72 106 147 193 248 307 375 448
#     4  12  24  44  72 106 148 196 248 310 376 450
#     4  12  25  45  72 106 147 193 248 307 375 448
#     4  12  28  50  76 110 154 200 256 314 382 452
#     4  12  27  47  74 108 150 200 252 314 378 452
#
# _framework density 23.798228999999999
#
# number of rings (size 3 to 8) (size 9 to 14) (size 15 to 20)
#    0.000    0.000    0.000   10.000    0.000    9.333 
#    0.000    0.000    0.000    0.000    0.000    0.000 
#    0.000    0.000    0.000    0.000    0.000    0.000 
#
# Total GULP energy -100345.733119 kJ/mol
# GULP energy per Si atom -5574.762951 kJ/mol
# Density = 2.374406 g / cm^3
# Si number density = 23.798229 Si / 1000 Ang^3
#
#
#
# Elastic Constant Matrix: (Units=GPa)
#
#
# Indices 1 2 3 4 5 6 
#
# 1 192.7539 84.1241 117.8029 0.0000 0.0000 0.0000
# 2 84.1241 192.7539 117.8029 0.0000 0.0000 0.0000
# 3 117.8029 117.8029 252.6023 0.0000 0.0000 0.0000
# 4 0.0000 0.0000 0.0000 29.5577 0.0000 0.0000
# 5 0.0000 0.0000 0.0000 0.0000 29.5577 0.0000
# 6 0.0000 0.0000 0.0000 0.0000 0.0000 54.3149
#
#
#
# Elastic Compliance Matrix: (Units=1/GPa)
#
#
# Indices 1 2 3 4 5 6 
#
# 1 0.007597 -0.001609 -0.002793 0.000000 0.000000 0.000000
# 2 -0.001609 0.007597 -0.002793 0.000000 0.000000 0.000000
# 3 -0.002793 -0.002793 0.006563 0.000000 0.000000 0.000000
# 4 0.000000 0.000000 0.000000 0.033832 0.000000 0.000000
# 5 0.000000 0.000000 0.000000 0.000000 0.033832 0.000000
# 6 0.000000 0.000000 0.000000 0.000000 0.000000 0.018411
#
#
# Mechanical properties :
#
#
# Convention : Reuss Voigt Hill
#
# Bulk Modulus (GPa) = 135.69925 141.95218 138.82571
# Shear Modulus (GPa) = 40.10377 43.91140 42.00759
#
# Velocity S-wave (km/s) = 4.10952 4.30019 4.20593
# Velocity P-wave (km/s) = 8.92536 9.18875 9.05801
#
# Compressibility (1/GPa) = 0.00736924
#
# Stress axis : x y z
#
# Youngs Moduli (GPa) = 131.63484 131.63484 152.35944
#
# Poissons Ratio (x) = 0.21177 0.42547
# Poissons Ratio (y) = 0.21177 0.42547
# Poissons Ratio (z) = 0.36759 0.36759
#
# Static dielectric constant tensor:
#      x y z
#    x 1.904620 0.000000 0.000000 
#    y 0.000000 1.904620 0.000000 
#    z 0.000000 0.000000 1.934600 
# 
# From -- ./inp_files/5538.got.cif
#   From: 2010.05.17/outbox.cif.g08.bks.cpg/sg171_3_cif.got.tgz:5538.got - 2010.05.20 11:16:09.
