data_PCOD9580494
_publ_section_title
;
Structure prediction by ZEFSAII (Michael W. Deem and Ramdas Pophale) SiO2 
 PCOD9580494
Probable space group: P 62
;
_chemical_formula_sum "Si O2"
_cell_formula_units_Z 30
_cell_length_a 13.708325
_cell_length_b 13.708325
_cell_length_c 7.300720
_cell_angle_alpha 90.000000
_cell_angle_beta 90.000000
_cell_angle_gamma 120.000000
_cell_volume 1188.133137
_symmetry_space_group_name_H-M "P 62"
_symmetry_group_IT_number 171
_symmetry_cell_setting 'hexagonal'
loop_
_space_group_symop_operation_xyz
x,y,z
x-y,x,1/3+z
-y,x-y,2/3+z
-x,-y,z
-x+y,-x,1/3+z
y,-x+y,2/3+z
loop_
_atom_site_type_symbol
_atom_site_label
_atom_site_fract_x
_atom_site_fract_y
_atom_site_fract_z
Si Si1 0.083520 0.754197 0.033960
Si Si2 0.542266 0.904740 0.715284
Si Si3 0.885394 0.016886 0.923510
Si Si4 0.686197 0.040664 0.013446
Si Si5 0.660887 0.260755 0.496602
O O1 0.064433 0.704621 0.234397
O O2 0.018462 0.774208 0.607031
O O3 0.055695 0.854839 0.004749
O O4 0.012716 0.659975 0.881518
O O5 0.593208 0.005086 0.861053
O O6 0.503297 0.789003 0.831537
O O7 0.432245 0.858821 0.579698
O O8 0.928341 0.033137 0.717983
O O9 0.779548 0.172634 0.014255
O O10 0.652213 0.295110 0.289659
#
# Coordination Sequence:
#
# PCOD9580494 Si02
#       5
#     6   6   6   6   6
#     4   9  19  35  59  87 116 154 193 236 285 341
#     4  10  20  34  66  85 113 150 200 232 292 352
#     4   8  16  36  60  89 119 164 200 242 275 334
#     4   9  19  35  59  87 116 154 193 236 285 341
#     4   8  20  36  60  91 108 148 196 235 288 360
#
# _framework density 25.249696
#
# number of rings (size 3 to 8) (size 9 to 14) (size 15 to 20)
#    2.400    0.800    0.000    0.000    2.800    1.600 
#    0.000    0.000    4.400   19.200    0.000    0.000 
#    0.000    0.000    0.000    0.000    0.000    0.000 
#
# Total GULP energy -167025.008016 kJ/mol
# GULP energy per Si atom -5567.500267 kJ/mol
# Density = 2.519223 g / cm^3
# Si number density = 25.249696 Si / 1000 Ang^3
#
#
#
# Elastic Constant Matrix: (Units=GPa)
#
#
# Indices 1 2 3 4 5 6 
#
# 1 42.4978 -3.4838 5.2586 0.0000 0.0000 0.0000
# 2 -3.4838 42.4978 5.2586 0.0000 0.0000 0.0000
# 3 5.2586 5.2586 109.6365 0.0000 0.0000 0.0000
# 4 0.0000 0.0000 0.0000 12.5719 0.0000 0.0000
# 5 0.0000 0.0000 0.0000 0.0000 12.5719 0.0000
# 6 0.0000 0.0000 0.0000 0.0000 0.0000 22.9908
#
#
#
# Elastic Compliance Matrix: (Units=1/GPa)
#
#
# Indices 1 2 3 4 5 6 
#
# 1 0.023858 0.002110 -0.001246 0.000000 0.000000 0.000000
# 2 0.002110 0.023858 -0.001246 0.000000 0.000000 0.000000
# 3 -0.001246 -0.001246 0.009241 0.000000 0.000000 0.000000
# 4 0.000000 0.000000 0.000000 0.079543 0.000000 0.000000
# 5 0.000000 0.000000 0.000000 0.000000 0.079543 0.000000
# 6 0.000000 0.000000 0.000000 0.000000 0.000000 0.043496
#
#
# Mechanical properties :
#
#
# Convention : Reuss Voigt Hill
#
# Bulk Modulus (GPa) = 17.79560 23.18877 20.49219
# Shear Modulus (GPa) = 17.91920 22.13350 20.02635
#
# Velocity S-wave (km/s) = 2.66687 2.96393 2.81932
# Velocity P-wave (km/s) = 4.06769 4.57350 4.32799
#
# Compressibility (1/GPa) = 0.05619365
#
# Stress axis : x y z
#
# Youngs Moduli (GPa) = 41.91521 41.91521 108.21893
#
# Poissons Ratio (x) = -0.08844 0.13479
# Poissons Ratio (y) = -0.08844 0.13479
# Poissons Ratio (z) = 0.05221 0.05221
#
# Static dielectric constant tensor:
#      x y z
#    x 2.140760 0.000000 0.000000 
#    y 0.000000 2.140760 0.000000 
#    z 0.000000 0.000000 1.934850 
# 
# From -- ./inp_files/4175.got.cif
#   From: 2010.05.17/outbox.cif.g08.bks.cpg/sg171_3_cif.got.tgz:4175.got - 2010.05.20 11:16:09.
