data_PCOD9580322
_publ_section_title
;
Structure prediction by ZEFSAII (Michael W. Deem and Ramdas Pophale) SiO2 
 PCOD9580322
Probable space group: P 65
;
_chemical_formula_sum "Si O2"
_cell_formula_units_Z 48
_cell_length_a 14.364915
_cell_length_b 14.364915
_cell_length_c 11.593683
_cell_angle_alpha 90.000000
_cell_angle_beta 90.000000
_cell_angle_gamma 120.000000
_cell_volume 2071.849354
_symmetry_space_group_name_H-M "P 65"
_symmetry_group_IT_number 170
_symmetry_cell_setting 'hexagonal'
loop_
_space_group_symop_operation_xyz
x,y,z
x-y,x,5/6+z
-y,x-y,2/3+z
-x,-y,1/2+z
-x+y,-x,1/3+z
y,-x+y,1/6+z
loop_
_atom_site_type_symbol
_atom_site_label
_atom_site_fract_x
_atom_site_fract_y
_atom_site_fract_z
Si Si1 0.098467 0.165946 0.282470
Si Si2 0.150820 0.385918 0.342766
Si Si3 0.074360 0.510121 0.710861
Si Si4 0.679861 0.588895 0.039171
Si Si5 0.267447 0.219108 0.109587
Si Si6 0.233638 0.704894 0.078034
Si Si7 0.090237 0.729174 0.241011
Si Si8 0.531993 0.646828 0.777951
O O1 0.112493 0.134196 0.408366
O O2 0.157546 0.292741 0.275495
O O3 0.164399 0.143096 0.186939
O O4 0.238293 0.415326 0.443688
O O5 0.157122 0.463882 0.240297
O O6 0.025510 0.329966 0.380969
O O7 0.064606 0.560728 0.832117
O O8 0.201449 0.552273 0.706732
O O9 0.013298 0.381356 0.700563
O O10 0.002538 0.540258 0.627590
O O11 0.713635 0.563097 0.159194
O O12 0.287424 0.138450 0.029902
O O13 0.368820 0.276382 0.197112
O O14 0.263889 0.311668 0.035382
O O15 0.189859 0.711303 0.205312
O O16 0.204449 0.582646 0.063237
#
# Coordination Sequence:
#
# PCOD9580322 Si02
#       8
#     6   6   6   6   6   6   6   6
#     4  12  22  41  69 102 138 180 238 306 364 441
#     4  11  22  44  71 103 135 188 241 300 367 431
#     4  10  23  46  63  99 137 177 231 290 355 430
#     4  11  25  43  72  98 142 189 239 291 367 442
#     4  12  21  40  71  98 130 184 233 296 358 424
#     4  11  25  43  66  98 147 184 233 295 357 441
#     4  11  23  40  67  94 138 179 230 285 357 430
#     4  10  23  43  73 102 137 185 241 299 367 437
#
# _framework density 23.167708000000001
#
# number of rings (size 3 to 8) (size 9 to 14) (size 15 to 20)
#    0.000    1.000    5.000    1.500    3.500    1.000 
#    4.500    2.500    0.000    0.000    0.000    0.000 
#    0.000    0.000    0.000    0.000    0.000    0.000 
#
# Total GULP energy -267202.580341 kJ/mol
# GULP energy per Si atom -5566.720424 kJ/mol
# Density = 2.311498 g / cm^3
# Si number density = 23.167708 Si / 1000 Ang^3
#
#
#
# Elastic Constant Matrix: (Units=GPa)
#
#
# Indices 1 2 3 4 5 6 
#
# 1 91.4252 32.7741 27.2290 0.0000 0.0000 0.0000
# 2 32.7741 91.4252 27.2290 0.0000 0.0000 0.0000
# 3 27.2290 27.2290 73.7444 0.0000 0.0000 0.0000
# 4 0.0000 0.0000 0.0000 23.8302 0.0000 0.0000
# 5 0.0000 0.0000 0.0000 0.0000 23.8302 0.0000
# 6 0.0000 0.0000 0.0000 0.0000 0.0000 29.3256
#
#
#
# Elastic Compliance Matrix: (Units=1/GPa)
#
#
# Indices 1 2 3 4 5 6 
#
# 1 0.013328 -0.003722 -0.003547 0.000000 0.000000 0.000000
# 2 -0.003722 0.013328 -0.003547 0.000000 0.000000 0.000000
# 3 -0.003547 -0.003547 0.016180 0.000000 0.000000 0.000000
# 4 0.000000 0.000000 0.000000 0.041963 0.000000 0.000000
# 5 0.000000 0.000000 0.000000 0.000000 0.041963 0.000000
# 6 0.000000 0.000000 0.000000 0.000000 0.000000 0.034100
#
#
# Mechanical properties :
#
#
# Convention : Reuss Voigt Hill
#
# Bulk Modulus (GPa) = 47.15898 47.89545 47.52722
# Shear Modulus (GPa) = 26.37634 26.68806 26.53220
#
# Velocity S-wave (km/s) = 3.37782 3.39772 3.38779
# Velocity P-wave (km/s) = 5.96763 6.00924 5.98847
#
# Compressibility (1/GPa) = 0.02120487
#
# Stress axis : x y z
#
# Youngs Moduli (GPa) = 75.02748 75.02748 61.80527
#
# Poissons Ratio (x) = 0.27922 0.21924
# Poissons Ratio (y) = 0.27922 0.21924
# Poissons Ratio (z) = 0.26614 0.26614
#
# Static dielectric constant tensor:
#      x y z
#    x 1.918330 0.000000 0.000000 
#    y 0.000000 1.918330 0.000000 
#    z 0.000000 0.000000 1.886790 
# 
# From -- ./inp_files/1096.got.cif
#   From: 2010.05.17/outbox.cif.g08.bks.cpg/sg170_cif.got.tgz:1096.got - 2010.05.20 11:14:30.
