data_PCOD9580327
_publ_section_title
;
Structure prediction by ZEFSAII (Michael W. Deem and Ramdas Pophale) SiO2 
 PCOD9580327
Probable space group: P 65
;
_chemical_formula_sum "Si O2"
_cell_formula_units_Z 42
_cell_length_a 17.557684
_cell_length_b 17.557684
_cell_length_c 7.980260
_cell_angle_alpha 90.000000
_cell_angle_beta 90.000000
_cell_angle_gamma 120.000000
_cell_volume 2130.502899
_symmetry_space_group_name_H-M "P 65"
_symmetry_group_IT_number 170
_symmetry_cell_setting 'hexagonal'
loop_
_space_group_symop_operation_xyz
x,y,z
x-y,x,5/6+z
-y,x-y,2/3+z
-x,-y,1/2+z
-x+y,-x,1/3+z
y,-x+y,1/6+z
loop_
_atom_site_type_symbol
_atom_site_label
_atom_site_fract_x
_atom_site_fract_y
_atom_site_fract_z
Si Si1 0.615662 0.381919 0.041100
Si Si2 0.425599 0.651925 0.882592
Si Si3 0.750165 0.164422 0.602375
Si Si4 0.583015 0.860948 0.132425
Si Si5 0.171568 0.756821 0.434125
Si Si6 0.994310 0.589751 0.359207
Si Si7 0.963630 0.553052 0.750458
O O1 0.605022 0.415328 0.225475
O O2 0.654660 0.317521 0.094268
O O3 0.520533 0.318622 0.957560
O O4 0.674148 0.474985 0.948607
O O5 0.491533 0.743477 0.796718
O O6 0.492682 0.629954 0.985538
O O7 0.816123 0.212201 0.452050
O O8 0.801970 0.178479 0.777376
O O9 0.682796 0.061678 0.585926
O O10 0.610715 0.963194 0.157096
O O11 0.623668 0.852843 0.955066
O O12 0.093738 0.665003 0.372332
O O13 0.991267 0.505790 0.277669
O O14 0.959782 0.570109 0.551847
#
# Coordination Sequence:
#
# PCOD9580327 Si02
#       7
#     6   6   6   6   6   6   6
#     4  11  19  33  53  79 105 147 195 253 293 349
#     4  11  20  34  56  76 114 146 194 253 299 337
#     4  11  22  42  54  77 114 146 188 253 295 347
#     4  11  23  37  55  81 109 147 201 239 303 350
#     4  10  24  38  56  82 102 148 191 246 291 356
#     4  11  23  37  57  82 110 149 202 247 310 353
#     4  11  21  37  53  81 110 149 195 253 295 364
#
# _framework density 19.713653999999998
#
# number of rings (size 3 to 8) (size 9 to 14) (size 15 to 20)
#    0.000    1.143    5.714    2.571    2.000    1.143 
#    0.000    0.000    0.000    0.000    0.000    0.000 
#    0.000    0.000    0.000    2.571    0.000    0.000 
#
# Total GULP energy -233925.945600 kJ/mol
# GULP energy per Si atom -5569.665371 kJ/mol
# Density = 1.966878 g / cm^3
# Si number density = 19.713654 Si / 1000 Ang^3
#
#
#
# Elastic Constant Matrix: (Units=GPa)
#
#
# Indices 1 2 3 4 5 6 
#
# 1 57.0536 37.9744 21.2912 0.0000 0.0000 0.0000
# 2 37.9744 57.0536 21.2912 0.0000 0.0000 0.0000
# 3 21.2912 21.2912 91.8804 0.0000 0.0000 0.0000
# 4 0.0000 0.0000 0.0000 15.5749 0.0000 0.0000
# 5 0.0000 0.0000 0.0000 0.0000 15.5749 0.0000
# 6 0.0000 0.0000 0.0000 0.0000 0.0000 9.5396
#
#
#
# Elastic Compliance Matrix: (Units=1/GPa)
#
#
# Indices 1 2 3 4 5 6 
#
# 1 0.032078 -0.020335 -0.002721 0.000000 0.000000 0.000000
# 2 -0.020335 0.032078 -0.002721 0.000000 0.000000 0.000000
# 3 -0.002721 -0.002721 0.012145 0.000000 0.000000 0.000000
# 4 0.000000 0.000000 0.000000 0.064206 0.000000 0.000000
# 5 0.000000 0.000000 0.000000 0.000000 0.064206 0.000000
# 6 0.000000 0.000000 0.000000 0.000000 0.000000 0.104826
#
#
# Mechanical properties :
#
#
# Convention : Reuss Voigt Hill
#
# Bulk Modulus (GPa) = 40.41123 40.78904 40.60014
# Shear Modulus (GPa) = 13.53759 16.49992 15.01876
#
# Velocity S-wave (km/s) = 2.62336 2.89620 2.76315
# Velocity P-wave (km/s) = 5.45157 5.64975 5.55154
#
# Compressibility (1/GPa) = 0.02474560
#
# Stress axis : x y z
#
# Youngs Moduli (GPa) = 31.17418 31.17418 82.33970
#
# Poissons Ratio (x) = 0.63394 0.22405
# Poissons Ratio (y) = 0.63394 0.22405
# Poissons Ratio (z) = 0.08483 0.08483
#
# Static dielectric constant tensor:
#      x y z
#    x 1.743880 0.000000 0.000000 
#    y 0.000000 1.743880 0.000000 
#    z 0.000000 0.000000 1.882640 
# 
# From -- ./inp_files/702.got.cif
#   From: 2010.05.17/outbox.cif.g08.bks.cpg/sg170_cif.got.tgz:702.got - 2010.05.20 11:14:30.
