data_PCOD9580104
_publ_section_title
;
Structure prediction by ZEFSAII (Michael W. Deem and Ramdas Pophale) SiO2 
 PCOD9580104
Probable space group: P 61
;
_chemical_formula_sum "Si O2"
_cell_formula_units_Z 36
_cell_length_a 13.698639
_cell_length_b 13.698639
_cell_length_c 9.715784
_cell_angle_alpha 90.000000
_cell_angle_beta 90.000000
_cell_angle_gamma 120.000000
_cell_volume 1578.931629
_symmetry_space_group_name_H-M "P 61"
_symmetry_group_IT_number 169
_symmetry_cell_setting 'hexagonal'
loop_
_space_group_symop_operation_xyz
x,y,z
x-y,x,1/6+z
-y,x-y,1/3+z
-x,-y,1/2+z
-x+y,-x,2/3+z
y,-x+y,5/6+z
loop_
_atom_site_type_symbol
_atom_site_label
_atom_site_fract_x
_atom_site_fract_y
_atom_site_fract_z
Si Si1 0.018272 0.192452 0.188140
Si Si2 0.861717 0.069722 0.920955
Si Si3 0.209330 0.761687 0.395597
Si Si4 0.610389 0.471115 0.981468
Si Si5 0.338232 0.563210 0.176760
Si Si6 0.366559 0.413432 0.970781
O O1 0.127036 0.181256 0.155404
O O2 0.033551 0.316181 0.176671
O O3 0.936440 0.130682 0.057028
O O4 0.773549 0.113983 0.915267
O O5 0.940828 0.121387 0.787908
O O6 0.171956 0.718975 0.240314
O O7 0.319859 0.760354 0.449045
O O8 0.101256 0.673828 0.486977
O O9 0.631183 0.471090 0.819973
O O10 0.578565 0.346722 0.031770
O O11 0.499739 0.481929 0.996175
O O12 0.310556 0.465846 0.068093
#
# Coordination Sequence:
#
# PCOD9580104 Si02
#       6
#     6   6   6   6   6   6
#     4   9  18  35  63  97 125 170 227 281 340 418
#     4   9  20  37  67  99 130 174 230 286 346 422
#     4  11  23  41  66 102 134 184 235 286 347 428
#     4  12  24  41  64  97 139 183 230 290 346 419
#     4  12  24  43  64  98 140 185 226 288 359 412
#     4  11  23  39  68  99 132 182 234 285 346 425
#
# _framework density 22.800228000000001
#
# number of rings (size 3 to 8) (size 9 to 14) (size 15 to 20)
#    0.000    1.333    3.333    2.000    9.333    0.000 
#    0.000    0.000    0.000   34.000    0.000    0.000 
#    0.000    0.000    0.000    0.000    0.000    0.000 
#
# Total GULP energy -201124.999141 kJ/mol
# GULP energy per Si atom -5586.805532 kJ/mol
# Density = 2.274833 g / cm^3
# Si number density = 22.800228 Si / 1000 Ang^3
#
#
#
# Elastic Constant Matrix: (Units=GPa)
#
#
# Indices 1 2 3 4 5 6 
#
# 1 71.8047 -4.3668 9.7745 0.0000 0.0000 0.0000
# 2 -4.3668 71.8047 9.7745 0.0000 0.0000 0.0000
# 3 9.7745 9.7745 62.3414 0.0000 0.0000 0.0000
# 4 0.0000 0.0000 0.0000 4.4728 0.0000 0.0000
# 5 0.0000 0.0000 0.0000 0.0000 4.4728 0.0000
# 6 0.0000 0.0000 0.0000 0.0000 0.0000 38.0857
#
#
#
# Elastic Compliance Matrix: (Units=1/GPa)
#
#
# Indices 1 2 3 4 5 6 
#
# 1 0.014331 0.001203 -0.002436 0.000000 0.000000 0.000000
# 2 0.001203 0.014331 -0.002436 0.000000 0.000000 0.000000
# 3 -0.002436 -0.002436 0.016804 0.000000 0.000000 0.000000
# 4 0.000000 0.000000 0.000000 0.223574 0.000000 0.000000
# 5 0.000000 0.000000 0.000000 0.000000 0.223574 0.000000
# 6 0.000000 0.000000 0.000000 0.000000 0.000000 0.026257
#
#
# Mechanical properties :
#
#
# Convention : Reuss Voigt Hill
#
# Bulk Modulus (GPa) = 26.22546 26.25724 26.24135
# Shear Modulus (GPa) = 9.27783 22.12416 15.70099
#
# Velocity S-wave (km/s) = 2.01941 3.11842 2.62703
# Velocity P-wave (km/s) = 4.11881 4.95048 4.55367
#
# Compressibility (1/GPa) = 0.03813089
#
# Stress axis : x y z
#
# Youngs Moduli (GPa) = 69.77689 69.77689 59.50797
#
# Poissons Ratio (x) = -0.08395 0.14494
# Poissons Ratio (y) = -0.08395 0.14494
# Poissons Ratio (z) = 0.16995 0.16995
#
# Static dielectric constant tensor:
#      x y z
#    x 1.928110 0.000000 0.000000 
#    y 0.000000 1.928110 0.000000 
#    z 0.000000 0.000000 1.862300 
# 
# From -- ./inp_files/587.got.cif
#   From: 2010.05.17/outbox.cif.g08.bks.cpg/sg169_cif.got.tgz:587.got - 2010.05.20 11:12:54.
