data_PCOD9580981
_publ_section_title
;
Structure prediction by ZEFSAII (Michael W. Deem and Ramdas Pophale) SiO2 
 PCOD9580981
Probable space group: P 64
;
_chemical_formula_sum "Si O2"
_cell_formula_units_Z 18
_cell_length_a 6.902436
_cell_length_b 6.902436
_cell_length_c 14.130329
_cell_angle_alpha 90.000000
_cell_angle_beta 90.000000
_cell_angle_gamma 120.000000
_cell_volume 583.025678
_symmetry_space_group_name_H-M "P 64"
_symmetry_group_IT_number 172
_symmetry_cell_setting 'hexagonal'
loop_
_space_group_symop_operation_xyz
x,y,z
x-y,x,2/3+z
-y,x-y,1/3+z
-x,-y,z
-x+y,-x,2/3+z
y,-x+y,1/3+z
loop_
_atom_site_type_symbol
_atom_site_label
_atom_site_fract_x
_atom_site_fract_y
_atom_site_fract_z
Si Si1 0.990888 0.751573 0.758720
Si Si2 0.712390 0.041186 0.926792
Si Si3 0.535394 0.324395 0.272671
O O1 0.842467 0.774294 0.679216
O O2 0.812618 0.568402 0.833977
O O3 0.159576 0.705438 0.694129
O O4 0.171377 0.950043 0.826755
O O5 0.563481 0.184058 0.920101
O O6 0.915258 0.316394 0.955371
#
# Coordination Sequence:
#
# PCOD9580981 Si02
#       3
#     6   6   6
#     4  11  27  53  81 123 167 221 283 353 432 518
#     4  11  28  50  88 121 170 226 285 356 433 522
#     4  10  26  48  83 120 166 218 285 344 433 517
#
# _framework density 30.873424
#
# number of rings (size 3 to 8) (size 9 to 14) (size 15 to 20)
#    0.000    1.333    0.000    1.000   14.000   18.667 
#    0.000    0.000    0.000    0.000    0.000    0.000 
#    0.000    0.000    0.000    0.000    0.000    0.000 
#
# Total GULP energy -100457.404289 kJ/mol
# GULP energy per Si atom -5580.966905 kJ/mol
# Density = 3.080315 g / cm^3
# Si number density = 30.873424 Si / 1000 Ang^3
#
#
#
# Elastic Constant Matrix: (Units=GPa)
#
#
# Indices 1 2 3 4 5 6 
#
# 1 254.3176 71.9749 130.5405 0.0000 0.0000 0.0000
# 2 71.9749 254.3176 130.5405 0.0000 0.0000 0.0000
# 3 130.5405 130.5405 345.7324 0.0000 0.0000 0.0000
# 4 0.0000 0.0000 0.0000 60.8625 0.0000 0.0000
# 5 0.0000 0.0000 0.0000 0.0000 60.8625 0.0000
# 6 0.0000 0.0000 0.0000 0.0000 0.0000 91.1713
#
#
#
# Elastic Compliance Matrix: (Units=1/GPa)
#
#
# Indices 1 2 3 4 5 6 
#
# 1 0.004938 -0.000546 -0.001658 0.000000 0.000000 0.000000
# 2 -0.000546 0.004938 -0.001658 0.000000 0.000000 0.000000
# 3 -0.001658 -0.001658 0.004145 0.000000 0.000000 0.000000
# 4 0.000000 0.000000 0.000000 0.016430 0.000000 0.000000
# 5 0.000000 0.000000 0.000000 0.000000 0.016430 0.000000
# 6 0.000000 0.000000 0.000000 0.000000 0.000000 0.010968
#
#
# Mechanical properties :
#
#
# Convention : Reuss Voigt Hill
#
# Bulk Modulus (GPa) = 158.85595 168.94219 163.89907
# Shear Modulus (GPa) = 73.88472 77.33339 75.60906
#
# Velocity S-wave (km/s) = 4.89729 5.01028 4.95411
# Velocity P-wave (km/s) = 9.14022 9.39735 9.26968
#
# Compressibility (1/GPa) = 0.00629501
#
# Stress axis : x y z
#
# Youngs Moduli (GPa) = 202.51841 202.51841 241.28115
#
# Poissons Ratio (x) = 0.11065 0.40007
# Poissons Ratio (y) = 0.11065 0.40007
# Poissons Ratio (z) = 0.33580 0.33580
#
# Static dielectric constant tensor:
#      x y z
#    x 3.072170 0.000000 0.000000 
#    y 0.000000 3.072170 0.000000 
#    z 0.000000 0.000000 1.987440 
# 
# From -- ./inp_files/1443.got.cif
#   From: 2010.05.17/outbox.cif.g08.bks.cpg/sg172_1_cif.got.tgz:1443.got - 2010.05.20 11:19:57.
