data_PCOD9580211
_publ_section_title
;
Structure prediction by ZEFSAII (Michael W. Deem and Ramdas Pophale) SiO2 
 PCOD9580211
Probable space group: P 65
;
_chemical_formula_sum "Si O2"
_cell_formula_units_Z 30
_cell_length_a 11.571188
_cell_length_b 11.571188
_cell_length_c 9.325082
_cell_angle_alpha 90.000000
_cell_angle_beta 90.000000
_cell_angle_gamma 120.000000
_cell_volume 1081.282541
_symmetry_space_group_name_H-M "P 65"
_symmetry_group_IT_number 170
_symmetry_cell_setting 'hexagonal'
loop_
_space_group_symop_operation_xyz
x,y,z
x-y,x,5/6+z
-y,x-y,2/3+z
-x,-y,1/2+z
-x+y,-x,1/3+z
y,-x+y,1/6+z
loop_
_atom_site_type_symbol
_atom_site_label
_atom_site_fract_x
_atom_site_fract_y
_atom_site_fract_z
Si Si1 0.494086 0.473310 0.653710
Si Si2 0.460077 0.829380 0.540382
Si Si3 0.933949 0.174568 0.625016
Si Si4 0.122340 0.258831 0.338721
Si Si5 0.723092 0.486165 0.994741
O O1 0.257356 0.396684 0.816867
O O2 0.478293 0.342455 0.736303
O O3 0.600648 0.487112 0.534870
O O4 0.372915 0.464009 0.558269
O O5 0.362651 0.673794 0.509442
O O6 0.426296 0.924486 0.441227
O O7 0.023307 0.194127 0.761048
O O8 0.027296 0.219346 0.481776
O O9 0.205677 0.184052 0.371947
O O10 0.217833 0.420408 0.351590
#
# Coordination Sequence:
#
# PCOD9580211 Si02
#       5
#     6   6   6   6   6
#     4  12  28  46  78 117 161 206 270 331 407 494
#     4  12  27  46  78 116 160 211 270 335 415 499
#     4  10  20  40  74 110 145 202 266 321 395 481
#     4  10  19  39  76 117 148 207 271 326 401 490
#     4  12  24  47  76 118 152 214 263 329 410 490
#
# _framework density 27.74483
#
# number of rings (size 3 to 8) (size 9 to 14) (size 15 to 20)
#    0.000    0.800    4.000    3.600    5.600    0.000 
#    0.000    0.000    0.000   57.600    0.000    0.000 
#    0.000    0.000    0.000    0.000    0.000    0.000 
#
# Total GULP energy -167617.996303 kJ/mol
# GULP energy per Si atom -5587.266543 kJ/mol
# Density = 2.768168 g / cm^3
# Si number density = 27.744830 Si / 1000 Ang^3
#
#
#
# Elastic Constant Matrix: (Units=GPa)
#
#
# Indices 1 2 3 4 5 6 
#
# 1 195.5555 91.2998 45.2100 0.0000 0.0000 0.0000
# 2 91.2998 195.5555 45.2100 0.0000 0.0000 0.0000
# 3 45.2100 45.2100 97.9625 0.0000 0.0000 0.0000
# 4 0.0000 0.0000 0.0000 38.1328 0.0000 0.0000
# 5 0.0000 0.0000 0.0000 0.0000 38.1328 0.0000
# 6 0.0000 0.0000 0.0000 0.0000 0.0000 52.1279
#
#
#
# Elastic Compliance Matrix: (Units=1/GPa)
#
#
# Indices 1 2 3 4 5 6 
#
# 1 0.006836 -0.002756 -0.001883 0.000000 0.000000 0.000000
# 2 -0.002756 0.006836 -0.001883 0.000000 0.000000 0.000000
# 3 -0.001883 -0.001883 0.011946 0.000000 0.000000 0.000000
# 4 0.000000 0.000000 0.000000 0.026224 0.000000 0.000000
# 5 0.000000 0.000000 0.000000 0.000000 0.026224 0.000000
# 6 0.000000 0.000000 0.000000 0.000000 0.000000 0.019184
#
#
# Mechanical properties :
#
#
# Convention : Reuss Voigt Hill
#
# Bulk Modulus (GPa) = 79.52954 94.72369 87.12662
# Shear Modulus (GPa) = 43.67447 46.16895 44.92171
#
# Velocity S-wave (km/s) = 3.97186 4.08371 4.02817
# Velocity P-wave (km/s) = 7.05415 7.51337 7.28738
#
# Compressibility (1/GPa) = 0.01257394
#
# Stress axis : x y z
#
# Youngs Moduli (GPa) = 146.29155 146.29155 83.71178
#
# Poissons Ratio (x) = 0.40320 0.15761
# Poissons Ratio (y) = 0.40320 0.15761
# Poissons Ratio (z) = 0.27543 0.27543
#
# Static dielectric constant tensor:
#      x y z
#    x 2.210010 0.000000 0.000000 
#    y 0.000000 2.210010 0.000000 
#    z 0.000000 0.000000 2.325150 
# 
# From -- ./inp_files/539.got.cif
#   From: 2010.05.17/outbox.cif.g08.bks.cpg/sg170_cif.got.tgz:539.got - 2010.05.20 11:14:30.
