data_PCOD9580329
_publ_section_title
;
Structure prediction by ZEFSAII (Michael W. Deem and Ramdas Pophale) SiO2 
 PCOD9580329
Probable space group: P 65
;
_chemical_formula_sum "Si O2"
_cell_formula_units_Z 48
_cell_length_a 12.343903
_cell_length_b 12.343903
_cell_length_c 16.608628
_cell_angle_alpha 90.000000
_cell_angle_beta 90.000000
_cell_angle_gamma 120.000000
_cell_volume 2191.640868
_symmetry_space_group_name_H-M "P 65"
_symmetry_group_IT_number 170
_symmetry_cell_setting 'hexagonal'
loop_
_space_group_symop_operation_xyz
x,y,z
x-y,x,5/6+z
-y,x-y,2/3+z
-x,-y,1/2+z
-x+y,-x,1/3+z
y,-x+y,1/6+z
loop_
_atom_site_type_symbol
_atom_site_label
_atom_site_fract_x
_atom_site_fract_y
_atom_site_fract_z
Si Si1 0.487915 0.915317 0.423290
Si Si2 0.656773 0.725987 0.542370
Si Si3 0.155078 0.774174 0.958754
Si Si4 0.158631 0.563062 0.251957
Si Si5 0.766479 0.557823 0.534980
Si Si6 0.570608 0.178930 0.466650
Si Si7 0.878134 0.982885 0.475006
Si Si8 0.098034 0.604093 0.802478
O O1 0.587047 0.918192 0.360631
O O2 0.504908 0.879478 0.513786
O O3 0.342300 0.818609 0.408799
O O4 0.490424 0.045562 0.425909
O O5 0.740252 0.663453 0.568982
O O6 0.616710 0.764838 0.623241
O O7 0.526362 0.619048 0.498747
O O8 0.748592 0.850619 0.490987
O O9 0.297312 0.813854 0.977188
O O10 0.137620 0.894842 0.959098
O O11 0.127963 0.699341 0.874837
O O12 0.175251 0.632763 0.334802
O O13 0.290067 0.571612 0.242015
O O14 0.037266 0.430733 0.266126
O O15 0.528274 0.185041 0.557354
O O16 0.955178 0.020940 0.560254
#
# Coordination Sequence:
#
# PCOD9580329 Si02
#       8
#     6   6   6   6   6   6   6   6
#     4  11  25  41  65 102 133 181 232 281 357 421
#     4  11  22  41  71 100 137 179 238 296 340 416
#     4  12  25  42  71 104 140 188 239 299 352 433
#     4  10  24  41  66  96 136 180 227 292 349 426
#     4  11  23  40  67 101 130 176 229 289 339 412
#     4  11  24  40  65  96 141 179 227 291 355 427
#     4  12  27  47  74 109 143 190 251 301 360 432
#     4  10  24  44  65 100 140 185 231 291 360 415
#
# _framework density 21.901401
#
# number of rings (size 3 to 8) (size 9 to 14) (size 15 to 20)
#    0.000    1.000    3.750    1.500   10.500    2.000 
#    0.000    3.750    0.000    0.000    0.000    0.000 
#    0.000    0.000    0.000    0.000    0.000    0.000 
#
# Total GULP energy -267644.445444 kJ/mol
# GULP energy per Si atom -5575.925947 kJ/mol
# Density = 2.185155 g / cm^3
# Si number density = 21.901401 Si / 1000 Ang^3
#
#
#
# Elastic Constant Matrix: (Units=GPa)
#
#
# Indices 1 2 3 4 5 6 
#
# 1 67.2629 16.2897 9.0115 0.0000 0.0000 0.0000
# 2 16.2897 67.2629 9.0115 0.0000 0.0000 0.0000
# 3 9.0115 9.0115 66.4692 0.0000 0.0000 0.0000
# 4 0.0000 0.0000 0.0000 32.2287 0.0000 0.0000
# 5 0.0000 0.0000 0.0000 0.0000 32.2287 0.0000
# 6 0.0000 0.0000 0.0000 0.0000 0.0000 25.4866
#
#
#
# Elastic Compliance Matrix: (Units=1/GPa)
#
#
# Indices 1 2 3 4 5 6 
#
# 1 0.015974 -0.003645 -0.001672 0.000000 0.000000 0.000000
# 2 -0.003645 0.015974 -0.001672 0.000000 0.000000 0.000000
# 3 -0.001672 -0.001672 0.015498 0.000000 0.000000 0.000000
# 4 0.000000 0.000000 0.000000 0.031028 0.000000 0.000000
# 5 0.000000 0.000000 0.000000 0.000000 0.031028 0.000000
# 6 0.000000 0.000000 0.000000 0.000000 0.000000 0.039236
#
#
# Mechanical properties :
#
#
# Convention : Reuss Voigt Hill
#
# Bulk Modulus (GPa) = 29.87761 29.95785 29.91773
# Shear Modulus (GPa) = 28.75716 29.10092 28.92904
#
# Velocity S-wave (km/s) = 3.62750 3.64912 3.63833
# Velocity P-wave (km/s) = 5.58718 5.60919 5.59819
#
# Compressibility (1/GPa) = 0.03346988
#
# Stress axis : x y z
#
# Youngs Moduli (GPa) = 62.60320 62.60320 64.52535
#
# Poissons Ratio (x) = 0.22816 0.10785
# Poissons Ratio (y) = 0.22816 0.10785
# Poissons Ratio (z) = 0.10464 0.10464
#
# Static dielectric constant tensor:
#      x y z
#    x 1.958070 0.000000 0.000000 
#    y 0.000000 1.958070 0.000000 
#    z 0.000000 0.000000 1.876960 
# 
# From -- ./inp_files/1449.got.cif
#   From: 2010.05.17/outbox.cif.g08.bks.cpg/sg170_cif.got.tgz:1449.got - 2010.05.20 11:14:30.
