data_PCOD9580861
_publ_section_title
;
Structure prediction by ZEFSAII (Michael W. Deem and Ramdas Pophale) SiO2 
 PCOD9580861
Probable space group: P 62
;
_chemical_formula_sum "Si O2"
_cell_formula_units_Z 45
_cell_length_a 10.784332
_cell_length_b 10.784332
_cell_length_c 20.683938
_cell_angle_alpha 90.000000
_cell_angle_beta 90.000000
_cell_angle_gamma 120.000000
_cell_volume 2083.293015
_symmetry_space_group_name_H-M "P 62"
_symmetry_group_IT_number 171
_symmetry_cell_setting 'hexagonal'
loop_
_space_group_symop_operation_xyz
x,y,z
x-y,x,1/3+z
-y,x-y,2/3+z
-x,-y,z
-x+y,-x,1/3+z
y,-x+y,2/3+z
loop_
_atom_site_type_symbol
_atom_site_label
_atom_site_fract_x
_atom_site_fract_y
_atom_site_fract_z
Si Si1 0.719861 0.967168 0.177950
Si Si2 0.070111 0.349455 0.701279
Si Si3 0.000000 0.500000 0.929754
Si Si4 0.649509 0.007413 0.834069
Si Si5 0.212108 0.415636 0.274935
Si Si6 0.302776 0.381733 0.019811
Si Si7 0.365157 0.697613 0.328682
Si Si8 0.146986 0.138742 0.635074
O O1 0.638505 0.794489 0.179612
O O2 0.856802 0.019546 0.224301
O O3 0.744354 0.028431 0.106110
O O4 0.625932 0.018757 0.216542
O O5 0.190715 0.518266 0.701076
O O6 0.139532 0.274129 0.659976
O O7 0.920846 0.293743 0.662551
O O8 0.140025 0.584972 0.972791
O O9 0.500000 0.000000 0.851788
O O10 0.655425 0.883560 0.876281
O O11 0.649381 0.984348 0.757842
O O12 0.309582 0.586301 0.269247
O O13 0.054066 0.374537 0.301212
O O14 0.333769 0.545118 0.023308
O O15 0.138150 0.280396 0.002291
O O16 0.000000 0.000000 0.654664
#
# Coordination Sequence:
#
# PCOD9580861 Si02
#       8
#     6   6   3   6   6   6   6   6
#     4  12  25  42  71 104 137 190 249 295 372 454
#     4  12  25  43  73 105 141 193 248 297 371 449
#     4  12  24  46  68  98 144 184 234 308 372 434
#     4  12  24  45  73 107 146 192 254 313 377 462
#     4  12  24  45  71 106 142 194 246 305 379 449
#     4  12  26  46  72 107 149 194 242 314 391 445
#     4  12  25  46  71 102 150 189 240 314 379 451
#     4  12  23  48  72 100 145 187 242 309 364 446
#
# _framework density 21.600417
#
# number of rings (size 3 to 8) (size 9 to 14) (size 15 to 20)
#    0.000    0.000    6.667    3.200    1.867    3.733 
#    0.000    0.000    2.933    0.000    0.000    0.000 
#    0.000    0.000    0.000    0.000    0.000    0.000 
#
# Total GULP energy -251192.434950 kJ/mol
# GULP energy per Si atom -5582.054110 kJ/mol
# Density = 2.155125 g / cm^3
# Si number density = 21.600417 Si / 1000 Ang^3
#
#
#
# Elastic Constant Matrix: (Units=GPa)
#
#
# Indices 1 2 3 4 5 6 
#
# 1 98.3524 15.4340 1.1984 0.0000 0.0000 0.0000
# 2 15.4340 98.3524 1.1984 0.0000 0.0000 0.0000
# 3 1.1984 1.1984 60.4556 0.0000 0.0000 0.0000
# 4 0.0000 0.0000 0.0000 12.1315 0.0000 0.0000
# 5 0.0000 0.0000 0.0000 0.0000 12.1315 0.0000
# 6 0.0000 0.0000 0.0000 0.0000 0.0000 41.4592
#
#
#
# Elastic Compliance Matrix: (Units=1/GPa)
#
#
# Indices 1 2 3 4 5 6 
#
# 1 0.010426 -0.001634 -0.000174 0.000000 0.000000 0.000000
# 2 -0.001634 0.010426 -0.000174 0.000000 0.000000 0.000000
# 3 -0.000174 -0.000174 0.016548 0.000000 0.000000 0.000000
# 4 0.000000 0.000000 0.000000 0.082430 0.000000 0.000000
# 5 0.000000 0.000000 0.000000 0.000000 0.082430 0.000000
# 6 0.000000 0.000000 0.000000 0.000000 0.000000 0.024120
#
#
# Mechanical properties :
#
#
# Convention : Reuss Voigt Hill
#
# Bulk Modulus (GPa) = 29.90879 32.53577 31.22228
# Shear Modulus (GPa) = 20.70471 29.09974 24.90222
#
# Velocity S-wave (km/s) = 3.09938 3.67438 3.39906
# Velocity P-wave (km/s) = 5.16572 5.75297 5.46724
#
# Compressibility (1/GPa) = 0.03343499
#
# Stress axis : x y z
#
# Youngs Moduli (GPa) = 95.91354 95.91354 60.43034
#
# Poissons Ratio (x) = 0.15672 0.01053
# Poissons Ratio (y) = 0.15672 0.01053
# Poissons Ratio (z) = 0.01672 0.01672
#
# Static dielectric constant tensor:
#      x y z
#    x 1.841330 0.000000 0.000000 
#    y 0.000000 1.841330 0.000000 
#    z 0.000000 0.000000 1.747360 
# 
# From -- ./inp_files/4026.got.cif
#   From: 2010.05.17/outbox.cif.g08.bks.cpg/sg171_3_cif.got.tgz:4026.got - 2010.05.20 11:16:09.
