data_PCOD9580856
_publ_section_title
;
Structure prediction by ZEFSAII (Michael W. Deem and Ramdas Pophale) SiO2 
 PCOD9580856
Probable space group: P 62
;
_chemical_formula_sum "Si O2"
_cell_formula_units_Z 36
_cell_length_a 12.313063
_cell_length_b 12.313063
_cell_length_c 11.936664
_cell_angle_alpha 90.000000
_cell_angle_beta 90.000000
_cell_angle_gamma 120.000000
_cell_volume 1567.277158
_symmetry_space_group_name_H-M "P 62"
_symmetry_group_IT_number 171
_symmetry_cell_setting 'hexagonal'
loop_
_space_group_symop_operation_xyz
x,y,z
x-y,x,1/3+z
-y,x-y,2/3+z
-x,-y,z
-x+y,-x,1/3+z
y,-x+y,2/3+z
loop_
_atom_site_type_symbol
_atom_site_label
_atom_site_fract_x
_atom_site_fract_y
_atom_site_fract_z
Si Si1 0.169291 0.341151 0.605850
Si Si2 0.264013 0.226321 0.900222
Si Si3 0.223899 0.611200 0.975578
Si Si4 0.869188 0.994658 0.779225
Si Si5 0.459900 0.603500 0.900854
Si Si6 0.354485 0.245594 0.527034
O O1 0.263074 0.491709 0.597317
O O2 0.261294 0.284971 0.582586
O O3 0.107463 0.328218 0.727841
O O4 0.061318 0.253084 0.518651
O O5 0.227801 0.152612 0.784529
O O6 0.407076 0.272790 0.919342
O O7 0.222022 0.330787 0.899400
O O8 0.172794 0.125173 0.989832
O O9 0.356646 0.615297 0.972125
O O10 0.141025 0.493157 0.894777
O O11 0.169866 0.581726 0.102655
O O12 0.000000 0.000000 0.806426
O O13 0.500000 0.500000 0.928382
#
# Coordination Sequence:
#
# PCOD9580856 Si02
#       6
#     6   6   6   6   6   6
#     4  12  26  45  74 111 150 202 255 327 388 477
#     4  12  25  43  72 109 144 200 250 315 392 471
#     4  12  25  48  74 111 148 200 263 318 389 464
#     4  12  26  44  69 108 156 194 246 317 393 462
#     4  12  26  49  78 109 150 204 260 324 389 479
#     4  12  23  45  77 104 149 195 266 318 387 474
#
# _framework density 22.969774999999998
#
# number of rings (size 3 to 8) (size 9 to 14) (size 15 to 20)
#    0.000    0.000    5.000    6.000    2.333    0.000 
#    0.000    0.833    0.000    0.000    0.000    0.000 
#    0.000    0.000    0.000    0.000    0.000    0.000 
#
# Total GULP energy -200947.998638 kJ/mol
# GULP energy per Si atom -5581.888851 kJ/mol
# Density = 2.291749 g / cm^3
# Si number density = 22.969775 Si / 1000 Ang^3
#
#
#
# Elastic Constant Matrix: (Units=GPa)
#
#
# Indices 1 2 3 4 5 6 
#
# 1 107.6139 26.8826 14.2797 0.0000 0.0000 0.0000
# 2 26.8826 107.6139 14.2797 0.0000 0.0000 0.0000
# 3 14.2797 14.2797 77.5909 0.0000 0.0000 0.0000
# 4 0.0000 0.0000 0.0000 21.0922 0.0000 0.0000
# 5 0.0000 0.0000 0.0000 0.0000 21.0922 0.0000
# 6 0.0000 0.0000 0.0000 0.0000 0.0000 40.3656
#
#
#
# Elastic Compliance Matrix: (Units=1/GPa)
#
#
# Indices 1 2 3 4 5 6 
#
# 1 0.010062 -0.002325 -0.001424 0.000000 0.000000 0.000000
# 2 -0.002325 0.010062 -0.001424 0.000000 0.000000 0.000000
# 3 -0.001424 -0.001424 0.013412 0.000000 0.000000 0.000000
# 4 0.000000 0.000000 0.000000 0.047411 0.000000 0.000000
# 5 0.000000 0.000000 0.000000 0.000000 0.047411 0.000000
# 6 0.000000 0.000000 0.000000 0.000000 0.000000 0.024774
#
#
# Mechanical properties :
#
#
# Convention : Reuss Voigt Hill
#
# Bulk Modulus (GPa) = 43.11965 44.85585 43.98775
# Shear Modulus (GPa) = 29.20430 32.33511 30.76971
#
# Velocity S-wave (km/s) = 3.56957 3.75604 3.66399
# Velocity P-wave (km/s) = 5.98349 6.19524 6.09029
#
# Compressibility (1/GPa) = 0.02319128
#
# Stress axis : x y z
#
# Youngs Moduli (GPa) = 99.38241 99.38241 74.55871
#
# Poissons Ratio (x) = 0.23103 0.10617
# Poissons Ratio (y) = 0.23103 0.10617
# Poissons Ratio (z) = 0.14152 0.14152
#
# Static dielectric constant tensor:
#      x y z
#    x 1.900050 0.000000 0.000000 
#    y 0.000000 1.900050 0.000000 
#    z 0.000000 0.000000 1.861310 
# 
# From -- ./inp_files/1936.got.cif
#   From: 2010.05.17/outbox.cif.g08.bks.cpg/sg171_1_cif.got.tgz:1936.got - 2010.05.20 11:16:09.
