data_PCOD9580309
_publ_section_title
;
Structure prediction by ZEFSAII (Michael W. Deem and Ramdas Pophale) SiO2 
 PCOD9580309
Probable space group: P 65
;
_chemical_formula_sum "Si O2"
_cell_formula_units_Z 24
_cell_length_a 7.540313
_cell_length_b 7.540313
_cell_length_c 17.485312
_cell_angle_alpha 90.000000
_cell_angle_beta 90.000000
_cell_angle_gamma 120.000000
_cell_volume 860.959585
_symmetry_space_group_name_H-M "P 65"
_symmetry_group_IT_number 170
_symmetry_cell_setting 'hexagonal'
loop_
_space_group_symop_operation_xyz
x,y,z
x-y,x,5/6+z
-y,x-y,2/3+z
-x,-y,1/2+z
-x+y,-x,1/3+z
y,-x+y,1/6+z
loop_
_atom_site_type_symbol
_atom_site_label
_atom_site_fract_x
_atom_site_fract_y
_atom_site_fract_z
Si Si1 0.474135 0.737067 0.765010
Si Si2 0.920716 0.402919 0.348879
Si Si3 0.920717 0.517798 0.181141
Si Si4 1.000000 0.958961 0.015010
O O1 0.557157 0.970615 0.741965
O O2 0.557157 0.586541 0.788055
O O3 0.320776 0.695848 0.836701
O O4 0.320776 0.624927 0.693319
O O5 0.996306 0.498152 0.265010
O O6 0.959093 0.213371 0.361066
O O7 0.959095 0.745723 0.168954
O O8 0.032928 0.065857 0.098344
#
# Coordination Sequence:
#
# PCOD9580309 Si02
#       4
#     6   6   6   6
#     4  10  22  48  64 108 142 196 256 304 390 464
#     4  10  23  45  67 106 148 199 253 315 390 453
#     4  10  23  45  67 106 148 199 253 315 390 453
#     4  12  22  46  78 108 152 202 260 318 388 470
#
# _framework density 27.875872000000001
#
# number of rings (size 3 to 8) (size 9 to 14) (size 15 to 20)
#    1.500    0.000    5.000    0.000    0.000    2.000 
#   18.000    0.000    0.000    0.000    0.000    0.000 
#    0.000    0.000    0.000    0.000    0.000    0.000 
#
# Total GULP energy -133870.172857 kJ/mol
# GULP energy per Si atom -5577.923869 kJ/mol
# Density = 2.781243 g / cm^3
# Si number density = 27.875872 Si / 1000 Ang^3
#
#
#
# Elastic Constant Matrix: (Units=GPa)
#
#
# Indices 1 2 3 4 5 6 
#
# 1 109.2792 42.8680 54.4003 0.0000 0.0000 0.0000
# 2 42.8680 109.2792 54.4003 0.0000 0.0000 0.0000
# 3 54.4003 54.4003 190.3112 0.0000 0.0000 0.0000
# 4 0.0000 0.0000 0.0000 41.8260 0.0000 0.0000
# 5 0.0000 0.0000 0.0000 0.0000 41.8260 0.0000
# 6 0.0000 0.0000 0.0000 0.0000 0.0000 33.2056
#
#
#
# Elastic Compliance Matrix: (Units=1/GPa)
#
#
# Indices 1 2 3 4 5 6 
#
# 1 0.011659 -0.003398 -0.002361 0.000000 0.000000 0.000000
# 2 -0.003398 0.011659 -0.002361 0.000000 0.000000 0.000000
# 3 -0.002361 -0.002361 0.006605 0.000000 0.000000 0.000000
# 4 0.000000 0.000000 0.000000 0.023909 0.000000 0.000000
# 5 0.000000 0.000000 0.000000 0.000000 0.023909 0.000000
# 6 0.000000 0.000000 0.000000 0.000000 0.000000 0.030115
#
#
# Mechanical properties :
#
#
# Convention : Reuss Voigt Hill
#
# Bulk Modulus (GPa) = 73.09276 79.13409 76.11342
# Shear Modulus (GPa) = 38.86247 40.51827 39.69037
#
# Velocity S-wave (km/s) = 3.73785 3.81665 3.77745
# Velocity P-wave (km/s) = 6.70122 6.91896 6.81096
#
# Compressibility (1/GPa) = 0.01368125
#
# Stress axis : x y z
#
# Youngs Moduli (GPa) = 85.76705 85.76705 151.40943
#
# Poissons Ratio (x) = 0.29145 0.35755
# Poissons Ratio (y) = 0.29145 0.35755
# Poissons Ratio (z) = 0.20254 0.20254
#
# Static dielectric constant tensor:
#      x y z
#    x 2.342390 0.000000 0.000000 
#    y 0.000000 2.342390 0.000000 
#    z 0.000000 0.000000 2.175570 
# 
# From -- ./inp_files/1508.got.cif
#   From: 2010.05.17/outbox.cif.g08.bks.cpg/sg170_cif.got.tgz:1508.got - 2010.05.20 11:14:30.
