data_PCOD9580827
_publ_section_title
;
Structure prediction by ZEFSAII (Michael W. Deem and Ramdas Pophale) SiO2 
 PCOD9580827
Probable space group: P 62
;
_chemical_formula_sum "Si O2"
_cell_formula_units_Z 42
_cell_length_a 13.738041
_cell_length_b 13.738041
_cell_length_c 10.885876
_cell_angle_alpha 90.000000
_cell_angle_beta 90.000000
_cell_angle_gamma 120.000000
_cell_volume 1779.277271
_symmetry_space_group_name_H-M "P 62"
_symmetry_group_IT_number 171
_symmetry_cell_setting 'hexagonal'
loop_
_space_group_symop_operation_xyz
x,y,z
x-y,x,1/3+z
-y,x-y,2/3+z
-x,-y,z
-x+y,-x,1/3+z
y,-x+y,2/3+z
loop_
_atom_site_type_symbol
_atom_site_label
_atom_site_fract_x
_atom_site_fract_y
_atom_site_fract_z
Si Si1 0.262275 0.716943 0.533980
Si Si2 0.028529 0.805970 0.044292
Si Si3 0.835591 0.127283 0.595907
Si Si4 0.623658 0.771027 0.549942
Si Si5 0.923347 0.711910 0.542302
Si Si6 0.385834 0.879444 0.007277
Si Si7 0.390674 0.515836 0.962676
O O1 0.237626 0.818966 0.550404
O O2 0.217313 0.633354 0.649254
O O3 0.396445 0.789988 0.528212
O O4 0.188378 0.632368 0.426181
O O5 0.950616 0.797913 0.158918
O O6 0.147114 0.851170 0.111061
O O7 0.950938 0.684220 0.982572
O O8 0.082265 0.876805 0.919845
O O9 0.791650 0.072186 0.728101
O O10 0.956708 0.236123 0.606107
O O11 0.530928 0.662848 0.477842
O O12 0.590581 0.858810 0.607944
O O13 0.865371 0.580501 0.582440
O O14 0.500000 0.000000 0.989172
O O15 0.500000 0.500000 0.961481
#
# Coordination Sequence:
#
# PCOD9580827 Si02
#       7
#     6   6   6   6   6   6   6
#     4  12  25  43  72 106 141 196 249 305 373 456
#     4  11  24  46  72 102 147 189 243 302 376 451
#     4  12  24  44  74 103 143 194 247 308 375 454
#     4  11  25  48  70 107 148 197 241 312 383 447
#     4  11  25  44  72 107 144 194 247 312 381 445
#     4  11  23  45  72 108 147 188 251 313 378 456
#     4  12  27  47  72 107 149 195 253 309 378 458
#
# _framework density 23.605089
#
# number of rings (size 3 to 8) (size 9 to 14) (size 15 to 20)
#    0.000    0.571    2.857    5.571    2.000    0.000 
#    5.143    7.143    0.000    0.000    0.000    0.000 
#    0.000    0.000    0.000    0.000    0.000    0.000 
#
# Total GULP energy -233841.485220 kJ/mol
# GULP energy per Si atom -5567.654410 kJ/mol
# Density = 2.355136 g / cm^3
# Si number density = 23.605089 Si / 1000 Ang^3
#
#
#
# Elastic Constant Matrix: (Units=GPa)
#
#
# Indices 1 2 3 4 5 6 
#
# 1 65.9452 -2.9002 19.3657 0.0000 0.0000 0.0000
# 2 -2.9002 65.9452 19.3657 0.0000 0.0000 0.0000
# 3 19.3657 19.3657 92.6252 0.0000 0.0000 0.0000
# 4 0.0000 0.0000 0.0000 33.2177 0.0000 0.0000
# 5 0.0000 0.0000 0.0000 0.0000 33.2177 0.0000
# 6 0.0000 0.0000 0.0000 0.0000 0.0000 34.4227
#
#
#
# Elastic Compliance Matrix: (Units=1/GPa)
#
#
# Indices 1 2 3 4 5 6 
#
# 1 0.016362 0.001837 -0.003805 0.000000 0.000000 0.000000
# 2 0.001837 0.016362 -0.003805 0.000000 0.000000 0.000000
# 3 -0.003805 -0.003805 0.012387 0.000000 0.000000 0.000000
# 4 0.000000 0.000000 0.000000 0.030104 0.000000 0.000000
# 5 0.000000 0.000000 0.000000 0.000000 0.030104 0.000000
# 6 0.000000 0.000000 0.000000 0.000000 0.000000 0.029051
#
#
# Mechanical properties :
#
#
# Convention : Reuss Voigt Hill
#
# Bulk Modulus (GPa) = 29.79232 32.90867 31.35049
# Shear Modulus (GPa) = 31.82567 32.75060 32.28813
#
# Velocity S-wave (km/s) = 3.67584 3.72887 3.70245
# Velocity P-wave (km/s) = 5.53753 5.70184 5.62029
#
# Compressibility (1/GPa) = 0.03356570
#
# Stress axis : x y z
#
# Youngs Moduli (GPa) = 61.11620 61.11620 80.72802
#
# Poissons Ratio (x) = -0.11227 0.30717
# Poissons Ratio (y) = -0.11227 0.30717
# Poissons Ratio (z) = 0.23255 0.23255
#
# Static dielectric constant tensor:
#      x y z
#    x 1.948280 0.000000 0.000000 
#    y 0.000000 1.948280 0.000000 
#    z 0.000000 0.000000 2.177970 
# 
# From -- ./inp_files/1660.got.cif
#   From: 2010.05.17/outbox.cif.g08.bks.cpg/sg171_1_cif.got.tgz:1660.got - 2010.05.20 11:16:09.
