data_PCOD9580174
_publ_section_title
;
Structure prediction by ZEFSAII (Michael W. Deem and Ramdas Pophale) SiO2 
 PCOD9580174
Probable space group: P 65
;
_chemical_formula_sum "Si O2"
_cell_formula_units_Z 36
_cell_length_a 9.083899
_cell_length_b 9.083899
_cell_length_c 25.943377
_cell_angle_alpha 90.000000
_cell_angle_beta 90.000000
_cell_angle_gamma 120.000000
_cell_volume 1853.965858
_symmetry_space_group_name_H-M "P 65"
_symmetry_group_IT_number 170
_symmetry_cell_setting 'hexagonal'
loop_
_space_group_symop_operation_xyz
x,y,z
x-y,x,5/6+z
-y,x-y,2/3+z
-x,-y,1/2+z
-x+y,-x,1/3+z
y,-x+y,1/6+z
loop_
_atom_site_type_symbol
_atom_site_label
_atom_site_fract_x
_atom_site_fract_y
_atom_site_fract_z
Si Si1 0.316220 0.859093 0.875000
Si Si2 0.612904 0.547482 0.564597
Si Si3 0.065422 0.452519 0.112520
Si Si4 0.519394 0.340004 0.975273
Si Si5 0.140906 0.683779 0.968783
Si Si6 0.519395 0.179390 0.535177
O O1 0.568243 0.066661 0.776080
O O2 0.262636 0.692987 0.841719
O O3 0.321092 0.999999 0.838558
O O4 0.188999 0.811000 0.921892
O O5 0.790368 0.580735 0.588558
O O6 0.615214 0.651004 0.513686
O O7 0.506326 0.345097 0.549965
O O8 0.161229 0.654904 0.127152
O O9 0.933338 0.431757 0.067703
O O10 0.964209 0.348997 0.163430
O O11 0.555220 0.444780 0.921892
O O12 0.307012 0.737364 0.002065
#
# Coordination Sequence:
#
# PCOD9580174 Si02
#       6
#     6   6   6   6   6   6
#     4  10  18  33  57  83 110 148 188 226 276 338
#     4  10  20  35  55  85 115 142 189 233 278 330
#     4  10  20  35  55  85 115 142 189 233 278 330
#     4  10  20  34  57  88 111 146 186 233 277 339
#     4  10  18  33  57  83 110 148 188 226 276 338
#     4  10  20  34  57  88 111 146 186 233 277 339
#
# _framework density 19.417833999999999
#
# number of rings (size 3 to 8) (size 9 to 14) (size 15 to 20)
#    0.000    2.000    6.667    0.000    0.000    4.000 
#    0.000    0.000    0.000    8.000   17.333    0.000 
#    0.000    0.000    0.000    0.000    0.000    0.000 
#
# Total GULP energy -200516.529365 kJ/mol
# GULP energy per Si atom -5569.903593 kJ/mol
# Density = 1.937364 g / cm^3
# Si number density = 19.417834 Si / 1000 Ang^3
#
#
#
# Elastic Constant Matrix: (Units=GPa)
#
#
# Indices 1 2 3 4 5 6 
#
# 1 53.9650 11.6524 32.5547 0.0000 0.0000 0.0000
# 2 11.6524 53.9650 32.5547 0.0000 0.0000 0.0000
# 3 32.5547 32.5547 144.2616 0.0000 0.0000 0.0000
# 4 0.0000 0.0000 0.0000 35.4631 0.0000 0.0000
# 5 0.0000 0.0000 0.0000 0.0000 35.4631 0.0000
# 6 0.0000 0.0000 0.0000 0.0000 0.0000 21.1563
#
#
#
# Elastic Compliance Matrix: (Units=1/GPa)
#
#
# Indices 1 2 3 4 5 6 
#
# 1 0.021635 -0.001998 -0.004431 0.000000 0.000000 0.000000
# 2 -0.001998 0.021635 -0.004431 0.000000 0.000000 0.000000
# 3 -0.004431 -0.004431 0.008932 0.000000 0.000000 0.000000
# 4 0.000000 0.000000 0.000000 0.028198 0.000000 0.000000
# 5 0.000000 0.000000 0.000000 0.000000 0.028198 0.000000
# 6 0.000000 0.000000 0.000000 0.000000 0.000000 0.047267
#
#
# Mechanical properties :
#
#
# Convention : Reuss Voigt Hill
#
# Bulk Modulus (GPa) = 32.80815 45.07946 38.94380
# Shear Modulus (GPa) = 26.63138 30.11181 28.37159
#
# Velocity S-wave (km/s) = 3.70738 3.94220 3.82659
# Velocity P-wave (km/s) = 5.93791 6.63228 6.29468
#
# Compressibility (1/GPa) = 0.03048023
#
# Stress axis : x y z
#
# Youngs Moduli (GPa) = 46.22087 46.22087 111.95898
#
# Poissons Ratio (x) = 0.09237 0.49613
# Poissons Ratio (y) = 0.09237 0.49613
# Poissons Ratio (z) = 0.20482 0.20482
#
# Static dielectric constant tensor:
#      x y z
#    x 1.704220 0.000000 0.000000 
#    y 0.000000 1.704220 0.000000 
#    z 0.000000 0.000000 1.744420 
# 
# From -- ./inp_files/1535.got.cif
#   From: 2010.05.17/outbox.cif.g08.bks.cpg/sg170_cif.got.tgz:1535.got - 2010.05.20 11:14:30.
