data_PCOD9580684
_publ_section_title
;
Structure prediction by ZEFSAII (Michael W. Deem and Ramdas Pophale) SiO2 
 PCOD9580684
Probable space group: P 62
;
_chemical_formula_sum "Si O2"
_cell_formula_units_Z 39
_cell_length_a 13.930028
_cell_length_b 13.930028
_cell_length_c 10.109595
_cell_angle_alpha 90.000000
_cell_angle_beta 90.000000
_cell_angle_gamma 120.000000
_cell_volume 1698.902159
_symmetry_space_group_name_H-M "P 62"
_symmetry_group_IT_number 171
_symmetry_cell_setting 'hexagonal'
loop_
_space_group_symop_operation_xyz
x,y,z
x-y,x,1/3+z
-y,x-y,2/3+z
-x,-y,z
-x+y,-x,1/3+z
y,-x+y,2/3+z
loop_
_atom_site_type_symbol
_atom_site_label
_atom_site_fract_x
_atom_site_fract_y
_atom_site_fract_z
Si Si1 0.449301 0.688923 0.900690
Si Si2 0.000000 0.000000 0.175802
Si Si3 0.533502 0.783125 0.612841
Si Si4 0.927702 0.378229 0.665455
Si Si5 0.223420 0.944968 0.115971
Si Si6 0.071769 0.210618 0.504812
Si Si7 0.624576 0.649476 0.042629
O O1 0.509842 0.732660 0.760437
O O2 0.324664 0.588479 0.883715
O O3 0.464867 0.798882 0.974008
O O4 0.513649 0.641819 0.988066
O O5 0.096384 0.138065 0.178171
O O6 0.000000 0.000000 0.342435
O O7 0.622708 0.763008 0.538444
O O8 0.590683 0.916340 0.619932
O O9 0.000000 0.500000 0.725384
O O10 0.950344 0.295390 0.752831
O O11 0.983718 0.386262 0.521927
O O12 0.154422 0.003618 0.165495
O O13 0.173735 0.895010 0.973849
O O14 0.065144 0.286779 0.394098
#
# Coordination Sequence:
#
# PCOD9580684 Si02
#       7
#     6   3   6   6   6   6   6
#     4  11  23  48  71 103 137 187 246 308 382 467
#     4  12  26  42  72 112 156 220 274 320 394 470
#     4  11  27  41  74 103 141 186 244 311 384 463
#     4  10  22  44  71  92 131 181 233 288 371 450
#     4  11  25  44  63 109 139 190 231 311 373 449
#     4  11  24  43  69 103 153 195 252 308 380 469
#     4  10  22  44  70  96 138 191 241 294 368 458
#
# _framework density 22.956
#
# number of rings (size 3 to 8) (size 9 to 14) (size 15 to 20)
#    0.000    1.231    3.077    2.308    6.462    0.000 
#    2.769    0.000    0.000    0.000    0.000    0.000 
#    0.000    0.000    0.000    0.000    0.000    0.000 
#
# Total GULP energy -217139.929592 kJ/mol
# GULP energy per Si atom -5567.690502 kJ/mol
# Density = 2.290375 g / cm^3
# Si number density = 22.956000 Si / 1000 Ang^3
#
#
#
# Elastic Constant Matrix: (Units=GPa)
#
#
# Indices 1 2 3 4 5 6 
#
# 1 108.6440 38.6524 25.8079 0.0000 0.0000 0.0000
# 2 38.6524 108.6440 25.8079 0.0000 0.0000 0.0000
# 3 25.8079 25.8079 82.3648 0.0000 0.0000 0.0000
# 4 0.0000 0.0000 0.0000 32.1075 0.0000 0.0000
# 5 0.0000 0.0000 0.0000 0.0000 32.1075 0.0000
# 6 0.0000 0.0000 0.0000 0.0000 0.0000 34.9958
#
#
#
# Elastic Compliance Matrix: (Units=1/GPa)
#
#
# Indices 1 2 3 4 5 6 
#
# 1 0.010957 -0.003331 -0.002390 0.000000 0.000000 0.000000
# 2 -0.003331 0.010957 -0.002390 0.000000 0.000000 0.000000
# 3 -0.002390 -0.002390 0.013639 0.000000 0.000000 0.000000
# 4 0.000000 0.000000 0.000000 0.031145 0.000000 0.000000
# 5 0.000000 0.000000 0.000000 0.000000 0.031145 0.000000
# 6 0.000000 0.000000 0.000000 0.000000 0.000000 0.028575
#
#
# Mechanical properties :
#
#
# Convention : Reuss Voigt Hill
#
# Bulk Modulus (GPa) = 51.72526 53.35436 52.53981
# Shear Modulus (GPa) = 33.53862 33.80114 33.66988
#
# Velocity S-wave (km/s) = 3.82644 3.84139 3.83392
# Velocity P-wave (km/s) = 6.48872 6.55496 6.52192
#
# Compressibility (1/GPa) = 0.01933291
#
# Stress axis : x y z
#
# Youngs Moduli (GPa) = 91.26650 91.26650 73.32110
#
# Poissons Ratio (x) = 0.30396 0.17521
# Poissons Ratio (y) = 0.30396 0.17521
# Poissons Ratio (z) = 0.21809 0.21809
#
# Static dielectric constant tensor:
#      x y z
#    x 1.486870 0.000000 0.000000 
#    y 0.000000 1.486870 0.000000 
#    z 0.000000 0.000000 1.924090 
# 
# From -- ./inp_files/1636.got.cif
#   From: 2010.05.17/outbox.cif.g08.bks.cpg/sg171_1_cif.got.tgz:1636.got - 2010.05.20 11:16:09.
