data_PCOD9580492
_publ_section_title
;
Structure prediction by ZEFSAII (Michael W. Deem and Ramdas Pophale) SiO2 
 PCOD9580492
Probable space group: P 62
;
_chemical_formula_sum "Si O2"
_cell_formula_units_Z 39
_cell_length_a 11.545522
_cell_length_b 11.545522
_cell_length_c 17.732439
_cell_angle_alpha 90.000000
_cell_angle_beta 90.000000
_cell_angle_gamma 120.000000
_cell_volume 2047.039640
_symmetry_space_group_name_H-M "P 62"
_symmetry_group_IT_number 171
_symmetry_cell_setting 'hexagonal'
loop_
_space_group_symop_operation_xyz
x,y,z
x-y,x,1/3+z
-y,x-y,2/3+z
-x,-y,z
-x+y,-x,1/3+z
y,-x+y,2/3+z
loop_
_atom_site_type_symbol
_atom_site_label
_atom_site_fract_x
_atom_site_fract_y
_atom_site_fract_z
Si Si1 0.141395 0.003889 0.229010
Si Si2 0.296637 0.983599 0.942913
Si Si3 0.523784 0.380623 0.163319
Si Si4 0.696537 0.872905 0.081674
Si Si5 0.224537 0.328528 0.004652
Si Si6 0.500000 0.000000 0.591433
Si Si7 0.188156 0.425422 0.162418
O O1 0.240728 0.137101 0.275121
O O2 0.198949 0.032147 0.144239
O O3 0.138045 0.877686 0.268791
O O4 0.000000 0.000000 0.229390
O O5 0.337991 0.103872 0.881085
O O6 0.356772 0.894052 0.913674
O O7 0.341936 0.047959 0.023429
O O8 0.500000 0.500000 0.132819
O O9 0.432706 0.243853 0.121653
O O10 0.677631 0.431513 0.159249
O O11 0.752604 0.790935 0.035225
O O12 0.366446 0.452984 0.976097
O O13 0.165508 0.367964 0.077337
O O14 0.369138 0.919551 0.538456
#
# Coordination Sequence:
#
# PCOD9580492 Si02
#       7
#     6   6   6   6   6   3   6
#     4  11  22  33  55  96 129 167 199 263 337 387
#     4  10  20  34  60  96 122 161 213 269 323 388
#     4   9  18  36  62  89 119 164 221 272 307 375
#     4  11  20  35  60  92 131 164 214 268 326 396
#     4  12  23  40  64  90 134 169 216 273 326 398
#     4  12  26  44  70  98 122 180 234 262 336 400
#     4  11  22  42  66  93 124 167 227 277 322 392
#
# _framework density 19.051901000000001
#
# number of rings (size 3 to 8) (size 9 to 14) (size 15 to 20)
#    0.000    1.231    7.692    0.923    2.154    0.000 
#    0.000    4.615    6.769    0.000    0.000    0.000 
#    0.000    0.000    0.000    0.000    0.000    0.000 
#
# Total GULP energy -217492.519069 kJ/mol
# GULP energy per Si atom -5576.731258 kJ/mol
# Density = 1.900854 g / cm^3
# Si number density = 19.051901 Si / 1000 Ang^3
#
#
#
# Elastic Constant Matrix: (Units=GPa)
#
#
# Indices 1 2 3 4 5 6 
#
# 1 56.0991 3.6205 27.9676 0.0000 0.0000 0.0000
# 2 3.6205 56.0991 27.9676 0.0000 0.0000 0.0000
# 3 27.9676 27.9676 105.1307 0.0000 0.0000 0.0000
# 4 0.0000 0.0000 0.0000 21.7073 0.0000 0.0000
# 5 0.0000 0.0000 0.0000 0.0000 21.7073 0.0000
# 6 0.0000 0.0000 0.0000 0.0000 0.0000 26.2393
#
#
#
# Elastic Compliance Matrix: (Units=1/GPa)
#
#
# Indices 1 2 3 4 5 6 
#
# 1 0.020679 0.001623 -0.005933 0.000000 0.000000 0.000000
# 2 0.001623 0.020679 -0.005933 0.000000 0.000000 0.000000
# 3 -0.005933 -0.005933 0.012669 0.000000 0.000000 0.000000
# 4 0.000000 0.000000 0.000000 0.046067 0.000000 0.000000
# 5 0.000000 0.000000 0.000000 0.000000 0.046067 0.000000
# 6 0.000000 0.000000 0.000000 0.000000 0.000000 0.038111
#
#
# Mechanical properties :
#
#
# Convention : Reuss Voigt Hill
#
# Bulk Modulus (GPa) = 29.81453 37.38226 33.59839
# Shear Modulus (GPa) = 23.15495 24.44902 23.80199
#
# Velocity S-wave (km/s) = 3.48999 3.58618 3.53841
# Velocity P-wave (km/s) = 5.65005 6.06725 5.86236
#
# Compressibility (1/GPa) = 0.03354069
#
# Stress axis : x y z
#
# Youngs Moduli (GPa) = 48.35919 48.35919 78.93548
#
# Poissons Ratio (x) = -0.07850 0.46831
# Poissons Ratio (y) = -0.07850 0.46831
# Poissons Ratio (z) = 0.28691 0.28691
#
# Static dielectric constant tensor:
#      x y z
#    x 1.679140 0.000000 0.000000 
#    y 0.000000 1.679140 0.000000 
#    z 0.000000 0.000000 1.714330 
# 
# From -- ./inp_files/4998.got.cif
#   From: 2010.05.17/outbox.cif.g08.bks.cpg/sg171_3_cif.got.tgz:4998.got - 2010.05.20 11:16:09.
