data_PCOD9580890
_publ_section_title
;
Structure prediction by ZEFSAII (Michael W. Deem and Ramdas Pophale) SiO2 
 PCOD9580890
Probable space group: P 62
;
_chemical_formula_sum "Si O2"
_cell_formula_units_Z 21
_cell_length_a 15.000000
_cell_length_b 15.000000
_cell_length_c 5.000000
_cell_angle_alpha 90.000000
_cell_angle_beta 90.000000
_cell_angle_gamma 120.000000
_cell_volume 974.278579
_symmetry_space_group_name_H-M "P 62"
_symmetry_group_IT_number 171
_symmetry_cell_setting 'hexagonal'
loop_
_space_group_symop_operation_xyz
x,y,z
x-y,x,1/3+z
-y,x-y,2/3+z
-x,-y,z
-x+y,-x,1/3+z
y,-x+y,2/3+z
loop_
_atom_site_type_symbol
_atom_site_label
_atom_site_fract_x
_atom_site_fract_y
_atom_site_fract_z
Si Si1 0.296850 0.308013 0.492690
Si Si2 0.500000 0.500000 0.383425
Si Si3 0.225179 0.648781 0.497369
Si Si4 0.646793 0.854718 0.637629
O O1 0.411948 0.402849 0.535818
O O2 0.298073 0.213027 0.635836
O O3 0.225537 0.333864 0.668289
O O4 0.259194 0.310608 0.188439
O O5 0.436108 0.544550 0.231853
O O6 0.280680 0.588833 0.384598
O O7 0.210257 0.733211 0.334606
#
# Coordination Sequence:
#
# PCOD9580890 Si02
#       4
#     6   3   6   6
#     4  11  25  45  68 104 134 188 226 291 343 419
#     4  10  26  40  70  96 146 184 240 280 350 408
#     4  11  26  42  67  99 143 190 234 289 341 422
#     4  11  26  42  74  97 146 177 235 285 349 411
#
# _framework density 21.554410000000001
#
# number of rings (size 3 to 8) (size 9 to 14) (size 15 to 20)
#    0.000    1.143    0.000    3.429   28.000    1.143 
#    0.000    0.000    0.000    8.571    0.000    0.000 
#    0.000    0.000    0.000    0.000    0.000    0.000 
#
# Total GULP energy -116908.778237 kJ/mol
# GULP energy per Si atom -5567.084678 kJ/mol
# Density = 2.150535 g / cm^3
# Si number density = 21.554410 Si / 1000 Ang^3
#
#
#
# Elastic Constant Matrix: (Units=GPa)
#
#
# Indices 1 2 3 4 5 6 
#
# 1 111.9974 7.0312 12.8674 0.0000 0.0000 0.0000
# 2 7.0312 111.9974 12.8674 0.0000 0.0000 0.0000
# 3 12.8674 12.8674 16.2026 0.0000 0.0000 0.0000
# 4 0.0000 0.0000 0.0000 27.7929 0.0000 0.0000
# 5 0.0000 0.0000 0.0000 0.0000 27.7929 0.0000
# 6 0.0000 0.0000 0.0000 0.0000 0.0000 52.4831
#
#
#
# Elastic Compliance Matrix: (Units=1/GPa)
#
#
# Indices 1 2 3 4 5 6 
#
# 1 0.009835 0.000308 -0.008055 0.000000 0.000000 0.000000
# 2 0.000308 0.009835 -0.008055 0.000000 0.000000 0.000000
# 3 -0.008055 -0.008055 0.074512 0.000000 0.000000 0.000000
# 4 0.000000 0.000000 0.000000 0.035980 0.000000 0.000000
# 5 0.000000 0.000000 0.000000 0.000000 0.035980 0.000000
# 6 0.000000 0.000000 0.000000 0.000000 0.000000 0.019054
#
#
# Mechanical properties :
#
#
# Convention : Reuss Voigt Hill
#
# Bulk Modulus (GPa) = 15.98004 33.96995 24.97499
# Shear Modulus (GPa) = 21.03843 35.44254 28.24049
#
# Velocity S-wave (km/s) = 3.12759 4.05943 3.62359
# Velocity P-wave (km/s) = 4.52463 6.14543 5.39623
#
# Compressibility (1/GPa) = 0.06257806
#
# Stress axis : x y z
#
# Youngs Moduli (GPa) = 101.67889 101.67889 13.42058
#
# Poissons Ratio (x) = -0.03132 0.10810
# Poissons Ratio (y) = -0.03132 0.10810
# Poissons Ratio (z) = 0.81903 0.81903
#
# Static dielectric constant tensor:
#      x y z
#    x 1.727740 0.000000 0.000000 
#    y 0.000000 1.727740 0.000000 
#    z 0.000000 0.000000 1.844620 
# 
# From -- ./inp_files/160.got.cif
#   From: 2010.05.17/outbox.ucp.g08.bks.cvg/sg171_1_cif.got.tgz:160.got - 2010.06.11 15:18:14.
