data_PCOD9580256
_publ_section_title
;
Structure prediction by ZEFSAII (Michael W. Deem and Ramdas Pophale) SiO2 
 PCOD9580256
Probable space group: P 65
;
_chemical_formula_sum "Si O2"
_cell_formula_units_Z 36
_cell_length_a 14.962379
_cell_length_b 14.962379
_cell_length_c 7.764545
_cell_angle_alpha 90.000000
_cell_angle_beta 90.000000
_cell_angle_gamma 120.000000
_cell_volume 1505.386252
_symmetry_space_group_name_H-M "P 65"
_symmetry_group_IT_number 170
_symmetry_cell_setting 'hexagonal'
loop_
_space_group_symop_operation_xyz
x,y,z
x-y,x,5/6+z
-y,x-y,2/3+z
-x,-y,1/2+z
-x+y,-x,1/3+z
y,-x+y,1/6+z
loop_
_atom_site_type_symbol
_atom_site_label
_atom_site_fract_x
_atom_site_fract_y
_atom_site_fract_z
Si Si1 0.331210 0.721852 0.629390
Si Si2 0.978339 0.481737 0.268284
Si Si3 0.471910 0.272453 0.969766
Si Si4 0.391758 0.060444 0.905840
Si Si5 0.963396 0.788379 0.923656
Si Si6 0.609930 0.715897 0.817545
O O1 0.272705 0.621505 0.501498
O O2 0.440771 0.745544 0.553839
O O3 0.297128 0.802996 0.573005
O O4 0.867605 0.474716 0.257930
O O5 0.982624 0.429463 0.446266
O O6 0.049239 0.605349 0.246358
O O7 0.010957 0.413624 0.149796
O O8 0.390080 0.251441 0.121603
O O9 0.420360 0.174586 0.844541
O O10 0.269340 0.994156 0.891696
O O11 0.915177 0.707528 0.764090
O O12 0.066551 0.885873 0.845856
#
# Coordination Sequence:
#
# PCOD9580256 Si02
#       6
#     6   6   6   6   6   6
#     4  10  21  38  63 104 150 195 239 289 361 461
#     4  11  21  41  68 103 158 199 240 303 362 456
#     4  11  21  41  66 107 150 199 249 289 372 454
#     4  11  23  43  75 109 150 202 246 303 383 458
#     4  11  27  53  75 106 137 190 263 331 397 452
#     4  10  23  44  67 107 149 193 243 309 385 453
#
# _framework density 23.914127000000001
#
# number of rings (size 3 to 8) (size 9 to 14) (size 15 to 20)
#    0.000    1.333    3.333    2.000    0.000    8.000 
#    3.000    0.000    0.000    0.000    0.000    0.000 
#    0.000    0.000    0.000    0.000    0.000    0.000 
#
# Total GULP energy -200465.602893 kJ/mol
# GULP energy per Si atom -5568.488969 kJ/mol
# Density = 2.385970 g / cm^3
# Si number density = 23.914127 Si / 1000 Ang^3
#
#
#
# Elastic Constant Matrix: (Units=GPa)
#
#
# Indices 1 2 3 4 5 6 
#
# 1 131.3568 57.3647 33.2299 0.0000 0.0000 0.0000
# 2 57.3647 131.3568 33.2299 0.0000 0.0000 0.0000
# 3 33.2299 33.2299 38.4176 0.0000 0.0000 0.0000
# 4 0.0000 0.0000 0.0000 29.4441 0.0000 0.0000
# 5 0.0000 0.0000 0.0000 0.0000 29.4441 0.0000
# 6 0.0000 0.0000 0.0000 0.0000 0.0000 36.9961
#
#
#
# Elastic Compliance Matrix: (Units=1/GPa)
#
#
# Indices 1 2 3 4 5 6 
#
# 1 0.010567 -0.002948 -0.006591 0.000000 0.000000 0.000000
# 2 -0.002948 0.010567 -0.006591 0.000000 0.000000 0.000000
# 3 -0.006591 -0.006591 0.037432 0.000000 0.000000 0.000000
# 4 0.000000 0.000000 0.000000 0.033963 0.000000 0.000000
# 5 0.000000 0.000000 0.000000 0.000000 0.033963 0.000000
# 6 0.000000 0.000000 0.000000 0.000000 0.000000 0.027030
#
#
# Mechanical properties :
#
#
# Convention : Reuss Voigt Hill
#
# Bulk Modulus (GPa) = 38.01178 60.97555 49.49367
# Shear Modulus (GPa) = 25.70038 30.99729 28.34884
#
# Velocity S-wave (km/s) = 3.28181 3.60417 3.44676
# Velocity P-wave (km/s) = 5.50363 6.54776 6.04827
#
# Compressibility (1/GPa) = 0.02630763
#
# Stress axis : x y z
#
# Youngs Moduli (GPa) = 94.63062 94.63062 26.71543
#
# Poissons Ratio (x) = 0.27893 0.17608
# Poissons Ratio (y) = 0.27893 0.17608
# Poissons Ratio (z) = 0.62370 0.62370
#
# Static dielectric constant tensor:
#      x y z
#    x 2.063070 0.000000 0.000000 
#    y 0.000000 2.063070 0.000000 
#    z 0.000000 0.000000 2.187720 
# 
# From -- ./inp_files/595.got.cif
#   From: 2010.05.17/outbox.cif.g08.bks.cpg/sg170_cif.got.tgz:595.got - 2010.05.20 11:14:30.
