data_PCOD9580613
_publ_section_title
;
Structure prediction by ZEFSAII (Michael W. Deem and Ramdas Pophale) SiO2 
 PCOD9580613
Probable space group: P 62
;
_chemical_formula_sum "Si O2"
_cell_formula_units_Z 39
_cell_length_a 8.493982
_cell_length_b 8.493982
_cell_length_c 30.780546
_cell_angle_alpha 90.000000
_cell_angle_beta 90.000000
_cell_angle_gamma 120.000000
_cell_volume 1923.222909
_symmetry_space_group_name_H-M "P 62"
_symmetry_group_IT_number 171
_symmetry_cell_setting 'hexagonal'
loop_
_space_group_symop_operation_xyz
x,y,z
x-y,x,1/3+z
-y,x-y,2/3+z
-x,-y,z
-x+y,-x,1/3+z
y,-x+y,2/3+z
loop_
_atom_site_type_symbol
_atom_site_label
_atom_site_fract_x
_atom_site_fract_y
_atom_site_fract_z
Si Si1 0.892382 0.781368 0.313940
Si Si2 0.000000 0.000000 0.459346
Si Si3 0.796149 0.086097 0.853775
Si Si4 0.500000 0.500000 0.671681
Si Si5 0.500000 0.000000 0.788037
Si Si6 0.819059 0.685491 0.059318
Si Si7 0.137462 0.429510 0.233687
Si Si8 0.527394 0.730046 0.274991
O O1 0.956260 0.699771 0.275290
O O2 0.676845 0.704088 0.303839
O O3 0.960996 0.743655 0.359540
O O4 0.000000 0.000000 0.310673
O O5 0.888519 0.054677 0.427559
O O6 0.127379 0.160694 0.491661
O O7 0.665680 0.112958 0.820832
O O8 0.833647 0.187890 0.899188
O O9 0.686583 0.869750 0.866104
O O10 0.389641 0.318263 0.699630
O O11 0.633629 0.472583 0.640396
O O12 0.464269 0.125242 0.755584
O O13 0.339549 0.577116 0.252228
O O14 0.000000 0.500000 0.219425
#
# Coordination Sequence:
#
# PCOD9580613 Si02
#       8
#     6   3   6   3   3   6   6   6
#     4  11  21  40  63  94 128 171 222 265 339 402
#     4  10  22  40  68  84 126 184 216 252 316 404
#     4  10  21  43  65  92 123 174 218 265 329 403
#     4  12  24  40  64 102 133 157 224 284 336 394
#     4  10  22  44  60  84 127 175 220 256 324 390
#     4  11  23  42  64  93 128 180 219 273 328 398
#     4  11  24  39  66  97 132 170 215 283 346 392
#     4  11  23  40  65  97 133 166 213 287 337 396
#
# _framework density 20.278459999999999
#
# number of rings (size 3 to 8) (size 9 to 14) (size 15 to 20)
#    0.000    1.231    3.846    2.308    7.538    0.000 
#    5.538    1.538    0.000    0.000    0.000    0.000 
#    0.000    0.000    0.000    0.000    0.000    0.000 
#
# Total GULP energy -217299.648407 kJ/mol
# GULP energy per Si atom -5571.785857 kJ/mol
# Density = 2.023231 g / cm^3
# Si number density = 20.278460 Si / 1000 Ang^3
#
#
#
# Elastic Constant Matrix: (Units=GPa)
#
#
# Indices 1 2 3 4 5 6 
#
# 1 64.0924 19.4251 34.5524 0.0000 0.0000 0.0000
# 2 19.4251 64.0924 34.5524 0.0000 0.0000 0.0000
# 3 34.5524 34.5524 140.0089 0.0000 0.0000 0.0000
# 4 0.0000 0.0000 0.0000 160.1132 0.0000 0.0000
# 5 0.0000 0.0000 0.0000 0.0000 160.1132 0.0000
# 6 0.0000 0.0000 0.0000 0.0000 0.0000 22.3337
#
#
#
# Elastic Compliance Matrix: (Units=1/GPa)
#
#
# Indices 1 2 3 4 5 6 
#
# 1 0.018717 -0.003671 -0.003713 0.000000 0.000000 0.000000
# 2 -0.003671 0.018717 -0.003713 0.000000 0.000000 0.000000
# 3 -0.003713 -0.003713 0.008975 0.000000 0.000000 0.000000
# 4 0.000000 0.000000 0.000000 0.006246 0.000000 0.000000
# 5 0.000000 0.000000 0.000000 0.000000 0.006246 0.000000
# 6 0.000000 0.000000 0.000000 0.000000 0.000000 0.044775
#
#
# Mechanical properties :
#
#
# Convention : Reuss Voigt Hill
#
# Bulk Modulus (GPa) = 41.29780 49.47260 45.38520
# Shear Modulus (GPa) = 37.32982 80.48959 58.90971
#
# Velocity S-wave (km/s) = 4.29518 6.30701 5.39569
# Velocity P-wave (km/s) = 6.70877 8.80269 7.82608
#
# Compressibility (1/GPa) = 0.02421437
#
# Stress axis : x y z
#
# Youngs Moduli (GPa) = 53.42791 53.42791 111.41933
#
# Poissons Ratio (x) = 0.19613 0.41371
# Poissons Ratio (y) = 0.19613 0.41371
# Poissons Ratio (z) = 0.19838 0.19838
#
# Static dielectric constant tensor:
#      x y z
#    x 1.780800 0.000000 0.000000 
#    y 0.000000 1.780800 0.000000 
#    z 0.000000 0.000000 1.678670 
# 
# From -- ./inp_files/6103.got.cif
#   From: 2010.05.17/outbox.cif.g08.bks.cpg/sg171_4_cif.got.tgz:6103.got - 2010.05.20 11:16:09.
