data_PCOD9580970
_publ_section_title
;
Structure prediction by ZEFSAII (Michael W. Deem and Ramdas Pophale) SiO2 
 PCOD9580970
Probable space group: P 64
;
_chemical_formula_sum "Si O2"
_cell_formula_units_Z 24
_cell_length_a 14.432807
_cell_length_b 14.432807
_cell_length_c 5.124934
_cell_angle_alpha 90.000000
_cell_angle_beta 90.000000
_cell_angle_gamma 120.000000
_cell_volume 924.528954
_symmetry_space_group_name_H-M "P 64"
_symmetry_group_IT_number 172
_symmetry_cell_setting 'hexagonal'
loop_
_space_group_symop_operation_xyz
x,y,z
x-y,x,2/3+z
-y,x-y,1/3+z
-x,-y,z
-x+y,-x,2/3+z
y,-x+y,1/3+z
loop_
_atom_site_type_symbol
_atom_site_label
_atom_site_fract_x
_atom_site_fract_y
_atom_site_fract_z
Si Si1 0.537851 0.125744 0.047710
Si Si2 0.649097 0.826770 0.983741
Si Si3 0.113770 0.214840 0.143175
Si Si4 0.885497 0.493688 0.882981
O O1 0.443471 0.143705 0.952235
O O2 0.581195 0.175454 0.328531
O O3 0.500000 0.000000 0.090665
O O4 0.628619 0.167015 0.830805
O O5 0.723697 0.904995 0.217753
O O6 0.600202 0.709142 0.110394
O O7 0.699637 0.830215 0.701721
O O8 0.145028 0.143154 0.324739
O O9 0.000000 0.500000 0.923436
#
# Coordination Sequence:
#
# PCOD9580970 Si02
#       4
#     6   6   6   6
#     4  10  23  42  73 109 159 199 266 330 398 482
#     4  12  26  48  83 118 160 230 269 334 434 518
#     4  12  30  52  85 118 162 210 292 348 429 502
#     4  10  23  42  73 109 159 199 266 330 398 482
#
# _framework density 25.959164000000001
#
# number of rings (size 3 to 8) (size 9 to 14) (size 15 to 20)
#    0.000    1.000    0.000    4.500   21.000    0.000 
#    4.500    8.750    0.000    0.000    0.000    0.000 
#    0.000    0.000    0.000    0.000    0.000    0.000 
#
# Total GULP energy -134028.167850 kJ/mol
# GULP energy per Si atom -5584.506994 kJ/mol
# Density = 2.590008 g / cm^3
# Si number density = 25.959164 Si / 1000 Ang^3
#
#
#
# Elastic Constant Matrix: (Units=GPa)
#
#
# Indices 1 2 3 4 5 6 
#
# 1 97.1532 21.3238 19.3525 0.0000 0.0000 0.0000
# 2 21.3238 97.1532 19.3525 0.0000 0.0000 0.0000
# 3 19.3525 19.3525 204.3074 0.0000 0.0000 0.0000
# 4 0.0000 0.0000 0.0000 29.7726 0.0000 0.0000
# 5 0.0000 0.0000 0.0000 0.0000 29.7726 0.0000
# 6 0.0000 0.0000 0.0000 0.0000 0.0000 37.9147
#
#
#
# Elastic Compliance Matrix: (Units=1/GPa)
#
#
# Indices 1 2 3 4 5 6 
#
# 1 0.010949 -0.002239 -0.000825 0.000000 0.000000 0.000000
# 2 -0.002239 0.010949 -0.000825 0.000000 0.000000 0.000000
# 3 -0.000825 -0.000825 0.005051 0.000000 0.000000 0.000000
# 4 0.000000 0.000000 0.000000 0.033588 0.000000 0.000000
# 5 0.000000 0.000000 0.000000 0.000000 0.033588 0.000000
# 6 0.000000 0.000000 0.000000 0.000000 0.000000 0.026375
#
#
# Mechanical properties :
#
#
# Convention : Reuss Voigt Hill
#
# Bulk Modulus (GPa) = 52.16283 57.63012 54.89648
# Shear Modulus (GPa) = 37.12862 42.06434 39.59648
#
# Velocity S-wave (km/s) = 3.78599 4.02979 3.90979
# Velocity P-wave (km/s) = 6.26494 6.62577 6.44788
#
# Compressibility (1/GPa) = 0.01917074
#
# Stress axis : x y z
#
# Youngs Moduli (GPa) = 91.33473 91.33473 197.98519
#
# Poissons Ratio (x) = 0.20448 0.16334
# Poissons Ratio (y) = 0.20448 0.16334
# Poissons Ratio (z) = 0.07535 0.07535
#
# Static dielectric constant tensor:
#      x y z
#    x 2.727580 0.000000 0.000000 
#    y 0.000000 2.727580 0.000000 
#    z 0.000000 0.000000 2.106140 
# 
# From -- ./inp_files/137.got.cif
#   From: 2010.05.17/outbox.cif.g08.bks.cpg/sg172_1_cif.got.tgz:137.got - 2010.05.20 11:19:57.
