data_PCOD9580598
_publ_section_title
;
Structure prediction by ZEFSAII (Michael W. Deem and Ramdas Pophale) SiO2 
 PCOD9580598
Probable space group: P 62
;
_chemical_formula_sum "Si O2"
_cell_formula_units_Z 36
_cell_length_a 8.912956
_cell_length_b 8.912956
_cell_length_c 21.794775
_cell_angle_alpha 90.000000
_cell_angle_beta 90.000000
_cell_angle_gamma 120.000000
_cell_volume 1499.431212
_symmetry_space_group_name_H-M "P 62"
_symmetry_group_IT_number 171
_symmetry_cell_setting 'hexagonal'
loop_
_space_group_symop_operation_xyz
x,y,z
x-y,x,1/3+z
-y,x-y,2/3+z
-x,-y,z
-x+y,-x,1/3+z
y,-x+y,2/3+z
loop_
_atom_site_type_symbol
_atom_site_label
_atom_site_fract_x
_atom_site_fract_y
_atom_site_fract_z
Si Si1 0.165919 0.640196 0.997860
Si Si2 0.674608 0.507793 0.905121
Si Si3 0.014888 0.182618 0.646199
Si Si4 0.638679 0.473065 0.159773
Si Si5 0.327012 0.484985 0.406988
Si Si6 0.194060 0.133887 0.844916
O O1 0.202887 0.522461 0.950923
O O2 0.129409 0.789170 0.973476
O O3 0.000000 0.500000 0.035938
O O4 0.343829 0.748985 0.032713
O O5 0.500000 0.500000 0.933043
O O6 0.598339 0.339133 0.863779
O O7 0.773508 0.676602 0.862059
O O8 0.919079 0.236670 0.696756
O O9 0.931384 0.149490 0.578582
O O10 0.000000 0.000000 0.663381
O O11 0.500000 0.500000 0.198190
O O12 0.512927 0.317479 0.115194
O O13 0.796036 0.655734 0.135832
O O14 0.500000 0.500000 0.438477
O O15 0.000000 0.000000 0.823967
#
# Coordination Sequence:
#
# PCOD9580598 Si02
#       6
#     6   6   6   6   6   6
#     4  11  22  37  64  96 126 162 208 262 316 376
#     4  10  22  40  64  91 125 164 210 263 313 372
#     4  10  21  42  69  96 126 164 218 277 328 383
#     4  11  24  40  60  88 126 170 210 258 320 388
#     4  10  24  43  62  89 129 171 212 262 320 388
#     4  10  21  40  67  96 125 163 216 274 325 383
#
# _framework density 24.009105000000002
#
# number of rings (size 3 to 8) (size 9 to 14) (size 15 to 20)
#    0.000    1.667    0.000    5.000    0.000    8.667 
#    0.000    7.500    0.000    2.000    0.000    0.000 
#    0.000    0.000    0.000    0.000    0.000    0.000 
#
# Total GULP energy -201059.266027 kJ/mol
# GULP energy per Si atom -5584.979612 kJ/mol
# Density = 2.395446 g / cm^3
# Si number density = 24.009105 Si / 1000 Ang^3
#
#
#
# Elastic Constant Matrix: (Units=GPa)
#
#
# Indices 1 2 3 4 5 6 
#
# 1 178.2333 76.2619 25.1054 0.0000 0.0000 0.0000
# 2 76.2619 178.2333 25.1054 0.0000 0.0000 0.0000
# 3 25.1054 25.1054 23.6601 0.0000 0.0000 0.0000
# 4 0.0000 0.0000 0.0000 53.8345 0.0000 0.0000
# 5 0.0000 0.0000 0.0000 0.0000 53.8345 0.0000
# 6 0.0000 0.0000 0.0000 0.0000 0.0000 50.9857
#
#
#
# Elastic Compliance Matrix: (Units=1/GPa)
#
#
# Indices 1 2 3 4 5 6 
#
# 1 0.007388 -0.002418 -0.005273 0.000000 0.000000 0.000000
# 2 -0.002418 0.007388 -0.005273 0.000000 0.000000 0.000000
# 3 -0.005273 -0.005273 0.053456 0.000000 0.000000 0.000000
# 4 0.000000 0.000000 0.000000 0.018575 0.000000 0.000000
# 5 0.000000 0.000000 0.000000 0.000000 0.018575 0.000000
# 6 0.000000 0.000000 0.000000 0.000000 0.000000 0.019613
#
#
# Mechanical properties :
#
#
# Convention : Reuss Voigt Hill
#
# Bulk Modulus (GPa) = 23.63936 70.34136 46.99036
# Shear Modulus (GPa) = 30.29790 48.64119 39.46954
#
# Velocity S-wave (km/s) = 3.55622 4.50594 4.05895
# Velocity P-wave (km/s) = 5.17008 7.51217 6.44835
#
# Compressibility (1/GPa) = 0.04230234
#
# Stress axis : x y z
#
# Youngs Moduli (GPa) = 135.35067 135.35067 18.70691
#
# Poissons Ratio (x) = 0.32734 0.09865
# Poissons Ratio (y) = 0.32734 0.09865
# Poissons Ratio (z) = 0.71375 0.71375
#
# Static dielectric constant tensor:
#      x y z
#    x 1.968110 0.000000 0.000000 
#    y 0.000000 1.968110 0.000000 
#    z 0.000000 0.000000 1.966880 
# 
# From -- ./inp_files/5770.got.cif
#   From: 2010.05.17/outbox.cif.g08.bks.cpg/sg171_3_cif.got.tgz:5770.got - 2010.05.20 11:16:09.
