data_PCOD9580859
_publ_section_title
;
Structure prediction by ZEFSAII (Michael W. Deem and Ramdas Pophale) SiO2 
 PCOD9580859
Probable space group: P 62
;
_chemical_formula_sum "Si O2"
_cell_formula_units_Z 24
_cell_length_a 8.110300
_cell_length_b 8.110300
_cell_length_c 19.970195
_cell_angle_alpha 90.000000
_cell_angle_beta 90.000000
_cell_angle_gamma 120.000000
_cell_volume 1137.592645
_symmetry_space_group_name_H-M "P 62"
_symmetry_group_IT_number 171
_symmetry_cell_setting 'hexagonal'
loop_
_space_group_symop_operation_xyz
x,y,z
x-y,x,1/3+z
-y,x-y,2/3+z
-x,-y,z
-x+y,-x,1/3+z
y,-x+y,2/3+z
loop_
_atom_site_type_symbol
_atom_site_label
_atom_site_fract_x
_atom_site_fract_y
_atom_site_fract_z
Si Si1 0.785186 0.339896 0.485470
Si Si2 0.163153 0.203486 0.837805
Si Si3 0.710830 0.595344 0.589873
Si Si4 0.699980 0.185981 0.059153
O O1 0.707113 0.446927 0.534290
O O2 0.681582 0.307872 0.413849
O O3 0.000000 0.500000 0.476004
O O4 0.781643 0.150941 0.515960
O O5 0.199520 0.347138 0.778637
O O6 0.042437 0.239890 0.895449
O O7 0.000000 0.000000 0.812374
O O8 0.500000 0.500000 0.618508
O O9 0.835562 0.593375 0.651164
O O10 0.500000 0.000000 0.073967
#
# Coordination Sequence:
#
# PCOD9580859 Si02
#       4
#     6   6   6   6
#     4  12  23  47  72 104 147 191 239 310 368 442
#     4  12  24  45  73 103 144 186 241 304 366 447
#     4  12  25  46  71 106 144 195 245 305 377 444
#     4  12  25  48  73 105 147 190 242 307 374 447
#
# _framework density 21.097183999999999
#
# number of rings (size 3 to 8) (size 9 to 14) (size 15 to 20)
#    0.000    0.000    7.500    3.000    0.000    1.000 
#    9.000    0.000    0.000    0.000    0.000    0.000 
#    0.000    0.000    0.000    0.000    0.000    0.000 
#
# Total GULP energy -133793.067429 kJ/mol
# GULP energy per Si atom -5574.711143 kJ/mol
# Density = 2.104917 g / cm^3
# Si number density = 21.097184 Si / 1000 Ang^3
#
#
#
# Elastic Constant Matrix: (Units=GPa)
#
#
# Indices 1 2 3 4 5 6 
#
# 1 118.2239 36.6411 23.5465 0.0000 0.0000 0.0000
# 2 36.6411 118.2239 23.5465 0.0000 0.0000 0.0000
# 3 23.5465 23.5465 88.1435 0.0000 0.0000 0.0000
# 4 0.0000 0.0000 0.0000 115.9413 0.0000 0.0000
# 5 0.0000 0.0000 0.0000 0.0000 115.9413 0.0000
# 6 0.0000 0.0000 0.0000 0.0000 0.0000 40.7914
#
#
#
# Elastic Compliance Matrix: (Units=1/GPa)
#
#
# Indices 1 2 3 4 5 6 
#
# 1 0.009643 -0.002615 -0.001877 0.000000 0.000000 0.000000
# 2 -0.002615 0.009643 -0.001877 0.000000 0.000000 0.000000
# 3 -0.001877 -0.001877 0.012348 0.000000 0.000000 0.000000
# 4 0.000000 0.000000 0.000000 0.008625 0.000000 0.000000
# 5 0.000000 0.000000 0.000000 0.000000 0.008625 0.000000
# 6 0.000000 0.000000 0.000000 0.000000 0.000000 0.024515
#
#
# Mechanical properties :
#
#
# Convention : Reuss Voigt Hill
#
# Bulk Modulus (GPa) = 52.92519 54.67328 53.79924
# Shear Modulus (GPa) = 54.09121 70.59193 62.34157
#
# Velocity S-wave (km/s) = 5.06900 5.79077 5.44186
# Velocity P-wave (km/s) = 7.70717 8.40725 8.06481
#
# Compressibility (1/GPa) = 0.01889459
#
# Stress axis : x y z
#
# Youngs Moduli (GPa) = 103.70403 103.70403 80.98324
#
# Poissons Ratio (x) = 0.27115 0.15205
# Poissons Ratio (y) = 0.27115 0.15205
# Poissons Ratio (z) = 0.19470 0.19470
#
# Static dielectric constant tensor:
#      x y z
#    x 1.504500 0.000000 0.000000 
#    y 0.000000 1.504500 0.000000 
#    z 0.000000 0.000000 1.749300 
# 
# From -- ./inp_files/2759.got.cif
#   From: 2010.05.17/outbox.cif.g08.bks.cpg/sg171_2_cif.got.tgz:2759.got - 2010.05.20 11:16:09.
