data_PCOD9580387
_publ_section_title
;
Structure prediction by ZEFSAII (Michael W. Deem and Ramdas Pophale) SiO2 
 PCOD9580387
Probable space group: P 65
;
_chemical_formula_sum "Si O2"
_cell_formula_units_Z 48
_cell_length_a 11.660884
_cell_length_b 11.660884
_cell_length_c 16.663048
_cell_angle_alpha 90.000000
_cell_angle_beta 90.000000
_cell_angle_gamma 120.000000
_cell_volume 1962.221488
_symmetry_space_group_name_H-M "P 65"
_symmetry_group_IT_number 170
_symmetry_cell_setting 'hexagonal'
loop_
_space_group_symop_operation_xyz
x,y,z
x-y,x,5/6+z
-y,x-y,2/3+z
-x,-y,1/2+z
-x+y,-x,1/3+z
y,-x+y,1/6+z
loop_
_atom_site_type_symbol
_atom_site_label
_atom_site_fract_x
_atom_site_fract_y
_atom_site_fract_z
Si Si1 0.916800 0.608923 0.882400
Si Si2 0.129684 0.801146 0.998328
Si Si3 0.910596 0.374190 0.236116
Si Si4 0.427415 0.694501 0.527400
Si Si5 0.025740 0.606123 0.124416
Si Si6 0.501632 0.835852 0.807796
Si Si7 0.123775 0.020108 0.105644
Si Si8 0.391284 0.270935 0.166288
O O1 0.777352 0.600705 0.880751
O O2 0.886571 0.473458 0.927717
O O3 0.975094 0.606866 0.796490
O O4 0.020896 0.743506 0.928546
O O5 0.119931 0.887626 0.071739
O O6 0.098306 0.664692 0.040769
O O7 0.271720 0.900279 0.961444
O O8 0.821394 0.420981 0.287668
O O9 0.965636 0.460301 0.157297
O O10 0.282166 0.678507 0.531207
O O11 0.484489 0.663152 0.605475
O O12 0.533154 0.848349 0.514901
O O13 0.559140 0.772015 0.744517
O O14 0.626595 0.965116 0.843298
O O15 0.055643 0.989189 0.193360
O O16 0.269775 0.140871 0.124799
#
# Coordination Sequence:
#
# PCOD9580387 Si02
#       8
#     6   6   6   6   6   6   6   6
#     4  11  26  47  71 111 157 199 258 327 410 480
#     4  12  24  42  76 119 152 196 277 333 404 492
#     4  11  25  49  71 112 154 206 254 327 406 476
#     4  11  24  43  71 115 150 202 261 319 412 472
#     4  12  24  44  76 117 154 199 264 330 392 493
#     4  11  27  46  73 111 159 204 264 343 413 496
#     4  12  25  45  81 121 160 216 282 348 411 503
#     4  12  23  48  79 112 162 208 280 339 412 508
#
# _framework density 24.462069
#
# number of rings (size 3 to 8) (size 9 to 14) (size 15 to 20)
#    0.000    0.500    6.250    1.500    1.750    0.000 
#   15.750    1.250    2.750    0.000    0.000    0.000 
#    0.000    0.000    0.000    0.000    0.000    0.000 
#
# Total GULP energy -268534.911951 kJ/mol
# GULP energy per Si atom -5594.477332 kJ/mol
# Density = 2.440639 g / cm^3
# Si number density = 24.462069 Si / 1000 Ang^3
#
#
#
# Elastic Constant Matrix: (Units=GPa)
#
#
# Indices 1 2 3 4 5 6 
#
# 1 132.0420 72.5785 63.5538 0.0000 0.0000 0.0000
# 2 72.5785 132.0420 63.5538 0.0000 0.0000 0.0000
# 3 63.5538 63.5538 81.8326 0.0000 0.0000 0.0000
# 4 0.0000 0.0000 0.0000 37.8635 0.0000 0.0000
# 5 0.0000 0.0000 0.0000 0.0000 37.8635 0.0000
# 6 0.0000 0.0000 0.0000 0.0000 0.0000 29.7317
#
#
#
# Elastic Compliance Matrix: (Units=1/GPa)
#
#
# Indices 1 2 3 4 5 6 
#
# 1 0.013130 -0.003687 -0.007333 0.000000 0.000000 0.000000
# 2 -0.003687 0.013130 -0.007333 0.000000 0.000000 0.000000
# 3 -0.007333 -0.007333 0.023611 0.000000 0.000000 0.000000
# 4 0.000000 0.000000 0.000000 0.026411 0.000000 0.000000
# 5 0.000000 0.000000 0.000000 0.000000 0.026411 0.000000
# 6 0.000000 0.000000 0.000000 0.000000 0.000000 0.033634
#
#
# Mechanical properties :
#
#
# Convention : Reuss Voigt Hill
#
# Bulk Modulus (GPa) = 75.97457 82.80988 79.39223
# Shear Modulus (GPa) = 28.18156 30.84042 29.51099
#
# Velocity S-wave (km/s) = 3.39787 3.55455 3.47709
# Velocity P-wave (km/s) = 6.82053 7.12547 6.97466
#
# Compressibility (1/GPa) = 0.01316230
#
# Stress axis : x y z
#
# Youngs Moduli (GPa) = 76.16285 76.16285 42.35374
#
# Poissons Ratio (x) = 0.28084 0.31059
# Poissons Ratio (y) = 0.28084 0.31059
# Poissons Ratio (z) = 0.55853 0.55853
#
# Static dielectric constant tensor:
#      x y z
#    x 1.962880 0.000000 0.000000 
#    y 0.000000 1.962880 0.000000 
#    z 0.000000 0.000000 1.973460 
# 
# From -- ./inp_files/1484.got.cif
#   From: 2010.05.17/outbox.cif.g08.bks.cpg/sg170_cif.got.tgz:1484.got - 2010.05.20 11:14:30.
