data_PCOD9580932
_publ_section_title
;
Structure prediction by ZEFSAII (Michael W. Deem and Ramdas Pophale) SiO2 
 PCOD9580932
Probable space group: P 64
;
_chemical_formula_sum "Si O2"
_cell_formula_units_Z 42
_cell_length_a 11.803329
_cell_length_b 11.803329
_cell_length_c 14.434868
_cell_angle_alpha 90.000000
_cell_angle_beta 90.000000
_cell_angle_gamma 120.000000
_cell_volume 1741.616272
_symmetry_space_group_name_H-M "P 64"
_symmetry_group_IT_number 172
_symmetry_cell_setting 'hexagonal'
loop_
_space_group_symop_operation_xyz
x,y,z
x-y,x,2/3+z
-y,x-y,1/3+z
-x,-y,z
-x+y,-x,2/3+z
y,-x+y,1/3+z
loop_
_atom_site_type_symbol
_atom_site_label
_atom_site_fract_x
_atom_site_fract_y
_atom_site_fract_z
Si Si1 0.015771 0.878864 0.868380
Si Si2 0.546883 0.140141 0.512841
Si Si3 0.276219 0.464254 0.937568
Si Si4 0.706483 0.428590 0.684611
Si Si5 0.194129 0.779064 0.006388
Si Si6 0.061167 0.289138 0.058028
Si Si7 0.694785 0.934635 0.092552
O O1 0.154256 0.937548 0.817537
O O2 0.908260 0.796009 0.789408
O O3 0.000000 0.000000 0.895644
O O4 0.986532 0.797849 0.963207
O O5 0.663283 0.158564 0.582394
O O6 0.634139 0.254198 0.443367
O O7 0.439113 0.153785 0.569826
O O8 0.500000 0.000000 0.467422
O O9 0.295063 0.380432 0.858272
O O10 0.400727 0.608293 0.944988
O O11 0.214442 0.385662 0.032430
O O12 0.553041 0.329747 0.678761
O O13 0.747139 0.578317 0.693988
O O14 0.061067 0.683731 0.064996
O O15 0.236661 0.924289 0.044404
#
# Coordination Sequence:
#
# PCOD9580932 Si02
#       7
#     6   6   6   6   6   6   6
#     4  11  23  42  66 103 134 178 235 287 354 422
#     4  10  20  40  68  96 129 176 233 278 328 420
#     4   9  21  40  66  95 132 177 228 275 340 414
#     4  10  23  41  68 100 134 183 234 281 342 419
#     4  11  22  42  68  96 140 178 227 293 348 409
#     4  11  23  40  68 100 133 179 232 293 352 413
#     4  10  22  44  67  95 141 180 223 294 351 414
#
# _framework density 24.115528999999999
#
# number of rings (size 3 to 8) (size 9 to 14) (size 15 to 20)
#    0.000    1.714    2.857    0.857    2.000    0.000 
#    0.000   22.857    0.000    0.000    0.000    0.000 
#    0.000    0.000    0.000    0.000    0.000    0.000 
#
# Total GULP energy -233948.246052 kJ/mol
# GULP energy per Si atom -5570.196335 kJ/mol
# Density = 2.406064 g / cm^3
# Si number density = 24.115529 Si / 1000 Ang^3
#
#
#
# Elastic Constant Matrix: (Units=GPa)
#
#
# Indices 1 2 3 4 5 6 
#
# 1 81.4644 26.4451 15.1779 0.0000 0.0000 0.0000
# 2 26.4451 81.4644 15.1779 0.0000 0.0000 0.0000
# 3 15.1779 15.1779 51.1279 0.0000 0.0000 0.0000
# 4 0.0000 0.0000 0.0000 23.9705 0.0000 0.0000
# 5 0.0000 0.0000 0.0000 0.0000 23.9705 0.0000
# 6 0.0000 0.0000 0.0000 0.0000 0.0000 27.5097
#
#
#
# Elastic Compliance Matrix: (Units=1/GPa)
#
#
# Indices 1 2 3 4 5 6 
#
# 1 0.014143 -0.004032 -0.003002 0.000000 0.000000 0.000000
# 2 -0.004032 0.014143 -0.003002 0.000000 0.000000 0.000000
# 3 -0.003002 -0.003002 0.021341 0.000000 0.000000 0.000000
# 4 0.000000 0.000000 0.000000 0.041718 0.000000 0.000000
# 5 0.000000 0.000000 0.000000 0.000000 0.041718 0.000000
# 6 0.000000 0.000000 0.000000 0.000000 0.000000 0.036351
#
#
# Mechanical properties :
#
#
# Convention : Reuss Voigt Hill
#
# Bulk Modulus (GPa) = 33.83287 36.40649 35.11968
# Shear Modulus (GPa) = 25.08306 25.57385 25.32846
#
# Velocity S-wave (km/s) = 3.22859 3.26002 3.24434
# Velocity P-wave (km/s) = 5.28756 5.41293 5.35061
#
# Compressibility (1/GPa) = 0.02955705
#
# Stress axis : x y z
#
# Youngs Moduli (GPa) = 70.70421 70.70421 46.85830
#
# Poissons Ratio (x) = 0.28508 0.14065
# Poissons Ratio (y) = 0.28508 0.14065
# Poissons Ratio (z) = 0.21223 0.21223
#
# Static dielectric constant tensor:
#      x y z
#    x 2.014080 0.000000 0.000000 
#    y 0.000000 2.014080 0.000000 
#    z 0.000000 0.000000 2.002450 
# 
# From -- ./inp_files/1642.got.cif
#   From: 2010.05.17/outbox.cif.g08.bks.cpg/sg172_1_cif.got.tgz:1642.got - 2010.05.20 11:19:57.
