data_PCOD9580031
_publ_section_title
;
Structure prediction by ZEFSAII (Michael W. Deem and Ramdas Pophale) SiO2 
 PCOD9580031
Probable space group: P 61
;
_chemical_formula_sum "Si O2"
_cell_formula_units_Z 48
_cell_length_a 15.414795
_cell_length_b 15.414795
_cell_length_c 10.978839
_cell_angle_alpha 90.000000
_cell_angle_beta 90.000000
_cell_angle_gamma 120.000000
_cell_volume 2259.240969
_symmetry_space_group_name_H-M "P 61"
_symmetry_group_IT_number 169
_symmetry_cell_setting 'hexagonal'
loop_
_space_group_symop_operation_xyz
x,y,z
x-y,x,1/6+z
-y,x-y,1/3+z
-x,-y,1/2+z
-x+y,-x,2/3+z
y,-x+y,5/6+z
loop_
_atom_site_type_symbol
_atom_site_label
_atom_site_fract_x
_atom_site_fract_y
_atom_site_fract_z
Si Si1 0.074317 0.598197 0.890070
Si Si2 0.241766 0.294974 0.078543
Si Si3 0.365285 0.761800 0.722880
Si Si4 0.722621 0.460037 0.133657
Si Si5 0.974788 0.822494 0.974392
Si Si6 0.366044 0.262175 0.882413
Si Si7 0.591819 0.960991 0.011428
Si Si8 0.370247 0.317019 0.430466
O O1 0.085768 0.681900 0.797695
O O2 0.010842 0.488960 0.831802
O O3 0.179095 0.617798 0.943696
O O4 0.010375 0.604546 0.002493
O O5 0.187619 0.222636 0.192610
O O6 0.163125 0.311524 0.001272
O O7 0.307960 0.260621 0.004144
O O8 0.301285 0.644650 0.692422
O O9 0.431577 0.768899 0.839251
O O10 0.305091 0.821339 0.740543
O O11 0.680447 0.523602 0.203013
O O12 0.840593 0.531612 0.119888
O O13 0.899123 0.851369 0.909964
O O14 0.926341 0.713522 0.037578
O O15 0.355437 0.335391 0.788859
O O16 0.655902 0.988658 0.887400
#
# Coordination Sequence:
#
# PCOD9580031 Si02
#       8
#     6   6   6   6   6   6   6   6
#     4  10  23  42  69  95 140 187 244 294 358 428
#     4  11  23  43  72 100 140 187 242 298 361 439
#     4  11  25  41  65 101 138 192 239 294 351 437
#     4  12  25  42  67  96 141 182 242 292 363 428
#     4  11  24  49  78 107 136 184 240 300 363 444
#     4  11  26  42  70 103 145 189 241 301 373 433
#     4  11  25  44  62 102 147 190 239 302 370 443
#     4  11  25  43  71 102 139 191 237 299 367 442
#
# _framework density 21.246074
#
# number of rings (size 3 to 8) (size 9 to 14) (size 15 to 20)
#    0.000    1.000    2.500    3.000   10.500    1.000 
#    0.000    2.500    0.000    0.000    0.000    0.000 
#    0.000    0.000    0.000    0.000    0.000    0.000 
#
# Total GULP energy -268457.292821 kJ/mol
# GULP energy per Si atom -5592.860267 kJ/mol
# Density = 2.119772 g / cm^3
# Si number density = 21.246074 Si / 1000 Ang^3
#
#
#
# Elastic Constant Matrix: (Units=GPa)
#
#
# Indices 1 2 3 4 5 6 
#
# 1 111.3274 75.7229 36.0047 0.0000 0.0000 0.0000
# 2 75.7229 111.3274 36.0047 0.0000 0.0000 0.0000
# 3 36.0047 36.0047 50.4080 0.0000 0.0000 0.0000
# 4 0.0000 0.0000 0.0000 22.2927 0.0000 0.0000
# 5 0.0000 0.0000 0.0000 0.0000 22.2927 0.0000
# 6 0.0000 0.0000 0.0000 0.0000 0.0000 17.8022
#
#
#
# Elastic Compliance Matrix: (Units=1/GPa)
#
#
# Indices 1 2 3 4 5 6 
#
# 1 0.017730 -0.010356 -0.005267 0.000000 0.000000 0.000000
# 2 -0.010356 0.017730 -0.005267 0.000000 0.000000 0.000000
# 3 -0.005267 -0.005267 0.027362 0.000000 0.000000 0.000000
# 4 0.000000 0.000000 0.000000 0.044858 0.000000 0.000000
# 5 0.000000 0.000000 0.000000 0.000000 0.044858 0.000000
# 6 0.000000 0.000000 0.000000 0.000000 0.000000 0.056173
#
#
# Mechanical properties :
#
#
# Convention : Reuss Voigt Hill
#
# Bulk Modulus (GPa) = 47.52365 63.16972 55.34669
# Shear Modulus (GPa) = 19.41716 20.83288 20.12502
#
# Velocity S-wave (km/s) = 3.02639 3.13477 3.08106
# Velocity P-wave (km/s) = 5.88462 6.54976 6.22608
#
# Compressibility (1/GPa) = 0.02104215
#
# Stress axis : x y z
#
# Youngs Moduli (GPa) = 56.40142 56.40142 36.54720
#
# Poissons Ratio (x) = 0.58411 0.19249
# Poissons Ratio (y) = 0.58411 0.19249
# Poissons Ratio (z) = 0.29705 0.29705
#
# Static dielectric constant tensor:
#      x y z
#    x 1.758400 0.000000 0.000000 
#    y 0.000000 1.758400 0.000000 
#    z 0.000000 0.000000 1.765890 
# 
# From -- ./inp_files/1035.got.cif
#   From: 2010.05.17/outbox.cif.g08.bks.cpg/sg169_cif.got.tgz:1035.got - 2010.05.20 11:12:54.
