data_PCOD9580653
_publ_section_title
;
Structure prediction by ZEFSAII (Michael W. Deem and Ramdas Pophale) SiO2 
 PCOD9580653
Probable space group: P 62
;
_chemical_formula_sum "Si O2"
_cell_formula_units_Z 33
_cell_length_a 16.438592
_cell_length_b 16.438592
_cell_length_c 6.142131
_cell_angle_alpha 90.000000
_cell_angle_beta 90.000000
_cell_angle_gamma 120.000000
_cell_volume 1437.404300
_symmetry_space_group_name_H-M "P 62"
_symmetry_group_IT_number 171
_symmetry_cell_setting 'hexagonal'
loop_
_space_group_symop_operation_xyz
x,y,z
x-y,x,1/3+z
-y,x-y,2/3+z
-x,-y,z
-x+y,-x,1/3+z
y,-x+y,2/3+z
loop_
_atom_site_type_symbol
_atom_site_label
_atom_site_fract_x
_atom_site_fract_y
_atom_site_fract_z
Si Si1 0.538529 0.691062 0.219670
Si Si2 0.102042 0.152947 0.847998
Si Si3 0.720790 0.432985 0.936731
Si Si4 0.000000 0.500000 0.547085
Si Si5 0.437767 0.142743 0.949377
Si Si6 0.234128 0.991524 0.875191
O O1 0.485668 0.673141 0.449571
O O2 0.508398 0.592345 0.099599
O O3 0.649435 0.736265 0.228616
O O4 0.521040 0.768595 0.107517
O O5 0.111492 0.075821 0.718982
O O6 0.051820 0.193977 0.694113
O O7 0.203210 0.218075 0.961493
O O8 0.633162 0.362558 0.785205
O O9 0.706539 0.513554 0.054007
O O10 0.061493 0.599111 0.669866
O O11 0.324422 0.089149 0.951619
#
# Coordination Sequence:
#
# PCOD9580653 Si02
#       6
#     6   6   6   3   6   6
#     4  11  23  44  68  99 142 183 236 302 369 447
#     4  12  25  43  65  93 128 171 223 278 343 419
#     4  12  24  42  71 101 140 195 245 298 372 454
#     4  10  22  40  66 100 136 178 236 298 360 450
#     4  11  23  44  68  99 142 183 236 302 369 447
#     4  11  26  44  70 103 136 180 234 299 368 432
#
# _framework density 22.958048999999999
#
# number of rings (size 3 to 8) (size 9 to 14) (size 15 to 20)
#    0.000    0.727    0.000    8.727    0.000    3.636 
#    0.000   15.455    0.000    0.000    0.000    0.000 
#    0.000    0.000    0.000    0.000    0.000    0.000 
#
# Total GULP energy -184185.276889 kJ/mol
# GULP energy per Si atom -5581.372027 kJ/mol
# Density = 2.290580 g / cm^3
# Si number density = 22.958049 Si / 1000 Ang^3
#
#
#
# Elastic Constant Matrix: (Units=GPa)
#
#
# Indices 1 2 3 4 5 6 
#
# 1 124.1234 18.7720 25.4139 0.0000 0.0000 0.0000
# 2 18.7720 124.1234 25.4139 0.0000 0.0000 0.0000
# 3 25.4139 25.4139 63.3674 0.0000 0.0000 0.0000
# 4 0.0000 0.0000 0.0000 27.9730 0.0000 0.0000
# 5 0.0000 0.0000 0.0000 0.0000 27.9730 0.0000
# 6 0.0000 0.0000 0.0000 0.0000 0.0000 52.6757
#
#
#
# Elastic Compliance Matrix: (Units=1/GPa)
#
#
# Indices 1 2 3 4 5 6 
#
# 1 0.008827 -0.000665 -0.003274 0.000000 0.000000 0.000000
# 2 -0.000665 0.008827 -0.003274 0.000000 0.000000 0.000000
# 3 -0.003274 -0.003274 0.018407 0.000000 0.000000 0.000000
# 4 0.000000 0.000000 0.000000 0.035749 0.000000 0.000000
# 5 0.000000 0.000000 0.000000 0.000000 0.035749 0.000000
# 6 0.000000 0.000000 0.000000 0.000000 0.000000 0.018984
#
#
# Mechanical properties :
#
#
# Convention : Reuss Voigt Hill
#
# Bulk Modulus (GPa) = 46.21637 50.09042 48.15340
# Shear Modulus (GPa) = 33.74284 37.85863 35.80074
#
# Velocity S-wave (km/s) = 3.83791 4.06524 3.95321
# Velocity P-wave (km/s) = 6.30982 6.62574 6.46971
#
# Compressibility (1/GPa) = 0.02163736
#
# Stress axis : x y z
#
# Youngs Moduli (GPa) = 113.28492 113.28492 54.32768
#
# Poissons Ratio (x) = 0.07531 0.17785
# Poissons Ratio (y) = 0.07531 0.17785
# Poissons Ratio (z) = 0.37085 0.37085
#
# Static dielectric constant tensor:
#      x y z
#    x 1.894080 0.000000 0.000000 
#    y 0.000000 1.894080 0.000000 
#    z 0.000000 0.000000 1.861210 
# 
# From -- ./inp_files/671.got.cif
#   From: 2010.05.17/outbox.cif.g08.bks.cpg/sg171_1_cif.got.tgz:671.got - 2010.05.20 11:16:09.
