data_PCOD9580991
_publ_section_title
;
Structure prediction by ZEFSAII (Michael W. Deem and Ramdas Pophale) SiO2 
 PCOD9580991
Probable space group: P 64
;
_chemical_formula_sum "Si O2"
_cell_formula_units_Z 33
_cell_length_a 19.626195
_cell_length_b 19.626195
_cell_length_c 5.437608
_cell_angle_alpha 90.000000
_cell_angle_beta 90.000000
_cell_angle_gamma 120.000000
_cell_volume 1813.889165
_symmetry_space_group_name_H-M "P 64"
_symmetry_group_IT_number 172
_symmetry_cell_setting 'hexagonal'
loop_
_space_group_symop_operation_xyz
x,y,z
x-y,x,2/3+z
-y,x-y,1/3+z
-x,-y,z
-x+y,-x,2/3+z
y,-x+y,1/3+z
loop_
_atom_site_type_symbol
_atom_site_label
_atom_site_fract_x
_atom_site_fract_y
_atom_site_fract_z
Si Si1 0.138642 0.578249 0.089540
Si Si2 0.350358 0.934096 0.478202
Si Si3 0.500000 0.500000 0.787947
Si Si4 0.782978 0.593326 0.760266
Si Si5 0.270480 0.677427 0.442977
Si Si6 0.893656 0.292701 0.919037
O O1 0.220689 0.614886 0.229886
O O2 0.071555 0.562122 0.290105
O O3 0.111700 0.492317 0.986731
O O4 0.134275 0.641362 0.911027
O O5 0.419473 0.966815 0.273540
O O6 0.261587 0.871989 0.403914
O O7 0.355693 0.011985 0.590831
O O8 0.731230 0.499180 0.792924
O O9 0.754834 0.613371 0.505497
O O10 0.761569 0.624019 0.008630
O O11 0.270013 0.628918 0.677451
#
# Coordination Sequence:
#
# PCOD9580991 Si02
#       6
#     6   6   3   6   6   6
#     4  11  23  34  56  81 107 156 205 248 305 353
#     4  12  23  39  63  82 116 162 203 254 306 371
#     4  12  20  38  60  84 104 162 210 244 302 358
#     4  11  28  38  61  87 113 153 204 254 307 354
#     4  11  24  36  49  74 113 150 194 257 312 348
#     4  11  24  44  56  86 116 145 206 255 296 366
#
# _framework density 18.192951999999998
#
# number of rings (size 3 to 8) (size 9 to 14) (size 15 to 20)
#    0.000    0.727    3.636    4.364   15.273    0.000 
#    0.000    0.000    0.000    0.000    0.000    0.000 
#    0.000    0.000    0.000    8.182    0.000    0.364 
#
# Total GULP energy -184495.396990 kJ/mol
# GULP energy per Si atom -5590.769606 kJ/mol
# Density = 1.815154 g / cm^3
# Si number density = 18.192952 Si / 1000 Ang^3
#
#
#
# Elastic Constant Matrix: (Units=GPa)
#
#
# Indices 1 2 3 4 5 6 
#
# 1 94.6878 32.6709 42.7926 0.0000 0.0000 0.0000
# 2 32.6709 94.6878 42.7926 0.0000 0.0000 0.0000
# 3 42.7926 42.7926 93.4848 0.0000 0.0000 0.0000
# 4 0.0000 0.0000 0.0000 13.8751 0.0000 0.0000
# 5 0.0000 0.0000 0.0000 0.0000 13.8751 0.0000
# 6 0.0000 0.0000 0.0000 0.0000 0.0000 31.0085
#
#
#
# Elastic Compliance Matrix: (Units=1/GPa)
#
#
# Indices 1 2 3 4 5 6 
#
# 1 0.013732 -0.002392 -0.005191 0.000000 0.000000 0.000000
# 2 -0.002392 0.013732 -0.005191 0.000000 0.000000 0.000000
# 3 -0.005191 -0.005191 0.015449 0.000000 0.000000 0.000000
# 4 0.000000 0.000000 0.000000 0.072071 0.000000 0.000000
# 5 0.000000 0.000000 0.000000 0.000000 0.072071 0.000000
# 6 0.000000 0.000000 0.000000 0.000000 0.000000 0.032249
#
#
# Mechanical properties :
#
#
# Convention : Reuss Voigt Hill
#
# Bulk Modulus (GPa) = 57.58460 57.70808 57.64634
# Shear Modulus (GPa) = 19.94870 22.72538 21.33704
#
# Velocity S-wave (km/s) = 3.31495 3.53814 3.42836
# Velocity P-wave (km/s) = 6.80975 6.96277 6.88668
#
# Compressibility (1/GPa) = 0.01736575
#
# Stress axis : x y z
#
# Youngs Moduli (GPa) = 72.82053 72.82053 64.72812
#
# Poissons Ratio (x) = 0.17420 0.33600
# Poissons Ratio (y) = 0.17420 0.33600
# Poissons Ratio (z) = 0.37801 0.37801
#
# Static dielectric constant tensor:
#      x y z
#    x 1.658070 0.000000 0.000000 
#    y 0.000000 1.658070 0.000000 
#    z 0.000000 0.000000 1.717110 
# 
# From -- ./inp_files/279.got.cif
#   From: 2010.05.17/outbox.cif.g08.bks.cpg/sg172_1_cif.got.tgz:279.got - 2010.05.20 11:19:57.
