data_PCOD9580712
_publ_section_title
;
Structure prediction by ZEFSAII (Michael W. Deem and Ramdas Pophale) SiO2 
 PCOD9580712
Probable space group: P 62
;
_chemical_formula_sum "Si O2"
_cell_formula_units_Z 30
_cell_length_a 9.951840
_cell_length_b 9.951840
_cell_length_c 15.904714
_cell_angle_alpha 90.000000
_cell_angle_beta 90.000000
_cell_angle_gamma 120.000000
_cell_volume 1364.153576
_symmetry_space_group_name_H-M "P 62"
_symmetry_group_IT_number 171
_symmetry_cell_setting 'hexagonal'
loop_
_space_group_symop_operation_xyz
x,y,z
x-y,x,1/3+z
-y,x-y,2/3+z
-x,-y,z
-x+y,-x,1/3+z
y,-x+y,2/3+z
loop_
_atom_site_type_symbol
_atom_site_label
_atom_site_fract_x
_atom_site_fract_y
_atom_site_fract_z
Si Si1 0.500000 0.000000 0.866441
Si Si2 0.158939 0.818595 0.871157
Si Si3 0.500000 0.000000 0.306400
Si Si4 0.761122 0.013758 0.710291
Si Si5 0.199087 0.466784 0.117543
Si Si6 0.500000 0.000000 0.593369
Si Si7 0.000000 0.000000 0.592776
O O1 0.332125 0.928394 0.911097
O O2 0.480295 0.854984 0.811009
O O3 0.075988 0.651860 0.914389
O O4 0.041825 0.884985 0.878952
O O5 0.197700 0.843090 0.771662
O O6 0.377631 0.864144 0.369044
O O7 0.714423 0.859494 0.766605
O O8 0.611656 0.967920 0.652130
O O9 0.900216 0.047211 0.651094
O O10 0.132385 0.513804 0.196930
#
# Coordination Sequence:
#
# PCOD9580712 Si02
#       7
#     3   6   3   6   6   3   3
#     4  10  23  46  72 108 147 186 252 297 372 440
#     4  11  25  47  71 108 145 191 247 305 370 447
#     4  11  24  50  74 111 148 192 258 311 358 450
#     4  11  22  44  71 107 142 196 238 305 368 445
#     4  10  23  46  74 105 143 200 246 299 375 440
#     4  11  25  44  76  99 149 200 240 300 378 444
#     4  12  24  46  74 102 150 194 242 304 372 440
#
# _framework density 21.991658000000001
#
# number of rings (size 3 to 8) (size 9 to 14) (size 15 to 20)
#    0.000    1.200    2.000    5.400    2.800    0.000 
#   10.800    1.000    0.000    0.000    0.000    0.000 
#    0.000    0.000    0.000    0.000    0.000    0.000 
#
# Total GULP energy -167115.134879 kJ/mol
# GULP energy per Si atom -5570.504496 kJ/mol
# Density = 2.194160 g / cm^3
# Si number density = 21.991658 Si / 1000 Ang^3
#
#
#
# Elastic Constant Matrix: (Units=GPa)
#
#
# Indices 1 2 3 4 5 6 
#
# 1 136.4872 67.0820 60.1440 0.0000 0.0000 0.0000
# 2 67.0820 136.4872 60.1440 0.0000 0.0000 0.0000
# 3 60.1440 60.1440 109.3024 0.0000 0.0000 0.0000
# 4 0.0000 0.0000 0.0000 35.1741 0.0000 0.0000
# 5 0.0000 0.0000 0.0000 0.0000 35.1741 0.0000
# 6 0.0000 0.0000 0.0000 0.0000 0.0000 34.7026
#
#
#
# Elastic Compliance Matrix: (Units=1/GPa)
#
#
# Indices 1 2 3 4 5 6 
#
# 1 0.010844 -0.003565 -0.004005 0.000000 0.000000 0.000000
# 2 -0.003565 0.010844 -0.004005 0.000000 0.000000 0.000000
# 3 -0.004005 -0.004005 0.013557 0.000000 0.000000 0.000000
# 4 0.000000 0.000000 0.000000 0.028430 0.000000 0.000000
# 5 0.000000 0.000000 0.000000 0.000000 0.028430 0.000000
# 6 0.000000 0.000000 0.000000 0.000000 0.000000 0.028816
#
#
# Mechanical properties :
#
#
# Convention : Reuss Voigt Hill
#
# Bulk Modulus (GPa) = 82.68818 84.11301 83.40059
# Shear Modulus (GPa) = 33.76055 34.00396 33.88225
#
# Velocity S-wave (km/s) = 3.92235 3.93647 3.92942
# Velocity P-wave (km/s) = 7.62854 7.68061 7.65462
#
# Compressibility (1/GPa) = 0.01209363
#
# Stress axis : x y z
#
# Youngs Moduli (GPa) = 92.22027 92.22027 73.76361
#
# Poissons Ratio (x) = 0.32872 0.29545
# Poissons Ratio (y) = 0.32872 0.29545
# Poissons Ratio (z) = 0.36937 0.36937
#
# Static dielectric constant tensor:
#      x y z
#    x 1.846780 0.000000 0.000000 
#    y 0.000000 1.846780 0.000000 
#    z 0.000000 0.000000 1.877870 
# 
# From -- ./inp_files/2407.got.cif
#   From: 2010.05.17/outbox.cif.g08.bks.cpg/sg171_2_cif.got.tgz:2407.got - 2010.05.20 11:16:09.
