data_PCOD9580297
_publ_section_title
;
Structure prediction by ZEFSAII (Michael W. Deem and Ramdas Pophale) SiO2 
 PCOD9580297
Probable space group: P 65
;
_chemical_formula_sum "Si O2"
_cell_formula_units_Z 36
_cell_length_a 14.732432
_cell_length_b 14.732432
_cell_length_c 7.379917
_cell_angle_alpha 90.000000
_cell_angle_beta 90.000000
_cell_angle_gamma 120.000000
_cell_volume 1387.174190
_symmetry_space_group_name_H-M "P 65"
_symmetry_group_IT_number 170
_symmetry_cell_setting 'hexagonal'
loop_
_space_group_symop_operation_xyz
x,y,z
x-y,x,5/6+z
-y,x-y,2/3+z
-x,-y,1/2+z
-x+y,-x,1/3+z
y,-x+y,1/6+z
loop_
_atom_site_type_symbol
_atom_site_label
_atom_site_fract_x
_atom_site_fract_y
_atom_site_fract_z
Si Si1 0.190350 0.991717 0.108340
Si Si2 0.502852 0.977927 0.976975
Si Si3 0.251292 0.645658 0.788154
Si Si4 0.132943 0.908993 0.714544
Si Si5 0.672676 0.575148 0.479126
Si Si6 0.440958 0.268917 0.365158
O O1 0.302653 0.026021 0.187416
O O2 0.094476 0.910684 0.227763
O O3 0.184534 0.941164 0.912876
O O4 0.439533 0.873958 0.102667
O O5 0.445839 0.047326 0.969286
O O6 0.624258 0.062876 0.017115
O O7 0.508112 0.925035 0.790786
O O8 0.317419 0.607886 0.660996
O O9 0.276705 0.749758 0.673468
O O10 0.179086 0.846142 0.615216
O O11 0.011248 0.847054 0.763039
O O12 0.764032 0.546727 0.510092
#
# Coordination Sequence:
#
# PCOD9580297 Si02
#       6
#     6   6   6   6   6   6
#     4  10  23  46  71 110 151 205 252 316 386 470
#     4  11  26  48  78 111 151 206 255 334 400 474
#     4  11  27  51  77 115 155 202 267 333 403 484
#     4  10  22  43  68 103 152 201 257 315 386 471
#     4  11  25  46  75 112 150 200 262 322 396 472
#     4  11  23  48  73 109 145 202 263 322 397 473
#
# _framework density 25.952041999999999
#
# number of rings (size 3 to 8) (size 9 to 14) (size 15 to 20)
#    0.000    1.333    0.000    5.000    7.000    0.000 
#   21.000    0.000    0.000    0.000    0.000    0.000 
#    0.000    0.000    0.000    0.000    0.000    0.000 
#
# Total GULP energy -201601.912213 kJ/mol
# GULP energy per Si atom -5600.053117 kJ/mol
# Density = 2.589297 g / cm^3
# Si number density = 25.952042 Si / 1000 Ang^3
#
#
#
# Elastic Constant Matrix: (Units=GPa)
#
#
# Indices 1 2 3 4 5 6 
#
# 1 -32.1420 220.1195 37.7114 0.0000 0.0000 0.0000
# 2 220.1195 -32.1420 37.7114 0.0000 0.0000 0.0000
# 3 37.7114 37.7114 74.9736 0.0000 0.0000 0.0000
# 4 0.0000 0.0000 0.0000 41.7018 0.0000 0.0000
# 5 0.0000 0.0000 0.0000 0.0000 41.7018 0.0000
# 6 0.0000 0.0000 0.0000 0.0000 0.0000 -126.1307
#
#
#
# Elastic Compliance Matrix: (Units=1/GPa)
#
#
# Indices 1 2 3 4 5 6 
#
# 1 0.001350 0.005315 -0.003352 0.000000 0.000000 0.000000
# 2 0.005315 0.001350 -0.003352 0.000000 0.000000 0.000000
# 3 -0.003352 -0.003352 0.016711 0.000000 0.000000 0.000000
# 4 0.000000 0.000000 0.000000 0.023980 0.000000 0.000000
# 5 0.000000 0.000000 0.000000 0.000000 0.023980 0.000000
# 6 0.000000 0.000000 0.000000 0.000000 0.000000 -0.007928
#
#
# Mechanical properties :
#
#
# Convention : Reuss Voigt Hill
#
# Bulk Modulus (GPa) = 60.12991 66.86380 63.49685
# Shear Modulus (GPa) = 73.78253 -27.53561 23.12346
#
# Velocity S-wave (km/s) = 5.33780 -3.26086 2.98821
# Velocity P-wave (km/s) = 7.82364 3.41214 6.03540
#
# Compressibility (1/GPa) = 0.01663066
#
# Stress axis : x y z
#
# Youngs Moduli (GPa) = 740.53745 740.53745 59.84252
#
# Poissons Ratio (x) = -3.93560 0.20062
# Poissons Ratio (y) = -3.93560 0.20062
# Poissons Ratio (z) = 2.48258 2.48258
#
# Static dielectric constant tensor:
#      x y z
#    x 2.036790 0.000000 0.000000 
#    y 0.000000 2.036790 0.000000 
#    z 0.000000 0.000000 2.169460 
# 
# From -- ./inp_files/596.got.cif
#   From: 2010.05.17/outbox.cif.g08.bks.cpg/sg170_cif.got.tgz:596.got - 2010.05.20 11:14:30.
