data_PCOD9580621
_publ_section_title
;
Structure prediction by ZEFSAII (Michael W. Deem and Ramdas Pophale) SiO2 
 PCOD9580621
Probable space group: P 62
;
_chemical_formula_sum "Si O2"
_cell_formula_units_Z 30
_cell_length_a 19.578415
_cell_length_b 19.578415
_cell_length_c 4.922584
_cell_angle_alpha 90.000000
_cell_angle_beta 90.000000
_cell_angle_gamma 120.000000
_cell_volume 1634.100742
_symmetry_space_group_name_H-M "P 62"
_symmetry_group_IT_number 171
_symmetry_cell_setting 'hexagonal'
loop_
_space_group_symop_operation_xyz
x,y,z
x-y,x,1/3+z
-y,x-y,2/3+z
-x,-y,z
-x+y,-x,1/3+z
y,-x+y,2/3+z
loop_
_atom_site_type_symbol
_atom_site_label
_atom_site_fract_x
_atom_site_fract_y
_atom_site_fract_z
Si Si1 0.402598 0.047526 0.592380
Si Si2 0.801916 0.218028 0.023353
Si Si3 0.344369 0.939907 0.087518
Si Si4 0.742430 0.259917 0.520495
Si Si5 0.580823 0.151131 0.786194
O O1 0.379993 0.109396 0.462220
O O2 0.496625 0.093140 0.648442
O O3 0.376535 0.977140 0.379178
O O4 0.362117 0.009403 0.876627
O O5 0.748002 0.125750 0.088689
O O6 0.758275 0.254517 0.204475
O O7 0.790391 0.229765 0.707457
O O8 0.392064 0.898170 0.972518
O O9 0.652052 0.201821 0.582292
O O10 0.782015 0.351044 0.601602
#
# Coordination Sequence:
#
# PCOD9580621 Si02
#       5
#     6   6   6   6   6
#     4  11  23  37  57  78 103 140 180 233 278 325
#     4  10  22  39  50  74 105 130 171 220 280 326
#     4  11  23  37  57  78 103 140 180 233 278 325
#     4  10  22  34  50  68 104 142 173 238 279 306
#     4  10  23  37  52  78 105 142 198 230 275 328
#
# _framework density 18.358720999999999
#
# number of rings (size 3 to 8) (size 9 to 14) (size 15 to 20)
#    0.000    1.600    0.000    5.400    0.000   25.600 
#    0.000    0.000    0.000    0.000    0.000    0.000 
#    0.000    0.000    0.000    9.000    0.000    2.000 
#
# Total GULP energy -167543.481863 kJ/mol
# GULP energy per Si atom -5584.782729 kJ/mol
# Density = 1.831694 g / cm^3
# Si number density = 18.358721 Si / 1000 Ang^3
#
#
#
# Elastic Constant Matrix: (Units=GPa)
#
#
# Indices 1 2 3 4 5 6 
#
# 1 76.5569 20.8656 5.3508 0.0000 0.0000 0.0000
# 2 20.8656 76.5569 5.3508 0.0000 0.0000 0.0000
# 3 5.3508 5.3508 59.4581 0.0000 0.0000 0.0000
# 4 0.0000 0.0000 0.0000 23.8373 0.0000 0.0000
# 5 0.0000 0.0000 0.0000 0.0000 23.8373 0.0000
# 6 0.0000 0.0000 0.0000 0.0000 0.0000 27.8456
#
#
#
# Elastic Compliance Matrix: (Units=1/GPa)
#
#
# Indices 1 2 3 4 5 6 
#
# 1 0.014162 -0.003795 -0.000933 0.000000 0.000000 0.000000
# 2 -0.003795 0.014162 -0.000933 0.000000 0.000000 0.000000
# 3 -0.000933 -0.000933 0.016986 0.000000 0.000000 0.000000
# 4 0.000000 0.000000 0.000000 0.041951 0.000000 0.000000
# 5 0.000000 0.000000 0.000000 0.000000 0.041951 0.000000
# 6 0.000000 0.000000 0.000000 0.000000 0.000000 0.035912
#
#
# Mechanical properties :
#
#
# Convention : Reuss Voigt Hill
#
# Bulk Modulus (GPa) = 29.42150 30.63403 30.02777
# Shear Modulus (GPa) = 26.62769 27.17103 26.89936
#
# Velocity S-wave (km/s) = 3.81256 3.85126 3.83196
# Velocity P-wave (km/s) = 5.95327 6.04143 5.99751
#
# Compressibility (1/GPa) = 0.03398875
#
# Stress axis : x y z
#
# Youngs Moduli (GPa) = 70.61353 70.61353 58.87033
#
# Poissons Ratio (x) = 0.26795 0.05492
# Poissons Ratio (y) = 0.26795 0.05492
# Poissons Ratio (z) = 0.06588 0.06588
#
# Static dielectric constant tensor:
#      x y z
#    x 1.665610 0.000000 0.000000 
#    y 0.000000 1.665610 0.000000 
#    z 0.000000 0.000000 1.668880 
# 
# From -- ./inp_files/316.got.cif
#   From: 2010.05.17/outbox.cif.g08.bks.cpg/sg171_1_cif.got.tgz:316.got - 2010.05.20 11:16:09.
