data_PCOD9580282
_publ_section_title
;
Structure prediction by ZEFSAII (Michael W. Deem and Ramdas Pophale) SiO2 
 PCOD9580282
Probable space group: P 65
;
_chemical_formula_sum "Si O2"
_cell_formula_units_Z 42
_cell_length_a 19.238597
_cell_length_b 19.238597
_cell_length_c 6.325241
_cell_angle_alpha 90.000000
_cell_angle_beta 90.000000
_cell_angle_gamma 120.000000
_cell_volume 2027.470313
_symmetry_space_group_name_H-M "P 65"
_symmetry_group_IT_number 170
_symmetry_cell_setting 'hexagonal'
loop_
_space_group_symop_operation_xyz
x,y,z
x-y,x,5/6+z
-y,x-y,2/3+z
-x,-y,1/2+z
-x+y,-x,1/3+z
y,-x+y,1/6+z
loop_
_atom_site_type_symbol
_atom_site_label
_atom_site_fract_x
_atom_site_fract_y
_atom_site_fract_z
Si Si1 0.248015 0.999073 0.567370
Si Si2 0.407907 0.009440 0.607578
Si Si3 0.166090 0.032720 0.933547
Si Si4 0.114538 0.559641 0.076762
Si Si5 0.171793 0.309165 0.060691
Si Si6 0.474907 0.156744 0.284031
Si Si7 0.254742 0.645883 0.770532
O O1 0.323254 0.999110 0.679374
O O2 0.207206 0.919398 0.424432
O O3 0.181190 0.996693 0.721411
O O4 0.282514 0.080659 0.434398
O O5 0.401921 0.928564 0.519937
O O6 0.474467 0.047209 0.791074
O O7 0.437578 0.072383 0.411576
O O8 0.139578 0.098334 0.895899
O O9 0.252410 0.079324 0.045127
O O10 0.154563 0.626578 0.258874
O O11 0.180309 0.575872 0.898777
O O12 0.234851 0.402597 0.032743
O O13 0.530225 0.221998 0.457169
O O14 0.296782 0.613806 0.611662
#
# Coordination Sequence:
#
# PCOD9580282 Si02
#       7
#     6   6   6   6   6   6   6
#     4  11  23  41  64  91 133 168 216 264 329 388
#     4  10  22  39  66 100 130 177 217 277 331 401
#     4  12  25  42  68  97 131 175 221 274 336 398
#     4  11  21  43  69  96 138 174 224 276 340 406
#     4  11  23  43  65  94 128 169 214 273 325 397
#     4  10  23  42  67  95 131 175 224 275 340 401
#     4  11  25  44  67  97 137 178 226 283 339 405
#
# _framework density 20.715468999999999
#
# number of rings (size 3 to 8) (size 9 to 14) (size 15 to 20)
#    0.000    1.143    4.286    1.714    0.000    4.571 
#    0.000    0.000    3.143    0.000    0.000    0.000 
#    0.000    0.000    0.000    0.000    0.000    0.000 
#
# Total GULP energy -234796.678737 kJ/mol
# GULP energy per Si atom -5590.397113 kJ/mol
# Density = 2.066832 g / cm^3
# Si number density = 20.715469 Si / 1000 Ang^3
#
#
#
# Elastic Constant Matrix: (Units=GPa)
#
#
# Indices 1 2 3 4 5 6 
#
# 1 80.0068 36.3684 18.5211 0.0000 0.0000 0.0000
# 2 36.3684 80.0068 18.5211 0.0000 0.0000 0.0000
# 3 18.5211 18.5211 63.2599 0.0000 0.0000 0.0000
# 4 0.0000 0.0000 0.0000 28.0135 0.0000 0.0000
# 5 0.0000 0.0000 0.0000 0.0000 28.0135 0.0000
# 6 0.0000 0.0000 0.0000 0.0000 0.0000 21.8192
#
#
#
# Elastic Compliance Matrix: (Units=1/GPa)
#
#
# Indices 1 2 3 4 5 6 
#
# 1 0.016196 -0.006720 -0.002774 0.000000 0.000000 0.000000
# 2 -0.006720 0.016196 -0.002774 0.000000 0.000000 0.000000
# 3 -0.002774 -0.002774 0.017432 0.000000 0.000000 0.000000
# 4 0.000000 0.000000 0.000000 0.035697 0.000000 0.000000
# 5 0.000000 0.000000 0.000000 0.000000 0.035697 0.000000
# 6 0.000000 0.000000 0.000000 0.000000 0.000000 0.045831
#
#
# Mechanical properties :
#
#
# Convention : Reuss Voigt Hill
#
# Bulk Modulus (GPa) = 39.54620 41.12162 40.33391
# Shear Modulus (GPa) = 24.99809 25.56009 25.27909
#
# Velocity S-wave (km/s) = 3.47758 3.51645 3.49707
# Velocity P-wave (km/s) = 5.93771 6.03167 5.98487
#
# Compressibility (1/GPa) = 0.02528688
#
# Stress axis : x y z
#
# Youngs Moduli (GPa) = 61.74448 61.74448 57.36462
#
# Poissons Ratio (x) = 0.41491 0.15915
# Poissons Ratio (y) = 0.41491 0.15915
# Poissons Ratio (z) = 0.17130 0.17130
#
# Static dielectric constant tensor:
#      x y z
#    x 1.727710 0.000000 0.000000 
#    y 0.000000 1.727710 0.000000 
#    z 0.000000 0.000000 1.730990 
# 
# From -- ./inp_files/259.got.cif
#   From: 2010.05.17/outbox.cif.g08.bks.cpg/sg170_cif.got.tgz:259.got - 2010.05.20 11:14:30.
