data_PCOD9580910
_publ_section_title
;
Structure prediction by ZEFSAII (Michael W. Deem and Ramdas Pophale) SiO2 
 PCOD9580910
Probable space group: P 64
;
_chemical_formula_sum "Si O2"
_cell_formula_units_Z 33
_cell_length_a 10.499965
_cell_length_b 10.499965
_cell_length_c 14.806766
_cell_angle_alpha 90.000000
_cell_angle_beta 90.000000
_cell_angle_gamma 120.000000
_cell_volume 1413.730239
_symmetry_space_group_name_H-M "P 64"
_symmetry_group_IT_number 172
_symmetry_cell_setting 'hexagonal'
loop_
_space_group_symop_operation_xyz
x,y,z
x-y,x,2/3+z
-y,x-y,1/3+z
-x,-y,z
-x+y,-x,2/3+z
y,-x+y,1/3+z
loop_
_atom_site_type_symbol
_atom_site_label
_atom_site_fract_x
_atom_site_fract_y
_atom_site_fract_z
Si Si1 0.673909 0.565191 0.605810
Si Si2 0.721599 0.821462 0.086781
Si Si3 0.268602 0.614062 0.954572
Si Si4 0.902929 0.320921 0.076626
Si Si5 0.500000 0.000000 0.486065
Si Si6 0.730917 0.842022 0.294219
O O1 0.500000 0.500000 0.610964
O O2 0.751382 0.651046 0.696113
O O3 0.708403 0.432593 0.591832
O O4 0.726491 0.647675 0.509558
O O5 0.600741 0.647678 0.098165
O O6 0.766471 0.873079 0.189005
O O7 0.845046 0.824111 0.023857
O O8 0.143589 0.595936 0.882636
O O9 0.227077 0.446027 0.970106
O O10 0.248954 0.694538 0.042513
O O11 0.000000 0.500000 0.075238
O O12 0.963275 0.254915 0.002013
#
# Coordination Sequence:
#
# PCOD9580910 Si02
#       6
#     6   6   6   6   3   6
#     4  11  26  37  62  98 141 172 219 275 344 392
#     4  11  23  42  63 102 133 175 213 285 334 397
#     4  10  19  38  65  99 129 168 221 270 324 406
#     4   9  19  37  62  93 121 176 216 260 326 403
#     4  10  20  38  66 100 126 176 218 266 342 394
#     4  10  22  41  69  93 131 168 224 265 339 401
#
# _framework density 23.342500000000001
#
# number of rings (size 3 to 8) (size 9 to 14) (size 15 to 20)
#    0.000    1.818    4.545    1.091   12.727    1.455 
#    1.636    0.000    0.000    8.727    0.000    0.000 
#    0.000    0.000    0.000    0.000    0.000    0.000 
#
# Total GULP energy -184315.013626 kJ/mol
# GULP energy per Si atom -5585.303443 kJ/mol
# Density = 2.328937 g / cm^3
# Si number density = 23.342500 Si / 1000 Ang^3
#
#
#
# Elastic Constant Matrix: (Units=GPa)
#
#
# Indices 1 2 3 4 5 6 
#
# 1 42.5269 6.8734 33.5310 0.0000 0.0000 0.0000
# 2 6.8734 42.5269 33.5310 0.0000 0.0000 0.0000
# 3 33.5310 33.5310 217.8179 0.0000 0.0000 0.0000
# 4 0.0000 0.0000 0.0000 14.2302 0.0000 0.0000
# 5 0.0000 0.0000 0.0000 0.0000 14.2302 0.0000
# 6 0.0000 0.0000 0.0000 0.0000 0.0000 17.8268
#
#
#
# Elastic Compliance Matrix: (Units=1/GPa)
#
#
# Indices 1 2 3 4 5 6 
#
# 1 0.026819 -0.001228 -0.003939 0.000000 0.000000 0.000000
# 2 -0.001228 0.026819 -0.003939 0.000000 0.000000 0.000000
# 3 -0.003939 -0.003939 0.005804 0.000000 0.000000 0.000000
# 4 0.000000 0.000000 0.000000 0.070273 0.000000 0.000000
# 5 0.000000 0.000000 0.000000 0.000000 0.070273 0.000000
# 6 0.000000 0.000000 0.000000 0.000000 0.000000 0.056095
#
#
# Mechanical properties :
#
#
# Convention : Reuss Voigt Hill
#
# Bulk Modulus (GPa) = 24.25569 50.08252 37.16910
# Shear Modulus (GPa) = 17.35862 24.51984 20.93923
#
# Velocity S-wave (km/s) = 2.72995 3.24456 2.99832
# Velocity P-wave (km/s) = 4.51117 5.96140 5.28625
#
# Compressibility (1/GPa) = 0.04122744
#
# Stress axis : x y z
#
# Youngs Moduli (GPa) = 37.28675 37.28675 172.29867
#
# Poissons Ratio (x) = 0.04581 0.67876
# Poissons Ratio (y) = 0.04581 0.67876
# Poissons Ratio (z) = 0.14689 0.14689
#
# Static dielectric constant tensor:
#      x y z
#    x 1.901390 0.000000 0.000000 
#    y 0.000000 1.901390 0.000000 
#    z 0.000000 0.000000 1.917820 
# 
# From -- ./inp_files/1253.got.cif
#   From: 2010.05.17/outbox.cif.g08.bks.cpg/sg172_1_cif.got.tgz:1253.got - 2010.05.20 11:19:57.
