data_PCOD9580472
_publ_section_title
;
Structure prediction by ZEFSAII (Michael W. Deem and Ramdas Pophale) SiO2 
 PCOD9580472
Probable space group: P 62
;
_chemical_formula_sum "Si O2"
_cell_formula_units_Z 36
_cell_length_a 10.859394
_cell_length_b 10.859394
_cell_length_c 17.043410
_cell_angle_alpha 90.000000
_cell_angle_beta 90.000000
_cell_angle_gamma 120.000000
_cell_volume 1740.597295
_symmetry_space_group_name_H-M "P 62"
_symmetry_group_IT_number 171
_symmetry_cell_setting 'hexagonal'
loop_
_space_group_symop_operation_xyz
x,y,z
x-y,x,1/3+z
-y,x-y,2/3+z
-x,-y,z
-x+y,-x,1/3+z
y,-x+y,2/3+z
loop_
_atom_site_type_symbol
_atom_site_label
_atom_site_fract_x
_atom_site_fract_y
_atom_site_fract_z
Si Si1 0.353525 0.229766 0.375000
Si Si2 0.881344 0.694133 0.407131
Si Si3 0.011782 0.375476 0.554647
Si Si4 0.420665 0.146984 0.533846
Si Si5 0.477123 0.313500 0.929552
Si Si6 0.156673 0.104007 0.630616
O O1 0.263576 0.300951 0.406871
O O2 0.433624 0.324616 0.299207
O O3 0.434568 0.203406 0.445355
O O4 0.235201 0.078854 0.339371
O O5 0.868876 0.564024 0.354559
O O6 0.925718 0.690616 0.495171
O O7 0.001848 0.833023 0.362121
O O8 0.851272 0.263169 0.576726
O O9 0.000000 0.500000 0.513604
O O10 0.574239 0.214703 0.576420
O O11 0.294075 0.160603 0.575239
O O12 0.361505 0.978338 0.544538
O O13 0.000000 0.000000 0.592620
#
# Coordination Sequence:
#
# PCOD9580472 Si02
#       6
#     6   6   6   6   6   6
#     4  10  20  36  55  88 120 149 195 257 309 358
#     4   9  19  36  62  87 117 154 205 251 303 365
#     4  11  23  39  58  85 116 165 205 248 298 374
#     4  10  19  36  59  85 123 158 191 258 308 361
#     4   9  21  39  57  91 118 158 209 247 304 369
#     4   9  18  31  60  91 117 150 195 250 310 355
#
# _framework density 20.682556000000002
#
# number of rings (size 3 to 8) (size 9 to 14) (size 15 to 20)
#    0.000    2.333    0.000    3.000    4.667    2.000 
#    6.000    1.667    0.000    0.000    0.000    0.000 
#    0.000    0.000    0.000    0.000    0.000    0.000 
#
# Total GULP energy -200712.162553 kJ/mol
# GULP energy per Si atom -5575.337849 kJ/mol
# Density = 2.063548 g / cm^3
# Si number density = 20.682556 Si / 1000 Ang^3
#
#
#
# Elastic Constant Matrix: (Units=GPa)
#
#
# Indices 1 2 3 4 5 6 
#
# 1 56.8347 17.1859 39.6417 0.0000 0.0000 0.0000
# 2 17.1859 56.8347 39.6417 0.0000 0.0000 0.0000
# 3 39.6417 39.6417 97.3917 0.0000 0.0000 0.0000
# 4 0.0000 0.0000 0.0000 15.7653 0.0000 0.0000
# 5 0.0000 0.0000 0.0000 0.0000 15.7653 0.0000
# 6 0.0000 0.0000 0.0000 0.0000 0.0000 19.8244
#
#
#
# Elastic Compliance Matrix: (Units=1/GPa)
#
#
# Indices 1 2 3 4 5 6 
#
# 1 0.024587 -0.000635 -0.009749 0.000000 0.000000 0.000000
# 2 -0.000635 0.024587 -0.009749 0.000000 0.000000 0.000000
# 3 -0.009749 -0.009749 0.018205 0.000000 0.000000 0.000000
# 4 0.000000 0.000000 0.000000 0.063430 0.000000 0.000000
# 5 0.000000 0.000000 0.000000 0.000000 0.063430 0.000000
# 6 0.000000 0.000000 0.000000 0.000000 0.000000 0.050443
#
#
# Mechanical properties :
#
#
# Convention : Reuss Voigt Hill
#
# Bulk Modulus (GPa) = 36.88463 44.88886 40.88675
# Shear Modulus (GPa) = 17.00761 17.91045 17.45903
#
# Velocity S-wave (km/s) = 2.87072 2.94593 2.90857
# Velocity P-wave (km/s) = 5.37219 5.77254 5.57596
#
# Compressibility (1/GPa) = 0.02711156
#
# Stress axis : x y z
#
# Youngs Moduli (GPa) = 40.67200 40.67200 54.93137
#
# Poissons Ratio (x) = 0.02581 0.53555
# Poissons Ratio (y) = 0.02581 0.53555
# Poissons Ratio (z) = 0.39653 0.39653
#
# Static dielectric constant tensor:
#      x y z
#    x 1.759310 0.000000 0.000000 
#    y 0.000000 1.759310 0.000000 
#    z 0.000000 0.000000 1.754730 
# 
# From -- ./inp_files/3644.got.cif
#   From: 2010.05.17/outbox.cif.g08.bks.cpg/sg171_2_cif.got.tgz:3644.got - 2010.05.20 11:16:09.
