data_PCOD9580913
_publ_section_title
;
Structure prediction by ZEFSAII (Michael W. Deem and Ramdas Pophale) SiO2 
 PCOD9580913
Probable space group: P 64
;
_chemical_formula_sum "Si O2"
_cell_formula_units_Z 45
_cell_length_a 11.192940
_cell_length_b 11.192940
_cell_length_c 19.506518
_cell_angle_alpha 90.000000
_cell_angle_beta 90.000000
_cell_angle_gamma 120.000000
_cell_volume 2116.404791
_symmetry_space_group_name_H-M "P 64"
_symmetry_group_IT_number 172
_symmetry_cell_setting 'hexagonal'
loop_
_space_group_symop_operation_xyz
x,y,z
x-y,x,2/3+z
-y,x-y,1/3+z
-x,-y,z
-x+y,-x,2/3+z
y,-x+y,1/3+z
loop_
_atom_site_type_symbol
_atom_site_label
_atom_site_fract_x
_atom_site_fract_y
_atom_site_fract_z
Si Si1 0.118666 0.393395 0.494060
Si Si2 0.500000 0.000000 0.051104
Si Si3 0.626513 0.814186 0.210833
Si Si4 0.586871 0.930564 0.914275
Si Si5 0.162748 0.599146 0.806519
Si Si6 0.911854 0.276373 0.046775
Si Si7 0.185145 0.312265 0.227026
Si Si8 0.802687 0.489842 0.025148
O O1 0.242426 0.461283 0.549141
O O2 0.168058 0.317469 0.440700
O O3 0.102591 0.489742 0.437899
O O4 0.974249 0.296391 0.531577
O O5 0.437402 0.064557 0.996399
O O6 0.500607 0.720274 0.160829
O O7 0.751763 0.781245 0.198505
O O8 0.553890 0.750300 0.284398
O O9 0.500000 0.000000 0.885249
O O10 0.745765 0.029692 0.892855
O O11 0.181997 0.716354 0.861796
O O12 0.219471 0.667250 0.733946
O O13 0.000000 0.500000 0.804302
O O14 0.837041 0.366330 0.030490
O O15 0.068843 0.384808 0.063489
O O16 0.900774 0.207525 0.974525
#
# Coordination Sequence:
#
# PCOD9580913 Si02
#       8
#     6   3   6   6   6   6   6   6
#     4  12  25  45  67 104 147 180 235 306 374 427
#     4  10  26  48  68 110 140 186 242 312 372 442
#     4  10  24  42  66 100 143 183 222 299 365 422
#     4  10  24  45  75 101 137 190 247 292 360 449
#     4  10  21  40  63  95 135 178 224 288 349 418
#     4  10  20  39  73  98 130 178 244 295 333 421
#     4  10  19  43  72  98 133 177 242 284 344 429
#     4  10  21  40  67  99 128 180 243 281 344 425
#
# _framework density 21.262473
#
# number of rings (size 3 to 8) (size 9 to 14) (size 15 to 20)
#    0.400    1.333    2.667    0.800    5.600    0.533 
#    8.400    0.000    2.933    0.000    0.000    0.000 
#    0.000    0.000    0.000    0.000    0.000    0.000 
#
# Total GULP energy -250750.902665 kJ/mol
# GULP energy per Si atom -5572.242281 kJ/mol
# Density = 2.121408 g / cm^3
# Si number density = 21.262473 Si / 1000 Ang^3
#
#
#
# Elastic Constant Matrix: (Units=GPa)
#
#
# Indices 1 2 3 4 5 6 
#
# 1 92.6869 36.6380 48.1935 0.0000 0.0000 0.0000
# 2 36.6380 92.6869 48.1935 0.0000 0.0000 0.0000
# 3 48.1935 48.1935 74.9581 0.0000 0.0000 0.0000
# 4 0.0000 0.0000 0.0000 23.8387 0.0000 0.0000
# 5 0.0000 0.0000 0.0000 0.0000 23.8387 0.0000
# 6 0.0000 0.0000 0.0000 0.0000 0.0000 28.0245
#
#
#
# Elastic Compliance Matrix: (Units=1/GPa)
#
#
# Indices 1 2 3 4 5 6 
#
# 1 0.016344 -0.001497 -0.009546 0.000000 0.000000 0.000000
# 2 -0.001497 0.016344 -0.009546 0.000000 0.000000 0.000000
# 3 -0.009546 -0.009546 0.025615 0.000000 0.000000 0.000000
# 4 0.000000 0.000000 0.000000 0.041949 0.000000 0.000000
# 5 0.000000 0.000000 0.000000 0.000000 0.041949 0.000000
# 6 0.000000 0.000000 0.000000 0.000000 0.000000 0.035683
#
#
# Mechanical properties :
#
#
# Convention : Reuss Voigt Hill
#
# Bulk Modulus (GPa) = 58.38895 58.48690 58.43792
# Shear Modulus (GPa) = 22.24495 23.62752 22.93623
#
# Velocity S-wave (km/s) = 3.23802 3.33713 3.28795
# Velocity P-wave (km/s) = 6.44208 6.51271 6.47749
#
# Compressibility (1/GPa) = 0.01712653
#
# Stress axis : x y z
#
# Youngs Moduli (GPa) = 61.18363 61.18363 39.03911
#
# Poissons Ratio (x) = 0.09161 0.37265
# Poissons Ratio (y) = 0.09161 0.37265
# Poissons Ratio (z) = 0.58404 0.58404
#
# Static dielectric constant tensor:
#      x y z
#    x 1.824660 0.000000 0.000000 
#    y 0.000000 1.824660 0.000000 
#    z 0.000000 0.000000 1.783950 
# 
# From -- ./inp_files/1703.got.cif
#   From: 2010.05.17/outbox.cif.g08.bks.cpg/sg172_1_cif.got.tgz:1703.got - 2010.05.20 11:19:57.
