data_PCOD9580115
_publ_section_title
;
Structure prediction by ZEFSAII (Michael W. Deem and Ramdas Pophale) SiO2 
 PCOD9580115
Probable space group: P 61
;
_chemical_formula_sum "Si O2"
_cell_formula_units_Z 48
_cell_length_a 14.843584
_cell_length_b 14.843584
_cell_length_c 12.271917
_cell_angle_alpha 90.000000
_cell_angle_beta 90.000000
_cell_angle_gamma 120.000000
_cell_volume 2341.642490
_symmetry_space_group_name_H-M "P 61"
_symmetry_group_IT_number 169
_symmetry_cell_setting 'hexagonal'
loop_
_space_group_symop_operation_xyz
x,y,z
x-y,x,1/6+z
-y,x-y,1/3+z
-x,-y,1/2+z
-x+y,-x,2/3+z
y,-x+y,5/6+z
loop_
_atom_site_type_symbol
_atom_site_label
_atom_site_fract_x
_atom_site_fract_y
_atom_site_fract_z
Si Si1 0.860853 0.539748 0.887140
Si Si2 0.296199 0.589512 0.674707
Si Si3 0.339582 0.984198 0.834056
Si Si4 0.156272 0.163085 0.643204
Si Si5 0.391205 0.133465 0.369838
Si Si6 0.142988 0.325994 0.981237
Si Si7 0.450446 0.483117 0.382232
Si Si8 0.549580 0.345232 0.729534
O O1 0.775668 0.417682 0.876507
O O2 0.914205 0.585628 0.771308
O O3 0.812987 0.606410 0.938080
O O4 0.946413 0.547808 0.971590
O O5 0.268378 0.481397 0.617986
O O6 0.212392 0.569520 0.768127
O O7 0.297385 0.676694 0.598543
O O8 0.244082 0.924693 0.751392
O O9 0.440865 0.002998 0.767808
O O10 0.341311 0.090184 0.858480
O O11 0.139585 0.086606 0.542668
O O12 0.211727 0.281464 0.597326
O O13 0.231761 0.151952 0.731003
O O14 0.429944 0.061135 0.313252
O O15 0.167072 0.430061 0.917109
O O16 0.423398 0.555538 0.304630
#
# Coordination Sequence:
#
# PCOD9580115 Si02
#       8
#     6   6   6   6   6   6   6   6
#     4  12  26  42  66 104 144 185 237 291 356 433
#     4  12  23  43  67 103 148 191 230 285 363 443
#     4  11  26  44  71 100 139 186 235 298 361 437
#     4  12  27  55  79 107 140 190 255 325 381 442
#     4  12  26  47  72 104 149 190 245 300 367 442
#     4  11  25  47  71 102 135 181 243 296 365 436
#     4  11  25  42  66 106 144 191 235 290 361 434
#     4  11  24  38  70 100 145 186 232 281 348 435
#
# _framework density 20.498432999999999
#
# number of rings (size 3 to 8) (size 9 to 14) (size 15 to 20)
#    0.000    0.500    5.000    2.250    8.750    0.000 
#    2.250    0.000    0.000    0.000    0.000    0.000 
#    0.000    0.000    0.000    0.000    0.000    0.000 
#
# Total GULP energy -268489.696965 kJ/mol
# GULP energy per Si atom -5593.535353 kJ/mol
# Density = 2.045178 g / cm^3
# Si number density = 20.498433 Si / 1000 Ang^3
#
#
#
# Elastic Constant Matrix: (Units=GPa)
#
#
# Indices 1 2 3 4 5 6 
#
# 1 74.6379 9.5702 2.1567 0.0000 0.0000 0.0000
# 2 9.5702 74.6379 2.1567 0.0000 0.0000 0.0000
# 3 2.1567 2.1567 41.3100 0.0000 0.0000 0.0000
# 4 0.0000 0.0000 0.0000 67.0948 0.0000 0.0000
# 5 0.0000 0.0000 0.0000 0.0000 67.0948 0.0000
# 6 0.0000 0.0000 0.0000 0.0000 0.0000 32.5339
#
#
#
# Elastic Compliance Matrix: (Units=1/GPa)
#
#
# Indices 1 2 3 4 5 6 
#
# 1 0.013638 -0.001731 -0.000622 0.000000 0.000000 0.000000
# 2 -0.001731 0.013638 -0.000622 0.000000 0.000000 0.000000
# 3 -0.000622 -0.000622 0.024272 0.000000 0.000000 0.000000
# 4 0.000000 0.000000 0.000000 0.014904 0.000000 0.000000
# 5 0.000000 0.000000 0.000000 0.000000 0.014904 0.000000
# 6 0.000000 0.000000 0.000000 0.000000 0.000000 0.030737
#
#
# Mechanical properties :
#
#
# Convention : Reuss Voigt Hill
#
# Bulk Modulus (GPa) = 21.92989 24.26145 23.09567
# Shear Modulus (GPa) = 37.52581 45.12484 41.32533
#
# Velocity S-wave (km/s) = 4.28327 4.69698 4.49489
# Velocity P-wave (km/s) = 5.93156 6.42471 6.18306
#
# Compressibility (1/GPa) = 0.04559987
#
# Stress axis : x y z
#
# Youngs Moduli (GPa) = 73.32511 73.32511 41.19957
#
# Poissons Ratio (x) = 0.12690 0.02561
# Poissons Ratio (y) = 0.12690 0.02561
# Poissons Ratio (z) = 0.04558 0.04558
#
# Static dielectric constant tensor:
#      x y z
#    x 1.707060 0.000000 0.000000 
#    y 0.000000 1.707060 0.000000 
#    z 0.000000 0.000000 1.726840 
# 
# From -- ./inp_files/1045.got.cif
#   From: 2010.05.17/outbox.cif.g08.bks.cpg/sg169_cif.got.tgz:1045.got - 2010.05.20 11:12:54.
