data_PCOD9580974
_publ_section_title
;
Structure prediction by ZEFSAII (Michael W. Deem and Ramdas Pophale) SiO2 
 PCOD9580974
Probable space group: P 64
;
_chemical_formula_sum "Si O2"
_cell_formula_units_Z 45
_cell_length_a 13.970230
_cell_length_b 13.970230
_cell_length_c 11.215599
_cell_angle_alpha 90.000000
_cell_angle_beta 90.000000
_cell_angle_gamma 120.000000
_cell_volume 1895.659001
_symmetry_space_group_name_H-M "P 64"
_symmetry_group_IT_number 172
_symmetry_cell_setting 'hexagonal'
loop_
_space_group_symop_operation_xyz
x,y,z
x-y,x,2/3+z
-y,x-y,1/3+z
-x,-y,z
-x+y,-x,2/3+z
y,-x+y,1/3+z
loop_
_atom_site_type_symbol
_atom_site_label
_atom_site_fract_x
_atom_site_fract_y
_atom_site_fract_z
Si Si1 0.709660 0.401687 0.041320
Si Si2 0.763890 0.239448 0.460791
Si Si3 0.022209 0.661987 0.310417
Si Si4 0.646824 0.683283 0.264713
Si Si5 0.774677 0.236061 0.949959
Si Si6 0.500000 0.000000 0.774532
Si Si7 0.156120 0.026529 0.042622
Si Si8 0.915266 0.084217 0.633473
O O1 0.578855 0.316031 0.047424
O O2 0.749192 0.474836 0.159629
O O3 0.726778 0.475525 0.926300
O O4 0.763613 0.323381 0.033253
O O5 0.711758 0.106950 0.476119
O O6 0.888628 0.312077 0.414318
O O7 0.889384 0.590243 0.329734
O O8 0.047010 0.602593 0.201753
O O9 0.039679 0.784355 0.294854
O O10 0.722922 0.626607 0.261568
O O11 0.543198 0.601031 0.346548
O O12 0.719187 0.803929 0.321524
O O13 0.169435 0.014939 0.183435
O O14 0.146692 0.136150 0.062424
O O15 0.043199 0.929847 0.985479
#
# Coordination Sequence:
#
# PCOD9580974 Si02
#       8
#     6   6   6   6   6   3   6   6
#     4  10  24  47  75 100 152 199 254 323 380 459
#     4  11  25  49  73 108 146 192 258 320 392 462
#     4  12  25  46  73 115 148 190 263 327 388 466
#     4  12  25  47  76 110 150 204 258 307 397 489
#     4  11  23  46  77 109 146 202 252 318 391 475
#     4  12  28  44  74 104 156 206 264 314 376 492
#     4  11  24  44  72 112 155 198 245 314 390 475
#     4  11  24  44  74 109 157 201 242 310 396 476
#
# _framework density 23.738444000000001
#
# number of rings (size 3 to 8) (size 9 to 14) (size 15 to 20)
#    0.000    0.800    2.667    5.600    3.733    3.200 
#    0.000    8.000    0.000    0.000    0.000    0.000 
#    0.000    0.000    0.000    0.000    0.000    0.000 
#
# Total GULP energy -251046.974976 kJ/mol
# GULP energy per Si atom -5578.821666 kJ/mol
# Density = 2.368441 g / cm^3
# Si number density = 23.738444 Si / 1000 Ang^3
#
#
#
# Elastic Constant Matrix: (Units=GPa)
#
#
# Indices 1 2 3 4 5 6 
#
# 1 165.7569 69.5381 41.2976 0.0000 0.0000 0.0000
# 2 69.5381 165.7569 41.2976 0.0000 0.0000 0.0000
# 3 41.2976 41.2976 75.1441 0.0000 0.0000 0.0000
# 4 0.0000 0.0000 0.0000 36.9866 0.0000 0.0000
# 5 0.0000 0.0000 0.0000 0.0000 36.9866 0.0000
# 6 0.0000 0.0000 0.0000 0.0000 0.0000 48.1094
#
#
#
# Elastic Compliance Matrix: (Units=1/GPa)
#
#
# Indices 1 2 3 4 5 6 
#
# 1 0.007829 -0.002564 -0.002894 0.000000 0.000000 0.000000
# 2 -0.002564 0.007829 -0.002894 0.000000 0.000000 0.000000
# 3 -0.002894 -0.002894 0.016489 0.000000 0.000000 0.000000
# 4 0.000000 0.000000 0.000000 0.027037 0.000000 0.000000
# 5 0.000000 0.000000 0.000000 0.000000 0.027037 0.000000
# 6 0.000000 0.000000 0.000000 0.000000 0.000000 0.020786
#
#
# Mechanical properties :
#
#
# Convention : Reuss Voigt Hill
#
# Bulk Modulus (GPa) = 64.74826 78.99161 71.86993
# Shear Modulus (GPa) = 38.80226 41.38482 40.09354
#
# Velocity S-wave (km/s) = 4.04737 4.17989 4.11417
# Velocity P-wave (km/s) = 7.01260 7.52618 7.27392
#
# Compressibility (1/GPa) = 0.01544443
#
# Stress axis : x y z
#
# Youngs Moduli (GPa) = 127.72335 127.72335 60.64747
#
# Poissons Ratio (x) = 0.32743 0.17551
# Poissons Ratio (y) = 0.32743 0.17551
# Poissons Ratio (z) = 0.36963 0.36963
#
# Static dielectric constant tensor:
#      x y z
#    x 1.989310 0.000000 0.000000 
#    y 0.000000 1.989310 0.000000 
#    z 0.000000 0.000000 1.963000 
# 
# From -- ./inp_files/1141.got.cif
#   From: 2010.05.17/outbox.cif.g08.bks.cpg/sg172_1_cif.got.tgz:1141.got - 2010.05.20 11:19:57.
