data_PCOD9580641
_publ_section_title
;
Structure prediction by ZEFSAII (Michael W. Deem and Ramdas Pophale) SiO2 
 PCOD9580641
Probable space group: P 62
;
_chemical_formula_sum "Si O2"
_cell_formula_units_Z 24
_cell_length_a 8.698991
_cell_length_b 8.698991
_cell_length_c 16.888454
_cell_angle_alpha 90.000000
_cell_angle_beta 90.000000
_cell_angle_gamma 120.000000
_cell_volume 1106.772322
_symmetry_space_group_name_H-M "P 62"
_symmetry_group_IT_number 171
_symmetry_cell_setting 'hexagonal'
loop_
_space_group_symop_operation_xyz
x,y,z
x-y,x,1/3+z
-y,x-y,2/3+z
-x,-y,z
-x+y,-x,1/3+z
y,-x+y,2/3+z
loop_
_atom_site_type_symbol
_atom_site_label
_atom_site_fract_x
_atom_site_fract_y
_atom_site_fract_z
Si Si1 0.000000 0.500000 0.458071
Si Si2 0.328451 0.286237 0.540885
Si Si3 0.853857 0.211799 0.709958
Si Si4 0.000000 0.000000 0.613691
Si Si5 0.389988 0.682838 0.254883
O O1 0.957771 0.629022 0.407275
O O2 0.829966 0.401761 0.514795
O O3 0.319811 0.347979 0.452090
O O4 0.499251 0.724516 0.565354
O O5 0.291376 0.422115 0.594048
O O6 0.164890 0.097601 0.556160
O O7 0.784567 0.324787 0.659284
O O8 0.960939 0.133839 0.663897
#
# Coordination Sequence:
#
# PCOD9580641 Si02
#       5
#     3   6   6   3   6
#     4  10  22  38  64  94 124 172 224 266 328 396
#     4  10  24  42  65  98 131 170 226 273 329 404
#     4  11  22  41  66  93 134 177 216 279 338 387
#     4  12  24  40  62  98 136 172 222 278 330 396
#     4  10  22  42  66  93 127 172 221 269 328 403
#
# _framework density 21.684677000000001
#
# number of rings (size 3 to 8) (size 9 to 14) (size 15 to 20)
#    0.000    1.500    0.000    5.250    0.000   12.000 
#    0.000    0.000    0.000   12.000    0.000    0.000 
#    0.000    0.000    0.000    0.000    0.000    0.000 
#
# Total GULP energy -133816.875455 kJ/mol
# GULP energy per Si atom -5575.703144 kJ/mol
# Density = 2.163532 g / cm^3
# Si number density = 21.684677 Si / 1000 Ang^3
#
#
#
# Elastic Constant Matrix: (Units=GPa)
#
#
# Indices 1 2 3 4 5 6 
#
# 1 124.3740 40.8124 64.4289 0.0000 0.0000 0.0000
# 2 40.8124 124.3740 64.4289 0.0000 0.0000 0.0000
# 3 64.4289 64.4289 110.9250 0.0000 0.0000 0.0000
# 4 0.0000 0.0000 0.0000 -23.6113 0.0000 0.0000
# 5 0.0000 0.0000 0.0000 0.0000 -23.6113 0.0000
# 6 0.0000 0.0000 0.0000 0.0000 0.0000 41.7808
#
#
#
# Elastic Compliance Matrix: (Units=1/GPa)
#
#
# Indices 1 2 3 4 5 6 
#
# 1 0.011518 -0.000449 -0.006429 0.000000 0.000000 0.000000
# 2 -0.000449 0.011518 -0.006429 0.000000 0.000000 0.000000
# 3 -0.006429 -0.006429 0.016484 0.000000 0.000000 0.000000
# 4 0.000000 0.000000 0.000000 -0.042353 0.000000 0.000000
# 5 0.000000 0.000000 0.000000 0.000000 -0.042353 0.000000
# 6 0.000000 0.000000 0.000000 0.000000 0.000000 0.023934
#
#
# Mechanical properties :
#
#
# Convention : Reuss Voigt Hill
#
# Bulk Modulus (GPa) = 77.49049 77.66813 77.57931
# Shear Modulus (GPa) = 517.26162 11.57850 264.42006
#
# Velocity S-wave (km/s) = 15.46143 2.31324 11.05456
# Velocity P-wave (km/s) = 18.82959 6.55969 14.09935
#
# Compressibility (1/GPa) = 0.01290481
#
# Stress axis : x y z
#
# Youngs Moduli (GPa) = 86.81949 86.81949 60.66565
#
# Poissons Ratio (x) = 0.03899 0.39004
# Poissons Ratio (y) = 0.03899 0.39004
# Poissons Ratio (z) = 0.55819 0.55819
#
# Static dielectric constant tensor:
#      x y z
#    x 1.880600 0.000000 0.000000 
#    y 0.000000 1.880600 0.000000 
#    z 0.000000 0.000000 1.821240 
# 
# From -- ./inp_files/2828.got.cif
#   From: 2010.05.17/outbox.cif.g08.bks.cpg/sg171_2_cif.got.tgz:2828.got - 2010.05.20 11:16:09.
