data_PCOD9580216
_publ_section_title
;
Structure prediction by ZEFSAII (Michael W. Deem and Ramdas Pophale) SiO2 
 PCOD9580216
Probable space group: P 65
;
_chemical_formula_sum "Si O2"
_cell_formula_units_Z 42
_cell_length_a 13.847106
_cell_length_b 13.847106
_cell_length_c 14.806546
_cell_angle_alpha 90.000000
_cell_angle_beta 90.000000
_cell_angle_gamma 120.000000
_cell_volume 2458.682360
_symmetry_space_group_name_H-M "P 65"
_symmetry_group_IT_number 170
_symmetry_cell_setting 'hexagonal'
loop_
_space_group_symop_operation_xyz
x,y,z
x-y,x,5/6+z
-y,x-y,2/3+z
-x,-y,1/2+z
-x+y,-x,1/3+z
y,-x+y,1/6+z
loop_
_atom_site_type_symbol
_atom_site_label
_atom_site_fract_x
_atom_site_fract_y
_atom_site_fract_z
Si Si1 0.345452 0.690903 0.562640
Si Si2 0.380210 0.494381 0.614788
Si Si3 0.404679 0.369154 0.874114
Si Si4 0.183054 0.751561 0.124705
Si Si5 0.505619 0.619790 0.177159
Si Si6 0.183054 0.431493 0.333909
Si Si7 0.404679 0.035526 0.584499
O O1 0.385876 0.612093 0.609123
O O2 0.440355 0.761067 0.490289
O O3 0.226217 0.612093 0.516156
O O4 0.320712 0.761067 0.634991
O O5 0.291920 0.423907 0.692267
O O6 0.489737 0.489737 0.645973
O O7 0.345849 0.441919 0.515407
O O8 0.401638 0.280336 0.945568
O O9 0.288984 0.367861 0.859064
O O10 0.441919 0.345849 0.776539
O O11 0.506231 0.493769 0.895973
O O12 0.576093 0.708080 0.099679
O O13 0.280336 0.401638 0.346378
O O14 0.078877 0.367861 0.266216
#
# Coordination Sequence:
#
# PCOD9580216 Si02
#       7
#     6   6   6   6   6   6   6
#     4  12  18  32  52  74 112 148 184 220 272 332
#     4  10  20  31  48  71 108 144 180 220 266 323
#     4  11  19  34  50  75 110 148 185 222 274 332
#     4  11  21  32  51  76 107 151 183 226 275 328
#     4  10  20  31  48  71 108 144 180 220 266 323
#     4  11  21  32  51  76 107 151 183 226 275 328
#     4  11  19  34  50  75 110 148 185 222 274 332
#
# _framework density 17.082319999999999
#
# number of rings (size 3 to 8) (size 9 to 14) (size 15 to 20)
#    0.000    1.143    7.143    0.857    0.000    0.000 
#    0.000    0.000    0.000    0.000    0.000    0.000 
#    0.000   34.286    0.000    0.000    0.000    0.000 
#
# Total GULP energy -233881.304150 kJ/mol
# GULP energy per Si atom -5568.602480 kJ/mol
# Density = 1.704344 g / cm^3
# Si number density = 17.082320 Si / 1000 Ang^3
#
#
#
# Elastic Constant Matrix: (Units=GPa)
#
#
# Indices 1 2 3 4 5 6 
#
# 1 88.1819 51.4286 26.8357 0.0000 0.0000 0.0000
# 2 51.4286 88.1819 26.8357 0.0000 0.0000 0.0000
# 3 26.8357 26.8357 43.5813 0.0000 0.0000 0.0000
# 4 0.0000 0.0000 0.0000 27.4115 0.0000 0.0000
# 5 0.0000 0.0000 0.0000 0.0000 27.4115 0.0000
# 6 0.0000 0.0000 0.0000 0.0000 0.0000 18.3766
#
#
#
# Elastic Compliance Matrix: (Units=1/GPa)
#
#
# Indices 1 2 3 4 5 6 
#
# 1 0.018296 -0.008912 -0.005778 0.000000 0.000000 0.000000
# 2 -0.008912 0.018296 -0.005778 0.000000 0.000000 0.000000
# 3 -0.005778 -0.005778 0.030062 0.000000 0.000000 0.000000
# 4 0.000000 0.000000 0.000000 0.036481 0.000000 0.000000
# 5 0.000000 0.000000 0.000000 0.000000 0.036481 0.000000
# 6 0.000000 0.000000 0.000000 0.000000 0.000000 0.054417
#
#
# Mechanical properties :
#
#
# Convention : Reuss Voigt Hill
#
# Bulk Modulus (GPa) = 38.88543 47.79391 43.33967
# Shear Modulus (GPa) = 20.53019 22.29627 21.41323
#
# Velocity S-wave (km/s) = 3.47052 3.61671 3.54437
# Velocity P-wave (km/s) = 6.23476 6.74389 6.49432
#
# Compressibility (1/GPa) = 0.02571657
#
# Stress axis : x y z
#
# Youngs Moduli (GPa) = 54.65571 54.65571 33.26471
#
# Poissons Ratio (x) = 0.48710 0.19222
# Poissons Ratio (y) = 0.48710 0.19222
# Poissons Ratio (z) = 0.31582 0.31582
#
# Static dielectric constant tensor:
#      x y z
#    x 1.616850 0.000000 0.000000 
#    y 0.000000 1.616850 0.000000 
#    z 0.000000 0.000000 1.630790 
# 
# From -- ./inp_files/1267.got.cif
#   From: 2010.05.17/outbox.cif.g08.bks.cpg/sg170_cif.got.tgz:1267.got - 2010.05.20 11:14:30.
