data_PCOD9580206
_publ_section_title
;
Structure prediction by ZEFSAII (Michael W. Deem and Ramdas Pophale) SiO2 
 PCOD9580206
Probable space group: P 65
;
_chemical_formula_sum "Si O2"
_cell_formula_units_Z 48
_cell_length_a 17.685928
_cell_length_b 17.685928
_cell_length_c 8.041518
_cell_angle_alpha 90.000000
_cell_angle_beta 90.000000
_cell_angle_gamma 120.000000
_cell_volume 2178.333525
_symmetry_space_group_name_H-M "P 65"
_symmetry_group_IT_number 170
_symmetry_cell_setting 'hexagonal'
loop_
_space_group_symop_operation_xyz
x,y,z
x-y,x,5/6+z
-y,x-y,2/3+z
-x,-y,1/2+z
-x+y,-x,1/3+z
y,-x+y,1/6+z
loop_
_atom_site_type_symbol
_atom_site_label
_atom_site_fract_x
_atom_site_fract_y
_atom_site_fract_z
Si Si1 0.355894 0.119370 0.730140
Si Si2 0.264528 0.363970 0.097430
Si Si3 0.301547 0.241717 0.667948
Si Si4 0.383845 0.656151 0.375795
Si Si5 0.008748 0.838754 0.302026
Si Si6 0.811596 0.568845 0.367499
Si Si7 0.907064 0.387941 0.213621
Si Si8 0.395955 0.976531 0.059211
O O1 0.337960 0.180235 0.606545
O O2 0.442253 0.111996 0.711969
O O3 0.275632 0.022288 0.715289
O O4 0.363621 0.169247 0.904711
O O5 0.325853 0.404304 0.255812
O O6 0.208099 0.259541 0.078003
O O7 0.207045 0.407910 0.048660
O O8 0.337453 0.402613 0.950286
O O9 0.228245 0.194091 0.812555
O O10 0.385769 0.331149 0.734389
O O11 0.363613 0.683074 0.198310
O O12 0.475596 0.728351 0.453946
O O13 0.388611 0.569471 0.338989
O O14 0.931914 0.845500 0.399074
O O15 0.904365 0.572716 0.359916
O O16 0.976775 0.490456 0.215023
#
# Coordination Sequence:
#
# PCOD9580206 Si02
#       8
#     6   6   6   6   6   6   6   6
#     4  11  20  40  61  94 124 170 207 274 317 401
#     4  11  21  40  65  94 129 174 220 268 343 410
#     4  10  19  37  69  91 124 171 219 255 336 405
#     4  11  22  40  62  92 133 179 228 284 339 403
#     4  11  21  42  73 100 129 170 225 275 339 423
#     4  10  19  38  62  83 123 168 217 263 335 396
#     4  11  25  39  59  93 134 161 225 278 325 395
#     4   9  21  36  61  87 120 167 215 267 316 393
#
# _framework density 22.035194000000001
#
# number of rings (size 3 to 8) (size 9 to 14) (size 15 to 20)
#    0.000    1.500    5.000    2.250    1.750    0.000 
#    4.500    1.250    0.000    0.000    0.000    0.000 
#    0.000    0.000    0.000    0.000    0.000    0.000 
#
# Total GULP energy -267464.605845 kJ/mol
# GULP energy per Si atom -5572.179288 kJ/mol
# Density = 2.198504 g / cm^3
# Si number density = 22.035194 Si / 1000 Ang^3
#
#
#
# Elastic Constant Matrix: (Units=GPa)
#
#
# Indices 1 2 3 4 5 6 
#
# 1 108.6526 41.6687 16.5008 0.0000 0.0000 0.0000
# 2 41.6687 108.6526 16.5008 0.0000 0.0000 0.0000
# 3 16.5008 16.5008 40.5906 0.0000 0.0000 0.0000
# 4 0.0000 0.0000 0.0000 23.4816 0.0000 0.0000
# 5 0.0000 0.0000 0.0000 0.0000 23.4816 0.0000
# 6 0.0000 0.0000 0.0000 0.0000 0.0000 33.4920
#
#
#
# Elastic Compliance Matrix: (Units=1/GPa)
#
#
# Indices 1 2 3 4 5 6 
#
# 1 0.011117 -0.003812 -0.002969 0.000000 0.000000 0.000000
# 2 -0.003812 0.011117 -0.002969 0.000000 0.000000 0.000000
# 3 -0.002969 -0.002969 0.027050 0.000000 0.000000 0.000000
# 4 0.000000 0.000000 0.000000 0.042587 0.000000 0.000000
# 5 0.000000 0.000000 0.000000 0.000000 0.042587 0.000000
# 6 0.000000 0.000000 0.000000 0.000000 0.000000 0.029858
#
#
# Mechanical properties :
#
#
# Convention : Reuss Voigt Hill
#
# Bulk Modulus (GPa) = 33.57770 45.24851 39.41310
# Shear Modulus (GPa) = 25.80725 28.30605 27.05665
#
# Velocity S-wave (km/s) = 3.42597 3.58800 3.50792
# Velocity P-wave (km/s) = 5.56066 6.14363 5.85940
#
# Compressibility (1/GPa) = 0.02978167
#
# Stress axis : x y z
#
# Youngs Moduli (GPa) = 89.95531 89.95531 36.96803
#
# Poissons Ratio (x) = 0.34294 0.10977
# Poissons Ratio (y) = 0.34294 0.10977
# Poissons Ratio (z) = 0.26711 0.26711
#
# Static dielectric constant tensor:
#      x y z
#    x 1.841910 0.000000 0.000000 
#    y 0.000000 1.841910 0.000000 
#    z 0.000000 0.000000 1.970150 
# 
# From -- ./inp_files/727.got.cif
#   From: 2010.05.17/outbox.cif.g08.bks.cpg/sg170_cif.got.tgz:727.got - 2010.05.20 11:14:30.
