data_PCOD9580046
_publ_section_title
;
Structure prediction by ZEFSAII (Michael W. Deem and Ramdas Pophale) SiO2 
 PCOD9580046
Probable space group: P 61
;
_chemical_formula_sum "Si O2"
_cell_formula_units_Z 24
_cell_length_a 12.947693
_cell_length_b 12.947693
_cell_length_c 7.326468
_cell_angle_alpha 90.000000
_cell_angle_beta 90.000000
_cell_angle_gamma 120.000000
_cell_volume 1063.677752
_symmetry_space_group_name_H-M "P 61"
_symmetry_group_IT_number 169
_symmetry_cell_setting 'hexagonal'
loop_
_space_group_symop_operation_xyz
x,y,z
x-y,x,1/6+z
-y,x-y,1/3+z
-x,-y,1/2+z
-x+y,-x,2/3+z
y,-x+y,5/6+z
loop_
_atom_site_type_symbol
_atom_site_label
_atom_site_fract_x
_atom_site_fract_y
_atom_site_fract_z
Si Si1 0.245996 0.034742 0.729050
Si Si2 0.957311 0.381197 0.763845
Si Si3 0.684543 0.403840 0.885840
Si Si4 0.599593 0.645649 0.717812
O O1 0.214862 0.135249 0.796095
O O2 0.354907 0.071374 0.585937
O O3 0.291532 0.000133 0.912998
O O4 0.842010 0.366093 0.659133
O O5 0.011499 0.514584 0.845585
O O6 0.031327 0.368868 0.598297
O O7 0.668554 0.303644 0.032860
O O8 0.814890 0.514385 0.851098
#
# Coordination Sequence:
#
# PCOD9580046 Si02
#       4
#     6   6   6   6
#     4  12  28  52  76 108 158 214 270 318 374 456
#     4  11  23  42  72 107 145 190 248 319 394 461
#     4  10  24  38  64 102 140 184 234 300 388 462
#     4  11  23  42  72 107 145 190 248 319 394 461
#
# _framework density 22.563224999999999
#
# number of rings (size 3 to 8) (size 9 to 14) (size 15 to 20)
#    0.000    1.000    2.500    3.000    3.500    8.000 
#    9.000    0.000    0.000    0.000    0.000    0.000 
#    0.000    0.000    0.000    0.000    0.000    0.000 
#
# Total GULP energy -133716.955565 kJ/mol
# GULP energy per Si atom -5571.539815 kJ/mol
# Density = 2.251187 g / cm^3
# Si number density = 22.563225 Si / 1000 Ang^3
#
#
#
# Elastic Constant Matrix: (Units=GPa)
#
#
# Indices 1 2 3 4 5 6 
#
# 1 -68.6769 161.4139 17.1247 0.0000 0.0000 0.0000
# 2 161.4139 -68.6769 17.1247 0.0000 0.0000 0.0000
# 3 17.1247 17.1247 90.8842 0.0000 0.0000 0.0000
# 4 0.0000 0.0000 0.0000 -15.3714 0.0000 0.0000
# 5 0.0000 0.0000 0.0000 0.0000 -15.3714 0.0000
# 6 0.0000 0.0000 0.0000 0.0000 0.0000 -115.0454
#
#
#
# Elastic Compliance Matrix: (Units=1/GPa)
#
#
# Indices 1 2 3 4 5 6 
#
# 1 0.003622 0.007968 -0.002184 0.000000 0.000000 0.000000
# 2 0.007968 0.003622 -0.002184 0.000000 0.000000 0.000000
# 3 -0.002184 -0.002184 0.011826 0.000000 0.000000 0.000000
# 4 0.000000 0.000000 0.000000 -0.065056 0.000000 0.000000
# 5 0.000000 0.000000 0.000000 0.000000 -0.065056 0.000000
# 6 0.000000 0.000000 0.000000 0.000000 0.000000 -0.008692
#
#
# Mechanical properties :
#
#
# Convention : Reuss Voigt Hill
#
# Bulk Modulus (GPa) = 38.06585 38.31745 38.19165
# Shear Modulus (GPa) = -42.30898 -45.29984 -43.80441
#
# Velocity S-wave (km/s) = -4.33497 -4.48558 -4.41092
# Velocity P-wave (km/s) = 2.85458 3.13179 2.99639
#
# Compressibility (1/GPa) = 0.02627026
#
# Stress axis : x y z
#
# Youngs Moduli (GPa) = 276.10654 276.10654 84.55974
#
# Poissons Ratio (x) = -2.19999 0.18466
# Poissons Ratio (y) = -2.19999 0.18466
# Poissons Ratio (z) = 0.60295 0.60295
#
# Static dielectric constant tensor:
#      x y z
#    x 2.578500 0.000000 0.000000 
#    y 0.000000 2.578500 0.000000 
#    z 0.000000 0.000000 2.189190 
# 
# From -- ./inp_files/80.got.cif
#   From: 2010.05.17/outbox.cif.g08.bks.cpg/sg169_cif.got.tgz:80.got - 2010.05.20 11:12:54.
