data_PCOD9580195
_publ_section_title
;
Structure prediction by ZEFSAII (Michael W. Deem and Ramdas Pophale) SiO2 
 PCOD9580195
Probable space group: P 65
;
_chemical_formula_sum "Si O2"
_cell_formula_units_Z 36
_cell_length_a 11.046783
_cell_length_b 11.046783
_cell_length_c 13.802866
_cell_angle_alpha 90.000000
_cell_angle_beta 90.000000
_cell_angle_gamma 120.000000
_cell_volume 1458.718696
_symmetry_space_group_name_H-M "P 65"
_symmetry_group_IT_number 170
_symmetry_cell_setting 'hexagonal'
loop_
_space_group_symop_operation_xyz
x,y,z
x-y,x,5/6+z
-y,x-y,2/3+z
-x,-y,1/2+z
-x+y,-x,1/3+z
y,-x+y,1/6+z
loop_
_atom_site_type_symbol
_atom_site_label
_atom_site_fract_x
_atom_site_fract_y
_atom_site_fract_z
Si Si1 0.218103 0.534301 0.139700
Si Si2 0.692800 0.173746 0.273986
Si Si3 0.195571 0.850912 0.978283
Si Si4 0.083457 0.194630 0.369148
Si Si5 0.410432 0.157830 0.018497
Si Si6 0.395810 0.995558 0.304569
O O1 0.362296 0.659439 0.093711
O O2 0.177888 0.617447 0.217531
O O3 0.272926 0.425020 0.158365
O O4 0.086885 0.455429 0.070483
O O5 0.725404 0.169871 0.388166
O O6 0.819006 0.179973 0.214651
O O7 0.544798 0.031729 0.256879
O O8 0.054587 0.835331 0.931610
O O9 0.168771 0.751596 0.068455
O O10 0.283929 0.001894 0.028611
O O11 0.147139 0.114421 0.427425
O O12 0.379953 0.269362 0.070059
#
# Coordination Sequence:
#
# PCOD9580195 Si02
#       6
#     6   6   6   6   6   6
#     4  10  22  39  62  92 137 165 219 274 337 400
#     4   9  21  36  62  92 136 170 216 285 334 401
#     4  11  20  38  62  99 126 175 228 273 341 398
#     4  10  19  36  64  97 137 181 234 279 341 414
#     4  12  22  36  66  94 132 175 221 278 335 417
#     4  10  22  39  58 100 130 176 210 279 338 394
#
# _framework density 24.679190999999999
#
# number of rings (size 3 to 8) (size 9 to 14) (size 15 to 20)
#    1.000    0.667    5.000    1.000    7.000    0.000 
#    0.000    0.000    0.000    6.000    0.000    0.000 
#    0.000    0.000    0.000    0.000    0.000    0.000 
#
# Total GULP energy -201028.417915 kJ/mol
# GULP energy per Si atom -5584.122720 kJ/mol
# Density = 2.462302 g / cm^3
# Si number density = 24.679191 Si / 1000 Ang^3
#
#
#
# Elastic Constant Matrix: (Units=GPa)
#
#
# Indices 1 2 3 4 5 6 
#
# 1 66.8469 7.2944 22.2825 0.0000 0.0000 0.0000
# 2 7.2944 66.8469 22.2825 0.0000 0.0000 0.0000
# 3 22.2825 22.2825 64.8996 0.0000 0.0000 0.0000
# 4 0.0000 0.0000 0.0000 5.7705 0.0000 0.0000
# 5 0.0000 0.0000 0.0000 0.0000 5.7705 0.0000
# 6 0.0000 0.0000 0.0000 0.0000 0.0000 29.7763
#
#
#
# Elastic Compliance Matrix: (Units=1/GPa)
#
#
# Indices 1 2 3 4 5 6 
#
# 1 0.016893 0.000102 -0.005835 0.000000 0.000000 0.000000
# 2 0.000102 0.016893 -0.005835 0.000000 0.000000 0.000000
# 3 -0.005835 -0.005835 0.019415 0.000000 0.000000 0.000000
# 4 0.000000 0.000000 0.000000 0.173296 0.000000 0.000000
# 5 0.000000 0.000000 0.000000 0.000000 0.173296 0.000000
# 6 0.000000 0.000000 0.000000 0.000000 0.000000 0.033584
#
#
# Mechanical properties :
#
#
# Convention : Reuss Voigt Hill
#
# Bulk Modulus (GPa) = 33.26108 33.59024 33.42566
# Shear Modulus (GPa) = 10.71726 18.04572 14.38149
#
# Velocity S-wave (km/s) = 2.08616 2.70703 2.41661
# Velocity P-wave (km/s) = 4.39424 4.83849 4.62171
#
# Compressibility (1/GPa) = 0.03006517
#
# Stress axis : x y z
#
# Youngs Moduli (GPa) = 59.19437 59.19437 51.50600
#
# Poissons Ratio (x) = -0.00601 0.30054
# Poissons Ratio (y) = -0.00601 0.30054
# Poissons Ratio (z) = 0.34540 0.34540
#
# Static dielectric constant tensor:
#      x y z
#    x 1.976270 0.000000 0.000000 
#    y 0.000000 1.976270 0.000000 
#    z 0.000000 0.000000 1.949720 
# 
# From -- ./inp_files/1349.got.cif
#   From: 2010.05.17/outbox.cif.g08.bks.cpg/sg170_cif.got.tgz:1349.got - 2010.05.20 11:14:30.
