data_PCOD9580688
_publ_section_title
;
Structure prediction by ZEFSAII (Michael W. Deem and Ramdas Pophale) SiO2 
 PCOD9580688
Probable space group: P 62
;
_chemical_formula_sum "Si O2"
_cell_formula_units_Z 45
_cell_length_a 17.432688
_cell_length_b 17.432688
_cell_length_c 8.659153
_cell_angle_alpha 90.000000
_cell_angle_beta 90.000000
_cell_angle_gamma 120.000000
_cell_volume 2278.949806
_symmetry_space_group_name_H-M "P 62"
_symmetry_group_IT_number 171
_symmetry_cell_setting 'hexagonal'
loop_
_space_group_symop_operation_xyz
x,y,z
x-y,x,1/3+z
-y,x-y,2/3+z
-x,-y,z
-x+y,-x,1/3+z
y,-x+y,2/3+z
loop_
_atom_site_type_symbol
_atom_site_label
_atom_site_fract_x
_atom_site_fract_y
_atom_site_fract_z
Si Si1 0.708960 0.367943 0.644650
Si Si2 0.161670 0.710302 0.976192
Si Si3 0.500000 0.000000 0.746718
Si Si4 0.368196 0.015070 0.546883
Si Si5 0.051678 0.254121 0.018583
Si Si6 0.117874 0.266926 0.675162
Si Si7 0.531490 0.877254 0.983457
Si Si8 0.717703 0.940449 0.833402
O O1 0.657299 0.327538 0.484645
O O2 0.732995 0.470209 0.638091
O O3 0.782735 0.338843 0.637448
O O4 0.106887 0.645199 0.834475
O O5 0.107596 0.667359 0.133884
O O6 0.164078 0.802829 0.953385
O O7 0.583969 0.031364 0.632496
O O8 0.510032 0.934510 0.864266
O O9 0.313782 0.035175 0.674969
O O10 0.296232 0.963431 0.414642
O O11 0.120905 0.247749 0.130997
O O12 0.957372 0.163845 0.009406
O O13 0.093079 0.276252 0.849465
O O14 0.029715 0.235833 0.576888
O O15 0.627118 0.892411 0.933177
#
# Coordination Sequence:
#
# PCOD9580688 Si02
#       8
#     6   6   3   6   6   6   6   6
#     4  10  24  41  67  97 139 182 227 283 351 419
#     4  10  22  45  62  98 137 181 222 283 344 414
#     4  10  24  42  64 104 130 170 236 278 336 416
#     4  10  23  42  65  98 133 173 227 279 346 410
#     4  11  23  44  66  99 130 180 230 280 352 419
#     4  11  25  42  70  94 139 175 235 281 350 417
#     4  10  24  42  68  97 137 174 229 282 348 417
#     4  11  23  42  69  97 133 178 223 290 344 420
#
# _framework density 19.745936
#
# number of rings (size 3 to 8) (size 9 to 14) (size 15 to 20)
#    0.000    1.600    2.667    1.600   11.200    1.600 
#    4.800    2.000    0.000    0.000    0.000    0.000 
#    0.000    0.000    0.000    0.000    0.000    0.000 
#
# Total GULP energy -250745.923467 kJ/mol
# GULP energy per Si atom -5572.131633 kJ/mol
# Density = 1.970099 g / cm^3
# Si number density = 19.745936 Si / 1000 Ang^3
#
#
#
# Elastic Constant Matrix: (Units=GPa)
#
#
# Indices 1 2 3 4 5 6 
#
# 1 90.8837 70.3964 47.4469 0.0000 0.0000 0.0000
# 2 70.3964 90.8837 47.4469 0.0000 0.0000 0.0000
# 3 47.4469 47.4469 102.9742 0.0000 0.0000 0.0000
# 4 0.0000 0.0000 0.0000 28.0366 0.0000 0.0000
# 5 0.0000 0.0000 0.0000 0.0000 28.0366 0.0000
# 6 0.0000 0.0000 0.0000 0.0000 0.0000 10.2436
#
#
#
# Elastic Compliance Matrix: (Units=1/GPa)
#
#
# Indices 1 2 3 4 5 6 
#
# 1 0.028659 -0.020152 -0.003920 0.000000 0.000000 0.000000
# 2 -0.020152 0.028659 -0.003920 0.000000 0.000000 0.000000
# 3 -0.003920 -0.003920 0.013323 0.000000 0.000000 0.000000
# 4 0.000000 0.000000 0.000000 0.035668 0.000000 0.000000
# 5 0.000000 0.000000 0.000000 0.000000 0.035668 0.000000
# 6 0.000000 0.000000 0.000000 0.000000 0.000000 0.097621
#
#
# Mechanical properties :
#
#
# Convention : Reuss Voigt Hill
#
# Bulk Modulus (GPa) = 68.22142 68.36910 68.29526
# Shear Modulus (GPa) = 16.64084 21.22679 18.93382
#
# Velocity S-wave (km/s) = 2.90616 3.28227 3.09992
# Velocity P-wave (km/s) = 6.77389 7.00457 6.89020
#
# Compressibility (1/GPa) = 0.01465815
#
# Stress axis : x y z
#
# Youngs Moduli (GPa) = 34.89349 34.89349 75.05752
#
# Poissons Ratio (x) = 0.70318 0.29419
# Poissons Ratio (y) = 0.70318 0.29419
# Poissons Ratio (z) = 0.13677 0.13677
#
# Static dielectric constant tensor:
#      x y z
#    x 1.700860 0.000000 0.000000 
#    y 0.000000 1.700860 0.000000 
#    z 0.000000 0.000000 1.749040 
# 
# From -- ./inp_files/4452.got.cif
#   From: 2010.05.17/outbox.cif.g08.bks.cpg/sg171_3_cif.got.tgz:4452.got - 2010.05.20 11:16:09.
