data_PCOD9581347
_publ_section_title
;
Structure prediction by ZEFSAII (Michael W. Deem and Ramdas Pophale) SiO2 
 PCOD9581347
Probable space group: P 6/M
;
_chemical_formula_sum "Si O2"
_cell_formula_units_Z 60
_cell_length_a 10.681022
_cell_length_b 10.681022
_cell_length_c 27.803937
_cell_angle_alpha 90.000000
_cell_angle_beta 90.000000
_cell_angle_gamma 120.000000
_cell_volume 2747.024588
_symmetry_space_group_name_H-M "P 6/M"
_symmetry_group_IT_number 175
_symmetry_cell_setting 'hexagonal'
loop_
_space_group_symop_operation_xyz
x,y,z
x-y,x,z
-y,x-y,z
-x,-y,z
-x+y,-x,z
y,-x+y,z
-x,-y,-z
-x+y,-x,-z
y,-x+y,-z
x,y,-z
x-y,x,-z
-y,x-y,-z
loop_
_atom_site_type_symbol
_atom_site_label
_atom_site_fract_x
_atom_site_fract_y
_atom_site_fract_z
Si Si1 0.671265 0.929995 0.241169
Si Si2 0.325748 0.064702 0.053036
Si Si3 0.341547 0.508318 0.146668
Si Si4 0.919821 0.253606 0.448453
Si Si5 0.076928 0.745131 0.654540
O O1 0.721224 0.810359 0.238758
O O2 0.570952 0.905034 0.195778
O O3 0.595652 0.908664 0.293583
O O4 0.278236 0.185593 0.055905
O O5 0.428841 0.092621 0.097840
O O6 0.393736 0.079613 0.000000
O O7 0.470884 0.672323 0.146557
O O8 0.900378 0.311949 0.500000
O O9 0.902153 0.313001 0.396863
O O10 0.082231 0.278600 0.448474
O O11 0.915746 0.722131 0.654505
#
# Coordination Sequence:
#
# PCOD9581347 Si02
#       5
#    12  12  12  12  12
#     4  10  19  32  52  75  99 127 163 211 260 303
#     4  10  21  38  62  89 113 135 161 199 244 289
#     4  10  24  40  52  73 103 138 176 208 245 285
#     4   8  11  14  22  40  72 113 150 180 216 275
#     4   8  13  20  32  54  83 115 151 190 236 289
#
# _framework density 21.841815
#
# number of rings (size 3 to 8) (size 9 to 14) (size 15 to 20)
#    0.400    2.400    0.000    2.000    0.000    8.800 
#    0.000    4.000    0.000    0.000    0.000    0.000 
#    0.000    1.600    0.000   15.600    0.000    2.000 
#
# Total GULP energy -334455.431783 kJ/mol
# GULP energy per Si atom -5574.257196 kJ/mol
# Density = 2.179210 g / cm^3
# Si number density = 21.841815 Si / 1000 Ang^3
#
#
#
# Elastic Constant Matrix: (Units=GPa)
#
#
# Indices 1 2 3 4 5 6 
#
# 1 57.0409 5.8691 54.6999 0.0000 0.0000 0.0000
# 2 5.8691 57.0409 54.6999 0.0000 0.0000 0.0000
# 3 54.6999 54.6999 267.5068 0.0000 0.0000 0.0000
# 4 0.0000 0.0000 0.0000 -39.7202 0.0000 0.0000
# 5 0.0000 0.0000 0.0000 0.0000 -39.7202 0.0000
# 6 0.0000 0.0000 0.0000 0.0000 0.0000 25.5859
#
#
#
# Elastic Compliance Matrix: (Units=1/GPa)
#
#
# Indices 1 2 3 4 5 6 
#
# 1 0.022105 0.002563 -0.005044 0.000000 0.000000 0.000000
# 2 0.002563 0.022105 -0.005044 0.000000 0.000000 0.000000
# 3 -0.005044 -0.005044 0.005801 0.000000 0.000000 0.000000
# 4 0.000000 0.000000 0.000000 -0.025176 0.000000 0.000000
# 5 0.000000 0.000000 0.000000 0.000000 -0.025176 0.000000
# 6 0.000000 0.000000 0.000000 0.000000 0.000000 0.039084
#
#
# Mechanical properties :
#
#
# Convention : Reuss Voigt Hill
#
# Bulk Modulus (GPa) = 28.60457 68.01404 48.30931
# Shear Modulus (GPa) = 76.39913 6.98375 41.69144
#
# Velocity S-wave (km/s) = 5.92067 1.79007 4.37371
# Velocity P-wave (km/s) = 7.73717 5.95646 6.90446
#
# Compressibility (1/GPa) = 0.03495944
#
# Stress axis : x y z
#
# Youngs Moduli (GPa) = 45.23952 45.23952 172.38417
#
# Poissons Ratio (x) = -0.11593 0.86950
# Poissons Ratio (y) = -0.11593 0.86950
# Poissons Ratio (z) = 0.22819 0.22819
#
# Static dielectric constant tensor:
#      x y z
#    x 1.764240 0.000000 0.000000 
#    y 0.000000 1.764240 0.000000 
#    z 0.000000 0.000000 1.872750 
# 
# From -- ./inp_files/3289.got.cif
#   From: 2010.05.17/outbox.cif.g08.bks.cpg/sg175_2_cif.got.tgz:3289.got - 2010.05.20 11:23:22.
