data_PCOD9581529
_publ_section_title
;
Structure prediction by ZEFSAII (Michael W. Deem and Ramdas Pophale) SiO2 
 PCOD9581529
Probable space group: P 6/M
;
_chemical_formula_sum "Si O2"
_cell_formula_units_Z 58
_cell_length_a 14.917497
_cell_length_b 14.917497
_cell_length_c 12.984780
_cell_angle_alpha 90.000000
_cell_angle_beta 90.000000
_cell_angle_gamma 120.000000
_cell_volume 2502.402388
_symmetry_space_group_name_H-M "P 6/M"
_symmetry_group_IT_number 175
_symmetry_cell_setting 'hexagonal'
loop_
_space_group_symop_operation_xyz
x,y,z
x-y,x,z
-y,x-y,z
-x,-y,z
-x+y,-x,z
y,-x+y,z
-x,-y,-z
-x+y,-x,-z
y,-x+y,-z
x,y,-z
x-y,x,-z
-y,x-y,-z
loop_
_atom_site_type_symbol
_atom_site_label
_atom_site_fract_x
_atom_site_fract_y
_atom_site_fract_z
Si Si1 0.669567 0.605779 0.739683
Si Si2 0.905922 0.152204 0.117908
Si Si3 0.775735 0.457637 0.500000
Si Si4 0.333334 0.666667 0.126348
Si Si5 0.515608 0.363113 0.732329
Si Si6 0.032053 0.816295 0.380068
O O1 0.768539 0.654847 0.814472
O O2 0.603164 0.484313 0.723015
O O3 0.587354 0.640486 0.772882
O O4 0.721862 0.670650 0.637453
O O5 0.028333 0.191397 0.131731
O O6 0.889995 0.171270 0.000000
O O7 0.654707 0.423718 0.500000
O O8 0.820101 0.503132 0.614486
O O9 0.436571 0.678688 0.181674
O O10 0.333334 0.666668 0.000000
O O11 0.028552 0.830202 0.500000
O O12 0.922371 0.795646 0.338328
#
# Coordination Sequence:
#
# PCOD9581529 Si02
#       6
#    12  12   6   4  12  12
#     4  11  26  41  65  98 141 166 228 278 342 406
#     4  10  22  41  68  98 131 176 227 286 344 407
#     4  10  20  41  72  96 130 174 236 281 318 400
#     4  12  27  49  77 100 132 183 232 275 346 423
#     4  11  26  46  66 104 134 184 223 282 348 395
#     4  10  22  39  61  95 135 181 220 267 325 397
#
# _framework density 23.177726
#
# number of rings (size 3 to 8) (size 9 to 14) (size 15 to 20)
#    0.207    1.241    2.069    1.655    8.690    4.138 
#    0.000    4.138    0.000    0.000    0.000    0.000 
#    0.000    0.000    0.000    0.000    0.000    0.000 
#
# Total GULP energy -323583.568734 kJ/mol
# GULP energy per Si atom -5579.027047 kJ/mol
# Density = 2.312497 g / cm^3
# Si number density = 23.177726 Si / 1000 Ang^3
#
#
#
# Elastic Constant Matrix: (Units=GPa)
#
#
# Indices 1 2 3 4 5 6 
#
# 1 91.9756 13.2033 4.4672 0.0000 0.0000 0.0000
# 2 13.2033 91.9747 4.4670 0.0000 0.0000 0.0001
# 3 4.4672 4.4670 98.8269 0.0000 0.0000 0.0000
# 4 0.0000 0.0000 0.0000 -114.9966 -0.0007 0.0000
# 5 0.0000 0.0000 0.0000 -0.0007 -114.9932 0.0000
# 6 0.0000 0.0001 0.0000 0.0000 0.0000 39.3857
#
#
#
# Elastic Compliance Matrix: (Units=1/GPa)
#
#
# Indices 1 2 3 4 5 6 
#
# 1 0.011120 -0.001575 -0.000431 0.000000 0.000000 0.000000
# 2 -0.001575 0.011120 -0.000431 0.000000 0.000000 0.000000
# 3 -0.000431 -0.000431 0.010158 0.000000 0.000000 0.000000
# 4 0.000000 0.000000 0.000000 -0.008696 0.000000 0.000000
# 5 0.000000 0.000000 0.000000 0.000000 -0.008696 0.000000
# 6 0.000000 0.000000 0.000000 0.000000 0.000000 0.025390
#
#
# Mechanical properties :
#
#
# Convention : Reuss Voigt Hill
#
# Bulk Modulus (GPa) = 36.33636 36.33913 36.33775
# Shear Modulus (GPa) = 91.83656 -20.74485 35.54586
#
# Velocity S-wave (km/s) = 6.30149 -2.99496 3.92040
# Velocity P-wave (km/s) = 8.28591 1.93722 6.01702
#
# Compressibility (1/GPa) = 0.02752064
#
# Stress axis : x y z
#
# Youngs Moduli (GPa) = 89.93174 89.93093 98.44745
#
# Poissons Ratio (x) = 0.14167 0.04247
# Poissons Ratio (y) = 0.14167 0.04247
# Poissons Ratio (z) = 0.03880 0.03880
#
# Static dielectric constant tensor:
#      x y z
#    x 1.894410 0.000000 0.000000 
#    y 0.000000 1.894410 0.000000 
#    z 0.000000 0.000000 1.883820 
# 
# From -- ./inp_files/2395.got.cif
#   From: 2010.05.17/outbox.cif.g08.bks.cpg/sg175_2_cif.got.tgz:2395.got - 2010.05.20 11:23:22.
