data_PCOD9581820
_publ_section_title
;
Structure prediction by ZEFSAII (Michael W. Deem and Ramdas Pophale) SiO2 
 PCOD9581820
Probable space group: P 63/M
;
_chemical_formula_sum "Si O2"
_cell_formula_units_Z 72
_cell_length_a 23.754842
_cell_length_b 23.754842
_cell_length_c 9.224234
_cell_angle_alpha 90.000000
_cell_angle_beta 90.000000
_cell_angle_gamma 120.000000
_cell_volume 4507.806190
_symmetry_space_group_name_H-M "P 63/M"
_symmetry_group_IT_number 176
_symmetry_cell_setting 'hexagonal'
loop_
_space_group_symop_operation_xyz
x,y,z
x-y,x,1/2+z
-y,x-y,z
-x,-y,1/2+z
-x+y,-x,z
y,-x+y,1/2+z
-x,-y,-z
-x+y,-x,1/2-z
y,-x+y,-z
x,y,1/2-z
x-y,x,-z
-y,x-y,1/2-z
loop_
_atom_site_type_symbol
_atom_site_label
_atom_site_fract_x
_atom_site_fract_y
_atom_site_fract_z
Si Si1 0.276230 0.408018 0.915050
Si Si2 0.797610 0.465819 0.924676
Si Si3 0.201080 0.663520 0.423440
Si Si4 0.194933 0.264358 0.924014
Si Si5 0.136919 0.402755 0.583389
Si Si6 0.729873 0.809017 0.077063
O O1 0.299955 0.416119 0.750000
O O2 0.254847 0.335562 0.967064
O O3 0.207285 0.406768 0.914508
O O4 0.323838 0.470220 0.008224
O O5 0.805167 0.473677 0.750000
O O6 0.802640 0.403273 0.968612
O O7 0.725569 0.453916 0.959738
O O8 0.849375 0.531680 0.003674
O O9 0.195588 0.662650 0.250000
O O10 0.185950 0.268017 0.750000
O O11 0.215571 0.210772 0.950692
O O12 0.131219 0.253866 0.006414
O O13 0.115955 0.398987 0.750000
O O14 0.091967 0.337534 0.494443
O O15 0.721371 0.810530 0.250000
#
# Coordination Sequence:
#
# PCOD9581820 Si02
#       6
#    12  12  12  12  12  12
#     4   8  15  28  43  60  87 119 148 185 231 272
#     4   9  16  26  40  60  88 121 157 199 247 293
#     4   9  16  25  39  60  86 117 155 197 239 286
#     4   9  19  34  51  75 103 125 150 186 224 264
#     4   9  17  29  44  64  91 121 155 196 236 275
#     4  10  19  32  53  77  99 125 153 183 223 267
#
# _framework density 15.972293000000001
#
# number of rings (size 3 to 8) (size 9 to 14) (size 15 to 20)
#    0.000    3.000    0.000    2.333    0.000    7.333 
#    0.000    0.000    0.000    3.333    0.000    0.000 
#    0.000    0.000    0.000    0.000    0.000    0.000 
#
# Total GULP energy -400897.014491 kJ/mol
# GULP energy per Si atom -5568.014090 kJ/mol
# Density = 1.593594 g / cm^3
# Si number density = 15.972293 Si / 1000 Ang^3
#
#
#
# Elastic Constant Matrix: (Units=GPa)
#
#
# Indices 1 2 3 4 5 6 
#
# 1 93.2986 54.3877 49.8977 0.0000 0.0000 0.0000
# 2 54.3877 93.2986 49.8977 0.0000 0.0000 0.0000
# 3 49.8977 49.8977 56.2497 0.0000 0.0000 0.0000
# 4 0.0000 0.0000 0.0000 20.9069 0.0000 0.0000
# 5 0.0000 0.0000 0.0000 0.0000 20.9069 0.0000
# 6 0.0000 0.0000 0.0000 0.0000 0.0000 19.4554
#
#
#
# Elastic Compliance Matrix: (Units=1/GPa)
#
#
# Indices 1 2 3 4 5 6 
#
# 1 0.021301 -0.004398 -0.014994 0.000000 0.000000 0.000000
# 2 -0.004398 0.021301 -0.014994 0.000000 0.000000 0.000000
# 3 -0.014994 -0.014994 0.044380 0.000000 0.000000 0.000000
# 4 0.000000 0.000000 0.000000 0.047831 0.000000 0.000000
# 5 0.000000 0.000000 0.000000 0.000000 0.047831 0.000000
# 6 0.000000 0.000000 0.000000 0.000000 0.000000 0.051399
#
#
# Mechanical properties :
#
#
# Convention : Reuss Voigt Hill
#
# Bulk Modulus (GPa) = 54.91794 61.24589 58.08192
# Shear Modulus (GPa) = 16.18706 18.16478 17.17592
#
# Velocity S-wave (km/s) = 3.18692 3.37600 3.28282
# Velocity P-wave (km/s) = 6.92819 7.32290 7.12828
#
# Compressibility (1/GPa) = 0.01820899
#
# Stress axis : x y z
#
# Youngs Moduli (GPa) = 46.94509 46.94509 22.53254
#
# Poissons Ratio (x) = 0.20648 0.33786
# Poissons Ratio (y) = 0.20648 0.33786
# Poissons Ratio (z) = 0.70391 0.70391
#
# Static dielectric constant tensor:
#      x y z
#    x 1.529330 0.000000 0.000000 
#    y 0.000000 1.529330 0.000000 
#    z 0.000000 0.000000 1.541290 
# 
# From -- ./inp_files/1151.got.cif
#   From: 2010.05.17/outbox.cif.g08.bks.cpg/sg176_1_cif.got.tgz:1151.got - 2010.06.03 11:36:45.
