data_PCOD9581014
_publ_section_title
;
Structure prediction by ZEFSAII (Michael W. Deem and Ramdas Pophale) SiO2 
 PCOD9581014
Probable space group: P 63
;
_chemical_formula_sum "Si O2"
_cell_formula_units_Z 42
_cell_length_a 10.565894
_cell_length_b 10.565894
_cell_length_c 18.376135
_cell_angle_alpha 90.000000
_cell_angle_beta 90.000000
_cell_angle_gamma 120.000000
_cell_volume 1776.631276
_symmetry_space_group_name_H-M "P 63"
_symmetry_group_IT_number 173
_symmetry_cell_setting 'hexagonal'
loop_
_space_group_symop_operation_xyz
x,y,z
x-y,x,1/2+z
-y,x-y,z
-x,-y,1/2+z
-x+y,-x,z
y,-x+y,1/2+z
loop_
_atom_site_type_symbol
_atom_site_label
_atom_site_fract_x
_atom_site_fract_y
_atom_site_fract_z
Si Si1 0.247861 0.380565 0.858080
Si Si2 0.630956 0.783210 0.279967
Si Si3 0.572762 0.505852 0.859379
Si Si4 0.104226 0.917863 0.984049
Si Si5 0.730916 0.018787 0.624941
Si Si6 0.751489 0.230064 0.204205
Si Si7 0.634921 0.477324 0.023402
O O1 0.246080 0.239652 0.820264
O O2 0.417100 0.492742 0.877916
O O3 0.149119 0.321701 0.929305
O O4 0.634908 0.500061 0.937583
O O5 0.487286 0.641512 0.311364
O O6 0.625185 0.921306 0.310283
O O7 0.641927 0.766036 0.194015
O O8 0.546696 0.763195 0.789990
O O9 0.930027 0.840940 0.970539
O O10 0.135224 0.914117 0.069107
O O11 0.671048 0.858366 0.662830
O O12 0.597070 0.978090 0.568537
O O13 0.824916 0.406912 0.188953
O O14 0.518820 0.307322 0.039744
#
# Coordination Sequence:
#
# PCOD9581014 Si02
#       7
#     6   6   6   6   6   6   6
#     4   9  21  42  64  96 137 180 226 306 360 401
#     4   9  20  39  64  99 134 175 233 286 351 425
#     4  10  18  37  66  96 131 171 236 286 339 424
#     4  10  26  46  62  92 138 184 239 299 355 436
#     4  11  22  41  62  97 145 181 228 297 369 411
#     4   9  20  43  68 101 139 179 239 290 357 446
#     4  10  19  32  66 105 126 174 245 284 345 427
#
# _framework density 23.640246000000001
#
# number of rings (size 3 to 8) (size 9 to 14) (size 15 to 20)
#    1.714    0.571    1.429    1.143    4.000    1.143 
#    5.143    4.286    0.000    0.000    0.000    0.000 
#    0.000    0.000    0.000    0.000    0.000    0.000 
#
# Total GULP energy -233803.025966 kJ/mol
# GULP energy per Si atom -5566.738713 kJ/mol
# Density = 2.358644 g / cm^3
# Si number density = 23.640246 Si / 1000 Ang^3
#
#
#
# Elastic Constant Matrix: (Units=GPa)
#
#
# Indices 1 2 3 4 5 6 
#
# 1 58.9118 26.1957 43.8402 0.0000 0.0000 0.0000
# 2 26.1957 58.9118 43.8402 0.0000 0.0000 0.0000
# 3 43.8402 43.8402 200.7737 0.0000 0.0000 0.0000
# 4 0.0000 0.0000 0.0000 33.4522 0.0000 0.0000
# 5 0.0000 0.0000 0.0000 0.0000 33.4522 0.0000
# 6 0.0000 0.0000 0.0000 0.0000 0.0000 16.3581
#
#
#
# Elastic Compliance Matrix: (Units=1/GPa)
#
#
# Indices 1 2 3 4 5 6 
#
# 1 0.022863 -0.007703 -0.003310 0.000000 0.000000 0.000000
# 2 -0.007703 0.022863 -0.003310 0.000000 0.000000 0.000000
# 3 -0.003310 -0.003310 0.006426 0.000000 0.000000 0.000000
# 4 0.000000 0.000000 0.000000 0.029893 0.000000 0.000000
# 5 0.000000 0.000000 0.000000 0.000000 0.029893 0.000000
# 6 0.000000 0.000000 0.000000 0.000000 0.000000 0.061132
#
#
# Mechanical properties :
#
#
# Convention : Reuss Voigt Hill
#
# Bulk Modulus (GPa) = 42.54310 60.70548 51.62429
# Shear Modulus (GPa) = 23.86025 30.30060 27.08043
#
# Velocity S-wave (km/s) = 3.18041 3.58402 3.38823
# Velocity P-wave (km/s) = 5.61442 6.54687 6.09850
#
# Compressibility (1/GPa) = 0.02350557
#
# Stress axis : x y z
#
# Youngs Moduli (GPa) = 43.73858 43.73858 155.60820
#
# Poissons Ratio (x) = 0.33691 0.51512
# Poissons Ratio (y) = 0.33691 0.51512
# Poissons Ratio (z) = 0.14479 0.14479
#
# Static dielectric constant tensor:
#      x y z
#    x 1.967160 0.000000 0.000000 
#    y 0.000000 1.967160 0.000000 
#    z 0.000000 0.000000 1.897630 
# 
# From -- ./inp_files/1303.got.cif
#   From: 2010.05.17/outbox.cif.g08.bks.cpg/sg173_cif.got.tgz:1303.got - 2010.05.20 11:21:53.
