data_PCOD9581471
_publ_section_title
;
Structure prediction by ZEFSAII (Michael W. Deem and Ramdas Pophale) SiO2 
 PCOD9581471
Probable space group: P 6/M
;
_chemical_formula_sum "Si O2"
_cell_formula_units_Z 84
_cell_length_a 17.852455
_cell_length_b 17.852455
_cell_length_c 17.807403
_cell_angle_alpha 90.000000
_cell_angle_beta 90.000000
_cell_angle_gamma 120.000000
_cell_volume 4915.040640
_symmetry_space_group_name_H-M "P 6/M"
_symmetry_group_IT_number 175
_symmetry_cell_setting 'hexagonal'
loop_
_space_group_symop_operation_xyz
x,y,z
x-y,x,z
-y,x-y,z
-x,-y,z
-x+y,-x,z
y,-x+y,z
-x,-y,-z
-x+y,-x,-z
y,-x+y,-z
x,y,-z
x-y,x,-z
-y,x-y,-z
loop_
_atom_site_type_symbol
_atom_site_label
_atom_site_fract_x
_atom_site_fract_y
_atom_site_fract_z
Si Si1 0.993425 0.410285 0.687259
Si Si2 0.168358 0.185586 0.089681
Si Si3 0.189623 0.505487 0.663620
Si Si4 0.007793 0.663482 0.157978
Si Si5 0.354240 0.512682 0.911866
Si Si6 0.515929 0.169820 0.411323
Si Si7 0.687837 0.184571 0.160226
O O1 0.088141 0.436972 0.658592
O O2 0.967395 0.344423 0.756159
O O3 0.000000 0.500000 0.716844
O O4 0.924968 0.377525 0.620856
O O5 0.172076 0.098501 0.105651
O O6 0.243626 0.266134 0.134298
O O7 0.184076 0.202913 0.000000
O O8 0.201555 0.594964 0.631411
O O9 0.248978 0.481533 0.615000
O O10 0.210473 0.511238 0.751977
O O11 0.906663 0.591649 0.151092
O O12 0.067750 0.639834 0.107672
O O13 0.260338 0.495044 0.886042
O O14 0.425783 0.596034 0.867445
O O15 0.366077 0.530821 0.000000
O O16 0.527975 0.171036 0.500000
#
# Coordination Sequence:
#
# PCOD9581471 Si02
#       7
#    12  12  12  12  12  12  12
#     4   9  20  37  54  73 102 141 173 203 254 311
#     4  10  21  37  57  81 109 139 171 214 269 320
#     4  10  20  35  54  74 100 135 173 210 249 303
#     4  11  21  36  57  79 101 134 181 224 261 307
#     4  12  24  36  52  75 105 139 179 226 274 317
#     4  11  21  33  53  80 106 130 164 210 257 304
#     4  11  23  39  55  72 103 144 183 221 264 316
#
# _framework density 17.090398
#
# number of rings (size 3 to 8) (size 9 to 14) (size 15 to 20)
#    0.000    1.429    0.000    7.571    0.000    8.857 
#    0.000    0.000    0.000    0.000    0.000    0.000 
#    0.000    0.000    0.000    0.000    0.000   10.571 
#
# Total GULP energy -469391.962012 kJ/mol
# GULP energy per Si atom -5587.999548 kJ/mol
# Density = 1.705150 g / cm^3
# Si number density = 17.090398 Si / 1000 Ang^3
#
#
#
# Elastic Constant Matrix: (Units=GPa)
#
#
# Indices 1 2 3 4 5 6 
#
# 1 52.5687 4.5846 22.2013 0.0000 0.0000 0.0000
# 2 4.5846 52.5687 22.2013 0.0000 0.0000 0.0000
# 3 22.2013 22.2013 63.3383 0.0000 0.0000 0.0000
# 4 0.0000 0.0000 0.0000 -54.5397 0.0000 0.0000
# 5 0.0000 0.0000 0.0000 0.0000 -54.5397 0.0000
# 6 0.0000 0.0000 0.0000 0.0000 0.0000 23.9921
#
#
#
# Elastic Compliance Matrix: (Units=1/GPa)
#
#
# Indices 1 2 3 4 5 6 
#
# 1 0.022442 0.001602 -0.008428 0.000000 0.000000 0.000000
# 2 0.001602 0.022442 -0.008428 0.000000 0.000000 0.000000
# 3 -0.008428 -0.008428 0.021697 0.000000 0.000000 0.000000
# 4 0.000000 0.000000 0.000000 -0.018335 0.000000 0.000000
# 5 0.000000 0.000000 0.000000 0.000000 -0.018335 0.000000
# 6 0.000000 0.000000 0.000000 0.000000 0.000000 0.041680
#
#
# Mechanical properties :
#
#
# Convention : Reuss Voigt Hill
#
# Bulk Modulus (GPa) = 27.72118 29.60555 28.66337
# Shear Modulus (GPa) = 43.81210 -9.05154 17.38028
#
# Velocity S-wave (km/s) = 5.06864 -2.30386 3.19244
# Velocity P-wave (km/s) = 7.10707 3.20679 5.51334
#
# Compressibility (1/GPa) = 0.03607350
#
# Stress axis : x y z
#
# Youngs Moduli (GPa) = 44.55852 44.55852 46.09009
#
# Poissons Ratio (x) = -0.07139 0.38845
# Poissons Ratio (y) = -0.07139 0.38845
# Poissons Ratio (z) = 0.37554 0.37554
#
# Static dielectric constant tensor:
#      x y z
#    x 1.583450 0.000000 0.000000 
#    y 0.000000 1.583450 0.000000 
#    z 0.000000 0.000000 1.560390 
# 
# From -- ./inp_files/2635.got.cif
#   From: 2010.05.17/outbox.cif.g08.bks.cpg/sg175_2_cif.got.tgz:2635.got - 2010.05.20 11:23:22.
