data_PCOD9581250
_publ_section_title
;
Structure prediction by ZEFSAII (Michael W. Deem and Ramdas Pophale) SiO2 
 PCOD9581250
Probable space group: P 6/M
;
_chemical_formula_sum "Si O2"
_cell_formula_units_Z 66
_cell_length_a 20.275977
_cell_length_b 20.275977
_cell_length_c 12.521150
_cell_angle_alpha 90.000000
_cell_angle_beta 90.000000
_cell_angle_gamma 120.000000
_cell_volume 4457.983224
_symmetry_space_group_name_H-M "P 6/M"
_symmetry_group_IT_number 175
_symmetry_cell_setting 'hexagonal'
loop_
_space_group_symop_operation_xyz
x,y,z
x-y,x,z
-y,x-y,z
-x,-y,z
-x+y,-x,z
y,-x+y,z
-x,-y,-z
-x+y,-x,-z
y,-x+y,-z
x,y,-z
x-y,x,-z
-y,x-y,-z
loop_
_atom_site_type_symbol
_atom_site_label
_atom_site_fract_x
_atom_site_fract_y
_atom_site_fract_z
Si Si1 0.582158 0.717561 0.871558
Si Si2 0.158179 0.006444 0.372631
Si Si3 0.153902 0.162884 0.000000
Si Si4 0.996524 0.259667 0.804191
Si Si5 0.706252 0.572189 0.128351
Si Si6 0.548906 0.088484 0.129401
O O1 0.662062 0.737731 0.819173
O O2 0.563213 0.784089 0.852130
O O3 0.513775 0.635669 0.835448
O O4 0.592282 0.713692 0.000000
O O5 0.150580 0.079952 0.345650
O O6 0.169677 0.006990 0.500000
O O7 0.226080 0.008308 0.305892
O O8 0.152056 0.082433 0.000000
O O9 0.200991 0.211918 0.897314
O O10 0.930163 0.280190 0.819213
O O11 0.627379 0.499001 0.163294
O O12 0.701107 0.581393 0.000000
O O13 0.500000 0.000000 0.159738
O O14 0.551572 0.091810 0.000000
#
# Coordination Sequence:
#
# PCOD9581250 Si02
#       6
#    12  12   6  12  12  12
#     4  10  18  29  45  66  94 124 156 194 233 277
#     4  10  21  36  51  66  88 121 160 199 236 274
#     4  12  23  32  42  63  94 124 150 184 226 273
#     4  12  20  31  48  70  92 121 158 190 230 279
#     4  10  18  29  45  66  94 124 156 194 233 277
#     4   9  16  28  42  62  88 124 162 188 222 274
#
# _framework density 14.804902
#
# number of rings (size 3 to 8) (size 9 to 14) (size 15 to 20)
#    0.000    1.636    3.636    3.545    0.000    0.727 
#    1.091    1.818    0.000    0.000    0.000    2.545 
#    0.000    0.000    0.000    0.000    0.364    0.000 
#
# Total GULP energy -368223.155913 kJ/mol
# GULP energy per Si atom -5579.138726 kJ/mol
# Density = 1.477121 g / cm^3
# Si number density = 14.804902 Si / 1000 Ang^3
#
#
#
# Elastic Constant Matrix: (Units=GPa)
#
#
# Indices 1 2 3 4 5 6 
#
# 1 41.8130 -7.7410 9.5706 0.0000 0.0000 0.0000
# 2 -7.7410 41.8130 9.5706 0.0000 0.0000 0.0000
# 3 9.5706 9.5706 17.3714 0.0000 0.0000 0.0000
# 4 0.0000 0.0000 0.0000 14.0382 0.0000 0.0000
# 5 0.0000 0.0000 0.0000 0.0000 14.0382 0.0000
# 6 0.0000 0.0000 0.0000 0.0000 0.0000 24.7770
#
#
#
# Elastic Compliance Matrix: (Units=1/GPa)
#
#
# Indices 1 2 3 4 5 6 
#
# 1 0.031343 0.011163 -0.023418 0.000000 0.000000 0.000000
# 2 0.011163 0.031343 -0.023418 0.000000 0.000000 0.000000
# 3 -0.023418 -0.023418 0.083370 0.000000 0.000000 0.000000
# 4 0.000000 0.000000 0.000000 0.071234 0.000000 0.000000
# 5 0.000000 0.000000 0.000000 0.000000 0.071234 0.000000
# 6 0.000000 0.000000 0.000000 0.000000 0.000000 0.040360
#
#
# Mechanical properties :
#
#
# Convention : Reuss Voigt Hill
#
# Bulk Modulus (GPa) = 13.38531 13.75532 13.57031
# Shear Modulus (GPa) = 11.76100 16.54380 14.15240
#
# Velocity S-wave (km/s) = 2.82157 3.34646 3.09516
# Velocity P-wave (km/s) = 4.43573 4.92371 4.68608
#
# Compressibility (1/GPa) = 0.07470877
#
# Stress axis : x y z
#
# Youngs Moduli (GPa) = 31.90525 31.90525 11.99473
#
# Poissons Ratio (x) = -0.35615 0.28089
# Poissons Ratio (y) = -0.35615 0.28089
# Poissons Ratio (z) = 0.74716 0.74716
#
# Static dielectric constant tensor:
#      x y z
#    x 1.487950 0.000000 0.000000 
#    y 0.000000 1.487950 0.000000 
#    z 0.000000 0.000000 1.468350 
# 
# From -- ./inp_files/2491.got.cif
#   From: 2010.05.17/outbox.cif.g08.bks.cpg/sg175_2_cif.got.tgz:2491.got - 2010.05.20 11:23:22.
