data_PCOD9581237
_publ_section_title
;
Structure prediction by ZEFSAII (Michael W. Deem and Ramdas Pophale) SiO2 
 PCOD9581237
Probable space group: P 6/M
;
_chemical_formula_sum "Si O2"
_cell_formula_units_Z 60
_cell_length_a 18.070675
_cell_length_b 18.070675
_cell_length_c 11.606356
_cell_angle_alpha 90.000000
_cell_angle_beta 90.000000
_cell_angle_gamma 120.000000
_cell_volume 3282.277303
_symmetry_space_group_name_H-M "P 6/M"
_symmetry_group_IT_number 175
_symmetry_cell_setting 'hexagonal'
loop_
_space_group_symop_operation_xyz
x,y,z
x-y,x,z
-y,x-y,z
-x,-y,z
-x+y,-x,z
y,-x+y,z
-x,-y,-z
-x+y,-x,-z
y,-x+y,-z
x,y,-z
x-y,x,-z
-y,x-y,-z
loop_
_atom_site_type_symbol
_atom_site_label
_atom_site_fract_x
_atom_site_fract_y
_atom_site_fract_z
Si Si1 0.093036 0.779259 0.269256
Si Si2 0.187685 0.527153 0.867252
Si Si3 0.818680 0.335434 0.739416
Si Si4 0.865961 0.795001 0.500000
Si Si5 0.920904 0.674678 0.133311
Si Si6 0.405989 0.775634 0.500000
O O1 0.131351 0.715753 0.277855
O O2 0.090722 0.825250 0.387259
O O3 0.153591 0.848953 0.175930
O O4 0.999624 0.724733 0.217314
O O5 0.151828 0.589306 0.832634
O O6 0.265933 0.542878 0.783383
O O7 0.118585 0.427371 0.856001
O O8 0.217543 0.542250 0.000000
O O9 0.822700 0.379224 0.617932
O O10 0.837464 0.867830 0.500000
O O11 0.943692 0.697844 0.000000
O O12 0.303716 0.728233 0.500000
#
# Coordination Sequence:
#
# PCOD9581237 Si02
#       6
#    12  12  12   6  12   6
#     4  11  23  40  64  88 122 156 193 246 308 370
#     4  10  20  34  56  85 120 162 211 255 291 341
#     4  11  20  35  56  85 119 163 209 254 302 342
#     4  12  24  46  74  98 119 151 194 253 315 383
#     4  10  22  40  62  88 119 161 199 239 303 370
#     4  10  17  32  54  74 107 151 196 246 284 327
#
# _framework density 18.279990999999999
#
# number of rings (size 3 to 8) (size 9 to 14) (size 15 to 20)
#    0.200    1.200    4.000    2.300    0.000    3.200 
#    0.000    3.000    0.000    2.400    0.000    2.800 
#    0.000    0.000    0.000    0.000    0.000    0.000 
#
# Total GULP energy -334612.224952 kJ/mol
# GULP energy per Si atom -5576.870416 kJ/mol
# Density = 1.823838 g / cm^3
# Si number density = 18.279991 Si / 1000 Ang^3
#
#
#
# Elastic Constant Matrix: (Units=GPa)
#
#
# Indices 1 2 3 4 5 6 
#
# 1 60.0090 26.3348 18.2177 0.0000 0.0000 0.0000
# 2 26.3348 60.0090 18.2177 0.0000 0.0000 0.0000
# 3 18.2177 18.2177 88.1785 0.0000 0.0000 0.0000
# 4 0.0000 0.0000 0.0000 22.3823 0.0000 0.0000
# 5 0.0000 0.0000 0.0000 0.0000 22.3823 0.0000
# 6 0.0000 0.0000 0.0000 0.0000 0.0000 16.8371
#
#
#
# Elastic Compliance Matrix: (Units=1/GPa)
#
#
# Indices 1 2 3 4 5 6 
#
# 1 0.021192 -0.008504 -0.002621 0.000000 0.000000 0.000000
# 2 -0.008504 0.021192 -0.002621 0.000000 0.000000 0.000000
# 3 -0.002621 -0.002621 0.012424 0.000000 0.000000 0.000000
# 4 0.000000 0.000000 0.000000 0.044678 0.000000 0.000000
# 5 0.000000 0.000000 0.000000 0.000000 0.044678 0.000000
# 6 0.000000 0.000000 0.000000 0.000000 0.000000 0.059393
#
#
# Mechanical properties :
#
#
# Convention : Reuss Voigt Hill
#
# Bulk Modulus (GPa) = 36.61119 37.08190 36.84654
# Shear Modulus (GPa) = 20.81984 22.01540 21.41762
#
# Velocity S-wave (km/s) = 3.37848 3.47413 3.42664
# Velocity P-wave (km/s) = 5.94057 6.03509 5.98802
#
# Compressibility (1/GPa) = 0.02731406
#
# Stress axis : x y z
#
# Youngs Moduli (GPa) = 47.18751 47.18751 80.49100
#
# Poissons Ratio (x) = 0.40130 0.21099
# Poissons Ratio (y) = 0.40130 0.21099
# Poissons Ratio (z) = 0.12369 0.12369
#
# Static dielectric constant tensor:
#      x y z
#    x 1.629350 0.000000 0.000000 
#    y 0.000000 1.629350 0.000000 
#    z 0.000000 0.000000 1.606530 
# 
# From -- ./inp_files/1848.got.cif
#   From: 2010.05.17/outbox.cif.g08.bks.cpg/sg175_1_cif.got.tgz:1848.got - 2010.05.20 11:23:22.
