data_PCOD9581943
_publ_section_title
;
Structure prediction by ZEFSAII (Michael W. Deem and Ramdas Pophale) SiO2 
 PCOD9581943
Probable space group: P 63/M
;
_chemical_formula_sum "Si O2"
_cell_formula_units_Z 48
_cell_length_a 16.715049
_cell_length_b 16.715049
_cell_length_c 10.376425
_cell_angle_alpha 90.000000
_cell_angle_beta 90.000000
_cell_angle_gamma 120.000000
_cell_volume 2510.693459
_symmetry_space_group_name_H-M "P 63/M"
_symmetry_group_IT_number 176
_symmetry_cell_setting 'hexagonal'
loop_
_space_group_symop_operation_xyz
x,y,z
x-y,x,1/2+z
-y,x-y,z
-x,-y,1/2+z
-x+y,-x,z
y,-x+y,1/2+z
-x,-y,-z
-x+y,-x,1/2-z
y,-x+y,-z
x,y,1/2-z
x-y,x,-z
-y,x-y,1/2-z
loop_
_atom_site_type_symbol
_atom_site_label
_atom_site_fract_x
_atom_site_fract_y
_atom_site_fract_z
Si Si1 0.005023 0.299666 0.501105
Si Si2 0.199999 0.176569 0.750000
Si Si3 0.822112 0.025571 0.250000
Si Si4 0.498016 0.365113 0.597035
Si Si5 0.697479 0.533258 0.902644
O O1 0.061048 0.410036 0.483959
O O2 0.022702 0.255715 0.375299
O O3 0.035023 0.263581 0.624451
O O4 0.898458 0.271409 0.520360
O O5 0.189207 0.075916 0.750000
O O6 0.101985 0.172453 0.750000
O O7 0.481492 0.372026 0.750000
O O8 0.594351 0.454509 0.561953
O O9 0.503882 0.272316 0.580936
O O10 0.697803 0.554460 0.750000
#
# Coordination Sequence:
#
# PCOD9581943 Si02
#       5
#    12   6   6  12  12
#     4  12  23  40  63  90 122 158 200 252 301 354
#     4  12  25  42  63  88 120 160 204 252 303 358
#     4  12  25  42  63  88 120 160 204 252 303 358
#     4  10  20  37  61  91 124 160 201 246 296 355
#     4  10  20  37  61  91 124 160 201 246 296 355
#
# _framework density 19.118224000000001
#
# number of rings (size 3 to 8) (size 9 to 14) (size 15 to 20)
#    0.000    1.000    2.500    6.000    0.000    2.000 
#    0.000    2.500    0.000    0.000    0.000    3.500 
#    0.000    0.000    0.000    0.000    0.000    0.000 
#
# Total GULP energy -268455.393996 kJ/mol
# GULP energy per Si atom -5592.820708 kJ/mol
# Density = 1.907471 g / cm^3
# Si number density = 19.118224 Si / 1000 Ang^3
#
#
#
# Elastic Constant Matrix: (Units=GPa)
#
#
# Indices 1 2 3 4 5 6 
#
# 1 73.5101 -2.0108 22.7447 0.0000 0.0000 0.0000
# 2 -2.0108 73.5101 22.7447 0.0000 0.0000 0.0000
# 3 22.7447 22.7447 96.6121 0.0000 0.0000 0.0000
# 4 0.0000 0.0000 0.0000 5.5659 0.0000 0.0000
# 5 0.0000 0.0000 0.0000 0.0000 5.5659 0.0000
# 6 0.0000 0.0000 0.0000 0.0000 0.0000 37.7604
#
#
#
# Elastic Compliance Matrix: (Units=1/GPa)
#
#
# Indices 1 2 3 4 5 6 
#
# 1 0.014846 0.001604 -0.003873 0.000000 0.000000 0.000000
# 2 0.001604 0.014846 -0.003873 0.000000 0.000000 0.000000
# 3 -0.003873 -0.003873 0.012174 0.000000 0.000000 0.000000
# 4 0.000000 0.000000 0.000000 0.179666 0.000000 0.000000
# 5 0.000000 0.000000 0.000000 0.000000 0.179666 0.000000
# 6 0.000000 0.000000 0.000000 0.000000 0.000000 0.026483
#
#
# Mechanical properties :
#
#
# Convention : Reuss Voigt Hill
#
# Bulk Modulus (GPa) = 33.80279 36.73219 35.26749
# Shear Modulus (GPa) = 11.11546 23.12202 17.11874
#
# Velocity S-wave (km/s) = 2.41385 3.48145 2.99559
# Velocity P-wave (km/s) = 5.04859 5.95110 5.51832
#
# Compressibility (1/GPa) = 0.02958335
#
# Stress axis : x y z
#
# Youngs Moduli (GPa) = 67.35948 67.35948 82.14140
#
# Poissons Ratio (x) = -0.10807 0.31811
# Poissons Ratio (y) = -0.10807 0.31811
# Poissons Ratio (z) = 0.26087 0.26087
#
# Static dielectric constant tensor:
#      x y z
#    x 1.655420 0.000000 0.000000 
#    y 0.000000 1.655420 0.000000 
#    z 0.000000 0.000000 1.634890 
# 
# From -- ./inp_files/605.got.cif
#   From: 2010.05.17/outbox.cif.g08.bks.cpg/sg176_1_cif.got.tgz:605.got - 2010.06.03 11:36:45.
