data_PCOD9581085
_publ_section_title
;
Structure prediction by ZEFSAII (Michael W. Deem and Ramdas Pophale) SiO2 
 PCOD9581085
Probable space group: P 63
;
_chemical_formula_sum "Si O2"
_cell_formula_units_Z 36
_cell_length_a 8.314444
_cell_length_b 8.314444
_cell_length_c 29.756678
_cell_angle_alpha 90.000000
_cell_angle_beta 90.000000
_cell_angle_gamma 120.000000
_cell_volume 1781.482261
_symmetry_space_group_name_H-M "P 63"
_symmetry_group_IT_number 173
_symmetry_cell_setting 'hexagonal'
loop_
_space_group_symop_operation_xyz
x,y,z
x-y,x,1/2+z
-y,x-y,z
-x,-y,1/2+z
-x+y,-x,z
y,-x+y,1/2+z
loop_
_atom_site_type_symbol
_atom_site_label
_atom_site_fract_x
_atom_site_fract_y
_atom_site_fract_z
Si Si1 0.320692 0.448342 0.411560
Si Si2 0.668763 0.996024 0.312046
Si Si3 0.332429 0.878270 0.085677
Si Si4 0.665102 0.661925 0.272294
Si Si5 0.455983 0.120022 0.172123
Si Si6 0.211317 0.212402 0.499283
O O1 0.500849 0.655751 0.412337
O O2 0.314347 0.349192 0.365161
O O3 0.304623 0.325426 0.454221
O O4 0.595669 0.799838 0.287755
O O5 0.536564 0.070718 0.294626
O O6 0.872001 0.134250 0.294102
O O7 0.160175 0.666005 0.085250
O O8 0.347306 0.993177 0.130111
O O9 0.318090 0.983714 0.042242
O O10 0.666693 0.637362 0.219141
O O11 0.669596 0.161534 0.170740
O O12 0.173408 0.000938 0.500150
#
# Coordination Sequence:
#
# PCOD9581085 Si02
#       6
#     6   6   6   6   6   6
#     4  10  23  42  68  96 128 180 225 267 340 401
#     4  12  24  44  67 100 142 183 227 282 336 415
#     4  10  26  42  67  96 128 169 225 278 345 412
#     4  12  24  44  67 100 142 183 226 279 342 412
#     4  10  23  42  68  94 129 176 219 268 339 400
#     4  10  26  42  67  94 133 169 222 288 342 406
#
# _framework density 20.207891
#
# number of rings (size 3 to 8) (size 9 to 14) (size 15 to 20)
#    1.333    0.000    3.333    1.000    9.333    0.000 
#    0.000    0.000    0.000    0.000    0.000    0.000 
#    0.000    0.000    0.000    0.000    0.000    0.000 
#
# Total GULP energy -200751.531788 kJ/mol
# GULP energy per Si atom -5576.431439 kJ/mol
# Density = 2.016190 g / cm^3
# Si number density = 20.207891 Si / 1000 Ang^3
#
#
#
# Elastic Constant Matrix: (Units=GPa)
#
#
# Indices 1 2 3 4 5 6 
#
# 1 56.4184 24.0235 60.7185 0.0000 0.0000 0.0000
# 2 24.0235 56.4184 60.7185 0.0000 0.0000 0.0000
# 3 60.7185 60.7185 251.9505 0.0000 0.0000 0.0000
# 4 0.0000 0.0000 0.0000 60.2948 0.0000 0.0000
# 5 0.0000 0.0000 0.0000 0.0000 60.2948 0.0000
# 6 0.0000 0.0000 0.0000 0.0000 0.0000 16.1975
#
#
#
# Elastic Compliance Matrix: (Units=1/GPa)
#
#
# Indices 1 2 3 4 5 6 
#
# 1 0.025205 -0.005664 -0.004709 0.000000 0.000000 0.000000
# 2 -0.005664 0.025205 -0.004709 0.000000 0.000000 0.000000
# 3 -0.004709 -0.004709 0.006239 0.000000 0.000000 0.000000
# 4 0.000000 0.000000 0.000000 0.016585 0.000000 0.000000
# 5 0.000000 0.000000 0.000000 0.000000 0.016585 0.000000
# 6 0.000000 0.000000 0.000000 0.000000 0.000000 0.061738
#
#
# Mechanical properties :
#
#
# Convention : Reuss Voigt Hill
#
# Bulk Modulus (GPa) = 37.76012 72.85648 55.30830
# Shear Modulus (GPa) = 26.23993 41.97918 34.10955
#
# Velocity S-wave (km/s) = 3.60738 4.56276 4.11290
# Velocity P-wave (km/s) = 6.00644 7.99313 7.06991
#
# Compressibility (1/GPa) = 0.02648297
#
# Stress axis : x y z
#
# Youngs Moduli (GPa) = 39.67520 39.67520 160.28838
#
# Poissons Ratio (x) = 0.22474 0.75481
# Poissons Ratio (y) = 0.22474 0.75481
# Poissons Ratio (z) = 0.18683 0.18683
#
# Static dielectric constant tensor:
#      x y z
#    x 1.680060 0.000000 0.000000 
#    y 0.000000 1.680060 0.000000 
#    z 0.000000 0.000000 1.648940 
# 
# From -- ./inp_files/1483.got.cif
#   From: 2010.05.17/outbox.cif.g08.bks.cpg/sg173_cif.got.tgz:1483.got - 2010.05.20 11:21:53.
