data_PCOD9581499
_publ_section_title
;
Structure prediction by ZEFSAII (Michael W. Deem and Ramdas Pophale) SiO2 
 PCOD9581499
Probable space group: P 6/M
;
_chemical_formula_sum "Si O2"
_cell_formula_units_Z 90
_cell_length_a 18.562799
_cell_length_b 18.562799
_cell_length_c 16.516485
_cell_angle_alpha 90.000000
_cell_angle_beta 90.000000
_cell_angle_gamma 120.000000
_cell_volume 4928.731764
_symmetry_space_group_name_H-M "P 6/M"
_symmetry_group_IT_number 175
_symmetry_cell_setting 'hexagonal'
loop_
_space_group_symop_operation_xyz
x,y,z
x-y,x,z
-y,x-y,z
-x,-y,z
-x+y,-x,z
y,-x+y,z
-x,-y,-z
-x+y,-x,-z
y,-x+y,-z
x,y,-z
x-y,x,-z
-y,x-y,-z
loop_
_atom_site_type_symbol
_atom_site_label
_atom_site_fract_x
_atom_site_fract_y
_atom_site_fract_z
Si Si1 0.471761 0.790292 0.330719
Si Si2 0.720346 0.514047 0.092472
Si Si3 0.958146 0.558276 0.263805
Si Si4 0.841863 0.480669 0.593670
Si Si5 0.385038 0.810080 0.168153
Si Si6 0.808189 0.942723 0.000000
Si Si7 0.632553 0.892486 0.234408
Si Si8 0.865602 0.804912 0.819514
O O1 0.457030 0.706528 0.372727
O O2 0.447734 0.842964 0.390344
O O3 0.417870 0.782346 0.248658
O O4 0.567588 0.837651 0.304003
O O5 0.620995 0.460654 0.105953
O O6 0.748367 0.448606 0.123261
O O7 0.751969 0.590300 0.153780
O O8 0.743915 0.537246 0.000000
O O9 0.912915 0.549928 0.349460
O O10 0.883645 0.511937 0.200367
O O11 0.000000 0.500000 0.268017
O O12 0.023609 0.650445 0.236307
O O13 0.850102 0.502262 0.500000
O O14 0.845884 0.882374 0.000000
O O15 0.768386 0.930717 0.911494
O O16 0.727012 0.914054 0.239011
O O17 0.841784 0.877263 0.810634
#
# Coordination Sequence:
#
# PCOD9581499 Si02
#       8
#    12  12  12  12  12   6  12  12
#     4  10  20  37  57  85 120 155 196 236 286 344
#     4  11  22  36  55  82 114 152 212 263 292 324
#     4  11  20  40  56  78 113 157 195 227 290 356
#     4  11  22  36  61  90 119 153 194 237 281 343
#     4  10  20  36  59  78 109 157 200 241 289 342
#     4   8  15  32  54  82 107 136 168 230 302 360
#     4  11  23  37  56  83 116 160 194 245 299 362
#     4  10  22  38  62  86 115 145 194 246 309 369
#
# _framework density 18.260276000000001
#
# number of rings (size 3 to 8) (size 9 to 14) (size 15 to 20)
#    0.000    1.600    4.000    4.733    4.667    3.467 
#    0.000    2.000    0.000    0.000    0.000    0.000 
#    0.000    0.000    0.000    1.200    0.000    0.000 
#
# Total GULP energy -501472.751071 kJ/mol
# GULP energy per Si atom -5571.919456 kJ/mol
# Density = 1.821871 g / cm^3
# Si number density = 18.260276 Si / 1000 Ang^3
#
#
#
# Elastic Constant Matrix: (Units=GPa)
#
#
# Indices 1 2 3 4 5 6 
#
# 1 83.6443 19.0877 17.3885 0.0000 0.0000 0.0000
# 2 19.0877 83.6443 17.3885 0.0000 0.0000 0.0000
# 3 17.3885 17.3885 32.5724 0.0000 0.0000 0.0000
# 4 0.0000 0.0000 0.0000 9.5407 0.0000 0.0000
# 5 0.0000 0.0000 0.0000 0.0000 9.5407 0.0000
# 6 0.0000 0.0000 0.0000 0.0000 0.0000 32.2783
#
#
#
# Elastic Compliance Matrix: (Units=1/GPa)
#
#
# Indices 1 2 3 4 5 6 
#
# 1 0.013686 -0.001805 -0.006343 0.000000 0.000000 0.000000
# 2 -0.001805 0.013686 -0.006343 0.000000 0.000000 0.000000
# 3 -0.006343 -0.006343 0.037473 0.000000 0.000000 0.000000
# 4 0.000000 0.000000 0.000000 0.104815 0.000000 0.000000
# 5 0.000000 0.000000 0.000000 0.000000 0.104815 0.000000
# 6 0.000000 0.000000 0.000000 0.000000 0.000000 0.030981
#
#
# Mechanical properties :
#
#
# Convention : Reuss Voigt Hill
#
# Bulk Modulus (GPa) = 27.88276 34.17674 31.02975
# Shear Modulus (GPa) = 14.43466 20.00501 17.21983
#
# Velocity S-wave (km/s) = 2.81462 3.31350 3.07420
# Velocity P-wave (km/s) = 5.08582 5.77893 5.44342
#
# Compressibility (1/GPa) = 0.03586446
#
# Stress axis : x y z
#
# Youngs Moduli (GPa) = 73.06874 73.06874 26.68604
#
# Poissons Ratio (x) = 0.13186 0.16926
# Poissons Ratio (y) = 0.13186 0.16926
# Poissons Ratio (z) = 0.46345 0.46345
#
# Static dielectric constant tensor:
#      x y z
#    x 1.667770 0.000000 0.000000 
#    y 0.000000 1.667770 0.000000 
#    z 0.000000 0.000000 1.658170 
# 
# From -- ./inp_files/2985.got.cif
#   From: 2010.05.17/outbox.cif.g08.bks.cpg/sg175_2_cif.got.tgz:2985.got - 2010.05.20 11:23:22.
