data_PCOD9581094
_publ_section_title
;
Structure prediction by ZEFSAII (Michael W. Deem and Ramdas Pophale) SiO2 
 PCOD9581094
Probable space group: P 63
;
_chemical_formula_sum "Si O2"
_cell_formula_units_Z 42
_cell_length_a 11.659826
_cell_length_b 11.659826
_cell_length_c 17.628651
_cell_angle_alpha 90.000000
_cell_angle_beta 90.000000
_cell_angle_gamma 120.000000
_cell_volume 2075.553110
_symmetry_space_group_name_H-M "P 63"
_symmetry_group_IT_number 173
_symmetry_cell_setting 'hexagonal'
loop_
_space_group_symop_operation_xyz
x,y,z
x-y,x,1/2+z
-y,x-y,z
-x,-y,1/2+z
-x+y,-x,z
y,-x+y,1/2+z
loop_
_atom_site_type_symbol
_atom_site_label
_atom_site_fract_x
_atom_site_fract_y
_atom_site_fract_z
Si Si1 0.697358 0.112596 0.326410
Si Si2 0.760937 0.059035 0.704817
Si Si3 0.057126 0.286530 0.673792
Si Si4 0.960906 0.718194 0.004014
Si Si5 0.489419 0.676387 0.073824
Si Si6 0.368650 0.415021 0.855815
Si Si7 0.732208 0.770858 0.967014
O O1 0.702815 0.101241 0.236825
O O2 0.795604 0.265173 0.348391
O O3 0.545349 0.036814 0.348591
O O4 0.767067 0.047820 0.376093
O O5 0.690451 0.115186 0.648424
O O6 0.915865 0.168021 0.702156
O O7 0.750895 0.923845 0.674200
O O8 0.689179 0.024620 0.786944
O O9 0.042062 0.327107 0.589606
O O10 0.822880 0.711800 0.989847
O O11 0.993001 0.647848 0.936176
O O12 0.080378 0.870577 0.997752
O O13 0.450971 0.793212 0.071649
O O14 0.585378 0.693397 0.004065
#
# Coordination Sequence:
#
# PCOD9581094 Si02
#       7
#     6   6   6   6   6   6   6
#     4  10  24  39  60  88 127 171 214 270 330 404
#     4  11  22  41  64  97 131 173 216 282 335 393
#     4  11  21  39  64  95 127 165 219 274 335 384
#     4  11  21  39  64  97 125 165 217 276 337 382
#     4  10  24  37  63 104 129 171 222 273 327 396
#     4  10  24  41  63  91 129 175 221 271 337 402
#     4  11  22  40  66  96 132 170 217 284 333 397
#
# _framework density 20.235568000000001
#
# number of rings (size 3 to 8) (size 9 to 14) (size 15 to 20)
#    0.286    1.143    2.857    1.714    6.000    0.000 
#    0.000    2.857    0.000    0.571    0.000    0.000 
#    0.000    0.000    0.000    0.000    0.000    0.000 
#
# Total GULP energy -234346.862953 kJ/mol
# GULP energy per Si atom -5579.687213 kJ/mol
# Density = 2.018951 g / cm^3
# Si number density = 20.235568 Si / 1000 Ang^3
#
#
#
# Elastic Constant Matrix: (Units=GPa)
#
#
# Indices 1 2 3 4 5 6 
#
# 1 63.0601 19.2664 27.6153 0.0000 0.0000 0.0000
# 2 19.2664 63.0601 27.6153 0.0000 0.0000 0.0000
# 3 27.6153 27.6153 144.1219 0.0000 0.0000 0.0000
# 4 0.0000 0.0000 0.0000 13.2680 0.0000 0.0000
# 5 0.0000 0.0000 0.0000 0.0000 13.2680 0.0000
# 6 0.0000 0.0000 0.0000 0.0000 0.0000 21.8968
#
#
#
# Elastic Compliance Matrix: (Units=1/GPa)
#
#
# Indices 1 2 3 4 5 6 
#
# 1 0.018386 -0.004448 -0.002671 0.000000 0.000000 0.000000
# 2 -0.004448 0.018386 -0.002671 0.000000 0.000000 0.000000
# 3 -0.002671 -0.002671 0.007962 0.000000 0.000000 0.000000
# 4 0.000000 0.000000 0.000000 0.075369 0.000000 0.000000
# 5 0.000000 0.000000 0.000000 0.000000 0.075369 0.000000
# 6 0.000000 0.000000 0.000000 0.000000 0.000000 0.045669
#
#
# Mechanical properties :
#
#
# Convention : Reuss Voigt Hill
#
# Bulk Modulus (GPa) = 39.75195 46.58180 43.16688
# Shear Modulus (GPa) = 18.58001 22.73623 20.65812
#
# Velocity S-wave (km/s) = 3.03344 3.35562 3.19859
# Velocity P-wave (km/s) = 5.65299 6.17117 5.91775
#
# Compressibility (1/GPa) = 0.02515600
#
# Stress axis : x y z
#
# Youngs Moduli (GPa) = 54.38791 54.38791 125.59546
#
# Poissons Ratio (x) = 0.24191 0.33544
# Poissons Ratio (y) = 0.24191 0.33544
# Poissons Ratio (z) = 0.14526 0.14526
#
# Static dielectric constant tensor:
#      x y z
#    x 1.738670 0.000000 0.000000 
#    y 0.000000 1.738670 0.000000 
#    z 0.000000 0.000000 1.748930 
# 
# From -- ./inp_files/1288.got.cif
#   From: 2010.05.17/outbox.cif.g08.bks.cpg/sg173_cif.got.tgz:1288.got - 2010.05.20 11:21:53.
