data_PCOD9581193
_publ_section_title
;
Structure prediction by ZEFSAII (Michael W. Deem and Ramdas Pophale) SiO2 
 PCOD9581193
Probable space group: P -6
;
_chemical_formula_sum "Si O2"
_cell_formula_units_Z 42
_cell_length_a 8.571960
_cell_length_b 8.571960
_cell_length_c 32.991620
_cell_angle_alpha 90.000000
_cell_angle_beta 90.000000
_cell_angle_gamma 120.000000
_cell_volume 2099.396867
_symmetry_space_group_name_H-M "P -6"
_symmetry_group_IT_number 174
_symmetry_cell_setting 'hexagonal'
loop_
_space_group_symop_operation_xyz
x,y,z
-x+y,-x,-z
-y,x-y,z
x,y,-z
-x+y,-x,z
-y,x-y,-z
loop_
_atom_site_type_symbol
_atom_site_label
_atom_site_fract_x
_atom_site_fract_y
_atom_site_fract_z
Si Si1 0.699501 0.145065 0.500000
Si Si2 0.349086 0.879369 0.712878
Si Si3 0.339102 0.994274 0.377949
Si Si4 0.677460 0.131880 0.000000
Si Si5 0.328359 0.319946 0.588126
Si Si6 0.662760 0.666193 0.877231
Si Si7 0.671287 0.003794 0.088372
Si Si8 0.878338 0.344689 0.210133
O O1 0.513388 0.153914 0.500000
O O2 0.711472 0.051490 0.540615
O O3 0.172339 0.680160 0.715344
O O4 0.348295 0.961183 0.669501
O O5 0.375700 0.012352 0.749313
O O6 0.141781 0.864018 0.395852
O O7 0.389799 0.195852 0.388269
O O8 0.475751 0.947113 0.400576
O O9 0.838775 0.341918 0.000000
O O10 0.681990 0.030923 0.959804
O O11 0.530487 0.470455 0.895746
O O12 0.609456 0.805727 0.895415
O O13 0.650419 0.641160 0.828989
O O14 0.862160 0.725507 0.892131
O O15 0.829212 0.505831 0.208622
#
# Coordination Sequence:
#
# PCOD9581193 Si02
#       8
#     3   6   6   3   6   6   6   6
#     4  10  20  42  66 104 130 180 240 290 344 418
#     4  10  23  41  65 101 139 171 230 290 341 416
#     4  12  24  45  65 105 136 192 224 291 355 426
#     4  10  20  42  72  96 134 186 234 296 348 394
#     4  12  24  42  72  94 144 182 235 289 354 414
#     4  12  24  45  65 106 139 184 232 282 350 417
#     4  12  24  42  72  97 141 187 228 291 345 408
#     4  10  23  41  68  99 135 183 230 278 347 407
#
# _framework density 20.005745999999998
#
# number of rings (size 3 to 8) (size 9 to 14) (size 15 to 20)
#    0.857    0.000    5.714    1.714    4.000    2.286 
#    0.000    0.000    0.000    0.571    0.000    0.000 
#    0.000    0.000    0.000    0.000    0.000    0.000 
#
# Total GULP energy -234519.833741 kJ/mol
# GULP energy per Si atom -5583.805565 kJ/mol
# Density = 1.996021 g / cm^3
# Si number density = 20.005746 Si / 1000 Ang^3
#
#
#
# Elastic Constant Matrix: (Units=GPa)
#
#
# Indices 1 2 3 4 5 6 
#
# 1 62.4971 9.1311 46.2436 0.0000 0.0000 0.0000
# 2 9.1311 62.4971 46.2436 0.0000 0.0000 0.0000
# 3 46.2436 46.2436 205.5312 0.0000 0.0000 0.0000
# 4 0.0000 0.0000 0.0000 3.2483 0.0000 0.0000
# 5 0.0000 0.0000 0.0000 0.0000 3.2483 0.0000
# 6 0.0000 0.0000 0.0000 0.0000 0.0000 26.6830
#
#
#
# Elastic Compliance Matrix: (Units=1/GPa)
#
#
# Indices 1 2 3 4 5 6 
#
# 1 0.019208 0.000470 -0.004427 0.000000 0.000000 0.000000
# 2 0.000470 0.019208 -0.004427 0.000000 0.000000 0.000000
# 3 -0.004427 -0.004427 0.006858 0.000000 0.000000 0.000000
# 4 0.000000 0.000000 0.000000 0.307856 0.000000 0.000000
# 5 0.000000 0.000000 0.000000 0.000000 0.307856 0.000000
# 6 0.000000 0.000000 0.000000 0.000000 0.000000 0.037477
#
#
# Mechanical properties :
#
#
# Convention : Reuss Voigt Hill
#
# Bulk Modulus (GPa) = 35.08337 59.30691 47.19514
# Shear Modulus (GPa) = 6.89908 21.89637 14.39773
#
# Velocity S-wave (km/s) = 1.85904 3.31192 2.68559
# Velocity P-wave (km/s) = 4.70986 6.65841 5.76702
#
# Compressibility (1/GPa) = 0.02850353
#
# Stress axis : x y z
#
# Youngs Moduli (GPa) = 52.06133 52.06133 145.82082
#
# Poissons Ratio (x) = -0.02445 0.64561
# Poissons Ratio (y) = -0.02445 0.64561
# Poissons Ratio (z) = 0.23050 0.23050
#
# Static dielectric constant tensor:
#      x y z
#    x 1.762260 0.000000 0.000000 
#    y 0.000000 1.762260 0.000000 
#    z 0.000000 0.000000 1.665550 
# 
# From -- ./inp_files/1104.got.cif
#   From: 2010.05.17/outbox.cif.g08.bks.cpg/sg174_cif.got.tgz:1104.got - 2010.05.20 11:22:48.
