data_PCOD9581243
_publ_section_title
;
Structure prediction by ZEFSAII (Michael W. Deem and Ramdas Pophale) SiO2 
 PCOD9581243
Probable space group: P 6/M
;
_chemical_formula_sum "Si O2"
_cell_formula_units_Z 48
_cell_length_a 15.889964
_cell_length_b 15.889964
_cell_length_c 8.385492
_cell_angle_alpha 90.000000
_cell_angle_beta 90.000000
_cell_angle_gamma 120.000000
_cell_volume 1833.601718
_symmetry_space_group_name_H-M "P 6/M"
_symmetry_group_IT_number 175
_symmetry_cell_setting 'hexagonal'
loop_
_space_group_symop_operation_xyz
x,y,z
x-y,x,z
-y,x-y,z
-x,-y,z
-x+y,-x,z
y,-x+y,z
-x,-y,-z
-x+y,-x,-z
y,-x+y,-z
x,y,-z
x-y,x,-z
-y,x-y,-z
loop_
_atom_site_type_symbol
_atom_site_label
_atom_site_fract_x
_atom_site_fract_y
_atom_site_fract_z
Si Si1 0.930451 0.533709 0.317720
Si Si2 0.250457 0.459258 0.683759
Si Si3 0.740924 0.973823 0.328211
Si Si4 0.129800 0.709175 0.000000
Si Si5 0.946249 0.724163 0.000000
O O1 0.914931 0.496479 0.500000
O O2 0.823980 0.505923 0.263118
O O3 0.000000 0.500000 0.240046
O O4 0.982744 0.650381 0.330941
O O5 0.282083 0.490507 0.500000
O O6 0.199668 0.340658 0.675406
O O7 0.318028 0.480946 0.837329
O O8 0.791869 0.995049 0.500000
O O9 0.800692 0.014946 0.164610
O O10 0.014881 0.673930 0.000000
O O11 0.181869 0.830451 0.000000
#
# Coordination Sequence:
#
# PCOD9581243 Si02
#       5
#    12  12  12   6   6
#     4   9  16  27  45  67  90 117 151 189 226 267
#     4   9  17  29  44  62  88 118 145 180 226 267
#     4   9  17  29  44  62  88 118 145 180 226 267
#     4  10  18  28  44  65  88 112 142 178 216 260
#     4  10  18  28  44  65  88 112 142 178 216 260
#
# _framework density 26.177983999999999
#
# number of rings (size 3 to 8) (size 9 to 14) (size 15 to 20)
#    0.000    2.750    2.500    0.000    0.000    0.000 
#    0.000    2.500    0.000    1.250    0.000    7.000 
#    0.000    0.000    0.000   12.500    0.000    0.000 
#
# Total GULP energy -267307.756063 kJ/mol
# GULP energy per Si atom -5568.911585 kJ/mol
# Density = 2.611840 g / cm^3
# Si number density = 26.177984 Si / 1000 Ang^3
#
#
#
# Elastic Constant Matrix: (Units=GPa)
#
#
# Indices 1 2 3 4 5 6 
#
# 1 112.7238 30.3577 12.7987 0.0000 0.0000 0.0000
# 2 30.3577 112.7238 12.7987 0.0000 0.0000 0.0000
# 3 12.7987 12.7987 233.7141 0.0000 0.0000 0.0000
# 4 0.0000 0.0000 0.0000 -22.9346 0.0000 0.0000
# 5 0.0000 0.0000 0.0000 0.0000 -22.9346 0.0000
# 6 0.0000 0.0000 0.0000 0.0000 0.0000 41.1831
#
#
#
# Elastic Compliance Matrix: (Units=1/GPa)
#
#
# Indices 1 2 3 4 5 6 
#
# 1 0.009600 -0.002541 -0.000387 0.000000 0.000000 0.000000
# 2 -0.002541 0.009600 -0.000387 0.000000 0.000000 0.000000
# 3 -0.000387 -0.000387 0.004321 0.000000 0.000000 0.000000
# 4 0.000000 0.000000 0.000000 -0.043602 0.000000 0.000000
# 5 0.000000 0.000000 0.000000 0.000000 -0.043602 0.000000
# 6 0.000000 0.000000 0.000000 0.000000 0.000000 0.024282
#
#
# Mechanical properties :
#
#
# Convention : Reuss Voigt Hill
#
# Bulk Modulus (GPa) = 59.20198 63.45243 61.32721
# Shear Modulus (GPa) = -184.20852 25.94320 -79.13266
#
# Velocity S-wave (km/s) = -8.39765 3.15148 -5.50403
# Velocity P-wave (km/s) = 8.44767 6.12649 4.11273
#
# Compressibility (1/GPa) = 0.01689133
#
# Stress axis : x y z
#
# Youngs Moduli (GPa) = 104.17161 104.17161 231.42437
#
# Poissons Ratio (x) = 0.26474 0.08945
# Poissons Ratio (y) = 0.26474 0.08945
# Poissons Ratio (z) = 0.04026 0.04026
#
# Static dielectric constant tensor:
#      x y z
#    x 2.125020 0.000000 0.000000 
#    y 0.000000 2.125020 0.000000 
#    z 0.000000 0.000000 2.216560 
# 
# From -- ./inp_files/748.got.cif
#   From: 2010.05.17/outbox.cif.g08.bks.cpg/sg175_1_cif.got.tgz:748.got - 2010.05.20 11:23:22.
