data_PCOD9581244
_publ_section_title
;
Structure prediction by ZEFSAII (Michael W. Deem and Ramdas Pophale) SiO2 
 PCOD9581244
Probable space group: P 6/M
;
_chemical_formula_sum "Si O2"
_cell_formula_units_Z 76
_cell_length_a 19.561308
_cell_length_b 19.561308
_cell_length_c 15.943563
_cell_angle_alpha 90.000000
_cell_angle_beta 90.000000
_cell_angle_gamma 120.000000
_cell_volume 5283.379374
_symmetry_space_group_name_H-M "P 6/M"
_symmetry_group_IT_number 175
_symmetry_cell_setting 'hexagonal'
loop_
_space_group_symop_operation_xyz
x,y,z
x-y,x,z
-y,x-y,z
-x,-y,z
-x+y,-x,z
y,-x+y,z
-x,-y,-z
-x+y,-x,-z
y,-x+y,-z
x,y,-z
x-y,x,-z
-y,x-y,-z
loop_
_atom_site_type_symbol
_atom_site_label
_atom_site_fract_x
_atom_site_fract_y
_atom_site_fract_z
Si Si1 0.115386 0.926789 0.500000
Si Si2 0.111095 0.921842 0.814963
Si Si3 0.554491 0.163001 0.398155
Si Si4 0.699436 0.847680 0.341192
Si Si5 0.624929 0.939641 0.402859
Si Si6 0.186586 0.109707 0.000000
Si Si7 0.333334 0.666668 0.398666
Si Si8 0.125065 0.435664 0.403165
O O1 0.147516 0.902556 0.418702
O O2 0.019936 0.874491 0.500000
O O3 0.147068 0.891955 0.743450
O O4 0.015539 0.872524 0.806464
O O5 0.133218 0.906574 0.908783
O O6 0.552132 0.157248 0.500000
O O7 0.465037 0.107595 0.370980
O O8 0.588899 0.253688 0.373201
O O9 0.620924 0.141486 0.372056
O O10 0.682739 0.919976 0.351189
O O11 0.613665 0.770160 0.352671
O O12 0.627017 0.915500 0.500000
O O13 0.652704 0.031136 0.404064
O O14 0.124277 0.139758 0.000000
O O15 0.333334 0.666668 0.500000
O O16 0.154765 0.445976 0.500000
#
# Coordination Sequence:
#
# PCOD9581244 Si02
#       8
#     6  12  12  12  12   6   4  12
#     4  12  23  34  42  54  80 120 160 188 206 238
#     4  10  19  31  46  64  85 114 150 191 230 265
#     4   9  17  27  42  58  75 102 136 174 212 250
#     4  12  21  30  44  60  86 114 147 181 218 256
#     4  10  18  29  41  56  77 106 141 175 208 246
#     4   8  15  28  46  64  82 104 140 188 238 276
#     4   9  15  24  36  51  72  87 120 160 206 244
#     4  10  18  29  41  56  77 106 141 175 208 246
#
# _framework density 14.384733000000001
#
# number of rings (size 3 to 8) (size 9 to 14) (size 15 to 20)
#    0.000    1.895    1.579    4.579    0.000    5.684 
#    0.000    1.579    0.000    0.000    0.000    0.000 
#    0.000    1.263    0.000    9.000    0.000    1.263 
#
# Total GULP energy -423701.726119 kJ/mol
# GULP energy per Si atom -5575.022712 kJ/mol
# Density = 1.435199 g / cm^3
# Si number density = 14.384733 Si / 1000 Ang^3
#
#
#
# Elastic Constant Matrix: (Units=GPa)
#
#
# Indices 1 2 3 4 5 6 
#
# 1 49.3426 -3.2748 13.4780 0.0000 0.0000 0.0002
# 2 -3.2748 49.3418 13.4777 0.0000 0.0000 0.0005
# 3 13.4780 13.4777 75.7905 0.0000 0.0000 0.0001
# 4 0.0000 0.0000 0.0000 8.9446 0.0000 0.0000
# 5 0.0000 0.0000 0.0000 0.0000 8.9446 0.0000
# 6 0.0002 0.0005 0.0001 0.0000 0.0000 26.3083
#
#
#
# Elastic Compliance Matrix: (Units=1/GPa)
#
#
# Indices 1 2 3 4 5 6 
#
# 1 0.021617 0.002612 -0.004309 0.000000 0.000000 0.000000
# 2 0.002612 0.021617 -0.004309 0.000000 0.000000 0.000000
# 3 -0.004309 -0.004309 0.014727 0.000000 0.000000 0.000000
# 4 0.000000 0.000000 0.000000 0.111800 0.000000 0.000000
# 5 0.000000 0.000000 0.000000 0.000000 0.111799 0.000000
# 6 0.000000 0.000000 0.000000 0.000000 0.000000 0.038011
#
#
# Mechanical properties :
#
#
# Convention : Reuss Voigt Hill
#
# Bulk Modulus (GPa) = 21.76311 24.64850 23.20580
# Shear Modulus (GPa) = 14.41347 18.89243 16.65295
#
# Velocity S-wave (km/s) = 3.16887 3.62797 3.40616
# Velocity P-wave (km/s) = 5.34332 5.89253 5.62464
#
# Compressibility (1/GPa) = 0.04594932
#
# Stress axis : x y z
#
# Youngs Moduli (GPa) = 46.26057 46.25987 67.90411
#
# Poissons Ratio (x) = -0.12081 0.29257
# Poissons Ratio (y) = -0.12081 0.29257
# Poissons Ratio (z) = 0.19932 0.19931
#
# Static dielectric constant tensor:
#      x y z
#    x 1.494120 0.000000 0.000000 
#    y 0.000000 1.494120 0.000000 
#    z 0.000000 0.000000 1.460900 
# 
# From -- ./inp_files/2590.got.cif
#   From: 2010.05.17/outbox.cif.g08.bks.cpg/sg175_2_cif.got.tgz:2590.got - 2010.05.20 11:23:22.
