data_PCOD9581576
_publ_section_title
;
Structure prediction by ZEFSAII (Michael W. Deem and Ramdas Pophale) SiO2 
 PCOD9581576
Probable space group: P 6/M
;
_chemical_formula_sum "Si O2"
_cell_formula_units_Z 90
_cell_length_a 17.451841
_cell_length_b 17.451841
_cell_length_c 18.124586
_cell_angle_alpha 90.000000
_cell_angle_beta 90.000000
_cell_angle_gamma 120.000000
_cell_volume 4780.586955
_symmetry_space_group_name_H-M "P 6/M"
_symmetry_group_IT_number 175
_symmetry_cell_setting 'hexagonal'
loop_
_space_group_symop_operation_xyz
x,y,z
x-y,x,z
-y,x-y,z
-x,-y,z
-x+y,-x,z
y,-x+y,z
-x,-y,-z
-x+y,-x,-z
y,-x+y,-z
x,y,-z
x-y,x,-z
-y,x-y,-z
loop_
_atom_site_type_symbol
_atom_site_label
_atom_site_fract_x
_atom_site_fract_y
_atom_site_fract_z
Si Si1 0.648827 0.509366 0.777009
Si Si2 0.316158 0.222694 0.863462
Si Si3 0.267947 0.447814 0.500000
Si Si4 0.393495 0.444755 0.618211
Si Si5 0.864167 0.070885 0.282426
Si Si6 0.717759 0.631227 0.918998
Si Si7 0.734459 0.109676 0.379622
Si Si8 0.834077 0.516058 0.764484
O O1 0.635626 0.553682 0.703074
O O2 0.665946 0.568091 0.849994
O O3 0.734405 0.497893 0.768457
O O4 0.564660 0.412688 0.783500
O O5 0.247054 0.163311 0.799939
O O6 0.344072 0.163198 0.909982
O O7 0.283353 0.278082 0.909298
O O8 0.403030 0.292799 0.819107
O O9 0.345006 0.480437 0.565033
O O10 0.188984 0.410286 0.436648
O O11 0.500000 0.500000 0.611961
O O12 0.358632 0.343596 0.592186
O O13 0.809352 0.097523 0.338193
O O14 0.968450 0.134286 0.292854
O O15 0.683554 0.592322 0.000000
O O16 0.683604 0.133820 0.317800
#
# Coordination Sequence:
#
# PCOD9581576 Si02
#       8
#    12  12   6  12  12  12  12  12
#     4  11  22  42  67  95 129 173 220 265 330 399
#     4  10  21  37  62  90 127 168 215 265 328 391
#     4  12  25  42  59  94 131 166 215 270 324 392
#     4  12  24  42  70  95 129 172 222 273 328 393
#     4  11  21  37  63  95 126 169 219 271 323 393
#     4  11  23  40  63  95 132 173 221 277 331 392
#     4  11  23  39  62  92 128 171 212 266 329 387
#     4  10  21  39  65  90 123 168 213 264 324 389
#
# _framework density 18.826141
#
# number of rings (size 3 to 8) (size 9 to 14) (size 15 to 20)
#    0.000    1.067    4.000    3.800    1.867    0.000 
#    0.000    4.000    0.000    0.000    0.000    3.733 
#    0.000    0.000    0.000    0.000    0.000    0.000 
#
# Total GULP energy -501243.056248 kJ/mol
# GULP energy per Si atom -5569.367292 kJ/mol
# Density = 1.878329 g / cm^3
# Si number density = 18.826141 Si / 1000 Ang^3
#
#
#
# Elastic Constant Matrix: (Units=GPa)
#
#
# Indices 1 2 3 4 5 6 
#
# 1 87.4031 31.4490 35.9000 0.0000 0.0000 0.0000
# 2 31.4490 87.4031 35.9000 0.0000 0.0000 0.0000
# 3 35.9000 35.9000 120.3232 0.0000 0.0000 0.0000
# 4 0.0000 0.0000 0.0000 9.9574 0.0000 0.0000
# 5 0.0000 0.0000 0.0000 0.0000 9.9574 0.0000
# 6 0.0000 0.0000 0.0000 0.0000 0.0000 27.9770
#
#
#
# Elastic Compliance Matrix: (Units=1/GPa)
#
#
# Indices 1 2 3 4 5 6 
#
# 1 0.014068 -0.003804 -0.003062 0.000000 0.000000 0.000000
# 2 -0.003804 0.014068 -0.003062 0.000000 0.000000 0.000000
# 3 -0.003062 -0.003062 0.010138 0.000000 0.000000 0.000000
# 4 0.000000 0.000000 0.000000 0.100428 0.000000 0.000000
# 5 0.000000 0.000000 0.000000 0.000000 0.100428 0.000000
# 6 0.000000 0.000000 0.000000 0.000000 0.000000 0.035744
#
#
# Mechanical properties :
#
#
# Convention : Reuss Voigt Hill
#
# Bulk Modulus (GPa) = 54.29888 55.73639 55.01763
# Shear Modulus (GPa) = 16.61850 22.37038 19.49444
#
# Velocity S-wave (km/s) = 2.97431 3.45086 3.22141
# Velocity P-wave (km/s) = 6.37967 6.74893 6.56690
#
# Compressibility (1/GPa) = 0.01841659
#
# Stress axis : x y z
#
# Youngs Moduli (GPa) = 71.08425 71.08425 98.63546
#
# Poissons Ratio (x) = 0.27040 0.30206
# Poissons Ratio (y) = 0.27040 0.30206
# Poissons Ratio (z) = 0.21769 0.21769
#
# Static dielectric constant tensor:
#      x y z
#    x 1.657050 0.000000 0.000000 
#    y 0.000000 1.657050 0.000000 
#    z 0.000000 0.000000 1.659940 
# 
# From -- ./inp_files/2997.got.cif
#   From: 2010.05.17/outbox.cif.g08.bks.cpg/sg175_2_cif.got.tgz:2997.got - 2010.05.20 11:23:22.
