data_PCOD9581498
_publ_section_title
;
Structure prediction by ZEFSAII (Michael W. Deem and Ramdas Pophale) SiO2 
 PCOD9581498
Probable space group: P 6/M
;
_chemical_formula_sum "Si O2"
_cell_formula_units_Z 48
_cell_length_a 20.014140
_cell_length_b 20.014140
_cell_length_c 7.270468
_cell_angle_alpha 90.000000
_cell_angle_beta 90.000000
_cell_angle_gamma 120.000000
_cell_volume 2522.126503
_symmetry_space_group_name_H-M "P 6/M"
_symmetry_group_IT_number 175
_symmetry_cell_setting 'hexagonal'
loop_
_space_group_symop_operation_xyz
x,y,z
x-y,x,z
-y,x-y,z
-x,-y,z
-x+y,-x,z
y,-x+y,z
-x,-y,-z
-x+y,-x,-z
y,-x+y,-z
x,y,-z
x-y,x,-z
-y,x-y,-z
loop_
_atom_site_type_symbol
_atom_site_label
_atom_site_fract_x
_atom_site_fract_y
_atom_site_fract_z
Si Si1 0.381418 0.826205 0.500000
Si Si2 0.718534 0.011453 0.778568
Si Si3 0.654934 0.840173 0.223384
Si Si4 0.484895 0.210106 0.500000
Si Si5 0.951488 0.540975 0.218888
O O1 0.463196 0.829986 0.500000
O O2 0.299990 0.748677 0.500000
O O3 0.377610 0.871800 0.322811
O O4 0.787657 0.095349 0.721243
O O5 0.639097 0.008939 0.726137
O O6 0.710104 0.930130 0.724353
O O7 0.722554 0.012679 0.000000
O O8 0.573582 0.810769 0.327200
O O9 0.644105 0.834822 0.000000
O O10 0.000000 0.500000 0.267338
O O11 0.940915 0.537082 0.000000
#
# Coordination Sequence:
#
# PCOD9581498 Si02
#       5
#     6  12  12   6  12
#     4  12  24  38  54  80 113 154 191 240 283 344
#     4   9  18  35  60  86 115 149 192 241 291 346
#     4  10  21  39  60  86 117 153 194 242 294 351
#     4  12  25  38  58  80 117 156 194 241 291 346
#     4  10  20  36  58  83 111 146 191 242 291 343
#
# _framework density 19.031558
#
# number of rings (size 3 to 8) (size 9 to 14) (size 15 to 20)
#    0.000    1.750    2.500    2.125    0.000    5.000 
#    0.000    0.000    0.000    3.500    0.000    3.500 
#    0.000    2.000    0.000    0.250    0.000    0.000 
#
# Total GULP energy -267731.615653 kJ/mol
# GULP energy per Si atom -5577.741993 kJ/mol
# Density = 1.898824 g / cm^3
# Si number density = 19.031558 Si / 1000 Ang^3
#
#
#
# Elastic Constant Matrix: (Units=GPa)
#
#
# Indices 1 2 3 4 5 6 
#
# 1 129.6463 55.6541 15.3131 0.0000 0.0000 0.0000
# 2 55.6541 129.6463 15.3131 0.0000 0.0000 0.0000
# 3 15.3131 15.3131 79.2885 0.0000 0.0000 0.0000
# 4 0.0000 0.0000 0.0000 20.1381 0.0000 0.0000
# 5 0.0000 0.0000 0.0000 0.0000 20.1381 0.0000
# 6 0.0000 0.0000 0.0000 0.0000 0.0000 36.9961
#
#
#
# Elastic Compliance Matrix: (Units=1/GPa)
#
#
# Indices 1 2 3 4 5 6 
#
# 1 0.009545 -0.003970 -0.001077 0.000000 0.000000 0.000000
# 2 -0.003970 0.009545 -0.001077 0.000000 0.000000 0.000000
# 3 -0.001077 -0.001077 0.013028 0.000000 0.000000 0.000000
# 4 0.000000 0.000000 0.000000 0.049657 0.000000 0.000000
# 5 0.000000 0.000000 0.000000 0.000000 0.049657 0.000000
# 6 0.000000 0.000000 0.000000 0.000000 0.000000 0.027030
#
#
# Mechanical properties :
#
#
# Convention : Reuss Voigt Hill
#
# Bulk Modulus (GPa) = 50.32535 56.79351 53.55943
# Shear Modulus (GPa) = 28.19569 32.27451 30.23510
#
# Velocity S-wave (km/s) = 3.85323 4.12253 3.99015
# Velocity P-wave (km/s) = 6.80419 7.25030 7.03079
#
# Compressibility (1/GPa) = 0.01987070
#
# Stress axis : x y z
#
# Youngs Moduli (GPa) = 104.76946 104.76946 76.75753
#
# Poissons Ratio (x) = 0.41595 0.08264
# Poissons Ratio (y) = 0.41595 0.08264
# Poissons Ratio (z) = 0.11280 0.11280
#
# Static dielectric constant tensor:
#      x y z
#    x 1.673080 0.000000 0.000000 
#    y 0.000000 1.673080 0.000000 
#    z 0.000000 0.000000 1.672850 
# 
# From -- ./inp_files/640.got.cif
#   From: 2010.05.17/outbox.cif.g08.bks.cpg/sg175_1_cif.got.tgz:640.got - 2010.05.20 11:23:22.
