data_PCOD9581885
_publ_section_title
;
Structure prediction by ZEFSAII (Michael W. Deem and Ramdas Pophale) SiO2 
 PCOD9581885
Probable space group: P 63/M
;
_chemical_formula_sum "Si O2"
_cell_formula_units_Z 72
_cell_length_a 13.229100
_cell_length_b 13.229100
_cell_length_c 30.504022
_cell_angle_alpha 90.000000
_cell_angle_beta 90.000000
_cell_angle_gamma 120.000000
_cell_volume 4623.260193
_symmetry_space_group_name_H-M "P 63/M"
_symmetry_group_IT_number 176
_symmetry_cell_setting 'hexagonal'
loop_
_space_group_symop_operation_xyz
x,y,z
x-y,x,1/2+z
-y,x-y,z
-x,-y,1/2+z
-x+y,-x,z
y,-x+y,1/2+z
-x,-y,-z
-x+y,-x,1/2-z
y,-x+y,-z
x,y,1/2-z
x-y,x,-z
-y,x-y,1/2-z
loop_
_atom_site_type_symbol
_atom_site_label
_atom_site_fract_x
_atom_site_fract_y
_atom_site_fract_z
Si Si1 1.000000 0.240440 0.500000
Si Si2 0.904310 0.333834 0.823431
Si Si3 0.240558 0.000161 0.250000
Si Si4 0.240397 0.999838 0.750000
Si Si5 0.903831 0.333822 0.573801
Si Si6 0.429990 0.333821 0.573801
Si Si7 0.333833 0.904310 0.176569
O O1 0.979700 0.301898 0.542027
O O2 0.114558 0.229115 0.505196
O O3 0.020300 0.322198 0.457973
O O4 0.982008 0.303104 0.792204
O O5 0.933152 0.334732 0.874827
O O6 0.771013 0.228988 0.817241
O O7 0.913609 0.456805 0.812637
O O8 0.244660 0.122330 0.250000
O O9 0.107379 0.892621 0.250000
O O10 0.303103 0.982007 0.207796
O O11 0.769822 0.230179 0.568497
O O12 0.915199 0.457599 0.563034
O O13 0.401580 0.334731 0.625173
#
# Coordination Sequence:
#
# PCOD9581885 Si02
#       7
#    12  12   6   6  12  12  12
#     4  10  20  32  46  66  94 128 162 192 222 262
#     4   9  17  30  50  74  95 115 144 188 239 282
#     4  10  20  32  46  66  94 128 162 192 222 262
#     4  10  20  32  46  66  94 128 162 192 222 262
#     4   9  17  30  49  72  95 118 147 187 235 281
#     4   9  17  30  49  72  95 118 147 187 235 281
#     4   9  17  30  50  74  95 115 144 188 239 282
#
# _framework density 15.573425
#
# number of rings (size 3 to 8) (size 9 to 14) (size 15 to 20)
#    0.000    2.667    0.000    2.000    0.000    4.000 
#    0.000    1.667    0.000    7.333    0.000    0.000 
#    0.000    0.000    0.000    0.000    0.000    0.000 
#
# Total GULP energy -401376.519015 kJ/mol
# GULP energy per Si atom -5574.673875 kJ/mol
# Density = 1.553798 g / cm^3
# Si number density = 15.573425 Si / 1000 Ang^3
#
#
#
# Elastic Constant Matrix: (Units=GPa)
#
#
# Indices 1 2 3 4 5 6 
#
# 1 124.2543 82.3271 79.4510 0.0000 0.0000 0.0000
# 2 82.3271 124.2543 79.4510 0.0000 0.0000 0.0000
# 3 79.4510 79.4510 89.1050 0.0000 0.0000 0.0000
# 4 0.0000 0.0000 0.0000 20.3273 0.0000 0.0000
# 5 0.0000 0.0000 0.0000 0.0000 20.3273 0.0000
# 6 0.0000 0.0000 0.0000 0.0000 0.0000 20.9636
#
#
#
# Elastic Compliance Matrix: (Units=1/GPa)
#
#
# Indices 1 2 3 4 5 6 
#
# 1 0.019630 -0.004221 -0.013740 0.000000 0.000000 0.000000
# 2 -0.004221 0.019630 -0.013740 0.000000 0.000000 0.000000
# 3 -0.013740 -0.013740 0.035725 0.000000 0.000000 0.000000
# 4 0.000000 0.000000 0.000000 0.049195 0.000000 0.000000
# 5 0.000000 0.000000 0.000000 0.000000 0.049195 0.000000
# 6 0.000000 0.000000 0.000000 0.000000 0.000000 0.047702
#
#
# Mechanical properties :
#
#
# Convention : Reuss Voigt Hill
#
# Bulk Modulus (GPa) = 86.32237 91.11906 88.72071
# Shear Modulus (GPa) = 17.34068 18.74929 18.04499
#
# Velocity S-wave (km/s) = 3.34050 3.47353 3.40767
# Velocity P-wave (km/s) = 8.39215 8.64428 8.51915
#
# Compressibility (1/GPa) = 0.01158448
#
# Stress axis : x y z
#
# Youngs Moduli (GPa) = 50.94210 50.94210 27.99143
#
# Poissons Ratio (x) = 0.21501 0.38460
# Poissons Ratio (y) = 0.21501 0.38460
# Poissons Ratio (z) = 0.69994 0.69994
#
# Static dielectric constant tensor:
#      x y z
#    x 1.490570 0.000000 0.000000 
#    y 0.000000 1.490570 0.000000 
#    z 0.000000 0.000000 1.526110 
# 
# From -- ./inp_files/4515.got.cif
#   From: 2010.05.17/outbox.cif.g08.bks.cpg/sg176_3_cif.got.tgz:4515.got - 2010.06.03 11:36:45.
