data_PCOD9581219
_publ_section_title
;
Structure prediction by ZEFSAII (Michael W. Deem and Ramdas Pophale) SiO2 
 PCOD9581219
Probable space group: P -6
;
_chemical_formula_sum "Si O2"
_cell_formula_units_Z 35
_cell_length_a 10.930406
_cell_length_b 10.930406
_cell_length_c 17.483059
_cell_angle_alpha 90.000000
_cell_angle_beta 90.000000
_cell_angle_gamma 120.000000
_cell_volume 1808.925339
_symmetry_space_group_name_H-M "P -6"
_symmetry_group_IT_number 174
_symmetry_cell_setting 'hexagonal'
loop_
_space_group_symop_operation_xyz
x,y,z
-x+y,-x,-z
-y,x-y,z
x,y,-z
-x+y,-x,z
-y,x-y,-z
loop_
_atom_site_type_symbol
_atom_site_label
_atom_site_fract_x
_atom_site_fract_y
_atom_site_fract_z
Si Si1 0.407566 0.021675 0.768427
Si Si2 0.117968 0.935984 0.500000
Si Si3 0.990669 0.833809 0.086297
Si Si4 0.165758 0.513179 0.087150
Si Si5 0.333333 0.666668 0.591404
Si Si6 0.637909 0.824997 0.650154
Si Si7 0.720786 0.071129 0.235118
O O1 0.393123 0.159304 0.759737
O O2 0.567890 0.056746 0.760336
O O3 0.361711 0.944242 0.850369
O O4 0.301312 0.911191 0.706949
O O5 0.171676 0.897101 0.575977
O O6 0.946204 0.849128 0.500000
O O7 0.979732 0.734261 0.154916
O O8 0.865527 0.873516 0.092520
O O9 0.987478 0.780846 0.000000
O O10 0.321470 0.530501 0.096701
O O11 0.119663 0.471072 0.000000
O O12 0.333334 0.666668 0.500000
O O13 0.483551 0.790098 0.621858
O O14 0.721000 0.970071 0.697730
#
# Coordination Sequence:
#
# PCOD9581219 Si02
#       7
#     6   3   6   6   2   6   6
#     4  12  25  40  63  94 136 178 224 274 336 400
#     4  10  24  44  72 106 132 166 208 254 328 402
#     4   8  18  39  63  93 128 173 232 281 333 391
#     4   8  18  38  64  95 128 172 231 284 335 390
#     4  12  24  45  78 108 124 170 223 276 333 384
#     4  12  24  45  70  99 135 170 219 271 325 402
#     4  12  25  40  63  94 135 180 221 275 336 397
#
# _framework density 19.348502
#
# number of rings (size 3 to 8) (size 9 to 14) (size 15 to 20)
#    0.857    0.686    2.571    3.429    0.000    1.371 
#    1.029    4.286    0.000    2.057    0.000    0.000 
#    0.000    0.000    0.000    0.000    0.000    0.000 
#
# Total GULP energy -195385.567862 kJ/mol
# GULP energy per Si atom -5582.444796 kJ/mol
# Density = 1.930446 g / cm^3
# Si number density = 19.348502 Si / 1000 Ang^3
#
#
#
# Elastic Constant Matrix: (Units=GPa)
#
#
# Indices 1 2 3 4 5 6 
#
# 1 88.8905 15.7221 52.2982 0.0000 0.0000 0.0001
# 2 15.7221 88.8901 52.2979 0.0000 0.0000 0.0002
# 3 52.2982 52.2979 137.1209 0.0000 0.0000 0.0000
# 4 0.0000 0.0000 0.0000 23.1011 0.0002 0.0000
# 5 0.0000 0.0000 0.0000 0.0002 23.1010 0.0000
# 6 0.0001 0.0002 0.0000 0.0000 0.0000 36.5840
#
#
#
# Elastic Compliance Matrix: (Units=1/GPa)
#
#
# Indices 1 2 3 4 5 6 
#
# 1 0.014559 0.000892 -0.005893 0.000000 0.000000 0.000000
# 2 0.000892 0.014559 -0.005893 0.000000 0.000000 0.000000
# 3 -0.005893 -0.005893 0.011788 0.000000 0.000000 0.000000
# 4 0.000000 0.000000 0.000000 0.043288 0.000000 0.000000
# 5 0.000000 0.000000 0.000000 0.000000 0.043288 0.000000
# 6 0.000000 0.000000 0.000000 0.000000 0.000000 0.027334
#
#
# Mechanical properties :
#
#
# Convention : Reuss Voigt Hill
#
# Bulk Modulus (GPa) = 52.30618 61.72642 57.01630
# Shear Modulus (GPa) = 27.32566 29.52945 28.42755
#
# Velocity S-wave (km/s) = 3.76212 3.91088 3.83722
# Velocity P-wave (km/s) = 6.77966 7.23637 7.01173
#
# Compressibility (1/GPa) = 0.01911820
#
# Stress axis : x y z
#
# Youngs Moduli (GPa) = 68.68496 68.68480 84.83090
#
# Poissons Ratio (x) = -0.06127 0.49992
# Poissons Ratio (y) = -0.06127 0.49992
# Poissons Ratio (z) = 0.40477 0.40477
#
# Static dielectric constant tensor:
#      x y z
#    x 1.700280 0.000000 0.000000 
#    y 0.000000 1.700290 0.000000 
#    z 0.000000 0.000000 1.642290 
# 
# From -- ./inp_files/899.got.cif
#   From: 2010.05.17/outbox.cif.g08.bks.cpg/sg174_cif.got.tgz:899.got - 2010.05.20 11:22:48.
