data_PCOD9581527
_publ_section_title
;
Structure prediction by ZEFSAII (Michael W. Deem and Ramdas Pophale) SiO2 
 PCOD9581527
Probable space group: P 6/M
;
_chemical_formula_sum "Si O2"
_cell_formula_units_Z 64
_cell_length_a 14.541743
_cell_length_b 14.541743
_cell_length_c 17.199176
_cell_angle_alpha 90.000000
_cell_angle_beta 90.000000
_cell_angle_gamma 120.000000
_cell_volume 3149.714591
_symmetry_space_group_name_H-M "P 6/M"
_symmetry_group_IT_number 175
_symmetry_cell_setting 'hexagonal'
loop_
_space_group_symop_operation_xyz
x,y,z
x-y,x,z
-y,x-y,z
-x,-y,z
-x+y,-x,z
y,-x+y,z
-x,-y,-z
-x+y,-x,-z
y,-x+y,-z
x,y,-z
x-y,x,-z
-y,x-y,-z
loop_
_atom_site_type_symbol
_atom_site_label
_atom_site_fract_x
_atom_site_fract_y
_atom_site_fract_z
Si Si1 0.397903 0.402381 0.591210
Si Si2 0.811037 0.572331 0.854006
Si Si3 0.670094 0.832392 0.590486
Si Si4 0.666668 0.333335 0.903400
Si Si5 0.024282 0.613915 0.911174
Si Si6 0.759908 0.849875 0.746319
O O1 0.500000 0.500000 0.628952
O O2 0.395941 0.428045 0.500000
O O3 0.403638 0.294900 0.593217
O O4 0.283356 0.380294 0.619257
O O5 0.755016 0.446240 0.868581
O O6 0.716761 0.595489 0.873838
O O7 0.861688 0.638022 0.774510
O O8 0.916154 0.618021 0.906988
O O9 0.703702 0.860356 0.500000
O O10 0.759348 0.852144 0.652684
O O11 0.666667 0.333334 0.000000
O O12 0.000000 0.500000 0.876578
O O13 0.057395 0.614119 0.000000
O O14 0.834251 0.804383 0.773821
#
# Coordination Sequence:
#
# PCOD9581527 Si02
#       6
#    12  12  12   4  12  12
#     4   9  18  35  59  89 124 161 211 278 334 398
#     4  12  24  41  63  97 136 170 213 260 333 394
#     4  10  20  39  67  93 122 167 227 284 342 393
#     4  12  24  45  75 105 136 164 214 279 321 387
#     4  11  22  39  67  97 127 168 215 264 316 386
#     4  12  25  44  64  90 130 178 221 280 341 397
#
# _framework density 20.319300999999999
#
# number of rings (size 3 to 8) (size 9 to 14) (size 15 to 20)
#    0.000    1.125    5.625    1.875    0.000    0.000 
#    4.500    1.875    0.000    1.125    0.000    2.625 
#    0.000    0.000    0.000    0.000    0.000    0.000 
#
# Total GULP energy -356384.690191 kJ/mol
# GULP energy per Si atom -5568.510784 kJ/mol
# Density = 2.027305 g / cm^3
# Si number density = 20.319301 Si / 1000 Ang^3
#
#
#
# Elastic Constant Matrix: (Units=GPa)
#
#
# Indices 1 2 3 4 5 6 
#
# 1 94.0713 23.2370 6.6215 0.0000 0.0000 0.0006
# 2 23.2370 94.0714 6.6214 0.0000 0.0000 0.0007
# 3 6.6215 6.6214 54.0788 0.0000 0.0000 0.0002
# 4 0.0000 0.0000 0.0000 20.0923 0.0001 0.0000
# 5 0.0000 0.0000 0.0000 0.0001 20.0923 0.0000
# 6 0.0006 0.0007 0.0002 0.0000 0.0000 35.4168
#
#
#
# Elastic Compliance Matrix: (Units=1/GPa)
#
#
# Indices 1 2 3 4 5 6 
#
# 1 0.011381 -0.002737 -0.001058 0.000000 0.000000 0.000000
# 2 -0.002737 0.011381 -0.001058 0.000000 0.000000 0.000000
# 3 -0.001058 -0.001058 0.018751 0.000000 0.000000 0.000000
# 4 0.000000 0.000000 0.000000 0.049770 0.000000 0.000000
# 5 0.000000 0.000000 0.000000 0.000000 0.049770 0.000000
# 6 0.000000 0.000000 0.000000 0.000000 0.000000 0.028235
#
#
# Mechanical properties :
#
#
# Convention : Reuss Voigt Hill
#
# Bulk Modulus (GPa) = 31.44139 35.02016 33.23077
# Shear Modulus (GPa) = 26.37176 28.83637 27.60406
#
# Velocity S-wave (km/s) = 3.60650 3.77126 3.68980
# Velocity P-wave (km/s) = 5.73147 6.01960 5.87730
#
# Compressibility (1/GPa) = 0.03180521
#
# Stress axis : x y z
#
# Youngs Moduli (GPa) = 87.86766 87.86778 53.33131
#
# Poissons Ratio (x) = 0.24047 0.05645
# Poissons Ratio (y) = 0.24047 0.05644
# Poissons Ratio (z) = 0.09300 0.09300
#
# Static dielectric constant tensor:
#      x y z
#    x 1.763830 0.000000 0.000000 
#    y 0.000000 1.763830 0.000000 
#    z 0.000000 0.000000 1.752510 
# 
# From -- ./inp_files/2830.got.cif
#   From: 2010.05.17/outbox.cif.g08.bks.cpg/sg175_2_cif.got.tgz:2830.got - 2010.05.20 11:23:22.
