data_PCOD9581012
_publ_section_title
;
Structure prediction by ZEFSAII (Michael W. Deem and Ramdas Pophale) SiO2 
 PCOD9581012
Probable space group: P 63
;
_chemical_formula_sum "Si O2"
_cell_formula_units_Z 48
_cell_length_a 17.606143
_cell_length_b 17.606143
_cell_length_c 8.648535
_cell_angle_alpha 90.000000
_cell_angle_beta 90.000000
_cell_angle_gamma 120.000000
_cell_volume 2321.676091
_symmetry_space_group_name_H-M "P 63"
_symmetry_group_IT_number 173
_symmetry_cell_setting 'hexagonal'
loop_
_space_group_symop_operation_xyz
x,y,z
x-y,x,1/2+z
-y,x-y,z
-x,-y,1/2+z
-x+y,-x,z
y,-x+y,1/2+z
loop_
_atom_site_type_symbol
_atom_site_label
_atom_site_fract_x
_atom_site_fract_y
_atom_site_fract_z
Si Si1 0.198439 0.237602 0.324240
Si Si2 0.041342 0.717844 0.809672
Si Si3 0.420608 0.202886 0.720159
Si Si4 0.234647 0.117592 0.134741
Si Si5 0.406896 0.279853 0.018122
Si Si6 0.859894 0.481464 0.302223
Si Si7 0.371319 0.326367 0.520953
Si Si8 0.294462 0.490485 0.927862
O O1 0.212773 0.327429 0.247753
O O2 0.182987 0.162649 0.204072
O O3 0.128775 0.208068 0.462927
O O4 0.289953 0.266042 0.411417
O O5 0.047265 0.807406 0.748357
O O6 0.130350 0.741475 0.893158
O O7 0.962218 0.656169 0.923513
O O8 0.029220 0.663465 0.651674
O O9 0.449547 0.246462 0.888943
O O10 0.400077 0.267434 0.618855
O O11 0.491605 0.194267 0.615532
O O12 0.336296 0.195736 0.115208
O O13 0.476723 0.353842 0.131286
O O14 0.939145 0.549391 0.411828
O O15 0.841857 0.385474 0.338511
O O16 0.772632 0.481274 0.362680
#
# Coordination Sequence:
#
# PCOD9581012 Si02
#       8
#     6   6   6   6   6   6   6   6
#     4  10  18  32  58  87 123 156 198 256 315 364
#     4  10  20  35  59  86 120 153 199 256 310 358
#     4   9  20  36  59  85 121 153 201 261 304 365
#     4  10  18  33  56  87 126 151 200 257 311 374
#     4  10  19  37  61  88 121 153 207 267 304 354
#     4  11  22  39  58  82 122 164 201 247 304 377
#     4   9  19  36  55  84 121 146 199 255 302 355
#     4  11  22  38  58  81 120 166 203 241 318 369
#
# _framework density 20.674720000000001
#
# number of rings (size 3 to 8) (size 9 to 14) (size 15 to 20)
#    0.000    2.000    2.500    1.750    0.000    1.000 
#    0.000    3.750    0.000    0.000    0.000    0.000 
#  327.500    0.000    0.000    0.000    0.000    0.000 
#
# Total GULP energy -267669.299462 kJ/mol
# GULP energy per Si atom -5576.443739 kJ/mol
# Density = 2.062766 g / cm^3
# Si number density = 20.674720 Si / 1000 Ang^3
#
#
#
# Elastic Constant Matrix: (Units=GPa)
#
#
# Indices 1 2 3 4 5 6 
#
# 1 41.3706 5.9449 33.8007 0.0000 0.0000 0.0000
# 2 5.9449 41.3706 33.8007 0.0000 0.0000 0.0000
# 3 33.8007 33.8007 127.2355 0.0000 0.0000 0.0000
# 4 0.0000 0.0000 0.0000 30.0661 0.0000 0.0000
# 5 0.0000 0.0000 0.0000 0.0000 30.0661 0.0000
# 6 0.0000 0.0000 0.0000 0.0000 0.0000 17.7129
#
#
#
# Elastic Compliance Matrix: (Units=1/GPa)
#
#
# Indices 1 2 3 4 5 6 
#
# 1 0.031146 0.002918 -0.009049 0.000000 0.000000 0.000000
# 2 0.002918 0.031146 -0.009049 0.000000 0.000000 0.000000
# 3 -0.009049 -0.009049 0.012667 0.000000 0.000000 0.000000
# 4 0.000000 0.000000 0.000000 0.033260 0.000000 0.000000
# 5 0.000000 0.000000 0.000000 0.000000 0.033260 0.000000
# 6 0.000000 0.000000 0.000000 0.000000 0.000000 0.056456
#
#
# Mechanical properties :
#
#
# Convention : Reuss Voigt Hill
#
# Bulk Modulus (GPa) = 22.42256 39.67438 31.04847
# Shear Modulus (GPa) = 20.56241 24.66440 22.61340
#
# Velocity S-wave (km/s) = 3.15710 3.45769 3.31081
# Velocity P-wave (km/s) = 4.91514 5.93062 5.44660
#
# Compressibility (1/GPa) = 0.04459795
#
# Stress axis : x y z
#
# Youngs Moduli (GPa) = 32.10701 32.10701 78.94312
#
# Poissons Ratio (x) = -0.09368 0.71437
# Poissons Ratio (y) = -0.09368 0.71437
# Poissons Ratio (z) = 0.29054 0.29054
#
# Static dielectric constant tensor:
#      x y z
#    x 1.756630 0.000000 0.000000 
#    y 0.000000 1.756630 0.000000 
#    z 0.000000 0.000000 1.807870 
# 
# From -- ./inp_files/649.got.cif
#   From: 2010.05.17/outbox.cif.g08.bks.cpg/sg173_cif.got.tgz:649.got - 2010.05.20 11:21:53.
