data_PCOD9581836
_publ_section_title
;
Structure prediction by ZEFSAII (Michael W. Deem and Ramdas Pophale) SiO2 
 PCOD9581836
Probable space group: P 63/M
;
_chemical_formula_sum "Si O2"
_cell_formula_units_Z 72
_cell_length_a 23.266679
_cell_length_b 23.266679
_cell_length_c 8.279402
_cell_angle_alpha 90.000000
_cell_angle_beta 90.000000
_cell_angle_gamma 120.000000
_cell_volume 3881.489341
_symmetry_space_group_name_H-M "P 63/M"
_symmetry_group_IT_number 176
_symmetry_cell_setting 'hexagonal'
loop_
_space_group_symop_operation_xyz
x,y,z
x-y,x,1/2+z
-y,x-y,z
-x,-y,1/2+z
-x+y,-x,z
y,-x+y,1/2+z
-x,-y,-z
-x+y,-x,1/2-z
y,-x+y,-z
x,y,1/2-z
x-y,x,-z
-y,x-y,1/2-z
loop_
_atom_site_type_symbol
_atom_site_label
_atom_site_fract_x
_atom_site_fract_y
_atom_site_fract_z
Si Si1 0.557034 0.789188 0.445117
Si Si2 0.621237 0.626088 0.057153
Si Si3 0.357085 0.855313 0.053173
Si Si4 0.151734 0.860278 0.942597
Si Si5 0.501577 0.118793 0.945906
Si Si6 0.991012 0.242661 0.942116
O O1 0.556918 0.789988 0.250000
O O2 0.509641 0.713682 0.500049
O O3 0.632883 0.816250 0.495777
O O4 0.527741 0.834952 0.501840
O O5 0.628720 0.632924 0.250000
O O6 0.564609 0.642152 0.005288
O O7 0.597448 0.551205 0.007221
O O8 0.691728 0.677944 0.980729
O O9 0.358146 0.854379 0.250000
O O10 0.423882 0.857290 0.998576
O O11 0.157263 0.862762 0.750000
O O12 0.194466 0.936499 0.003018
O O13 0.074127 0.820760 0.988161
O O14 0.501336 0.117977 0.750000
O O15 0.989078 0.234342 0.750000
#
# Coordination Sequence:
#
# PCOD9581836 Si02
#       6
#    12  12  12  12  12  12
#     4  10  19  34  55  77 109 150 190 239 290 335
#     4  11  20  32  54  80 110 145 183 230 284 336
#     4   9  19  34  50  75 108 145 188 233 282 335
#     4  11  23  38  60  89 118 148 187 230 277 339
#     4  10  20  34  52  75 107 146 191 234 281 340
#     4  11  23  38  59  88 119 150 185 227 279 339
#
# _framework density 18.549581
#
# number of rings (size 3 to 8) (size 9 to 14) (size 15 to 20)
#    0.000    1.667    3.333    2.000    0.000    2.000 
#    1.000    1.667    0.000    0.333    0.000    0.000 
#    0.000    0.000    0.000    0.000    0.000    0.000 
#
# Total GULP energy -401984.210374 kJ/mol
# GULP energy per Si atom -5583.114033 kJ/mol
# Density = 1.850736 g / cm^3
# Si number density = 18.549581 Si / 1000 Ang^3
#
#
#
# Elastic Constant Matrix: (Units=GPa)
#
#
# Indices 1 2 3 4 5 6 
#
# 1 72.5102 9.3177 -2.5876 0.0000 0.0000 0.0000
# 2 9.3177 72.5102 -2.5876 0.0000 0.0000 0.0000
# 3 -2.5876 -2.5876 7.6652 0.0000 0.0000 0.0000
# 4 0.0000 0.0000 0.0000 14.8361 0.0000 0.0000
# 5 0.0000 0.0000 0.0000 0.0000 14.8361 0.0000
# 6 0.0000 0.0000 0.0000 0.0000 0.0000 31.5963
#
#
#
# Elastic Compliance Matrix: (Units=1/GPa)
#
#
# Indices 1 2 3 4 5 6 
#
# 1 0.014156 -0.001669 0.004215 0.000000 0.000000 0.000000
# 2 -0.001669 0.014156 0.004215 0.000000 0.000000 0.000000
# 3 0.004215 0.004215 0.133305 0.000000 0.000000 0.000000
# 4 0.000000 0.000000 0.000000 0.067403 0.000000 0.000000
# 5 0.000000 0.000000 0.000000 0.000000 0.067403 0.000000
# 6 0.000000 0.000000 0.000000 0.000000 0.000000 0.031649
#
#
# Mechanical properties :
#
#
# Convention : Reuss Voigt Hill
#
# Bulk Modulus (GPa) = 5.70966 17.88563 11.79765
# Shear Modulus (GPa) = 13.40738 22.15659 17.78198
#
# Velocity S-wave (km/s) = 2.69138 3.45983 3.09952
# Velocity P-wave (km/s) = 3.56971 5.06198 4.37986
#
# Compressibility (1/GPa) = 0.17514178
#
# Stress axis : x y z
#
# Youngs Moduli (GPa) = 70.64138 70.64138 7.50158
#
# Poissons Ratio (x) = 0.11787 -0.03162
# Poissons Ratio (y) = 0.11787 -0.03162
# Poissons Ratio (z) = -0.29778 -0.29778
#
# Static dielectric constant tensor:
#      x y z
#    x 1.636810 0.000000 0.000000 
#    y 0.000000 1.636810 0.000000 
#    z 0.000000 0.000000 1.645650 
# 
# From -- ./inp_files/1184.got.cif
#   From: 2010.05.17/outbox.cif.g08.bks.cpg/sg176_1_cif.got.tgz:1184.got - 2010.06.03 11:36:45.
