data_PCOD9581078
_publ_section_title
;
Structure prediction by ZEFSAII (Michael W. Deem and Ramdas Pophale) SiO2 
 PCOD9581078
Probable space group: P 63
;
_chemical_formula_sum "Si O2"
_cell_formula_units_Z 48
_cell_length_a 14.649501
_cell_length_b 14.649501
_cell_length_c 11.534315
_cell_angle_alpha 90.000000
_cell_angle_beta 90.000000
_cell_angle_gamma 120.000000
_cell_volume 2143.720213
_symmetry_space_group_name_H-M "P 63"
_symmetry_group_IT_number 173
_symmetry_cell_setting 'hexagonal'
loop_
_space_group_symop_operation_xyz
x,y,z
x-y,x,1/2+z
-y,x-y,z
-x,-y,1/2+z
-x+y,-x,z
y,-x+y,1/2+z
loop_
_atom_site_type_symbol
_atom_site_label
_atom_site_fract_x
_atom_site_fract_y
_atom_site_fract_z
Si Si1 0.758895 0.561177 0.584880
Si Si2 0.884456 0.315069 0.820578
Si Si3 0.096082 0.753421 0.699241
Si Si4 0.043123 0.820726 0.471693
Si Si5 0.341371 0.884668 0.728629
Si Si6 0.950902 0.193435 0.438186
Si Si7 0.870478 0.459515 0.471888
Si Si8 0.526773 0.109378 0.036700
O O1 0.752955 0.556312 0.722316
O O2 0.769533 0.669582 0.538627
O O3 0.852116 0.545759 0.537144
O O4 0.654538 0.463971 0.528900
O O5 0.927849 0.252920 0.895864
O O6 0.988767 0.400526 0.749212
O O7 0.837079 0.357573 0.918437
O O8 0.039342 0.790333 0.606569
O O9 0.217452 0.842096 0.725306
O O10 0.043379 0.739716 0.824247
O O11 0.100032 0.657728 0.634417
O O12 0.931963 0.802381 0.426960
O O13 0.141820 0.937313 0.462139
O O14 0.375128 0.840883 0.839183
O O15 0.367329 0.848951 0.608078
O O16 0.993159 0.500387 0.489052
#
# Coordination Sequence:
#
# PCOD9581078 Si02
#       8
#     6   6   6   6   6   6   6   6
#     4  12  23  45  67 101 137 180 231 292 351 419
#     4  10  22  43  65  98 137 174 223 291 339 417
#     4  11  23  44  67  98 135 182 231 283 355 413
#     4  11  26  42  68 102 140 182 238 288 355 423
#     4  11  20  44  67  93 132 175 230 276 338 414
#     4  12  25  43  71 102 140 189 235 294 362 416
#     4  11  24  40  70  97 133 172 234 281 339 414
#     4  10  23  43  65  99 130 178 226 279 343 418
#
# _framework density 22.390982999999999
#
# number of rings (size 3 to 8) (size 9 to 14) (size 15 to 20)
#    0.000    1.000    3.750    3.500    3.500    0.000 
#    5.250    0.000    0.000    0.000    0.000    0.000 
#    0.000    0.000    0.000    0.000    0.000    0.000 
#
# Total GULP energy -268332.188294 kJ/mol
# GULP energy per Si atom -5590.253923 kJ/mol
# Density = 2.234002 g / cm^3
# Si number density = 22.390983 Si / 1000 Ang^3
#
#
#
# Elastic Constant Matrix: (Units=GPa)
#
#
# Indices 1 2 3 4 5 6 
#
# 1 45.6628 -4.4048 21.3755 0.0000 0.0000 0.0000
# 2 -4.4048 45.6628 21.3755 0.0000 0.0000 0.0000
# 3 21.3755 21.3755 127.3176 0.0000 0.0000 0.0000
# 4 0.0000 0.0000 0.0000 29.2704 0.0000 0.0000
# 5 0.0000 0.0000 0.0000 0.0000 29.2704 0.0000
# 6 0.0000 0.0000 0.0000 0.0000 0.0000 25.0338
#
#
#
# Elastic Compliance Matrix: (Units=1/GPa)
#
#
# Indices 1 2 3 4 5 6 
#
# 1 0.024658 0.004685 -0.004926 0.000000 0.000000 0.000000
# 2 0.004685 0.024658 -0.004926 0.000000 0.000000 0.000000
# 3 -0.004926 -0.004926 0.009509 0.000000 0.000000 0.000000
# 4 0.000000 0.000000 0.000000 0.034164 0.000000 0.000000
# 5 0.000000 0.000000 0.000000 0.000000 0.034164 0.000000
# 6 0.000000 0.000000 0.000000 0.000000 0.000000 0.039946
#
#
# Mechanical properties :
#
#
# Convention : Reuss Voigt Hill
#
# Bulk Modulus (GPa) = 20.62372 32.81510 26.71941
# Shear Modulus (GPa) = 25.82688 28.73473 27.28080
#
# Velocity S-wave (km/s) = 3.39993 3.58623 3.49432
# Velocity P-wave (km/s) = 4.96422 5.64228 5.31408
#
# Compressibility (1/GPa) = 0.04848785
#
# Stress axis : x y z
#
# Youngs Moduli (GPa) = 40.55538 40.55538 105.16856
#
# Poissons Ratio (x) = -0.18999 0.51809
# Poissons Ratio (y) = -0.18999 0.51809
# Poissons Ratio (z) = 0.19979 0.19979
#
# Static dielectric constant tensor:
#      x y z
#    x 1.841960 0.000000 0.000000 
#    y 0.000000 1.841960 0.000000 
#    z 0.000000 0.000000 1.841420 
# 
# From -- ./inp_files/933.got.cif
#   From: 2010.05.17/outbox.cif.g08.bks.cpg/sg173_cif.got.tgz:933.got - 2010.05.20 11:21:53.
