data_PCOD9581792
_publ_section_title
;
Structure prediction by ZEFSAII (Michael W. Deem and Ramdas Pophale) SiO2 
 PCOD9581792
Probable space group: P 63/M
;
_chemical_formula_sum "Si O2"
_cell_formula_units_Z 76
_cell_length_a 20.501091
_cell_length_b 20.501091
_cell_length_c 15.690629
_cell_angle_alpha 90.000000
_cell_angle_beta 90.000000
_cell_angle_gamma 120.000000
_cell_volume 5711.167956
_symmetry_space_group_name_H-M "P 63/M"
_symmetry_group_IT_number 176
_symmetry_cell_setting 'hexagonal'
loop_
_space_group_symop_operation_xyz
x,y,z
x-y,x,1/2+z
-y,x-y,z
-x,-y,1/2+z
-x+y,-x,z
y,-x+y,1/2+z
-x,-y,-z
-x+y,-x,1/2-z
y,-x+y,-z
x,y,1/2-z
x-y,x,-z
-y,x-y,1/2-z
loop_
_atom_site_type_symbol
_atom_site_label
_atom_site_fract_x
_atom_site_fract_y
_atom_site_fract_z
Si Si1 0.156405 0.156141 0.750000
Si Si2 0.333334 0.666667 0.853619
Si Si3 0.288333 0.422860 0.647577
Si Si4 0.949808 0.743629 0.083860
Si Si5 0.156405 0.000265 0.750000
Si Si6 0.134523 0.422859 0.647577
Si Si7 0.420271 0.579729 0.853691
Si Si8 0.793823 0.743629 0.416140
O O1 0.155395 0.077698 0.750000
O O2 0.196650 0.205043 0.834046
O O3 0.071534 0.143069 0.750000
O O4 0.333334 0.666668 0.750000
O O5 0.376582 0.623423 0.880479
O O6 0.289615 0.414049 0.750000
O O7 0.220235 0.440472 0.631568
O O8 0.368023 0.493165 0.619881
O O9 0.264688 0.343411 0.605072
O O10 0.991609 0.794958 0.165954
O O11 0.921280 0.656590 0.105072
O O12 0.874498 0.748995 0.071684
O O13 0.000001 0.771038 1.000000
O O14 0.124432 0.414048 0.750000
O O15 0.125138 0.493164 0.619882
O O16 0.420606 0.579394 0.750000
#
# Coordination Sequence:
#
# PCOD9581792 Si02
#       8
#     6   4  12  12   6  12  12  12
#     4  10  19  32  48  65  82 102 134 176 218 255
#     4   9  12  18  30  63  87 111 138 169 194 250
#     4   9  15  25  40  60  86 113 140 169 203 244
#     4  10  19  31  45  62  84 111 141 172 208 251
#     4  10  19  32  48  65  82 102 134 176 218 255
#     4   9  15  25  40  60  86 113 140 169 203 244
#     4   9  14  20  37  61  89 112 139 171 204 240
#     4  10  19  31  45  62  84 111 141 172 208 251
#
# _framework density 13.307261
#
# number of rings (size 3 to 8) (size 9 to 14) (size 15 to 20)
#    0.000    2.526    3.158    1.105    0.000    0.000 
#    0.000    0.789    0.000    5.053    0.000    0.000 
#    0.000    0.000    0.000    0.000    0.000    0.000 
#
# Total GULP energy -423174.432744 kJ/mol
# GULP energy per Si atom -5568.084641 kJ/mol
# Density = 1.327697 g / cm^3
# Si number density = 13.307261 Si / 1000 Ang^3
#
#
#
# Elastic Constant Matrix: (Units=GPa)
#
#
# Indices 1 2 3 4 5 6 
#
# 1 94.6698 55.5478 51.7289 0.0000 0.0000 -0.0001
# 2 55.5478 94.6701 51.7289 0.0000 0.0000 -0.0001
# 3 51.7289 51.7289 77.8733 0.0000 0.0000 0.0000
# 4 0.0000 0.0000 0.0000 14.5507 0.0000 0.0000
# 5 0.0000 0.0000 0.0000 0.0000 14.5507 0.0000
# 6 -0.0001 -0.0001 0.0000 0.0000 0.0000 19.5610
#
#
#
# Elastic Compliance Matrix: (Units=1/GPa)
#
#
# Indices 1 2 3 4 5 6 
#
# 1 0.018916 -0.006645 -0.008151 0.000000 0.000000 0.000000
# 2 -0.006645 0.018916 -0.008151 0.000000 0.000000 0.000000
# 3 -0.008151 -0.008151 0.023671 0.000000 0.000000 0.000000
# 4 0.000000 0.000000 0.000000 0.068725 0.000000 0.000000
# 5 0.000000 0.000000 0.000000 0.000000 0.068725 0.000000
# 6 0.000000 0.000000 0.000000 0.000000 0.000000 0.051122
#
#
# Mechanical properties :
#
#
# Convention : Reuss Voigt Hill
#
# Bulk Modulus (GPa) = 64.07141 65.02493 64.54817
# Shear Modulus (GPa) = 16.60179 16.94631 16.77405
#
# Velocity S-wave (km/s) = 3.53593 3.57243 3.55423
# Velocity P-wave (km/s) = 8.05746 8.12322 8.09041
#
# Compressibility (1/GPa) = 0.01560759
#
# Stress axis : x y z
#
# Youngs Moduli (GPa) = 52.86538 52.86562 42.24665
#
# Poissons Ratio (x) = 0.35130 0.34436
# Poissons Ratio (y) = 0.35129 0.34436
# Poissons Ratio (z) = 0.43092 0.43091
#
# Static dielectric constant tensor:
#      x y z
#    x 1.435360 0.000000 0.000000 
#    y 0.000000 1.435360 0.000000 
#    z 0.000000 0.000000 1.407840 
# 
# From -- ./inp_files/2895.got.cif
#   From: 2010.05.17/outbox.cif.g08.bks.cpg/sg176_2_cif.got.tgz:2895.got - 2010.06.03 11:36:45.
