data_PCOD9581452
_publ_section_title
;
Structure prediction by ZEFSAII (Michael W. Deem and Ramdas Pophale) SiO2 
 PCOD9581452
Probable space group: P 6/M
;
_chemical_formula_sum "Si O2"
_cell_formula_units_Z 60
_cell_length_a 22.688604
_cell_length_b 22.688604
_cell_length_c 7.758914
_cell_angle_alpha 90.000000
_cell_angle_beta 90.000000
_cell_angle_gamma 120.000000
_cell_volume 3458.972587
_symmetry_space_group_name_H-M "P 6/M"
_symmetry_group_IT_number 175
_symmetry_cell_setting 'hexagonal'
loop_
_space_group_symop_operation_xyz
x,y,z
x-y,x,z
-y,x-y,z
-x,-y,z
-x+y,-x,z
y,-x+y,z
-x,-y,-z
-x+y,-x,-z
y,-x+y,-z
x,y,-z
x-y,x,-z
-y,x-y,-z
loop_
_atom_site_type_symbol
_atom_site_label
_atom_site_fract_x
_atom_site_fract_y
_atom_site_fract_z
Si Si1 0.333599 0.803110 0.790938
Si Si2 0.304791 0.921368 0.303605
Si Si3 0.921368 0.304791 0.303605
Si Si4 0.290962 0.211752 0.000000
Si Si5 0.211752 0.290962 0.000000
Si Si6 0.196890 0.666401 0.209062
O O1 0.330865 0.868522 0.726293
O O2 0.401272 0.802545 0.735549
O O3 0.265608 0.734392 0.736494
O O4 0.333468 0.804637 0.000000
O O5 0.280177 0.914689 0.500000
O O6 0.246831 0.907860 0.165732
O O7 0.363329 1.000000 0.277587
O O8 0.914689 0.280177 0.500000
O O9 0.868522 0.330865 0.273707
O O10 0.907860 0.246831 0.165732
O O11 0.234120 0.234120 0.000000
O O12 0.264672 0.132336 0.000000
O O13 0.195363 0.666532 0.000000
#
# Coordination Sequence:
#
# PCOD9581452 Si02
#       6
#    12  12  12   6   6  12
#     4  10  20  34  52  74 102 137 177 220 265 314
#     4  10  21  36  55  80 107 135 171 218 268 313
#     4  10  21  36  55  80 107 135 171 218 268 313
#     4  10  20  36  57  82 111 141 173 209 254 306
#     4  10  20  36  57  82 111 141 173 209 254 306
#     4  10  20  34  52  74 102 137 177 220 265 314
#
# _framework density 17.346191000000001
#
# number of rings (size 3 to 8) (size 9 to 14) (size 15 to 20)
#    0.000    2.000    2.000    1.600    0.000    6.400 
#    0.000    4.000    0.000    2.600    0.000    0.000 
#    0.000    0.000    0.000   10.000    0.000    0.000 
#
# Total GULP energy -335040.722521 kJ/mol
# GULP energy per Si atom -5584.012042 kJ/mol
# Density = 1.730671 g / cm^3
# Si number density = 17.346191 Si / 1000 Ang^3
#
#
#
# Elastic Constant Matrix: (Units=GPa)
#
#
# Indices 1 2 3 4 5 6 
#
# 1 110.4693 89.2090 42.0779 0.0000 0.0000 0.0000
# 2 89.2090 110.4693 42.0779 0.0000 0.0000 0.0000
# 3 42.0779 42.0779 80.8785 0.0000 0.0000 0.0000
# 4 0.0000 0.0000 0.0000 -2.4047 0.0000 0.0000
# 5 0.0000 0.0000 0.0000 0.0000 -2.4047 0.0000
# 6 0.0000 0.0000 0.0000 0.0000 0.0000 10.6301
#
#
#
# Elastic Compliance Matrix: (Units=1/GPa)
#
#
# Indices 1 2 3 4 5 6 
#
# 1 0.026725 -0.020311 -0.003337 0.000000 0.000000 0.000000
# 2 -0.020311 0.026725 -0.003337 0.000000 0.000000 0.000000
# 3 -0.003337 -0.003337 0.015837 0.000000 0.000000 0.000000
# 4 0.000000 0.000000 0.000000 -0.415856 0.000000 0.000000
# 5 0.000000 0.000000 0.000000 0.000000 -0.415856 0.000000
# 6 0.000000 0.000000 0.000000 0.000000 0.000000 0.094072
#
#
# Mechanical properties :
#
#
# Convention : Reuss Voigt Hill
#
# Bulk Modulus (GPa) = 65.28761 72.06075 68.67418
# Shear Modulus (GPa) = -8.20645 9.72764 0.76060
#
# Velocity S-wave (km/s) = -2.17744 2.37068 0.66290
# Velocity P-wave (km/s) = 5.60340 7.00902 6.34525
#
# Compressibility (1/GPa) = 0.01531684
#
# Stress axis : x y z
#
# Youngs Moduli (GPa) = 37.41773 37.41773 63.14449
#
# Poissons Ratio (x) = 0.75998 0.21073
# Poissons Ratio (y) = 0.75998 0.21073
# Poissons Ratio (z) = 0.12487 0.12487
#
# Static dielectric constant tensor:
#      x y z
#    x 1.563610 0.000000 0.000000 
#    y 0.000000 1.563610 0.000000 
#    z 0.000000 0.000000 1.626090 
# 
# From -- ./inp_files/897.got.cif
#   From: 2010.05.17/outbox.cif.g08.bks.cpg/sg175_1_cif.got.tgz:897.got - 2010.05.20 11:23:22.
