data_PCOD9581333
_publ_section_title
;
Structure prediction by ZEFSAII (Michael W. Deem and Ramdas Pophale) SiO2 
 PCOD9581333
Probable space group: P 6/M
;
_chemical_formula_sum "Si O2"
_cell_formula_units_Z 54
_cell_length_a 16.866610
_cell_length_b 16.866610
_cell_length_c 13.014965
_cell_angle_alpha 90.000000
_cell_angle_beta 90.000000
_cell_angle_gamma 120.000000
_cell_volume 3206.485219
_symmetry_space_group_name_H-M "P 6/M"
_symmetry_group_IT_number 175
_symmetry_cell_setting 'hexagonal'
loop_
_space_group_symop_operation_xyz
x,y,z
x-y,x,z
-y,x-y,z
-x,-y,z
-x+y,-x,z
y,-x+y,z
-x,-y,-z
-x+y,-x,-z
y,-x+y,-z
x,y,-z
x-y,x,-z
-y,x-y,-z
loop_
_atom_site_type_symbol
_atom_site_label
_atom_site_fract_x
_atom_site_fract_y
_atom_site_fract_z
Si Si1 0.368219 0.501421 0.378326
Si Si2 0.197804 0.021006 0.119271
Si Si3 0.299648 0.303830 0.694715
Si Si4 0.832959 0.533224 0.621807
Si Si5 0.202684 0.027904 0.500000
O O1 0.377205 0.487402 0.500000
O O2 0.355389 0.412966 0.319582
O O3 0.273942 0.502623 0.364624
O O4 0.454581 0.598270 0.349815
O O5 0.179221 0.104543 0.136359
O O6 0.271292 0.025529 0.199459
O O7 0.224834 0.024039 0.000000
O O8 0.373577 0.270680 0.681645
O O9 0.227824 0.260993 0.600567
O O10 0.853458 0.553593 0.500000
O O11 0.110215 0.929400 0.500000
#
# Coordination Sequence:
#
# PCOD9581333 Si02
#       5
#    12  12  12  12   6
#     4  10  19  32  50  75 106 141 176 211 251 300
#     4  10  21  37  56  76  99 132 175 220 260 301
#     4  12  21  33  53  76 105 134 168 210 261 308
#     4  10  19  32  50  75 106 141 176 211 251 300
#     4  12  23  34  47  70 104 138 164 192 245 316
#
# _framework density 16.840869999999999
#
# number of rings (size 3 to 8) (size 9 to 14) (size 15 to 20)
#    0.000    1.333    2.222    5.444    0.000    4.444 
#    0.000    2.222    0.000    2.667    0.000    0.000 
#    0.000    3.556    0.000    0.000    0.000    0.000 
#
# Total GULP energy -301807.584821 kJ/mol
# GULP energy per Si atom -5589.029349 kJ/mol
# Density = 1.680254 g / cm^3
# Si number density = 16.840870 Si / 1000 Ang^3
#
#
#
# Elastic Constant Matrix: (Units=GPa)
#
#
# Indices 1 2 3 4 5 6 
#
# 1 62.2756 0.6945 22.9843 0.0000 0.0000 0.0000
# 2 0.6945 62.2756 22.9843 0.0000 0.0000 0.0000
# 3 22.9843 22.9843 52.7480 0.0000 0.0000 0.0000
# 4 0.0000 0.0000 0.0000 16.9556 0.0000 0.0000
# 5 0.0000 0.0000 0.0000 0.0000 16.9556 0.0000
# 6 0.0000 0.0000 0.0000 0.0000 0.0000 30.7906
#
#
#
# Elastic Compliance Matrix: (Units=1/GPa)
#
#
# Indices 1 2 3 4 5 6 
#
# 1 0.019764 0.003525 -0.010148 0.000000 0.000000 0.000000
# 2 0.003525 0.019764 -0.010148 0.000000 0.000000 0.000000
# 3 -0.010148 -0.010148 0.027802 0.000000 0.000000 0.000000
# 4 0.000000 0.000000 0.000000 0.058977 0.000000 0.000000
# 5 0.000000 0.000000 0.000000 0.000000 0.058977 0.000000
# 6 0.000000 0.000000 0.000000 0.000000 0.000000 0.032477
#
#
# Mechanical properties :
#
#
# Convention : Reuss Voigt Hill
#
# Bulk Modulus (GPa) = 29.59658 30.06953 29.83305
# Shear Modulus (GPa) = 19.04293 21.64943 20.34618
#
# Velocity S-wave (km/s) = 3.36632 3.58932 3.47961
# Velocity P-wave (km/s) = 5.72031 5.92212 5.82209
#
# Compressibility (1/GPa) = 0.03378769
#
# Stress axis : x y z
#
# Youngs Moduli (GPa) = 50.59814 50.59814 35.96927
#
# Poissons Ratio (x) = -0.17835 0.36500
# Poissons Ratio (y) = -0.17835 0.36500
# Poissons Ratio (z) = 0.51345 0.51345
#
# Static dielectric constant tensor:
#      x y z
#    x 1.577010 0.000000 0.000000 
#    y 0.000000 1.577010 0.000000 
#    z 0.000000 0.000000 1.534990 
# 
# From -- ./inp_files/1723.got.cif
#   From: 2010.05.17/outbox.cif.g08.bks.cpg/sg175_1_cif.got.tgz:1723.got - 2010.05.20 11:23:22.
