data_PCOD9581125
_publ_section_title
;
Structure prediction by ZEFSAII (Michael W. Deem and Ramdas Pophale) SiO2 
 PCOD9581125
Probable space group: P -6
;
_chemical_formula_sum "Si O2"
_cell_formula_units_Z 32
_cell_length_a 16.862228
_cell_length_b 16.862228
_cell_length_c 8.845164
_cell_angle_alpha 90.000000
_cell_angle_beta 90.000000
_cell_angle_gamma 120.000000
_cell_volume 2178.042931
_symmetry_space_group_name_H-M "P -6"
_symmetry_group_IT_number 174
_symmetry_cell_setting 'hexagonal'
loop_
_space_group_symop_operation_xyz
x,y,z
-x+y,-x,-z
-y,x-y,z
x,y,-z
-x+y,-x,z
-y,x-y,-z
loop_
_atom_site_type_symbol
_atom_site_label
_atom_site_fract_x
_atom_site_fract_y
_atom_site_fract_z
Si Si1 0.839805 0.504110 0.818838
Si Si2 0.665965 0.505025 0.681181
Si Si3 0.284958 0.233238 0.819885
Si Si4 0.101415 0.889046 0.682192
Si Si5 0.000000 0.000000 0.316786
Si Si6 0.774517 0.715186 0.681626
O O1 0.744196 0.486514 0.748090
O O2 0.863101 0.430403 0.751798
O O3 0.914119 0.609311 0.781426
O O4 0.830630 0.495331 0.000000
O O5 0.663475 0.495567 0.500000
O O6 0.699463 0.610941 0.718734
O O7 0.210923 0.256654 0.753351
O O8 0.266057 0.135951 0.753577
O O9 0.276920 0.226209 0.000000
O O10 0.096304 0.880377 0.500000
O O11 0.206793 0.957509 0.725525
O O12 0.048053 0.942673 0.730085
O O13 0.000000 0.000000 0.500000
O O14 0.787787 0.721407 0.500000
#
# Coordination Sequence:
#
# PCOD9581125 Si02
#       6
#     6   6   6   6   2   6
#     4  10  20  33  46  62  90 122 147 177 225 269
#     4  10  19  31  48  68  87 111 151 191 219 257
#     4  10  20  30  42  64  90 117 150 184 213 253
#     4  10  17  29  45  62  88 121 151 176 212 257
#     4   9  15  24  43  62  82 120 154 170 202 252
#     4   9  18  31  46  64  87 117 149 182 219 260
#
# _framework density 14.692088999999999
#
# number of rings (size 3 to 8) (size 9 to 14) (size 15 to 20)
#    0.000    2.250    1.875    2.062    0.000    3.750 
#    0.000    0.000    0.000    0.000    0.000    0.000 
#    1.875    0.000    1.125    0.000    1.500    0.000 
#
# Total GULP energy -178433.950386 kJ/mol
# GULP energy per Si atom -5576.060950 kJ/mol
# Density = 1.465865 g / cm^3
# Si number density = 14.692089 Si / 1000 Ang^3
#
#
#
# Elastic Constant Matrix: (Units=GPa)
#
#
# Indices 1 2 3 4 5 6 
#
# 1 108.2025 57.5309 37.8870 0.0000 0.0000 0.0000
# 2 57.5309 108.2025 37.8870 0.0000 0.0000 0.0000
# 3 37.8870 37.8870 32.1744 0.0000 0.0000 0.0000
# 4 0.0000 0.0000 0.0000 19.1906 0.0000 0.0000
# 5 0.0000 0.0000 0.0000 0.0000 19.1906 0.0000
# 6 0.0000 0.0000 0.0000 0.0000 0.0000 25.3358
#
#
#
# Elastic Compliance Matrix: (Units=1/GPa)
#
#
# Indices 1 2 3 4 5 6 
#
# 1 0.016403 -0.003332 -0.015392 0.000000 0.000000 0.000000
# 2 -0.003332 0.016403 -0.015392 0.000000 0.000000 0.000000
# 3 -0.015392 -0.015392 0.067329 0.000000 0.000000 0.000000
# 4 0.000000 0.000000 0.000000 0.052109 0.000000 0.000000
# 5 0.000000 0.000000 0.000000 0.000000 0.052109 0.000000
# 6 0.000000 0.000000 0.000000 0.000000 0.000000 0.039470
#
#
# Mechanical properties :
#
#
# Convention : Reuss Voigt Hill
#
# Bulk Modulus (GPa) = 31.34338 57.24325 44.29331
# Shear Modulus (GPa) = 15.49484 20.42838 17.96161
#
# Velocity S-wave (km/s) = 3.25104 3.73290 3.50027
# Velocity P-wave (km/s) = 5.95585 7.59117 6.82269
#
# Compressibility (1/GPa) = 0.03190467
#
# Stress axis : x y z
#
# Youngs Moduli (GPa) = 60.96478 60.96478 14.85235
#
# Poissons Ratio (x) = 0.20314 0.22860
# Poissons Ratio (y) = 0.20314 0.22860
# Poissons Ratio (z) = 0.93835 0.93835
#
# Static dielectric constant tensor:
#      x y z
#    x 1.484360 0.000000 0.000000 
#    y 0.000000 1.484360 0.000000 
#    z 0.000000 0.000000 1.492250 
# 
# From -- ./inp_files/345.got.cif
#   From: 2010.05.17/outbox.cif.g08.bks.cpg/sg174_cif.got.tgz:345.got - 2010.05.20 11:22:48.
