data_PCOD9581451
_publ_section_title
;
Structure prediction by ZEFSAII (Michael W. Deem and Ramdas Pophale) SiO2 
 PCOD9581451
Probable space group: P 6/M
;
_chemical_formula_sum "Si O2"
_cell_formula_units_Z 60
_cell_length_a 17.253432
_cell_length_b 17.253432
_cell_length_c 13.220339
_cell_angle_alpha 90.000000
_cell_angle_beta 90.000000
_cell_angle_gamma 120.000000
_cell_volume 3408.193284
_symmetry_space_group_name_H-M "P 6/M"
_symmetry_group_IT_number 175
_symmetry_cell_setting 'hexagonal'
loop_
_space_group_symop_operation_xyz
x,y,z
x-y,x,z
-y,x-y,z
-x,-y,z
-x+y,-x,z
y,-x+y,z
-x,-y,-z
-x+y,-x,-z
y,-x+y,-z
x,y,-z
x-y,x,-z
-y,x-y,-z
loop_
_atom_site_type_symbol
_atom_site_label
_atom_site_fract_x
_atom_site_fract_y
_atom_site_fract_z
Si Si1 0.405850 0.160804 0.379691
Si Si2 0.696340 0.192578 0.222096
Si Si3 0.524600 0.168638 0.884169
Si Si4 0.899267 0.794426 0.622695
Si Si5 0.593244 0.582009 0.254154
O O1 0.416140 0.162413 0.500000
O O2 0.483878 0.249201 0.325681
O O3 0.310655 0.153337 0.354199
O O4 0.400620 0.072493 0.331283
O O5 0.609608 0.199439 0.190539
O O6 0.768907 0.251083 0.137403
O O7 0.661247 0.087342 0.229745
O O8 0.454577 0.068997 0.848302
O O9 0.552025 0.173908 0.000000
O O10 0.845294 0.843511 0.658187
O O11 0.902331 0.799972 0.500000
O O12 0.500000 0.500000 0.295181
#
# Coordination Sequence:
#
# PCOD9581451 Si02
#       5
#    12  12  12  12  12
#     4  10  20  34  52  73 102 142 179 214 258 304
#     4  10  20  35  53  78 105 132 173 220 256 306
#     4  10  20  34  55  80 104 134 168 210 271 324
#     4   9  16  26  43  68  97 131 171 211 249 289
#     4   9  20  35  52  75 103 133 175 219 260 311
#
# _framework density 17.604634999999998
#
# number of rings (size 3 to 8) (size 9 to 14) (size 15 to 20)
#    0.000    2.400    0.000    2.400    0.000    8.000 
#    0.000    8.000    0.000    0.000    0.000    0.000 
#    0.000    0.000    0.000    0.000    0.000  100.400 
#
# Total GULP energy -334142.729121 kJ/mol
# GULP energy per Si atom -5569.045485 kJ/mol
# Density = 1.756457 g / cm^3
# Si number density = 17.604635 Si / 1000 Ang^3
#
#
#
# Elastic Constant Matrix: (Units=GPa)
#
#
# Indices 1 2 3 4 5 6 
#
# 1 91.4350 39.4578 47.0289 0.0000 0.0000 0.0000
# 2 39.4578 91.4350 47.0289 0.0000 0.0000 0.0000
# 3 47.0289 47.0289 83.7193 0.0000 0.0000 0.0000
# 4 0.0000 0.0000 0.0000 8.9098 0.0000 0.0000
# 5 0.0000 0.0000 0.0000 0.0000 8.9098 0.0000
# 6 0.0000 0.0000 0.0000 0.0000 0.0000 25.9886
#
#
#
# Elastic Compliance Matrix: (Units=1/GPa)
#
#
# Indices 1 2 3 4 5 6 
#
# 1 0.016025 -0.003214 -0.007197 0.000000 0.000000 0.000000
# 2 -0.003214 0.016025 -0.007197 0.000000 0.000000 0.000000
# 3 -0.007197 -0.007197 0.020030 0.000000 0.000000 0.000000
# 4 0.000000 0.000000 0.000000 0.112235 0.000000 0.000000
# 5 0.000000 0.000000 0.000000 0.000000 0.112235 0.000000
# 6 0.000000 0.000000 0.000000 0.000000 0.000000 0.038478
#
#
# Mechanical properties :
#
#
# Convention : Reuss Voigt Hill
#
# Bulk Modulus (GPa) = 59.29110 59.29114 59.29112
# Shear Modulus (GPa) = 14.05023 17.63325 15.84174
#
# Velocity S-wave (km/s) = 2.82813 3.16828 3.00302
# Velocity P-wave (km/s) = 6.66459 6.86560 6.76584
#
# Compressibility (1/GPa) = 0.01686594
#
# Stress axis : x y z
#
# Youngs Moduli (GPa) = 62.40163 62.40163 49.92500
#
# Poissons Ratio (x) = 0.20056 0.35929
# Poissons Ratio (y) = 0.20056 0.35929
# Poissons Ratio (z) = 0.44908 0.44908
#
# Static dielectric constant tensor:
#      x y z
#    x 1.631020 0.000000 0.000000 
#    y 0.000000 1.631020 0.000000 
#    z 0.000000 0.000000 1.584230 
# 
# From -- ./inp_files/1801.got.cif
#   From: 2010.05.17/outbox.cif.g08.bks.cpg/sg175_1_cif.got.tgz:1801.got - 2010.05.20 11:23:22.
