data_PCOD9581160
_publ_section_title
;
Structure prediction by ZEFSAII (Michael W. Deem and Ramdas Pophale) SiO2 
 PCOD9581160
Probable space group: P -6
;
_chemical_formula_sum "Si O2"
_cell_formula_units_Z 9
_cell_length_a 6.867055
_cell_length_b 6.867055
_cell_length_c 8.298035
_cell_angle_alpha 90.000000
_cell_angle_beta 90.000000
_cell_angle_gamma 120.000000
_cell_volume 338.880786
_symmetry_space_group_name_H-M "P -6"
_symmetry_group_IT_number 174
_symmetry_cell_setting 'hexagonal'
loop_
_space_group_symop_operation_xyz
x,y,z
-x+y,-x,-z
-y,x-y,z
x,y,-z
-x+y,-x,z
-y,x-y,-z
loop_
_atom_site_type_symbol
_atom_site_label
_atom_site_fract_x
_atom_site_fract_y
_atom_site_fract_z
Si Si1 0.779917 0.717068 0.175172
Si Si2 0.405486 0.949890 0.500000
O O1 0.659324 0.585286 0.335212
O O2 0.049310 0.820762 0.177798
O O3 0.690863 0.610334 0.000000
O O4 0.565328 0.842242 0.500000
#
# Coordination Sequence:
#
# PCOD9581160 Si02
#       2
#     6   3
#     4   8  16  32  54  68  83 126 174 196 213 270
#     4  10  20  26  42  78 106 120 138 194 258 282
#
# _framework density 26.558008999999998
#
# number of rings (size 3 to 8) (size 9 to 14) (size 15 to 20)
#    2.000    1.333    0.000    2.000    0.000    2.667 
#    0.000    0.000    0.000   10.667    0.000    0.000 
#    0.000    0.000    0.000    0.000    0.000    0.000 
#
# Total GULP energy -50228.199839 kJ/mol
# GULP energy per Si atom -5580.911093 kJ/mol
# Density = 2.649756 g / cm^3
# Si number density = 26.558009 Si / 1000 Ang^3
#
#
#
# Elastic Constant Matrix: (Units=GPa)
#
#
# Indices 1 2 3 4 5 6 
#
# 1 102.0549 23.4584 63.9203 0.0000 0.0000 0.0000
# 2 23.4584 102.0549 63.9203 0.0000 0.0000 0.0000
# 3 63.9203 63.9203 343.7878 0.0000 0.0000 0.0000
# 4 0.0000 0.0000 0.0000 -17.9638 0.0000 0.0000
# 5 0.0000 0.0000 0.0000 0.0000 -17.9638 0.0000
# 6 0.0000 0.0000 0.0000 0.0000 0.0000 39.2982
#
#
#
# Elastic Compliance Matrix: (Units=1/GPa)
#
#
# Indices 1 2 3 4 5 6 
#
# 1 0.011276 -0.001447 -0.001827 0.000000 0.000000 0.000000
# 2 -0.001447 0.011276 -0.001827 0.000000 0.000000 0.000000
# 3 -0.001827 -0.001827 0.003588 0.000000 0.000000 0.000000
# 4 0.000000 0.000000 0.000000 -0.055667 0.000000 0.000000
# 5 0.000000 0.000000 0.000000 0.000000 -0.055667 0.000000
# 6 0.000000 0.000000 0.000000 0.000000 0.000000 0.025446
#
#
# Mechanical properties :
#
#
# Convention : Reuss Voigt Hill
#
# Bulk Modulus (GPa) = 62.75179 94.49953 78.62566
# Shear Modulus (GPa) = -113.04065 27.11400 -42.96332
#
# Velocity S-wave (km/s) = -6.53116 3.19867 -4.02645
# Velocity P-wave (km/s) = 5.76153 7.02151 2.83781
#
# Compressibility (1/GPa) = 0.01593580
#
# Stress axis : x y z
#
# Youngs Moduli (GPa) = 88.68464 88.68464 278.68217
#
# Poissons Ratio (x) = 0.12835 0.50927
# Poissons Ratio (y) = 0.12835 0.50927
# Poissons Ratio (z) = 0.16206 0.16206
#
# Static dielectric constant tensor:
#      x y z
#    x 2.062810 0.000000 0.000000 
#    y 0.000000 2.062810 0.000000 
#    z 0.000000 0.000000 2.008390 
# 
# From -- ./inp_files/31.got.cif
#   From: 2010.05.17/outbox.cif.g08.bks.cpg/sg174_cif.got.tgz:31.got - 2010.05.20 11:22:48.
