data_PCOD9581972
_publ_section_title
;
Structure prediction by ZEFSAII (Michael W. Deem and Ramdas Pophale) SiO2 
 PCOD9581972
Probable space group: P 63/M
;
_chemical_formula_sum "Si O2"
_cell_formula_units_Z 30
_cell_length_a 8.238995
_cell_length_b 8.238995
_cell_length_c 20.673715
_cell_angle_alpha 90.000000
_cell_angle_beta 90.000000
_cell_angle_gamma 120.000000
_cell_volume 1215.339562
_symmetry_space_group_name_H-M "P 63/M"
_symmetry_group_IT_number 176
_symmetry_cell_setting 'hexagonal'
loop_
_space_group_symop_operation_xyz
x,y,z
x-y,x,1/2+z
-y,x-y,z
-x,-y,1/2+z
-x+y,-x,z
y,-x+y,1/2+z
-x,-y,-z
-x+y,-x,1/2-z
y,-x+y,-z
x,y,1/2-z
x-y,x,-z
-y,x-y,1/2-z
loop_
_atom_site_type_symbol
_atom_site_label
_atom_site_fract_x
_atom_site_fract_y
_atom_site_fract_z
Si Si1 0.307394 0.994566 0.613931
Si Si2 0.622636 0.626019 0.439062
Si Si3 0.158790 0.421810 0.750000
O O1 0.524967 0.056576 0.616376
O O2 0.294585 0.152935 0.572523
O O3 0.233096 0.935769 0.686484
O O4 0.398180 0.197350 0.424997
O O5 0.500000 0.500000 0.500000
O O6 0.387692 0.528207 0.750000
#
# Coordination Sequence:
#
# PCOD9581972 Si02
#       3
#    12  12   6
#     4  12  25  47  77 114 155 214 266 337 414 479
#     4  12  26  47  76 115 160 211 269 330 404 490
#     4  10  20  46  80 108 158 200 264 348 416 492
#
# _framework density 24.684459
#
# number of rings (size 3 to 8) (size 9 to 14) (size 15 to 20)
#    0.400    0.000    4.000    4.800    0.000    3.200 
#    0.000    4.000    0.000    0.000    0.000    0.000 
#    0.000    0.000    0.000    0.000    0.000    0.000 
#
# Total GULP energy -167146.416188 kJ/mol
# GULP energy per Si atom -5571.547206 kJ/mol
# Density = 2.462828 g / cm^3
# Si number density = 24.684459 Si / 1000 Ang^3
#
#
#
# Elastic Constant Matrix: (Units=GPa)
#
#
# Indices 1 2 3 4 5 6 
#
# 1 112.1351 15.5632 46.1325 0.0000 0.0000 0.0000
# 2 15.5632 112.1351 46.1325 0.0000 0.0000 0.0000
# 3 46.1325 46.1325 210.7430 0.0000 0.0000 0.0000
# 4 0.0000 0.0000 0.0000 31.7539 0.0000 0.0000
# 5 0.0000 0.0000 0.0000 0.0000 31.7539 0.0000
# 6 0.0000 0.0000 0.0000 0.0000 0.0000 48.2860
#
#
#
# Elastic Compliance Matrix: (Units=1/GPa)
#
#
# Indices 1 2 3 4 5 6 
#
# 1 0.009829 -0.000526 -0.002036 0.000000 0.000000 0.000000
# 2 -0.000526 0.009829 -0.002036 0.000000 0.000000 0.000000
# 3 -0.002036 -0.002036 0.005637 0.000000 0.000000 0.000000
# 4 0.000000 0.000000 0.000000 0.031492 0.000000 0.000000
# 5 0.000000 0.000000 0.000000 0.000000 0.031492 0.000000
# 6 0.000000 0.000000 0.000000 0.000000 0.000000 0.020710
#
#
# Mechanical properties :
#
#
# Convention : Reuss Voigt Hill
#
# Bulk Modulus (GPa) = 62.12766 72.29665 67.21216
# Shear Modulus (GPa) = 40.46897 44.17108 42.32003
#
# Velocity S-wave (km/s) = 4.05341 4.23475 4.14507
# Velocity P-wave (km/s) = 6.86514 7.29813 7.08495
#
# Compressibility (1/GPa) = 0.01609589
#
# Stress axis : x y z
#
# Youngs Moduli (GPa) = 101.74388 101.74388 177.41118
#
# Poissons Ratio (x) = 0.05356 0.36126
# Poissons Ratio (y) = 0.05356 0.36126
# Poissons Ratio (z) = 0.20718 0.20718
#
# Static dielectric constant tensor:
#      x y z
#    x 1.997910 0.000000 0.000000 
#    y 0.000000 1.997910 0.000000 
#    z 0.000000 0.000000 2.093740 
# 
# From -- ./inp_files/4162.got.cif
#   From: 2010.05.17/outbox.cif.g08.bks.cpg/sg176_3_cif.got.tgz:4162.got - 2010.06.03 11:36:45.
