data_PCOD9581506
_publ_section_title
;
Structure prediction by ZEFSAII (Michael W. Deem and Ramdas Pophale) SiO2 
 PCOD9581506
Probable space group: P 6/M
;
_chemical_formula_sum "Si O2"
_cell_formula_units_Z 64
_cell_length_a 14.548941
_cell_length_b 14.548941
_cell_length_c 17.615596
_cell_angle_alpha 90.000000
_cell_angle_beta 90.000000
_cell_angle_gamma 120.000000
_cell_volume 3229.168732
_symmetry_space_group_name_H-M "P 6/M"
_symmetry_group_IT_number 175
_symmetry_cell_setting 'hexagonal'
loop_
_space_group_symop_operation_xyz
x,y,z
x-y,x,z
-y,x-y,z
-x,-y,z
-x+y,-x,z
y,-x+y,z
-x,-y,-z
-x+y,-x,-z
y,-x+y,-z
x,y,-z
x-y,x,-z
-y,x-y,-z
loop_
_atom_site_type_symbol
_atom_site_label
_atom_site_fract_x
_atom_site_fract_y
_atom_site_fract_z
Si Si1 0.211878 0.419131 0.214339
Si Si2 0.676876 0.536902 0.587627
Si Si3 0.112101 0.557135 0.741252
Si Si4 0.666668 0.333335 0.411585
Si Si5 0.084183 0.834083 0.341480
Si Si6 0.250243 0.139289 0.909326
O O1 0.149999 0.471879 0.253679
O O2 0.332445 0.515517 0.215562
O O3 0.203360 0.322631 0.265673
O O4 0.161717 0.361101 0.135592
O O5 0.637233 0.518105 0.500000
O O6 0.592482 0.496620 0.656445
O O7 0.721467 0.456635 0.606730
O O8 0.766566 0.658562 0.596572
O O9 0.000000 0.500000 0.781453
O O10 0.666667 0.333334 0.500000
O O11 0.960962 0.800409 0.345591
O O12 0.175859 0.189464 0.889867
O O13 0.266127 0.148048 0.000000
#
# Coordination Sequence:
#
# PCOD9581506 Si02
#       6
#    12  12  12   4  12  12
#     4  11  22  39  60  87 121 157 201 250 304 366
#     4  10  21  37  57  82 111 146 192 244 299 358
#     4  11  22  37  58  84 114 151 193 243 300 355
#     4   9  18  33  54  78 105 132 166 224 289 339
#     4  11  23  39  59  83 114 154 199 247 303 368
#     4  10  20  36  61  94 130 167 209 258 307 355
#
# _framework density 19.819341000000001
#
# number of rings (size 3 to 8) (size 9 to 14) (size 15 to 20)
#    0.000    1.500    0.000    7.500    0.000    1.875 
#    0.000    4.688    0.000    4.500    0.000    0.000 
#    0.000    0.000    0.000    0.000    0.000    0.000 
#
# Total GULP energy -356387.963439 kJ/mol
# GULP energy per Si atom -5568.561929 kJ/mol
# Density = 1.977423 g / cm^3
# Si number density = 19.819341 Si / 1000 Ang^3
#
#
#
# Elastic Constant Matrix: (Units=GPa)
#
#
# Indices 1 2 3 4 5 6 
#
# 1 87.2997 34.1870 41.7043 0.0000 0.0000 -0.0007
# 2 34.1870 87.3000 41.7044 0.0000 0.0000 0.0002
# 3 41.7043 41.7044 73.4370 0.0000 0.0000 -0.0002
# 4 0.0000 0.0000 0.0000 170.8333 -0.0404 0.0000
# 5 0.0000 0.0000 0.0000 -0.0404 170.7168 0.0000
# 6 -0.0007 0.0002 -0.0002 0.0000 0.0000 26.5571
#
#
#
# Elastic Compliance Matrix: (Units=1/GPa)
#
#
# Indices 1 2 3 4 5 6 
#
# 1 0.016160 -0.002668 -0.007662 0.000000 0.000000 0.000000
# 2 -0.002668 0.016160 -0.007662 0.000000 0.000000 0.000000
# 3 -0.007662 -0.007662 0.022319 0.000000 0.000000 0.000000
# 4 0.000000 0.000000 0.000000 0.005854 0.000001 0.000000
# 5 0.000000 0.000000 0.000000 0.000001 0.005858 0.000000
# 6 0.000000 0.000000 0.000000 0.000000 0.000000 0.037655
#
#
# Mechanical properties :
#
#
# Convention : Reuss Voigt Hill
#
# Bulk Modulus (GPa) = 53.60390 53.69202 53.64796
# Shear Modulus (GPa) = 34.19810 82.31749 58.25780
#
# Velocity S-wave (km/s) = 4.15841 6.45167 5.42754
# Velocity P-wave (km/s) = 7.08248 9.09111 8.14892
#
# Compressibility (1/GPa) = 0.01865536
#
# Stress axis : x y z
#
# Youngs Moduli (GPa) = 61.88194 61.88210 44.80420
#
# Poissons Ratio (x) = 0.16511 0.34328
# Poissons Ratio (y) = 0.16511 0.34328
# Poissons Ratio (z) = 0.47413 0.47413
#
# Static dielectric constant tensor:
#      x y z
#    x 1.763660 -0.000010 0.000000 
#    y -0.000010 1.763660 0.000000 
#    z 0.000000 0.000000 1.733750 
# 
# From -- ./inp_files/2841.got.cif
#   From: 2010.05.17/outbox.cif.g08.bks.cpg/sg175_2_cif.got.tgz:2841.got - 2010.05.20 11:23:22.
