data_PCOD9581947
_publ_section_title
;
Structure prediction by ZEFSAII (Michael W. Deem and Ramdas Pophale) SiO2 
 PCOD9581947
Probable space group: P 63/M
;
_chemical_formula_sum "Si O2"
_cell_formula_units_Z 84
_cell_length_a 18.351380
_cell_length_b 18.351380
_cell_length_c 14.709979
_cell_angle_alpha 90.000000
_cell_angle_beta 90.000000
_cell_angle_gamma 120.000000
_cell_volume 4290.225707
_symmetry_space_group_name_H-M "P 63/M"
_symmetry_group_IT_number 176
_symmetry_cell_setting 'hexagonal'
loop_
_space_group_symop_operation_xyz
x,y,z
x-y,x,1/2+z
-y,x-y,z
-x,-y,1/2+z
-x+y,-x,z
y,-x+y,1/2+z
-x,-y,-z
-x+y,-x,1/2-z
y,-x+y,-z
x,y,1/2-z
x-y,x,-z
-y,x-y,1/2-z
loop_
_atom_site_type_symbol
_atom_site_label
_atom_site_fract_x
_atom_site_fract_y
_atom_site_fract_z
Si Si1 0.054212 0.858024 0.497468
Si Si2 0.760306 0.652315 0.642707
Si Si3 0.551947 0.603077 0.353589
Si Si4 0.435174 0.400839 0.149600
Si Si5 0.195814 0.718052 0.984108
Si Si6 0.461483 0.626184 0.505063
Si Si7 0.743081 0.664678 0.140776
O O1 0.078636 0.819145 0.410020
O O2 0.062703 0.809051 0.585199
O O3 0.957678 0.837445 0.493561
O O4 0.783592 0.652062 0.750000
O O5 0.663154 0.630561 0.643023
O O6 0.754303 0.579705 0.574769
O O7 0.560047 0.627742 0.250000
O O8 0.495305 0.501725 0.359385
O O9 0.498442 0.635190 0.405657
O O10 0.647630 0.640576 0.386312
O O11 0.451441 0.378045 0.250000
O O12 0.464713 0.363299 0.071051
O O13 0.151843 0.617683 0.984942
O O14 0.293353 0.746699 0.976718
O O15 0.162740 0.748888 0.899664
O O16 0.752242 0.672064 0.250000
#
# Coordination Sequence:
#
# PCOD9581947 Si02
#       7
#    12  12  12  12  12  12  12
#     4  11  26  47  70  97 126 161 198 251 320 396
#     4  10  23  42  64  94 125 159 208 263 314 370
#     4  10  20  37  63  88 115 157 205 254 307 356
#     4  10  20  37  63  88 115 157 205 254 307 356
#     4  11  24  37  58  86 130 174 214 256 303 364
#     4  12  22  37  56  86 124 167 209 250 299 356
#     4  10  23  42  64  94 125 159 208 263 314 370
#
# _framework density 19.579388999999999
#
# number of rings (size 3 to 8) (size 9 to 14) (size 15 to 20)
#    0.000    1.429    2.857    2.571    8.000    2.286 
#    0.000    0.000    0.000    5.143    0.000    0.000 
#    0.000    0.000    0.000    0.000    0.000    0.000 
#
# Total GULP energy -468413.403367 kJ/mol
# GULP energy per Si atom -5576.350040 kJ/mol
# Density = 1.953483 g / cm^3
# Si number density = 19.579389 Si / 1000 Ang^3
#
#
#
# Elastic Constant Matrix: (Units=GPa)
#
#
# Indices 1 2 3 4 5 6 
#
# 1 94.2482 31.8853 32.4069 0.0000 0.0000 0.0000
# 2 31.8853 94.2482 32.4069 0.0000 0.0000 0.0000
# 3 32.4069 32.4069 70.2629 0.0000 0.0000 0.0000
# 4 0.0000 0.0000 0.0000 66.2092 0.0000 0.0000
# 5 0.0000 0.0000 0.0000 0.0000 66.2092 0.0000
# 6 0.0000 0.0000 0.0000 0.0000 0.0000 31.1814
#
#
#
# Elastic Compliance Matrix: (Units=1/GPa)
#
#
# Indices 1 2 3 4 5 6 
#
# 1 0.013213 -0.002822 -0.004792 0.000000 0.000000 0.000000
# 2 -0.002822 0.013213 -0.004792 0.000000 0.000000 0.000000
# 3 -0.004792 -0.004792 0.018653 0.000000 0.000000 0.000000
# 4 0.000000 0.000000 0.000000 0.015104 0.000000 0.000000
# 5 0.000000 0.000000 0.000000 0.000000 0.015104 0.000000
# 6 0.000000 0.000000 0.000000 0.000000 0.000000 0.032070
#
#
# Mechanical properties :
#
#
# Convention : Reuss Voigt Hill
#
# Bulk Modulus (GPa) = 49.34693 50.23974 49.79334
# Shear Modulus (GPa) = 35.99046 43.52397 39.75722
#
# Velocity S-wave (km/s) = 4.29205 4.71993 4.51107
# Velocity P-wave (km/s) = 7.05836 7.44438 7.25394
#
# Compressibility (1/GPa) = 0.02026469
#
# Stress axis : x y z
#
# Youngs Moduli (GPa) = 75.68338 75.68338 53.61057
#
# Poissons Ratio (x) = 0.21360 0.25693
# Poissons Ratio (y) = 0.21360 0.25693
# Poissons Ratio (z) = 0.36271 0.36271
#
# Static dielectric constant tensor:
#      x y z
#    x 1.721410 0.000000 0.000000 
#    y 0.000000 1.721410 0.000000 
#    z 0.000000 0.000000 1.688420 
# 
# From -- ./inp_files/2940.got.cif
#   From: 2010.05.17/outbox.cif.g08.bks.cpg/sg176_2_cif.got.tgz:2940.got - 2010.06.03 11:36:45.
