data_PCOD9581133
_publ_section_title
;
Structure prediction by ZEFSAII (Michael W. Deem and Ramdas Pophale) SiO2 
 PCOD9581133
Probable space group: P -6
;
_chemical_formula_sum "Si O2"
_cell_formula_units_Z 34
_cell_length_a 8.433656
_cell_length_b 8.433656
_cell_length_c 28.771709
_cell_angle_alpha 90.000000
_cell_angle_beta 90.000000
_cell_angle_gamma 120.000000
_cell_volume 1772.262532
_symmetry_space_group_name_H-M "P -6"
_symmetry_group_IT_number 174
_symmetry_cell_setting 'hexagonal'
loop_
_space_group_symop_operation_xyz
x,y,z
-x+y,-x,-z
-y,x-y,z
x,y,-z
-x+y,-x,z
-y,x-y,-z
loop_
_atom_site_type_symbol
_atom_site_label
_atom_site_fract_x
_atom_site_fract_y
_atom_site_fract_z
Si Si1 0.636357 0.672046 0.380667
Si Si2 0.327955 0.363643 0.880668
Si Si3 0.340342 0.049148 0.846190
Si Si4 0.333335 0.666668 0.055064
Si Si5 0.340343 0.291194 0.653810
Si Si6 0.240962 0.120481 0.750000
Si Si7 0.333334 0.666668 0.444936
O O1 0.804483 0.634724 0.385902
O O2 0.487578 0.503287 0.350318
O O3 0.518095 0.679172 0.423806
O O4 0.720468 0.867176 0.355022
O O5 0.365277 0.195517 0.885903
O O6 0.496713 0.512422 0.850318
O O7 0.320833 0.481907 0.923807
O O8 0.132824 0.279533 0.855022
O O9 0.350282 0.144975 0.797116
O O10 0.333334 0.666668 0.000000
O O11 0.350283 0.205308 0.702884
O O12 0.098585 0.197169 0.750000
O O13 0.333334 0.666668 0.500000
#
# Coordination Sequence:
#
# PCOD9581133 Si02
#       7
#     6   6   6   2   6   6   2
#     4  10  21  37  64  85 128 158 203 256 318 373
#     4  10  21  37  64  85 128 158 203 256 318 373
#     4  11  20  38  57  92 120 171 204 257 314 360
#     4   9  21  42  66  97 119 151 201 261 318 390
#     4  11  20  38  57  92 120 171 204 257 314 360
#     4  10  18  34  56  80 122 162 212 256 284 368
#     4   9  21  42  66  97 119 151 201 261 318 390
#
# _framework density 19.184517
#
# number of rings (size 3 to 8) (size 9 to 14) (size 15 to 20)
#    0.353    1.412    3.529    2.118    0.000    1.412 
#    0.000    7.059    0.000    0.000    0.000    0.000 
#    0.000    0.000    0.000    0.000    0.000    0.000 
#
# Total GULP energy -189302.960498 kJ/mol
# GULP energy per Si atom -5567.734132 kJ/mol
# Density = 1.914085 g / cm^3
# Si number density = 19.184517 Si / 1000 Ang^3
#
#
#
# Elastic Constant Matrix: (Units=GPa)
#
#
# Indices 1 2 3 4 5 6 
#
# 1 77.3454 2.9664 35.1633 0.0000 0.0000 0.0001
# 2 2.9664 77.3450 35.1633 0.0000 0.0000 0.0000
# 3 35.1633 35.1633 138.0039 0.0000 0.0000 0.0000
# 4 0.0000 0.0000 0.0000 16.8839 0.0000 0.0000
# 5 0.0000 0.0000 0.0000 0.0000 16.8839 0.0000
# 6 0.0001 0.0000 0.0000 0.0000 0.0000 37.1895
#
#
#
# Elastic Compliance Matrix: (Units=1/GPa)
#
#
# Indices 1 2 3 4 5 6 
#
# 1 0.014736 0.001291 -0.004084 0.000000 0.000000 0.000000
# 2 0.001291 0.014736 -0.004084 0.000000 0.000000 0.000000
# 3 -0.004084 -0.004084 0.009327 0.000000 0.000000 0.000000
# 4 0.000000 0.000000 0.000000 0.059228 0.000000 0.000000
# 5 0.000000 0.000000 0.000000 0.000000 0.059228 0.000000
# 6 0.000000 0.000000 0.000000 0.000000 0.000000 0.026889
#
#
# Mechanical properties :
#
#
# Convention : Reuss Voigt Hill
#
# Bulk Modulus (GPa) = 39.92468 48.80895 44.36682
# Shear Modulus (GPa) = 24.24285 28.81821 26.53053
#
# Velocity S-wave (km/s) = 3.55867 3.87998 3.72279
# Velocity P-wave (km/s) = 6.14341 6.75051 6.45410
#
# Compressibility (1/GPa) = 0.02504716
#
# Stress axis : x y z
#
# Youngs Moduli (GPa) = 67.86059 67.86015 107.21239
#
# Poissons Ratio (x) = -0.08764 0.43783
# Poissons Ratio (y) = -0.08764 0.43784
# Poissons Ratio (z) = 0.27713 0.27713
#
# Static dielectric constant tensor:
#      x y z
#    x 1.716730 0.000000 0.000000 
#    y 0.000000 1.716730 0.000000 
#    z 0.000000 0.000000 1.666930 
# 
# From -- ./inp_files/1090.got.cif
#   From: 2010.05.17/outbox.cif.g08.bks.cpg/sg174_cif.got.tgz:1090.got - 2010.05.20 11:22:48.
