data_PCOD9581415
_publ_section_title
;
Structure prediction by ZEFSAII (Michael W. Deem and Ramdas Pophale) SiO2 
 PCOD9581415
Probable space group: P 6/M
;
_chemical_formula_sum "Si O2"
_cell_formula_units_Z 84
_cell_length_a 18.336602
_cell_length_b 18.336602
_cell_length_c 15.254822
_cell_angle_alpha 90.000000
_cell_angle_beta 90.000000
_cell_angle_gamma 120.000000
_cell_volume 4441.968694
_symmetry_space_group_name_H-M "P 6/M"
_symmetry_group_IT_number 175
_symmetry_cell_setting 'hexagonal'
loop_
_space_group_symop_operation_xyz
x,y,z
x-y,x,z
-y,x-y,z
-x,-y,z
-x+y,-x,z
y,-x+y,z
-x,-y,-z
-x+y,-x,-z
y,-x+y,-z
x,y,-z
x-y,x,-z
-y,x-y,-z
loop_
_atom_site_type_symbol
_atom_site_label
_atom_site_fract_x
_atom_site_fract_y
_atom_site_fract_z
Si Si1 0.993465 0.276634 0.156075
Si Si2 0.088947 0.764335 0.342869
Si Si3 0.757251 0.165460 0.218011
Si Si4 0.536239 0.435871 0.231874
Si Si5 0.483986 0.079901 0.597080
Si Si6 0.031037 0.844960 0.000000
Si Si7 0.137200 0.197487 0.500000
Si Si8 0.860240 0.327069 0.896693
O O1 0.093678 0.331771 0.161594
O O2 0.963960 0.246197 0.255010
O O3 0.947876 0.329117 0.127316
O O4 0.964077 0.203152 0.085849
O O5 0.183942 0.807888 0.304122
O O6 0.061071 0.671332 0.381097
O O7 0.077733 0.820460 0.415465
O O8 0.659745 0.124758 0.240720
O O9 0.791148 0.246542 0.156369
O O10 0.500000 0.500000 0.227922
O O11 0.593866 0.462373 0.319039
O O12 0.591594 0.454806 0.145196
O O13 0.506298 0.118737 0.500000
O O14 0.500000 0.000000 0.593973
O O15 0.940384 0.836943 0.000000
O O16 0.160461 0.123514 0.500000
O O17 0.847831 0.320339 0.000000
#
# Coordination Sequence:
#
# PCOD9581415 Si02
#       8
#    12  12  12  12  12   6   6  12
#     4  11  21  39  65  92 121 166 225 275 322 378
#     4  11  22  44  66  99 130 171 224 272 327 399
#     4  11  23  40  66  92 131 173 220 272 328 384
#     4  11  21  42  63  94 130 167 210 271 322 384
#     4  10  19  36  66  97 127 159 209 264 318 374
#     4  12  25  40  60  91 128 170 214 276 348 407
#     4  12  27  44  69  98 140 172 218 276 347 413
#     4  11  23  39  61  93 128 167 219 268 326 388
#
# _framework density 18.910533000000001
#
# number of rings (size 3 to 8) (size 9 to 14) (size 15 to 20)
#    0.000    1.000    5.714    3.571    1.000    0.857 
#    2.143    0.000    0.000    1.714    0.000    0.000 
#    0.000    0.000    0.000    0.000    0.000    0.000 
#
# Total GULP energy -468817.093797 kJ/mol
# GULP energy per Si atom -5581.155879 kJ/mol
# Density = 1.886749 g / cm^3
# Si number density = 18.910533 Si / 1000 Ang^3
#
#
#
# Elastic Constant Matrix: (Units=GPa)
#
#
# Indices 1 2 3 4 5 6 
#
# 1 100.1918 39.2571 37.2343 0.0000 0.0000 0.0000
# 2 39.2571 100.1918 37.2343 0.0000 0.0000 0.0000
# 3 37.2343 37.2343 147.8701 0.0000 0.0000 0.0000
# 4 0.0000 0.0000 0.0000 19.9831 0.0000 0.0000
# 5 0.0000 0.0000 0.0000 0.0000 19.9831 0.0000
# 6 0.0000 0.0000 0.0000 0.0000 0.0000 30.4673
#
#
#
# Elastic Compliance Matrix: (Units=1/GPa)
#
#
# Indices 1 2 3 4 5 6 
#
# 1 0.012348 -0.004063 -0.002086 0.000000 0.000000 0.000000
# 2 -0.004063 0.012348 -0.002086 0.000000 0.000000 0.000000
# 3 -0.002086 -0.002086 0.007813 0.000000 0.000000 0.000000
# 4 0.000000 0.000000 0.000000 0.050042 0.000000 0.000000
# 5 0.000000 0.000000 0.000000 0.000000 0.050042 0.000000
# 6 0.000000 0.000000 0.000000 0.000000 0.000000 0.032822
#
#
# Mechanical properties :
#
#
# Convention : Reuss Voigt Hill
#
# Bulk Modulus (GPa) = 62.34905 63.96724 63.15814
# Shear Modulus (GPa) = 26.70465 29.72189 28.21327
#
# Velocity S-wave (km/s) = 3.76194 3.96878 3.86675
# Velocity P-wave (km/s) = 7.20498 7.40954 7.30798
#
# Compressibility (1/GPa) = 0.01603874
#
# Stress axis : x y z
#
# Youngs Moduli (GPa) = 80.98411 80.98411 127.98620
#
# Poissons Ratio (x) = 0.32903 0.26701
# Poissons Ratio (y) = 0.32903 0.26701
# Poissons Ratio (z) = 0.16895 0.16895
#
# Static dielectric constant tensor:
#      x y z
#    x 1.663770 0.000000 0.000000 
#    y 0.000000 1.663770 0.000000 
#    z 0.000000 0.000000 1.653850 
# 
# From -- ./inp_files/2647.got.cif
#   From: 2010.05.17/outbox.cif.g08.bks.cpg/sg175_2_cif.got.tgz:2647.got - 2010.05.20 11:23:22.
