data_PCOD9581431
_publ_section_title
;
Structure prediction by ZEFSAII (Michael W. Deem and Ramdas Pophale) SiO2 
 PCOD9581431
Probable space group: P 6/M
;
_chemical_formula_sum "Si O2"
_cell_formula_units_Z 66
_cell_length_a 21.045207
_cell_length_b 21.045207
_cell_length_c 7.511853
_cell_angle_alpha 90.000000
_cell_angle_beta 90.000000
_cell_angle_gamma 120.000000
_cell_volume 2881.271052
_symmetry_space_group_name_H-M "P 6/M"
_symmetry_group_IT_number 175
_symmetry_cell_setting 'hexagonal'
loop_
_space_group_symop_operation_xyz
x,y,z
x-y,x,z
-y,x-y,z
-x,-y,z
-x+y,-x,z
y,-x+y,z
-x,-y,-z
-x+y,-x,-z
y,-x+y,-z
x,y,-z
x-y,x,-z
-y,x-y,-z
loop_
_atom_site_type_symbol
_atom_site_label
_atom_site_fract_x
_atom_site_fract_y
_atom_site_fract_z
Si Si1 0.404320 0.497252 0.797033
Si Si2 0.669977 0.997131 0.216138
Si Si3 0.121410 0.826128 0.704512
Si Si4 0.350139 0.876141 0.785665
Si Si5 0.464699 0.208834 0.291894
Si Si6 0.821617 0.904832 0.000000
O O1 0.367323 0.415268 0.722707
O O2 0.474751 0.567175 0.717599
O O3 0.335075 0.509638 0.795526
O O4 0.423035 0.489736 0.000000
O O5 0.714179 0.960167 0.290574
O O6 0.688752 0.077782 0.271042
O O7 0.673521 0.993516 0.000000
O O8 0.141138 0.849913 0.500000
O O9 0.169303 0.789517 0.775393
O O10 0.121561 0.887201 0.831453
O O11 0.295020 0.793571 0.733733
O O12 0.355162 0.880488 0.000000
O O13 0.459359 0.191812 0.500000
O O14 0.874159 0.868816 0.000000
#
# Coordination Sequence:
#
# PCOD9581431 Si02
#       6
#    12  12  12  12  12   6
#     4   9  18  35  54  80 115 159 201 252 311 370
#     4   9  17  33  60  91 127 159 200 256 319 376
#     4  10  23  42  68 102 134 168 210 264 324 381
#     4  10  20  32  57  88 117 157 209 260 311 376
#     4  10  22  37  55  83 122 164 212 265 316 375
#     4  12  29  50  76 102 133 173 211 257 313 393
#
# _framework density 22.906558
#
# number of rings (size 3 to 8) (size 9 to 14) (size 15 to 20)
#    0.000    2.182    0.909    1.182    5.091    4.364 
#    1.091    0.000    0.000    6.545    0.000    0.000 
#    0.000    0.000    0.000    0.000    0.000    0.000 
#
# Total GULP energy -368477.953720 kJ/mol
# GULP energy per Si atom -5582.999299 kJ/mol
# Density = 2.285442 g / cm^3
# Si number density = 22.906558 Si / 1000 Ang^3
#
#
#
# Elastic Constant Matrix: (Units=GPa)
#
#
# Indices 1 2 3 4 5 6 
#
# 1 65.3282 2.0150 8.9596 0.0000 0.0000 0.0000
# 2 2.0150 65.3282 8.9596 0.0000 0.0000 0.0000
# 3 8.9596 8.9596 94.2924 0.0000 0.0000 0.0000
# 4 0.0000 0.0000 0.0000 -14.5652 0.0000 0.0000
# 5 0.0000 0.0000 0.0000 0.0000 -14.5652 0.0000
# 6 0.0000 0.0000 0.0000 0.0000 0.0000 31.6566
#
#
#
# Elastic Compliance Matrix: (Units=1/GPa)
#
#
# Indices 1 2 3 4 5 6 
#
# 1 0.015515 -0.000280 -0.001448 0.000000 0.000000 0.000000
# 2 -0.000280 0.015515 -0.001448 0.000000 0.000000 0.000000
# 3 -0.001448 -0.001448 0.010880 0.000000 0.000000 0.000000
# 4 0.000000 0.000000 0.000000 -0.068657 0.000000 0.000000
# 5 0.000000 0.000000 0.000000 0.000000 -0.068657 0.000000
# 6 0.000000 0.000000 0.000000 0.000000 0.000000 0.031589
#
#
# Mechanical properties :
#
#
# Convention : Reuss Voigt Hill
#
# Bulk Modulus (GPa) = 28.12217 29.42411 28.77314
# Shear Modulus (GPa) = -109.62118 14.17286 -47.72416
#
# Velocity S-wave (km/s) = -6.92529 2.49012 -4.56941
# Velocity P-wave (km/s) = 7.18629 4.59791 3.90525
#
# Compressibility (1/GPa) = 0.03555913
#
# Stress axis : x y z
#
# Youngs Moduli (GPa) = 64.45582 64.45582 91.90834
#
# Poissons Ratio (x) = 0.01805 0.13304
# Poissons Ratio (y) = 0.01805 0.13304
# Poissons Ratio (z) = 0.09330 0.09330
#
# Static dielectric constant tensor:
#      x y z
#    x 1.890150 0.000000 0.000000 
#    y 0.000000 1.890150 0.000000 
#    z 0.000000 0.000000 1.877410 
# 
# From -- ./inp_files/1006.got.cif
#   From: 2010.05.17/outbox.cif.g08.bks.cpg/sg175_1_cif.got.tgz:1006.got - 2010.05.20 11:23:22.
