data_PCOD9581557
_publ_section_title
;
Structure prediction by ZEFSAII (Michael W. Deem and Ramdas Pophale) SiO2 
 PCOD9581557
Probable space group: P 6/M
;
_chemical_formula_sum "Si O2"
_cell_formula_units_Z 48
_cell_length_a 14.817775
_cell_length_b 14.817775
_cell_length_c 14.560515
_cell_angle_alpha 90.000000
_cell_angle_beta 90.000000
_cell_angle_gamma 120.000000
_cell_volume 2768.683801
_symmetry_space_group_name_H-M "P 6/M"
_symmetry_group_IT_number 175
_symmetry_cell_setting 'hexagonal'
loop_
_space_group_symop_operation_xyz
x,y,z
x-y,x,z
-y,x-y,z
-x,-y,z
-x+y,-x,z
y,-x+y,z
-x,-y,-z
-x+y,-x,-z
y,-x+y,-z
x,y,-z
x-y,x,-z
-y,x-y,-z
loop_
_atom_site_type_symbol
_atom_site_label
_atom_site_fract_x
_atom_site_fract_y
_atom_site_fract_z
Si Si1 0.239087 0.065770 0.394016
Si Si2 0.445462 0.201063 0.298861
Si Si3 0.272012 0.529424 0.897681
Si Si4 0.537872 0.415880 0.391550
O O1 0.197305 0.146299 0.381006
O O2 0.275658 0.074996 0.500000
O O3 0.337468 0.102647 0.328924
O O4 0.456794 0.216358 0.189862
O O5 0.458454 0.304354 0.348106
O O6 0.538435 0.185593 0.338437
O O7 0.395265 0.616788 0.891498
O O8 0.251342 0.483008 0.000000
O O9 0.500000 0.500000 0.381686
O O10 0.550801 0.403870 0.500000
#
# Coordination Sequence:
#
# PCOD9581557 Si02
#       4
#    12  12  12  12
#     4  10  21  37  56  76 100 135 181 228 266 302
#     4  12  19  33  52  76 105 142 172 205 259 308
#     4   8  15  31  52  74 102 139 179 211 243 292
#     4  11  22  32  46  74 109 140 170 202 245 310
#
# _framework density 17.336758
#
# number of rings (size 3 to 8) (size 9 to 14) (size 15 to 20)
#    0.500    1.250    2.500    4.500    0.000    5.000 
#    0.000    0.000    0.000    7.500    0.000    0.000 
#    0.000    2.000    0.000    0.000    0.000    0.000 
#
# Total GULP energy -267804.565577 kJ/mol
# GULP energy per Si atom -5579.261783 kJ/mol
# Density = 1.729730 g / cm^3
# Si number density = 17.336758 Si / 1000 Ang^3
#
#
#
# Elastic Constant Matrix: (Units=GPa)
#
#
# Indices 1 2 3 4 5 6 
#
# 1 34.6676 -7.6224 23.7808 0.0000 0.0000 0.0000
# 2 -7.6224 34.6676 23.7808 0.0000 0.0000 0.0000
# 3 23.7808 23.7808 129.5532 0.0000 0.0000 0.0000
# 4 0.0000 0.0000 0.0000 -0.7305 0.0000 0.0000
# 5 0.0000 0.0000 0.0000 0.0000 -0.7305 0.0000
# 6 0.0000 0.0000 0.0000 0.0000 0.0000 21.1450
#
#
#
# Elastic Compliance Matrix: (Units=1/GPa)
#
#
# Indices 1 2 3 4 5 6 
#
# 1 0.039123 0.015477 -0.010023 0.000000 0.000000 0.000000
# 2 0.015477 0.039123 -0.010023 0.000000 0.000000 0.000000
# 3 -0.010023 -0.010023 0.011398 0.000000 0.000000 0.000000
# 4 0.000000 0.000000 0.000000 -1.368916 0.000000 0.000000
# 5 0.000000 0.000000 0.000000 0.000000 -1.368916 0.000000
# 6 0.000000 0.000000 0.000000 0.000000 0.000000 0.047292
#
#
# Mechanical properties :
#
#
# Convention : Reuss Voigt Hill
#
# Bulk Modulus (GPa) = 12.42089 30.97412 21.69751
# Shear Modulus (GPa) = -1.94938 14.53342 6.29202
#
# Velocity S-wave (km/s) = -1.06154 2.89848 1.90714
# Velocity P-wave (km/s) = 2.38276 5.39505 4.17038
#
# Compressibility (1/GPa) = 0.08050953
#
# Stress axis : x y z
#
# Youngs Moduli (GPa) = 25.56013 25.56013 87.73233
#
# Poissons Ratio (x) = -0.39560 0.87930
# Poissons Ratio (y) = -0.39560 0.87930
# Poissons Ratio (z) = 0.25618 0.25618
#
# Static dielectric constant tensor:
#      x y z
#    x 1.604360 0.000000 0.000000 
#    y 0.000000 1.604360 0.000000 
#    z 0.000000 0.000000 1.568710 
# 
# From -- ./inp_files/2266.got.cif
#   From: 2010.05.17/outbox.cif.g08.bks.cpg/sg175_2_cif.got.tgz:2266.got - 2010.05.20 11:23:22.
