data_PCOD9581408
_publ_section_title
;
Structure prediction by ZEFSAII (Michael W. Deem and Ramdas Pophale) SiO2 
 PCOD9581408
Probable space group: P 6/M
;
_chemical_formula_sum "Si O2"
_cell_formula_units_Z 72
_cell_length_a 22.943573
_cell_length_b 22.943573
_cell_length_c 8.754763
_cell_angle_alpha 90.000000
_cell_angle_beta 90.000000
_cell_angle_gamma 120.000000
_cell_volume 3991.141528
_symmetry_space_group_name_H-M "P 6/M"
_symmetry_group_IT_number 175
_symmetry_cell_setting 'hexagonal'
loop_
_space_group_symop_operation_xyz
x,y,z
x-y,x,z
-y,x-y,z
-x,-y,z
-x+y,-x,z
y,-x+y,z
-x,-y,-z
-x+y,-x,-z
y,-x+y,-z
x,y,-z
x-y,x,-z
-y,x-y,-z
loop_
_atom_site_type_symbol
_atom_site_label
_atom_site_fract_x
_atom_site_fract_y
_atom_site_fract_z
Si Si1 0.014726 0.264708 0.179204
Si Si2 0.119676 0.969286 0.319770
Si Si3 0.594144 0.085882 0.818405
Si Si4 0.599891 0.537259 0.682181
Si Si5 0.869104 0.600900 0.317896
Si Si6 0.637091 0.881605 0.317170
O O1 0.938027 0.234253 0.234372
O O2 0.039244 0.212397 0.221091
O O3 0.061516 0.333175 0.270076
O O4 0.020160 0.278947 0.000000
O O5 0.133834 0.965405 0.500000
O O6 0.043121 0.912804 0.291202
O O7 0.539099 0.100574 0.742005
O O8 0.670022 0.132622 0.761985
O O9 0.572444 0.010194 0.762778
O O10 0.589407 0.086569 0.000000
O O11 0.590468 0.538147 0.500000
O O12 0.679114 0.578751 0.714587
O O13 0.867760 0.592457 0.500000
O O14 0.809237 0.614877 0.272956
O O15 0.649898 0.887881 0.500000
#
# Coordination Sequence:
#
# PCOD9581408 Si02
#       6
#    12  12  12  12  12  12
#     4  12  24  36  53  80 113 146 181 228 288 345
#     4  10  21  38  58  76  97 133 184 236 283 336
#     4  11  21  34  55  86 117 147 180 225 281 333
#     4  10  19  35  59  84 111 147 186 230 276 327
#     4  11  22  38  58  82 113 151 193 234 276 329
#     4  10  22  38  59  83 111 149 192 234 277 326
#
# _framework density 18.039950999999999
#
# number of rings (size 3 to 8) (size 9 to 14) (size 15 to 20)
#    0.000    1.333    1.667    6.167    0.000    7.333 
#    0.000    0.000    0.000    1.667    0.000    2.333 
#    0.000    0.000    0.000    0.000    0.000    0.000 
#
# Total GULP energy -402490.585058 kJ/mol
# GULP energy per Si atom -5590.147015 kJ/mol
# Density = 1.799889 g / cm^3
# Si number density = 18.039951 Si / 1000 Ang^3
#
#
#
# Elastic Constant Matrix: (Units=GPa)
#
#
# Indices 1 2 3 4 5 6 
#
# 1 46.7723 -7.9673 7.6990 0.0000 0.0000 0.0000
# 2 -7.9673 46.7723 7.6990 0.0000 0.0000 0.0000
# 3 7.6990 7.6990 45.5885 0.0000 0.0000 0.0000
# 4 0.0000 0.0000 0.0000 -27.5105 0.0000 0.0000
# 5 0.0000 0.0000 0.0000 0.0000 -27.5105 0.0000
# 6 0.0000 0.0000 0.0000 0.0000 0.0000 27.3698
#
#
#
# Elastic Compliance Matrix: (Units=1/GPa)
#
#
# Indices 1 2 3 4 5 6 
#
# 1 0.022945 0.004676 -0.004665 0.000000 0.000000 0.000000
# 2 0.004676 0.022945 -0.004665 0.000000 0.000000 0.000000
# 3 -0.004665 -0.004665 0.023511 0.000000 0.000000 0.000000
# 4 0.000000 0.000000 0.000000 -0.036350 0.000000 0.000000
# 5 0.000000 0.000000 0.000000 0.000000 -0.036350 0.000000
# 6 0.000000 0.000000 0.000000 0.000000 0.000000 0.036537
#
#
# Mechanical properties :
#
#
# Convention : Reuss Voigt Hill
#
# Bulk Modulus (GPa) = 16.64058 17.11049 16.87554
# Shear Modulus (GPa) = 79.90490 3.24991 41.57740
#
# Velocity S-wave (km/s) = 6.66254 1.34366 4.80598
# Velocity P-wave (km/s) = 8.27226 3.45146 6.33809
#
# Compressibility (1/GPa) = 0.06009406
#
# Stress axis : x y z
#
# Youngs Moduli (GPa) = 43.58336 43.58336 42.53355
#
# Poissons Ratio (x) = -0.20381 0.19840
# Poissons Ratio (y) = -0.20381 0.19840
# Poissons Ratio (z) = 0.20330 0.20330
#
# Static dielectric constant tensor:
#      x y z
#    x 1.616810 0.000000 0.000000 
#    y 0.000000 1.616810 0.000000 
#    z 0.000000 0.000000 1.606020 
# 
# From -- ./inp_files/1202.got.cif
#   From: 2010.05.17/outbox.cif.g08.bks.cpg/sg175_1_cif.got.tgz:1202.got - 2010.05.20 11:23:22.
