data_PCOD9581843
_publ_section_title
;
Structure prediction by ZEFSAII (Michael W. Deem and Ramdas Pophale) SiO2 
 PCOD9581843
Probable space group: P 63/M
;
_chemical_formula_sum "Si O2"
_cell_formula_units_Z 60
_cell_length_a 15.103952
_cell_length_b 15.103952
_cell_length_c 14.104766
_cell_angle_alpha 90.000000
_cell_angle_beta 90.000000
_cell_angle_gamma 120.000000
_cell_volume 2786.619750
_symmetry_space_group_name_H-M "P 63/M"
_symmetry_group_IT_number 176
_symmetry_cell_setting 'hexagonal'
loop_
_space_group_symop_operation_xyz
x,y,z
x-y,x,1/2+z
-y,x-y,z
-x,-y,1/2+z
-x+y,-x,z
y,-x+y,1/2+z
-x,-y,-z
-x+y,-x,1/2-z
y,-x+y,-z
x,y,1/2-z
x-y,x,-z
-y,x-y,1/2-z
loop_
_atom_site_type_symbol
_atom_site_label
_atom_site_fract_x
_atom_site_fract_y
_atom_site_fract_z
Si Si1 0.484272 0.883484 0.860862
Si Si2 0.186796 0.454513 0.552898
Si Si3 0.179380 0.947568 0.634553
Si Si4 0.951456 0.793412 0.859565
Si Si5 0.337781 0.900776 0.142389
O O1 0.498001 0.868372 0.750000
O O2 0.366282 0.836074 0.885704
O O3 0.529441 0.826025 0.921518
O O4 0.549171 0.005176 0.877474
O O5 0.101715 0.339696 0.581781
O O6 0.178335 0.477867 0.443146
O O7 0.188282 0.938868 0.750000
O O8 0.060083 0.882610 0.605829
O O9 0.218836 0.064098 0.605149
O O10 0.951171 0.822214 0.750000
O O11 0.947977 0.685794 0.861109
O O12 0.332612 0.862600 0.250000
#
# Coordination Sequence:
#
# PCOD9581843 Si02
#       5
#    12  12  12  12  12
#     4  11  23  43  68  99 132 166 217 290 342 381
#     4  12  24  40  70  98 129 173 230 273 338 401
#     4  10  19  34  61  98 136 175 224 274 332 405
#     4   9  18  34  57  91 136 179 213 268 333 394
#     4  10  23  43  61  87 135 176 213 272 336 394
#
# _framework density 21.531462999999999
#
# number of rings (size 3 to 8) (size 9 to 14) (size 15 to 20)
#    0.000    1.600    2.000    3.200    2.800    1.600 
#    0.000    1.000    0.000    2.400    0.000    0.000 
#    0.000    0.000    0.000    0.000    0.000    0.000 
#
# Total GULP energy -335337.162947 kJ/mol
# GULP energy per Si atom -5588.952716 kJ/mol
# Density = 2.148246 g / cm^3
# Si number density = 21.531463 Si / 1000 Ang^3
#
#
#
# Elastic Constant Matrix: (Units=GPa)
#
#
# Indices 1 2 3 4 5 6 
#
# 1 42.0122 -13.2023 11.0767 0.0000 0.0000 0.0000
# 2 -13.2023 42.0122 11.0767 0.0000 0.0000 0.0000
# 3 11.0767 11.0767 143.9419 0.0000 0.0000 0.0000
# 4 0.0000 0.0000 0.0000 -23.8510 0.0000 0.0000
# 5 0.0000 0.0000 0.0000 0.0000 -23.8510 0.0000
# 6 0.0000 0.0000 0.0000 0.0000 0.0000 27.6072
#
#
#
# Elastic Compliance Matrix: (Units=1/GPa)
#
#
# Indices 1 2 3 4 5 6 
#
# 1 0.027502 0.009391 -0.002839 0.000000 0.000000 0.000000
# 2 0.009391 0.027502 -0.002839 0.000000 0.000000 0.000000
# 3 -0.002839 -0.002839 0.007384 0.000000 0.000000 0.000000
# 4 0.000000 0.000000 0.000000 -0.041927 0.000000 0.000000
# 5 0.000000 0.000000 0.000000 0.000000 -0.041927 0.000000
# 6 0.000000 0.000000 0.000000 0.000000 0.000000 0.036222
#
#
# Mechanical properties :
#
#
# Convention : Reuss Voigt Hill
#
# Bulk Modulus (GPa) = 14.32362 27.31871 20.82117
# Shear Modulus (GPa) = 163.38442 10.58207 86.98325
#
# Velocity S-wave (km/s) = 8.72046 2.21932 6.36285
# Velocity P-wave (km/s) = 10.39529 4.39119 7.97949
#
# Compressibility (1/GPa) = 0.06981474
#
# Stress axis : x y z
#
# Youngs Moduli (GPa) = 36.36065 36.36065 135.42456
#
# Poissons Ratio (x) = -0.34147 0.38447
# Poissons Ratio (y) = -0.34147 0.38447
# Poissons Ratio (z) = 0.10323 0.10323
#
# Static dielectric constant tensor:
#      x y z
#    x 1.750980 0.000000 0.000000 
#    y 0.000000 1.750980 0.000000 
#    z 0.000000 0.000000 1.839690 
# 
# From -- ./inp_files/2628.got.cif
#   From: 2010.05.17/outbox.cif.g08.bks.cpg/sg176_2_cif.got.tgz:2628.got - 2010.06.03 11:36:45.
