data_PCOD9581689
_publ_section_title
;
Structure prediction by ZEFSAII (Michael W. Deem and Ramdas Pophale) SiO2 
 PCOD9581689
Probable space group: P 6/M
;
_chemical_formula_sum "Si O2"
_cell_formula_units_Z 52
_cell_length_a 14.029538
_cell_length_b 14.029538
_cell_length_c 16.564835
_cell_angle_alpha 90.000000
_cell_angle_beta 90.000000
_cell_angle_gamma 120.000000
_cell_volume 2823.608531
_symmetry_space_group_name_H-M "P 6/M"
_symmetry_group_IT_number 175
_symmetry_cell_setting 'hexagonal'
loop_
_space_group_symop_operation_xyz
x,y,z
x-y,x,z
-y,x-y,z
-x,-y,z
-x+y,-x,z
y,-x+y,z
-x,-y,-z
-x+y,-x,-z
y,-x+y,-z
x,y,-z
x-y,x,-z
-y,x-y,-z
loop_
_atom_site_type_symbol
_atom_site_label
_atom_site_fract_x
_atom_site_fract_y
_atom_site_fract_z
Si Si1 0.343780 0.462017 0.405095
Si Si2 0.035787 0.626002 0.093835
Si Si3 0.678031 0.125470 0.655618
Si Si4 0.254871 0.820356 0.159906
Si Si5 0.666666 0.333333 0.095649
O O1 0.370338 0.480221 0.500000
O O2 0.367518 0.366653 0.374397
O O3 0.220492 0.437266 0.390856
O O4 0.430068 0.573858 0.358639
O O5 0.132068 0.720760 0.146377
O O6 0.000000 0.500000 0.117698
O O7 0.927185 0.635548 0.105373
O O8 0.071152 0.639537 0.000000
O O9 0.713662 0.140983 0.748661
O O10 0.328659 0.769864 0.129020
O O11 0.666667 0.333334 0.000000
#
# Coordination Sequence:
#
# PCOD9581689 Si02
#       5
#    12  12  12  12   4
#     4  11  22  40  61  87 119 159 205 247 307 373
#     4  11  23  38  59  84 119 163 206 249 304 362
#     4  11  23  37  59  87 120 159 198 255 305 364
#     4  12  23  37  57  86 122 156 202 254 304 364
#     4  12  21  33  54  81 115 158 202 246 300 363
#
# _framework density 18.416150999999999
#
# number of rings (size 3 to 8) (size 9 to 14) (size 15 to 20)
#    0.000    0.692    2.308    8.077    3.231    0.000 
#    0.000    0.000    0.000    0.923    0.000    6.462 
#    0.000    0.000    0.000    0.000    0.000    0.000 
#
# Total GULP energy -290609.179414 kJ/mol
# GULP energy per Si atom -5588.638066 kJ/mol
# Density = 1.837424 g / cm^3
# Si number density = 18.416151 Si / 1000 Ang^3
#
#
#
# Elastic Constant Matrix: (Units=GPa)
#
#
# Indices 1 2 3 4 5 6 
#
# 1 120.5500 55.0685 20.5160 0.0000 0.0000 -0.0001
# 2 55.0685 120.5500 20.5158 0.0000 0.0000 -0.0002
# 3 20.5160 20.5158 87.2424 0.0000 0.0000 0.0001
# 4 0.0000 0.0000 0.0000 28.1806 0.0000 0.0000
# 5 0.0000 0.0000 0.0000 0.0000 28.1807 0.0000
# 6 -0.0001 -0.0002 0.0001 0.0000 0.0000 32.7406
#
#
#
# Elastic Compliance Matrix: (Units=1/GPa)
#
#
# Indices 1 2 3 4 5 6 
#
# 1 0.010648 -0.004623 -0.001417 0.000000 0.000000 0.000000
# 2 -0.004623 0.010648 -0.001417 0.000000 0.000000 0.000000
# 3 -0.001417 -0.001417 0.012129 0.000000 0.000000 0.000000
# 4 0.000000 0.000000 0.000000 0.035485 0.000000 0.000000
# 5 0.000000 0.000000 0.000000 0.000000 0.035485 0.000000
# 6 0.000000 0.000000 0.000000 0.000000 0.000000 0.030543
#
#
# Mechanical properties :
#
#
# Convention : Reuss Voigt Hill
#
# Bulk Modulus (GPa) = 54.02025 57.83811 55.92918
# Shear Modulus (GPa) = 32.04643 33.30318 32.67481
#
# Velocity S-wave (km/s) = 4.17601 4.25710 4.21675
# Velocity P-wave (km/s) = 7.25595 7.45911 7.35823
#
# Compressibility (1/GPa) = 0.01851158
#
# Stress axis : x y z
#
# Youngs Moduli (GPa) = 93.91119 93.91131 82.44901
#
# Poissons Ratio (x) = 0.43417 0.11682
# Poissons Ratio (y) = 0.43417 0.11682
# Poissons Ratio (z) = 0.13306 0.13306
#
# Static dielectric constant tensor:
#      x y z
#    x 1.634890 0.000000 0.000000 
#    y 0.000000 1.634890 0.000000 
#    z 0.000000 0.000000 1.650770 
# 
# From -- ./inp_files/2327.got.cif
#   From: 2010.05.17/outbox.cif.g08.bks.cpg/sg175_2_cif.got.tgz:2327.got - 2010.05.20 11:23:22.
