data_PCOD9581390
_publ_section_title
;
Structure prediction by ZEFSAII (Michael W. Deem and Ramdas Pophale) SiO2 
 PCOD9581390
Probable space group: P 6/M
;
_chemical_formula_sum "Si O2"
_cell_formula_units_Z 84
_cell_length_a 24.440130
_cell_length_b 24.440130
_cell_length_c 7.425499
_cell_angle_alpha 90.000000
_cell_angle_beta 90.000000
_cell_angle_gamma 120.000000
_cell_volume 3841.167971
_symmetry_space_group_name_H-M "P 6/M"
_symmetry_group_IT_number 175
_symmetry_cell_setting 'hexagonal'
loop_
_space_group_symop_operation_xyz
x,y,z
x-y,x,z
-y,x-y,z
-x,-y,z
-x+y,-x,z
y,-x+y,z
-x,-y,-z
-x+y,-x,-z
y,-x+y,-z
x,y,-z
x-y,x,-z
-y,x-y,-z
loop_
_atom_site_type_symbol
_atom_site_label
_atom_site_fract_x
_atom_site_fract_y
_atom_site_fract_z
Si Si1 0.809874 0.430238 0.278914
Si Si2 0.712001 0.473236 0.285279
Si Si3 0.904285 0.047614 0.780200
Si Si4 0.333889 0.001824 0.783550
Si Si5 0.762644 0.619874 0.215630
Si Si6 0.286837 0.191954 0.779624
Si Si7 0.951875 0.521533 0.285786
O O1 0.809980 0.430874 0.500000
O O2 0.760721 0.451886 0.218028
O O3 0.788162 0.359257 0.219153
O O4 0.880706 0.478901 0.217166
O O5 0.708859 0.464388 0.500000
O O6 0.737673 0.546715 0.251999
O O7 0.856328 0.071409 0.724247
O O8 0.975934 0.095525 0.722966
O O9 0.904428 0.047555 0.000000
O O10 0.263263 0.953035 0.719711
O O11 0.382589 0.977900 0.741969
O O12 0.358853 0.072726 0.715673
O O13 0.330315 0.003663 0.000000
O O14 0.833888 0.665189 0.281230
O O15 0.765191 0.627307 0.000000
O O16 0.287232 0.192268 0.000000
O O17 0.947904 0.510514 0.500000
O O18 0.000000 0.500000 0.212891
#
# Coordination Sequence:
#
# PCOD9581390 Si02
#       7
#    12  12  12  12  12  12  12
#     4   9  18  32  52  76  97 122 159 199 238 285
#     4  10  19  34  55  75  97 126 160 198 241 288
#     4   9  15  23  38  62  92 126 164 204 244 287
#     4  10  20  33  50  72  97 128 165 200 236 283
#     4  10  20  33  49  72 100 128 163 203 239 282
#     4   9  17  30  46  64  92 130 165 198 241 289
#     4  10  20  34  51  72  99 128 158 195 241 289
#
# _framework density 21.868348000000001
#
# number of rings (size 3 to 8) (size 9 to 14) (size 15 to 20)
#    0.000    2.429    0.000    3.000    0.000    7.143 
#    0.000    1.429    0.000    0.000    0.000    0.000 
#    0.000    0.000    0.000    0.857    0.000   14.714 
#
# Total GULP energy -469621.262586 kJ/mol
# GULP energy per Si atom -5590.729316 kJ/mol
# Density = 2.181857 g / cm^3
# Si number density = 21.868348 Si / 1000 Ang^3
#
#
#
# Elastic Constant Matrix: (Units=GPa)
#
#
# Indices 1 2 3 4 5 6 
#
# 1 265.8660 166.7019 -1.1726 0.0000 0.0000 0.0000
# 2 166.7019 265.8660 -1.1726 0.0000 0.0000 0.0000
# 3 -1.1726 -1.1726 67.8482 0.0000 0.0000 0.0000
# 4 0.0000 0.0000 0.0000 39.7198 0.0000 0.0000
# 5 0.0000 0.0000 0.0000 0.0000 39.7198 0.0000
# 6 0.0000 0.0000 0.0000 0.0000 0.0000 49.5821
#
#
#
# Elastic Compliance Matrix: (Units=1/GPa)
#
#
# Indices 1 2 3 4 5 6 
#
# 1 0.006198 -0.003886 0.000040 0.000000 0.000000 0.000000
# 2 -0.003886 0.006198 0.000040 0.000000 0.000000 0.000000
# 3 0.000040 0.000040 0.014740 0.000000 0.000000 0.000000
# 4 0.000000 0.000000 0.000000 0.025176 0.000000 0.000000
# 5 0.000000 0.000000 0.000000 0.000000 0.025176 0.000000
# 6 0.000000 0.000000 0.000000 0.000000 0.000000 0.020169
#
#
# Mechanical properties :
#
#
# Convention : Reuss Voigt Hill
#
# Bulk Modulus (GPa) = 51.21904 103.14373 77.18139
# Shear Modulus (GPa) = 44.73141 54.81922 49.77531
#
# Velocity S-wave (km/s) = 4.52761 5.01221 4.77606
# Velocity P-wave (km/s) = 7.12774 8.98691 8.11077
#
# Compressibility (1/GPa) = 0.01952399
#
# Stress axis : x y z
#
# Youngs Moduli (GPa) = 161.33864 161.33864 67.84182
#
# Poissons Ratio (x) = 0.62699 -0.00271
# Poissons Ratio (y) = 0.62699 -0.00271
# Poissons Ratio (z) = -0.00645 -0.00645
#
# Static dielectric constant tensor:
#      x y z
#    x 1.744820 0.000000 0.000000 
#    y 0.000000 1.744820 0.000000 
#    z 0.000000 0.000000 1.862220 
# 
# From -- ./inp_files/1979.got.cif
#   From: 2010.05.17/outbox.cif.g08.bks.cpg/sg175_1_cif.got.tgz:1979.got - 2010.05.20 11:23:22.
