data_PCOD9581695
_publ_section_title
;
Structure prediction by ZEFSAII (Michael W. Deem and Ramdas Pophale) SiO2 
 PCOD9581695
Probable space group: P 6/M
;
_chemical_formula_sum "Si O2"
_cell_formula_units_Z 60
_cell_length_a 13.991256
_cell_length_b 13.991256
_cell_length_c 16.919851
_cell_angle_alpha 90.000000
_cell_angle_beta 90.000000
_cell_angle_gamma 120.000000
_cell_volume 2868.405668
_symmetry_space_group_name_H-M "P 6/M"
_symmetry_group_IT_number 175
_symmetry_cell_setting 'hexagonal'
loop_
_space_group_symop_operation_xyz
x,y,z
x-y,x,z
-y,x-y,z
-x,-y,z
-x+y,-x,z
y,-x+y,z
-x,-y,-z
-x+y,-x,-z
y,-x+y,-z
x,y,-z
x-y,x,-z
-y,x-y,-z
loop_
_atom_site_type_symbol
_atom_site_label
_atom_site_fract_x
_atom_site_fract_y
_atom_site_fract_z
Si Si1 0.815136 0.232693 0.682596
Si Si2 0.900352 0.743319 0.175326
Si Si3 0.969298 0.596675 0.406957
Si Si4 0.243930 0.783132 0.910742
Si Si5 0.462241 0.872778 0.808944
O O1 0.810220 0.146920 0.748563
O O2 0.711135 0.152214 0.628350
O O3 0.818635 0.334369 0.731879
O O4 0.931452 0.294852 0.635472
O O5 0.829826 0.802934 0.176638
O O6 0.877294 0.664142 0.100726
O O7 0.968752 0.618846 0.500000
O O8 0.000000 0.500000 0.398220
O O9 0.343080 0.809924 0.850038
O O10 0.137505 0.674057 0.877568
O O11 0.272015 0.771871 0.000000
O O12 0.500000 0.000000 0.792876
#
# Coordination Sequence:
#
# PCOD9581695 Si02
#       5
#    12  12  12  12  12
#     4  11  23  43  71 101 138 183 237 283 341 431
#     4  11  23  41  65  95 126 176 232 295 359 414
#     4  11  25  46  73 106 148 190 231 294 360 423
#     4  11  24  42  64  95 135 183 239 293 357 431
#     4  11  25  41  66  99 135 186 232 296 365 422
#
# _framework density 20.917542999999998
#
# number of rings (size 3 to 8) (size 9 to 14) (size 15 to 20)
#    0.000    1.000    2.000    4.800    8.400    4.000 
#    1.200    0.000    0.000    1.200    0.000    2.800 
#    0.000    0.000    0.000    0.000    0.000    0.000 
#
# Total GULP energy -335049.554515 kJ/mol
# GULP energy per Si atom -5584.159242 kJ/mol
# Density = 2.086993 g / cm^3
# Si number density = 20.917543 Si / 1000 Ang^3
#
#
#
# Elastic Constant Matrix: (Units=GPa)
#
#
# Indices 1 2 3 4 5 6 
#
# 1 192.4896 -57.9298 60.3962 0.0000 0.0000 0.0000
# 2 -57.9298 192.4897 60.3962 0.0000 0.0000 0.0000
# 3 60.3962 60.3962 146.3929 0.0000 0.0000 0.0000
# 4 0.0000 0.0000 0.0000 19.6990 0.0000 0.0000
# 5 0.0000 0.0000 0.0000 0.0000 19.6990 0.0000
# 6 0.0000 0.0000 0.0000 0.0000 0.0000 125.2097
#
#
#
# Elastic Compliance Matrix: (Units=1/GPa)
#
#
# Indices 1 2 3 4 5 6 
#
# 1 0.007898 0.003905 -0.004869 0.000000 0.000000 0.000000
# 2 0.003905 0.007898 -0.004869 0.000000 0.000000 0.000000
# 3 -0.004869 -0.004869 0.010849 0.000000 0.000000 0.000000
# 4 0.000000 0.000000 0.000000 0.050764 0.000000 0.000000
# 5 0.000000 0.000000 0.000000 0.000000 0.050764 0.000000
# 6 0.000000 0.000000 0.000000 0.000000 0.000000 0.007987
#
#
# Mechanical properties :
#
#
# Convention : Reuss Voigt Hill
#
# Bulk Modulus (GPa) = 66.76972 73.01080 69.89026
# Shear Modulus (GPa) = 32.71831 64.15555 48.43693
#
# Velocity S-wave (km/s) = 3.95923 5.54412 4.81730
# Velocity P-wave (km/s) = 7.27258 8.71567 8.02662
#
# Compressibility (1/GPa) = 0.01497685
#
# Stress axis : x y z
#
# Youngs Moduli (GPa) = 126.61330 126.61330 92.17613
#
# Poissons Ratio (x) = -0.49440 0.44884
# Poissons Ratio (y) = -0.49440 0.44884
# Poissons Ratio (z) = 0.61653 0.61653
#
# Static dielectric constant tensor:
#      x y z
#    x 1.779150 0.000000 0.000000 
#    y 0.000000 1.779150 0.000000 
#    z 0.000000 0.000000 1.770570 
# 
# From -- ./inp_files/2387.got.cif
#   From: 2010.05.17/outbox.cif.g08.bks.cpg/sg175_2_cif.got.tgz:2387.got - 2010.05.20 11:23:22.
