data_PCOD9581916
_publ_section_title
;
Structure prediction by ZEFSAII (Michael W. Deem and Ramdas Pophale) SiO2 
 PCOD9581916
Probable space group: P 63/M
;
_chemical_formula_sum "Si O2"
_cell_formula_units_Z 54
_cell_length_a 18.209761
_cell_length_b 18.209761
_cell_length_c 10.003465
_cell_angle_alpha 90.000000
_cell_angle_beta 90.000000
_cell_angle_gamma 120.000000
_cell_volume 2872.695409
_symmetry_space_group_name_H-M "P 63/M"
_symmetry_group_IT_number 176
_symmetry_cell_setting 'hexagonal'
loop_
_space_group_symop_operation_xyz
x,y,z
x-y,x,1/2+z
-y,x-y,z
-x,-y,1/2+z
-x+y,-x,z
y,-x+y,1/2+z
-x,-y,-z
-x+y,-x,1/2-z
y,-x+y,-z
x,y,1/2-z
x-y,x,-z
-y,x-y,1/2-z
loop_
_atom_site_type_symbol
_atom_site_label
_atom_site_fract_x
_atom_site_fract_y
_atom_site_fract_z
Si Si1 0.631299 0.114968 0.510286
Si Si2 0.664410 0.896539 0.095604
Si Si3 0.377120 0.456933 0.598608
Si Si4 0.097136 0.318278 0.602776
Si Si5 0.433229 0.674158 0.250000
O O1 0.555610 0.117235 0.432776
O O2 0.703091 0.118078 0.414943
O O3 0.671233 0.188468 0.620272
O O4 0.588190 0.022419 0.581378
O O5 0.642268 0.870548 0.250000
O O6 0.734443 0.995855 0.093358
O O7 0.585756 0.888773 0.010325
O O8 0.697562 0.842367 0.017449
O O9 0.344696 0.443990 0.750000
O O10 0.124358 0.306223 0.750000
O O11 0.409852 0.748576 0.250000
#
# Coordination Sequence:
#
# PCOD9581916 Si02
#       5
#    12  12  12  12   6
#     4  10  21  34  56  79 113 149 196 235 287 341
#     4  10  23  37  60  88 117 150 190 237 289 344
#     4  10  20  35  57  82 110 149 193 241 289 338
#     4  10  22  40  59  87 118 149 188 238 286 344
#     4  10  24  36  50  78 114 152 192 240 284 350
#
# _framework density 18.797677
#
# number of rings (size 3 to 8) (size 9 to 14) (size 15 to 20)
#    0.222    1.778    1.111    1.333    6.222    4.444 
#    0.000    0.000    0.000    0.444    0.000    0.000 
#    0.000    0.000    0.000    0.000    0.000    0.000 
#
# Total GULP energy -301580.512936 kJ/mol
# GULP energy per Si atom -5584.824314 kJ/mol
# Density = 1.875489 g / cm^3
# Si number density = 18.797677 Si / 1000 Ang^3
#
#
#
# Elastic Constant Matrix: (Units=GPa)
#
#
# Indices 1 2 3 4 5 6 
#
# 1 53.8214 11.6429 39.0968 0.0000 0.0000 0.0000
# 2 11.6429 53.8214 39.0968 0.0000 0.0000 0.0000
# 3 39.0968 39.0968 169.9314 0.0000 0.0000 0.0000
# 4 0.0000 0.0000 0.0000 23.8254 0.0000 0.0000
# 5 0.0000 0.0000 0.0000 0.0000 23.8254 0.0000
# 6 0.0000 0.0000 0.0000 0.0000 0.0000 21.0892
#
#
#
# Elastic Compliance Matrix: (Units=1/GPa)
#
#
# Indices 1 2 3 4 5 6 
#
# 1 0.022386 -0.001322 -0.004846 0.000000 0.000000 0.000000
# 2 -0.001322 0.022386 -0.004846 0.000000 0.000000 0.000000
# 3 -0.004846 -0.004846 0.008115 0.000000 0.000000 0.000000
# 4 0.000000 0.000000 0.000000 0.041972 0.000000 0.000000
# 5 0.000000 0.000000 0.000000 0.000000 0.041972 0.000000
# 6 0.000000 0.000000 0.000000 0.000000 0.000000 0.047418
#
#
# Mechanical properties :
#
#
# Convention : Reuss Voigt Hill
#
# Bulk Modulus (GPa) = 32.40671 50.80525 41.60598
# Shear Modulus (GPa) = 23.08773 26.26384 24.67579
#
# Velocity S-wave (km/s) = 3.50840 3.74195 3.62706
# Velocity P-wave (km/s) = 5.80422 6.76429 6.30257
#
# Compressibility (1/GPa) = 0.03085781
#
# Stress axis : x y z
#
# Youngs Moduli (GPa) = 44.66983 44.66983 123.23240
#
# Poissons Ratio (x) = 0.05907 0.59722
# Poissons Ratio (y) = 0.05907 0.59722
# Poissons Ratio (z) = 0.21648 0.21648
#
# Static dielectric constant tensor:
#      x y z
#    x 1.647640 0.000000 0.000000 
#    y 0.000000 1.647640 0.000000 
#    z 0.000000 0.000000 1.642280 
# 
# From -- ./inp_files/867.got.cif
#   From: 2010.05.17/outbox.cif.g08.bks.cpg/sg176_1_cif.got.tgz:867.got - 2010.06.03 11:36:45.
