data_PCOD9581168
_publ_section_title
;
Structure prediction by ZEFSAII (Michael W. Deem and Ramdas Pophale) SiO2 
 PCOD9581168
Probable space group: P -6
;
_chemical_formula_sum "Si O2"
_cell_formula_units_Z 36
_cell_length_a 16.687292
_cell_length_b 16.687292
_cell_length_c 8.885166
_cell_angle_alpha 90.000000
_cell_angle_beta 90.000000
_cell_angle_gamma 120.000000
_cell_volume 2142.732262
_symmetry_space_group_name_H-M "P -6"
_symmetry_group_IT_number 174
_symmetry_cell_setting 'hexagonal'
loop_
_space_group_symop_operation_xyz
x,y,z
-x+y,-x,-z
-y,x-y,z
x,y,-z
-x+y,-x,z
-y,x-y,-z
loop_
_atom_site_type_symbol
_atom_site_label
_atom_site_fract_x
_atom_site_fract_y
_atom_site_fract_z
Si Si1 0.290243 0.224787 0.178720
Si Si2 0.117040 0.238488 0.821331
Si Si3 0.947689 0.223850 0.679385
Si Si4 0.392130 0.441436 0.179442
Si Si5 0.225379 0.440497 0.678840
Si Si6 0.046968 0.440325 0.680814
O O1 0.182070 0.194187 0.202149
O O2 0.313267 0.156719 0.269398
O O3 0.349828 0.333312 0.222393
O O4 0.303433 0.218348 0.000000
O O5 0.167552 0.332941 0.726058
O O6 0.012646 0.191273 0.763587
O O7 0.120970 0.258874 0.000000
O O8 0.957818 0.220527 0.500000
O O9 0.986162 0.331606 0.721361
O O10 0.322964 0.475355 0.241962
O O11 0.493269 0.509214 0.243393
O O12 0.391580 0.444446 0.000000
O O13 0.238761 0.450296 0.500000
O O14 0.154297 0.475259 0.722990
O O15 0.043699 0.446349 0.500000
#
# Coordination Sequence:
#
# PCOD9581168 Si02
#       6
#     6   6   6   6   6   6
#     4   9  19  34  51  74 102 133 168 207 253 301
#     4   9  17  31  50  71  98 130 163 203 249 296
#     4  10  20  33  52  77 102 133 172 210 253 303
#     4  10  20  33  52  77 102 133 172 210 253 303
#     4   9  17  31  50  71  98 130 163 203 249 296
#     4   9  19  34  51  74 102 133 168 207 253 301
#
# _framework density 16.800979999999999
#
# number of rings (size 3 to 8) (size 9 to 14) (size 15 to 20)
#    0.000    2.667    0.000    4.000    0.000    8.000 
#    2.000    0.000    0.000    0.667    0.000    0.000 
#    0.000    0.000    0.000    0.000    0.000    0.000 
#
# Total GULP energy -200452.572091 kJ/mol
# GULP energy per Si atom -5568.127003 kJ/mol
# Density = 1.676274 g / cm^3
# Si number density = 16.800980 Si / 1000 Ang^3
#
#
#
# Elastic Constant Matrix: (Units=GPa)
#
#
# Indices 1 2 3 4 5 6 
#
# 1 90.1975 48.3325 34.3112 0.0000 0.0000 0.0000
# 2 48.3325 90.1975 34.3112 0.0000 0.0000 0.0000
# 3 34.3112 34.3112 27.8737 0.0000 0.0000 0.0000
# 4 0.0000 0.0000 0.0000 27.4600 0.0000 0.0000
# 5 0.0000 0.0000 0.0000 0.0000 27.4600 0.0000
# 6 0.0000 0.0000 0.0000 0.0000 0.0000 20.9325
#
#
#
# Elastic Compliance Matrix: (Units=1/GPa)
#
#
# Indices 1 2 3 4 5 6 
#
# 1 0.021192 -0.002694 -0.022770 0.000000 0.000000 0.000000
# 2 -0.002694 0.021192 -0.022770 0.000000 0.000000 0.000000
# 3 -0.022770 -0.022770 0.091935 0.000000 0.000000 0.000000
# 4 0.000000 0.000000 0.000000 0.036417 0.000000 0.000000
# 5 0.000000 0.000000 0.000000 0.000000 0.036417 0.000000
# 6 0.000000 0.000000 0.000000 0.000000 0.000000 0.047773
#
#
# Mechanical properties :
#
#
# Convention : Reuss Voigt Hill
#
# Bulk Modulus (GPa) = 26.42044 49.13093 37.77568
# Shear Modulus (GPa) = 13.73583 21.25807 17.49695
#
# Velocity S-wave (km/s) = 2.86240 3.56095 3.23061
# Velocity P-wave (km/s) = 5.16567 6.79805 6.03729
#
# Compressibility (1/GPa) = 0.03784948
#
# Stress axis : x y z
#
# Youngs Moduli (GPa) = 47.18702 47.18702 10.87728
#
# Poissons Ratio (x) = 0.12712 0.24768
# Poissons Ratio (y) = 0.12712 0.24768
# Poissons Ratio (z) = 1.07447 1.07447
#
# Static dielectric constant tensor:
#      x y z
#    x 1.585900 0.000000 0.000000 
#    y 0.000000 1.585900 0.000000 
#    z 0.000000 0.000000 1.557550 
# 
# From -- ./inp_files/416.got.cif
#   From: 2010.05.17/outbox.cif.g08.bks.cpg/sg174_cif.got.tgz:416.got - 2010.05.20 11:22:48.
