data_PCOD9581325
_publ_section_title
;
Structure prediction by ZEFSAII (Michael W. Deem and Ramdas Pophale) SiO2 
 PCOD9581325
Probable space group: P 6/M
;
_chemical_formula_sum "Si O2"
_cell_formula_units_Z 60
_cell_length_a 20.374023
_cell_length_b 20.374023
_cell_length_c 7.400280
_cell_angle_alpha 90.000000
_cell_angle_beta 90.000000
_cell_angle_gamma 120.000000
_cell_volume 2660.310742
_symmetry_space_group_name_H-M "P 6/M"
_symmetry_group_IT_number 175
_symmetry_cell_setting 'hexagonal'
loop_
_space_group_symop_operation_xyz
x,y,z
x-y,x,z
-y,x-y,z
-x,-y,z
-x+y,-x,z
y,-x+y,z
-x,-y,-z
-x+y,-x,-z
y,-x+y,-z
x,y,-z
x-y,x,-z
-y,x-y,-z
loop_
_atom_site_type_symbol
_atom_site_label
_atom_site_fract_x
_atom_site_fract_y
_atom_site_fract_z
Si Si1 0.285412 0.999248 0.222780
Si Si2 0.164331 0.840390 0.789055
Si Si3 0.422443 0.435870 0.205793
Si Si4 0.283908 0.785115 0.282735
Si Si5 0.619407 0.445578 0.718423
O O1 0.302565 0.081915 0.284762
O O2 0.353798 0.985600 0.285162
O O3 0.207197 0.926595 0.281403
O O4 0.288507 0.000071 0.000000
O O5 0.225911 0.812432 0.776415
O O6 0.150941 0.845922 0.000000
O O7 0.500000 0.500000 0.294650
O O8 0.373921 0.478223 0.205514
O O9 0.440350 0.425472 0.000000
O O10 0.285741 0.789713 0.500000
O O11 0.370965 0.828105 0.220490
O O12 0.249008 0.696862 0.233227
O O13 0.617282 0.448889 0.500000
#
# Coordination Sequence:
#
# PCOD9581325 Si02
#       5
#    12  12  12  12  12
#     4   9  18  32  53  78 103 133 168 215 264 314
#     4  10  19  35  56  77 102 134 174 215 263 318
#     4  10  19  32  49  73 102 132 171 214 256 300
#     4  10  20  34  50  73 103 139 176 216 259 302
#     4  10  20  33  49  69 100 137 174 211 255 301
#
# _framework density 22.553754999999999
#
# number of rings (size 3 to 8) (size 9 to 14) (size 15 to 20)
#    0.000    2.200    2.000    1.600    0.000    4.400 
#    0.000    2.000    0.000    2.800    0.000    2.800 
#    0.000    0.000    0.000    1.800    0.000    2.000 
#
# Total GULP energy -335066.567153 kJ/mol
# GULP energy per Si atom -5584.442786 kJ/mol
# Density = 2.250242 g / cm^3
# Si number density = 22.553755 Si / 1000 Ang^3
#
#
#
# Elastic Constant Matrix: (Units=GPa)
#
#
# Indices 1 2 3 4 5 6 
#
# 1 131.2452 50.4799 5.4691 0.0000 0.0000 0.0000
# 2 50.4799 131.2452 5.4691 0.0000 0.0000 0.0000
# 3 5.4691 5.4691 79.4419 0.0000 0.0000 0.0000
# 4 0.0000 0.0000 0.0000 15.7689 0.0000 0.0000
# 5 0.0000 0.0000 0.0000 0.0000 15.7689 0.0000
# 6 0.0000 0.0000 0.0000 0.0000 0.0000 40.3827
#
#
#
# Elastic Compliance Matrix: (Units=1/GPa)
#
#
# Indices 1 2 3 4 5 6 
#
# 1 0.008954 -0.003428 -0.000380 0.000000 0.000000 0.000000
# 2 -0.003428 0.008954 -0.000380 0.000000 0.000000 0.000000
# 3 -0.000380 -0.000380 0.012640 0.000000 0.000000 0.000000
# 4 0.000000 0.000000 0.000000 0.063416 0.000000 0.000000
# 5 0.000000 0.000000 0.000000 0.000000 0.063416 0.000000
# 6 0.000000 0.000000 0.000000 0.000000 0.000000 0.024763
#
#
# Mechanical properties :
#
#
# Convention : Reuss Voigt Hill
#
# Bulk Modulus (GPa) = 45.10608 51.64096 48.37352
# Shear Modulus (GPa) = 25.26400 33.08503 29.17451
#
# Velocity S-wave (km/s) = 3.35052 3.83422 3.60050
# Velocity P-wave (km/s) = 5.91699 6.52290 6.22732
#
# Compressibility (1/GPa) = 0.02216996
#
# Stress axis : x y z
#
# Youngs Moduli (GPa) = 111.68648 111.68648 79.11273
#
# Poissons Ratio (x) = 0.38285 0.03010
# Poissons Ratio (y) = 0.38285 0.03010
# Poissons Ratio (z) = 0.04249 0.04249
#
# Static dielectric constant tensor:
#      x y z
#    x 1.851760 0.000000 0.000000 
#    y 0.000000 1.851760 0.000000 
#    z 0.000000 0.000000 1.844230 
# 
# From -- ./inp_files/1808.got.cif
#   From: 2010.05.17/outbox.cif.g08.bks.cpg/sg175_1_cif.got.tgz:1808.got - 2010.05.20 11:23:22.
