data_PCOD9581565
_publ_section_title
;
Structure prediction by ZEFSAII (Michael W. Deem and Ramdas Pophale) SiO2 
 PCOD9581565
Probable space group: P 6/M
;
_chemical_formula_sum "Si O2"
_cell_formula_units_Z 66
_cell_length_a 21.940535
_cell_length_b 21.940535
_cell_length_c 7.503182
_cell_angle_alpha 90.000000
_cell_angle_beta 90.000000
_cell_angle_gamma 120.000000
_cell_volume 3128.027332
_symmetry_space_group_name_H-M "P 6/M"
_symmetry_group_IT_number 175
_symmetry_cell_setting 'hexagonal'
loop_
_space_group_symop_operation_xyz
x,y,z
x-y,x,z
-y,x-y,z
-x,-y,z
-x+y,-x,z
y,-x+y,z
-x,-y,-z
-x+y,-x,-z
y,-x+y,-z
x,y,-z
x-y,x,-z
-y,x-y,-z
loop_
_atom_site_type_symbol
_atom_site_label
_atom_site_fract_x
_atom_site_fract_y
_atom_site_fract_z
Si Si1 0.647306 0.191751 0.207016
Si Si2 0.164191 0.113157 0.000000
Si Si3 0.392467 0.318201 0.713690
Si Si4 0.718515 0.842889 0.285320
Si Si5 0.077539 0.717794 0.290748
Si Si6 0.515203 0.202077 0.216587
O O1 0.647886 0.119192 0.216965
O O2 0.577487 0.188669 0.279914
O O3 0.721547 0.252536 0.282032
O O4 0.648692 0.210641 0.000000
O O5 0.103240 0.132617 0.000000
O O6 0.214480 0.144359 0.826990
O O7 0.399237 0.326186 0.500000
O O8 0.346895 0.234951 0.751808
O O9 0.345553 0.350756 0.783061
O O10 0.730528 0.847930 0.500000
O O11 0.693758 0.897641 0.223514
O O12 0.064258 0.721410 0.500000
O O13 0.141151 0.702442 0.273318
O O14 0.513200 0.201561 0.000000
#
# Coordination Sequence:
#
# PCOD9581565 Si02
#       6
#    12   6  12  12  12  12
#     4  10  21  37  57  82 115 156 201 249 304 368
#     4  12  27  44  68 100 134 174 218 266 322 392
#     4  10  21  37  59  87 118 152 196 254 312 369
#     4  10  22  43  67  95 130 168 214 266 323 385
#     4  10  21  37  59  87 118 152 196 254 312 369
#     4  10  21  37  57  82 115 156 201 249 304 368
#
# _framework density 21.09956
#
# number of rings (size 3 to 8) (size 9 to 14) (size 15 to 20)
#    0.000    1.818    1.818    1.545    2.545    5.818 
#    0.000    3.636    0.000    3.273    0.000    0.000 
#    0.000    0.000    0.000    0.000    0.000    0.000 
#
# Total GULP energy -368816.183877 kJ/mol
# GULP energy per Si atom -5588.123998 kJ/mol
# Density = 2.105154 g / cm^3
# Si number density = 21.099560 Si / 1000 Ang^3
#
#
#
# Elastic Constant Matrix: (Units=GPa)
#
#
# Indices 1 2 3 4 5 6 
#
# 1 70.9387 1.3325 -3.6109 0.0000 0.0000 0.0000
# 2 1.3325 70.9387 -3.6109 0.0000 0.0000 0.0000
# 3 -3.6109 -3.6109 53.6136 0.0000 0.0000 0.0000
# 4 0.0000 0.0000 0.0000 23.5730 0.0000 0.0000
# 5 0.0000 0.0000 0.0000 0.0000 23.5730 0.0000
# 6 0.0000 0.0000 0.0000 0.0000 0.0000 34.8031
#
#
#
# Elastic Compliance Matrix: (Units=1/GPa)
#
#
# Indices 1 2 3 4 5 6 
#
# 1 0.014149 -0.000218 0.000938 0.000000 0.000000 0.000000
# 2 -0.000218 0.014149 0.000938 0.000000 0.000000 0.000000
# 3 0.000938 0.000938 0.018778 0.000000 0.000000 0.000000
# 4 0.000000 0.000000 0.000000 0.042421 0.000000 0.000000
# 5 0.000000 0.000000 0.000000 0.000000 0.042421 0.000000
# 6 0.000000 0.000000 0.000000 0.000000 0.000000 0.028733
#
#
# Mechanical properties :
#
#
# Convention : Reuss Voigt Hill
#
# Bulk Modulus (GPa) = 19.84430 20.41249 20.12839
# Shear Modulus (GPa) = 28.71385 29.81516 29.26451
#
# Velocity S-wave (km/s) = 3.69301 3.76316 3.72825
# Velocity P-wave (km/s) = 5.25451 5.34577 5.30033
#
# Compressibility (1/GPa) = 0.05039231
#
# Stress axis : x y z
#
# Youngs Moduli (GPa) = 70.67871 70.67871 53.25279
#
# Poissons Ratio (x) = 0.01541 -0.04996
# Poissons Ratio (y) = 0.01541 -0.04996
# Poissons Ratio (z) = -0.06631 -0.06631
#
# Static dielectric constant tensor:
#      x y z
#    x 1.738170 0.000000 0.000000 
#    y 0.000000 1.738170 0.000000 
#    z 0.000000 0.000000 1.802940 
# 
# From -- ./inp_files/1011.got.cif
#   From: 2010.05.17/outbox.cif.g08.bks.cpg/sg175_1_cif.got.tgz:1011.got - 2010.05.20 11:23:22.
