data_PCOD9581646
_publ_section_title
;
Structure prediction by ZEFSAII (Michael W. Deem and Ramdas Pophale) SiO2 
 PCOD9581646
Probable space group: P 6/M
;
_chemical_formula_sum "Si O2"
_cell_formula_units_Z 46
_cell_length_a 17.806175
_cell_length_b 17.806175
_cell_length_c 8.050632
_cell_angle_alpha 90.000000
_cell_angle_beta 90.000000
_cell_angle_gamma 120.000000
_cell_volume 2210.557833
_symmetry_space_group_name_H-M "P 6/M"
_symmetry_group_IT_number 175
_symmetry_cell_setting 'hexagonal'
loop_
_space_group_symop_operation_xyz
x,y,z
x-y,x,z
-y,x-y,z
-x,-y,z
-x+y,-x,z
y,-x+y,z
-x,-y,-z
-x+y,-x,-z
y,-x+y,-z
x,y,-z
x-y,x,-z
-y,x-y,-z
loop_
_atom_site_type_symbol
_atom_site_label
_atom_site_fract_x
_atom_site_fract_y
_atom_site_fract_z
Si Si1 0.333335 0.666668 0.697298
Si Si2 0.244485 0.320127 0.686412
Si Si3 0.549426 0.599049 0.304192
Si Si4 0.752279 0.227905 0.190014
Si Si5 0.197052 0.044632 0.000000
O O1 0.333334 0.666668 0.500000
O O2 0.266735 0.696263 0.760129
O O3 0.220914 0.282383 0.500000
O O4 0.347564 0.360965 0.708441
O O5 0.225632 0.399414 0.701746
O O6 0.195941 0.253730 0.834719
O O7 0.500000 0.500000 0.243974
O O8 0.527203 0.597655 0.500000
O O9 0.524469 0.662753 0.212730
O O10 0.781423 0.238724 0.000000
O O11 0.167926 0.116157 0.000000
#
# Coordination Sequence:
#
# PCOD9581646 Si02
#       5
#     4  12  12  12   6
#     4  12  25  41  61  90 139 191 232 277 326 385
#     4  11  24  44  71 101 136 178 226 279 337 404
#     4  10  22  40  64  94 132 180 227 274 331 392
#     4  12  24  40  64  95 132 173 225 277 331 393
#     4  12  27  48  73 102 134 170 218 278 350 420
#
# _framework density 20.809228000000001
#
# number of rings (size 3 to 8) (size 9 to 14) (size 15 to 20)
#    0.000    0.783    1.304    6.391    1.826    5.739 
#    0.000    0.000    0.000    1.565    0.000    0.000 
#    0.000    0.000    0.000    0.000    0.000    0.000 
#
# Total GULP energy -257572.718407 kJ/mol
# GULP energy per Si atom -5599.406922 kJ/mol
# Density = 2.076187 g / cm^3
# Si number density = 20.809228 Si / 1000 Ang^3
#
#
#
# Elastic Constant Matrix: (Units=GPa)
#
#
# Indices 1 2 3 4 5 6 
#
# 1 88.6449 24.7242 47.8508 0.0000 0.0000 0.0011
# 2 24.7242 88.6419 47.8505 0.0000 0.0000 -0.0012
# 3 47.8508 47.8505 133.9948 0.0000 0.0000 0.0007
# 4 0.0000 0.0000 0.0000 42.9864 -0.0008 0.0000
# 5 0.0000 0.0000 0.0000 -0.0008 42.9873 0.0000
# 6 0.0011 -0.0012 0.0007 0.0000 0.0000 31.9551
#
#
#
# Elastic Compliance Matrix: (Units=1/GPa)
#
#
# Indices 1 2 3 4 5 6 
#
# 1 0.014136 -0.001509 -0.004509 0.000000 0.000000 0.000000
# 2 -0.001509 0.014136 -0.004509 0.000000 0.000000 0.000001
# 3 -0.004509 -0.004509 0.010684 0.000000 0.000000 0.000000
# 4 0.000000 0.000000 0.000000 0.023263 0.000000 0.000000
# 5 0.000000 0.000000 0.000000 0.000000 0.023263 0.000000
# 6 0.000000 0.000001 0.000000 0.000000 0.000000 0.031294
#
#
# Mechanical properties :
#
#
# Convention : Reuss Voigt Hill
#
# Bulk Modulus (GPa) = 55.86231 61.34807 58.60519
# Shear Modulus (GPa) = 34.77109 36.30950 35.54029
#
# Velocity S-wave (km/s) = 4.09215 4.18170 4.13717
# Velocity P-wave (km/s) = 7.01647 7.27054 7.14463
#
# Compressibility (1/GPa) = 0.01790116
#
# Stress axis : x y z
#
# Youngs Moduli (GPa) = 70.74196 70.73918 93.60078
#
# Poissons Ratio (x) = 0.10672 0.42208
# Poissons Ratio (y) = 0.10672 0.42209
# Poissons Ratio (z) = 0.31900 0.31900
#
# Static dielectric constant tensor:
#      x y z
#    x 1.739580 0.000010 0.000000 
#    y 0.000010 1.739590 0.000000 
#    z 0.000000 0.000000 1.742210 
# 
# From -- ./inp_files/595.got.cif
#   From: 2010.05.17/outbox.cif.g08.bks.cpg/sg175_1_cif.got.tgz:595.got - 2010.05.20 11:23:22.
