data_PCOD9581272
_publ_section_title
;
Structure prediction by ZEFSAII (Michael W. Deem and Ramdas Pophale) SiO2 
 PCOD9581272
Probable space group: P 6/M
;
_chemical_formula_sum "Si O2"
_cell_formula_units_Z 84
_cell_length_a 14.156001
_cell_length_b 14.156001
_cell_length_c 24.841933
_cell_angle_alpha 90.000000
_cell_angle_beta 90.000000
_cell_angle_gamma 120.000000
_cell_volume 4311.190237
_symmetry_space_group_name_H-M "P 6/M"
_symmetry_group_IT_number 175
_symmetry_cell_setting 'hexagonal'
loop_
_space_group_symop_operation_xyz
x,y,z
x-y,x,z
-y,x-y,z
-x,-y,z
-x+y,-x,z
y,-x+y,z
-x,-y,-z
-x+y,-x,-z
y,-x+y,-z
x,y,-z
x-y,x,-z
-y,x-y,-z
loop_
_atom_site_type_symbol
_atom_site_label
_atom_site_fract_x
_atom_site_fract_y
_atom_site_fract_z
Si Si1 0.480977 0.145463 0.438821
Si Si2 0.331342 0.256345 0.560206
Si Si3 0.145945 0.880927 0.821921
Si Si4 0.126844 0.587815 0.675617
Si Si5 0.431649 0.246710 0.725518
Si Si6 0.259641 0.142551 0.057622
Si Si7 0.812620 0.042053 0.668677
O O1 0.527506 0.163194 0.500000
O O2 0.420657 0.217534 0.433060
O O3 0.556456 0.166305 0.386875
O O4 0.384098 0.017757 0.435233
O O5 0.288542 0.224108 0.500000
O O6 0.239720 0.196581 0.604811
O O7 0.204881 0.837608 0.781357
O O8 0.171175 0.859521 0.883222
O O9 0.012976 0.815425 0.815206
O O10 0.185732 0.543991 0.716006
O O11 0.154468 0.704766 0.698396
O O12 0.000000 0.500000 0.676139
O O13 0.349397 0.266794 0.689095
O O14 0.178259 0.190312 0.057149
O O15 0.321951 0.176776 0.000000
O O16 0.928873 0.135200 0.688361
#
# Coordination Sequence:
#
# PCOD9581272 Si02
#       7
#    12  12  12  12  12  12  12
#     4  10  21  38  61  84 108 138 175 224 286 346
#     4  10  18  32  56  82 108 139 170 211 266 329
#     4  10  19  33  56  88 127 164 195 228 270 329
#     4  12  25  42  62  81 104 140 180 233 292 343
#     4  12  25  42  58  80 108 142 191 239 286 339
#     4   8  13  22  41  75 120 166 202 227 257 307
#     4  12  22  36  56  84 115 146 173 208 259 333
#
# _framework density 19.484178
#
# number of rings (size 3 to 8) (size 9 to 14) (size 15 to 20)
#    0.000    1.429    2.857    4.143    0.000    2.000 
#    0.000    2.857    0.000    0.857    0.000    1.000 
#    0.000    5.714    0.000    0.000    0.000    0.000 
#
# Total GULP energy -468488.696261 kJ/mol
# GULP energy per Si atom -5577.246384 kJ/mol
# Density = 1.943983 g / cm^3
# Si number density = 19.484178 Si / 1000 Ang^3
#
#
#
# Elastic Constant Matrix: (Units=GPa)
#
#
# Indices 1 2 3 4 5 6 
#
# 1 70.2157 18.8715 35.0943 0.0000 0.0000 0.0000
# 2 18.8715 70.2157 35.0943 0.0000 0.0000 0.0000
# 3 35.0943 35.0943 169.7565 0.0000 0.0000 0.0000
# 4 0.0000 0.0000 0.0000 19.6470 0.0000 0.0000
# 5 0.0000 0.0000 0.0000 0.0000 19.6470 0.0000
# 6 0.0000 0.0000 0.0000 0.0000 0.0000 25.6721
#
#
#
# Elastic Compliance Matrix: (Units=1/GPa)
#
#
# Indices 1 2 3 4 5 6 
#
# 1 0.016443 -0.003034 -0.002772 0.000000 0.000000 0.000000
# 2 -0.003034 0.016443 -0.002772 0.000000 0.000000 0.000000
# 3 -0.002772 -0.002772 0.007037 0.000000 0.000000 0.000000
# 4 0.000000 0.000000 0.000000 0.050898 0.000000 0.000000
# 5 0.000000 0.000000 0.000000 0.000000 0.050898 0.000000
# 6 0.000000 0.000000 0.000000 0.000000 0.000000 0.038953
#
#
# Mechanical properties :
#
#
# Convention : Reuss Voigt Hill
#
# Bulk Modulus (GPa) = 43.92402 54.25646 49.09024
# Shear Modulus (GPa) = 24.34078 27.73505 26.03792
#
# Velocity S-wave (km/s) = 3.53832 3.77698 3.65959
# Velocity P-wave (km/s) = 6.26780 6.85037 6.56555
#
# Compressibility (1/GPa) = 0.02276659
#
# Stress axis : x y z
#
# Youngs Moduli (GPa) = 60.81724 60.81724 142.10689
#
# Poissons Ratio (x) = 0.18450 0.39393
# Poissons Ratio (y) = 0.18450 0.39393
# Poissons Ratio (z) = 0.16859 0.16859
#
# Static dielectric constant tensor:
#      x y z
#    x 1.702840 0.000000 0.000000 
#    y 0.000000 1.702840 0.000000 
#    z 0.000000 0.000000 1.743590 
# 
# From -- ./inp_files/3258.got.cif
#   From: 2010.05.17/outbox.cif.g08.bks.cpg/sg175_2_cif.got.tgz:3258.got - 2010.05.20 11:23:22.
