data_PCOD9581414
_publ_section_title
;
Structure prediction by ZEFSAII (Michael W. Deem and Ramdas Pophale) SiO2 
 PCOD9581414
Probable space group: P 6/M
;
_chemical_formula_sum "Si O2"
_cell_formula_units_Z 42
_cell_length_a 17.168842
_cell_length_b 17.168842
_cell_length_c 8.795372
_cell_angle_alpha 90.000000
_cell_angle_beta 90.000000
_cell_angle_gamma 120.000000
_cell_volume 2245.261101
_symmetry_space_group_name_H-M "P 6/M"
_symmetry_group_IT_number 175
_symmetry_cell_setting 'hexagonal'
loop_
_space_group_symop_operation_xyz
x,y,z
x-y,x,z
-y,x-y,z
-x,-y,z
-x+y,-x,z
y,-x+y,z
-x,-y,-z
-x+y,-x,-z
y,-x+y,-z
x,y,-z
x-y,x,-z
-y,x-y,-z
loop_
_atom_site_type_symbol
_atom_site_label
_atom_site_fract_x
_atom_site_fract_y
_atom_site_fract_z
Si Si1 0.320927 0.982368 0.172734
Si Si2 0.977408 0.173034 0.000000
Si Si3 0.514375 0.147543 0.818414
Si Si4 0.484682 0.300845 0.678523
O O1 0.419806 0.059012 0.219907
O O2 0.256335 0.024006 0.142890
O O3 0.282457 0.896736 0.279589
O O4 0.327869 0.951444 0.000000
O O5 0.073077 0.177982 0.000000
O O6 0.506866 0.233371 0.768618
O O7 0.598149 0.151010 0.733952
O O8 0.526305 0.148201 0.000000
O O9 0.494591 0.291932 0.500000
#
# Coordination Sequence:
#
# PCOD9581414 Si02
#       4
#    12   6  12  12
#     4   9  21  38  61  82 113 154 198 247 294 359
#     4  10  19  36  63  94 120 144 188 242 295 348
#     4  11  22  39  60  83 114 164 208 251 296 353
#     4  12  24  37  56  86 124 158 203 253 304 356
#
# _framework density 18.706066
#
# number of rings (size 3 to 8) (size 9 to 14) (size 15 to 20)
#    0.857    0.571    0.000    6.714    0.000    5.714 
#    0.000    0.000    0.000    0.000    0.000    0.000 
#    0.000    4.571    0.000    0.000    0.000    0.000 
#
# Total GULP energy -234479.874067 kJ/mol
# GULP energy per Si atom -5582.854144 kJ/mol
# Density = 1.866349 g / cm^3
# Si number density = 18.706066 Si / 1000 Ang^3
#
#
#
# Elastic Constant Matrix: (Units=GPa)
#
#
# Indices 1 2 3 4 5 6 
#
# 1 -141.7418 184.8212 -5.0487 0.0000 0.0000 0.0000
# 2 184.8212 -141.7418 -5.0487 0.0000 0.0000 0.0000
# 3 -5.0487 -5.0487 24.9663 0.0000 0.0000 0.0000
# 4 0.0000 0.0000 0.0000 1.1299 0.0000 0.0000
# 5 0.0000 0.0000 0.0000 0.0000 1.1299 0.0000
# 6 0.0000 0.0000 0.0000 0.0000 0.0000 -163.2815
#
#
#
# Elastic Compliance Matrix: (Units=1/GPa)
#
#
# Indices 1 2 3 4 5 6 
#
# 1 0.010653 0.013715 0.004928 0.000000 0.000000 0.000000
# 2 0.013715 0.010653 0.004928 0.000000 0.000000 0.000000
# 3 0.004928 0.004928 0.042047 0.000000 0.000000 0.000000
# 4 0.000000 0.000000 0.000000 0.885035 0.000000 0.000000
# 5 0.000000 0.000000 0.000000 0.000000 0.885035 0.000000
# 6 0.000000 0.000000 0.000000 0.000000 0.000000 -0.006124
#
#
# Mechanical properties :
#
#
# Convention : Reuss Voigt Hill
#
# Bulk Modulus (GPa) = 9.05032 10.10339 9.57686
# Shear Modulus (GPa) = 2.75181 -61.08709 -29.16764
#
# Velocity S-wave (km/s) = 1.21420 -5.72077 -3.95303
# Velocity P-wave (km/s) = 2.61044 6.18251 3.96289
#
# Compressibility (1/GPa) = 0.11049331
#
# Stress axis : x y z
#
# Youngs Moduli (GPa) = 93.87149 93.87149 23.78300
#
# Poissons Ratio (x) = -1.28745 -0.11719
# Poissons Ratio (y) = -1.28745 -0.11719
# Poissons Ratio (z) = -0.46257 -0.46257
#
# Static dielectric constant tensor:
#      x y z
#    x 1.646280 0.000000 0.000000 
#    y 0.000000 1.646280 0.000000 
#    z 0.000000 0.000000 1.630690 
# 
# From -- ./inp_files/453.got.cif
#   From: 2010.05.17/outbox.cif.g08.bks.cpg/sg175_1_cif.got.tgz:453.got - 2010.05.20 11:23:22.
