data_PCOD9581378
_publ_section_title
;
Structure prediction by ZEFSAII (Michael W. Deem and Ramdas Pophale) SiO2 
 PCOD9581378
Probable space group: P 6/M
;
_chemical_formula_sum "Si O2"
_cell_formula_units_Z 64
_cell_length_a 14.261004
_cell_length_b 14.261004
_cell_length_c 14.722933
_cell_angle_alpha 90.000000
_cell_angle_beta 90.000000
_cell_angle_gamma 120.000000
_cell_volume 2593.135262
_symmetry_space_group_name_H-M "P 6/M"
_symmetry_group_IT_number 175
_symmetry_cell_setting 'hexagonal'
loop_
_space_group_symop_operation_xyz
x,y,z
x-y,x,z
-y,x-y,z
-x,-y,z
-x+y,-x,z
y,-x+y,z
-x,-y,-z
-x+y,-x,-z
y,-x+y,-z
x,y,-z
x-y,x,-z
-y,x-y,-z
loop_
_atom_site_type_symbol
_atom_site_label
_atom_site_fract_x
_atom_site_fract_y
_atom_site_fract_z
Si Si1 0.784015 0.796780 0.354528
Si Si2 0.905374 0.382593 0.108981
Si Si3 0.894420 0.394533 0.389980
Si Si4 0.802608 0.771144 0.140118
Si Si5 0.333334 0.666668 0.888152
Si Si6 0.444094 0.270385 0.392171
O O1 0.883928 0.788918 0.393354
O O2 0.793849 0.987595 0.247890
O O3 0.656736 0.714045 0.367344
O O4 0.940217 0.292364 0.125789
O O5 0.784511 0.351687 0.141239
O O6 0.000000 0.500000 0.142545
O O7 0.901153 0.391311 0.000000
O O8 0.909900 0.389727 0.500000
O O9 0.836821 0.273987 0.350776
O O10 0.811876 0.439478 0.375563
O O11 0.000000 0.500000 0.354534
O O12 0.782334 0.867137 0.105167
O O13 0.333334 0.666668 0.000000
O O14 0.436548 0.257449 0.500000
#
# Coordination Sequence:
#
# PCOD9581378 Si02
#       6
#    12  12  12  12   4  12
#     4  10  21  37  55  76 105 143 184 228 281 339
#     4  10  20  36  61  92 125 160 197 237 285 345
#     4   9  17  29  47  72 100 130 166 213 270 329
#     4  10  21  38  58  81 112 153 199 245 296 352
#     4   9  18  33  57  93 132 168 202 239 289 342
#     4  10  19  33  54  79 106 138 179 226 279 341
#
# _framework density 24.680547000000001
#
# number of rings (size 3 to 8) (size 9 to 14) (size 15 to 20)
#    0.000    2.250    0.000    3.000    0.000    7.500 
#    0.000    4.688    0.000    4.500    0.000    0.000 
#    0.000    0.000    0.000    0.000    0.000    0.000 
#
# Total GULP energy -357008.071762 kJ/mol
# GULP energy per Si atom -5578.251121 kJ/mol
# Density = 2.462437 g / cm^3
# Si number density = 24.680547 Si / 1000 Ang^3
#
#
#
# Elastic Constant Matrix: (Units=GPa)
#
#
# Indices 1 2 3 4 5 6 
#
# 1 137.0865 120.6462 3.2130 0.0000 0.0000 -0.0005
# 2 120.6462 137.0867 3.2128 0.0000 0.0000 0.0005
# 3 3.2130 3.2128 68.0725 0.0000 0.0000 0.0003
# 4 0.0000 0.0000 0.0000 25.9053 0.0001 0.0000
# 5 0.0000 0.0000 0.0000 0.0001 25.9043 0.0000
# 6 -0.0005 0.0005 0.0003 0.0000 0.0000 8.2205
#
#
#
# Elastic Compliance Matrix: (Units=1/GPa)
#
#
# Indices 1 2 3 4 5 6 
#
# 1 0.032355 -0.028471 -0.000183 0.000000 0.000000 0.000003
# 2 -0.028471 0.032355 -0.000183 0.000000 0.000000 -0.000003
# 3 -0.000183 -0.000183 0.014708 0.000000 0.000000 -0.000001
# 4 0.000000 0.000000 0.000000 0.038602 0.000000 0.000000
# 5 0.000000 0.000000 0.000000 0.000000 0.038604 0.000000
# 6 0.000003 -0.000003 -0.000001 0.000000 0.000000 0.121648
#
#
# Mechanical properties :
#
#
# Convention : Reuss Voigt Hill
#
# Bulk Modulus (GPa) = 45.99125 66.26552 56.12838
# Shear Modulus (GPa) = 14.56905 26.35094 20.45999
#
# Velocity S-wave (km/s) = 2.43225 3.27108 2.88235
# Velocity P-wave (km/s) = 5.15392 6.41671 5.81967
#
# Compressibility (1/GPa) = 0.02174327
#
# Stress axis : x y z
#
# Youngs Moduli (GPa) = 30.90696 30.90702 67.99241
#
# Poissons Ratio (x) = 0.87994 0.01247
# Poissons Ratio (y) = 0.87994 0.01246
# Poissons Ratio (z) = 0.00567 0.00566
#
# Static dielectric constant tensor:
#      x y z
#    x 2.108980 0.000000 0.000000 
#    y 0.000000 2.108980 0.000000 
#    z 0.000000 0.000000 1.949160 
# 
# From -- ./inp_files/2829.got.cif
#   From: 2010.05.17/outbox.cif.g08.bks.cpg/sg175_2_cif.got.tgz:2829.got - 2010.05.20 11:23:22.
