data_PCOD9581314
_publ_section_title
;
Structure prediction by ZEFSAII (Michael W. Deem and Ramdas Pophale) SiO2 
 PCOD9581314
Probable space group: P 6/M
;
_chemical_formula_sum "Si O2"
_cell_formula_units_Z 82
_cell_length_a 21.998835
_cell_length_b 21.998835
_cell_length_c 10.640320
_cell_angle_alpha 90.000000
_cell_angle_beta 90.000000
_cell_angle_gamma 120.000000
_cell_volume 4459.484776
_symmetry_space_group_name_H-M "P 6/M"
_symmetry_group_IT_number 175
_symmetry_cell_setting 'hexagonal'
loop_
_space_group_symop_operation_xyz
x,y,z
x-y,x,z
-y,x-y,z
-x,-y,z
-x+y,-x,z
y,-x+y,z
-x,-y,-z
-x+y,-x,-z
y,-x+y,-z
x,y,-z
x-y,x,-z
-y,x-y,-z
loop_
_atom_site_type_symbol
_atom_site_label
_atom_site_fract_x
_atom_site_fract_y
_atom_site_fract_z
Si Si1 0.441477 0.923531 0.151875
Si Si2 0.841820 0.211893 0.145991
Si Si3 0.857334 0.874995 0.147150
Si Si4 0.844920 0.990484 0.500000
Si Si5 0.744465 0.979411 0.732270
Si Si6 0.373417 0.304769 0.146024
Si Si7 0.333334 0.666668 0.846828
Si Si8 0.803308 0.329600 0.153046
O O1 0.365821 0.914136 0.177213
O O2 0.454090 0.861364 0.196048
O O3 0.500000 0.000000 0.197741
O O4 0.447856 0.923657 0.000000
O O5 0.899151 0.206517 0.230407
O O6 0.768687 0.140223 0.147852
O O7 0.826455 0.273252 0.188652
O O8 0.867028 0.225374 0.000000
O O9 0.862783 0.944590 0.201860
O O10 0.785373 0.804182 0.162111
O O11 0.868964 0.887929 0.000000
O O12 0.855246 0.920745 0.500000
O O13 0.794691 0.988216 0.615281
O O14 0.698343 0.016764 0.750620
O O15 0.358533 0.317798 0.000000
O O16 0.273389 0.684678 0.807329
O O17 0.333334 0.666668 0.000000
O O18 0.801913 0.328195 0.000000
#
# Coordination Sequence:
#
# PCOD9581314 Si02
#       8
#    12  12  12   6  12  12   4  12
#     4   9  16  26  41  65 100 141 179 209 242 289
#     4  10  19  31  49  75 106 137 169 205 248 300
#     4  10  19  31  48  70  95 121 149 184 229 283
#     4  12  27  46  64  78  95 124 166 214 260 308
#     4  12  23  36  53  73  97 126 161 203 252 307
#     4  10  19  31  49  75 106 137 169 206 249 299
#     4   9  15  24  39  63 102 148 185 214 246 291
#     4   9  16  26  42  68 105 147 183 212 246 293
#
# _framework density 18.387775999999999
#
# number of rings (size 3 to 8) (size 9 to 14) (size 15 to 20)
#    0.000    1.902    0.000    5.927    0.000    8.780 
#    0.000    1.463    0.000    0.000    0.000    4.610 
#    0.000    1.171    0.000    0.220    0.000    0.000 
#
# Total GULP energy -456792.779322 kJ/mol
# GULP energy per Si atom -5570.643650 kJ/mol
# Density = 1.834592 g / cm^3
# Si number density = 18.387776 Si / 1000 Ang^3
#
#
#
# Elastic Constant Matrix: (Units=GPa)
#
#
# Indices 1 2 3 4 5 6 
#
# 1 104.0123 29.2062 24.0688 0.0000 0.0000 -0.0001
# 2 29.2062 104.0097 24.0687 0.0000 0.0000 0.0005
# 3 24.0688 24.0687 46.3465 0.0000 0.0000 0.0000
# 4 0.0000 0.0000 0.0000 8.6105 -0.0001 0.0000
# 5 0.0000 0.0000 0.0000 -0.0001 8.6106 0.0000
# 6 -0.0001 0.0005 0.0000 0.0000 0.0000 37.4025
#
#
#
# Elastic Compliance Matrix: (Units=1/GPa)
#
#
# Indices 1 2 3 4 5 6 
#
# 1 0.011304 -0.002064 -0.004799 0.000000 0.000000 0.000000
# 2 -0.002064 0.011305 -0.004799 0.000000 0.000000 0.000000
# 3 -0.004799 -0.004799 0.026561 0.000000 0.000000 0.000000
# 4 0.000000 0.000000 0.000000 0.116138 0.000001 0.000000
# 5 0.000000 0.000000 0.000000 0.000001 0.116136 0.000000
# 6 0.000000 0.000000 0.000000 0.000000 0.000000 0.026736
#
#
# Mechanical properties :
#
#
# Convention : Reuss Voigt Hill
#
# Bulk Modulus (GPa) = 38.68966 45.45064 42.07015
# Shear Modulus (GPa) = 14.70076 22.72636 18.71356
#
# Velocity S-wave (km/s) = 2.83059 3.51942 3.19363
# Velocity P-wave (km/s) = 5.63645 6.42547 6.04385
#
# Compressibility (1/GPa) = 0.02584670
#
# Stress axis : x y z
#
# Youngs Moduli (GPa) = 88.46279 88.46028 37.64940
#
# Poissons Ratio (x) = 0.18256 0.18067
# Poissons Ratio (y) = 0.18257 0.18068
# Poissons Ratio (z) = 0.42451 0.42451
#
# Static dielectric constant tensor:
#      x y z
#    x 1.655530 0.000000 0.000000 
#    y 0.000000 1.655530 0.000000 
#    z 0.000000 0.000000 1.662880 
# 
# From -- ./inp_files/2028.got.cif
#   From: 2010.05.17/outbox.cif.g08.bks.cpg/sg175_2_cif.got.tgz:2028.got - 2010.05.20 11:23:22.
