data_PCOD9581665
_publ_section_title
;
Structure prediction by ZEFSAII (Michael W. Deem and Ramdas Pophale) SiO2 
 PCOD9581665
Probable space group: P 6/M
;
_chemical_formula_sum "Si O2"
_cell_formula_units_Z 84
_cell_length_a 17.878850
_cell_length_b 17.878850
_cell_length_c 14.351161
_cell_angle_alpha 90.000000
_cell_angle_beta 90.000000
_cell_angle_gamma 120.000000
_cell_volume 3972.801168
_symmetry_space_group_name_H-M "P 6/M"
_symmetry_group_IT_number 175
_symmetry_cell_setting 'hexagonal'
loop_
_space_group_symop_operation_xyz
x,y,z
x-y,x,z
-y,x-y,z
-x,-y,z
-x+y,-x,z
y,-x+y,z
-x,-y,-z
-x+y,-x,-z
y,-x+y,-z
x,y,-z
x-y,x,-z
-y,x-y,-z
loop_
_atom_site_type_symbol
_atom_site_label
_atom_site_fract_x
_atom_site_fract_y
_atom_site_fract_z
Si Si1 0.662568 0.233906 0.712265
Si Si2 0.400061 0.944821 0.611857
Si Si3 0.108576 0.206880 0.000000
Si Si4 0.939760 0.361084 0.107008
Si Si5 0.309098 0.123773 0.809129
Si Si6 0.848083 0.043236 0.500000
Si Si7 0.287299 0.250488 0.686264
Si Si8 0.625104 0.129075 0.106768
O O1 0.745010 0.329275 0.698723
O O2 0.643589 0.154316 0.646065
O O3 0.666390 0.202620 0.816521
O O4 0.397016 0.947491 0.500000
O O5 0.345410 0.984775 0.655874
O O6 0.500000 0.000000 0.642461
O O7 0.151412 0.146294 0.000000
O O8 0.140259 0.263890 0.905989
O O9 0.885571 0.276893 0.167096
O O10 0.903264 0.426252 0.109529
O O11 0.041835 0.414531 0.130516
O O12 0.935786 0.333157 0.000000
O O13 0.327769 0.205028 0.747925
O O14 0.250375 0.038587 0.747210
O O15 0.803130 0.053098 0.592022
O O16 0.947849 0.113740 0.500000
O O17 0.655950 0.154709 0.000000
#
# Coordination Sequence:
#
# PCOD9581665 Si02
#       8
#    12  12   6  12  12   6  12  12
#     4  10  25  42  63  99 138 179 232 277 354 434
#     4  11  27  50  75 104 136 181 238 300 374 433
#     4  12  25  46  66 101 145 193 243 291 345 448
#     4   9  19  36  63  95 135 184 231 285 343 405
#     4  12  24  40  68 102 148 184 238 292 357 413
#     4  12  25  50  73 110 144 182 238 296 364 438
#     4  12  26  43  73 106 142 187 239 304 352 434
#     4   9  19  38  62  95 137 184 235 282 338 415
#
# _framework density 21.143771999999998
#
# number of rings (size 3 to 8) (size 9 to 14) (size 15 to 20)
#    0.286    1.000    4.286    1.857    6.000    1.143 
#    0.000    1.429    0.000    0.000    0.000    0.000 
#    0.000    0.000    0.000    0.000    0.000    0.000 
#
# Total GULP energy -469783.318567 kJ/mol
# GULP energy per Si atom -5592.658554 kJ/mol
# Density = 2.109565 g / cm^3
# Si number density = 21.143772 Si / 1000 Ang^3
#
#
#
# Elastic Constant Matrix: (Units=GPa)
#
#
# Indices 1 2 3 4 5 6 
#
# 1 84.8499 17.4286 39.9382 0.0000 0.0000 0.0000
# 2 17.4286 84.8499 39.9382 0.0000 0.0000 0.0000
# 3 39.9382 39.9382 124.9649 0.0000 0.0000 0.0000
# 4 0.0000 0.0000 0.0000 29.6194 0.0000 0.0000
# 5 0.0000 0.0000 0.0000 0.0000 29.6194 0.0000
# 6 0.0000 0.0000 0.0000 0.0000 0.0000 33.7106
#
#
#
# Elastic Compliance Matrix: (Units=1/GPa)
#
#
# Indices 1 2 3 4 5 6 
#
# 1 0.013931 -0.000901 -0.004164 0.000000 0.000000 0.000000
# 2 -0.000901 0.013931 -0.004164 0.000000 0.000000 0.000000
# 3 -0.004164 -0.004164 0.010664 0.000000 0.000000 0.000000
# 4 0.000000 0.000000 0.000000 0.033762 0.000000 0.000000
# 5 0.000000 0.000000 0.000000 0.000000 0.033762 0.000000
# 6 0.000000 0.000000 0.000000 0.000000 0.000000 0.029664
#
#
# Mechanical properties :
#
#
# Convention : Reuss Voigt Hill
#
# Bulk Modulus (GPa) = 49.83542 54.36383 52.09962
# Shear Modulus (GPa) = 31.08278 31.74718 31.41498
#
# Velocity S-wave (km/s) = 3.83831 3.87911 3.85876
# Velocity P-wave (km/s) = 6.57757 6.76984 6.67439
#
# Compressibility (1/GPa) = 0.02006605
#
# Stress axis : x y z
#
# Youngs Moduli (GPa) = 71.78398 71.78398 93.77444
#
# Poissons Ratio (x) = 0.06471 0.39048
# Poissons Ratio (y) = 0.06471 0.39048
# Poissons Ratio (z) = 0.29891 0.29891
#
# Static dielectric constant tensor:
#      x y z
#    x 1.753040 0.000000 0.000000 
#    y 0.000000 1.753040 0.000000 
#    z 0.000000 0.000000 1.754090 
# 
# From -- ./inp_files/2644.got.cif
#   From: 2010.05.17/outbox.cif.g08.bks.cpg/sg175_2_cif.got.tgz:2644.got - 2010.05.20 11:23:22.
