data_PCOD9581775
_publ_section_title
;
Structure prediction by ZEFSAII (Michael W. Deem and Ramdas Pophale) SiO2 
 PCOD9581775
Probable space group: P 63/M
;
_chemical_formula_sum "Si O2"
_cell_formula_units_Z 54
_cell_length_a 11.981005
_cell_length_b 11.981005
_cell_length_c 22.098825
_cell_angle_alpha 90.000000
_cell_angle_beta 90.000000
_cell_angle_gamma 120.000000
_cell_volume 2747.174922
_symmetry_space_group_name_H-M "P 63/M"
_symmetry_group_IT_number 176
_symmetry_cell_setting 'hexagonal'
loop_
_space_group_symop_operation_xyz
x,y,z
x-y,x,1/2+z
-y,x-y,z
-x,-y,1/2+z
-x+y,-x,z
y,-x+y,1/2+z
-x,-y,-z
-x+y,-x,1/2-z
y,-x+y,-z
x,y,1/2-z
x-y,x,-z
-y,x-y,1/2-z
loop_
_atom_site_type_symbol
_atom_site_label
_atom_site_fract_x
_atom_site_fract_y
_atom_site_fract_z
Si Si1 0.710894 0.591968 0.377298
Si Si2 0.336383 0.519507 0.750000
Si Si3 0.019994 0.265732 0.018771
Si Si4 0.629046 0.457613 0.680023
Si Si5 0.940932 0.553984 0.086707
O O1 0.667066 0.558754 0.308572
O O2 0.720154 0.714003 0.411195
O O3 0.846018 0.596985 0.383507
O O4 0.600336 0.469236 0.413222
O O5 0.453168 0.668341 0.750000
O O6 0.142234 0.249769 0.006959
O O7 0.034073 0.385429 0.979736
O O8 0.534211 0.302487 0.673400
O O9 0.618896 0.492851 0.750000
O O10 0.602387 0.535476 0.628876
#
# Coordination Sequence:
#
# PCOD9581775 Si02
#       5
#    12   6  12  12  12
#     4  11  22  36  59  93 125 164 204 263 329 383
#     4  10  18  36  56  86 132 166 192 248 324 396
#     4  10  24  42  63  86 118 167 220 271 324 385
#     4   8  19  37  55  85 125 170 208 247 305 377
#     4  11  21  38  62  91 126 161 215 265 325 384
#
# _framework density 19.656556999999999
#
# number of rings (size 3 to 8) (size 9 to 14) (size 15 to 20)
#    0.667    1.333    2.222    1.333    6.222    0.000 
#    0.000    0.000    0.000    0.000    0.000    0.000 
#    0.000    0.000    0.000    0.000    0.000    0.000 
#
# Total GULP energy -301121.626286 kJ/mol
# GULP energy per Si atom -5576.326413 kJ/mol
# Density = 1.961182 g / cm^3
# Si number density = 19.656557 Si / 1000 Ang^3
#
#
#
# Elastic Constant Matrix: (Units=GPa)
#
#
# Indices 1 2 3 4 5 6 
#
# 1 57.1206 19.5814 28.1398 0.0000 0.0000 0.0000
# 2 19.5814 57.1206 28.1398 0.0000 0.0000 0.0000
# 3 28.1398 28.1398 90.9510 0.0000 0.0000 0.0000
# 4 0.0000 0.0000 0.0000 9.7115 0.0000 0.0000
# 5 0.0000 0.0000 0.0000 0.0000 9.7115 0.0000
# 6 0.0000 0.0000 0.0000 0.0000 0.0000 18.7696
#
#
#
# Elastic Compliance Matrix: (Units=1/GPa)
#
#
# Indices 1 2 3 4 5 6 
#
# 1 0.021753 -0.004886 -0.005218 0.000000 0.000000 0.000000
# 2 -0.004886 0.021753 -0.005218 0.000000 0.000000 0.000000
# 3 -0.005218 -0.005218 0.014224 0.000000 0.000000 0.000000
# 4 0.000000 0.000000 0.000000 0.102971 0.000000 0.000000
# 5 0.000000 0.000000 0.000000 0.000000 0.102971 0.000000
# 6 0.000000 0.000000 0.000000 0.000000 0.000000 0.053278
#
#
# Mechanical properties :
#
#
# Convention : Reuss Voigt Hill
#
# Bulk Modulus (GPa) = 36.92309 39.65712 38.29011
# Shear Modulus (GPa) = 14.02043 16.26059 15.14051
#
# Velocity S-wave (km/s) = 2.67361 2.87929 2.77835
# Velocity P-wave (km/s) = 5.32502 5.59219 5.46024
#
# Compressibility (1/GPa) = 0.02708332
#
# Stress axis : x y z
#
# Youngs Moduli (GPa) = 45.97146 45.97146 70.30362
#
# Poissons Ratio (x) = 0.22463 0.36687
# Poissons Ratio (y) = 0.22463 0.36687
# Poissons Ratio (z) = 0.23990 0.23990
#
# Static dielectric constant tensor:
#      x y z
#    x 1.699270 0.000000 0.000000 
#    y 0.000000 1.699270 0.000000 
#    z 0.000000 0.000000 1.716360 
# 
# From -- ./inp_files/4005.got.cif
#   From: 2010.05.17/outbox.cif.g08.bks.cpg/sg176_3_cif.got.tgz:4005.got - 2010.06.03 11:36:45.
