data_PCOD9581166
_publ_section_title
;
Structure prediction by ZEFSAII (Michael W. Deem and Ramdas Pophale) SiO2 
 PCOD9581166
Probable space group: P -6
;
_chemical_formula_sum "Si O2"
_cell_formula_units_Z 26
_cell_length_a 11.762698
_cell_length_b 11.762698
_cell_length_c 14.314172
_cell_angle_alpha 90.000000
_cell_angle_beta 90.000000
_cell_angle_gamma 120.000000
_cell_volume 1715.184159
_symmetry_space_group_name_H-M "P -6"
_symmetry_group_IT_number 174
_symmetry_cell_setting 'hexagonal'
loop_
_space_group_symop_operation_xyz
x,y,z
-x+y,-x,-z
-y,x-y,z
x,y,-z
-x+y,-x,z
-y,x-y,-z
loop_
_atom_site_type_symbol
_atom_site_label
_atom_site_fract_x
_atom_site_fract_y
_atom_site_fract_z
Si Si1 0.187091 0.374178 0.198613
Si Si2 0.931684 0.333483 0.888397
Si Si3 0.666526 0.068321 0.888397
Si Si4 0.246860 0.753136 0.605762
Si Si5 0.333334 0.666668 0.112232
O O1 0.271285 0.310231 0.163045
O O2 0.196968 0.393930 0.309771
O O3 0.259828 0.519645 0.151876
O O4 0.038951 0.310240 0.163045
O O5 0.785402 0.214604 0.871529
O O6 0.945172 0.472589 0.860575
O O7 0.956042 0.339927 0.000000
O O8 0.660083 0.043963 0.000000
O O9 0.192238 0.596117 0.615335
O O10 0.220986 0.779009 0.500000
O O11 0.333334 0.666668 0.000000
#
# Coordination Sequence:
#
# PCOD9581166 Si02
#       5
#     6   6   6   6   2
#     4  12  18  30  50  74  96 123 158 208 245 286
#     4  10  20  32  46  66  97 134 166 194 234 292
#     4  10  20  32  46  66  97 134 166 194 234 292
#     4   8  14  26  44  72 102 120 144 192 252 298
#     4  12  18  24  46  80 100 111 144 204 247 278
#
# _framework density 15.158721999999999
#
# number of rings (size 3 to 8) (size 9 to 14) (size 15 to 20)
#    0.462    1.385    4.615    2.538    0.000    1.846 
#    1.385    0.000    0.000    1.385    0.000    0.000 
#    0.000    3.692    0.000    0.000    0.000    0.000 
#
# Total GULP energy -144868.741281 kJ/mol
# GULP energy per Si atom -5571.874665 kJ/mol
# Density = 1.512422 g / cm^3
# Si number density = 15.158722 Si / 1000 Ang^3
#
#
#
# Elastic Constant Matrix: (Units=GPa)
#
#
# Indices 1 2 3 4 5 6 
#
# 1 56.9851 18.3874 25.8109 0.0000 0.0000 0.0000
# 2 18.3874 56.9848 25.8106 0.0000 0.0000 0.0000
# 3 25.8109 25.8106 78.2011 0.0000 0.0000 0.0000
# 4 0.0000 0.0000 0.0000 15.6928 0.0000 0.0000
# 5 0.0000 0.0000 0.0000 0.0000 15.6929 0.0000
# 6 0.0000 0.0000 0.0000 0.0000 0.0000 19.2988
#
#
#
# Elastic Compliance Matrix: (Units=1/GPa)
#
#
# Indices 1 2 3 4 5 6 
#
# 1 0.021525 -0.004383 -0.005658 0.000000 0.000000 0.000000
# 2 -0.004383 0.021526 -0.005658 0.000000 0.000000 0.000000
# 3 -0.005658 -0.005658 0.016522 0.000000 0.000000 0.000000
# 4 0.000000 0.000000 0.000000 0.063723 0.000000 0.000000
# 5 0.000000 0.000000 0.000000 0.000000 0.063723 0.000000
# 6 0.000000 0.000000 0.000000 0.000000 0.000000 0.051817
#
#
# Mechanical properties :
#
#
# Convention : Reuss Voigt Hill
#
# Bulk Modulus (GPa) = 35.49174 36.90985 36.20080
# Shear Modulus (GPa) = 17.88101 18.28105 18.08103
#
# Velocity S-wave (km/s) = 3.43824 3.47648 3.45741
# Velocity P-wave (km/s) = 6.26308 6.36525 6.31437
#
# Compressibility (1/GPa) = 0.02817557
#
# Stress axis : x y z
#
# Youngs Moduli (GPa) = 46.45669 46.45652 60.52372
#
# Poissons Ratio (x) = 0.20361 0.34244
# Poissons Ratio (y) = 0.20361 0.34244
# Poissons Ratio (z) = 0.26285 0.26285
#
# Static dielectric constant tensor:
#      x y z
#    x 1.504730 0.000000 0.000000 
#    y 0.000000 1.504730 0.000000 
#    z 0.000000 0.000000 1.492980 
# 
# From -- ./inp_files/846.got.cif
#   From: 2010.05.17/outbox.cif.g08.bks.cpg/sg174_cif.got.tgz:846.got - 2010.05.20 11:22:48.
