data_PCOD9581764
_publ_section_title
;
Structure prediction by ZEFSAII (Michael W. Deem and Ramdas Pophale) SiO2 
 PCOD9581764
Probable space group: P 63/M
;
_chemical_formula_sum "Si O2"
_cell_formula_units_Z 84
_cell_length_a 21.496660
_cell_length_b 21.496660
_cell_length_c 12.268897
_cell_angle_alpha 90.000000
_cell_angle_beta 90.000000
_cell_angle_gamma 120.000000
_cell_volume 4909.961958
_symmetry_space_group_name_H-M "P 63/M"
_symmetry_group_IT_number 176
_symmetry_cell_setting 'hexagonal'
loop_
_space_group_symop_operation_xyz
x,y,z
x-y,x,1/2+z
-y,x-y,z
-x,-y,1/2+z
-x+y,-x,z
y,-x+y,1/2+z
-x,-y,-z
-x+y,-x,1/2-z
y,-x+y,-z
x,y,1/2-z
x-y,x,-z
-y,x-y,1/2-z
loop_
_atom_site_type_symbol
_atom_site_label
_atom_site_fract_x
_atom_site_fract_y
_atom_site_fract_z
Si Si1 0.592956 0.671017 0.020956
Si Si2 0.312925 0.518290 0.046058
Si Si3 0.190848 0.547543 0.374659
Si Si4 0.945615 0.336850 0.874866
Si Si5 0.050211 0.258076 0.120789
Si Si6 0.089593 0.806582 0.012230
Si Si7 0.206081 0.416421 0.620834
O O1 0.521323 0.637043 0.092406
O O2 0.662186 0.725482 0.092471
O O3 0.609862 0.615600 0.959283
O O4 0.583699 0.720599 0.930299
O O5 0.251716 0.525533 0.110608
O O6 0.385494 0.593959 0.048297
O O7 0.329849 0.460936 0.102669
O O8 0.276581 0.484031 0.930471
O O9 0.190358 0.569137 0.250000
O O10 0.967029 0.356636 0.750000
O O11 0.936125 0.258836 0.902202
O O12 0.043091 0.246609 0.250000
O O13 0.118618 0.255591 0.073448
O O14 0.978766 0.203933 0.054763
O O15 0.142073 0.796707 0.928077
O O16 0.205412 0.416217 0.750000
#
# Coordination Sequence:
#
# PCOD9581764 Si02
#       7
#    12  12  12  12  12  12  12
#     4   9  20  31  51  78 101 131 171 202 254 318
#     4  10  22  34  52  76  98 129 176 209 249 304
#     4  11  20  35  53  74 100 131 168 214 252 290
#     4  10  18  33  51  74 103 131 160 208 259 304
#     4  10  18  33  51  76 109 138 167 214 257 300
#     4   9  19  30  52  80 102 132 175 205 249 310
#     4   9  17  34  52  73 103 134 163 208 254 301
#
# _framework density 17.108076000000001
#
# number of rings (size 3 to 8) (size 9 to 14) (size 15 to 20)
#    0.000    2.286    0.000    4.143    0.000    0.571 
#    0.000    6.429    0.000    0.286    0.000    0.000 
#    0.000    0.000    0.000    0.000    0.000    0.000 
#
# Total GULP energy -468591.778779 kJ/mol
# GULP energy per Si atom -5578.473557 kJ/mol
# Density = 1.706914 g / cm^3
# Si number density = 17.108076 Si / 1000 Ang^3
#
#
#
# Elastic Constant Matrix: (Units=GPa)
#
#
# Indices 1 2 3 4 5 6 
#
# 1 68.3958 28.0829 10.1880 0.0000 0.0000 0.0000
# 2 28.0829 68.3958 10.1880 0.0000 0.0000 0.0000
# 3 10.1880 10.1880 61.6255 0.0000 0.0000 0.0000
# 4 0.0000 0.0000 0.0000 12.9628 0.0000 0.0000
# 5 0.0000 0.0000 0.0000 0.0000 12.9628 0.0000
# 6 0.0000 0.0000 0.0000 0.0000 0.0000 20.1564
#
#
#
# Elastic Compliance Matrix: (Units=1/GPa)
#
#
# Indices 1 2 3 4 5 6 
#
# 1 0.017773 -0.007033 -0.001776 0.000000 0.000000 0.000000
# 2 -0.007033 0.017773 -0.001776 0.000000 0.000000 0.000000
# 3 -0.001776 -0.001776 0.016814 0.000000 0.000000 0.000000
# 4 0.000000 0.000000 0.000000 0.077144 0.000000 0.000000
# 5 0.000000 0.000000 0.000000 0.000000 0.077144 0.000000
# 6 0.000000 0.000000 0.000000 0.000000 0.000000 0.049612
#
#
# Mechanical properties :
#
#
# Convention : Reuss Voigt Hill
#
# Bulk Modulus (GPa) = 32.05961 32.81498 32.43730
# Shear Modulus (GPa) = 17.37167 19.21363 18.29265
#
# Velocity S-wave (km/s) = 3.19000 3.35487 3.27347
# Velocity P-wave (km/s) = 5.68756 5.85059 5.76965
#
# Compressibility (1/GPa) = 0.03119189
#
# Stress axis : x y z
#
# Youngs Moduli (GPa) = 56.26523 56.26523 59.47389
#
# Poissons Ratio (x) = 0.39571 0.10560
# Poissons Ratio (y) = 0.39571 0.10560
# Poissons Ratio (z) = 0.09990 0.09990
#
# Static dielectric constant tensor:
#      x y z
#    x 1.582060 0.000000 0.000000 
#    y 0.000000 1.582060 0.000000 
#    z 0.000000 0.000000 1.549050 
# 
# From -- ./inp_files/2031.got.cif
#   From: 2010.05.17/outbox.cif.g08.bks.cpg/sg176_2_cif.got.tgz:2031.got - 2010.06.03 11:36:45.
