data_PCOD9581712
_publ_section_title
;
Structure prediction by ZEFSAII (Michael W. Deem and Ramdas Pophale) SiO2 
 PCOD9581712
Probable space group: P 6/M
;
_chemical_formula_sum "Si O2"
_cell_formula_units_Z 78
_cell_length_a 18.000000
_cell_length_b 18.000000
_cell_length_c 18.000000
_cell_angle_alpha 90.000000
_cell_angle_beta 90.000000
_cell_angle_gamma 120.000000
_cell_volume 5050.660155
_symmetry_space_group_name_H-M "P 6/M"
_symmetry_group_IT_number 175
_symmetry_cell_setting 'hexagonal'
loop_
_space_group_symop_operation_xyz
x,y,z
x-y,x,z
-y,x-y,z
-x,-y,z
-x+y,-x,z
y,-x+y,z
-x,-y,-z
-x+y,-x,-z
y,-x+y,-z
x,y,-z
x-y,x,-z
-y,x-y,-z
loop_
_atom_site_type_symbol
_atom_site_label
_atom_site_fract_x
_atom_site_fract_y
_atom_site_fract_z
Si Si1 0.099507 0.467354 0.834787
Si Si2 0.160134 0.494643 0.000000
Si Si3 0.103786 0.207572 0.334774
Si Si4 0.796075 0.898038 0.088366
Si Si5 0.665489 0.505356 0.000000
Si Si6 0.467354 0.099507 0.165213
Si Si7 0.796706 0.898354 0.500000
Si Si8 0.352231 0.176115 0.791295
O O1 0.137367 0.568683 0.819215
O O2 0.138248 0.415986 0.794177
O O3 0.000000 0.420276 0.816580
O O4 0.109094 0.459466 0.923586
O O5 0.191386 0.595692 0.000000
O O6 0.239902 0.479804 0.000000
O O7 0.149002 0.149002 0.325803
O O8 0.123073 0.246145 0.418862
O O9 0.142304 0.284607 0.275925
O O10 0.851483 0.851483 0.105123
O O11 0.709388 0.854694 0.135974
O O12 0.778086 0.889043 0.000000
O O13 0.649627 0.540534 0.076414
O O14 0.415987 0.138249 0.205823
O O15 0.856205 0.856206 0.500000
#
# Coordination Sequence:
#
# PCOD9581712 Si02
#       8
#    12   6  12  12   6  12   6  12
#     4  10  21  35  48  64  89 121 157 202 256 306
#     4  10  18  31  47  66  83 113 154 205 252 299
#     4  10  19  32  52  80 114 146 174 201 233 280
#     4  10  21  34  48  66  96 136 174 207 239 284
#     4  10  18  31  47  66  83 113 154 205 252 299
#     4  10  21  35  48  64  89 121 157 202 256 306
#     4   8  15  28  48  76 110 146 174 198 232 276
#     4  12  22  34  49  74  94 126 167 213 252 295
#
# _framework density 15.443526
#
# number of rings (size 3 to 8) (size 9 to 14) (size 15 to 20)
#    0.000    1.846    1.538    3.769    2.154    3.692 
#    0.923    1.538    0.000    0.000    0.000    1.077 
#    0.000    6.154    0.000    0.000    0.000    0.000 
#
# Total GULP energy -434738.013417 kJ/mol
# GULP energy per Si atom -5573.564275 kJ/mol
# Density = 1.540838 g / cm^3
# Si number density = 15.443526 Si / 1000 Ang^3
#
#
#
# Elastic Constant Matrix: (Units=GPa)
#
#
# Indices 1 2 3 4 5 6 
#
# 1 101.0552 50.1401 42.6384 0.0000 0.0000 0.0000
# 2 50.1401 101.0552 42.6384 0.0000 0.0000 0.0000
# 3 42.6384 42.6384 70.8339 0.0000 0.0000 0.0000
# 4 0.0000 0.0000 0.0000 84.0553 0.0000 0.0000
# 5 0.0000 0.0000 0.0000 0.0000 84.0553 0.0000
# 6 0.0000 0.0000 0.0000 0.0000 0.0000 25.4575
#
#
#
# Elastic Compliance Matrix: (Units=1/GPa)
#
#
# Indices 1 2 3 4 5 6 
#
# 1 0.014827 -0.004813 -0.006028 0.000000 0.000000 0.000000
# 2 -0.004813 0.014827 -0.006028 0.000000 0.000000 0.000000
# 3 -0.006028 -0.006028 0.021374 0.000000 0.000000 0.000000
# 4 0.000000 0.000000 0.000000 0.011897 0.000000 0.000000
# 5 0.000000 0.000000 0.000000 0.000000 0.011897 0.000000
# 6 0.000000 0.000000 0.000000 0.000000 0.000000 0.039281
#
#
# Mechanical properties :
#
#
# Convention : Reuss Voigt Hill
#
# Bulk Modulus (GPa) = 57.83431 60.41977 59.12704
# Shear Modulus (GPa) = 32.55102 47.88213 40.21657
#
# Velocity S-wave (km/s) = 4.59600 5.57422 5.10858
# Velocity P-wave (km/s) = 8.10521 8.97983 8.55371
#
# Compressibility (1/GPa) = 0.01729077
#
# Stress axis : x y z
#
# Youngs Moduli (GPa) = 67.44391 67.44391 46.78503
#
# Poissons Ratio (x) = 0.32463 0.28201
# Poissons Ratio (y) = 0.32463 0.28201
# Poissons Ratio (z) = 0.40654 0.40654
#
# Static dielectric constant tensor:
#      x y z
#    x 1.519290 0.000000 0.000000 
#    y 0.000000 1.519290 0.000000 
#    z 0.000000 0.000000 1.525190 
# 
# From -- ./inp_files/2971.got.cif
#   From: 2010.05.17/outbox.ucp.g08.bks.cvg/sg175_2_cif.got.tgz:2971.got - 2010.06.11 15:18:44.
