data_PCOD9581376
_publ_section_title
;
Structure prediction by ZEFSAII (Michael W. Deem and Ramdas Pophale) SiO2 
 PCOD9581376
Probable space group: P 6/M
;
_chemical_formula_sum "Si O2"
_cell_formula_units_Z 74
_cell_length_a 12.622466
_cell_length_b 12.622466
_cell_length_c 29.552718
_cell_angle_alpha 90.000000
_cell_angle_beta 90.000000
_cell_angle_gamma 120.000000
_cell_volume 4077.711354
_symmetry_space_group_name_H-M "P 6/M"
_symmetry_group_IT_number 175
_symmetry_cell_setting 'hexagonal'
loop_
_space_group_symop_operation_xyz
x,y,z
x-y,x,z
-y,x-y,z
-x,-y,z
-x+y,-x,z
y,-x+y,z
-x,-y,-z
-x+y,-x,-z
y,-x+y,-z
x,y,-z
x-y,x,-z
-y,x-y,-z
loop_
_atom_site_type_symbol
_atom_site_label
_atom_site_fract_x
_atom_site_fract_y
_atom_site_fract_z
Si Si1 0.076046 0.792617 0.696621
Si Si2 0.924375 0.207108 0.597309
Si Si3 0.666668 0.333334 0.183913
Si Si4 0.208177 0.284000 0.500000
Si Si5 0.558774 0.915858 0.780989
Si Si6 0.666667 0.333334 0.924555
Si Si7 0.646872 0.566915 0.949205
Si Si8 0.739307 0.981453 0.863592
O O1 0.937279 0.766201 0.700028
O O2 0.091963 0.748734 0.646517
O O3 0.097734 0.722563 0.737091
O O4 0.062208 0.231770 0.597205
O O5 0.906738 0.255921 0.548775
O O6 0.546062 0.215013 0.201635
O O7 0.666668 0.333334 0.129684
O O8 0.062770 0.233432 0.500000
O O9 0.655133 0.975859 0.821828
O O10 0.500000 0.000000 0.770736
O O11 0.682591 0.461993 0.941000
O O12 0.500000 0.500000 0.946426
O O13 0.700875 0.667998 0.910331
O O14 0.684650 0.617011 0.000000
O O15 0.759015 0.865834 0.860837
#
# Coordination Sequence:
#
# PCOD9581376 Si02
#       8
#    12  12   4   6  12   4  12  12
#     4  10  19  33  52  78 110 148 186 225 271 328
#     4   8  13  20  35  60  96 137 179 219 263 315
#     4  12  24  40  64  87 111 139 184 228 274 326
#     4   8  11  16  28  54  91 134 176 218 261 310
#     4  12  25  41  60  83 110 142 179 230 280 328
#     4  12  22  40  66  90 117 150 187 229 271 320
#     4  11  24  41  64  93 121 149 184 225 269 318
#     4  12  25  42  63  87 116 149 183 220 265 321
#
# _framework density 18.147434000000001
#
# number of rings (size 3 to 8) (size 9 to 14) (size 15 to 20)
#    0.000    1.459    1.622    5.432    0.000    4.541 
#    0.000    1.622    0.000    0.973    0.000    0.568 
#    0.000    1.297    0.000    0.243    0.000    0.081 
#
# Total GULP energy -413043.501115 kJ/mol
# GULP energy per Si atom -5581.668934 kJ/mol
# Density = 1.810613 g / cm^3
# Si number density = 18.147434 Si / 1000 Ang^3
#
#
#
# Elastic Constant Matrix: (Units=GPa)
#
#
# Indices 1 2 3 4 5 6 
#
# 1 42.4594 -8.1448 9.9087 0.0000 0.0000 0.0000
# 2 -8.1448 42.4592 9.9076 0.0000 0.0000 0.0000
# 3 9.9087 9.9076 143.5226 0.0000 0.0000 0.0001
# 4 0.0000 0.0000 0.0000 30.1674 0.0004 0.0000
# 5 0.0000 0.0000 0.0000 0.0004 30.1698 0.0000
# 6 0.0000 0.0000 0.0001 0.0000 0.0000 25.3017
#
#
#
# Elastic Compliance Matrix: (Units=1/GPa)
#
#
# Indices 1 2 3 4 5 6 
#
# 1 0.025057 0.005296 -0.002095 0.000000 0.000000 0.000000
# 2 0.005296 0.025057 -0.002095 0.000000 0.000000 0.000000
# 3 -0.002095 -0.002095 0.007257 0.000000 0.000000 0.000000
# 4 0.000000 0.000000 0.000000 0.033148 0.000000 0.000000
# 5 0.000000 0.000000 0.000000 0.000000 0.033146 0.000000
# 6 0.000000 0.000000 0.000000 0.000000 0.000000 0.039523
#
#
# Mechanical properties :
#
#
# Convention : Reuss Voigt Hill
#
# Bulk Modulus (GPa) = 16.78418 27.97601 22.38009
# Shear Modulus (GPa) = 27.64906 31.57909 29.61408
#
# Velocity S-wave (km/s) = 3.90754 4.17603 4.04401
# Velocity P-wave (km/s) = 5.44310 6.22107 5.84504
#
# Compressibility (1/GPa) = 0.05957990
#
# Stress axis : x y z
#
# Youngs Moduli (GPa) = 39.90943 39.90935 137.80080
#
# Poissons Ratio (x) = -0.21134 0.28876
# Poissons Ratio (y) = -0.21134 0.28873
# Poissons Ratio (z) = 0.08363 0.08362
#
# Static dielectric constant tensor:
#      x y z
#    x 1.640510 0.000000 0.000000 
#    y 0.000000 1.640640 0.000000 
#    z 0.000000 0.000000 1.676840 
# 
# From -- ./inp_files/3403.got.cif
#   From: 2010.05.17/outbox.cif.g08.bks.cpg/sg175_2_cif.got.tgz:3403.got - 2010.05.20 11:23:22.
