data_PCOD9581214
_publ_section_title
;
Structure prediction by ZEFSAII (Michael W. Deem and Ramdas Pophale) SiO2 
 PCOD9581214
Probable space group: P -6
;
_chemical_formula_sum "Si O2"
_cell_formula_units_Z 26
_cell_length_a 8.604604
_cell_length_b 8.604604
_cell_length_c 19.996990
_cell_angle_alpha 90.000000
_cell_angle_beta 90.000000
_cell_angle_gamma 120.000000
_cell_volume 1282.203734
_symmetry_space_group_name_H-M "P -6"
_symmetry_group_IT_number 174
_symmetry_cell_setting 'hexagonal'
loop_
_space_group_symop_operation_xyz
x,y,z
-x+y,-x,-z
-y,x-y,z
x,y,-z
-x+y,-x,z
-y,x-y,-z
loop_
_atom_site_type_symbol
_atom_site_label
_atom_site_fract_x
_atom_site_fract_y
_atom_site_fract_z
Si Si1 0.333715 0.293308 0.779989
Si Si2 0.033298 0.366189 0.170194
Si Si3 0.972002 0.668778 0.371751
Si Si4 0.642508 0.661932 0.423266
Si Si5 0.333333 0.666667 0.920649
O O1 0.176292 0.340396 0.787254
O O2 0.516305 0.475629 0.794829
O O3 0.331685 0.238334 0.703571
O O4 0.308428 0.140458 0.832834
O O5 0.155270 0.490474 0.108548
O O6 0.805798 0.622810 0.419320
O O7 0.142433 0.856073 0.392159
O O8 0.032315 0.521474 0.381247
O O9 0.587019 0.659556 0.500000
O O10 0.333334 0.666668 0.000000
#
# Coordination Sequence:
#
# PCOD9581214 Si02
#       5
#     6   6   6   6   2
#     4  11  20  38  58  93 121 158 202 252 316 359
#     4  10  22  37  64  93 131 158 196 253 294 353
#     4  12  24  39  61  81 114 157 203 259 316 381
#     4  12  25  41  56  81 113 157 208 262 318 378
#     4   9  21  45  69  96 129 168 199 230 286 357
#
# _framework density 20.27759
#
# number of rings (size 3 to 8) (size 9 to 14) (size 15 to 20)
#    0.000    0.923    0.000    9.000    0.000    0.000 
#    0.000    4.615    0.000    0.000    0.000    0.000 
#    0.000    0.000    0.000    0.000    0.000    0.000 
#
# Total GULP energy -145237.650343 kJ/mol
# GULP energy per Si atom -5586.063475 kJ/mol
# Density = 2.023144 g / cm^3
# Si number density = 20.277590 Si / 1000 Ang^3
#
#
#
# Elastic Constant Matrix: (Units=GPa)
#
#
# Indices 1 2 3 4 5 6 
#
# 1 69.9259 -3.7092 19.0296 0.0000 0.0000 0.0000
# 2 -3.7092 69.9261 19.0296 0.0000 0.0000 -0.0001
# 3 19.0296 19.0296 113.6583 0.0000 0.0000 0.0000
# 4 0.0000 0.0000 0.0000 12.9808 -0.0001 0.0000
# 5 0.0000 0.0000 0.0000 -0.0001 12.9808 0.0000
# 6 0.0000 -0.0001 0.0000 0.0000 0.0000 36.8176
#
#
#
# Elastic Compliance Matrix: (Units=1/GPa)
#
#
# Indices 1 2 3 4 5 6 
#
# 1 0.015145 0.001565 -0.002798 0.000000 0.000000 0.000000
# 2 0.001565 0.015145 -0.002798 0.000000 0.000000 0.000000
# 3 -0.002798 -0.002798 0.009735 0.000000 0.000000 0.000000
# 4 0.000000 0.000000 0.000000 0.077037 0.000000 0.000000
# 5 0.000000 0.000000 0.000000 0.000000 0.077037 0.000000
# 6 0.000000 0.000000 0.000000 0.000000 0.000000 0.027161
#
#
# Mechanical properties :
#
#
# Convention : Reuss Voigt Hill
#
# Bulk Modulus (GPa) = 31.28504 35.80115 33.54310
# Shear Modulus (GPa) = 20.83535 27.16651 24.00093
#
# Velocity S-wave (km/s) = 3.20895 3.66420 3.44411
# Velocity P-wave (km/s) = 5.40293 5.96621 5.69155
#
# Compressibility (1/GPa) = 0.03196416
#
# Stress axis : x y z
#
# Youngs Moduli (GPa) = 66.02742 66.02759 102.72071
#
# Poissons Ratio (x) = -0.10332 0.28738
# Poissons Ratio (y) = -0.10332 0.28738
# Poissons Ratio (z) = 0.18473 0.18473
#
# Static dielectric constant tensor:
#      x y z
#    x 1.724600 0.000000 0.000000 
#    y 0.000000 1.724600 0.000000 
#    z 0.000000 0.000000 1.658210 
# 
# From -- ./inp_files/1035.got.cif
#   From: 2010.05.17/outbox.cif.g08.bks.cpg/sg174_cif.got.tgz:1035.got - 2010.05.20 11:22:48.
