data_PCOD9581685
_publ_section_title
;
Structure prediction by ZEFSAII (Michael W. Deem and Ramdas Pophale) SiO2 
 PCOD9581685
Probable space group: P 6/M
;
_chemical_formula_sum "Si O2"
_cell_formula_units_Z 48
_cell_length_a 19.546740
_cell_length_b 19.546740
_cell_length_c 7.814865
_cell_angle_alpha 90.000000
_cell_angle_beta 90.000000
_cell_angle_gamma 120.000000
_cell_volume 2585.834850
_symmetry_space_group_name_H-M "P 6/M"
_symmetry_group_IT_number 175
_symmetry_cell_setting 'hexagonal'
loop_
_space_group_symop_operation_xyz
x,y,z
x-y,x,z
-y,x-y,z
-x,-y,z
-x+y,-x,z
y,-x+y,z
-x,-y,-z
-x+y,-x,-z
y,-x+y,-z
x,y,-z
x-y,x,-z
-y,x-y,-z
loop_
_atom_site_type_symbol
_atom_site_label
_atom_site_fract_x
_atom_site_fract_y
_atom_site_fract_z
Si Si1 0.386282 0.833976 0.500000
Si Si2 0.717280 0.009417 0.704692
Si Si3 0.649029 0.837312 0.196203
Si Si4 0.479429 0.208812 0.500000
Si Si5 0.945632 0.539255 0.190583
O O1 0.467814 0.832934 0.500000
O O2 0.301395 0.755529 0.500000
O O3 0.383989 0.880338 0.333254
O O4 0.721450 0.009831 0.500000
O O5 0.784947 0.094375 0.771158
O O6 0.635950 0.004982 0.762043
O O7 0.711468 0.929834 0.774191
O O8 0.578764 0.812548 0.335586
O O9 0.620431 0.825858 0.000000
O O10 0.000000 0.500000 0.192560
O O11 0.912338 0.531419 0.000000
#
# Coordination Sequence:
#
# PCOD9581685 Si02
#       5
#     6  12  12   6  12
#     4  12  24  40  60  84 123 168 205 266 311 376
#     4  12  22  42  66  97 129 167 214 270 327 386
#     4  12  24  42  67  95 131 171 215 270 327 389
#     4  12  25  42  62  90 129 168 222 263 325 386
#     4  11  22  37  60  89 120 159 209 262 316 376
#
# _framework density 18.562670000000001
#
# number of rings (size 3 to 8) (size 9 to 14) (size 15 to 20)
#    0.000    0.250    6.250    4.375    0.000    3.000 
#    0.000    0.000    0.000    3.500    0.000    3.500 
#    0.000    0.000    0.000    0.000    0.000    0.000 
#
# Total GULP energy -268216.791261 kJ/mol
# GULP energy per Si atom -5587.849818 kJ/mol
# Density = 1.852042 g / cm^3
# Si number density = 18.562670 Si / 1000 Ang^3
#
#
#
# Elastic Constant Matrix: (Units=GPa)
#
#
# Indices 1 2 3 4 5 6 
#
# 1 92.9638 31.6501 20.8185 0.0000 0.0000 0.0000
# 2 31.6501 92.9638 20.8185 0.0000 0.0000 0.0000
# 3 20.8185 20.8185 164.2224 0.0000 0.0000 0.0000
# 4 0.0000 0.0000 0.0000 30.5272 0.0000 0.0000
# 5 0.0000 0.0000 0.0000 0.0000 30.5272 0.0000
# 6 0.0000 0.0000 0.0000 0.0000 0.0000 30.6569
#
#
#
# Elastic Compliance Matrix: (Units=1/GPa)
#
#
# Indices 1 2 3 4 5 6 
#
# 1 0.012345 -0.003965 -0.001062 0.000000 0.000000 0.000000
# 2 -0.003965 0.012345 -0.001062 0.000000 0.000000 0.000000
# 3 -0.001062 -0.001062 0.006359 0.000000 0.000000 0.000000
# 4 0.000000 0.000000 0.000000 0.032758 0.000000 0.000000
# 5 0.000000 0.000000 0.000000 0.000000 0.032758 0.000000
# 6 0.000000 0.000000 0.000000 0.000000 0.000000 0.032619
#
#
# Mechanical properties :
#
#
# Convention : Reuss Voigt Hill
#
# Bulk Modulus (GPa) = 52.99728 55.19160 54.09444
# Shear Modulus (GPa) = 33.86362 36.79978 35.33170
#
# Velocity S-wave (km/s) = 4.27580 4.45731 4.36750
# Velocity P-wave (km/s) = 7.27936 7.50249 7.39177
#
# Compressibility (1/GPa) = 0.01886889
#
# Stress axis : x y z
#
# Youngs Moduli (GPa) = 81.00682 81.00682 157.26632
#
# Poissons Ratio (x) = 0.32118 0.16706
# Poissons Ratio (y) = 0.32118 0.16706
# Poissons Ratio (z) = 0.08605 0.08605
#
# Static dielectric constant tensor:
#      x y z
#    x 1.657710 0.000000 0.000000 
#    y 0.000000 1.657710 0.000000 
#    z 0.000000 0.000000 1.650770 
# 
# From -- ./inp_files/639.got.cif
#   From: 2010.05.17/outbox.cif.g08.bks.cpg/sg175_1_cif.got.tgz:639.got - 2010.05.20 11:23:22.
