data_PCOD9581669
_publ_section_title
;
Structure prediction by ZEFSAII (Michael W. Deem and Ramdas Pophale) SiO2 
 PCOD9581669
Probable space group: P 6/M
;
_chemical_formula_sum "Si O2"
_cell_formula_units_Z 60
_cell_length_a 14.338093
_cell_length_b 14.338093
_cell_length_c 13.797828
_cell_angle_alpha 90.000000
_cell_angle_beta 90.000000
_cell_angle_gamma 120.000000
_cell_volume 2456.541721
_symmetry_space_group_name_H-M "P 6/M"
_symmetry_group_IT_number 175
_symmetry_cell_setting 'hexagonal'
loop_
_space_group_symop_operation_xyz
x,y,z
x-y,x,z
-y,x-y,z
-x,-y,z
-x+y,-x,z
y,-x+y,z
-x,-y,-z
-x+y,-x,-z
y,-x+y,-z
x,y,-z
x-y,x,-z
-y,x-y,-z
loop_
_atom_site_type_symbol
_atom_site_label
_atom_site_fract_x
_atom_site_fract_y
_atom_site_fract_z
Si Si1 0.494976 0.892601 0.390557
Si Si2 0.812809 0.530169 0.685065
Si Si3 0.956103 0.248572 0.106565
Si Si4 0.807771 0.032966 0.312246
Si Si5 0.300590 0.840844 0.894602
O O1 0.537961 0.914117 0.500000
O O2 0.545982 0.835189 0.329784
O O3 0.366464 0.812689 0.389637
O O4 0.500000 0.000000 0.349770
O O5 0.918553 0.647570 0.671028
O O6 0.809995 0.482515 0.791951
O O7 0.001636 0.212553 0.196618
O O8 0.030619 0.378112 0.107126
O O9 0.829910 0.209350 0.112335
O O10 0.974713 0.214751 0.000000
O O11 0.921072 0.129167 0.350071
O O12 0.325619 0.811004 0.000000
#
# Coordination Sequence:
#
# PCOD9581669 Si02
#       5
#    12  12  12  12  12
#     4  11  25  43  67  96 119 147 206 271 330 396
#     4  11  22  41  66  88 125 166 204 264 329 376
#     4   9  15  25  45  77 120 170 215 246 278 327
#     4  11  20  32  53  88 129 174 210 245 289 361
#     4   9  18  31  54  86 126 172 210 250 295 358
#
# _framework density 24.424579999999999
#
# number of rings (size 3 to 8) (size 9 to 14) (size 15 to 20)
#    0.000    1.800    4.000    2.400    2.800    0.000 
#    0.000    1.000    0.000    2.400    0.000    0.000 
#    0.000    9.600    0.000    0.000    0.000    0.000 
#
# Total GULP energy -334579.938267 kJ/mol
# GULP energy per Si atom -5576.332304 kJ/mol
# Density = 2.436899 g / cm^3
# Si number density = 24.424580 Si / 1000 Ang^3
#
#
#
# Elastic Constant Matrix: (Units=GPa)
#
#
# Indices 1 2 3 4 5 6 
#
# 1 60.3413 2.9662 -3.1437 0.0000 0.0000 0.0000
# 2 2.9662 60.3413 -3.1437 0.0000 0.0000 0.0000
# 3 -3.1437 -3.1437 70.0604 0.0000 0.0000 0.0000
# 4 0.0000 0.0000 0.0000 19.7740 0.0000 0.0000
# 5 0.0000 0.0000 0.0000 0.0000 19.7740 0.0000
# 6 0.0000 0.0000 0.0000 0.0000 0.0000 28.6875
#
#
#
# Elastic Compliance Matrix: (Units=1/GPa)
#
#
# Indices 1 2 3 4 5 6 
#
# 1 0.016648 -0.000781 0.000712 0.000000 0.000000 0.000000
# 2 -0.000781 0.016648 0.000712 0.000000 0.000000 0.000000
# 3 0.000712 0.000712 0.014337 0.000000 0.000000 0.000000
# 4 0.000000 0.000000 0.000000 0.050572 0.000000 0.000000
# 5 0.000000 0.000000 0.000000 0.000000 0.050572 0.000000
# 6 0.000000 0.000000 0.000000 0.000000 0.000000 0.034858
#
#
# Mechanical properties :
#
#
# Convention : Reuss Voigt Hill
#
# Bulk Modulus (GPa) = 20.44220 20.45560 20.44890
# Shear Modulus (GPa) = 25.16921 26.58470 25.87696
#
# Velocity S-wave (km/s) = 3.21360 3.30273 3.25847
# Velocity P-wave (km/s) = 4.70716 4.78928 4.74840
#
# Compressibility (1/GPa) = 0.04891841
#
# Stress axis : x y z
#
# Youngs Moduli (GPa) = 60.06762 60.06762 69.74816
#
# Poissons Ratio (x) = 0.04693 -0.04966
# Poissons Ratio (y) = 0.04693 -0.04966
# Poissons Ratio (z) = -0.04277 -0.04277
#
# Static dielectric constant tensor:
#      x y z
#    x 1.983590 0.000000 0.000000 
#    y 0.000000 1.983590 0.000000 
#    z 0.000000 0.000000 1.988050 
# 
# From -- ./inp_files/2368.got.cif
#   From: 2010.05.17/outbox.cif.g08.bks.cpg/sg175_2_cif.got.tgz:2368.got - 2010.05.20 11:23:22.
