data_PCOD9581048
_publ_section_title
;
Structure prediction by ZEFSAII (Michael W. Deem and Ramdas Pophale) SiO2 
 PCOD9581048
Probable space group: P 63
;
_chemical_formula_sum "Si O2"
_cell_formula_units_Z 36
_cell_length_a 8.480720
_cell_length_b 8.480720
_cell_length_c 26.650988
_cell_angle_alpha 90.000000
_cell_angle_beta 90.000000
_cell_angle_gamma 120.000000
_cell_volume 1660.004995
_symmetry_space_group_name_H-M "P 63"
_symmetry_group_IT_number 173
_symmetry_cell_setting 'hexagonal'
loop_
_space_group_symop_operation_xyz
x,y,z
x-y,x,1/2+z
-y,x-y,z
-x,-y,1/2+z
-x+y,-x,z
y,-x+y,1/2+z
loop_
_atom_site_type_symbol
_atom_site_label
_atom_site_fract_x
_atom_site_fract_y
_atom_site_fract_z
Si Si1 0.361326 0.349038 0.012440
Si Si2 0.653046 0.643869 0.728758
Si Si3 0.676602 0.974522 0.768049
Si Si4 0.490061 0.108448 0.616174
Si Si5 0.778814 0.202983 0.369297
Si Si6 0.980610 0.679461 0.471342
O O1 0.410695 0.382623 0.071178
O O2 0.282776 0.144358 0.993912
O O3 0.530894 0.486298 0.978211
O O4 0.202745 0.396556 0.003563
O O5 0.704915 0.852413 0.727370
O O6 0.469316 0.524709 0.760557
O O7 0.612937 0.567923 0.672697
O O8 0.816009 0.632628 0.756378
O O9 0.689605 0.883908 0.820227
O O10 0.706142 0.185446 0.611295
O O11 0.859727 0.422439 0.371458
O O12 0.786437 0.090245 0.416457
#
# Coordination Sequence:
#
# PCOD9581048 Si02
#       6
#     6   6   6   6   6   6
#     4  12  24  43  73 101 148 187 242 299 364 432
#     4  12  24  43  73 105 149 191 245 299 363 438
#     4  12  24  45  70 112 146 192 242 307 363 443
#     4  10  20  42  73 102 141 198 238 294 370 432
#     4  10  20  44  73  95 136 189 231 291 378 421
#     4  12  24  45  70 109 140 193 240 306 362 442
#
# _framework density 21.686684
#
# number of rings (size 3 to 8) (size 9 to 14) (size 15 to 20)
#    0.667    0.000    6.667    2.000    0.000    4.000 
#    0.000    0.000    0.000    0.000    0.000    0.000 
#    0.000    0.000    0.000    0.000    0.000    0.000 
#
# Total GULP energy -200664.738545 kJ/mol
# GULP energy per Si atom -5574.020515 kJ/mol
# Density = 2.163732 g / cm^3
# Si number density = 21.686684 Si / 1000 Ang^3
#
#
#
# Elastic Constant Matrix: (Units=GPa)
#
#
# Indices 1 2 3 4 5 6 
#
# 1 60.7234 -0.7804 30.9413 0.0000 0.0000 0.0000
# 2 -0.7804 60.7234 30.9413 0.0000 0.0000 0.0000
# 3 30.9413 30.9413 186.8050 0.0000 0.0000 0.0000
# 4 0.0000 0.0000 0.0000 31.1738 0.0000 0.0000
# 5 0.0000 0.0000 0.0000 0.0000 31.1738 0.0000
# 6 0.0000 0.0000 0.0000 0.0000 0.0000 30.7519
#
#
#
# Elastic Compliance Matrix: (Units=1/GPa)
#
#
# Indices 1 2 3 4 5 6 
#
# 1 0.018191 0.001932 -0.003333 0.000000 0.000000 0.000000
# 2 0.001932 0.018191 -0.003333 0.000000 0.000000 0.000000
# 3 -0.003333 -0.003333 0.006457 0.000000 0.000000 0.000000
# 4 0.000000 0.000000 0.000000 0.032078 0.000000 0.000000
# 5 0.000000 0.000000 0.000000 0.000000 0.032078 0.000000
# 6 0.000000 0.000000 0.000000 0.000000 0.000000 0.032518
#
#
# Mechanical properties :
#
#
# Convention : Reuss Voigt Hill
#
# Bulk Modulus (GPa) = 29.96542 47.82845 38.89693
# Shear Modulus (GPa) = 31.22915 35.09655 33.16285
#
# Velocity S-wave (km/s) = 3.79887 4.02723 3.91472
# Velocity P-wave (km/s) = 5.75233 6.61264 6.19743
#
# Compressibility (1/GPa) = 0.03337180
#
# Stress axis : x y z
#
# Youngs Moduli (GPa) = 54.97123 54.97123 154.86254
#
# Poissons Ratio (x) = -0.10621 0.51618
# Poissons Ratio (y) = -0.10621 0.51618
# Poissons Ratio (z) = 0.18323 0.18323
#
# Static dielectric constant tensor:
#      x y z
#    x 1.802550 0.000000 0.000000 
#    y 0.000000 1.802550 0.000000 
#    z 0.000000 0.000000 1.862740 
# 
# From -- ./inp_files/1479.got.cif
#   From: 2010.05.17/outbox.cif.g08.bks.cpg/sg173_cif.got.tgz:1479.got - 2010.05.20 11:21:53.
