data_PCOD9581687
_publ_section_title
;
Structure prediction by ZEFSAII (Michael W. Deem and Ramdas Pophale) SiO2 
 PCOD9581687
Probable space group: P 6/M
;
_chemical_formula_sum "Si O2"
_cell_formula_units_Z 40
_cell_length_a 16.662064
_cell_length_b 16.662064
_cell_length_c 8.420689
_cell_angle_alpha 90.000000
_cell_angle_beta 90.000000
_cell_angle_gamma 120.000000
_cell_volume 2024.584260
_symmetry_space_group_name_H-M "P 6/M"
_symmetry_group_IT_number 175
_symmetry_cell_setting 'hexagonal'
loop_
_space_group_symop_operation_xyz
x,y,z
x-y,x,z
-y,x-y,z
-x,-y,z
-x+y,-x,z
y,-x+y,z
-x,-y,-z
-x+y,-x,-z
y,-x+y,-z
x,y,-z
x-y,x,-z
-y,x-y,-z
loop_
_atom_site_type_symbol
_atom_site_label
_atom_site_fract_x
_atom_site_fract_y
_atom_site_fract_z
Si Si1 0.666667 0.333334 0.309332
Si Si2 0.700150 0.636144 0.312424
Si Si3 0.385763 0.255307 0.188852
Si Si4 0.437790 0.864216 0.189575
O O1 0.666667 0.333334 0.500000
O O2 0.652637 0.414287 0.238815
O O3 0.698096 0.646288 0.500000
O O4 0.693033 0.718694 0.227788
O O5 0.791049 0.630836 0.264694
O O6 0.609986 0.538972 0.260322
O O7 0.479838 0.347329 0.246993
O O8 0.394876 0.248445 0.000000
O O9 0.444223 0.876563 0.000000
#
# Coordination Sequence:
#
# PCOD9581687 Si02
#       4
#     4  12  12  12
#     4  12  22  32  55  87 124 164 205 252 298 341
#     4  12  25  40  62  91 124 156 201 256 306 351
#     4  11  24  42  64  87 120 162 206 246 300 366
#     4  11  22  38  60  86 122 167 209 244 293 360
#
# _framework density 19.757142999999999
#
# number of rings (size 3 to 8) (size 9 to 14) (size 15 to 20)
#    0.000    0.600    3.000    6.300    0.000    7.200 
#    0.000    0.000    0.000    0.600    0.000    4.200 
#    0.000    0.000    0.000    0.000    0.000    0.000 
#
# Total GULP energy -223657.500411 kJ/mol
# GULP energy per Si atom -5591.437510 kJ/mol
# Density = 1.971218 g / cm^3
# Si number density = 19.757143 Si / 1000 Ang^3
#
#
#
# Elastic Constant Matrix: (Units=GPa)
#
#
# Indices 1 2 3 4 5 6 
#
# 1 86.3638 30.9615 -11.6081 0.0000 0.0000 0.0001
# 2 30.9615 86.3634 -11.6071 0.0000 0.0000 -0.0014
# 3 -11.6081 -11.6071 33.7326 0.0000 0.0000 0.0001
# 4 0.0000 0.0000 0.0000 -74.2447 0.0135 0.0000
# 5 0.0000 0.0000 0.0000 0.0135 -74.2131 0.0000
# 6 0.0001 -0.0014 0.0001 0.0000 0.0000 27.7013
#
#
#
# Elastic Compliance Matrix: (Units=1/GPa)
#
#
# Indices 1 2 3 4 5 6 
#
# 1 0.013598 -0.004452 0.003147 0.000000 0.000000 0.000000
# 2 -0.004452 0.013598 0.003147 0.000000 0.000000 0.000001
# 3 0.003147 0.003147 0.031811 0.000000 0.000000 0.000000
# 4 0.000000 0.000000 0.000000 -0.013469 -0.000002 0.000000
# 5 0.000000 0.000000 0.000000 -0.000002 -0.013475 0.000000
# 6 0.000000 0.000001 0.000000 0.000000 0.000000 0.036099
#
#
# Mechanical properties :
#
#
# Convention : Reuss Voigt Hill
#
# Bulk Modulus (GPa) = 15.95106 24.66139 20.30622
# Shear Modulus (GPa) = 58.56545 -10.90372 23.83086
#
# Velocity S-wave (km/s) = 5.45041 -2.35178 3.47679
# Velocity P-wave (km/s) = 6.90655 2.26603 5.13981
#
# Compressibility (1/GPa) = 0.06269177
#
# Stress axis : x y z
#
# Youngs Moduli (GPa) = 73.54037 73.54058 31.43586
#
# Poissons Ratio (x) = 0.32739 -0.09894
# Poissons Ratio (y) = 0.32739 -0.09893
# Poissons Ratio (z) = -0.23147 -0.23143
#
# Static dielectric constant tensor:
#      x y z
#    x 1.682700 0.000000 0.000000 
#    y 0.000000 1.682700 0.000000 
#    z 0.000000 0.000000 1.652050 
# 
# From -- ./inp_files/438.got.cif
#   From: 2010.05.17/outbox.cif.g08.bks.cpg/sg175_1_cif.got.tgz:438.got - 2010.05.20 11:23:22.
