data_PCOD9581469
_publ_section_title
;
Structure prediction by ZEFSAII (Michael W. Deem and Ramdas Pophale) SiO2 
 PCOD9581469
Probable space group: P 6/M
;
_chemical_formula_sum "Si O2"
_cell_formula_units_Z 60
_cell_length_a 19.414301
_cell_length_b 19.414301
_cell_length_c 10.440635
_cell_angle_alpha 90.000000
_cell_angle_beta 90.000000
_cell_angle_gamma 120.000000
_cell_volume 3408.011584
_symmetry_space_group_name_H-M "P 6/M"
_symmetry_group_IT_number 175
_symmetry_cell_setting 'hexagonal'
loop_
_space_group_symop_operation_xyz
x,y,z
x-y,x,z
-y,x-y,z
-x,-y,z
-x+y,-x,z
y,-x+y,z
-x,-y,-z
-x+y,-x,-z
y,-x+y,-z
x,y,-z
x-y,x,-z
-y,x-y,-z
loop_
_atom_site_type_symbol
_atom_site_label
_atom_site_fract_x
_atom_site_fract_y
_atom_site_fract_z
Si Si1 0.954813 0.823406 0.655457
Si Si2 0.800578 0.511654 0.147733
Si Si3 0.157971 0.624547 0.853776
Si Si4 0.036646 0.595290 0.641911
Si Si5 0.641455 0.742238 0.649244
O O1 0.888277 0.844875 0.699491
O O2 0.956445 0.827498 0.500000
O O3 0.930686 0.732951 0.685769
O O4 0.833113 0.451657 0.175742
O O5 0.705200 0.463185 0.153407
O O6 0.834429 0.581902 0.250644
O O7 0.822412 0.540127 0.000000
O O8 0.099367 0.630880 0.754827
O O9 0.128721 0.616267 0.000000
O O10 0.073283 0.620935 0.500000
O O11 0.000000 0.500000 0.648459
O O12 0.969890 0.620439 0.654085
O O13 0.630137 0.758562 0.500000
#
# Coordination Sequence:
#
# PCOD9581469 Si02
#       5
#    12  12  12  12  12
#     4   9  18  33  55  82 110 141 178 222 273 330
#     4  10  21  37  55  78 109 146 189 233 272 319
#     4  10  21  36  56  78 105 145 189 229 272 320
#     4  10  20  35  53  77 109 144 180 222 273 329
#     4  10  21  35  54  82 113 144 180 225 279 333
#
# _framework density 17.605574000000001
#
# number of rings (size 3 to 8) (size 9 to 14) (size 15 to 20)
#    0.000    2.200    2.000    0.600    2.800    4.400 
#    0.000    0.000    0.000    2.400    0.000    0.000 
#    0.000    1.600    0.000    0.000    0.000    0.000 
#
# Total GULP energy -334538.502253 kJ/mol
# GULP energy per Si atom -5575.641704 kJ/mol
# Density = 1.756550 g / cm^3
# Si number density = 17.605574 Si / 1000 Ang^3
#
#
#
# Elastic Constant Matrix: (Units=GPa)
#
#
# Indices 1 2 3 4 5 6 
#
# 1 98.7772 43.3401 42.6555 0.0000 0.0000 0.0000
# 2 43.3401 98.7772 42.6555 0.0000 0.0000 0.0000
# 3 42.6555 42.6555 65.6157 0.0000 0.0000 0.0000
# 4 0.0000 0.0000 0.0000 21.9501 0.0000 0.0000
# 5 0.0000 0.0000 0.0000 0.0000 21.9501 0.0000
# 6 0.0000 0.0000 0.0000 0.0000 0.0000 27.7186
#
#
#
# Elastic Compliance Matrix: (Units=1/GPa)
#
#
# Indices 1 2 3 4 5 6 
#
# 1 0.014789 -0.003249 -0.007502 0.000000 0.000000 0.000000
# 2 -0.003249 0.014789 -0.007502 0.000000 0.000000 0.000000
# 3 -0.007502 -0.007502 0.024994 0.000000 0.000000 0.000000
# 4 0.000000 0.000000 0.000000 0.045558 0.000000 0.000000
# 5 0.000000 0.000000 0.000000 0.000000 0.045558 0.000000
# 6 0.000000 0.000000 0.000000 0.000000 0.000000 0.036077
#
#
# Mechanical properties :
#
#
# Convention : Reuss Voigt Hill
#
# Bulk Modulus (GPa) = 55.35214 57.83025 56.59119
# Shear Modulus (GPa) = 22.29240 23.29170 22.79205
#
# Velocity S-wave (km/s) = 3.56225 3.64122 3.60195
# Velocity P-wave (km/s) = 6.95901 7.11315 7.03650
#
# Compressibility (1/GPa) = 0.01806615
#
# Stress axis : x y z
#
# Youngs Moduli (GPa) = 67.61778 67.61778 40.01031
#
# Poissons Ratio (x) = 0.21972 0.30014
# Poissons Ratio (y) = 0.21972 0.30014
# Poissons Ratio (z) = 0.50724 0.50724
#
# Static dielectric constant tensor:
#      x y z
#    x 1.594750 0.000000 0.000000 
#    y 0.000000 1.594750 0.000000 
#    z 0.000000 0.000000 1.594160 
# 
# From -- ./inp_files/1812.got.cif
#   From: 2010.05.17/outbox.cif.g08.bks.cpg/sg175_1_cif.got.tgz:1812.got - 2010.05.20 11:23:22.
