data_PCOD9581310
_publ_section_title
;
Structure prediction by ZEFSAII (Michael W. Deem and Ramdas Pophale) SiO2 
 PCOD9581310
Probable space group: P 6/M
;
_chemical_formula_sum "Si O2"
_cell_formula_units_Z 72
_cell_length_a 24.506956
_cell_length_b 24.506956
_cell_length_c 8.030232
_cell_angle_alpha 90.000000
_cell_angle_beta 90.000000
_cell_angle_gamma 120.000000
_cell_volume 4176.740239
_symmetry_space_group_name_H-M "P 6/M"
_symmetry_group_IT_number 175
_symmetry_cell_setting 'hexagonal'
loop_
_space_group_symop_operation_xyz
x,y,z
x-y,x,z
-y,x-y,z
-x,-y,z
-x+y,-x,z
y,-x+y,z
-x,-y,-z
-x+y,-x,-z
y,-x+y,-z
x,y,-z
x-y,x,-z
-y,x-y,-z
loop_
_atom_site_type_symbol
_atom_site_label
_atom_site_fract_x
_atom_site_fract_y
_atom_site_fract_z
Si Si1 0.408580 0.936609 0.195875
Si Si2 0.073043 0.710143 0.702777
Si Si3 0.854015 0.925673 0.296054
Si Si4 0.285038 0.926828 0.802543
Si Si5 0.484751 0.079338 0.692282
Si Si6 0.147328 0.289873 0.303076
O O1 0.335440 0.904723 0.244336
O O2 0.448794 0.902138 0.224145
O O3 0.444126 0.003012 0.292276
O O4 0.412789 0.952547 0.000000
O O5 0.073745 0.708680 0.500000
O O6 0.098532 0.663623 0.760745
O O7 0.112239 0.781717 0.763612
O O8 0.000750 0.680981 0.757718
O O9 0.891260 0.889938 0.244079
O O10 0.853678 0.924817 0.500000
O O11 0.781553 0.889532 0.237166
O O12 0.217224 0.890189 0.720144
O O13 0.275361 0.919649 0.000000
O O14 0.497402 0.097448 0.500000
O O15 0.154212 0.283104 0.500000
#
# Coordination Sequence:
#
# PCOD9581310 Si02
#       6
#    12  12  12  12  12  12
#     4   9  16  26  40  60  87 115 140 167 205 251
#     4   9  18  31  46  65  90 120 151 185 226 273
#     4   9  16  26  42  63  84 108 145 195 245 289
#     4  10  20  31  44  64  90 119 150 186 226 273
#     4   9  15  24  41  64  87 111 141 172 204 247
#     4  10  19  31  46  63  88 121 154 189 235 289
#
# _framework density 17.238323999999999
#
# number of rings (size 3 to 8) (size 9 to 14) (size 15 to 20)
#    0.000    2.667    0.000    3.667    0.000    6.667 
#    0.000    0.000    0.000    0.000    0.000    0.000 
#    1.667    2.667    1.000    0.000    1.333    0.000 
#
# Total GULP energy -400967.748335 kJ/mol
# GULP energy per Si atom -5568.996505 kJ/mol
# Density = 1.719909 g / cm^3
# Si number density = 17.238324 Si / 1000 Ang^3
#
#
#
# Elastic Constant Matrix: (Units=GPa)
#
#
# Indices 1 2 3 4 5 6 
#
# 1 114.8417 72.9614 -1.1272 0.0000 0.0000 0.0000
# 2 72.9614 114.8417 -1.1272 0.0000 0.0000 0.0000
# 3 -1.1272 -1.1272 9.5895 0.0000 0.0000 0.0000
# 4 0.0000 0.0000 0.0000 29.3469 0.0000 0.0000
# 5 0.0000 0.0000 0.0000 0.0000 29.3469 0.0000
# 6 0.0000 0.0000 0.0000 0.0000 0.0000 20.9401
#
#
#
# Elastic Compliance Matrix: (Units=1/GPa)
#
#
# Indices 1 2 3 4 5 6 
#
# 1 0.014605 -0.009273 0.000627 0.000000 0.000000 0.000000
# 2 -0.009273 0.014605 0.000627 0.000000 0.000000 0.000000
# 3 0.000627 0.000627 0.104428 0.000000 0.000000 0.000000
# 4 0.000000 0.000000 0.000000 0.034075 0.000000 0.000000
# 5 0.000000 0.000000 0.000000 0.000000 0.034075 0.000000
# 6 0.000000 0.000000 0.000000 0.000000 0.000000 0.047755
#
#
# Mechanical properties :
#
#
# Convention : Reuss Voigt Hill
#
# Bulk Modulus (GPa) = 8.50344 42.29858 25.40101
# Shear Modulus (GPa) = 16.40519 27.16450 21.78485
#
# Velocity S-wave (km/s) = 3.08826 3.97397 3.55878
# Velocity P-wave (km/s) = 4.20239 6.75628 5.62616
#
# Compressibility (1/GPa) = 0.11759950
#
# Stress axis : x y z
#
# Youngs Moduli (GPa) = 68.47007 68.47007 9.57598
#
# Poissons Ratio (x) = 0.63490 -0.00600
# Poissons Ratio (y) = 0.63490 -0.00600
# Poissons Ratio (z) = -0.04291 -0.04291
#
# Static dielectric constant tensor:
#      x y z
#    x 1.596950 0.000000 0.000000 
#    y 0.000000 1.596950 0.000000 
#    z 0.000000 0.000000 1.627060 
# 
# From -- ./inp_files/1183.got.cif
#   From: 2010.05.17/outbox.cif.g08.bks.cpg/sg175_1_cif.got.tgz:1183.got - 2010.05.20 11:23:22.
