data_PCOD9581500
_publ_section_title
;
Structure prediction by ZEFSAII (Michael W. Deem and Ramdas Pophale) SiO2 
 PCOD9581500
Probable space group: P 6/M
;
_chemical_formula_sum "Si O2"
_cell_formula_units_Z 60
_cell_length_a 14.353860
_cell_length_b 14.353860
_cell_length_c 14.627727
_cell_angle_alpha 90.000000
_cell_angle_beta 90.000000
_cell_angle_gamma 120.000000
_cell_volume 2610.026340
_symmetry_space_group_name_H-M "P 6/M"
_symmetry_group_IT_number 175
_symmetry_cell_setting 'hexagonal'
loop_
_space_group_symop_operation_xyz
x,y,z
x-y,x,z
-y,x-y,z
-x,-y,z
-x+y,-x,z
y,-x+y,z
-x,-y,-z
-x+y,-x,-z
y,-x+y,-z
x,y,-z
x-y,x,-z
-y,x-y,-z
loop_
_atom_site_type_symbol
_atom_site_label
_atom_site_fract_x
_atom_site_fract_y
_atom_site_fract_z
Si Si1 0.954998 0.188125 0.636830
Si Si2 0.121576 0.520817 0.706992
Si Si3 0.372005 0.929029 0.098139
Si Si4 0.204206 0.223764 0.857232
Si Si5 0.531027 0.797958 0.396613
O O1 0.967413 0.198857 0.747207
O O2 0.907926 0.263300 0.606640
O O3 0.069808 0.207443 0.607180
O O4 0.138704 0.489101 0.809069
O O5 0.153950 0.454195 0.638384
O O6 0.192735 0.643267 0.673781
O O7 0.000000 0.500000 0.701407
O O8 0.500000 0.000000 0.094270
O O9 0.324196 0.008677 0.110937
O O10 0.332448 0.871755 0.000000
O O11 0.212953 0.120579 0.887129
O O12 0.489715 0.779791 0.500000
#
# Coordination Sequence:
#
# PCOD9581500 Si02
#       5
#    12  12  12  12  12
#     4  10  20  36  59  90 130 174 218 262 315 384
#     4  11  24  45  68  94 131 171 218 279 346 410
#     4  10  22  41  66  95 131 178 230 283 340 406
#     4  10  20  38  66 102 143 185 227 276 338 410
#     4  12  25  41  65  96 128 169 223 280 340 405
#
# _framework density 22.988275000000002
#
# number of rings (size 3 to 8) (size 9 to 14) (size 15 to 20)
#    0.000    1.400    0.000    7.400    0.000    6.400 
#    0.000    3.000    0.000    3.200    0.000    0.000 
#    0.000    0.000    0.000    0.000    0.000    0.000 
#
# Total GULP energy -335275.601740 kJ/mol
# GULP energy per Si atom -5587.926696 kJ/mol
# Density = 2.293595 g / cm^3
# Si number density = 22.988275 Si / 1000 Ang^3
#
#
#
# Elastic Constant Matrix: (Units=GPa)
#
#
# Indices 1 2 3 4 5 6 
#
# 1 122.5471 45.0835 38.0755 0.0000 0.0000 0.0000
# 2 45.0835 122.5471 38.0755 0.0000 0.0000 0.0000
# 3 38.0755 38.0755 120.1487 0.0000 0.0000 0.0000
# 4 0.0000 0.0000 0.0000 -21.3512 0.0000 0.0000
# 5 0.0000 0.0000 0.0000 0.0000 -21.3512 0.0000
# 6 0.0000 0.0000 0.0000 0.0000 0.0000 38.7318
#
#
#
# Elastic Compliance Matrix: (Units=1/GPa)
#
#
# Indices 1 2 3 4 5 6 
#
# 1 0.009939 -0.002970 -0.002208 0.000000 0.000000 0.000000
# 2 -0.002970 0.009939 -0.002208 0.000000 0.000000 0.000000
# 3 -0.002208 -0.002208 0.009723 0.000000 0.000000 0.000000
# 4 0.000000 0.000000 0.000000 -0.046836 0.000000 0.000000
# 5 0.000000 0.000000 0.000000 0.000000 -0.046836 0.000000
# 6 0.000000 0.000000 0.000000 0.000000 0.000000 0.025819
#
#
# Mechanical properties :
#
#
# Convention : Reuss Voigt Hill
#
# Bulk Modulus (GPa) = 67.44661 67.52353 67.48507
# Shear Modulus (GPa) = -269.74983 15.47308 -127.13837
#
# Velocity S-wave (km/s) = -10.84422 2.59720 -7.44485
# Velocity P-wave (km/s) = 11.28684 6.19925 6.66941
#
# Compressibility (1/GPa) = 0.01482654
#
# Stress axis : x y z
#
# Youngs Moduli (GPa) = 100.61357 100.61357 102.85185
#
# Poissons Ratio (x) = 0.29885 0.22714
# Poissons Ratio (y) = 0.29885 0.22714
# Poissons Ratio (z) = 0.22220 0.22220
#
# Static dielectric constant tensor:
#      x y z
#    x 1.858770 0.000000 0.000000 
#    y 0.000000 1.858770 0.000000 
#    z 0.000000 0.000000 1.910950 
# 
# From -- ./inp_files/2356.got.cif
#   From: 2010.05.17/outbox.cif.g08.bks.cpg/sg175_2_cif.got.tgz:2356.got - 2010.05.20 11:23:22.
