data_PCOD9581641
_publ_section_title
;
Structure prediction by ZEFSAII (Michael W. Deem and Ramdas Pophale) SiO2 
 PCOD9581641
Probable space group: P 6/M
;
_chemical_formula_sum "Si O2"
_cell_formula_units_Z 66
_cell_length_a 20.339664
_cell_length_b 20.339664
_cell_length_c 9.843165
_cell_angle_alpha 90.000000
_cell_angle_beta 90.000000
_cell_angle_gamma 120.000000
_cell_volume 3526.573547
_symmetry_space_group_name_H-M "P 6/M"
_symmetry_group_IT_number 175
_symmetry_cell_setting 'hexagonal'
loop_
_space_group_symop_operation_xyz
x,y,z
x-y,x,z
-y,x-y,z
-x,-y,z
-x+y,-x,z
y,-x+y,z
-x,-y,-z
-x+y,-x,-z
y,-x+y,-z
x,y,-z
x-y,x,-z
-y,x-y,-z
loop_
_atom_site_type_symbol
_atom_site_label
_atom_site_fract_x
_atom_site_fract_y
_atom_site_fract_z
Si Si1 0.174933 0.349865 0.161669
Si Si2 0.315479 0.911682 0.651716
Si Si3 0.911683 0.315480 0.348284
Si Si4 0.385588 0.614412 0.000000
Si Si5 0.913548 0.086453 0.834800
Si Si6 0.544564 0.455436 0.219263
O O1 0.130948 0.387194 0.230315
O O2 0.256247 0.387194 0.230314
O O3 0.130510 0.261018 0.199521
O O4 0.178606 0.357212 0.000000
O O5 0.287284 0.882240 0.500000
O O6 0.389438 0.906961 0.687633
O O7 0.340250 1.000000 0.654826
O O8 0.882241 0.287284 0.500000
O O9 0.906962 0.389438 0.312368
O O10 0.414953 0.707476 0.000000
O O11 0.417308 0.582691 0.122734
O O12 0.000001 0.130641 0.786631
O O13 0.915466 0.084535 0.000000
O O14 0.500000 0.500000 0.160425
#
# Coordination Sequence:
#
# PCOD9581641 Si02
#       6
#    12  12  12   6  12  12
#     4  11  23  35  56  87 127 157 194 249 313 369
#     4  10  22  40  62  87 116 156 205 255 305 363
#     4  10  22  40  62  87 116 156 205 255 305 363
#     4  10  25  40  60  92 136 164 194 250 316 362
#     4   9  17  31  51  78 113 154 196 238 287 347
#     4  10  22  40  65  89 117 161 210 253 299 366
#
# _framework density 18.715050000000002
#
# number of rings (size 3 to 8) (size 9 to 14) (size 15 to 20)
#    0.182    1.818    0.000    2.636    5.091    5.091 
#    0.000    0.000    0.000    0.000    0.000    0.000 
#    0.000    8.727    0.000    0.000    0.000    0.000 
#
# Total GULP energy -367598.432110 kJ/mol
# GULP energy per Si atom -5569.673214 kJ/mol
# Density = 1.867245 g / cm^3
# Si number density = 18.715050 Si / 1000 Ang^3
#
#
#
# Elastic Constant Matrix: (Units=GPa)
#
#
# Indices 1 2 3 4 5 6 
#
# 1 116.2023 46.2487 40.6676 0.0000 0.0000 0.0000
# 2 46.2487 116.2023 40.6676 0.0000 0.0000 0.0000
# 3 40.6676 40.6676 94.9751 0.0000 0.0000 0.0000
# 4 0.0000 0.0000 0.0000 30.4963 0.0000 0.0000
# 5 0.0000 0.0000 0.0000 0.0000 30.4963 0.0000
# 6 0.0000 0.0000 0.0000 0.0000 0.0000 34.9768
#
#
#
# Elastic Compliance Matrix: (Units=1/GPa)
#
#
# Indices 1 2 3 4 5 6 
#
# 1 0.011065 -0.003230 -0.003355 0.000000 0.000000 0.000000
# 2 -0.003230 0.011065 -0.003355 0.000000 0.000000 0.000000
# 3 -0.003355 -0.003355 0.013402 0.000000 0.000000 0.000000
# 4 0.000000 0.000000 0.000000 0.032791 0.000000 0.000000
# 5 0.000000 0.000000 0.000000 0.000000 0.032791 0.000000
# 6 0.000000 0.000000 0.000000 0.000000 0.000000 0.028590
#
#
# Mechanical properties :
#
#
# Convention : Reuss Voigt Hill
#
# Bulk Modulus (GPa) = 63.88576 64.72752 64.30664
# Shear Modulus (GPa) = 32.29912 32.51359 32.40636
#
# Velocity S-wave (km/s) = 4.15883 4.17261 4.16572
# Velocity P-wave (km/s) = 7.56778 7.60757 7.58770
#
# Compressibility (1/GPa) = 0.01565294
#
# Stress axis : x y z
#
# Youngs Moduli (GPa) = 90.37210 90.37210 74.61380
#
# Poissons Ratio (x) = 0.29189 0.25034
# Poissons Ratio (y) = 0.29189 0.25034
# Poissons Ratio (z) = 0.30321 0.30321
#
# Static dielectric constant tensor:
#      x y z
#    x 1.662050 0.000000 0.000000 
#    y 0.000000 1.662050 0.000000 
#    z 0.000000 0.000000 1.636510 
# 
# From -- ./inp_files/970.got.cif
#   From: 2010.05.17/outbox.cif.g08.bks.cpg/sg175_1_cif.got.tgz:970.got - 2010.05.20 11:23:22.
