data_PCOD9581759
_publ_section_title
;
Structure prediction by ZEFSAII (Michael W. Deem and Ramdas Pophale) SiO2 
 PCOD9581759
Probable space group: P 63/M
;
_chemical_formula_sum "Si O2"
_cell_formula_units_Z 72
_cell_length_a 23.264786
_cell_length_b 23.264786
_cell_length_c 7.571216
_cell_angle_alpha 90.000000
_cell_angle_beta 90.000000
_cell_angle_gamma 120.000000
_cell_volume 3548.905149
_symmetry_space_group_name_H-M "P 63/M"
_symmetry_group_IT_number 176
_symmetry_cell_setting 'hexagonal'
loop_
_space_group_symop_operation_xyz
x,y,z
x-y,x,1/2+z
-y,x-y,z
-x,-y,1/2+z
-x+y,-x,z
y,-x+y,1/2+z
-x,-y,-z
-x+y,-x,1/2-z
y,-x+y,-z
x,y,1/2-z
x-y,x,-z
-y,x-y,1/2-z
loop_
_atom_site_type_symbol
_atom_site_label
_atom_site_fract_x
_atom_site_fract_y
_atom_site_fract_z
Si Si1 0.564318 0.785572 0.464477
Si Si2 0.612954 0.617237 0.036480
Si Si3 0.363878 0.855404 0.034168
Si Si4 0.151482 0.869931 0.955086
Si Si5 0.503202 0.132831 0.958630
Si Si6 0.984885 0.247292 0.043249
O O1 0.569086 0.788586 0.250000
O O2 0.512259 0.710435 0.515995
O O3 0.638418 0.808917 0.528040
O O4 0.536459 0.832255 0.530703
O O5 0.614421 0.621135 0.250000
O O6 0.552533 0.626558 0.976425
O O7 0.684488 0.675799 0.969705
O O8 0.600828 0.545903 0.982621
O O9 0.366422 0.856371 0.250000
O O10 0.424269 0.846228 0.970202
O O11 0.144564 0.881604 0.750000
O O12 0.077968 0.819513 0.030822
O O13 0.196662 0.943349 0.032348
O O14 0.511318 0.147998 0.750000
O O15 0.968836 0.246746 0.250000
#
# Coordination Sequence:
#
# PCOD9581759 Si02
#       6
#    12  12  12  12  12  12
#     4  10  19  34  53  73 106 145 179 229 283 320
#     4  10  18  32  53  73 105 141 167 213 275 322
#     4   9  18  33  49  70 101 139 177 215 269 320
#     4  11  22  36  58  86 112 141 182 222 262 326
#     4  10  20  32  50  75 101 134 182 225 262 319
#     4  10  21  37  57  83 115 147 174 215 276 325
#
# _framework density 20.287946999999999
#
# number of rings (size 3 to 8) (size 9 to 14) (size 15 to 20)
#    0.000    2.000    3.333    1.000    0.000    2.000 
#    1.000    0.833    0.000    0.333    0.000    0.000 
#    0.000    0.000    0.000    0.000    0.000    0.000 
#
# Total GULP energy -401952.650541 kJ/mol
# GULP energy per Si atom -5582.675702 kJ/mol
# Density = 2.024177 g / cm^3
# Si number density = 20.287947 Si / 1000 Ang^3
#
#
#
# Elastic Constant Matrix: (Units=GPa)
#
#
# Indices 1 2 3 4 5 6 
#
# 1 78.8116 13.9278 -6.2638 0.0000 0.0000 0.0000
# 2 13.9278 78.8116 -6.2638 0.0000 0.0000 0.0000
# 3 -6.2638 -6.2638 40.5564 0.0000 0.0000 0.0000
# 4 0.0000 0.0000 0.0000 -4.1825 0.0000 0.0000
# 5 0.0000 0.0000 0.0000 0.0000 -4.1825 0.0000
# 6 0.0000 0.0000 0.0000 0.0000 0.0000 32.4419
#
#
#
# Elastic Compliance Matrix: (Units=1/GPa)
#
#
# Indices 1 2 3 4 5 6 
#
# 1 0.013212 -0.002200 0.001701 0.000000 0.000000 0.000000
# 2 -0.002200 0.013212 0.001701 0.000000 0.000000 0.000000
# 3 0.001701 0.001701 0.025182 0.000000 0.000000 0.000000
# 4 0.000000 0.000000 0.000000 -0.239092 0.000000 0.000000
# 5 0.000000 0.000000 0.000000 0.000000 -0.239092 0.000000
# 6 0.000000 0.000000 0.000000 0.000000 0.000000 0.030824
#
#
# Mechanical properties :
#
#
# Convention : Reuss Voigt Hill
#
# Bulk Modulus (GPa) = 18.51467 22.33109 20.42288
# Shear Modulus (GPa) = -13.15263 17.93401 2.39069
#
# Velocity S-wave (km/s) = -2.54893 2.97640 1.08671
# Velocity P-wave (km/s) = 0.69500 4.77942 3.41511
#
# Compressibility (1/GPa) = 0.05401122
#
# Stress axis : x y z
#
# Youngs Moduli (GPa) = 75.68636 75.68636 39.71030
#
# Poissons Ratio (x) = 0.16649 -0.06754
# Poissons Ratio (y) = 0.16649 -0.06754
# Poissons Ratio (z) = -0.12873 -0.12873
#
# Static dielectric constant tensor:
#      x y z
#    x 1.709050 0.000000 0.000000 
#    y 0.000000 1.709050 0.000000 
#    z 0.000000 0.000000 1.764310 
# 
# From -- ./inp_files/1136.got.cif
#   From: 2010.05.17/outbox.cif.g08.bks.cpg/sg176_1_cif.got.tgz:1136.got - 2010.06.03 11:36:45.
