data_PCOD9581679
_publ_section_title
;
Structure prediction by ZEFSAII (Michael W. Deem and Ramdas Pophale) SiO2 
 PCOD9581679
Probable space group: P 6/M
;
_chemical_formula_sum "Si O2"
_cell_formula_units_Z 48
_cell_length_a 15.319740
_cell_length_b 15.319740
_cell_length_c 14.147614
_cell_angle_alpha 90.000000
_cell_angle_beta 90.000000
_cell_angle_gamma 120.000000
_cell_volume 2875.521527
_symmetry_space_group_name_H-M "P 6/M"
_symmetry_group_IT_number 175
_symmetry_cell_setting 'hexagonal'
loop_
_space_group_symop_operation_xyz
x,y,z
x-y,x,z
-y,x-y,z
-x,-y,z
-x+y,-x,z
y,-x+y,z
-x,-y,-z
-x+y,-x,-z
y,-x+y,-z
x,y,-z
x-y,x,-z
-y,x-y,-z
loop_
_atom_site_type_symbol
_atom_site_label
_atom_site_fract_x
_atom_site_fract_y
_atom_site_fract_z
Si Si1 0.072490 0.845644 0.614988
Si Si2 0.418635 0.885725 0.305466
Si Si3 0.546057 0.795502 0.386979
Si Si4 0.202706 0.579066 0.106077
O O1 0.071460 0.846820 0.500000
O O2 0.116591 0.773836 0.641907
O O3 0.959378 0.809138 0.646535
O O4 0.462842 0.814908 0.339253
O O5 0.311505 0.843554 0.356002
O O6 0.401311 0.871155 0.192956
O O7 0.500000 0.000000 0.330115
O O8 0.536442 0.796968 0.500000
O O9 0.298273 0.560430 0.113988
O O10 0.160874 0.551081 0.000000
#
# Coordination Sequence:
#
# PCOD9581679 Si02
#       4
#    12  12  12  12
#     4   9  17  30  47  65  87 119 161 207 248 280
#     4  12  22  34  54  77 100 135 174 205 257 308
#     4  11  22  35  47  68 103 138 173 210 241 282
#     4   8  15  33  57  74  98 130 161 203 258 310
#
# _framework density 16.692625
#
# number of rings (size 3 to 8) (size 9 to 14) (size 15 to 20)
#    0.500    1.500    2.500    3.000    0.000    5.500 
#    0.000    0.000    0.000    0.000    0.000    0.000 
#    0.000    0.000    0.000    0.000    0.000   17.750 
#
# Total GULP energy -267529.478148 kJ/mol
# GULP energy per Si atom -5573.530795 kJ/mol
# Density = 1.665463 g / cm^3
# Si number density = 16.692625 Si / 1000 Ang^3
#
#
#
# Elastic Constant Matrix: (Units=GPa)
#
#
# Indices 1 2 3 4 5 6 
#
# 1 35.0908 -17.7591 0.6594 0.0000 0.0000 0.0000
# 2 -17.7591 35.0908 0.6594 0.0000 0.0000 0.0000
# 3 0.6594 0.6594 63.8072 0.0000 0.0000 0.0000
# 4 0.0000 0.0000 0.0000 8.3423 0.0000 0.0000
# 5 0.0000 0.0000 0.0000 0.0000 8.3423 0.0000
# 6 0.0000 0.0000 0.0000 0.0000 0.0000 26.4249
#
#
#
# Elastic Compliance Matrix: (Units=1/GPa)
#
#
# Indices 1 2 3 4 5 6 
#
# 1 0.038332 0.019411 -0.000597 0.000000 0.000000 0.000000
# 2 0.019411 0.038332 -0.000597 0.000000 0.000000 0.000000
# 3 -0.000597 -0.000597 0.015685 0.000000 0.000000 0.000000
# 4 0.000000 0.000000 0.000000 0.119871 0.000000 0.000000
# 5 0.000000 0.000000 0.000000 0.000000 0.119871 0.000000
# 6 0.000000 0.000000 0.000000 0.000000 0.000000 0.037843
#
#
# Mechanical properties :
#
#
# Convention : Reuss Voigt Hill
#
# Bulk Modulus (GPa) = 7.76496 11.23427 9.49961
# Shear Modulus (GPa) = 13.28274 18.65050 15.96662
#
# Velocity S-wave (km/s) = 2.82392 3.34621 3.09610
# Velocity P-wave (km/s) = 3.91082 4.65556 4.29935
#
# Compressibility (1/GPa) = 0.12878373
#
# Stress axis : x y z
#
# Youngs Moduli (GPa) = 26.08764 26.08764 63.75705
#
# Poissons Ratio (x) = -0.50638 0.03805
# Poissons Ratio (y) = -0.50638 0.03805
# Poissons Ratio (z) = 0.01557 0.01557
#
# Static dielectric constant tensor:
#      x y z
#    x 1.568320 0.000000 0.000000 
#    y 0.000000 1.568320 0.000000 
#    z 0.000000 0.000000 1.543100 
# 
# From -- ./inp_files/2254.got.cif
#   From: 2010.05.17/outbox.cif.g08.bks.cpg/sg175_2_cif.got.tgz:2254.got - 2010.05.20 11:23:22.
