data_PCOD9581936
_publ_section_title
;
Structure prediction by ZEFSAII (Michael W. Deem and Ramdas Pophale) SiO2 
 PCOD9581936
Probable space group: P 63/M
;
_chemical_formula_sum "Si O2"
_cell_formula_units_Z 22
_cell_length_a 6.941019
_cell_length_b 6.941019
_cell_length_c 24.748808
_cell_angle_alpha 90.000000
_cell_angle_beta 90.000000
_cell_angle_gamma 120.000000
_cell_volume 1032.598250
_symmetry_space_group_name_H-M "P 63/M"
_symmetry_group_IT_number 176
_symmetry_cell_setting 'hexagonal'
loop_
_space_group_symop_operation_xyz
x,y,z
x-y,x,1/2+z
-y,x-y,z
-x,-y,1/2+z
-x+y,-x,z
y,-x+y,1/2+z
-x,-y,-z
-x+y,-x,1/2-z
y,-x+y,-z
x,y,1/2-z
x-y,x,-z
-y,x-y,1/2-z
loop_
_atom_site_type_symbol
_atom_site_label
_atom_site_fract_x
_atom_site_fract_y
_atom_site_fract_z
Si Si1 0.720180 0.110448 0.250000
Si Si2 0.267945 0.388571 0.138929
Si Si3 0.000000 0.000000 0.063923
O O1 0.483493 0.108972 0.250000
O O2 0.725007 0.988427 0.195745
O O3 0.508098 0.612547 0.136283
O O4 0.205582 0.218939 0.090168
O O5 0.000000 0.000000 0.000000
#
# Coordination Sequence:
#
# PCOD9581936 Si02
#       3
#     6  12   4
#     4  10  20  36  72 100 136 172 206 272 348 418
#     4  10  23  43  67 102 134 175 226 274 347 416
#     4  12  27  46  68  97 135 186 244 296 331 381
#
# _framework density 21.305479999999999
#
# number of rings (size 3 to 8) (size 9 to 14) (size 15 to 20)
#    1.636    0.000    0.000    4.909    0.000    4.364 
#    3.273    0.000    0.000    0.000    0.000    0.000 
#    0.000    0.000    0.000    0.000    0.000    0.000 
#
# Total GULP energy -122743.781023 kJ/mol
# GULP energy per Si atom -5579.262774 kJ/mol
# Density = 2.125699 g / cm^3
# Si number density = 21.305480 Si / 1000 Ang^3
#
#
#
# Elastic Constant Matrix: (Units=GPa)
#
#
# Indices 1 2 3 4 5 6 
#
# 1 96.5991 29.3801 66.8533 0.0000 0.0000 0.0000
# 2 29.3801 96.5991 66.8533 0.0000 0.0000 0.0000
# 3 66.8533 66.8533 244.1321 0.0000 0.0000 0.0000
# 4 0.0000 0.0000 0.0000 17.5642 0.0000 0.0000
# 5 0.0000 0.0000 0.0000 0.0000 17.5642 0.0000
# 6 0.0000 0.0000 0.0000 0.0000 0.0000 33.6095
#
#
#
# Elastic Compliance Matrix: (Units=1/GPa)
#
#
# Indices 1 2 3 4 5 6 
#
# 1 0.013033 -0.001843 -0.003064 0.000000 0.000000 0.000000
# 2 -0.001843 0.013033 -0.003064 0.000000 0.000000 0.000000
# 3 -0.003064 -0.003064 0.005774 0.000000 0.000000 0.000000
# 4 0.000000 0.000000 0.000000 0.056934 0.000000 0.000000
# 5 0.000000 0.000000 0.000000 0.000000 0.056934 0.000000
# 6 0.000000 0.000000 0.000000 0.000000 0.000000 0.029754
#
#
# Mechanical properties :
#
#
# Convention : Reuss Voigt Hill
#
# Bulk Modulus (GPa) = 62.90348 84.83372 73.86860
# Shear Modulus (GPa) = 25.41871 32.03049 28.72460
#
# Velocity S-wave (km/s) = 3.45782 3.88157 3.67580
# Velocity P-wave (km/s) = 6.74764 7.74551 7.26373
#
# Compressibility (1/GPa) = 0.01589737
#
# Stress axis : x y z
#
# Youngs Moduli (GPa) = 76.72585 76.72585 173.17809
#
# Poissons Ratio (x) = 0.14143 0.53067
# Poissons Ratio (y) = 0.14143 0.53067
# Poissons Ratio (z) = 0.23511 0.23511
#
# Static dielectric constant tensor:
#      x y z
#    x 1.821290 0.000000 0.000000 
#    y 0.000000 1.821290 0.000000 
#    z 0.000000 0.000000 1.674530 
# 
# From -- ./inp_files/3040.got.cif
#   From: 2010.05.17/outbox.cif.g08.bks.cpg/sg176_2_cif.got.tgz:3040.got - 2010.06.03 11:36:45.
