data_PCOD9581454
_publ_section_title
;
Structure prediction by ZEFSAII (Michael W. Deem and Ramdas Pophale) SiO2 
 PCOD9581454
Probable space group: P 6/M
;
_chemical_formula_sum "Si O2"
_cell_formula_units_Z 60
_cell_length_a 22.969007
_cell_length_b 22.969007
_cell_length_c 7.310015
_cell_angle_alpha 90.000000
_cell_angle_beta 90.000000
_cell_angle_gamma 120.000000
_cell_volume 3339.899048
_symmetry_space_group_name_H-M "P 6/M"
_symmetry_group_IT_number 175
_symmetry_cell_setting 'hexagonal'
loop_
_space_group_symop_operation_xyz
x,y,z
x-y,x,z
-y,x-y,z
-x,-y,z
-x+y,-x,z
y,-x+y,z
-x,-y,-z
-x+y,-x,-z
y,-x+y,-z
x,y,-z
x-y,x,-z
-y,x-y,-z
loop_
_atom_site_type_symbol
_atom_site_label
_atom_site_fract_x
_atom_site_fract_y
_atom_site_fract_z
Si Si1 0.666367 0.199125 0.277335
Si Si2 0.389280 0.312354 0.282045
Si Si3 0.199125 0.666367 0.722665
Si Si4 0.790344 0.077274 0.000000
Si Si5 0.209656 0.286930 0.000000
Si Si6 0.389280 0.076925 0.282045
O O1 0.665990 0.200050 0.500000
O O2 0.668597 0.132571 0.224807
O O3 0.733837 0.266163 0.218679
O O4 0.599424 0.198849 0.216519
O O5 0.383376 0.300145 0.500000
O O6 0.369990 0.369990 0.244560
O O7 0.334891 0.247301 0.173196
O O8 0.200050 0.665990 0.500000
O O9 0.132570 0.668597 0.775193
O O10 0.867867 0.132133 0.000000
O O11 0.771565 0.000000 0.000000
O O12 0.247301 0.334891 0.173196
O O13 0.383376 0.083230 0.500000
#
# Coordination Sequence:
#
# PCOD9581454 Si02
#       6
#    12  12  12   6   6  12
#     4   9  16  26  42  64  91 124 161 200 241 286
#     4   9  18  32  50  72  96 123 157 198 242 283
#     4   9  16  26  42  64  91 124 161 200 241 286
#     4  10  20  34  53  76 101 127 155 189 230 276
#     4  10  20  34  53  76 101 127 155 189 230 276
#     4   9  18  32  50  72  96 123 157 198 242 283
#
# _framework density 17.964614999999998
#
# number of rings (size 3 to 8) (size 9 to 14) (size 15 to 20)
#    0.000    2.800    0.000    1.600    0.000    4.800 
#    0.000    5.000    0.000    3.800    0.000    2.800 
#    0.000    0.000    0.000   10.000    0.000    0.000 
#
# Total GULP energy -334883.077629 kJ/mol
# GULP energy per Si atom -5581.384627 kJ/mol
# Density = 1.792373 g / cm^3
# Si number density = 17.964615 Si / 1000 Ang^3
#
#
#
# Elastic Constant Matrix: (Units=GPa)
#
#
# Indices 1 2 3 4 5 6 
#
# 1 151.4429 121.0467 28.1364 0.0000 0.0000 0.0000
# 2 121.0467 151.4429 28.1364 0.0000 0.0000 0.0000
# 3 28.1364 28.1364 69.7522 0.0000 0.0000 0.0000
# 4 0.0000 0.0000 0.0000 14.4502 0.0000 0.0000
# 5 0.0000 0.0000 0.0000 0.0000 14.4502 0.0000
# 6 0.0000 0.0000 0.0000 0.0000 0.0000 15.1981
#
#
#
# Elastic Compliance Matrix: (Units=1/GPa)
#
#
# Indices 1 2 3 4 5 6 
#
# 1 0.018451 -0.014448 -0.001615 0.000000 0.000000 0.000000
# 2 -0.014448 0.018451 -0.001615 0.000000 0.000000 0.000000
# 3 -0.001615 -0.001615 0.015639 0.000000 0.000000 0.000000
# 4 0.000000 0.000000 0.000000 0.069203 0.000000 0.000000
# 5 0.000000 0.000000 0.000000 0.000000 0.069203 0.000000
# 6 0.000000 0.000000 0.000000 0.000000 0.000000 0.065798
#
#
# Mechanical properties :
#
#
# Convention : Reuss Voigt Hill
#
# Bulk Modulus (GPa) = 58.18508 80.80853 69.49680
# Shear Modulus (GPa) = 16.78816 21.84095 19.31456
#
# Velocity S-wave (km/s) = 3.06030 3.49058 3.28250
# Velocity P-wave (km/s) = 6.70420 7.83104 7.28943
#
# Compressibility (1/GPa) = 0.01718654
#
# Stress axis : x y z
#
# Youngs Moduli (GPa) = 54.19731 54.19731 63.94165
#
# Poissons Ratio (x) = 0.78303 0.10326
# Poissons Ratio (y) = 0.78303 0.10326
# Poissons Ratio (z) = 0.08752 0.08752
#
# Static dielectric constant tensor:
#      x y z
#    x 1.587040 0.000000 0.000000 
#    y 0.000000 1.587040 0.000000 
#    z 0.000000 0.000000 1.669940 
# 
# From -- ./inp_files/919.got.cif
#   From: 2010.05.17/outbox.cif.g08.bks.cpg/sg175_1_cif.got.tgz:919.got - 2010.05.20 11:23:22.
