data_PCOD9581755
_publ_section_title
;
Structure prediction by ZEFSAII (Michael W. Deem and Ramdas Pophale) SiO2 
 PCOD9581755
Probable space group: P 63/M
;
_chemical_formula_sum "Si O2"
_cell_formula_units_Z 78
_cell_length_a 24.761605
_cell_length_b 24.761605
_cell_length_c 8.218891
_cell_angle_alpha 90.000000
_cell_angle_beta 90.000000
_cell_angle_gamma 120.000000
_cell_volume 4364.167747
_symmetry_space_group_name_H-M "P 63/M"
_symmetry_group_IT_number 176
_symmetry_cell_setting 'hexagonal'
loop_
_space_group_symop_operation_xyz
x,y,z
x-y,x,1/2+z
-y,x-y,z
-x,-y,1/2+z
-x+y,-x,z
y,-x+y,1/2+z
-x,-y,-z
-x+y,-x,1/2-z
y,-x+y,-z
x,y,1/2-z
x-y,x,-z
-y,x-y,1/2-z
loop_
_atom_site_type_symbol
_atom_site_label
_atom_site_fract_x
_atom_site_fract_y
_atom_site_fract_z
Si Si1 0.985509 0.550542 0.070071
Si Si2 0.309231 0.587296 0.250000
Si Si3 0.130593 0.732814 0.443814
Si Si4 0.748682 0.144263 0.942809
Si Si5 0.641481 0.162494 0.428883
Si Si6 0.996754 0.669991 0.937488
Si Si7 0.337096 0.535593 0.941422
O O1 0.014021 0.573471 0.250000
O O2 0.911720 0.514156 0.086453
O O3 0.000000 0.500000 0.000000
O O4 0.001574 0.607476 0.952536
O O5 0.379314 0.647447 0.250000
O O6 0.301474 0.551438 0.418010
O O7 0.138005 0.729243 0.250000
O O8 0.184414 0.801217 0.503015
O O9 0.061013 0.719632 0.477979
O O10 0.146273 0.682549 0.525810
O O11 0.753534 0.138535 0.750000
O O12 0.720463 0.072955 0.007705
O O13 0.699766 0.168751 0.970297
O O14 0.665557 0.190932 0.250000
O O15 0.588503 0.179419 0.474101
O O16 0.998616 0.687756 0.750000
O O17 0.325605 0.541853 0.750000
#
# Coordination Sequence:
#
# PCOD9581755 Si02
#       7
#    12   6  12  12  12  12  12
#     4  10  18  30  47  68  95 127 162 206 257 306
#     4  10  26  42  54  72 106 140 176 228 280 334
#     4  11  22  37  58  80 106 140 176 220 269 319
#     4   9  21  36  56  77 103 138 176 214 268 321
#     4   9  20  33  48  71  98 126 168 216 261 313
#     4  10  20  36  52  77 106 133 170 217 259 314
#     4  11  23  38  57  81 104 138 181 228 275 335
#
# _framework density 17.872824000000001
#
# number of rings (size 3 to 8) (size 9 to 14) (size 15 to 20)
#    0.154    1.846    0.769    2.308    3.231    4.308 
#    0.000    0.000    0.000    0.000    0.000    0.000 
#    0.000    0.000    0.000    0.462    0.000    5.538 
#
# Total GULP energy -434411.234760 kJ/mol
# GULP energy per Si atom -5569.374805 kJ/mol
# Density = 1.783214 g / cm^3
# Si number density = 17.872824 Si / 1000 Ang^3
#
#
#
# Elastic Constant Matrix: (Units=GPa)
#
#
# Indices 1 2 3 4 5 6 
#
# 1 98.6463 45.3048 16.0876 0.0000 0.0000 0.0000
# 2 45.3048 98.6463 16.0876 0.0000 0.0000 0.0000
# 3 16.0876 16.0876 66.2470 0.0000 0.0000 0.0000
# 4 0.0000 0.0000 0.0000 13.4778 0.0000 0.0000
# 5 0.0000 0.0000 0.0000 0.0000 13.4778 0.0000
# 6 0.0000 0.0000 0.0000 0.0000 0.0000 26.6708
#
#
#
# Elastic Compliance Matrix: (Units=1/GPa)
#
#
# Indices 1 2 3 4 5 6 
#
# 1 0.013046 -0.005701 -0.001784 0.000000 0.000000 0.000000
# 2 -0.005701 0.013046 -0.001784 0.000000 0.000000 0.000000
# 3 -0.001784 -0.001784 0.015961 0.000000 0.000000 0.000000
# 4 0.000000 0.000000 0.000000 0.074196 0.000000 0.000000
# 5 0.000000 0.000000 0.000000 0.000000 0.074196 0.000000
# 6 0.000000 0.000000 0.000000 0.000000 0.000000 0.037494
#
#
# Mechanical properties :
#
#
# Convention : Reuss Voigt Hill
#
# Bulk Modulus (GPa) = 42.52207 46.49995 44.51101
# Shear Modulus (GPa) = 19.66055 23.12925 21.39490
#
# Velocity S-wave (km/s) = 3.32026 3.60127 3.46361
# Velocity P-wave (km/s) = 6.20822 6.58527 6.39952
#
# Compressibility (1/GPa) = 0.02351720
#
# Stress axis : x y z
#
# Youngs Moduli (GPa) = 76.65002 76.65002 62.65118
#
# Poissons Ratio (x) = 0.43697 0.11176
# Poissons Ratio (y) = 0.43697 0.11176
# Poissons Ratio (z) = 0.13673 0.13673
#
# Static dielectric constant tensor:
#      x y z
#    x 1.787200 0.000000 0.000000 
#    y 0.000000 1.787200 0.000000 
#    z 0.000000 0.000000 1.751640 
# 
# From -- ./inp_files/1291.got.cif
#   From: 2010.05.17/outbox.cif.g08.bks.cpg/sg176_1_cif.got.tgz:1291.got - 2010.06.03 11:36:45.
