data_PCOD9581583
_publ_section_title
;
Structure prediction by ZEFSAII (Michael W. Deem and Ramdas Pophale) SiO2 
 PCOD9581583
Probable space group: P 6/M
;
_chemical_formula_sum "Si O2"
_cell_formula_units_Z 48
_cell_length_a 17.231001
_cell_length_b 17.231001
_cell_length_c 9.496782
_cell_angle_alpha 90.000000
_cell_angle_beta 90.000000
_cell_angle_gamma 120.000000
_cell_volume 2441.901355
_symmetry_space_group_name_H-M "P 6/M"
_symmetry_group_IT_number 175
_symmetry_cell_setting 'hexagonal'
loop_
_space_group_symop_operation_xyz
x,y,z
x-y,x,z
-y,x-y,z
-x,-y,z
-x+y,-x,z
y,-x+y,z
-x,-y,-z
-x+y,-x,-z
y,-x+y,-z
x,y,-z
x-y,x,-z
-y,x-y,-z
loop_
_atom_site_type_symbol
_atom_site_label
_atom_site_fract_x
_atom_site_fract_y
_atom_site_fract_z
Si Si1 0.504039 0.631712 0.660862
Si Si2 0.933799 0.791310 0.663124
Si Si3 0.181403 0.381645 0.166976
Si Si4 0.351255 0.434577 0.660903
O O1 0.505015 0.662250 0.500000
O O2 0.533449 0.711110 0.770338
O O3 0.409861 0.541540 0.684784
O O4 0.578925 0.601270 0.669460
O O5 0.868003 0.831760 0.683418
O O6 0.924811 0.760522 0.500000
O O7 0.900708 0.707519 0.765945
O O8 0.271237 0.388571 0.230034
O O9 0.179034 0.379276 0.000000
O O10 0.316056 0.417955 0.500000
#
# Coordination Sequence:
#
# PCOD9581583 Si02
#       4
#    12  12  12  12
#     4   9  19  38  62  83 104 138 187 236 278 322
#     4  10  21  38  60  84 112 150 198 247 287 326
#     4  12  24  35  53  85 120 152 183 221 278 348
#     4   9  19  38  62  83 104 138 187 236 278 322
#
# _framework density 19.656814000000001
#
# number of rings (size 3 to 8) (size 9 to 14) (size 15 to 20)
#    0.000    2.000    0.000    5.500    0.000   10.000 
#    1.500    2.500    0.000    1.500    0.000    0.000 
#    0.000    0.000    0.000    0.000    0.000    0.000 
#
# Total GULP energy -268276.868612 kJ/mol
# GULP energy per Si atom -5589.101429 kJ/mol
# Density = 1.961207 g / cm^3
# Si number density = 19.656814 Si / 1000 Ang^3
#
#
#
# Elastic Constant Matrix: (Units=GPa)
#
#
# Indices 1 2 3 4 5 6 
#
# 1 51.8577 3.9333 37.3480 0.0000 0.0000 0.0000
# 2 3.9333 51.8577 37.3480 0.0000 0.0000 0.0000
# 3 37.3480 37.3480 122.2682 0.0000 0.0000 0.0000
# 4 0.0000 0.0000 0.0000 -25.8731 0.0000 0.0000
# 5 0.0000 0.0000 0.0000 0.0000 -25.8731 0.0000
# 6 0.0000 0.0000 0.0000 0.0000 0.0000 23.9622
#
#
#
# Elastic Compliance Matrix: (Units=1/GPa)
#
#
# Indices 1 2 3 4 5 6 
#
# 1 0.025596 0.004730 -0.009264 0.000000 0.000000 0.000000
# 2 0.004730 0.025596 -0.009264 0.000000 0.000000 0.000000
# 3 -0.009264 -0.009264 0.013838 0.000000 0.000000 0.000000
# 4 0.000000 0.000000 0.000000 -0.038650 0.000000 0.000000
# 5 0.000000 0.000000 0.000000 0.000000 -0.038650 0.000000
# 6 0.000000 0.000000 0.000000 0.000000 0.000000 0.041732
#
#
# Mechanical properties :
#
#
# Convention : Reuss Voigt Hill
#
# Bulk Modulus (GPa) = 26.71154 42.58249 34.64701
# Shear Modulus (GPa) = 71.90569 4.26684 38.08627
#
# Velocity S-wave (km/s) = 6.05475 1.47492 4.40655
# Velocity P-wave (km/s) = 7.90559 4.96090 6.59958
#
# Compressibility (1/GPa) = 0.03743700
#
# Stress axis : x y z
#
# Youngs Moduli (GPa) = 39.06801 39.06801 72.26455
#
# Poissons Ratio (x) = -0.18480 0.66943
# Poissons Ratio (y) = -0.18480 0.66943
# Poissons Ratio (z) = 0.36191 0.36191
#
# Static dielectric constant tensor:
#      x y z
#    x 1.709300 0.000000 0.000000 
#    y 0.000000 1.709300 0.000000 
#    z 0.000000 0.000000 1.644250 
# 
# From -- ./inp_files/517.got.cif
#   From: 2010.05.17/outbox.cif.g08.bks.cpg/sg175_1_cif.got.tgz:517.got - 2010.05.20 11:23:22.
