data_PCOD9581645
_publ_section_title
;
Structure prediction by ZEFSAII (Michael W. Deem and Ramdas Pophale) SiO2 
 PCOD9581645
Probable space group: P 6/M
;
_chemical_formula_sum "Si O2"
_cell_formula_units_Z 70
_cell_length_a 15.205129
_cell_length_b 15.205129
_cell_length_c 16.032482
_cell_angle_alpha 90.000000
_cell_angle_beta 90.000000
_cell_angle_gamma 120.000000
_cell_volume 3210.048623
_symmetry_space_group_name_H-M "P 6/M"
_symmetry_group_IT_number 175
_symmetry_cell_setting 'hexagonal'
loop_
_space_group_symop_operation_xyz
x,y,z
x-y,x,z
-y,x-y,z
-x,-y,z
-x+y,-x,z
y,-x+y,z
-x,-y,-z
-x+y,-x,-z
y,-x+y,-z
x,y,-z
x-y,x,-z
-y,x-y,-z
loop_
_atom_site_type_symbol
_atom_site_label
_atom_site_fract_x
_atom_site_fract_y
_atom_site_fract_z
Si Si1 0.138408 0.232629 0.173225
Si Si2 0.769442 0.919846 0.625529
Si Si3 0.107899 0.526151 0.664519
Si Si4 0.500000 0.500000 0.173706
Si Si5 0.552059 0.841796 0.900998
Si Si6 0.258868 0.463153 0.405529
Si Si7 0.666668 0.333335 0.898262
O O1 0.185181 0.162954 0.145076
O O2 0.144989 0.232087 0.273686
O O3 0.204863 0.347223 0.142544
O O4 0.809849 0.844682 0.598349
O O5 0.654653 0.880284 0.598373
O O6 0.076967 0.492492 0.760296
O O7 0.177244 0.646944 0.654823
O O8 0.162929 0.472671 0.622505
O O9 0.000000 0.500000 0.623866
O O10 0.399433 0.461457 0.120463
O O11 0.448603 0.742594 0.872117
O O12 0.561246 0.834552 0.000000
O O13 0.288835 0.501390 0.500000
O O14 0.666667 0.333334 0.000000
#
# Coordination Sequence:
#
# PCOD9581645 Si02
#       7
#    12  12  12   6  12  12   4
#     4  10  23  42  70  99 139 183 234 285 343 407
#     4  10  22  40  64  93 129 171 221 275 332 396
#     4  10  25  44  65  96 134 173 226 271 341 400
#     4  10  25  44  67  96 134 182 228 286 341 416
#     4  11  24  43  70 103 138 183 232 289 350 413
#     4  12  24  41  67  97 132 176 220 275 337 406
#     4   9  24  45  63  96 144 177 220 281 349 411
#
# _framework density 21.806522999999999
#
# number of rings (size 3 to 8) (size 9 to 14) (size 15 to 20)
#    0.514    1.029    0.000    3.514    7.200    6.857 
#    0.000    0.000    0.000    2.057    0.000    0.000 
#    0.000    0.000    0.000    0.000    0.000    0.000 
#
# Total GULP energy -391558.706057 kJ/mol
# GULP energy per Si atom -5593.695801 kJ/mol
# Density = 2.175689 g / cm^3
# Si number density = 21.806523 Si / 1000 Ang^3
#
#
#
# Elastic Constant Matrix: (Units=GPa)
#
#
# Indices 1 2 3 4 5 6 
#
# 1 121.2275 47.7981 18.9664 0.0000 0.0000 0.0000
# 2 47.7981 121.2288 18.9669 0.0000 0.0000 -0.0002
# 3 18.9664 18.9669 44.9126 0.0000 0.0000 0.0001
# 4 0.0000 0.0000 0.0000 6.6650 0.0011 0.0000
# 5 0.0000 0.0000 0.0000 0.0011 6.6605 0.0000
# 6 0.0000 -0.0002 0.0001 0.0000 0.0000 36.7148
#
#
#
# Elastic Compliance Matrix: (Units=1/GPa)
#
#
# Indices 1 2 3 4 5 6 
#
# 1 0.010077 -0.003541 -0.002760 0.000000 0.000000 0.000000
# 2 -0.003541 0.010077 -0.002760 0.000000 0.000000 0.000000
# 3 -0.002760 -0.002760 0.024597 0.000000 0.000000 0.000000
# 4 0.000000 0.000000 0.000000 0.150037 -0.000024 0.000000
# 5 0.000000 0.000000 0.000000 -0.000024 0.150138 0.000000
# 6 0.000000 0.000000 0.000000 0.000000 0.000000 0.027237
#
#
# Mechanical properties :
#
#
# Convention : Reuss Voigt Hill
#
# Bulk Modulus (GPa) = 37.55471 50.98129 44.26800
# Shear Modulus (GPa) = 12.52626 23.45057 17.98841
#
# Velocity S-wave (km/s) = 2.39932 3.28287 2.87524
# Velocity P-wave (km/s) = 4.99348 6.14812 5.60063
#
# Compressibility (1/GPa) = 0.02662782
#
# Stress axis : x y z
#
# Youngs Moduli (GPa) = 99.23518 99.23596 40.65612
#
# Poissons Ratio (x) = 0.35143 0.11221
# Poissons Ratio (y) = 0.35143 0.11221
# Poissons Ratio (z) = 0.27388 0.27390
#
# Static dielectric constant tensor:
#      x y z
#    x 1.772030 0.000000 0.000000 
#    y 0.000000 1.772030 0.000000 
#    z 0.000000 0.000000 1.808710 
# 
# From -- ./inp_files/2902.got.cif
#   From: 2010.05.17/outbox.cif.g08.bks.cpg/sg175_2_cif.got.tgz:2902.got - 2010.05.20 11:23:22.
