data_PCOD9581729
_publ_section_title
;
Structure prediction by ZEFSAII (Michael W. Deem and Ramdas Pophale) SiO2 
 PCOD9581729
Probable space group: P 63/M
;
_chemical_formula_sum "Si O2"
_cell_formula_units_Z 60
_cell_length_a 15.008772
_cell_length_b 15.008772
_cell_length_c 11.471712
_cell_angle_alpha 90.000000
_cell_angle_beta 90.000000
_cell_angle_gamma 120.000000
_cell_volume 2237.943859
_symmetry_space_group_name_H-M "P 63/M"
_symmetry_group_IT_number 176
_symmetry_cell_setting 'hexagonal'
loop_
_space_group_symop_operation_xyz
x,y,z
x-y,x,1/2+z
-y,x-y,z
-x,-y,1/2+z
-x+y,-x,z
y,-x+y,1/2+z
-x,-y,-z
-x+y,-x,1/2-z
y,-x+y,-z
x,y,1/2-z
x-y,x,-z
-y,x-y,1/2-z
loop_
_atom_site_type_symbol
_atom_site_label
_atom_site_fract_x
_atom_site_fract_y
_atom_site_fract_z
Si Si1 0.729183 0.514211 0.378499
Si Si2 0.991995 0.266060 0.875371
Si Si3 0.050560 0.495603 0.878477
Si Si4 0.551928 0.750689 0.125888
Si Si5 0.988207 0.251810 0.375607
O O1 0.759080 0.494303 0.250000
O O2 0.847823 0.394248 0.377435
O O3 0.761616 0.493154 0.504992
O O4 0.758917 0.635115 0.377958
O O5 0.013261 0.233290 0.750000
O O6 0.873654 0.239961 0.873113
O O7 0.055367 0.390240 0.881379
O O8 0.006199 0.219884 0.995812
O O9 0.999629 0.487080 0.750000
O O10 0.000000 0.500000 0.000000
O O11 0.495070 0.724448 0.250000
O O12 0.627785 0.703640 0.126676
O O13 0.001016 0.210853 0.250000
#
# Coordination Sequence:
#
# PCOD9581729 Si02
#       5
#    12  12  12  12  12
#     4   9  17  27  39  57  80 102 127 158 191 228
#     4   9  17  27  39  57  80 102 127 158 191 228
#     4  10  16  24  40  58  76 100 130 160 192 228
#     4   9  16  25  37  53  75 101 127 153 185 225
#     4   9  16  25  37  53  75 101 127 153 185 225
#
# _framework density 26.810320999999998
#
# number of rings (size 3 to 8) (size 9 to 14) (size 15 to 20)
#    0.000    2.800    4.000    0.000    0.000    0.800 
#    0.000    0.000    0.000    0.000    0.000    0.000 
#   16.000    0.000   24.000   38.400    3.200  505.600 
#
# Total GULP energy -334825.742591 kJ/mol
# GULP energy per Si atom -5580.429043 kJ/mol
# Density = 2.674930 g / cm^3
# Si number density = 26.810321 Si / 1000 Ang^3
#
#
#
# Elastic Constant Matrix: (Units=GPa)
#
#
# Indices 1 2 3 4 5 6 
#
# 1 69.2515 11.8383 36.8581 0.0000 0.0000 0.0000
# 2 11.8383 69.2515 36.8581 0.0000 0.0000 0.0000
# 3 36.8581 36.8581 411.3786 0.0000 0.0000 0.0000
# 4 0.0000 0.0000 0.0000 29.0884 0.0000 0.0000
# 5 0.0000 0.0000 0.0000 0.0000 29.0884 0.0000
# 6 0.0000 0.0000 0.0000 0.0000 0.0000 28.7066
#
#
#
# Elastic Compliance Matrix: (Units=1/GPa)
#
#
# Indices 1 2 3 4 5 6 
#
# 1 0.015422 -0.001996 -0.001203 0.000000 0.000000 0.000000
# 2 -0.001996 0.015422 -0.001203 0.000000 0.000000 0.000000
# 3 -0.001203 -0.001203 0.002646 0.000000 0.000000 0.000000
# 4 0.000000 0.000000 0.000000 0.034378 0.000000 0.000000
# 5 0.000000 0.000000 0.000000 0.000000 0.034378 0.000000
# 6 0.000000 0.000000 0.000000 0.000000 0.000000 0.034835
#
#
# Mechanical properties :
#
#
# Convention : Reuss Voigt Hill
#
# Bulk Modulus (GPa) = 40.50899 80.11007 60.30953
# Shear Modulus (GPa) = 32.44374 48.33181 40.38777
#
# Velocity S-wave (km/s) = 3.48245 4.25046 3.88548
# Velocity P-wave (km/s) = 5.59574 7.35077 6.53246
#
# Compressibility (1/GPa) = 0.02468588
#
# Stress axis : x y z
#
# Youngs Moduli (GPa) = 64.84435 64.84435 377.87204
#
# Poissons Ratio (x) = 0.12943 0.45453
# Poissons Ratio (y) = 0.12943 0.45453
# Poissons Ratio (z) = 0.07800 0.07800
#
# Static dielectric constant tensor:
#      x y z
#    x 2.154010 0.000000 0.000000 
#    y 0.000000 2.154010 0.000000 
#    z 0.000000 0.000000 2.147570 
# 
# From -- ./inp_files/1871.got.cif
#   From: 2010.05.17/outbox.cif.g08.bks.cpg/sg176_1_cif.got.tgz:1871.got - 2010.06.03 11:36:45.
