data_PCOD9581077
_publ_section_title
;
Structure prediction by ZEFSAII (Michael W. Deem and Ramdas Pophale) SiO2 
 PCOD9581077
Probable space group: P 63
;
_chemical_formula_sum "Si O2"
_cell_formula_units_Z 16
_cell_length_a 6.919866
_cell_length_b 6.919866
_cell_length_c 19.333500
_cell_angle_alpha 90.000000
_cell_angle_beta 90.000000
_cell_angle_gamma 120.000000
_cell_volume 801.745413
_symmetry_space_group_name_H-M "P 63"
_symmetry_group_IT_number 173
_symmetry_cell_setting 'hexagonal'
loop_
_space_group_symop_operation_xyz
x,y,z
x-y,x,1/2+z
-y,x-y,z
-x,-y,1/2+z
-x+y,-x,z
y,-x+y,1/2+z
loop_
_atom_site_type_symbol
_atom_site_label
_atom_site_fract_x
_atom_site_fract_y
_atom_site_fract_z
Si Si1 0.117445 0.729523 0.020710
Si Si2 0.882556 0.612079 0.163363
Si Si3 0.000000 0.000000 0.423879
Si Si4 0.000000 0.000000 0.760194
O O1 0.104589 0.489934 0.018296
O O2 0.000000 0.732343 0.092037
O O3 0.014172 0.793714 0.957303
O O4 0.614655 0.510067 0.165777
O O5 0.985829 0.779541 0.226770
O O6 0.000000 0.000000 0.342037
#
# Coordination Sequence:
#
# PCOD9581077 Si02
#       4
#     6   6   2   2
#     4  10  22  41  69  91 123 159 215 268 311 363
#     4  10  22  41  69  91 123 159 215 268 311 363
#     4  12  25  41  58  90 136 170 202 252 316 389
#     4  12  25  41  58  90 136 170 202 252 316 389
#
# _framework density 19.95646
#
# number of rings (size 3 to 8) (size 9 to 14) (size 15 to 20)
#    1.500    0.000    0.000    6.750    0.000    3.000 
#    4.500    0.000    0.000    0.000    0.000    0.000 
#    0.000    0.000    0.000    0.000    0.000    0.000 
#
# Total GULP energy -89156.502064 kJ/mol
# GULP energy per Si atom -5572.281379 kJ/mol
# Density = 1.991104 g / cm^3
# Si number density = 19.956460 Si / 1000 Ang^3
#
#
#
# Elastic Constant Matrix: (Units=GPa)
#
#
# Indices 1 2 3 4 5 6 
#
# 1 97.7682 37.2278 67.0761 0.0000 0.0000 0.0000
# 2 37.2278 97.7682 67.0761 0.0000 0.0000 0.0000
# 3 67.0761 67.0761 226.9827 0.0000 0.0000 0.0000
# 4 0.0000 0.0000 0.0000 10.6616 0.0000 0.0000
# 5 0.0000 0.0000 0.0000 0.0000 10.6616 0.0000
# 6 0.0000 0.0000 0.0000 0.0000 0.0000 30.2702
#
#
#
# Elastic Compliance Matrix: (Units=1/GPa)
#
#
# Indices 1 2 3 4 5 6 
#
# 1 0.013503 -0.003015 -0.003099 0.000000 0.000000 0.000000
# 2 -0.003015 0.013503 -0.003099 0.000000 0.000000 0.000000
# 3 -0.003099 -0.003099 0.006237 0.000000 0.000000 0.000000
# 4 0.000000 0.000000 0.000000 0.093795 0.000000 0.000000
# 5 0.000000 0.000000 0.000000 0.000000 0.093795 0.000000
# 6 0.000000 0.000000 0.000000 0.000000 0.000000 0.033036
#
#
# Mechanical properties :
#
#
# Convention : Reuss Voigt Hill
#
# Bulk Modulus (GPa) = 67.49691 85.03102 76.26396
# Shear Modulus (GPa) = 18.03534 27.06128 22.54831
#
# Velocity S-wave (km/s) = 3.00948 3.68641 3.36501
# Velocity P-wave (km/s) = 6.78023 7.79873 7.30725
#
# Compressibility (1/GPa) = 0.01481549
#
# Stress axis : x y z
#
# Youngs Moduli (GPa) = 74.05953 74.05953 160.32582
#
# Poissons Ratio (x) = 0.22331 0.49687
# Poissons Ratio (y) = 0.22331 0.49687
# Poissons Ratio (z) = 0.22952 0.22952
#
# Static dielectric constant tensor:
#      x y z
#    x 1.746810 0.000000 0.000000 
#    y 0.000000 1.746810 0.000000 
#    z 0.000000 0.000000 1.619720 
# 
# From -- ./inp_files/1172.got.cif
#   From: 2010.05.17/outbox.cif.g08.bks.cpg/sg173_cif.got.tgz:1172.got - 2010.05.20 11:21:53.
