data_PCOD9581782
_publ_section_title
;
Structure prediction by ZEFSAII (Michael W. Deem and Ramdas Pophale) SiO2 
 PCOD9581782
Probable space group: P 63/M
;
_chemical_formula_sum "Si O2"
_cell_formula_units_Z 72
_cell_length_a 24.302383
_cell_length_b 24.302383
_cell_length_c 9.128106
_cell_angle_alpha 90.000000
_cell_angle_beta 90.000000
_cell_angle_gamma 120.000000
_cell_volume 4668.840401
_symmetry_space_group_name_H-M "P 63/M"
_symmetry_group_IT_number 176
_symmetry_cell_setting 'hexagonal'
loop_
_space_group_symop_operation_xyz
x,y,z
x-y,x,1/2+z
-y,x-y,z
-x,-y,1/2+z
-x+y,-x,z
y,-x+y,1/2+z
-x,-y,-z
-x+y,-x,1/2-z
y,-x+y,-z
x,y,1/2-z
x-y,x,-z
-y,x-y,1/2-z
loop_
_atom_site_type_symbol
_atom_site_label
_atom_site_fract_x
_atom_site_fract_y
_atom_site_fract_z
Si Si1 0.407606 0.138818 0.424320
Si Si2 0.403524 0.478322 0.424507
Si Si3 0.400190 0.260951 0.073953
Si Si4 0.927915 0.186739 0.074841
Si Si5 0.925680 0.518653 0.074681
Si Si6 0.925168 0.735926 0.925432
O O1 0.415857 0.134919 0.250000
O O2 0.449015 0.115323 0.509406
O O3 0.422749 0.210142 0.459358
O O4 0.332535 0.094398 0.457848
O O5 0.402071 0.483288 0.250000
O O6 0.453498 0.545954 0.493679
O O7 0.432112 0.431943 0.459431
O O8 0.389547 0.258182 0.250000
O O9 0.449707 0.333254 0.034260
O O10 0.333124 0.236119 0.994209
O O11 0.919701 0.175134 0.250000
O O12 0.001501 0.216219 0.037271
O O13 0.879802 0.122932 0.990580
O O14 0.921031 0.508070 0.250000
O O15 0.919585 0.730650 0.750000
#
# Coordination Sequence:
#
# PCOD9581782 Si02
#       6
#    12  12  12  12  12  12
#     4   9  17  30  47  66  92 123 151 184 226 272
#     4  10  19  29  45  70  95 119 150 189 229 268
#     4   9  18  32  49  69  94 124 155 189 229 274
#     4   9  19  33  47  68  97 125 155 191 230 274
#     4   9  18  32  48  66  91 123 155 185 223 272
#     4  10  19  30  48  72  95 123 156 190 231 275
#
# _framework density 15.421389
#
# number of rings (size 3 to 8) (size 9 to 14) (size 15 to 20)
#    0.000    2.667    0.000    3.000    0.000    5.333 
#    0.000    0.000    0.000    1.000    0.000    2.333 
#    0.000    0.000    0.000    0.000    0.000    0.000 
#
# Total GULP energy -401458.564960 kJ/mol
# GULP energy per Si atom -5575.813402 kJ/mol
# Density = 1.538629 g / cm^3
# Si number density = 15.421389 Si / 1000 Ang^3
#
#
#
# Elastic Constant Matrix: (Units=GPa)
#
#
# Indices 1 2 3 4 5 6 
#
# 1 136.3494 91.6742 58.6666 0.0000 0.0000 0.0000
# 2 91.6742 136.3494 58.6666 0.0000 0.0000 0.0000
# 3 58.6666 58.6666 40.1819 0.0000 0.0000 0.0000
# 4 0.0000 0.0000 0.0000 25.6782 0.0000 0.0000
# 5 0.0000 0.0000 0.0000 0.0000 25.6782 0.0000
# 6 0.0000 0.0000 0.0000 0.0000 0.0000 22.3376
#
#
#
# Elastic Compliance Matrix: (Units=1/GPa)
#
#
# Indices 1 2 3 4 5 6 
#
# 1 0.020008 -0.002376 -0.025744 0.000000 0.000000 0.000000
# 2 -0.002376 0.020008 -0.025744 0.000000 0.000000 0.000000
# 3 -0.025744 -0.025744 0.100059 0.000000 0.000000 0.000000
# 4 0.000000 0.000000 0.000000 0.038944 0.000000 0.000000
# 5 0.000000 0.000000 0.000000 0.000000 0.038944 0.000000
# 6 0.000000 0.000000 0.000000 0.000000 0.000000 0.044768
#
#
# Mechanical properties :
#
#
# Convention : Reuss Voigt Hill
#
# Bulk Modulus (GPa) = 30.91228 81.21063 56.06146
# Shear Modulus (GPa) = 13.11513 21.66369 17.38941
#
# Velocity S-wave (km/s) = 2.91941 3.75211 3.36164
# Velocity P-wave (km/s) = 5.60826 8.45851 7.17632
#
# Compressibility (1/GPa) = 0.03234960
#
# Stress axis : x y z
#
# Youngs Moduli (GPa) = 49.97993 49.97993 9.99407
#
# Poissons Ratio (x) = 0.11874 0.25728
# Poissons Ratio (y) = 0.11874 0.25728
# Poissons Ratio (z) = 1.28666 1.28666
#
# Static dielectric constant tensor:
#      x y z
#    x 1.496600 0.000000 0.000000 
#    y 0.000000 1.496600 0.000000 
#    z 0.000000 0.000000 1.511100 
# 
# From -- ./inp_files/1179.got.cif
#   From: 2010.05.17/outbox.cif.g08.bks.cpg/sg176_1_cif.got.tgz:1179.got - 2010.06.03 11:36:45.
