data_PCOD9581716
_publ_section_title
;
Structure prediction by ZEFSAII (Michael W. Deem and Ramdas Pophale) SiO2 
 PCOD9581716
Probable space group: P 6/M
;
_chemical_formula_sum "Si O2"
_cell_formula_units_Z 72
_cell_length_a 24.000000
_cell_length_b 24.000000
_cell_length_c 9.000000
_cell_angle_alpha 90.000000
_cell_angle_beta 90.000000
_cell_angle_gamma 120.000000
_cell_volume 4489.475693
_symmetry_space_group_name_H-M "P 6/M"
_symmetry_group_IT_number 175
_symmetry_cell_setting 'hexagonal'
loop_
_space_group_symop_operation_xyz
x,y,z
x-y,x,z
-y,x-y,z
-x,-y,z
-x+y,-x,z
y,-x+y,z
-x,-y,-z
-x+y,-x,-z
y,-x+y,-z
x,y,-z
x-y,x,-z
-y,x-y,-z
loop_
_atom_site_type_symbol
_atom_site_label
_atom_site_fract_x
_atom_site_fract_y
_atom_site_fract_z
Si Si1 0.665798 0.200084 0.679774
Si Si2 0.198819 0.667470 0.681014
Si Si3 0.331957 0.931777 0.679014
Si Si4 0.596682 0.925675 0.179330
Si Si5 0.268114 0.197855 0.320010
Si Si6 0.268981 0.072728 0.179910
O O1 0.666692 0.200246 0.500000
O O2 0.599797 0.201609 0.721194
O O3 0.733478 0.266021 0.722898
O O4 0.663241 0.132140 0.724094
O O5 0.193813 0.667901 0.500000
O O6 0.134711 0.665892 0.750486
O O7 0.342345 0.939238 0.500000
O O8 0.259288 0.919008 0.707770
O O9 0.380638 0.001995 0.754452
O O10 0.658528 0.915667 0.207680
O O11 0.588996 0.926637 0.000000
O O12 0.259344 0.190649 0.500000
O O13 0.262235 0.132111 0.249991
O O14 0.219383 0.220598 0.250187
O O15 0.259998 0.070822 0.000000
#
# Coordination Sequence:
#
# PCOD9581716 Si02
#       6
#    12  12  12  12  12  12
#     4   9  18  32  53  78 100 129 171 214 255 302
#     4  10  19  34  55  76 101 133 171 214 257 304
#     4   9  18  33  52  75 102 132 168 211 260 309
#     4  10  21  35  51  75 104 134 169 209 258 311
#     4  10  19  32  53  79 105 134 173 217 257 302
#     4  10  20  34  52  75 106 140 172 209 258 312
#
# _framework density 16.037507000000002
#
# number of rings (size 3 to 8) (size 9 to 14) (size 15 to 20)
#    0.000    2.333    0.000    2.833    0.000    6.000 
#    0.000    5.833    0.000    0.333    0.000    2.333 
#    0.000    0.000    0.000    0.000    0.000    0.000 
#
# Total GULP energy -400954.817060 kJ/mol
# GULP energy per Si atom -5568.816904 kJ/mol
# Density = 1.600101 g / cm^3
# Si number density = 16.037507 Si / 1000 Ang^3
#
#
#
# Elastic Constant Matrix: (Units=GPa)
#
#
# Indices 1 2 3 4 5 6 
#
# 1 168.5270 87.6914 47.5790 0.0000 0.0000 0.0000
# 2 87.6914 168.5270 47.5790 0.0000 0.0000 0.0000
# 3 47.5790 47.5790 74.7289 0.0000 0.0000 0.0000
# 4 0.0000 0.0000 0.0000 29.2348 0.0000 0.0000
# 5 0.0000 0.0000 0.0000 0.0000 29.2348 0.0000
# 6 0.0000 0.0000 0.0000 0.0000 0.0000 40.4178
#
#
#
# Elastic Compliance Matrix: (Units=1/GPa)
#
#
# Indices 1 2 3 4 5 6 
#
# 1 0.008741 -0.003630 -0.003255 0.000000 0.000000 0.000000
# 2 -0.003630 0.008741 -0.003255 0.000000 0.000000 0.000000
# 3 -0.003255 -0.003255 0.017526 0.000000 0.000000 0.000000
# 4 0.000000 0.000000 0.000000 0.034206 0.000000 0.000000
# 5 0.000000 0.000000 0.000000 0.000000 0.034206 0.000000
# 6 0.000000 0.000000 0.000000 0.000000 0.000000 0.024742
#
#
# Mechanical properties :
#
#
# Convention : Reuss Voigt Hill
#
# Bulk Modulus (GPa) = 67.88350 86.38688 77.13519
# Shear Modulus (GPa) = 32.60535 35.03971 33.82253
#
# Velocity S-wave (km/s) = 4.51385 4.67932 4.59733
# Velocity P-wave (km/s) = 8.34184 9.12015 8.73966
#
# Compressibility (1/GPa) = 0.01473112
#
# Stress axis : x y z
#
# Youngs Moduli (GPa) = 114.40064 114.40064 57.05836
#
# Poissons Ratio (x) = 0.41523 0.18570
# Poissons Ratio (y) = 0.41523 0.18570
# Poissons Ratio (z) = 0.37232 0.37232
#
# Static dielectric constant tensor:
#      x y z
#    x 1.546490 0.000000 0.000000 
#    y 0.000000 1.546490 0.000000 
#    z 0.000000 0.000000 1.544690 
# 
# From -- ./inp_files/1195.got.cif
#   From: 2010.05.17/outbox.ucp.g08.bks.cvg/sg175_1_cif.got.tgz:1195.got - 2010.06.11 15:18:44.
