data_PCOD9581268
_publ_section_title
;
Structure prediction by ZEFSAII (Michael W. Deem and Ramdas Pophale) SiO2 
 PCOD9581268
Probable space group: P 6/M
;
_chemical_formula_sum "Si O2"
_cell_formula_units_Z 84
_cell_length_a 20.092853
_cell_length_b 20.092853
_cell_length_c 14.292567
_cell_angle_alpha 90.000000
_cell_angle_beta 90.000000
_cell_angle_gamma 120.000000
_cell_volume 4997.169520
_symmetry_space_group_name_H-M "P 6/M"
_symmetry_group_IT_number 175
_symmetry_cell_setting 'hexagonal'
loop_
_space_group_symop_operation_xyz
x,y,z
x-y,x,z
-y,x-y,z
-x,-y,z
-x+y,-x,z
y,-x+y,z
-x,-y,-z
-x+y,-x,-z
y,-x+y,-z
x,y,-z
x-y,x,-z
-y,x-y,-z
loop_
_atom_site_type_symbol
_atom_site_label
_atom_site_fract_x
_atom_site_fract_y
_atom_site_fract_z
Si Si1 0.775355 0.113668 0.606076
Si Si2 0.449470 0.148737 0.110450
Si Si3 0.911076 0.474159 0.111586
Si Si4 0.181950 0.226648 0.606431
Si Si5 0.283311 0.287455 0.110641
Si Si6 0.164915 0.033631 0.195842
Si Si7 0.143519 0.417315 0.203084
O O1 0.755228 0.122609 0.500000
O O2 0.868319 0.165439 0.615861
O O3 0.735445 0.135803 0.686594
O O4 0.755645 0.024963 0.617407
O O5 0.524111 0.141113 0.128600
O O6 0.377156 0.063475 0.127152
O O7 0.440200 0.211987 0.167527
O O8 0.448072 0.165228 0.000000
O O9 0.880315 0.521257 0.169346
O O10 0.000000 0.500000 0.132521
O O11 0.908569 0.489006 0.000000
O O12 0.158539 0.196605 0.500000
O O13 0.136133 0.170947 0.691430
O O14 0.199526 0.243375 0.155935
O O15 0.337470 0.259011 0.156399
O O16 0.279453 0.274220 0.000000
O O17 0.148146 0.099019 0.164167
#
# Coordination Sequence:
#
# PCOD9581268 Si02
#       7
#    12  12  12  12  12  12  12
#     4  10  21  34  55  84 114 145 188 244 292 337
#     4  10  21  35  55  86 117 144 184 230 277 335
#     4  10  20  37  57  84 120 152 183 225 278 337
#     4  10  18  32  51  74 106 140 180 238 293 324
#     4  11  21  35  56  80 105 139 189 237 278 334
#     4  12  23  35  47  70 106 149 191 235 282 335
#     4  12  21  35  62  84 112 150 189 226 286 343
#
# _framework density 16.809515999999999
#
# number of rings (size 3 to 8) (size 9 to 14) (size 15 to 20)
#    0.000    1.286    4.286    3.143    0.000    1.714 
#    0.857    0.000    0.000    3.000    0.000    0.000 
#    0.000    0.000    0.000    0.000    0.000    0.000 
#
# Total GULP energy -468868.097915 kJ/mol
# GULP energy per Si atom -5581.763070 kJ/mol
# Density = 1.677126 g / cm^3
# Si number density = 16.809516 Si / 1000 Ang^3
#
#
#
# Elastic Constant Matrix: (Units=GPa)
#
#
# Indices 1 2 3 4 5 6 
#
# 1 74.4386 26.2077 44.9523 0.0000 0.0000 0.0000
# 2 26.2077 74.4386 44.9523 0.0000 0.0000 0.0000
# 3 44.9523 44.9523 80.2513 0.0000 0.0000 0.0000
# 4 0.0000 0.0000 0.0000 22.5448 0.0000 0.0000
# 5 0.0000 0.0000 0.0000 0.0000 22.5448 0.0000
# 6 0.0000 0.0000 0.0000 0.0000 0.0000 24.1155
#
#
#
# Elastic Compliance Matrix: (Units=1/GPa)
#
#
# Indices 1 2 3 4 5 6 
#
# 1 0.020310 -0.000424 -0.011139 0.000000 0.000000 0.000000
# 2 -0.000424 0.020310 -0.011139 0.000000 0.000000 0.000000
# 3 -0.011139 -0.011139 0.024940 0.000000 0.000000 0.000000
# 4 0.000000 0.000000 0.000000 0.044356 0.000000 0.000000
# 5 0.000000 0.000000 0.000000 0.000000 0.044356 0.000000
# 6 0.000000 0.000000 0.000000 0.000000 0.000000 0.041467
#
#
# Mechanical properties :
#
#
# Convention : Reuss Voigt Hill
#
# Bulk Modulus (GPa) = 49.61390 51.26148 50.43769
# Shear Modulus (GPa) = 20.17258 21.37541 20.77400
#
# Velocity S-wave (km/s) = 3.46796 3.56985 3.51928
# Velocity P-wave (km/s) = 6.75390 6.89591 6.82527
#
# Compressibility (1/GPa) = 0.02015564
#
# Stress axis : x y z
#
# Youngs Moduli (GPa) = 49.23738 49.23738 40.09656
#
# Poissons Ratio (x) = 0.02087 0.44664
# Poissons Ratio (y) = 0.02087 0.44664
# Poissons Ratio (z) = 0.54846 0.54846
#
# Static dielectric constant tensor:
#      x y z
#    x 1.567460 0.000000 0.000000 
#    y 0.000000 1.567460 0.000000 
#    z 0.000000 0.000000 1.571420 
# 
# From -- ./inp_files/2598.got.cif
#   From: 2010.05.17/outbox.cif.g08.bks.cpg/sg175_2_cif.got.tgz:2598.got - 2010.05.20 11:23:22.
