data_PCOD9581839
_publ_section_title
;
Structure prediction by ZEFSAII (Michael W. Deem and Ramdas Pophale) SiO2 
 PCOD9581839
Probable space group: P 63/M
;
_chemical_formula_sum "Si O2"
_cell_formula_units_Z 68
_cell_length_a 12.292800
_cell_length_b 12.292800
_cell_length_c 27.608109
_cell_angle_alpha 90.000000
_cell_angle_beta 90.000000
_cell_angle_gamma 120.000000
_cell_volume 3613.008009
_symmetry_space_group_name_H-M "P 63/M"
_symmetry_group_IT_number 176
_symmetry_cell_setting 'hexagonal'
loop_
_space_group_symop_operation_xyz
x,y,z
x-y,x,1/2+z
-y,x-y,z
-x,-y,1/2+z
-x+y,-x,z
y,-x+y,1/2+z
-x,-y,-z
-x+y,-x,1/2-z
y,-x+y,-z
x,y,1/2-z
x-y,x,-z
-y,x-y,1/2-z
loop_
_atom_site_type_symbol
_atom_site_label
_atom_site_fract_x
_atom_site_fract_y
_atom_site_fract_z
Si Si1 0.112318 0.653776 0.835677
Si Si2 0.017238 0.261288 0.092214
Si Si3 0.399019 0.320774 0.302402
Si Si4 0.923978 0.573115 0.998121
Si Si5 0.753189 0.020144 0.404286
Si Si6 0.666668 0.333334 0.510831
Si Si7 0.333334 0.666668 0.602983
O O1 0.075586 0.528494 0.806322
O O2 0.204060 0.778574 0.805548
O O3 0.205956 0.655427 0.877278
O O4 0.002840 0.664286 0.863257
O O5 0.149021 0.266215 0.089711
O O6 0.900827 0.121317 0.097817
O O7 0.007918 0.317560 0.041073
O O8 0.338820 0.313882 0.250000
O O9 0.327478 0.306839 0.352502
O O10 0.934019 0.633947 0.051088
O O11 0.784551 0.471434 0.978027
O O12 0.000000 0.500000 0.000000
O O13 0.666668 0.333334 0.453281
#
# Coordination Sequence:
#
# PCOD9581839 Si02
#       7
#    12  12  12  12  12   4   4
#     4   9  18  32  57  84 110 137 174 225 284 341
#     4  11  22  38  56  80 113 152 191 229 274 329
#     4  10  19  34  56  85 112 139 177 230 285 335
#     4  12  23  37  58  86 115 146 182 229 286 339
#     4  11  23  38  56  79 112 151 193 232 272 329
#     4  12  21  33  54  82 115 147 184 226 279 342
#     4   9  15  30  52  82 111 132 162 223 286 333
#
# _framework density 18.820881
#
# number of rings (size 3 to 8) (size 9 to 14) (size 15 to 20)
#    0.000    1.412    0.000    9.706    0.000    0.000 
#    0.000    6.176    0.000    0.706    0.000    0.000 
#    0.000    0.000    0.000    0.000    0.000    0.000 
#
# Total GULP energy -379416.258743 kJ/mol
# GULP energy per Si atom -5579.650864 kJ/mol
# Density = 1.877804 g / cm^3
# Si number density = 18.820881 Si / 1000 Ang^3
#
#
#
# Elastic Constant Matrix: (Units=GPa)
#
#
# Indices 1 2 3 4 5 6 
#
# 1 80.2509 26.3246 25.0762 0.0000 0.0000 -0.0001
# 2 26.3246 80.2516 25.0762 0.0000 0.0000 0.0001
# 3 25.0762 25.0762 104.4979 0.0000 0.0000 0.0001
# 4 0.0000 0.0000 0.0000 -6.5004 -0.0005 0.0000
# 5 0.0000 0.0000 0.0000 -0.0005 -6.5002 0.0000
# 6 -0.0001 0.0001 0.0001 0.0000 0.0000 26.9634
#
#
#
# Elastic Compliance Matrix: (Units=1/GPa)
#
#
# Indices 1 2 3 4 5 6 
#
# 1 0.014561 -0.003983 -0.002538 0.000000 0.000000 0.000000
# 2 -0.003983 0.014561 -0.002538 0.000000 0.000000 0.000000
# 3 -0.002538 -0.002538 0.010788 0.000000 0.000000 0.000000
# 4 0.000000 0.000000 0.000000 -0.153837 0.000011 0.000000
# 5 0.000000 0.000000 0.000000 0.000011 -0.153842 0.000000
# 6 0.000000 0.000000 0.000000 0.000000 0.000000 0.037087
#
#
# Mechanical properties :
#
#
# Convention : Reuss Voigt Hill
#
# Bulk Modulus (GPa) = 45.89335 46.43936 46.16636
# Shear Modulus (GPa) = -24.35464 15.36079 -4.49692
#
# Velocity S-wave (km/s) = -3.60115 2.85995 -1.54742
# Velocity P-wave (km/s) = 2.67322 5.96939 4.62492
#
# Compressibility (1/GPa) = 0.02178965
#
# Stress axis : x y z
#
# Youngs Moduli (GPa) = 68.67827 68.67892 92.69756
#
# Poissons Ratio (x) = 0.27356 0.23529
# Poissons Ratio (y) = 0.27356 0.23529
# Poissons Ratio (z) = 0.17432 0.17432
#
# Static dielectric constant tensor:
#      x y z
#    x 1.673580 0.000000 0.000000 
#    y 0.000000 1.673580 0.000000 
#    z 0.000000 0.000000 1.659280 
# 
# From -- ./inp_files/4493.got.cif
#   From: 2010.05.17/outbox.cif.g08.bks.cpg/sg176_3_cif.got.tgz:4493.got - 2010.06.03 11:36:45.
