data_PCOD9581511
_publ_section_title
;
Structure prediction by ZEFSAII (Michael W. Deem and Ramdas Pophale) SiO2 
 PCOD9581511
Probable space group: P 6/M
;
_chemical_formula_sum "Si O2"
_cell_formula_units_Z 54
_cell_length_a 20.626972
_cell_length_b 20.626972
_cell_length_c 7.865410
_cell_angle_alpha 90.000000
_cell_angle_beta 90.000000
_cell_angle_gamma 120.000000
_cell_volume 2898.163989
_symmetry_space_group_name_H-M "P 6/M"
_symmetry_group_IT_number 175
_symmetry_cell_setting 'hexagonal'
loop_
_space_group_symop_operation_xyz
x,y,z
x-y,x,z
-y,x-y,z
-x,-y,z
-x+y,-x,z
y,-x+y,z
-x,-y,-z
-x+y,-x,-z
y,-x+y,-z
x,y,-z
x-y,x,-z
-y,x-y,-z
loop_
_atom_site_type_symbol
_atom_site_label
_atom_site_fract_x
_atom_site_fract_y
_atom_site_fract_z
Si Si1 0.550070 0.585721 0.795619
Si Si2 0.987475 0.280377 0.703735
Si Si3 0.280463 0.709564 0.500000
Si Si4 0.322158 0.172733 0.707960
Si Si5 0.513388 0.711692 0.807165
O O1 0.500000 0.500000 0.731676
O O2 0.638862 0.635050 0.752189
O O3 0.514035 0.637044 0.745988
O O4 0.547094 0.582315 0.000000
O O5 0.985548 0.279760 0.500000
O O6 0.911894 0.207004 0.760730
O O7 0.061642 0.277158 0.753552
O O8 0.252098 0.622628 0.500000
O O9 0.261960 0.735559 0.673259
O O10 0.331663 0.177769 0.500000
O O11 0.400997 0.224181 0.797349
O O12 0.484583 0.701185 0.000000
#
# Coordination Sequence:
#
# PCOD9581511 Si02
#       5
#    12  12   6  12  12
#     4   9  19  34  51  78 108 134 177 227 274 329
#     4   9  18  31  52  79 107 145 181 230 278 332
#     4  10  24  40  53  74 106 142 188 229 260 334
#     4   9  17  33  54  80 112 142 186 229 282 335
#     4  10  20  37  58  77 106 143 180 232 280 324
#
# _framework density 18.632486
#
# number of rings (size 3 to 8) (size 9 to 14) (size 15 to 20)
#    0.222    2.444    1.111    0.000    1.556    4.000 
#    0.000    2.222    0.000    0.444    0.000    3.111 
#    0.000    0.000    0.000   11.111    0.000   11.556 
#
# Total GULP energy -300603.585960 kJ/mol
# GULP energy per Si atom -5566.733073 kJ/mol
# Density = 1.859008 g / cm^3
# Si number density = 18.632486 Si / 1000 Ang^3
#
#
#
# Elastic Constant Matrix: (Units=GPa)
#
#
# Indices 1 2 3 4 5 6 
#
# 1 71.5401 30.3757 4.0088 0.0000 0.0000 0.0000
# 2 30.3757 71.5401 4.0088 0.0000 0.0000 0.0000
# 3 4.0088 4.0088 35.4588 0.0000 0.0000 0.0000
# 4 0.0000 0.0000 0.0000 1155.5305 -0.0001 0.0000
# 5 0.0000 0.0000 0.0000 -0.0001 1155.5305 0.0000
# 6 0.0000 0.0000 0.0000 0.0000 0.0000 20.5822
#
#
#
# Elastic Compliance Matrix: (Units=1/GPa)
#
#
# Indices 1 2 3 4 5 6 
#
# 1 0.017096 -0.007196 -0.001119 0.000000 0.000000 0.000000
# 2 -0.007196 0.017096 -0.001119 0.000000 0.000000 0.000000
# 3 -0.001119 -0.001119 0.028455 0.000000 0.000000 0.000000
# 4 0.000000 0.000000 0.000000 0.000865 0.000000 0.000000
# 5 0.000000 0.000000 0.000000 0.000000 0.000865 0.000000
# 6 0.000000 0.000000 0.000000 0.000000 0.000000 0.048586
#
#
# Mechanical properties :
#
#
# Convention : Reuss Voigt Hill
#
# Bulk Modulus (GPa) = 22.84253 28.36950 25.60602
# Shear Modulus (GPa) = 34.14681 475.67170 254.90925
#
# Velocity S-wave (km/s) = 4.28559 15.99518 11.70923
# Velocity P-wave (km/s) = 6.06420 18.87821 14.02072
#
# Compressibility (1/GPa) = 0.04377799
#
# Stress axis : x y z
#
# Youngs Moduli (GPa) = 58.49171 58.49171 35.14339
#
# Poissons Ratio (x) = 0.42093 0.03933
# Poissons Ratio (y) = 0.42093 0.03933
# Poissons Ratio (z) = 0.06547 0.06547
#
# Static dielectric constant tensor:
#      x y z
#    x 1.658220 0.000000 0.000000 
#    y 0.000000 1.658220 0.000000 
#    z 0.000000 0.000000 1.291480 
# 
# From -- ./inp_files/819.got.cif
#   From: 2010.05.17/outbox.cif.g08.bks.cpg/sg175_1_cif.got.tgz:819.got - 2010.05.20 11:23:22.
