data_PCOD9581495
_publ_section_title
;
Structure prediction by ZEFSAII (Michael W. Deem and Ramdas Pophale) SiO2 
 PCOD9581495
Probable space group: P 6/M
;
_chemical_formula_sum "Si O2"
_cell_formula_units_Z 84
_cell_length_a 20.900712
_cell_length_b 20.900712
_cell_length_c 14.069948
_cell_angle_alpha 90.000000
_cell_angle_beta 90.000000
_cell_angle_gamma 120.000000
_cell_volume 5322.862970
_symmetry_space_group_name_H-M "P 6/M"
_symmetry_group_IT_number 175
_symmetry_cell_setting 'hexagonal'
loop_
_space_group_symop_operation_xyz
x,y,z
x-y,x,z
-y,x-y,z
-x,-y,z
-x+y,-x,z
y,-x+y,z
-x,-y,-z
-x+y,-x,-z
y,-x+y,-z
x,y,-z
x-y,x,-z
-y,x-y,-z
loop_
_atom_site_type_symbol
_atom_site_label
_atom_site_fract_x
_atom_site_fract_y
_atom_site_fract_z
Si Si1 0.817689 0.332882 0.112288
Si Si2 0.332881 0.817689 0.887712
Si Si3 0.083942 0.916059 0.615012
Si Si4 0.170879 0.829121 0.614919
Si Si5 0.327485 0.416493 0.279553
Si Si6 0.416493 0.327485 0.279553
Si Si7 0.544623 0.089246 0.393409
O O1 0.735178 0.264822 0.130387
O O2 0.822165 0.411083 0.133246
O O3 0.874337 0.321409 0.177018
O O4 0.832859 0.332471 0.000000
O O5 0.321408 0.874337 0.822982
O O6 0.332470 0.832858 0.000000
O O7 0.080765 0.919235 0.500000
O O8 0.127187 0.872813 0.634737
O O9 0.000000 0.872508 0.650199
O O10 0.176465 0.823534 0.500000
O O11 0.125363 0.749350 0.664142
O O12 0.250650 0.874637 0.664141
O O13 0.365809 0.365809 0.274568
O O14 0.381480 0.490462 0.338165
O O15 0.490462 0.381480 0.338165
O O16 0.559542 0.119084 0.500000
O O17 0.500000 0.000000 0.398521
#
# Coordination Sequence:
#
# PCOD9581495 Si02
#       7
#    12  12  12  12  12  12  12
#     4  10  20  36  58  81 105 134 171 216 268 322
#     4  10  20  36  58  81 105 134 171 216 268 322
#     4   9  17  30  49  73 100 132 172 219 269 319
#     4  11  22  35  51  73 106 147 186 220 262 315
#     4  11  21  34  53  77 104 138 178 220 264 314
#     4  11  21  34  53  77 104 138 178 220 264 314
#     4   9  18  32  49  70  99 134 171 209 248 293
#
# _framework density 15.780981000000001
#
# number of rings (size 3 to 8) (size 9 to 14) (size 15 to 20)
#    0.000    1.857    2.857    2.143    0.000    5.143 
#    0.000    1.429    0.000    0.000    0.000    4.000 
#    0.000    0.000    0.000    0.000    0.000   10.143 
#
# Total GULP energy -468367.032077 kJ/mol
# GULP energy per Si atom -5575.798001 kJ/mol
# Density = 1.574506 g / cm^3
# Si number density = 15.780981 Si / 1000 Ang^3
#
#
#
# Elastic Constant Matrix: (Units=GPa)
#
#
# Indices 1 2 3 4 5 6 
#
# 1 131.3448 71.5419 56.8364 0.0000 0.0000 0.0000
# 2 71.5419 131.3448 56.8364 0.0000 0.0000 0.0000
# 3 56.8364 56.8364 85.5412 0.0000 0.0000 0.0000
# 4 0.0000 0.0000 0.0000 19.8198 0.0000 0.0000
# 5 0.0000 0.0000 0.0000 0.0000 19.8198 0.0000
# 6 0.0000 0.0000 0.0000 0.0000 0.0000 29.9015
#
#
#
# Elastic Compliance Matrix: (Units=1/GPa)
#
#
# Indices 1 2 3 4 5 6 
#
# 1 0.012287 -0.004435 -0.005217 0.000000 0.000000 0.000000
# 2 -0.004435 0.012287 -0.005217 0.000000 0.000000 0.000000
# 3 -0.005217 -0.005217 0.018623 0.000000 0.000000 0.000000
# 4 0.000000 0.000000 0.000000 0.050455 0.000000 0.000000
# 5 0.000000 0.000000 0.000000 0.000000 0.050455 0.000000
# 6 0.000000 0.000000 0.000000 0.000000 0.000000 0.033443
#
#
# Mechanical properties :
#
#
# Convention : Reuss Voigt Hill
#
# Bulk Modulus (GPa) = 74.30198 79.85112 77.07655
# Shear Modulus (GPa) = 23.61017 24.77593 24.19305
#
# Velocity S-wave (km/s) = 3.87216 3.96660 3.91967
# Velocity P-wave (km/s) = 8.19616 8.46688 8.33262
#
# Compressibility (1/GPa) = 0.01345859
#
# Stress axis : x y z
#
# Youngs Moduli (GPa) = 81.38869 81.38869 53.69701
#
# Poissons Ratio (x) = 0.36095 0.28014
# Poissons Ratio (y) = 0.36095 0.28014
# Poissons Ratio (z) = 0.42461 0.42461
#
# Static dielectric constant tensor:
#      x y z
#    x 1.514180 0.000000 0.000000 
#    y 0.000000 1.514180 0.000000 
#    z 0.000000 0.000000 1.525620 
# 
# From -- ./inp_files/2004.got.cif
#   From: 2010.05.17/outbox.cif.g08.bks.cpg/sg175_2_cif.got.tgz:2004.got - 2010.05.20 11:23:22.
