data_PCOD9581161
_publ_section_title
;
Structure prediction by ZEFSAII (Michael W. Deem and Ramdas Pophale) SiO2 
 PCOD9581161
Probable space group: P -6
;
_chemical_formula_sum "Si O2"
_cell_formula_units_Z 30
_cell_length_a 8.533675
_cell_length_b 8.533675
_cell_length_c 24.690174
_cell_angle_alpha 90.000000
_cell_angle_beta 90.000000
_cell_angle_gamma 120.000000
_cell_volume 1557.137559
_symmetry_space_group_name_H-M "P -6"
_symmetry_group_IT_number 174
_symmetry_cell_setting 'hexagonal'
loop_
_space_group_symop_operation_xyz
x,y,z
-x+y,-x,-z
-y,x-y,z
x,y,-z
-x+y,-x,z
-y,x-y,-z
loop_
_atom_site_type_symbol
_atom_site_label
_atom_site_fract_x
_atom_site_fract_y
_atom_site_fract_z
Si Si1 0.655160 0.121300 0.900238
Si Si2 0.007447 0.669714 0.335531
Si Si3 0.453574 0.132499 0.500000
Si Si4 0.332351 0.460688 0.000000
Si Si5 0.671509 0.665144 0.618524
Si Si6 0.466517 0.346119 0.777497
O O1 0.829228 0.323124 0.905817
O O2 0.650291 0.057274 0.838771
O O3 0.636435 0.984919 0.946631
O O4 0.864496 0.727123 0.354806
O O5 0.004712 0.653385 0.270716
O O6 0.938043 0.470537 0.359271
O O7 0.198593 0.805630 0.361513
O O8 0.502835 0.343141 0.500000
O O9 0.350232 0.034065 0.554205
O O10 0.502378 0.667835 0.000000
O O11 0.493448 0.170389 0.771718
#
# Coordination Sequence:
#
# PCOD9581161 Si02
#       6
#     6   6   3   3   6   6
#     4   8  16  33  62  80  97 163 221 235 269 377
#     4  12  22  42  60  97 124 160 205 253 320 376
#     4  10  20  42  68  84 110 164 204 254 316 358
#     4  10  20  30  44  82 132 146 178 264 326 328
#     4  12  24  39  67  88 123 163 200 256 311 379
#     4   8  15  34  64  85 114 156 204 253 302 354
#
# _framework density 19.266121999999999
#
# number of rings (size 3 to 8) (size 9 to 14) (size 15 to 20)
#    1.200    0.800    4.000    1.800    0.000    1.600 
#    3.600    0.000    0.000    3.200    0.000    0.000 
#    0.000    0.000    0.000    0.000    0.000    0.000 
#
# Total GULP energy -167100.347638 kJ/mol
# GULP energy per Si atom -5570.011588 kJ/mol
# Density = 1.922227 g / cm^3
# Si number density = 19.266122 Si / 1000 Ang^3
#
#
#
# Elastic Constant Matrix: (Units=GPa)
#
#
# Indices 1 2 3 4 5 6 
#
# 1 44.1979 0.0163 31.2159 0.0000 0.0000 0.0000
# 2 0.0163 44.1979 31.2159 0.0000 0.0000 0.0000
# 3 31.2159 31.2159 189.6087 0.0000 0.0000 0.0000
# 4 0.0000 0.0000 0.0000 -56.2101 0.0000 0.0000
# 5 0.0000 0.0000 0.0000 0.0000 -56.2101 0.0000
# 6 0.0000 0.0000 0.0000 0.0000 0.0000 22.0908
#
#
#
# Elastic Compliance Matrix: (Units=1/GPa)
#
#
# Indices 1 2 3 4 5 6 
#
# 1 0.026051 0.003417 -0.004851 0.000000 0.000000 0.000000
# 2 0.003417 0.026051 -0.004851 0.000000 0.000000 0.000000
# 3 -0.004851 -0.004851 0.006871 0.000000 0.000000 0.000000
# 4 0.000000 0.000000 0.000000 -0.017790 0.000000 0.000000
# 5 0.000000 0.000000 0.000000 0.000000 -0.017790 0.000000
# 6 0.000000 0.000000 0.000000 0.000000 0.000000 0.045268
#
#
# Mechanical properties :
#
#
# Convention : Reuss Voigt Hill
#
# Bulk Modulus (GPa) = 21.55133 44.76676 33.15905
# Shear Modulus (GPa) = 51.70722 -3.69547 24.00588
#
# Velocity S-wave (km/s) = 5.18620 -1.38646 3.53372
# Velocity P-wave (km/s) = 6.86095 4.55230 5.82220
#
# Compressibility (1/GPa) = 0.04640085
#
# Stress axis : x y z
#
# Youngs Moduli (GPa) = 38.38682 38.38682 145.53088
#
# Poissons Ratio (x) = -0.13116 0.70602
# Poissons Ratio (y) = -0.13116 0.70602
# Poissons Ratio (z) = 0.18623 0.18623
#
# Static dielectric constant tensor:
#      x y z
#    x 1.689550 0.000000 0.000000 
#    y 0.000000 1.689550 0.000000 
#    z 0.000000 0.000000 1.658920 
# 
# From -- ./inp_files/1075.got.cif
#   From: 2010.05.17/outbox.cif.g08.bks.cpg/sg174_cif.got.tgz:1075.got - 2010.05.20 11:22:48.
