data_PCOD9581881
_publ_section_title
;
Structure prediction by ZEFSAII (Michael W. Deem and Ramdas Pophale) SiO2 
 PCOD9581881
Probable space group: P 63/M
;
_chemical_formula_sum "Si O2"
_cell_formula_units_Z 96
_cell_length_a 18.072579
_cell_length_b 18.072579
_cell_length_c 19.700355
_cell_angle_alpha 90.000000
_cell_angle_beta 90.000000
_cell_angle_gamma 120.000000
_cell_volume 5572.434182
_symmetry_space_group_name_H-M "P 63/M"
_symmetry_group_IT_number 176
_symmetry_cell_setting 'hexagonal'
loop_
_space_group_symop_operation_xyz
x,y,z
x-y,x,1/2+z
-y,x-y,z
-x,-y,1/2+z
-x+y,-x,z
y,-x+y,1/2+z
-x,-y,-z
-x+y,-x,1/2-z
y,-x+y,-z
x,y,1/2-z
x-y,x,-z
-y,x-y,1/2-z
loop_
_atom_site_type_symbol
_atom_site_label
_atom_site_fract_x
_atom_site_fract_y
_atom_site_fract_z
Si Si1 0.446478 0.066985 0.671695
Si Si2 0.686908 0.040530 0.676850
Si Si3 0.168936 0.653029 0.537929
Si Si4 0.657620 0.925734 0.042921
Si Si5 0.474284 0.675795 0.468751
Si Si6 0.763869 0.087622 0.961046
Si Si7 0.803924 0.453181 0.823710
Si Si8 0.086347 0.570829 0.826664
O O1 0.417644 0.065384 0.750000
O O2 0.388453 0.076931 0.614514
O O3 0.546135 0.142004 0.670178
O O4 0.450166 0.979808 0.659740
O O5 0.720865 0.032563 0.750000
O O6 0.739341 0.041244 0.611906
O O7 0.682338 0.127700 0.677617
O O8 0.587643 0.969132 0.672287
O O9 0.107604 0.688655 0.513079
O O10 0.265094 0.727020 0.522417
O O11 0.154032 0.576375 0.488658
O O12 0.152725 0.616067 0.613251
O O13 0.691934 0.859147 0.040922
O O14 0.732574 0.018453 0.020593
O O15 0.573679 0.706708 0.467483
O O16 0.444096 0.687447 0.394277
O O17 0.760441 0.433600 0.750000
O O18 0.120043 0.578167 0.750000
#
# Coordination Sequence:
#
# PCOD9581881 Si02
#       8
#    12  12  12  12  12  12  12  12
#     4   9  17  30  53  81 104 134 176 225 279 325
#     4   8  14  27  48  73  96 123 166 209 251 311
#     4  11  20  32  49  70 105 142 187 228 263 311
#     4  11  21  34  53  78 106 137 172 228 278 334
#     4  10  20  31  46  72 101 144 184 223 260 312
#     4  10  21  33  51  77 101 132 173 213 271 323
#     4   8  14  27  45  69 102 135 171 214 263 318
#     4   9  17  30  51  74  99 135 180 226 267 314
#
# _framework density 17.227658999999999
#
# number of rings (size 3 to 8) (size 9 to 14) (size 15 to 20)
#    0.000    2.500    2.500    2.500    0.000    1.500 
#    0.000    3.125    0.000    4.000    0.000    0.000 
#    0.000    0.000    0.000    0.000    0.000    0.000 
#
# Total GULP energy -534947.126468 kJ/mol
# GULP energy per Si atom -5572.365901 kJ/mol
# Density = 1.718845 g / cm^3
# Si number density = 17.227659 Si / 1000 Ang^3
#
#
#
# Elastic Constant Matrix: (Units=GPa)
#
#
# Indices 1 2 3 4 5 6 
#
# 1 42.3517 18.5231 27.8488 0.0000 0.0000 0.0000
# 2 18.5231 42.3517 27.8488 0.0000 0.0000 0.0000
# 3 27.8488 27.8488 98.1917 0.0000 0.0000 0.0000
# 4 0.0000 0.0000 0.0000 -4.0787 0.0000 0.0000
# 5 0.0000 0.0000 0.0000 0.0000 -4.0787 0.0000
# 6 0.0000 0.0000 0.0000 0.0000 0.0000 11.9143
#
#
#
# Elastic Compliance Matrix: (Units=1/GPa)
#
#
# Indices 1 2 3 4 5 6 
#
# 1 0.032075 -0.009891 -0.006292 0.000000 0.000000 0.000000
# 2 -0.009891 0.032075 -0.006292 0.000000 0.000000 0.000000
# 3 -0.006292 -0.006292 0.013753 0.000000 0.000000 0.000000
# 4 0.000000 0.000000 0.000000 -0.245174 0.000000 0.000000
# 5 0.000000 0.000000 0.000000 0.000000 -0.245174 0.000000
# 6 0.000000 0.000000 0.000000 0.000000 0.000000 0.083933
#
#
# Mechanical properties :
#
#
# Convention : Reuss Voigt Hill
#
# Bulk Modulus (GPa) = 30.34550 36.81516 33.58033
# Shear Modulus (GPa) = -18.34342 7.99632 -5.17355
#
# Velocity S-wave (km/s) = -3.26661 2.15677 -1.73481
# Velocity P-wave (km/s) = 1.85066 5.25532 3.93975
#
# Compressibility (1/GPa) = 0.03295382
#
# Stress axis : x y z
#
# Youngs Moduli (GPa) = 31.17687 31.17687 72.71131
#
# Poissons Ratio (x) = 0.30838 0.45748
# Poissons Ratio (y) = 0.30838 0.45748
# Poissons Ratio (z) = 0.19616 0.19616
#
# Static dielectric constant tensor:
#      x y z
#    x 1.596130 0.000000 0.000000 
#    y 0.000000 1.596130 0.000000 
#    z 0.000000 0.000000 1.645250 
# 
# From -- ./inp_files/3549.got.cif
#   From: 2010.05.17/outbox.cif.g08.bks.cpg/sg176_2_cif.got.tgz:3549.got - 2010.06.03 11:36:45.
