data_PCOD9581304
_publ_section_title
;
Structure prediction by ZEFSAII (Michael W. Deem and Ramdas Pophale) SiO2 
 PCOD9581304
Probable space group: P 6/M
;
_chemical_formula_sum "Si O2"
_cell_formula_units_Z 78
_cell_length_a 25.618931
_cell_length_b 25.618931
_cell_length_c 7.879356
_cell_angle_alpha 90.000000
_cell_angle_beta 90.000000
_cell_angle_gamma 120.000000
_cell_volume 4478.611208
_symmetry_space_group_name_H-M "P 6/M"
_symmetry_group_IT_number 175
_symmetry_cell_setting 'hexagonal'
loop_
_space_group_symop_operation_xyz
x,y,z
x-y,x,z
-y,x-y,z
-x,-y,z
-x+y,-x,z
y,-x+y,z
-x,-y,-z
-x+y,-x,-z
y,-x+y,-z
x,y,-z
x-y,x,-z
-y,x-y,-z
loop_
_atom_site_type_symbol
_atom_site_label
_atom_site_fract_x
_atom_site_fract_y
_atom_site_fract_z
Si Si1 0.932040 0.454668 0.300818
Si Si2 0.558882 0.637584 0.198648
Si Si3 0.351324 0.406633 0.198332
Si Si4 0.119387 0.351142 0.296992
Si Si5 0.895990 0.217059 0.699265
Si Si6 0.974985 0.863380 0.000000
Si Si7 0.013913 0.215127 0.705783
O O1 0.936251 0.446720 0.500000
O O2 0.898605 0.492814 0.273888
O O3 0.911283 0.390097 0.219465
O O4 0.000000 0.500000 0.232836
O O5 0.605833 0.617896 0.271114
O O6 0.592632 0.708677 0.224095
O O7 0.552509 0.624038 0.000000
O O8 0.286383 0.371415 0.281222
O O9 0.341913 0.391547 0.000000
O O10 0.124855 0.360204 0.500000
O O11 0.173985 0.343703 0.226809
O O12 0.059886 0.286378 0.267270
O O13 0.891514 0.202718 0.500000
O O14 0.948552 0.204740 0.760077
O O15 0.922565 0.880814 0.000000
O O16 0.969733 0.824208 0.169121
O O17 0.014983 0.203719 0.500000
#
# Coordination Sequence:
#
# PCOD9581304 Si02
#       7
#    12  12  12  12  12   6  12
#     4   9  17  29  47  67  95 135 171 201 239 291
#     4  10  19  30  46  71 102 134 169 208 251 302
#     4  10  19  30  46  71 102 134 169 208 251 302
#     4  10  20  33  51  75 104 138 177 221 269 326
#     4  10  20  33  51  75 104 138 177 221 269 326
#     4  12  27  44  64  84 106 135 180 236 292 350
#     4  10  22  41  61  82 109 143 181 224 281 352
#
# _framework density 17.416112999999999
#
# number of rings (size 3 to 8) (size 9 to 14) (size 15 to 20)
#    0.000    2.000    1.538    2.385    2.154    5.538 
#    0.000    0.000    0.000    0.923    0.000    0.000 
#    1.538    0.000    2.769    0.000    2.769    0.000 
#
# Total GULP energy -434801.169079 kJ/mol
# GULP energy per Si atom -5574.373963 kJ/mol
# Density = 1.737647 g / cm^3
# Si number density = 17.416113 Si / 1000 Ang^3
#
#
#
# Elastic Constant Matrix: (Units=GPa)
#
#
# Indices 1 2 3 4 5 6 
#
# 1 43.2084 2.6713 -1.9408 0.0000 0.0000 0.0000
# 2 2.6713 43.2084 -1.9408 0.0000 0.0000 0.0000
# 3 -1.9408 -1.9408 39.0365 0.0000 0.0000 0.0000
# 4 0.0000 0.0000 0.0000 12.5145 0.0000 0.0000
# 5 0.0000 0.0000 0.0000 0.0000 12.5145 0.0000
# 6 0.0000 0.0000 0.0000 0.0000 0.0000 20.2686
#
#
#
# Elastic Compliance Matrix: (Units=1/GPa)
#
#
# Indices 1 2 3 4 5 6 
#
# 1 0.023278 -0.001390 0.001088 0.000000 0.000000 0.000000
# 2 -0.001390 0.023278 0.001088 0.000000 0.000000 0.000000
# 3 0.001088 0.001088 0.025725 0.000000 0.000000 0.000000
# 4 0.000000 0.000000 0.000000 0.079907 0.000000 0.000000
# 5 0.000000 0.000000 0.000000 0.000000 0.079907 0.000000
# 6 0.000000 0.000000 0.000000 0.000000 0.000000 0.049338
#
#
# Mechanical properties :
#
#
# Convention : Reuss Voigt Hill
#
# Bulk Modulus (GPa) = 13.54014 13.67031 13.60523
# Shear Modulus (GPa) = 16.42141 17.50374 16.96258
#
# Velocity S-wave (km/s) = 3.07398 3.17366 3.12422
# Velocity P-wave (km/s) = 4.51558 4.61474 4.56543
#
# Compressibility (1/GPa) = 0.07385450
#
# Stress axis : x y z
#
# Youngs Moduli (GPa) = 42.95815 42.95815 38.87232
#
# Poissons Ratio (x) = 0.05972 -0.04230
# Poissons Ratio (y) = 0.05972 -0.04230
# Poissons Ratio (z) = -0.04675 -0.04675
#
# Static dielectric constant tensor:
#      x y z
#    x 1.611740 0.000000 0.000000 
#    y 0.000000 1.611740 0.000000 
#    z 0.000000 0.000000 1.613660 
# 
# From -- ./inp_files/1289.got.cif
#   From: 2010.05.17/outbox.cif.g08.bks.cpg/sg175_1_cif.got.tgz:1289.got - 2010.05.20 11:23:22.
