data_PCOD9581919
_publ_section_title
;
Structure prediction by ZEFSAII (Michael W. Deem and Ramdas Pophale) SiO2 
 PCOD9581919
Probable space group: P 63/M
;
_chemical_formula_sum "Si O2"
_cell_formula_units_Z 52
_cell_length_a 13.494495
_cell_length_b 13.494495
_cell_length_c 14.064658
_cell_angle_alpha 90.000000
_cell_angle_beta 90.000000
_cell_angle_gamma 120.000000
_cell_volume 2218.058935
_symmetry_space_group_name_H-M "P 63/M"
_symmetry_group_IT_number 176
_symmetry_cell_setting 'hexagonal'
loop_
_space_group_symop_operation_xyz
x,y,z
x-y,x,1/2+z
-y,x-y,z
-x,-y,1/2+z
-x+y,-x,z
y,-x+y,1/2+z
-x,-y,-z
-x+y,-x,1/2-z
y,-x+y,-z
x,y,1/2-z
x-y,x,-z
-y,x-y,1/2-z
loop_
_atom_site_type_symbol
_atom_site_label
_atom_site_fract_x
_atom_site_fract_y
_atom_site_fract_z
Si Si1 0.474922 0.922300 0.863414
Si Si2 0.242779 0.209438 0.353682
Si Si3 0.228149 0.786497 0.957478
Si Si4 0.326626 0.475654 0.357466
Si Si5 0.000000 0.000000 0.887723
O O1 0.475845 0.915135 0.750000
O O2 0.346859 0.836691 0.900889
O O3 0.551583 0.876530 0.909843
O O4 0.509359 0.053080 0.885881
O O5 0.291448 0.199548 0.250000
O O6 0.311151 0.197496 0.442410
O O7 0.263950 0.337067 0.355644
O O8 0.111740 0.114679 0.355728
O O9 0.239608 0.743739 0.061395
O O10 0.325018 0.515207 0.250000
O O11 0.000000 0.000000 0.000000
#
# Coordination Sequence:
#
# PCOD9581919 Si02
#       5
#    12  12  12  12   4
#     4  10  20  35  57  85 112 143 191 248 293 335
#     4  10  21  37  57  83 115 151 193 242 290 341
#     4  11  20  36  60  85 112 152 195 240 293 346
#     4   9  20  37  54  77 115 153 186 234 293 350
#     4  12  22  35  55  84 121 161 197 236 286 354
#
# _framework density 23.443921
#
# number of rings (size 3 to 8) (size 9 to 14) (size 15 to 20)
#    0.000    1.846    0.000    6.692    0.000    1.846 
#    0.000    1.154    0.000   11.077    0.000    0.000 
#    0.000    0.000    0.000    0.000    0.000    0.000 
#
# Total GULP energy -290813.374012 kJ/mol
# GULP energy per Si atom -5592.564885 kJ/mol
# Density = 2.339056 g / cm^3
# Si number density = 23.443921 Si / 1000 Ang^3
#
#
#
# Elastic Constant Matrix: (Units=GPa)
#
#
# Indices 1 2 3 4 5 6 
#
# 1 59.5499 17.0899 -3.6112 0.0000 0.0000 0.0000
# 2 17.0899 59.5499 -3.6112 0.0000 0.0000 0.0000
# 3 -3.6112 -3.6112 115.7886 0.0000 0.0000 0.0000
# 4 0.0000 0.0000 0.0000 26.8433 0.0000 0.0000
# 5 0.0000 0.0000 0.0000 0.0000 26.8433 0.0000
# 6 0.0000 0.0000 0.0000 0.0000 0.0000 21.2300
#
#
#
# Elastic Compliance Matrix: (Units=1/GPa)
#
#
# Indices 1 2 3 4 5 6 
#
# 1 0.018319 -0.005233 0.000408 0.000000 0.000000 0.000000
# 2 -0.005233 0.018319 0.000408 0.000000 0.000000 0.000000
# 3 0.000408 0.000408 0.008662 0.000000 0.000000 0.000000
# 4 0.000000 0.000000 0.000000 0.037253 0.000000 0.000000
# 5 0.000000 0.000000 0.000000 0.000000 0.037253 0.000000
# 6 0.000000 0.000000 0.000000 0.000000 0.000000 0.047103
#
#
# Mechanical properties :
#
#
# Convention : Reuss Voigt Hill
#
# Bulk Modulus (GPa) = 27.42173 28.29152 27.85663
# Shear Modulus (GPa) = 26.61019 29.98472 28.29745
#
# Velocity S-wave (km/s) = 3.37272 3.58019 3.47800
# Velocity P-wave (km/s) = 5.18547 5.40225 5.29497
#
# Compressibility (1/GPa) = 0.03646743
#
# Stress axis : x y z
#
# Youngs Moduli (GPa) = 54.58800 54.58800 115.44834
#
# Poissons Ratio (x) = 0.28563 -0.04712
# Poissons Ratio (y) = 0.28563 -0.04712
# Poissons Ratio (z) = -0.02228 -0.02228
#
# Static dielectric constant tensor:
#      x y z
#    x 1.870420 0.000000 0.000000 
#    y 0.000000 1.870420 0.000000 
#    z 0.000000 0.000000 1.959750 
# 
# From -- ./inp_files/2569.got.cif
#   From: 2010.05.17/outbox.cif.g08.bks.cpg/sg176_2_cif.got.tgz:2569.got - 2010.06.03 11:36:45.
