data_PCOD9581236
_publ_section_title
;
Structure prediction by ZEFSAII (Michael W. Deem and Ramdas Pophale) SiO2 
 PCOD9581236
Probable space group: P 6/M
;
_chemical_formula_sum "Si O2"
_cell_formula_units_Z 90
_cell_length_a 27.504439
_cell_length_b 27.504439
_cell_length_c 7.695431
_cell_angle_alpha 90.000000
_cell_angle_beta 90.000000
_cell_angle_gamma 120.000000
_cell_volume 5041.609017
_symmetry_space_group_name_H-M "P 6/M"
_symmetry_group_IT_number 175
_symmetry_cell_setting 'hexagonal'
loop_
_space_group_symop_operation_xyz
x,y,z
x-y,x,z
-y,x-y,z
-x,-y,z
-x+y,-x,z
y,-x+y,z
-x,-y,-z
-x+y,-x,-z
y,-x+y,-z
x,y,-z
x-y,x,-z
-y,x-y,-z
loop_
_atom_site_type_symbol
_atom_site_label
_atom_site_fract_x
_atom_site_fract_y
_atom_site_fract_z
Si Si1 0.149479 0.921862 0.209965
Si Si2 0.054168 0.135406 0.500000
Si Si3 0.928052 0.509367 0.710412
Si Si4 0.941198 0.410599 0.711884
Si Si5 0.278172 0.279304 0.804030
Si Si6 0.648240 0.814499 0.197021
Si Si7 0.714347 0.610580 0.303134
Si Si8 0.092723 0.397589 0.301449
O O1 0.106996 0.930473 0.331151
O O2 0.213971 0.970960 0.248030
O O3 0.151226 0.864879 0.254803
O O4 0.139532 0.922174 0.000000
O O5 0.091022 0.104148 0.500000
O O6 0.924466 0.504419 0.500000
O O7 0.913960 0.447926 0.772122
O O8 0.896316 0.542520 0.764767
O O9 0.993006 0.552670 0.756665
O O10 0.939590 0.408151 0.500000
O O11 0.914982 0.346895 0.772478
O O12 0.275282 0.326376 0.694367
O O13 0.343785 0.298103 0.799222
O O14 0.146291 0.348180 0.000000
O O15 0.593009 0.876673 0.500000
O O16 0.617312 0.849802 0.203263
O O17 0.612186 0.757232 0.299677
O O18 0.739309 0.716985 0.000000
O O19 0.071594 0.391482 0.500000
#
# Coordination Sequence:
#
# PCOD9581236 Si02
#       8
#    12   6  12  12  12  12  12  12
#     4   9  23  42  62  87 111 141 176 216 267 333
#     4  12  29  48  70  88 108 134 171 229 279 335
#     4   8  13  24  44  67  99 132 170 210 243 278
#     4   8  14  25  41  71 103 134 167 206 247 282
#     4  10  20  32  48  74 110 141 166 203 257 307
#     4  10  22  36  49  73 111 141 166 211 270 319
#     4  11  20  29  50  77 105 138 175 211 251 311
#     4  10  17  29  49  72  94 134 181 214 241 297
#
# _framework density 17.851444000000001
#
# number of rings (size 3 to 8) (size 9 to 14) (size 15 to 20)
#    0.000    2.400    1.333    3.267    7.467    0.533 
#    0.000    0.000    0.000    4.800    0.000    0.000 
#    1.333    0.000    2.400    0.000    0.800    0.000 
#
# Total GULP energy -501398.244181 kJ/mol
# GULP energy per Si atom -5571.091602 kJ/mol
# Density = 1.781081 g / cm^3
# Si number density = 17.851444 Si / 1000 Ang^3
#
#
#
# Elastic Constant Matrix: (Units=GPa)
#
#
# Indices 1 2 3 4 5 6 
#
# 1 92.6792 50.7388 20.9387 0.0000 0.0000 0.0000
# 2 50.7388 92.6792 20.9387 0.0000 0.0000 0.0000
# 3 20.9387 20.9387 51.0131 0.0000 0.0000 0.0000
# 4 0.0000 0.0000 0.0000 65.8683 0.0000 0.0000
# 5 0.0000 0.0000 0.0000 0.0000 65.8683 0.0000
# 6 0.0000 0.0000 0.0000 0.0000 0.0000 20.9702
#
#
#
# Elastic Compliance Matrix: (Units=1/GPa)
#
#
# Indices 1 2 3 4 5 6 
#
# 1 0.015883 -0.007961 -0.003252 0.000000 0.000000 0.000000
# 2 -0.007961 0.015883 -0.003252 0.000000 0.000000 0.000000
# 3 -0.003252 -0.003252 0.022272 0.000000 0.000000 0.000000
# 4 0.000000 0.000000 0.000000 0.015182 0.000000 0.000000
# 5 0.000000 0.000000 0.000000 0.000000 0.015182 0.000000
# 6 0.000000 0.000000 0.000000 0.000000 0.000000 0.047687
#
#
# Mechanical properties :
#
#
# Convention : Reuss Voigt Hill
#
# Bulk Modulus (GPa) = 39.82537 46.84488 43.33512
# Shear Modulus (GPa) = 29.51843 40.12506 34.82175
#
# Velocity S-wave (km/s) = 4.07081 4.74616 4.42140
# Velocity P-wave (km/s) = 6.66731 7.50554 7.09881
#
# Compressibility (1/GPa) = 0.02510962
#
# Stress axis : x y z
#
# Youngs Moduli (GPa) = 62.96152 62.96152 44.89914
#
# Poissons Ratio (x) = 0.50121 0.14600
# Poissons Ratio (y) = 0.50121 0.14600
# Poissons Ratio (z) = 0.20473 0.20473
#
# Static dielectric constant tensor:
#      x y z
#    x 1.628950 0.000000 0.000000 
#    y 0.000000 1.628950 0.000000 
#    z 0.000000 0.000000 1.646690 
# 
# From -- ./inp_files/1435.got.cif
#   From: 2010.05.17/outbox.cif.g08.bks.cpg/sg175_1_cif.got.tgz:1435.got - 2010.05.20 11:23:22.
