data_PCOD9581484
_publ_section_title
;
Structure prediction by ZEFSAII (Michael W. Deem and Ramdas Pophale) SiO2 
 PCOD9581484
Probable space group: P 6/M
;
_chemical_formula_sum "Si O2"
_cell_formula_units_Z 76
_cell_length_a 18.244235
_cell_length_b 18.244235
_cell_length_c 13.707046
_cell_angle_alpha 90.000000
_cell_angle_beta 90.000000
_cell_angle_gamma 120.000000
_cell_volume 3951.170924
_symmetry_space_group_name_H-M "P 6/M"
_symmetry_group_IT_number 175
_symmetry_cell_setting 'hexagonal'
loop_
_space_group_symop_operation_xyz
x,y,z
x-y,x,z
-y,x-y,z
-x,-y,z
-x+y,-x,z
y,-x+y,z
-x,-y,-z
-x+y,-x,-z
y,-x+y,-z
x,y,-z
x-y,x,-z
-y,x-y,-z
loop_
_atom_site_type_symbol
_atom_site_label
_atom_site_fract_x
_atom_site_fract_y
_atom_site_fract_z
Si Si1 0.489052 0.306007 0.616244
Si Si2 0.333334 0.666667 0.618278
Si Si3 0.024668 0.428087 0.247647
Si Si4 0.176661 0.153337 0.881848
Si Si5 0.749097 0.116050 0.884495
Si Si6 0.196712 0.065280 0.616652
Si Si7 0.133125 0.758349 0.276122
O O1 0.485979 0.309313 0.500000
O O2 0.586145 0.341337 0.648790
O O3 0.449423 0.358846 0.663524
O O4 0.437287 0.209385 0.652813
O O5 0.333334 0.666668 0.500000
O O6 0.940023 0.337997 0.262974
O O7 0.000000 0.500000 0.237359
O O8 0.078531 0.423430 0.156433
O O9 0.100878 0.165850 0.847453
O O10 0.270478 0.226556 0.859578
O O11 0.171174 0.149752 0.000000
O O12 0.817996 0.197546 0.824757
O O13 0.756414 0.130705 0.000000
O O14 0.159890 0.127711 0.637073
O O15 0.214732 0.071439 0.500000
O O16 0.282241 0.093740 0.675747
#
# Coordination Sequence:
#
# PCOD9581484 Si02
#       7
#    12   4  12  12  12  12  12
#     4  10  21  37  59  88 121 158 196 237 293 357
#     4   9  18  36  60  84 115 155 196 240 294 360
#     4  11  24  40  61  90 118 149 192 245 303 365
#     4   9  16  27  46  73 105 141 180 221 265 316
#     4  10  22  40  59  79 109 151 196 243 298 356
#     4  10  20  35  56  84 122 168 213 250 282 326
#     4  11  22  37  58  85 118 153 195 244 299 358
#
# _framework density 19.234805000000001
#
# number of rings (size 3 to 8) (size 9 to 14) (size 15 to 20)
#    0.000    1.895    0.000    4.579    0.000    6.316 
#    0.000    0.000    0.000    1.895    0.000    0.000 
#    0.000    0.000    0.000    0.000    0.000    0.000 
#
# Total GULP energy -424773.051162 kJ/mol
# GULP energy per Si atom -5589.119094 kJ/mol
# Density = 1.919103 g / cm^3
# Si number density = 19.234805 Si / 1000 Ang^3
#
#
#
# Elastic Constant Matrix: (Units=GPa)
#
#
# Indices 1 2 3 4 5 6 
#
# 1 139.7671 72.4865 52.3370 0.0000 0.0000 -0.0002
# 2 72.4865 139.7681 52.3374 0.0000 0.0000 -0.0006
# 3 52.3370 52.3374 106.5361 0.0000 0.0000 -0.0001
# 4 0.0000 0.0000 0.0000 18.2025 -0.0001 0.0000
# 5 0.0000 0.0000 0.0000 -0.0001 18.2023 0.0000
# 6 -0.0002 -0.0006 -0.0001 0.0000 0.0000 33.6404
#
#
#
# Elastic Compliance Matrix: (Units=1/GPa)
#
#
# Indices 1 2 3 4 5 6 
#
# 1 0.010540 -0.004323 -0.003055 0.000000 0.000000 0.000000
# 2 -0.004323 0.010540 -0.003055 0.000000 0.000000 0.000000
# 3 -0.003055 -0.003055 0.012388 0.000000 0.000000 0.000000
# 4 0.000000 0.000000 0.000000 0.054937 0.000000 0.000000
# 5 0.000000 0.000000 0.000000 0.000000 0.054938 0.000000
# 6 0.000000 0.000000 0.000000 0.000000 0.000000 0.029726
#
#
# Mechanical properties :
#
#
# Convention : Reuss Voigt Hill
#
# Bulk Modulus (GPa) = 79.33399 82.26588 80.79994
# Shear Modulus (GPa) = 25.23530 27.93640 26.58585
#
# Velocity S-wave (km/s) = 3.62603 3.81516 3.72179
# Velocity P-wave (km/s) = 7.67237 7.89109 7.78250
#
# Compressibility (1/GPa) = 0.01260494
#
# Stress axis : x y z
#
# Youngs Moduli (GPa) = 94.87324 94.87378 80.72567
#
# Poissons Ratio (x) = 0.41011 0.24658
# Poissons Ratio (y) = 0.41010 0.24658
# Poissons Ratio (z) = 0.28979 0.28979
#
# Static dielectric constant tensor:
#      x y z
#    x 1.657170 0.000000 0.000000 
#    y 0.000000 1.657170 0.000000 
#    z 0.000000 0.000000 1.690870 
# 
# From -- ./inp_files/2558.got.cif
#   From: 2010.05.17/outbox.cif.g08.bks.cpg/sg175_2_cif.got.tgz:2558.got - 2010.05.20 11:23:22.
