data_PCOD9581694
_publ_section_title
;
Structure prediction by ZEFSAII (Michael W. Deem and Ramdas Pophale) SiO2 
 PCOD9581694
Probable space group: P 6/M
;
_chemical_formula_sum "Si O2"
_cell_formula_units_Z 46
_cell_length_a 18.044159
_cell_length_b 18.044159
_cell_length_c 7.930814
_cell_angle_alpha 90.000000
_cell_angle_beta 90.000000
_cell_angle_gamma 120.000000
_cell_volume 2236.256866
_symmetry_space_group_name_H-M "P 6/M"
_symmetry_group_IT_number 175
_symmetry_cell_setting 'hexagonal'
loop_
_space_group_symop_operation_xyz
x,y,z
x-y,x,z
-y,x-y,z
-x,-y,z
-x+y,-x,z
y,-x+y,z
-x,-y,-z
-x+y,-x,-z
y,-x+y,-z
x,y,-z
x-y,x,-z
-y,x-y,-z
loop_
_atom_site_type_symbol
_atom_site_label
_atom_site_fract_x
_atom_site_fract_y
_atom_site_fract_z
Si Si1 0.960332 0.153397 0.000000
Si Si2 0.405787 0.973699 0.804359
Si Si3 0.333334 0.666668 0.200069
Si Si4 0.758758 0.677070 0.306159
Si Si5 0.269576 0.790634 0.301442
O O1 0.947839 0.197314 0.166971
O O2 0.054536 0.166377 0.000000
O O3 0.343587 0.872248 0.793163
O O4 0.500000 0.000000 0.740824
O O5 0.362737 0.019614 0.706095
O O6 0.414246 0.001246 0.000000
O O7 0.277138 0.707653 0.262502
O O8 0.333334 0.666668 0.000000
O O9 0.786595 0.704521 0.500000
O O10 0.777965 0.601030 0.261008
O O11 0.283647 0.808350 0.500000
#
# Coordination Sequence:
#
# PCOD9581694 Si02
#       5
#     6  12   4  12  12
#     4  12  27  48  75 102 134 170 216 280 348 424
#     4  11  23  39  64  97 134 177 224 275 331 391
#     4  12  25  38  61  93 136 185 232 282 325 386
#     4  11  25  44  70 102 135 178 226 278 336 402
#     4  11  24  41  63  91 131 176 223 274 331 395
#
# _framework density 20.570087000000001
#
# number of rings (size 3 to 8) (size 9 to 14) (size 15 to 20)
#    0.000    0.783    1.304    5.609    3.652    9.391 
#    0.000    0.000    0.000    1.565    0.000    0.000 
#    0.000    0.000    0.000    0.000    0.000    0.000 
#
# Total GULP energy -257503.078369 kJ/mol
# GULP energy per Si atom -5597.893008 kJ/mol
# Density = 2.052327 g / cm^3
# Si number density = 20.570087 Si / 1000 Ang^3
#
#
#
# Elastic Constant Matrix: (Units=GPa)
#
#
# Indices 1 2 3 4 5 6 
#
# 1 112.6270 44.0949 45.1256 0.0000 0.0000 0.0026
# 2 44.0949 112.6342 45.1254 0.0000 0.0000 0.0003
# 3 45.1256 45.1254 89.3549 0.0000 0.0000 -0.0007
# 4 0.0000 0.0000 0.0000 46.0933 -0.0008 0.0000
# 5 0.0000 0.0000 0.0000 -0.0008 46.0954 0.0000
# 6 0.0026 0.0003 -0.0007 0.0000 0.0000 34.2721
#
#
#
# Elastic Compliance Matrix: (Units=1/GPa)
#
#
# Indices 1 2 3 4 5 6 
#
# 1 0.011794 -0.002797 -0.004544 0.000000 0.000000 -0.000001
# 2 -0.002797 0.011794 -0.004543 0.000000 0.000000 0.000000
# 3 -0.004544 -0.004543 0.015781 0.000000 0.000000 0.000001
# 4 0.000000 0.000000 0.000000 0.021695 0.000000 0.000000
# 5 0.000000 0.000000 0.000000 0.000000 0.021694 0.000000
# 6 -0.000001 0.000000 0.000001 0.000000 0.000000 0.029178
#
#
# Mechanical properties :
#
#
# Convention : Reuss Voigt Hill
#
# Bulk Modulus (GPa) = 64.10221 64.81197 64.45709
# Shear Modulus (GPa) = 35.48504 37.31018 36.39761
#
# Velocity S-wave (km/s) = 4.15791 4.26350 4.21104
# Velocity P-wave (km/s) = 7.36760 7.47080 7.41938
#
# Compressibility (1/GPa) = 0.01560009
#
# Stress axis : x y z
#
# Youngs Moduli (GPa) = 84.78540 84.79241 63.36930
#
# Poissons Ratio (x) = 0.23716 0.28794
# Poissons Ratio (y) = 0.23714 0.28791
# Poissons Ratio (z) = 0.38526 0.38524
#
# Static dielectric constant tensor:
#      x y z
#    x 1.714400 0.000000 0.000000 
#    y 0.000000 1.714400 0.000000 
#    z 0.000000 0.000000 1.718890 
# 
# From -- ./inp_files/542.got.cif
#   From: 2010.05.17/outbox.cif.g08.bks.cpg/sg175_1_cif.got.tgz:542.got - 2010.05.20 11:23:22.
