data_PCOD9581763
_publ_section_title
;
Structure prediction by ZEFSAII (Michael W. Deem and Ramdas Pophale) SiO2 
 PCOD9581763
Probable space group: P 63/M
;
_chemical_formula_sum "Si O2"
_cell_formula_units_Z 60
_cell_length_a 19.013852
_cell_length_b 19.013852
_cell_length_c 8.323369
_cell_angle_alpha 90.000000
_cell_angle_beta 90.000000
_cell_angle_gamma 120.000000
_cell_volume 2605.973521
_symmetry_space_group_name_H-M "P 63/M"
_symmetry_group_IT_number 176
_symmetry_cell_setting 'hexagonal'
loop_
_space_group_symop_operation_xyz
x,y,z
x-y,x,1/2+z
-y,x-y,z
-x,-y,1/2+z
-x+y,-x,z
y,-x+y,1/2+z
-x,-y,-z
-x+y,-x,1/2-z
y,-x+y,-z
x,y,1/2-z
x-y,x,-z
-y,x-y,1/2-z
loop_
_atom_site_type_symbol
_atom_site_label
_atom_site_fract_x
_atom_site_fract_y
_atom_site_fract_z
Si Si1 0.875851 0.408120 0.074765
Si Si2 0.520785 0.744425 0.250000
Si Si3 0.935281 0.111673 0.562314
Si Si4 0.338327 0.207116 0.563790
Si Si5 0.380530 0.984338 0.570843
Si Si6 0.392460 0.783926 0.250000
O O1 0.836122 0.379879 0.250000
O O2 0.923419 0.506640 0.075792
O O3 0.816766 0.379548 0.922369
O O4 0.943927 0.382603 0.047315
O O5 0.574640 0.786175 0.095682
O O6 0.422613 0.709542 0.250000
O O7 0.496425 0.650758 0.250000
O O8 0.957628 0.131735 0.750000
O O9 0.879631 0.148822 0.504915
O O10 0.015641 0.139392 0.460822
O O11 0.315077 0.213358 0.750000
O O12 0.351216 0.285363 0.469908
O O13 0.391173 0.020381 0.750000
#
# Coordination Sequence:
#
# PCOD9581763 Si02
#       6
#    12   6  12  12  12   6
#     4  10  20  33  58  91 124 160 216 269 324 399
#     4  10  23  40  66  88 132 176 228 276 334 410
#     4  11  24  43  68  95 132 174 224 278 340 412
#     4   9  20  40  59  88 132 167 208 280 332 390
#     4  10  18  32  58  93 126 164 205 264 334 393
#     4  12  21  42  62  90 124 180 220 272 338 392
#
# _framework density 23.024025999999999
#
# number of rings (size 3 to 8) (size 9 to 14) (size 15 to 20)
#    0.600    1.200    3.000    1.600    1.400    3.200 
#    0.000    2.000    0.000    0.000    0.000    0.000 
#    0.000    0.000    0.000    0.000    0.000    0.000 
#
# Total GULP energy -334195.810963 kJ/mol
# GULP energy per Si atom -5569.930183 kJ/mol
# Density = 2.297162 g / cm^3
# Si number density = 23.024026 Si / 1000 Ang^3
#
#
#
# Elastic Constant Matrix: (Units=GPa)
#
#
# Indices 1 2 3 4 5 6 
#
# 1 87.7933 14.4894 18.3965 0.0000 0.0000 0.0000
# 2 14.4894 87.7933 18.3965 0.0000 0.0000 0.0000
# 3 18.3965 18.3965 108.8656 0.0000 0.0000 0.0000
# 4 0.0000 0.0000 0.0000 2.6871 0.0000 0.0000
# 5 0.0000 0.0000 0.0000 0.0000 2.6871 0.0000
# 6 0.0000 0.0000 0.0000 0.0000 0.0000 36.6519
#
#
#
# Elastic Compliance Matrix: (Units=1/GPa)
#
#
# Indices 1 2 3 4 5 6 
#
# 1 0.012026 -0.001616 -0.001759 0.000000 0.000000 0.000000
# 2 -0.001616 0.012026 -0.001759 0.000000 0.000000 0.000000
# 3 -0.001759 -0.001759 0.009780 0.000000 0.000000 0.000000
# 4 0.000000 0.000000 0.000000 0.372152 0.000000 0.000000
# 5 0.000000 0.000000 0.000000 0.000000 0.372152 0.000000
# 6 0.000000 0.000000 0.000000 0.000000 0.000000 0.027284
#
#
# Mechanical properties :
#
#
# Convention : Reuss Voigt Hill
#
# Bulk Modulus (GPa) = 42.43922 43.00190 42.72056
# Shear Modulus (GPa) = 6.07134 23.94988 15.01061
#
# Velocity S-wave (km/s) = 1.62563 3.22873 2.55611
# Velocity P-wave (km/s) = 4.69001 5.71114 5.22558
#
# Compressibility (1/GPa) = 0.02356311
#
# Stress axis : x y z
#
# Youngs Moduli (GPa) = 83.15517 83.15517 102.24809
#
# Poissons Ratio (x) = 0.13439 0.17986
# Poissons Ratio (y) = 0.13439 0.17986
# Poissons Ratio (z) = 0.14627 0.14627
#
# Static dielectric constant tensor:
#      x y z
#    x 1.926330 0.000000 0.000000 
#    y 0.000000 1.926330 0.000000 
#    z 0.000000 0.000000 1.295780 
# 
# From -- ./inp_files/934.got.cif
#   From: 2010.05.17/outbox.cif.g08.bks.cpg/sg176_1_cif.got.tgz:934.got - 2010.06.03 11:36:45.
