data_PCOD9581387
_publ_section_title
;
Structure prediction by ZEFSAII (Michael W. Deem and Ramdas Pophale) SiO2 
 PCOD9581387
Probable space group: P 6/M
;
_chemical_formula_sum "Si O2"
_cell_formula_units_Z 60
_cell_length_a 18.566480
_cell_length_b 18.566480
_cell_length_c 10.252335
_cell_angle_alpha 90.000000
_cell_angle_beta 90.000000
_cell_angle_gamma 120.000000
_cell_volume 3060.642245
_symmetry_space_group_name_H-M "P 6/M"
_symmetry_group_IT_number 175
_symmetry_cell_setting 'hexagonal'
loop_
_space_group_symop_operation_xyz
x,y,z
x-y,x,z
-y,x-y,z
-x,-y,z
-x+y,-x,z
y,-x+y,z
-x,-y,-z
-x+y,-x,-z
y,-x+y,-z
x,y,-z
x-y,x,-z
-y,x-y,-z
loop_
_atom_site_type_symbol
_atom_site_label
_atom_site_fract_x
_atom_site_fract_y
_atom_site_fract_z
Si Si1 0.501526 0.420500 0.781494
Si Si2 0.215640 0.748816 0.000000
Si Si3 0.208939 0.606394 0.000000
Si Si4 0.191308 0.130313 0.843798
Si Si5 0.624312 0.759041 0.758369
Si Si6 0.770487 0.530897 0.500000
Si Si7 0.856278 0.424904 0.500000
O O1 0.500000 0.500000 0.834952
O O2 0.554369 0.389332 0.866850
O O3 0.410253 0.339214 0.773926
O O4 0.537767 0.441947 0.635009
O O5 0.217079 0.799327 0.124031
O O6 0.149614 0.654134 0.000000
O O7 0.286256 0.713938 0.000000
O O8 0.122838 0.156485 0.814550
O O9 0.277394 0.187150 0.770544
O O10 0.208054 0.141912 0.000000
O O11 0.586198 0.771081 0.626038
O O12 0.786723 0.453064 0.500000
O O13 0.672737 0.493425 0.500000
#
# Coordination Sequence:
#
# PCOD9581387 Si02
#       7
#    12   6   6  12  12   6   6
#     4  10  21  36  52  79 114 154 190 230 280 341
#     4  10  19  34  52  79 113 148 195 241 287 337
#     4  10  20  32  52  75 106 144 184 231 278 329
#     4  10  21  40  65  92 117 150 193 252 319 389
#     4  10  21  37  56  86 121 150 199 251 296 359
#     4  10  21  36  58  85 119 160 205 247 289 337
#     4  10  20  36  56  77 110 152 198 235 272 327
#
# _framework density 19.603729000000001
#
# number of rings (size 3 to 8) (size 9 to 14) (size 15 to 20)
#    0.000    2.000    1.000    2.400    0.000    4.000 
#    0.000    5.000    0.000    0.000    0.000    1.400 
#    0.000    0.000    0.000    0.000    0.000    0.000 
#
# Total GULP energy -334139.431823 kJ/mol
# GULP energy per Si atom -5568.990530 kJ/mol
# Density = 1.955911 g / cm^3
# Si number density = 19.603729 Si / 1000 Ang^3
#
#
#
# Elastic Constant Matrix: (Units=GPa)
#
#
# Indices 1 2 3 4 5 6 
#
# 1 129.3971 81.1614 40.4631 0.0000 0.0000 0.0000
# 2 81.1614 129.3971 40.4631 0.0000 0.0000 0.0000
# 3 40.4631 40.4631 117.1422 0.0000 0.0000 0.0000
# 4 0.0000 0.0000 0.0000 6.8960 0.0000 0.0000
# 5 0.0000 0.0000 0.0000 0.0000 6.8960 0.0000
# 6 0.0000 0.0000 0.0000 0.0000 0.0000 24.1179
#
#
#
# Elastic Compliance Matrix: (Units=1/GPa)
#
#
# Indices 1 2 3 4 5 6 
#
# 1 0.013104 -0.007628 -0.001892 0.000000 0.000000 0.000000
# 2 -0.007628 0.013104 -0.001892 0.000000 0.000000 0.000000
# 3 -0.001892 -0.001892 0.009843 0.000000 0.000000 0.000000
# 4 0.000000 0.000000 0.000000 0.145011 0.000000 0.000000
# 5 0.000000 0.000000 0.000000 0.000000 0.145011 0.000000
# 6 0.000000 0.000000 0.000000 0.000000 0.000000 0.041463
#
#
# Mechanical properties :
#
#
# Convention : Reuss Voigt Hill
#
# Bulk Modulus (GPa) = 75.58825 77.79016 76.68920
# Shear Modulus (GPa) = 12.66567 21.83857 17.25212
#
# Velocity S-wave (km/s) = 2.54458 3.34129 2.96977
# Velocity P-wave (km/s) = 6.87568 7.39277 7.13891
#
# Compressibility (1/GPa) = 0.01322957
#
# Stress axis : x y z
#
# Youngs Moduli (GPa) = 76.31310 76.31310 101.59058
#
# Poissons Ratio (x) = 0.58209 0.19217
# Poissons Ratio (y) = 0.58209 0.19217
# Poissons Ratio (z) = 0.14435 0.14435
#
# Static dielectric constant tensor:
#      x y z
#    x 1.711840 0.000000 0.000000 
#    y 0.000000 1.711840 0.000000 
#    z 0.000000 0.000000 1.666970 
# 
# From -- ./inp_files/1879.got.cif
#   From: 2010.05.17/outbox.cif.g08.bks.cpg/sg175_1_cif.got.tgz:1879.got - 2010.05.20 11:23:22.
