data_PCOD9581400
_publ_section_title
;
Structure prediction by ZEFSAII (Michael W. Deem and Ramdas Pophale) SiO2 
 PCOD9581400
Probable space group: P 6/M
;
_chemical_formula_sum "Si O2"
_cell_formula_units_Z 52
_cell_length_a 13.569557
_cell_length_b 13.569557
_cell_length_c 19.645956
_cell_angle_alpha 90.000000
_cell_angle_beta 90.000000
_cell_angle_gamma 120.000000
_cell_volume 3132.817802
_symmetry_space_group_name_H-M "P 6/M"
_symmetry_group_IT_number 175
_symmetry_cell_setting 'hexagonal'
loop_
_space_group_symop_operation_xyz
x,y,z
x-y,x,z
-y,x-y,z
-x,-y,z
-x+y,-x,z
y,-x+y,z
-x,-y,-z
-x+y,-x,-z
y,-x+y,-z
x,y,-z
x-y,x,-z
-y,x-y,-z
loop_
_atom_site_type_symbol
_atom_site_label
_atom_site_fract_x
_atom_site_fract_y
_atom_site_fract_z
Si Si1 0.394071 0.372339 0.777276
Si Si2 0.753948 0.770327 0.349468
Si Si3 0.333333 0.666667 0.080764
Si Si4 0.870517 0.728831 0.000000
Si Si5 0.983924 0.758385 0.500000
Si Si6 0.423527 0.193770 0.865847
O O1 0.500000 0.500000 0.768389
O O2 0.333520 0.311571 0.706967
O O3 0.430059 0.291452 0.816769
O O4 0.298640 0.376877 0.823853
O O5 0.874733 0.772892 0.342374
O O6 0.706461 0.726013 0.426005
O O7 0.451102 0.768718 0.107626
O O8 0.333334 0.666668 0.000000
O O9 0.808210 0.802592 0.000000
O O10 0.831798 0.652078 0.932052
O O11 0.878410 0.779582 0.500000
#
# Coordination Sequence:
#
# PCOD9581400 Si02
#       6
#    12  12   4   6   6  12
#     4  12  24  38  58  83 115 151 190 239 286 337
#     4  10  19  34  58  89 120 152 186 230 287 347
#     4  12  24  39  63  90 105 142 197 247 294 336
#     4  12  25  40  60  84 114 151 182 230 292 350
#     4   8  15  28  51  84 120 150 184 226 276 340
#     4  12  24  39  59  83 114 146 189 237 288 342
#
# _framework density 16.598476000000002
#
# number of rings (size 3 to 8) (size 9 to 14) (size 15 to 20)
#    0.000    0.923    8.077    0.462    0.000    1.846 
#    0.000    4.038    0.000    0.000    0.000    0.000 
#    0.000    0.000    0.000    0.000    0.000    0.000 
#
# Total GULP energy -290082.484021 kJ/mol
# GULP energy per Si atom -5578.509308 kJ/mol
# Density = 1.656070 g / cm^3
# Si number density = 16.598476 Si / 1000 Ang^3
#
#
#
# Elastic Constant Matrix: (Units=GPa)
#
#
# Indices 1 2 3 4 5 6 
#
# 1 60.1754 -4.1499 32.4171 0.0000 0.0000 0.0003
# 2 -4.1499 60.1752 32.4171 0.0000 0.0000 0.0004
# 3 32.4171 32.4171 151.9153 0.0000 0.0000 0.0004
# 4 0.0000 0.0000 0.0000 28.3670 0.0001 0.0000
# 5 0.0000 0.0000 0.0000 0.0001 28.3671 0.0000
# 6 0.0003 0.0004 0.0004 0.0000 0.0000 32.1626
#
#
#
# Elastic Compliance Matrix: (Units=1/GPa)
#
#
# Indices 1 2 3 4 5 6 
#
# 1 0.019624 0.004078 -0.005058 0.000000 0.000000 0.000000
# 2 0.004078 0.019624 -0.005058 0.000000 0.000000 0.000000
# 3 -0.005058 -0.005058 0.008741 0.000000 0.000000 0.000000
# 4 0.000000 0.000000 0.000000 0.035252 0.000000 0.000000
# 5 0.000000 0.000000 0.000000 0.000000 0.035252 0.000000
# 6 0.000000 0.000000 0.000000 0.000000 0.000000 0.031092
#
#
# Mechanical properties :
#
#
# Convention : Reuss Voigt Hill
#
# Bulk Modulus (GPa) = 27.84415 43.73717 35.79066
# Shear Modulus (GPa) = 28.79654 31.88478 30.34066
#
# Velocity S-wave (km/s) = 4.16972 4.38762 4.28005
# Velocity P-wave (km/s) = 6.32405 7.21634 6.78488
#
# Compressibility (1/GPa) = 0.03591418
#
# Stress axis : x y z
#
# Youngs Moduli (GPa) = 50.95805 50.95787 114.40123
#
# Poissons Ratio (x) = -0.20781 0.57861
# Poissons Ratio (y) = -0.20781 0.57862
# Poissons Ratio (z) = 0.25773 0.25773
#
# Static dielectric constant tensor:
#      x y z
#    x 1.539480 0.000000 0.000000 
#    y 0.000000 1.539480 0.000000 
#    z 0.000000 0.000000 1.573030 
# 
# From -- ./inp_files/2335.got.cif
#   From: 2010.05.17/outbox.cif.g08.bks.cpg/sg175_2_cif.got.tgz:2335.got - 2010.05.20 11:23:22.
