data_PCOD9581226
_publ_section_title
;
Structure prediction by ZEFSAII (Michael W. Deem and Ramdas Pophale) SiO2 
 PCOD9581226
Probable space group: P -6
;
_chemical_formula_sum "Si O2"
_cell_formula_units_Z 48
_cell_length_a 19.511865
_cell_length_b 19.511865
_cell_length_c 7.385248
_cell_angle_alpha 90.000000
_cell_angle_beta 90.000000
_cell_angle_gamma 120.000000
_cell_volume 2434.968125
_symmetry_space_group_name_H-M "P -6"
_symmetry_group_IT_number 174
_symmetry_cell_setting 'hexagonal'
loop_
_space_group_symop_operation_xyz
x,y,z
-x+y,-x,-z
-y,x-y,z
x,y,-z
-x+y,-x,z
-y,x-y,-z
loop_
_atom_site_type_symbol
_atom_site_label
_atom_site_fract_x
_atom_site_fract_y
_atom_site_fract_z
Si Si1 0.489422 0.667625 0.781917
Si Si2 0.844218 0.845415 0.720340
Si Si3 0.424501 0.421394 0.713798
Si Si4 0.334772 0.245281 0.721214
Si Si5 0.910509 0.245281 0.721214
Si Si6 0.578606 0.575499 0.286202
Si Si7 0.489422 0.821798 0.218083
Si Si8 0.154585 0.155782 0.720340
O O1 0.553664 0.642518 0.732710
O O2 0.404240 0.595760 0.719858
O O3 0.504160 0.752080 0.716860
O O4 0.486679 0.668423 0.000000
O O5 0.842972 0.845632 0.500000
O O6 0.784175 0.755655 0.776844
O O7 0.826924 0.913462 0.782888
O O8 0.932039 0.864078 0.772484
O O9 0.437114 0.418042 0.500000
O O10 0.393408 0.333727 0.786102
O O11 0.505672 0.494328 0.789586
O O12 0.357482 0.446336 0.732710
O O13 0.335233 0.246146 0.500000
O O14 0.353763 0.176881 0.776151
O O15 0.244345 0.215825 0.776844
O O16 0.910914 0.246146 0.500000
O O17 0.940319 0.333727 0.786102
O O18 0.581958 0.562886 0.500000
O O19 0.486679 0.818256 0.000000
O O20 0.154368 0.157028 0.500000
#
# Coordination Sequence:
#
# PCOD9581226 Si02
#       8
#     6   6   6   6   6   6   6   6
#     4   9  17  29  44  61  83 113 146 175 203 240
#     4   8  12  17  26  42  65  93 123 152 181 215
#     4   9  17  28  42  61  83 106 134 171 214 253
#     4   8  14  24  37  53  75 104 133 159 194 242
#     4   8  14  24  37  53  75 104 133 159 194 242
#     4   9  17  28  42  61  83 106 134 171 214 253
#     4   9  17  29  44  61  83 113 146 175 203 240
#     4   8  12  17  26  42  65  93 123 152 181 215
#
# _framework density 19.712782000000001
#
# number of rings (size 3 to 8) (size 9 to 14) (size 15 to 20)
#    0.000    3.500    0.000    2.000    0.000    3.500 
#    0.000    2.500    0.000    2.750    0.000    3.500 
#    0.000    0.000    0.000    0.000    0.000    0.000 
#
# Total GULP energy -267632.268094 kJ/mol
# GULP energy per Si atom -5575.672252 kJ/mol
# Density = 1.966791 g / cm^3
# Si number density = 19.712782 Si / 1000 Ang^3
#
#
#
# Elastic Constant Matrix: (Units=GPa)
#
#
# Indices 1 2 3 4 5 6 
#
# 1 141.0175 120.7143 4.2257 0.0000 0.0000 0.0000
# 2 120.7143 141.0175 4.2257 0.0000 0.0000 0.0000
# 3 4.2257 4.2257 68.6107 0.0000 0.0000 0.0000
# 4 0.0000 0.0000 0.0000 4.7342 0.0000 0.0000
# 5 0.0000 0.0000 0.0000 0.0000 4.7342 0.0000
# 6 0.0000 0.0000 0.0000 0.0000 0.0000 10.1516
#
#
#
# Elastic Compliance Matrix: (Units=1/GPa)
#
#
# Indices 1 2 3 4 5 6 
#
# 1 0.026541 -0.022713 -0.000236 0.000000 0.000000 0.000000
# 2 -0.022713 0.026541 -0.000236 0.000000 0.000000 0.000000
# 3 -0.000236 -0.000236 0.014604 0.000000 0.000000 0.000000
# 4 0.000000 0.000000 0.000000 0.211229 0.000000 0.000000
# 5 0.000000 0.000000 0.000000 0.000000 0.211229 0.000000
# 6 0.000000 0.000000 0.000000 0.000000 0.000000 0.098507
#
#
# Mechanical properties :
#
#
# Convention : Reuss Voigt Hill
#
# Bulk Modulus (GPa) = 46.90978 67.66415 57.28696
# Shear Modulus (GPa) = 7.78664 18.68933 13.23799
#
# Velocity S-wave (km/s) = 1.98963 3.08243 2.59423
# Velocity P-wave (km/s) = 5.39689 6.86062 6.17230
#
# Compressibility (1/GPa) = 0.02131752
#
# Stress axis : x y z
#
# Youngs Moduli (GPa) = 37.67778 37.67778 68.47430
#
# Poissons Ratio (x) = 0.85576 0.01615
# Poissons Ratio (y) = 0.85576 0.01615
# Poissons Ratio (z) = 0.00888 0.00888
#
# Static dielectric constant tensor:
#      x y z
#    x 1.677020 0.000000 0.000000 
#    y 0.000000 1.677020 0.000000 
#    z 0.000000 0.000000 1.763840 
# 
# From -- ./inp_files/827.got.cif
#   From: 2010.05.17/outbox.cif.g08.bks.cpg/sg174_cif.got.tgz:827.got - 2010.05.20 11:22:48.
