data_PCOD9581427
_publ_section_title
;
Structure prediction by ZEFSAII (Michael W. Deem and Ramdas Pophale) SiO2 
 PCOD9581427
Probable space group: P 6/M
;
_chemical_formula_sum "Si O2"
_cell_formula_units_Z 72
_cell_length_a 23.420184
_cell_length_b 23.420184
_cell_length_c 9.161328
_cell_angle_alpha 90.000000
_cell_angle_beta 90.000000
_cell_angle_gamma 120.000000
_cell_volume 4351.807432
_symmetry_space_group_name_H-M "P 6/M"
_symmetry_group_IT_number 175
_symmetry_cell_setting 'hexagonal'
loop_
_space_group_symop_operation_xyz
x,y,z
x-y,x,z
-y,x-y,z
-x,-y,z
-x+y,-x,z
y,-x+y,z
-x,-y,-z
-x+y,-x,-z
y,-x+y,-z
x,y,-z
x-y,x,-z
-y,x-y,-z
loop_
_atom_site_type_symbol
_atom_site_label
_atom_site_fract_x
_atom_site_fract_y
_atom_site_fract_z
Si Si1 0.701716 0.856327 0.825048
Si Si2 0.490200 0.401223 0.830483
Si Si3 0.930190 0.393186 0.169764
Si Si4 0.091272 0.940770 0.822271
Si Si5 0.340156 0.051896 0.328688
Si Si6 0.720939 0.105329 0.328598
O O1 0.773022 0.866695 0.780695
O O2 0.695413 0.916868 0.762915
O O3 0.644553 0.788823 0.758143
O O4 0.698032 0.855202 0.000000
O O5 0.442355 0.432903 0.826289
O O6 0.561902 0.460696 0.784897
O O7 0.453898 0.336127 0.733884
O O8 0.493696 0.385114 0.000000
O O9 0.917375 0.332160 0.269199
O O10 0.913098 0.373384 0.000000
O O11 0.015829 0.894662 0.773114
O O12 0.090558 0.941915 0.000000
O O13 0.339519 0.065280 0.500000
O O14 0.305300 0.972961 0.308661
O O15 0.730919 0.119789 0.500000
#
# Coordination Sequence:
#
# PCOD9581427 Si02
#       6
#    12  12  12  12  12  12
#     4  11  21  32  47  66  92 126 164 204 248 304
#     4   8  14  26  45  68  93 120 149 180 215 260
#     4   8  14  26  45  68  93 120 149 180 215 260
#     4   9  17  29  46  67  88 112 150 206 268 322
#     4  10  20  32  46  66  94 126 158 195 241 292
#     4  10  20  32  46  66  94 126 158 195 241 292
#
# _framework density 16.54485
#
# number of rings (size 3 to 8) (size 9 to 14) (size 15 to 20)
#    0.000    2.667    0.000    3.667    0.000    4.667 
#    0.000    3.333    0.000    0.000    0.000    0.000 
#    1.667    8.000    3.000    0.000    3.000    0.000 
#
# Total GULP energy -401260.350703 kJ/mol
# GULP energy per Si atom -5573.060426 kJ/mol
# Density = 1.650719 g / cm^3
# Si number density = 16.544850 Si / 1000 Ang^3
#
#
#
# Elastic Constant Matrix: (Units=GPa)
#
#
# Indices 1 2 3 4 5 6 
#
# 1 28.0295 -9.4285 8.5013 0.0000 0.0000 0.0000
# 2 -9.4285 28.0295 8.5013 0.0000 0.0000 0.0000
# 3 8.5013 8.5013 43.7782 0.0000 0.0000 0.0000
# 4 0.0000 0.0000 0.0000 18.0829 0.0000 0.0000
# 5 0.0000 0.0000 0.0000 0.0000 18.0829 0.0000
# 6 0.0000 0.0000 0.0000 0.0000 0.0000 18.7290
#
#
#
# Elastic Compliance Matrix: (Units=1/GPa)
#
#
# Indices 1 2 3 4 5 6 
#
# 1 0.046030 0.019333 -0.012693 0.000000 0.000000 0.000000
# 2 0.019333 0.046030 -0.012693 0.000000 0.000000 0.000000
# 3 -0.012693 -0.012693 0.027772 0.000000 0.000000 0.000000
# 4 0.000000 0.000000 0.000000 0.055301 0.000000 0.000000
# 5 0.000000 0.000000 0.000000 0.000000 0.055301 0.000000
# 6 0.000000 0.000000 0.000000 0.000000 0.000000 0.053393
#
#
# Mechanical properties :
#
#
# Convention : Reuss Voigt Hill
#
# Bulk Modulus (GPa) = 9.28277 12.77614 11.02946
# Shear Modulus (GPa) = 15.06750 17.12984 16.09867
#
# Velocity S-wave (km/s) = 3.02107 3.22119 3.12273
# Velocity P-wave (km/s) = 4.21805 4.64474 4.43653
#
# Compressibility (1/GPa) = 0.10772644
#
# Stress axis : x y z
#
# Youngs Moduli (GPa) = 21.72510 21.72510 36.00738
#
# Poissons Ratio (x) = -0.42001 0.45704
# Poissons Ratio (y) = -0.42001 0.45704
# Poissons Ratio (z) = 0.27575 0.27575
#
# Static dielectric constant tensor:
#      x y z
#    x 1.558930 0.000000 0.000000 
#    y 0.000000 1.558930 0.000000 
#    z 0.000000 0.000000 1.546380 
# 
# From -- ./inp_files/1200.got.cif
#   From: 2010.05.17/outbox.cif.g08.bks.cpg/sg175_1_cif.got.tgz:1200.got - 2010.05.20 11:23:22.
