data_PCOD9581823
_publ_section_title
;
Structure prediction by ZEFSAII (Michael W. Deem and Ramdas Pophale) SiO2 
 PCOD9581823
Probable space group: P 63/M
;
_chemical_formula_sum "Si O2"
_cell_formula_units_Z 76
_cell_length_a 18.016355
_cell_length_b 18.016355
_cell_length_c 14.045861
_cell_angle_alpha 90.000000
_cell_angle_beta 90.000000
_cell_angle_gamma 120.000000
_cell_volume 3948.324688
_symmetry_space_group_name_H-M "P 63/M"
_symmetry_group_IT_number 176
_symmetry_cell_setting 'hexagonal'
loop_
_space_group_symop_operation_xyz
x,y,z
x-y,x,1/2+z
-y,x-y,z
-x,-y,1/2+z
-x+y,-x,z
y,-x+y,1/2+z
-x,-y,-z
-x+y,-x,1/2-z
y,-x+y,-z
x,y,1/2-z
x-y,x,-z
-y,x-y,1/2-z
loop_
_atom_site_type_symbol
_atom_site_label
_atom_site_fract_x
_atom_site_fract_y
_atom_site_fract_z
Si Si1 0.105859 0.364475 0.358938
Si Si2 0.198386 0.128713 0.365608
Si Si3 0.333334 0.666667 0.634686
Si Si4 0.935707 0.368239 0.364894
Si Si5 0.613500 0.798475 0.949669
Si Si6 0.622595 0.144822 0.364471
Si Si7 0.061869 0.171704 0.360062
O O1 0.133276 0.392274 0.250000
O O2 0.179514 0.398159 0.437546
O O3 0.064806 0.261767 0.361935
O O4 0.029750 0.383065 0.385485
O O5 0.213422 0.132171 0.250000
O O6 0.287924 0.161776 0.417973
O O7 0.150367 0.180284 0.394539
O O8 0.132409 0.030896 0.395727
O O9 0.333334 0.666668 0.750000
O O10 0.362950 0.762582 0.604702
O O11 0.923358 0.355692 0.250000
O O12 0.862193 0.280658 0.412387
O O13 0.922871 0.447978 0.391651
O O14 0.561776 0.704059 0.903610
O O15 0.627215 0.143777 0.250000
O O16 0.060848 0.146588 0.250000
#
# Coordination Sequence:
#
# PCOD9581823 Si02
#       7
#    12  12   4  12  12  12  12
#     4  10  23  40  54  73 112 166 202 231 285 357
#     4  10  19  32  54  86 120 154 200 253 298 348
#     4   9  15  27  51  87 124 143 160 213 300 366
#     4  10  20  38  61  86 120 152 183 238 316 373
#     4  12  22  33  61  88 116 151 197 247 292 361
#     4  10  19  33  59  95 122 139 174 237 305 363
#     4   9  18  33  52  77 116 159 198 242 297 347
#
# _framework density 19.248670000000001
#
# number of rings (size 3 to 8) (size 9 to 14) (size 15 to 20)
#    0.000    1.895    3.158    1.737    2.211    1.895 
#    0.000    0.000    0.000    2.842    0.000    0.000 
#    0.000    0.000    0.000    0.000    0.000    0.000 
#
# Total GULP energy -423949.876604 kJ/mol
# GULP energy per Si atom -5578.287850 kJ/mol
# Density = 1.920486 g / cm^3
# Si number density = 19.248670 Si / 1000 Ang^3
#
#
#
# Elastic Constant Matrix: (Units=GPa)
#
#
# Indices 1 2 3 4 5 6 
#
# 1 33.7115 -6.9851 -3.4876 0.0000 0.0000 0.0001
# 2 -6.9851 33.7119 -3.4876 0.0000 0.0000 0.0002
# 3 -3.4876 -3.4876 72.2397 0.0000 0.0000 0.0001
# 4 0.0000 0.0000 0.0000 6.7454 0.0000 0.0000
# 5 0.0000 0.0000 0.0000 0.0000 6.7454 0.0000
# 6 0.0001 0.0002 0.0001 0.0000 0.0000 20.3484
#
#
#
# Elastic Compliance Matrix: (Units=1/GPa)
#
#
# Indices 1 2 3 4 5 6 
#
# 1 0.031233 0.006661 0.001829 0.000000 0.000000 0.000000
# 2 0.006661 0.031232 0.001829 0.000000 0.000000 0.000000
# 3 0.001829 0.001829 0.014019 0.000000 0.000000 0.000000
# 4 0.000000 0.000000 0.000000 0.148248 0.000000 0.000000
# 5 0.000000 0.000000 0.000000 0.000000 0.148249 0.000000
# 6 0.000000 0.000000 0.000000 0.000000 0.000000 0.049144
#
#
# Mechanical properties :
#
#
# Convention : Reuss Voigt Hill
#
# Bulk Modulus (GPa) = 10.29611 12.41581 11.35596
# Shear Modulus (GPa) = 11.52440 17.00941 14.26691
#
# Velocity S-wave (km/s) = 2.44951 2.97588 2.72543
# Velocity P-wave (km/s) = 3.65524 4.27458 3.97698
#
# Compressibility (1/GPa) = 0.09712404
#
# Stress axis : x y z
#
# Youngs Moduli (GPa) = 32.01753 32.01796 71.32948
#
# Poissons Ratio (x) = -0.21326 -0.13049
# Poissons Ratio (y) = -0.21326 -0.13049
# Poissons Ratio (z) = -0.05857 -0.05857
#
# Static dielectric constant tensor:
#      x y z
#    x 1.664150 0.000000 0.000000 
#    y 0.000000 1.664150 0.000000 
#    z 0.000000 0.000000 1.731730 
# 
# From -- ./inp_files/2862.got.cif
#   From: 2010.05.17/outbox.cif.g08.bks.cpg/sg176_2_cif.got.tgz:2862.got - 2010.06.03 11:36:45.
