data_PCOD9581483
_publ_section_title
;
Structure prediction by ZEFSAII (Michael W. Deem and Ramdas Pophale) SiO2 
 PCOD9581483
Probable space group: P 6/M
;
_chemical_formula_sum "Si O2"
_cell_formula_units_Z 84
_cell_length_a 17.350890
_cell_length_b 17.350890
_cell_length_c 13.946282
_cell_angle_alpha 90.000000
_cell_angle_beta 90.000000
_cell_angle_gamma 120.000000
_cell_volume 3636.072945
_symmetry_space_group_name_H-M "P 6/M"
_symmetry_group_IT_number 175
_symmetry_cell_setting 'hexagonal'
loop_
_space_group_symop_operation_xyz
x,y,z
x-y,x,z
-y,x-y,z
-x,-y,z
-x+y,-x,z
y,-x+y,z
-x,-y,-z
-x+y,-x,-z
y,-x+y,-z
x,y,-z
x-y,x,-z
-y,x-y,-z
loop_
_atom_site_type_symbol
_atom_site_label
_atom_site_fract_x
_atom_site_fract_y
_atom_site_fract_z
Si Si1 0.564736 0.931109 0.799313
Si Si2 0.608946 0.480419 0.607802
Si Si3 0.119736 0.508056 0.887280
Si Si4 0.810170 0.823591 0.399231
Si Si5 0.810567 0.535254 0.609440
Si Si6 0.198404 0.162772 0.181556
Si Si7 0.211443 0.827413 0.188898
O O1 0.550637 0.935742 0.685904
O O2 0.464021 0.867669 0.837185
O O3 0.621295 0.883453 0.820314
O O4 0.596375 0.025006 0.848278
O O5 0.601156 0.507322 0.500000
O O6 0.702890 0.482051 0.614667
O O7 0.529764 0.380215 0.624052
O O8 0.186750 0.474370 0.858214
O O9 0.115548 0.516805 0.000000
O O10 0.903361 0.825919 0.402233
O O11 0.763305 0.777318 0.500000
O O12 0.778904 0.797947 0.290855
O O13 0.831716 0.570933 0.500000
O O14 0.838904 0.604046 0.697132
O O15 0.111278 0.170660 0.162721
O O16 0.298944 0.209935 0.140688
#
# Coordination Sequence:
#
# PCOD9581483 Si02
#       7
#    12  12  12  12  12  12  12
#     4  10  21  40  62  87 124 162 202 248 308 363
#     4   9  16  30  54  85 121 162 206 243 293 363
#     4  11  24  43  64  87 119 160 201 251 314 368
#     4   8  13  22  39  65 100 144 192 238 283 335
#     4   9  17  30  52  84 122 161 201 248 299 356
#     4  10  20  35  56  84 118 158 204 254 310 364
#     4  11  22  38  61  91 121 158 206 258 303 366
#
# _framework density 23.101846999999999
#
# number of rings (size 3 to 8) (size 9 to 14) (size 15 to 20)
#    0.000    2.286    1.429    2.286    0.000    4.571 
#    0.857    2.143    0.000    3.429    0.000    0.000 
#    0.000    2.286    0.000    0.000    0.000    0.000 
#
# Total GULP energy -468371.569749 kJ/mol
# GULP energy per Si atom -5575.852021 kJ/mol
# Density = 2.304927 g / cm^3
# Si number density = 23.101847 Si / 1000 Ang^3
#
#
#
# Elastic Constant Matrix: (Units=GPa)
#
#
# Indices 1 2 3 4 5 6 
#
# 1 58.5522 14.8713 1.1583 0.0000 0.0000 0.0000
# 2 14.8713 58.5522 1.1583 0.0000 0.0000 0.0000
# 3 1.1583 1.1583 62.2308 0.0000 0.0000 0.0000
# 4 0.0000 0.0000 0.0000 -2.8707 0.0000 0.0000
# 5 0.0000 0.0000 0.0000 0.0000 -2.8707 0.0000
# 6 0.0000 0.0000 0.0000 0.0000 0.0000 21.8405
#
#
#
# Elastic Compliance Matrix: (Units=1/GPa)
#
#
# Indices 1 2 3 4 5 6 
#
# 1 0.018260 -0.004633 -0.000254 0.000000 0.000000 0.000000
# 2 -0.004633 0.018260 -0.000254 0.000000 0.000000 0.000000
# 3 -0.000254 -0.000254 0.016079 0.000000 0.000000 0.000000
# 4 0.000000 0.000000 0.000000 -0.348346 0.000000 0.000000
# 5 0.000000 0.000000 0.000000 0.000000 -0.348346 0.000000
# 6 0.000000 0.000000 0.000000 0.000000 0.000000 0.045787
#
#
# Mechanical properties :
#
#
# Convention : Reuss Voigt Hill
#
# Bulk Modulus (GPa) = 23.62988 23.74566 23.68777
# Shear Modulus (GPa) = -8.71202 14.02965 2.65882
#
# Velocity S-wave (km/s) = -1.94405 2.46701 1.07397
# Velocity P-wave (km/s) = 2.28291 4.29137 3.43712
#
# Compressibility (1/GPa) = 0.04231930
#
# Stress axis : x y z
#
# Youngs Moduli (GPa) = 54.76319 54.76319 62.19427
#
# Poissons Ratio (x) = 0.25371 0.01578
# Poissons Ratio (y) = 0.25371 0.01578
# Poissons Ratio (z) = 0.01389 0.01389
#
# Static dielectric constant tensor:
#      x y z
#    x 1.886960 0.000000 0.000000 
#    y 0.000000 1.886960 0.000000 
#    z 0.000000 0.000000 1.973830 
# 
# From -- ./inp_files/2642.got.cif
#   From: 2010.05.17/outbox.cif.g08.bks.cpg/sg175_2_cif.got.tgz:2642.got - 2010.05.20 11:23:22.
