data_PCOD9581309
_publ_section_title
;
Structure prediction by ZEFSAII (Michael W. Deem and Ramdas Pophale) SiO2 
 PCOD9581309
Probable space group: P 6/M
;
_chemical_formula_sum "Si O2"
_cell_formula_units_Z 96
_cell_length_a 18.067556
_cell_length_b 18.067556
_cell_length_c 24.662893
_cell_angle_alpha 90.000000
_cell_angle_beta 90.000000
_cell_angle_gamma 120.000000
_cell_volume 6972.258323
_symmetry_space_group_name_H-M "P 6/M"
_symmetry_group_IT_number 175
_symmetry_cell_setting 'hexagonal'
loop_
_space_group_symop_operation_xyz
x,y,z
x-y,x,z
-y,x-y,z
-x,-y,z
-x+y,-x,z
y,-x+y,z
-x,-y,-z
-x+y,-x,-z
y,-x+y,-z
x,y,-z
x-y,x,-z
-y,x-y,-z
loop_
_atom_site_type_symbol
_atom_site_label
_atom_site_fract_x
_atom_site_fract_y
_atom_site_fract_z
Si Si1 0.508952 0.666963 0.437137
Si Si2 0.589703 0.589703 0.238794
Si Si3 0.000000 0.590089 0.362871
Si Si4 0.634149 0.901614 0.063086
Si Si5 0.490201 0.332395 0.837661
Si Si6 0.098386 0.365851 0.063086
Si Si7 0.491048 0.158011 0.437137
Si Si8 0.157807 0.667605 0.837661
O O1 0.532635 0.663754 0.500000
O O2 0.570072 0.654098 0.396242
O O3 0.413393 0.586607 0.429868
O O4 0.509076 0.754538 0.428439
O O5 0.500000 0.500000 0.239948
O O6 0.615800 0.615800 0.300806
O O7 0.568257 0.653380 0.205828
O O8 0.653380 0.568257 0.205828
O O9 0.000000 0.500000 0.362443
O O10 0.084026 0.654098 0.396242
O O11 0.664863 0.832432 0.071442
O O12 0.556099 0.874870 0.104256
O O13 0.704714 0.000000 0.073044
O O14 0.607670 0.894751 0.000000
O O15 0.443901 0.318771 0.895744
O O16 0.496647 0.248324 0.826082
O O17 0.583077 0.416923 0.837874
O O18 0.105249 0.392330 0.000000
O O19 0.467365 0.131118 0.500000
#
# Coordination Sequence:
#
# PCOD9581309 Si02
#       8
#    12  12  12  12  12  12  12  12
#     4   9  16  26  41  61  84 110 140 173 209 250
#     4   9  18  31  43  57  79 108 142 177 212 250
#     4   9  17  28  41  57  80 109 140 175 212 248
#     4   9  17  29  46  67  89 114 143 176 217 264
#     4  10  19  31  45  62  84 111 143 179 218 258
#     4   9  17  29  46  67  89 114 143 176 217 264
#     4   9  16  26  41  61  84 110 140 173 209 250
#     4  10  19  31  45  62  84 111 143 179 218 258
#
# _framework density 13.768853
#
# number of rings (size 3 to 8) (size 9 to 14) (size 15 to 20)
#    0.000    2.750    1.250    0.875    0.000    4.000 
#    0.000    1.250    0.000    4.750    0.000    1.750 
#    0.000    0.000    0.000    0.375    0.000    8.625 
#
# Total GULP energy -534463.624535 kJ/mol
# GULP energy per Si atom -5567.329422 kJ/mol
# Density = 1.373751 g / cm^3
# Si number density = 13.768853 Si / 1000 Ang^3
#
#
#
# Elastic Constant Matrix: (Units=GPa)
#
#
# Indices 1 2 3 4 5 6 
#
# 1 83.6264 52.1967 60.7916 0.0000 0.0000 0.0000
# 2 52.1967 83.6264 60.7916 0.0000 0.0000 0.0000
# 3 60.7916 60.7916 102.9945 0.0000 0.0000 0.0000
# 4 0.0000 0.0000 0.0000 15.2846 0.0000 0.0000
# 5 0.0000 0.0000 0.0000 0.0000 15.2846 0.0000
# 6 0.0000 0.0000 0.0000 0.0000 0.0000 15.7149
#
#
#
# Elastic Compliance Matrix: (Units=1/GPa)
#
#
# Indices 1 2 3 4 5 6 
#
# 1 0.023714 -0.008103 -0.009214 0.000000 0.000000 0.000000
# 2 -0.008103 0.023714 -0.009214 0.000000 0.000000 0.000000
# 3 -0.009214 -0.009214 0.020586 0.000000 0.000000 0.000000
# 4 0.000000 0.000000 0.000000 0.065425 0.000000 0.000000
# 5 0.000000 0.000000 0.000000 0.000000 0.065425 0.000000
# 6 0.000000 0.000000 0.000000 0.000000 0.000000 0.063634
#
#
# Mechanical properties :
#
#
# Convention : Reuss Voigt Hill
#
# Bulk Modulus (GPa) = 66.88375 68.64522 67.76448
# Shear Modulus (GPa) = 15.59847 15.68798 15.64322
#
# Velocity S-wave (km/s) = 3.36948 3.37913 3.37431
# Velocity P-wave (km/s) = 7.98871 8.07393 8.03143
#
# Compressibility (1/GPa) = 0.01495132
#
# Stress axis : x y z
#
# Youngs Moduli (GPa) = 42.16972 42.16972 48.57646
#
# Poissons Ratio (x) = 0.34171 0.44758
# Poissons Ratio (y) = 0.34171 0.44758
# Poissons Ratio (z) = 0.38855 0.38855
#
# Static dielectric constant tensor:
#      x y z
#    x 1.434020 0.000000 0.000000 
#    y 0.000000 1.434020 0.000000 
#    z 0.000000 0.000000 1.463600 
# 
# From -- ./inp_files/3280.got.cif
#   From: 2010.05.17/outbox.cif.g08.bks.cpg/sg175_2_cif.got.tgz:3280.got - 2010.05.20 11:23:22.
