data_PCOD9581413
_publ_section_title
;
Structure prediction by ZEFSAII (Michael W. Deem and Ramdas Pophale) SiO2 
 PCOD9581413
Probable space group: P 6/M
;
_chemical_formula_sum "Si O2"
_cell_formula_units_Z 46
_cell_length_a 18.228004
_cell_length_b 18.228004
_cell_length_c 7.761985
_cell_angle_alpha 90.000000
_cell_angle_beta 90.000000
_cell_angle_gamma 120.000000
_cell_volume 2233.477909
_symmetry_space_group_name_H-M "P 6/M"
_symmetry_group_IT_number 175
_symmetry_cell_setting 'hexagonal'
loop_
_space_group_symop_operation_xyz
x,y,z
x-y,x,z
-y,x-y,z
-x,-y,z
-x+y,-x,z
y,-x+y,z
-x,-y,-z
-x+y,-x,-z
y,-x+y,-z
x,y,-z
x-y,x,-z
-y,x-y,-z
loop_
_atom_site_type_symbol
_atom_site_label
_atom_site_fract_x
_atom_site_fract_y
_atom_site_fract_z
Si Si1 0.436186 0.031765 0.208123
Si Si2 0.806998 0.850990 0.000000
Si Si3 0.666668 0.333334 0.210616
Si Si4 0.477565 0.219082 0.792058
Si Si5 0.080420 0.322472 0.690800
O O1 0.472139 0.130148 0.246662
O O2 0.500000 0.000000 0.265492
O O3 0.342774 0.977801 0.283831
O O4 0.427856 0.021602 0.000000
O O5 0.886097 0.835694 0.000000
O O6 0.747912 0.805920 0.165014
O O7 0.724560 0.430612 0.264318
O O8 0.666667 0.333334 0.000000
O O9 0.398353 0.221843 0.714277
O O10 0.471781 0.225082 0.000000
O O11 0.068245 0.286005 0.500000
#
# Coordination Sequence:
#
# PCOD9581413 Si02
#       5
#    12   6   4  12  12
#     4  10  20  37  64  95 130 174 222 271 323 379
#     4  12  27  50  75 100 128 164 212 272 342 412
#     4   9  18  33  61  95 130 178 224 268 316 371
#     4  10  19  36  61  91 129 170 217 266 318 379
#     4  12  25  42  68 100 135 174 219 271 327 392
#
# _framework density 20.595680999999999
#
# number of rings (size 3 to 8) (size 9 to 14) (size 15 to 20)
#    0.000    1.304    2.609    3.261    0.000    8.870 
#    0.000    3.913    0.000    1.565    0.000    0.000 
#    0.000    0.000    0.000    0.000    0.000    0.000 
#
# Total GULP energy -257440.701629 kJ/mol
# GULP energy per Si atom -5596.536992 kJ/mol
# Density = 2.054880 g / cm^3
# Si number density = 20.595681 Si / 1000 Ang^3
#
#
#
# Elastic Constant Matrix: (Units=GPa)
#
#
# Indices 1 2 3 4 5 6 
#
# 1 126.0240 40.3327 58.6026 0.0000 0.0000 0.0003
# 2 40.3327 126.0275 58.6031 0.0000 0.0000 0.0007
# 3 58.6026 58.6031 104.0748 0.0000 0.0000 0.0003
# 4 0.0000 0.0000 0.0000 -13.6464 -0.0011 0.0000
# 5 0.0000 0.0000 0.0000 -0.0011 -13.6446 0.0000
# 6 0.0003 0.0007 0.0003 0.0000 0.0000 42.8459
#
#
#
# Elastic Compliance Matrix: (Units=1/GPa)
#
#
# Indices 1 2 3 4 5 6 
#
# 1 0.010817 -0.000853 -0.005611 0.000000 0.000000 0.000000
# 2 -0.000853 0.010817 -0.005610 0.000000 0.000000 0.000000
# 3 -0.005611 -0.005610 0.015927 0.000000 0.000000 0.000000
# 4 0.000000 0.000000 0.000000 -0.073280 0.000006 0.000000
# 5 0.000000 0.000000 0.000000 0.000006 -0.073289 0.000000
# 6 0.000000 0.000000 0.000000 0.000000 0.000000 0.023339
#
#
# Mechanical properties :
#
#
# Convention : Reuss Voigt Hill
#
# Bulk Modulus (GPa) = 74.55660 74.57809 74.56734
# Shear Modulus (GPa) = -87.64251 16.35018 -35.64617
#
# Velocity S-wave (km/s) = -6.53041 2.82062 -4.16475
# Velocity P-wave (km/s) = 4.53684 6.84814 3.62726
#
# Compressibility (1/GPa) = 0.01341263
#
# Stress axis : x y z
#
# Youngs Moduli (GPa) = 92.44768 92.45064 62.78691
#
# Poissons Ratio (x) = 0.07884 0.35227
# Poissons Ratio (y) = 0.07884 0.35226
# Poissons Ratio (z) = 0.51869 0.51869
#
# Static dielectric constant tensor:
#      x y z
#    x 1.697420 0.000000 0.000000 
#    y 0.000000 1.697410 0.000000 
#    z 0.000000 0.000000 1.760660 
# 
# From -- ./inp_files/546.got.cif
#   From: 2010.05.17/outbox.cif.g08.bks.cpg/sg175_1_cif.got.tgz:546.got - 2010.05.20 11:23:22.
