data_PCOD9581305
_publ_section_title
;
Structure prediction by ZEFSAII (Michael W. Deem and Ramdas Pophale) SiO2 
 PCOD9581305
Probable space group: P 6/M
;
_chemical_formula_sum "Si O2"
_cell_formula_units_Z 78
_cell_length_a 24.808289
_cell_length_b 24.808289
_cell_length_c 8.133456
_cell_angle_alpha 90.000000
_cell_angle_beta 90.000000
_cell_angle_gamma 120.000000
_cell_volume 4335.102578
_symmetry_space_group_name_H-M "P 6/M"
_symmetry_group_IT_number 175
_symmetry_cell_setting 'hexagonal'
loop_
_space_group_symop_operation_xyz
x,y,z
x-y,x,z
-y,x-y,z
-x,-y,z
-x+y,-x,z
y,-x+y,z
-x,-y,-z
-x+y,-x,-z
y,-x+y,-z
x,y,-z
x-y,x,-z
-y,x-y,-z
loop_
_atom_site_type_symbol
_atom_site_label
_atom_site_fract_x
_atom_site_fract_y
_atom_site_fract_z
Si Si1 0.080099 0.706048 0.806536
Si Si2 0.629473 0.685176 0.304377
Si Si3 0.273164 0.747089 0.681399
Si Si4 0.849286 0.365868 0.802463
Si Si5 0.593624 0.327582 0.000000
Si Si6 0.497698 0.435909 0.699140
Si Si7 0.823737 0.623437 0.690299
O O1 0.105691 0.660770 0.745004
O O2 0.135619 0.776177 0.775745
O O3 0.014174 0.684225 0.724188
O O4 0.068909 0.696276 0.000000
O O5 0.620541 0.688032 0.500000
O O6 0.564674 0.625958 0.242454
O O7 0.643735 0.752127 0.237870
O O8 0.300644 0.753354 0.500000
O O9 0.215540 0.677506 0.710567
O O10 0.318973 0.761980 0.833591
O O11 0.241946 0.790095 0.691958
O O12 0.881044 0.438139 0.762109
O O13 0.844190 0.356242 0.000000
O O14 0.612629 0.273822 0.000000
O O15 0.500000 0.500000 0.750059
O O16 0.497718 0.434516 0.500000
O O17 0.828808 0.643291 0.500000
#
# Coordination Sequence:
#
# PCOD9581305 Si02
#       7
#    12  12  12  12   6  12  12
#     4  10  20  33  52  76 106 139 171 213 271 327
#     4  10  20  35  53  78 107 135 180 225 265 328
#     4  10  20  38  59  75  98 133 173 219 274 333
#     4  10  19  32  51  73 101 132 172 216 269 330
#     4  10  24  40  54  74  97 123 173 222 276 332
#     4  10  19  30  47  74 105 133 167 218 275 324
#     4   9  20  36  56  79 102 139 180 217 268 326
#
# _framework density 17.992653000000001
#
# number of rings (size 3 to 8) (size 9 to 14) (size 15 to 20)
#    0.154    2.000    2.308    0.923    1.077    4.615 
#    0.000    1.538    0.000    0.000    0.000    0.000 
#    0.000    0.000    0.000    0.462    0.000    8.923 
#
# Total GULP energy -435416.188603 kJ/mol
# GULP energy per Si atom -5582.258828 kJ/mol
# Density = 1.795170 g / cm^3
# Si number density = 17.992653 Si / 1000 Ang^3
#
#
#
# Elastic Constant Matrix: (Units=GPa)
#
#
# Indices 1 2 3 4 5 6 
#
# 1 81.8866 42.1712 6.6953 0.0000 0.0000 0.0000
# 2 42.1712 81.8866 6.6953 0.0000 0.0000 0.0000
# 3 6.6953 6.6953 50.3646 0.0000 0.0000 0.0000
# 4 0.0000 0.0000 0.0000 13.6539 0.0000 0.0000
# 5 0.0000 0.0000 0.0000 0.0000 13.6539 0.0000
# 6 0.0000 0.0000 0.0000 0.0000 0.0000 19.8577
#
#
#
# Elastic Compliance Matrix: (Units=1/GPa)
#
#
# Indices 1 2 3 4 5 6 
#
# 1 0.016679 -0.008501 -0.001087 0.000000 0.000000 0.000000
# 2 -0.008501 0.016679 -0.001087 0.000000 0.000000 0.000000
# 3 -0.001087 -0.001087 0.020144 0.000000 0.000000 0.000000
# 4 0.000000 0.000000 0.000000 0.073239 0.000000 0.000000
# 5 0.000000 0.000000 0.000000 0.000000 0.073239 0.000000
# 6 0.000000 0.000000 0.000000 0.000000 0.000000 0.050358
#
#
# Mechanical properties :
#
#
# Convention : Reuss Voigt Hill
#
# Bulk Modulus (GPa) = 31.10248 36.14017 33.62132
# Shear Modulus (GPa) = 17.70510 20.00485 18.85497
#
# Velocity S-wave (km/s) = 3.14031 3.33804 3.24068
# Velocity P-wave (km/s) = 5.52019 5.91492 5.72096
#
# Compressibility (1/GPa) = 0.03215178
#
# Stress axis : x y z
#
# Youngs Moduli (GPa) = 59.95697 59.95697 49.64194
#
# Poissons Ratio (x) = 0.50967 0.05397
# Poissons Ratio (y) = 0.50967 0.05397
# Poissons Ratio (z) = 0.06518 0.06518
#
# Static dielectric constant tensor:
#      x y z
#    x 1.632720 0.000000 0.000000 
#    y 0.000000 1.632720 0.000000 
#    z 0.000000 0.000000 1.652010 
# 
# From -- ./inp_files/1333.got.cif
#   From: 2010.05.17/outbox.cif.g08.bks.cpg/sg175_1_cif.got.tgz:1333.got - 2010.05.20 11:23:22.
