data_PCOD9581847
_publ_section_title
;
Structure prediction by ZEFSAII (Michael W. Deem and Ramdas Pophale) SiO2 
 PCOD9581847
Probable space group: P 63/M
;
_chemical_formula_sum "Si O2"
_cell_formula_units_Z 60
_cell_length_a 13.981565
_cell_length_b 13.981565
_cell_length_c 16.609501
_cell_angle_alpha 90.000000
_cell_angle_beta 90.000000
_cell_angle_gamma 120.000000
_cell_volume 2811.892989
_symmetry_space_group_name_H-M "P 63/M"
_symmetry_group_IT_number 176
_symmetry_cell_setting 'hexagonal'
loop_
_space_group_symop_operation_xyz
x,y,z
x-y,x,1/2+z
-y,x-y,z
-x,-y,1/2+z
-x+y,-x,z
y,-x+y,1/2+z
-x,-y,-z
-x+y,-x,1/2-z
y,-x+y,-z
x,y,1/2-z
x-y,x,-z
-y,x-y,1/2-z
loop_
_atom_site_type_symbol
_atom_site_label
_atom_site_fract_x
_atom_site_fract_y
_atom_site_fract_z
Si Si1 0.123454 0.648082 0.406453
Si Si2 0.870731 0.551000 0.842867
Si Si3 0.105699 0.688251 0.929873
Si Si4 0.801527 0.979312 0.468313
Si Si5 0.734482 0.093552 0.346145
O O1 0.209483 0.776521 0.385839
O O2 0.161118 0.575150 0.355865
O O3 0.129715 0.621331 0.501509
O O4 0.998308 0.610284 0.375999
O O5 0.872766 0.579427 0.750000
O O6 0.995712 0.619643 0.877729
O O7 0.210368 0.781278 0.880661
O O8 0.070524 0.752504 0.993318
O O9 0.806685 0.046011 0.389200
O O10 0.881773 0.055284 0.539202
O O11 0.738371 0.094806 0.250000
#
# Coordination Sequence:
#
# PCOD9581847 Si02
#       5
#    12  12  12  12  12
#     4  11  23  40  61  87 124 164 203 252 311 371
#     4  12  23  38  61  92 123 160 207 260 310 363
#     4  10  21  37  58  82 113 156 201 243 299 366
#     4   9  17  30  48  70 101 142 184 229 286 347
#     4  10  19  35  56  81 110 148 194 246 296 349
#
# _framework density 21.337938999999999
#
# number of rings (size 3 to 8) (size 9 to 14) (size 15 to 20)
#    0.000    1.600    0.000    8.400    0.000    0.000 
#    0.000    4.000    0.000    1.600    0.000    5.600 
#    0.000    0.000    0.000    0.000    0.000    0.000 
#
# Total GULP energy -334216.336084 kJ/mol
# GULP energy per Si atom -5570.272268 kJ/mol
# Density = 2.128937 g / cm^3
# Si number density = 21.337939 Si / 1000 Ang^3
#
#
#
# Elastic Constant Matrix: (Units=GPa)
#
#
# Indices 1 2 3 4 5 6 
#
# 1 48.9750 16.8265 22.9119 0.0000 0.0000 0.0000
# 2 16.8265 48.9750 22.9119 0.0000 0.0000 0.0000
# 3 22.9119 22.9119 147.2091 0.0000 0.0000 0.0000
# 4 0.0000 0.0000 0.0000 21.9384 0.0000 0.0000
# 5 0.0000 0.0000 0.0000 0.0000 21.9384 0.0000
# 6 0.0000 0.0000 0.0000 0.0000 0.0000 16.0742
#
#
#
# Elastic Compliance Matrix: (Units=1/GPa)
#
#
# Indices 1 2 3 4 5 6 
#
# 1 0.024075 -0.007031 -0.002653 0.000000 0.000000 0.000000
# 2 -0.007031 0.024075 -0.002653 0.000000 0.000000 0.000000
# 3 -0.002653 -0.002653 0.007619 0.000000 0.000000 0.000000
# 4 0.000000 0.000000 0.000000 0.045582 0.000000 0.000000
# 5 0.000000 0.000000 0.000000 0.000000 0.045582 0.000000
# 6 0.000000 0.000000 0.000000 0.000000 0.000000 0.062211
#
#
# Mechanical properties :
#
#
# Convention : Reuss Voigt Hill
#
# Bulk Modulus (GPa) = 32.15775 41.16221 36.65998
# Shear Modulus (GPa) = 20.47646 24.15747 22.31696
#
# Velocity S-wave (km/s) = 3.10115 3.36837 3.23752
# Velocity P-wave (km/s) = 5.28453 5.87030 5.58510
#
# Compressibility (1/GPa) = 0.03109670
#
# Stress axis : x y z
#
# Youngs Moduli (GPa) = 41.53659 41.53659 131.25340
#
# Poissons Ratio (x) = 0.29202 0.34820
# Poissons Ratio (y) = 0.29202 0.34820
# Poissons Ratio (z) = 0.11019 0.11019
#
# Static dielectric constant tensor:
#      x y z
#    x 1.857480 0.000000 0.000000 
#    y 0.000000 1.857480 0.000000 
#    z 0.000000 0.000000 1.776820 
# 
# From -- ./inp_files/2622.got.cif
#   From: 2010.05.17/outbox.cif.g08.bks.cpg/sg176_2_cif.got.tgz:2622.got - 2010.06.03 11:36:45.
