data_PCOD9581134
_publ_section_title
;
Structure prediction by ZEFSAII (Michael W. Deem and Ramdas Pophale) SiO2 
 PCOD9581134
Probable space group: P -6
;
_chemical_formula_sum "Si O2"
_cell_formula_units_Z 23
_cell_length_a 6.990899
_cell_length_b 6.990899
_cell_length_c 23.005558
_cell_angle_alpha 90.000000
_cell_angle_beta 90.000000
_cell_angle_gamma 120.000000
_cell_volume 973.709616
_symmetry_space_group_name_H-M "P -6"
_symmetry_group_IT_number 174
_symmetry_cell_setting 'hexagonal'
loop_
_space_group_symop_operation_xyz
x,y,z
-x+y,-x,-z
-y,x-y,z
x,y,-z
-x+y,-x,z
-y,x-y,-z
loop_
_atom_site_type_symbol
_atom_site_label
_atom_site_fract_x
_atom_site_fract_y
_atom_site_fract_z
Si Si1 0.000000 0.000000 0.431054
Si Si2 0.721206 0.932522 0.000000
Si Si3 0.455966 0.400380 0.884238
Si Si4 0.405072 0.312751 0.358787
Si Si5 0.042727 0.774940 0.232720
O O1 0.013888 0.790592 0.405430
O O2 0.000000 0.000000 0.500000
O O3 0.594008 0.923473 0.058611
O O4 0.826083 0.774056 0.000000
O O5 0.440428 0.158962 0.885855
O O6 0.351729 0.408245 0.823127
O O7 0.473958 0.121491 0.363006
O O8 0.317584 0.343939 0.296749
O O9 0.811845 0.778940 0.229378
#
# Coordination Sequence:
#
# PCOD9581134 Si02
#       5
#     2   3   6   6   6
#     4  12  24  48  69  99 141 178 221 274 324 393
#     4  10  20  34  54  74  98 150 202 242 320 386
#     4  10  20  32  54  81 112 149 197 251 318 381
#     4  10  22  42  71  98 136 177 224 271 331 386
#     4  10  18  34  64  88 124 163 206 258 317 380
#
# _framework density 23.621008
#
# number of rings (size 3 to 8) (size 9 to 14) (size 15 to 20)
#    1.826    0.000    2.609    3.913    0.000    1.043 
#    1.565    0.000    0.000   17.739    0.000    0.000 
#    0.000    0.000    0.000    0.000    0.000    0.000 
#
# Total GULP energy -128195.480352 kJ/mol
# GULP energy per Si atom -5573.716537 kJ/mol
# Density = 2.356725 g / cm^3
# Si number density = 23.621008 Si / 1000 Ang^3
#
#
#
# Elastic Constant Matrix: (Units=GPa)
#
#
# Indices 1 2 3 4 5 6 
#
# 1 80.4105 -4.3043 35.3701 0.0000 0.0000 0.0000
# 2 -4.3043 80.4105 35.3701 0.0000 0.0000 0.0000
# 3 35.3701 35.3701 210.9237 0.0000 0.0000 0.0000
# 4 0.0000 0.0000 0.0000 6.0935 0.0000 0.0000
# 5 0.0000 0.0000 0.0000 0.0000 6.0935 0.0000
# 6 0.0000 0.0000 0.0000 0.0000 0.0000 42.3574
#
#
#
# Elastic Compliance Matrix: (Units=1/GPa)
#
#
# Indices 1 2 3 4 5 6 
#
# 1 0.013685 0.001881 -0.002610 0.000000 0.000000 0.000000
# 2 0.001881 0.013685 -0.002610 0.000000 0.000000 0.000000
# 3 -0.002610 -0.002610 0.005616 0.000000 0.000000 0.000000
# 4 0.000000 0.000000 0.000000 0.164109 0.000000 0.000000
# 5 0.000000 0.000000 0.000000 0.000000 0.164109 0.000000
# 6 0.000000 0.000000 0.000000 0.000000 0.000000 0.023609
#
#
# Mechanical properties :
#
#
# Convention : Reuss Voigt Hill
#
# Bulk Modulus (GPa) = 38.01269 56.06850 47.04059
# Shear Modulus (GPa) = 12.49183 31.26281 21.87732
#
# Velocity S-wave (km/s) = 2.30216 3.64196 3.04662
# Velocity P-wave (km/s) = 4.81604 6.43999 5.68629
#
# Compressibility (1/GPa) = 0.02630701
#
# Stress axis : x y z
#
# Youngs Moduli (GPa) = 73.07255 73.07255 178.04736
#
# Poissons Ratio (x) = -0.13743 0.46475
# Poissons Ratio (y) = -0.13743 0.46475
# Poissons Ratio (z) = 0.19074 0.19074
#
# Static dielectric constant tensor:
#      x y z
#    x 1.923240 0.000000 0.000000 
#    y 0.000000 1.923240 0.000000 
#    z 0.000000 0.000000 1.811460 
# 
# From -- ./inp_files/1039.got.cif
#   From: 2010.05.17/outbox.cif.g08.bks.cpg/sg174_cif.got.tgz:1039.got - 2010.05.20 11:22:48.
