data_PCOD9581898
_publ_section_title
;
Structure prediction by ZEFSAII (Michael W. Deem and Ramdas Pophale) SiO2 
 PCOD9581898
Probable space group: P 63/M
;
_chemical_formula_sum "Si O2"
_cell_formula_units_Z 96
_cell_length_a 15.598385
_cell_length_b 15.598385
_cell_length_c 23.683351
_cell_angle_alpha 90.000000
_cell_angle_beta 90.000000
_cell_angle_gamma 120.000000
_cell_volume 4990.373532
_symmetry_space_group_name_H-M "P 63/M"
_symmetry_group_IT_number 176
_symmetry_cell_setting 'hexagonal'
loop_
_space_group_symop_operation_xyz
x,y,z
x-y,x,1/2+z
-y,x-y,z
-x,-y,1/2+z
-x+y,-x,z
y,-x+y,1/2+z
-x,-y,-z
-x+y,-x,1/2-z
y,-x+y,-z
x,y,1/2-z
x-y,x,-z
-y,x-y,1/2-z
loop_
_atom_site_type_symbol
_atom_site_label
_atom_site_fract_x
_atom_site_fract_y
_atom_site_fract_z
Si Si1 0.867801 0.090591 0.681160
Si Si2 0.967353 0.786564 0.003473
Si Si3 0.450776 0.438311 0.420594
Si Si4 0.903202 0.764954 0.181941
Si Si5 0.445340 0.265289 0.817808
Si Si6 0.840305 0.615599 0.410400
Si Si7 0.513161 0.111256 0.816965
Si Si8 0.604419 0.947773 0.534960
O O1 0.865588 0.089222 0.750000
O O2 0.795954 0.130016 0.660004
O O3 0.981127 0.167280 0.666505
O O4 0.825294 0.977177 0.663727
O O5 0.916123 0.717060 0.057171
O O6 0.885047 0.813570 0.983076
O O7 0.990256 0.714978 0.963927
O O8 0.459143 0.339728 0.422022
O O9 0.411421 0.438560 0.358383
O O10 0.371754 0.424457 0.469119
O O11 0.551990 0.538845 0.434144
O O12 0.897286 0.755200 0.250000
O O13 0.849933 0.657444 0.152712
O O14 0.436710 0.266022 0.750000
O O15 0.503557 0.207024 0.829129
O O16 0.510645 0.378743 0.833581
O O17 0.734052 0.577624 0.437918
O O18 0.495773 0.089515 0.750000
#
# Coordination Sequence:
#
# PCOD9581898 Si02
#       8
#    12  12  12  12  12  12  12  12
#     4   9  18  32  49  77 116 158 194 229 275 346
#     4   9  18  35  58  84 115 148 184 232 284 350
#     4  10  21  41  61  83 111 153 199 244 301 356
#     4  10  20  33  53  83 122 161 199 235 284 351
#     4   9  18  33  53  81 118 149 183 235 293 353
#     4  10  21  37  58  83 112 151 193 247 295 336
#     4  10  20  36  59  87 118 151 191 242 304 363
#     4   9  21  41  58  79 114 151 195 248 294 343
#
# _framework density 19.237037999999998
#
# number of rings (size 3 to 8) (size 9 to 14) (size 15 to 20)
#    0.000    2.500    0.000    1.375    1.750    5.500 
#   12.000    0.000    0.000    0.000    0.000    0.000 
#    0.000    0.000    0.000    0.000    0.000    0.000 
#
# Total GULP energy -535077.578519 kJ/mol
# GULP energy per Si atom -5573.724776 kJ/mol
# Density = 1.919325 g / cm^3
# Si number density = 19.237038 Si / 1000 Ang^3
#
#
#
# Elastic Constant Matrix: (Units=GPa)
#
#
# Indices 1 2 3 4 5 6 
#
# 1 32.8012 66.8862 23.6123 0.0000 0.0000 0.0000
# 2 66.8862 32.8012 23.6123 0.0000 0.0000 0.0000
# 3 23.6123 23.6123 63.2981 0.0000 0.0000 0.0000
# 4 0.0000 0.0000 0.0000 10.9317 0.0000 0.0000
# 5 0.0000 0.0000 0.0000 0.0000 10.9317 0.0000
# 6 0.0000 0.0000 0.0000 0.0000 0.0000 -17.0425
#
#
#
# Elastic Compliance Matrix: (Units=1/GPa)
#
#
# Indices 1 2 3 4 5 6 
#
# 1 -0.008577 0.020761 -0.004545 0.000000 0.000000 0.000000
# 2 0.020761 -0.008577 -0.004545 0.000000 0.000000 0.000000
# 3 -0.004545 -0.004545 0.019189 0.000000 0.000000 0.000000
# 4 0.000000 0.000000 0.000000 0.091477 0.000000 0.000000
# 5 0.000000 0.000000 0.000000 0.000000 0.091477 0.000000
# 6 0.000000 0.000000 0.000000 0.000000 0.000000 -0.058677
#
#
# Mechanical properties :
#
#
# Convention : Reuss Voigt Hill
#
# Bulk Modulus (GPa) = 39.40504 39.68022 39.54263
# Shear Modulus (GPa) = 44.87126 1.95017 23.41071
#
# Velocity S-wave (km/s) = 4.83488 1.00795 3.49228
# Velocity P-wave (km/s) = 7.19003 4.69323 6.07136
#
# Compressibility (1/GPa) = 0.02537746
#
# Stress axis : x y z
#
# Youngs Moduli (GPa) = -116.59179 -116.59178 52.11235
#
# Poissons Ratio (x) = 2.42062 0.23686
# Poissons Ratio (y) = 2.42062 0.23686
# Poissons Ratio (z) = -0.52994 -0.52994
#
# Static dielectric constant tensor:
#      x y z
#    x 1.678250 0.000000 0.000000 
#    y 0.000000 1.678250 0.000000 
#    z 0.000000 0.000000 1.703440 
# 
# From -- ./inp_files/4335.got.cif
#   From: 2010.05.17/outbox.cif.g08.bks.cpg/sg176_3_cif.got.tgz:4335.got - 2010.06.03 11:36:45.
