data_PCOD9581971
_publ_section_title
;
Structure prediction by ZEFSAII (Michael W. Deem and Ramdas Pophale) SiO2 
 PCOD9581971
Probable space group: P 63/M
;
_chemical_formula_sum "Si O2"
_cell_formula_units_Z 42
_cell_length_a 8.433606
_cell_length_b 8.433606
_cell_length_c 32.411867
_cell_angle_alpha 90.000000
_cell_angle_beta 90.000000
_cell_angle_gamma 120.000000
_cell_volume 1996.463136
_symmetry_space_group_name_H-M "P 63/M"
_symmetry_group_IT_number 176
_symmetry_cell_setting 'hexagonal'
loop_
_space_group_symop_operation_xyz
x,y,z
x-y,x,1/2+z
-y,x-y,z
-x,-y,1/2+z
-x+y,-x,z
y,-x+y,1/2+z
-x,-y,-z
-x+y,-x,1/2-z
y,-x+y,-z
x,y,1/2-z
x-y,x,-z
-y,x-y,1/2-z
loop_
_atom_site_type_symbol
_atom_site_label
_atom_site_fract_x
_atom_site_fract_y
_atom_site_fract_z
Si Si1 0.321543 0.014816 0.338099
Si Si2 0.527673 0.432423 0.456185
Si Si3 0.271314 0.431044 0.750000
Si Si4 0.353043 0.365448 0.372002
O O1 0.315492 0.068921 0.290984
O O2 0.395429 0.202270 0.363703
O O3 0.471084 0.951415 0.341496
O O4 0.141024 0.856658 0.359496
O O5 0.470135 0.218268 0.453721
O O6 0.500000 0.500000 0.500000
O O7 0.418374 0.450795 0.417655
O O8 0.473062 0.617901 0.750000
#
# Coordination Sequence:
#
# PCOD9581971 Si02
#       4
#    12  12   6  12
#     4  12  24  42  72  98 139 184 229 292 349 434
#     4  10  23  41  68 100 139 180 234 295 359 422
#     4  10  20  42  72  96 134 178 226 292 362 400
#     4  12  24  45  66 106 138 188 234 285 365 429
#
# _framework density 21.037203999999999
#
# number of rings (size 3 to 8) (size 9 to 14) (size 15 to 20)
#    0.857    0.000    5.714    1.714    4.000    2.286 
#    0.000    0.000    0.000    2.286    0.000    0.000 
#    0.000    0.000    0.000    0.000    0.000    0.000 
#
# Total GULP energy -234073.597460 kJ/mol
# GULP energy per Si atom -5573.180892 kJ/mol
# Density = 2.098932 g / cm^3
# Si number density = 21.037204 Si / 1000 Ang^3
#
#
#
# Elastic Constant Matrix: (Units=GPa)
#
#
# Indices 1 2 3 4 5 6 
#
# 1 63.6314 -0.4690 28.0838 0.0000 0.0000 0.0000
# 2 -0.4690 63.6314 28.0838 0.0000 0.0000 0.0000
# 3 28.0838 28.0838 204.9009 0.0000 0.0000 0.0000
# 4 0.0000 0.0000 0.0000 28.8861 0.0000 0.0000
# 5 0.0000 0.0000 0.0000 0.0000 28.8861 0.0000
# 6 0.0000 0.0000 0.0000 0.0000 0.0000 32.0502
#
#
#
# Elastic Compliance Matrix: (Units=1/GPa)
#
#
# Indices 1 2 3 4 5 6 
#
# 1 0.016815 0.001215 -0.002471 0.000000 0.000000 0.000000
# 2 0.001215 0.016815 -0.002471 0.000000 0.000000 0.000000
# 3 -0.002471 -0.002471 0.005558 0.000000 0.000000 0.000000
# 4 0.000000 0.000000 0.000000 0.034619 0.000000 0.000000
# 5 0.000000 0.000000 0.000000 0.000000 0.034619 0.000000
# 6 0.000000 0.000000 0.000000 0.000000 0.000000 0.031201
#
#
# Mechanical properties :
#
#
# Convention : Reuss Voigt Hill
#
# Bulk Modulus (GPa) = 31.51335 49.28453 40.39894
# Shear Modulus (GPa) = 31.71393 36.39550 34.05471
#
# Velocity S-wave (km/s) = 3.88689 4.16390 4.02778
# Velocity P-wave (km/s) = 5.92927 6.82610 6.39343
#
# Compressibility (1/GPa) = 0.03173259
#
# Stress axis : x y z
#
# Youngs Moduli (GPa) = 59.47031 59.47031 179.92713
#
# Poissons Ratio (x) = -0.07223 0.44463
# Poissons Ratio (y) = -0.07223 0.44463
# Poissons Ratio (z) = 0.14696 0.14696
#
# Static dielectric constant tensor:
#      x y z
#    x 1.797090 0.000000 0.000000 
#    y 0.000000 1.797090 0.000000 
#    z 0.000000 0.000000 1.789580 
# 
# From -- ./inp_files/4418.got.cif
#   From: 2010.05.17/outbox.cif.g08.bks.cpg/sg176_3_cif.got.tgz:4418.got - 2010.06.03 11:36:45.
