data_PCOD9581297
_publ_section_title
;
Structure prediction by ZEFSAII (Michael W. Deem and Ramdas Pophale) SiO2 
 PCOD9581297
Probable space group: P 6/M
;
_chemical_formula_sum "Si O2"
_cell_formula_units_Z 48
_cell_length_a 14.056041
_cell_length_b 14.056041
_cell_length_c 11.419027
_cell_angle_alpha 90.000000
_cell_angle_beta 90.000000
_cell_angle_gamma 120.000000
_cell_volume 1953.825449
_symmetry_space_group_name_H-M "P 6/M"
_symmetry_group_IT_number 175
_symmetry_cell_setting 'hexagonal'
loop_
_space_group_symop_operation_xyz
x,y,z
x-y,x,z
-y,x-y,z
-x,-y,z
-x+y,-x,z
y,-x+y,z
-x,-y,-z
-x+y,-x,-z
y,-x+y,-z
x,y,-z
x-y,x,-z
-y,x-y,-z
loop_
_atom_site_type_symbol
_atom_site_label
_atom_site_fract_x
_atom_site_fract_y
_atom_site_fract_z
Si Si1 0.822106 0.746091 0.375158
Si Si2 0.892415 0.260706 0.872983
Si Si3 0.489152 0.366846 0.126886
Si Si4 0.810632 0.413110 0.373770
O O1 0.951259 0.793744 0.376101
O O2 0.777012 0.684280 0.500000
O O3 0.781244 0.687019 0.252319
O O4 0.001255 0.381896 0.875187
O O5 0.761446 0.218410 0.872130
O O6 0.902755 0.212960 0.000000
O O7 0.549017 0.417628 0.249654
O O8 0.547224 0.410278 0.000000
O O9 0.718569 0.450936 0.374231
O O10 0.869265 0.448315 0.500000
#
# Coordination Sequence:
#
# PCOD9581297 Si02
#       4
#    12  12  12  12
#     4  10  19  30  44  65  95 135 184 232 271 306
#     4  10  20  33  50  74 108 146 182 219 260 311
#     4  10  20  34  54  81 110 143 183 222 263 312
#     4   8  18  38  62  83 104 133 171 216 269 334
#
# _framework density 24.567188999999999
#
# number of rings (size 3 to 8) (size 9 to 14) (size 15 to 20)
#    0.500    2.000    2.500    0.250    0.000    4.000 
#    0.000    1.250    0.000    9.000    0.000    0.000 
#    0.000    0.000    0.000    0.000    0.000    0.000 
#
# Total GULP energy -267416.844307 kJ/mol
# GULP energy per Si atom -5571.184256 kJ/mol
# Density = 2.451127 g / cm^3
# Si number density = 24.567189 Si / 1000 Ang^3
#
#
#
# Elastic Constant Matrix: (Units=GPa)
#
#
# Indices 1 2 3 4 5 6 
#
# 1 88.3641 15.8883 53.2083 0.0000 0.0000 0.0000
# 2 15.8883 88.3641 53.2083 0.0000 0.0000 0.0000
# 3 53.2083 53.2083 336.6379 0.0000 0.0000 0.0000
# 4 0.0000 0.0000 0.0000 31.8891 0.0000 0.0000
# 5 0.0000 0.0000 0.0000 0.0000 31.8891 0.0000
# 6 0.0000 0.0000 0.0000 0.0000 0.0000 36.2379
#
#
#
# Elastic Compliance Matrix: (Units=1/GPa)
#
#
# Indices 1 2 3 4 5 6 
#
# 1 0.012618 -0.001180 -0.001808 0.000000 0.000000 0.000000
# 2 -0.001180 0.012618 -0.001808 0.000000 0.000000 0.000000
# 3 -0.001808 -0.001808 0.003542 0.000000 0.000000 0.000000
# 4 0.000000 0.000000 0.000000 0.031359 0.000000 0.000000
# 5 0.000000 0.000000 0.000000 0.000000 0.031359 0.000000
# 6 0.000000 0.000000 0.000000 0.000000 0.000000 0.027595
#
#
# Mechanical properties :
#
#
# Convention : Reuss Voigt Hill
#
# Bulk Modulus (GPa) = 52.12203 84.21955 68.17079
# Shear Modulus (GPa) = 37.01608 46.07399 41.54503
#
# Velocity S-wave (km/s) = 3.88587 4.33532 4.11673
# Velocity P-wave (km/s) = 6.43393 7.70816 7.09969
#
# Compressibility (1/GPa) = 0.01918574
#
# Stress axis : x y z
#
# Youngs Moduli (GPa) = 79.25465 79.25465 282.32487
#
# Poissons Ratio (x) = 0.09353 0.51038
# Poissons Ratio (y) = 0.09353 0.51038
# Poissons Ratio (z) = 0.14327 0.14327
#
# Static dielectric constant tensor:
#      x y z
#    x 1.964020 0.000000 0.000000 
#    y 0.000000 1.964020 0.000000 
#    z 0.000000 0.000000 1.963790 
# 
# From -- ./inp_files/525.got.cif
#   From: 2010.05.17/outbox.cif.g08.bks.cpg/sg175_1_cif.got.tgz:525.got - 2010.05.20 11:23:22.
