data_PCOD9581442
_publ_section_title
;
Structure prediction by ZEFSAII (Michael W. Deem and Ramdas Pophale) SiO2 
 PCOD9581442
Probable space group: P 6/M
;
_chemical_formula_sum "Si O2"
_cell_formula_units_Z 66
_cell_length_a 19.489689
_cell_length_b 19.489689
_cell_length_c 8.283069
_cell_angle_alpha 90.000000
_cell_angle_beta 90.000000
_cell_angle_gamma 120.000000
_cell_volume 2724.781795
_symmetry_space_group_name_H-M "P 6/M"
_symmetry_group_IT_number 175
_symmetry_cell_setting 'hexagonal'
loop_
_space_group_symop_operation_xyz
x,y,z
x-y,x,z
-y,x-y,z
-x,-y,z
-x+y,-x,z
y,-x+y,z
-x,-y,-z
-x+y,-x,-z
y,-x+y,-z
x,y,-z
x-y,x,-z
-y,x-y,-z
loop_
_atom_site_type_symbol
_atom_site_label
_atom_site_fract_x
_atom_site_fract_y
_atom_site_fract_z
Si Si1 0.619886 0.387245 0.193685
Si Si2 0.163324 0.006395 0.000000
Si Si3 0.930375 0.341272 0.316933
Si Si4 0.205682 0.819033 0.188607
Si Si5 0.749769 0.779815 0.325380
Si Si6 0.090820 0.476942 0.306056
O O1 0.582650 0.293640 0.238863
O O2 0.570299 0.423981 0.267857
O O3 0.617129 0.392108 0.000000
O O4 0.203981 0.004317 0.165425
O O5 0.080652 0.927904 0.000000
O O6 0.908691 0.350274 0.500000
O O7 0.852435 0.273821 0.226732
O O8 0.985711 0.300799 0.330691
O O9 0.999506 0.426274 0.249900
O O10 0.185670 0.876054 0.295553
O O11 0.299509 0.858305 0.224060
O O12 0.196107 0.831075 0.000000
O O13 0.789808 0.808288 0.500000
O O14 0.089298 0.467724 0.500000
#
# Coordination Sequence:
#
# PCOD9581442 Si02
#       6
#    12   6  12  12  12  12
#     4   8  17  34  56  81 108 140 178 224 264 302
#     4  12  25  38  52  68  90 124 168 218 272 326
#     4   9  19  33  50  75 109 141 170 214 272 322
#     4  11  20  31  52  79 107 139 175 215 268 328
#     4  10  21  37  55  74  98 130 172 222 268 323
#     4  10  20  33  52  79 111 143 177 222 269 320
#
# _framework density 24.222123
#
# number of rings (size 3 to 8) (size 9 to 14) (size 15 to 20)
#    0.364    1.818    0.909    4.455    1.273    4.364 
#    0.000    0.000    0.000    2.182    0.000    7.636 
#    0.000    0.000    0.000    0.000    0.000    0.000 
#
# Total GULP energy -368595.334569 kJ/mol
# GULP energy per Si atom -5584.777797 kJ/mol
# Density = 2.416699 g / cm^3
# Si number density = 24.222123 Si / 1000 Ang^3
#
#
#
# Elastic Constant Matrix: (Units=GPa)
#
#
# Indices 1 2 3 4 5 6 
#
# 1 122.9198 20.0442 25.1988 0.0000 0.0000 0.0000
# 2 20.0442 122.9198 25.1988 0.0000 0.0000 0.0000
# 3 25.1988 25.1988 118.7080 0.0000 0.0000 0.0000
# 4 0.0000 0.0000 0.0000 17.2730 0.0000 0.0000
# 5 0.0000 0.0000 0.0000 0.0000 17.2730 0.0000
# 6 0.0000 0.0000 0.0000 0.0000 0.0000 51.4378
#
#
#
# Elastic Compliance Matrix: (Units=1/GPa)
#
#
# Indices 1 2 3 4 5 6 
#
# 1 0.008641 -0.001080 -0.001605 0.000000 0.000000 0.000000
# 2 -0.001080 0.008641 -0.001605 0.000000 0.000000 0.000000
# 3 -0.001605 -0.001605 0.009105 0.000000 0.000000 0.000000
# 4 0.000000 0.000000 0.000000 0.057894 0.000000 0.000000
# 5 0.000000 0.000000 0.000000 0.000000 0.057894 0.000000
# 6 0.000000 0.000000 0.000000 0.000000 0.000000 0.019441
#
#
# Mechanical properties :
#
#
# Convention : Reuss Voigt Hill
#
# Bulk Modulus (GPa) = 56.15829 56.15900 56.15864
# Shear Modulus (GPa) = 28.38806 36.80380 32.59593
#
# Velocity S-wave (km/s) = 3.42715 3.90221 3.67237
# Velocity P-wave (km/s) = 6.23662 6.59836 6.42004
#
# Compressibility (1/GPa) = 0.01780681
#
# Stress axis : x y z
#
# Youngs Moduli (GPa) = 115.73396 115.73396 109.82494
#
# Poissons Ratio (x) = 0.12499 0.17626
# Poissons Ratio (y) = 0.12499 0.17626
# Poissons Ratio (z) = 0.18574 0.18574
#
# Static dielectric constant tensor:
#      x y z
#    x 1.994820 0.000000 0.000000 
#    y 0.000000 1.994820 0.000000 
#    z 0.000000 0.000000 2.995070 
# 
# From -- ./inp_files/1055.got.cif
#   From: 2010.05.17/outbox.cif.g08.bks.cpg/sg175_1_cif.got.tgz:1055.got - 2010.05.20 11:23:22.
