data_PCOD9581857
_publ_section_title
;
Structure prediction by ZEFSAII (Michael W. Deem and Ramdas Pophale) SiO2 
 PCOD9581857
Probable space group: P 63/M
;
_chemical_formula_sum "Si O2"
_cell_formula_units_Z 64
_cell_length_a 14.024319
_cell_length_b 14.024319
_cell_length_c 17.684858
_cell_angle_alpha 90.000000
_cell_angle_beta 90.000000
_cell_angle_gamma 120.000000
_cell_volume 3012.283009
_symmetry_space_group_name_H-M "P 63/M"
_symmetry_group_IT_number 176
_symmetry_cell_setting 'hexagonal'
loop_
_space_group_symop_operation_xyz
x,y,z
x-y,x,1/2+z
-y,x-y,z
-x,-y,1/2+z
-x+y,-x,z
y,-x+y,1/2+z
-x,-y,-z
-x+y,-x,1/2-z
y,-x+y,-z
x,y,1/2-z
x-y,x,-z
-y,x-y,1/2-z
loop_
_atom_site_type_symbol
_atom_site_label
_atom_site_fract_x
_atom_site_fract_y
_atom_site_fract_z
Si Si1 0.333335 0.666667 0.161476
Si Si2 0.753269 0.079955 0.663871
Si Si3 0.604403 0.116098 0.088263
Si Si4 0.251218 0.096938 0.522017
Si Si5 0.448728 0.574717 0.416718
Si Si6 0.405835 0.152197 0.114363
O O1 0.333334 0.666668 0.250000
O O2 0.222212 0.652607 0.126697
O O3 0.779090 0.117298 0.750000
O O4 0.855209 0.135660 0.606403
O O5 0.658563 0.100779 0.629562
O O6 0.693791 0.946154 0.659806
O O7 0.516428 0.145024 0.123555
O O8 0.721178 0.164740 0.128125
O O9 0.541542 0.984825 0.081747
O O10 0.619452 0.158591 0.001717
O O11 0.199252 0.166331 0.483693
O O12 0.358325 0.124189 0.471775
#
# Coordination Sequence:
#
# PCOD9581857 Si02
#       6
#     4  12  12  12  12  12
#     4  12  24  36  51  81 123 165 190 227 301 366
#     4  10  21  39  58  86 123 157 195 253 312 361
#     4  10  19  35  60  90 114 153 199 255 284 349
#     4  10  21  38  62  88 116 156 205 257 301 362
#     4  10  21  34  56  83 120 153 199 238 291 348
#     4  10  20  36  61  91 120 154 205 247 296 359
#
# _framework density 21.246345000000002
#
# number of rings (size 3 to 8) (size 9 to 14) (size 15 to 20)
#    0.000    1.875    1.875    2.250    2.625    0.000 
#    0.000    8.438    0.000    0.000    0.000    0.000 
#    0.000    0.000    0.000    0.000    0.000    0.000 
#
# Total GULP energy -357587.929073 kJ/mol
# GULP energy per Si atom -5587.311392 kJ/mol
# Density = 2.119799 g / cm^3
# Si number density = 21.246345 Si / 1000 Ang^3
#
#
#
# Elastic Constant Matrix: (Units=GPa)
#
#
# Indices 1 2 3 4 5 6 
#
# 1 56.4185 8.5016 -9.5503 0.0000 0.0000 0.0000
# 2 8.5016 56.4195 -9.5502 0.0000 0.0000 0.0002
# 3 -9.5503 -9.5502 80.5794 0.0000 0.0000 0.0002
# 4 0.0000 0.0000 0.0000 10.6577 0.0001 0.0000
# 5 0.0000 0.0000 0.0000 0.0001 10.6578 0.0000
# 6 0.0000 0.0002 0.0002 0.0000 0.0000 23.9585
#
#
#
# Elastic Compliance Matrix: (Units=1/GPa)
#
#
# Indices 1 2 3 4 5 6 
#
# 1 0.018415 -0.002455 0.001892 0.000000 0.000000 0.000000
# 2 -0.002455 0.018414 0.001892 0.000000 0.000000 0.000000
# 3 0.001892 0.001892 0.012858 0.000000 0.000000 0.000000
# 4 0.000000 0.000000 0.000000 0.093829 -0.000001 0.000000
# 5 0.000000 0.000000 0.000000 -0.000001 0.093828 0.000000
# 6 0.000000 0.000000 0.000000 0.000000 0.000000 0.041739
#
#
# Mechanical properties :
#
#
# Convention : Reuss Voigt Hill
#
# Bulk Modulus (GPa) = 19.10415 19.13553 19.11984
# Shear Modulus (GPa) = 17.01405 22.65589 19.83497
#
# Velocity S-wave (km/s) = 2.83291 3.26903 3.05875
# Velocity P-wave (km/s) = 4.43979 4.82440 4.63609
#
# Compressibility (1/GPa) = 0.05234464
#
# Stress axis : x y z
#
# Youngs Moduli (GPa) = 54.30428 54.30525 77.76962
#
# Poissons Ratio (x) = 0.13330 -0.14711
# Poissons Ratio (y) = 0.13330 -0.14710
# Poissons Ratio (z) = -0.10272 -0.10272
#
# Static dielectric constant tensor:
#      x y z
#    x 1.828140 0.000000 0.000000 
#    y 0.000000 1.828140 0.000000 
#    z 0.000000 0.000000 1.756980 
# 
# From -- ./inp_files/3322.got.cif
#   From: 2010.05.17/outbox.cif.g08.bks.cpg/sg176_2_cif.got.tgz:3322.got - 2010.06.03 11:36:45.
