data_PCOD9581491
_publ_section_title
;
Structure prediction by ZEFSAII (Michael W. Deem and Ramdas Pophale) SiO2 
 PCOD9581491
Probable space group: P 6/M
;
_chemical_formula_sum "Si O2"
_cell_formula_units_Z 84
_cell_length_a 18.804944
_cell_length_b 18.804944
_cell_length_c 14.271747
_cell_angle_alpha 90.000000
_cell_angle_beta 90.000000
_cell_angle_gamma 120.000000
_cell_volume 4370.708663
_symmetry_space_group_name_H-M "P 6/M"
_symmetry_group_IT_number 175
_symmetry_cell_setting 'hexagonal'
loop_
_space_group_symop_operation_xyz
x,y,z
x-y,x,z
-y,x-y,z
-x,-y,z
-x+y,-x,z
y,-x+y,z
-x,-y,-z
-x+y,-x,-z
y,-x+y,-z
x,y,-z
x-y,x,-z
-y,x-y,-z
loop_
_atom_site_type_symbol
_atom_site_label
_atom_site_fract_x
_atom_site_fract_y
_atom_site_fract_z
Si Si1 0.370519 0.270776 0.108729
Si Si2 0.764801 0.100950 0.388605
Si Si3 0.179519 0.495413 0.721323
Si Si4 0.080120 0.736938 0.613645
Si Si5 0.839051 0.348257 0.723146
Si Si6 0.452551 0.049294 0.893151
Si Si7 0.127389 0.939696 0.114095
O O1 0.442713 0.289865 0.182174
O O2 0.367478 0.355187 0.110329
O O3 0.282625 0.193559 0.136920
O O4 0.388319 0.259128 0.000000
O O5 0.770554 0.096940 0.500000
O O6 0.704268 0.133764 0.360014
O O7 0.852994 0.171715 0.354750
O O8 0.724597 0.009128 0.351911
O O9 0.155783 0.565044 0.712984
O O10 0.276150 0.530178 0.712132
O O11 0.080698 0.733567 0.500000
O O12 0.107195 0.674215 0.654081
O O13 0.875214 0.351369 0.825815
O O14 0.500000 0.000000 0.864340
O O15 0.477386 0.075542 0.000000
O O16 0.033801 0.875563 0.144775
O O17 0.126054 0.940972 0.000000
#
# Coordination Sequence:
#
# PCOD9581491 Si02
#       7
#    12  12  12  12  12  12  12
#     4  10  21  35  53  78 108 144 188 232 276 330
#     4   9  19  37  60  87 116 146 181 228 282 338
#     4  11  23  38  55  79 112 146 190 234 284 335
#     4   9  19  36  61  90 118 148 186 231 284 341
#     4  11  23  37  57  80 111 150 190 238 288 338
#     4  10  20  36  56  77 104 143 190 240 285 329
#     4   9  18  33  54  79 107 139 177 224 280 339
#
# _framework density 19.218851000000001
#
# number of rings (size 3 to 8) (size 9 to 14) (size 15 to 20)
#    0.000    2.143    1.429    1.286    2.000    1.714 
#    0.000    1.429    0.000    3.714    0.000    2.000 
#    0.000    0.000    0.000    0.000    0.000    0.000 
#
# Total GULP energy -468615.116745 kJ/mol
# GULP energy per Si atom -5578.751390 kJ/mol
# Density = 1.917511 g / cm^3
# Si number density = 19.218851 Si / 1000 Ang^3
#
#
#
# Elastic Constant Matrix: (Units=GPa)
#
#
# Indices 1 2 3 4 5 6 
#
# 1 114.0111 74.2773 13.1418 0.0000 0.0000 0.0000
# 2 74.2773 114.0111 13.1418 0.0000 0.0000 0.0000
# 3 13.1418 13.1418 10.7894 0.0000 0.0000 0.0000
# 4 0.0000 0.0000 0.0000 13.4407 0.0000 0.0000
# 5 0.0000 0.0000 0.0000 0.0000 13.4407 0.0000
# 6 0.0000 0.0000 0.0000 0.0000 0.0000 19.8669
#
#
#
# Elastic Compliance Matrix: (Units=1/GPa)
#
#
# Indices 1 2 3 4 5 6 
#
# 1 0.015783 -0.009384 -0.007794 0.000000 0.000000 0.000000
# 2 -0.009384 0.015783 -0.007794 0.000000 0.000000 0.000000
# 3 -0.007794 -0.007794 0.111671 0.000000 0.000000 0.000000
# 4 0.000000 0.000000 0.000000 0.074401 0.000000 0.000000
# 5 0.000000 0.000000 0.000000 0.000000 0.074401 0.000000
# 6 0.000000 0.000000 0.000000 0.000000 0.000000 0.050335
#
#
# Mechanical properties :
#
#
# Convention : Reuss Voigt Hill
#
# Bulk Modulus (GPa) = 10.71904 48.88148 29.80026
# Shear Modulus (GPa) = 11.80871 18.56638 15.18754
#
# Velocity S-wave (km/s) = 2.48147 3.11151 2.81417
# Velocity P-wave (km/s) = 3.71479 6.19661 5.10870
#
# Compressibility (1/GPa) = 0.09329198
#
# Stress axis : x y z
#
# Youngs Moduli (GPa) = 63.35829 63.35829 8.95490
#
# Poissons Ratio (x) = 0.59457 0.06980
# Poissons Ratio (y) = 0.59457 0.06980
# Poissons Ratio (z) = 0.49383 0.49383
#
# Static dielectric constant tensor:
#      x y z
#    x 1.693440 0.000000 0.000000 
#    y 0.000000 1.693440 0.000000 
#    z 0.000000 0.000000 1.692320 
# 
# From -- ./inp_files/2624.got.cif
#   From: 2010.05.17/outbox.cif.g08.bks.cpg/sg175_2_cif.got.tgz:2624.got - 2010.05.20 11:23:22.
