data_PCOD9581065
_publ_section_title
;
Structure prediction by ZEFSAII (Michael W. Deem and Ramdas Pophale) SiO2 
 PCOD9581065
Probable space group: P 63
;
_chemical_formula_sum "Si O2"
_cell_formula_units_Z 30
_cell_length_a 8.388116
_cell_length_b 8.388116
_cell_length_c 24.495762
_cell_angle_alpha 90.000000
_cell_angle_beta 90.000000
_cell_angle_gamma 120.000000
_cell_volume 1492.624071
_symmetry_space_group_name_H-M "P 63"
_symmetry_group_IT_number 173
_symmetry_cell_setting 'hexagonal'
loop_
_space_group_symop_operation_xyz
x,y,z
x-y,x,1/2+z
-y,x-y,z
-x,-y,1/2+z
-x+y,-x,z
y,-x+y,1/2+z
loop_
_atom_site_type_symbol
_atom_site_label
_atom_site_fract_x
_atom_site_fract_y
_atom_site_fract_z
Si Si1 0.878264 0.335140 0.742810
Si Si2 0.998361 0.332918 0.075025
Si Si3 0.341458 0.881017 0.848325
Si Si4 0.540554 0.880499 0.454350
Si Si5 0.333889 0.002185 0.622802
O O1 0.836987 0.505958 0.742961
O O2 0.975962 0.328578 0.687652
O O3 0.998763 0.357504 0.795611
O O4 0.134810 0.265728 0.095634
O O5 0.069266 0.534095 0.099077
O O6 0.801088 0.201821 0.102076
O O7 0.976035 0.337120 0.010353
O O8 0.166172 0.674823 0.847848
O O9 0.358952 0.996426 0.902225
O O10 0.327189 0.835048 0.453544
#
# Coordination Sequence:
#
# PCOD9581065 Si02
#       5
#     6   6   6   6   6
#     4  10  21  42  65  91 129 181 219 272 344 406
#     4  12  24  42  65 101 136 181 230 285 348 415
#     4  10  24  36  62 100 120 170 228 282 320 398
#     4  10  21  42  65  91 129 181 219 272 344 406
#     4  12  24  42  65 101 136 181 230 285 348 415
#
# _framework density 20.09883
#
# number of rings (size 3 to 8) (size 9 to 14) (size 15 to 20)
#    1.200    0.000    4.000    2.400    5.600    0.000 
#    0.000    0.000    0.000    6.400    0.000    0.000 
#    0.000    0.000    0.000    0.000    0.000    0.000 
#
# Total GULP energy -167342.939305 kJ/mol
# GULP energy per Si atom -5578.097977 kJ/mol
# Density = 2.005308 g / cm^3
# Si number density = 20.098830 Si / 1000 Ang^3
#
#
#
# Elastic Constant Matrix: (Units=GPa)
#
#
# Indices 1 2 3 4 5 6 
#
# 1 61.3614 5.2977 39.5067 0.0000 0.0000 0.0000
# 2 5.2977 61.3614 39.5067 0.0000 0.0000 0.0000
# 3 39.5067 39.5067 213.5367 0.0000 0.0000 0.0000
# 4 0.0000 0.0000 0.0000 47.5741 0.0000 0.0000
# 5 0.0000 0.0000 0.0000 0.0000 47.5741 0.0000
# 6 0.0000 0.0000 0.0000 0.0000 0.0000 28.0318
#
#
#
# Elastic Compliance Matrix: (Units=1/GPa)
#
#
# Indices 1 2 3 4 5 6 
#
# 1 0.018526 0.000689 -0.003555 0.000000 0.000000 0.000000
# 2 0.000689 0.018526 -0.003555 0.000000 0.000000 0.000000
# 3 -0.003555 -0.003555 0.005999 0.000000 0.000000 0.000000
# 4 0.000000 0.000000 0.000000 0.021020 0.000000 0.000000
# 5 0.000000 0.000000 0.000000 0.000000 0.021020 0.000000
# 6 0.000000 0.000000 0.000000 0.000000 0.000000 0.035674
#
#
# Mechanical properties :
#
#
# Convention : Reuss Voigt Hill
#
# Bulk Modulus (GPa) = 33.10218 56.09796 44.60007
# Shear Modulus (GPa) = 34.80053 41.43257 38.11655
#
# Velocity S-wave (km/s) = 4.16561 4.54524 4.35956
# Velocity P-wave (km/s) = 6.29618 7.45099 6.89779
#
# Compressibility (1/GPa) = 0.03020949
#
# Stress axis : x y z
#
# Youngs Moduli (GPa) = 53.97730 53.97730 166.70787
#
# Poissons Ratio (x) = -0.03721 0.59267
# Poissons Ratio (y) = -0.03721 0.59267
# Poissons Ratio (z) = 0.19190 0.19190
#
# Static dielectric constant tensor:
#      x y z
#    x 1.648840 0.000000 0.000000 
#    y 0.000000 1.648840 0.000000 
#    z 0.000000 0.000000 1.662300 
# 
# From -- ./inp_files/1426.got.cif
#   From: 2010.05.17/outbox.cif.g08.bks.cpg/sg173_cif.got.tgz:1426.got - 2010.05.20 11:21:53.
