data_PCOD9581854
_publ_section_title
;
Structure prediction by ZEFSAII (Michael W. Deem and Ramdas Pophale) SiO2 
 PCOD9581854
Probable space group: P 63/M
;
_chemical_formula_sum "Si O2"
_cell_formula_units_Z 66
_cell_length_a 20.849368
_cell_length_b 20.849368
_cell_length_c 8.246193
_cell_angle_alpha 90.000000
_cell_angle_beta 90.000000
_cell_angle_gamma 120.000000
_cell_volume 3104.344544
_symmetry_space_group_name_H-M "P 63/M"
_symmetry_group_IT_number 176
_symmetry_cell_setting 'hexagonal'
loop_
_space_group_symop_operation_xyz
x,y,z
x-y,x,1/2+z
-y,x-y,z
-x,-y,1/2+z
-x+y,-x,z
y,-x+y,1/2+z
-x,-y,-z
-x+y,-x,1/2-z
y,-x+y,-z
x,y,1/2-z
x-y,x,-z
-y,x-y,1/2-z
loop_
_atom_site_type_symbol
_atom_site_label
_atom_site_fract_x
_atom_site_fract_y
_atom_site_fract_z
Si Si1 0.187763 0.875756 0.060046
Si Si2 0.044168 0.746123 0.560433
Si Si3 0.579406 0.253701 0.750000
Si Si4 0.557244 0.173524 0.069620
Si Si5 0.033163 0.604646 0.438296
Si Si6 0.866003 0.545500 0.060272
O O1 0.171252 0.870944 0.250000
O O2 0.232565 0.962595 0.013165
O O3 0.111827 0.827838 0.965393
O O4 0.244757 0.845209 0.029084
O O5 0.040074 0.725330 0.750000
O O6 0.061123 0.691544 0.455779
O O7 0.661475 0.261924 0.750000
O O8 0.543727 0.212987 0.582724
O O9 0.549946 0.198549 0.250000
O O10 0.638050 0.181150 0.055017
O O11 0.497651 0.086986 0.047540
O O12 0.035718 0.585315 0.250000
O O13 0.948573 0.566861 0.496877
O O14 0.872978 0.566547 0.250000
#
# Coordination Sequence:
#
# PCOD9581854 Si02
#       6
#    12  12   6  12  12  12
#     4  10  21  36  58  87 118 156 195 239 293 350
#     4  10  21  37  57  86 121 155 196 242 290 352
#     4  10  26  46  58  76 108 148 202 252 294 348
#     4  11  22  39  63  87 113 154 200 247 307 357
#     4  10  19  35  58  87 123 153 189 239 296 357
#     4   9  20  35  56  88 120 151 190 239 295 355
#
# _framework density 21.260528000000001
#
# number of rings (size 3 to 8) (size 9 to 14) (size 15 to 20)
#    0.182    1.818    0.909    2.182    1.273    5.091 
#    0.000    1.818    0.000    0.364    0.000    0.000 
#    0.000    0.000    0.000    0.000    0.000    0.000 
#
# Total GULP energy -368615.048335 kJ/mol
# GULP energy per Si atom -5585.076490 kJ/mol
# Density = 2.121214 g / cm^3
# Si number density = 21.260528 Si / 1000 Ang^3
#
#
#
# Elastic Constant Matrix: (Units=GPa)
#
#
# Indices 1 2 3 4 5 6 
#
# 1 55.4659 15.7818 19.5920 0.0000 0.0000 0.0000
# 2 15.7818 55.4659 19.5920 0.0000 0.0000 0.0000
# 3 19.5920 19.5920 96.3255 0.0000 0.0000 0.0000
# 4 0.0000 0.0000 0.0000 22.6585 0.0000 0.0000
# 5 0.0000 0.0000 0.0000 0.0000 22.6585 0.0000
# 6 0.0000 0.0000 0.0000 0.0000 0.0000 19.8421
#
#
#
# Elastic Compliance Matrix: (Units=1/GPa)
#
#
# Indices 1 2 3 4 5 6 
#
# 1 0.020501 -0.004698 -0.003214 0.000000 0.000000 0.000000
# 2 -0.004698 0.020501 -0.003214 0.000000 0.000000 0.000000
# 3 -0.003214 -0.003214 0.011689 0.000000 0.000000 0.000000
# 4 0.000000 0.000000 0.000000 0.044133 0.000000 0.000000
# 5 0.000000 0.000000 0.000000 0.000000 0.044133 0.000000
# 6 0.000000 0.000000 0.000000 0.000000 0.000000 0.050398
#
#
# Mechanical properties :
#
#
# Convention : Reuss Voigt Hill
#
# Bulk Modulus (GPa) = 32.85320 35.24322 34.04821
# Shear Modulus (GPa) = 22.34585 23.18460 22.76522
#
# Velocity S-wave (km/s) = 3.24551 3.30585 3.27582
# Velocity P-wave (km/s) = 5.43421 5.58430 5.50976
#
# Compressibility (1/GPa) = 0.03043844
#
# Stress axis : x y z
#
# Youngs Moduli (GPa) = 48.77775 48.77775 85.55045
#
# Poissons Ratio (x) = 0.22915 0.27499
# Poissons Ratio (y) = 0.22915 0.27499
# Poissons Ratio (z) = 0.15679 0.15679
#
# Static dielectric constant tensor:
#      x y z
#    x 1.790750 0.000000 0.000000 
#    y 0.000000 1.790750 0.000000 
#    z 0.000000 0.000000 1.751050 
# 
# From -- ./inp_files/958.got.cif
#   From: 2010.05.17/outbox.cif.g08.bks.cpg/sg176_1_cif.got.tgz:958.got - 2010.06.03 11:36:45.
