data_PCOD9581282
_publ_section_title
;
Structure prediction by ZEFSAII (Michael W. Deem and Ramdas Pophale) SiO2 
 PCOD9581282
Probable space group: P 6/M
;
_chemical_formula_sum "Si O2"
_cell_formula_units_Z 76
_cell_length_a 18.813126
_cell_length_b 18.813126
_cell_length_c 13.520604
_cell_angle_alpha 90.000000
_cell_angle_beta 90.000000
_cell_angle_gamma 120.000000
_cell_volume 4144.275831
_symmetry_space_group_name_H-M "P 6/M"
_symmetry_group_IT_number 175
_symmetry_cell_setting 'hexagonal'
loop_
_space_group_symop_operation_xyz
x,y,z
x-y,x,z
-y,x-y,z
-x,-y,z
-x+y,-x,z
y,-x+y,z
-x,-y,-z
-x+y,-x,-z
y,-x+y,-z
x,y,-z
x-y,x,-z
-y,x-y,-z
loop_
_atom_site_type_symbol
_atom_site_label
_atom_site_fract_x
_atom_site_fract_y
_atom_site_fract_z
Si Si1 0.666668 0.333335 0.376917
Si Si2 0.207508 0.370648 0.884392
Si Si3 0.037086 0.595242 0.619172
Si Si4 0.176623 0.136347 0.310338
Si Si5 0.727780 0.516190 0.297667
Si Si6 0.019766 0.239688 0.884274
Si Si7 0.904504 0.642807 0.617422
O O1 0.666667 0.333334 0.500000
O O2 0.705403 0.425329 0.332263
O O3 0.252227 0.450704 0.815420
O O4 0.107626 0.324477 0.873137
O O5 0.235436 0.302562 0.859081
O O6 0.226010 0.390187 0.000000
O O7 0.046244 0.605083 0.500000
O O8 0.124828 0.653663 0.666243
O O9 0.000000 0.500000 0.641753
O O10 0.970359 0.618754 0.654711
O O11 0.108515 0.156618 0.345116
O O12 0.180750 0.149799 0.191698
O O13 0.266471 0.200208 0.346833
O O14 0.812596 0.580205 0.350290
O O15 0.013679 0.216721 0.000000
O O16 0.906948 0.641616 0.500000
#
# Coordination Sequence:
#
# PCOD9581282 Si02
#       7
#     4  12  12  12  12  12  12
#     4  12  27  45  67  98 127 162 201 249 316 380
#     4  10  21  37  63  94 127 166 212 262 313 367
#     4  10  21  37  59  89 121 154 197 255 313 371
#     4  12  23  36  51  79 117 162 209 255 307 361
#     4  12  23  41  66  91 126 162 201 252 314 379
#     4  10  18  33  58  89 122 158 206 259 306 358
#     4  11  22  37  60  85 112 153 206 257 311 375
#
# _framework density 18.338547999999999
#
# number of rings (size 3 to 8) (size 9 to 14) (size 15 to 20)
#    0.000    1.105    3.158    4.421    0.000    3.158 
#    0.000    0.789    0.000    2.368    0.000    0.000 
#    0.000    0.000    0.000    0.000    0.000    0.000 
#
# Total GULP energy -424062.759812 kJ/mol
# GULP energy per Si atom -5579.773155 kJ/mol
# Density = 1.829681 g / cm^3
# Si number density = 18.338548 Si / 1000 Ang^3
#
#
#
# Elastic Constant Matrix: (Units=GPa)
#
#
# Indices 1 2 3 4 5 6 
#
# 1 146.1595 52.5901 39.9993 0.0000 0.0000 0.0002
# 2 52.5901 146.1631 40.0002 0.0000 0.0000 0.0002
# 3 39.9993 40.0002 61.9046 0.0000 0.0000 0.0004
# 4 0.0000 0.0000 0.0000 25.4684 0.0000 0.0000
# 5 0.0000 0.0000 0.0000 0.0000 25.4682 0.0000
# 6 0.0002 0.0002 0.0004 0.0000 0.0000 46.7850
#
#
#
# Elastic Compliance Matrix: (Units=1/GPa)
#
#
# Indices 1 2 3 4 5 6 
#
# 1 0.008744 -0.001944 -0.004394 0.000000 0.000000 0.000000
# 2 -0.001944 0.008743 -0.004394 0.000000 0.000000 0.000000
# 3 -0.004394 -0.004394 0.021832 0.000000 0.000000 0.000000
# 4 0.000000 0.000000 0.000000 0.039264 0.000000 0.000000
# 5 0.000000 0.000000 0.000000 0.000000 0.039265 0.000000
# 6 0.000000 0.000000 0.000000 0.000000 0.000000 0.021374
#
#
# Mechanical properties :
#
#
# Convention : Reuss Voigt Hill
#
# Bulk Modulus (GPa) = 56.00131 68.82291 62.41211
# Shear Modulus (GPa) = 30.00535 34.32016 32.16276
#
# Velocity S-wave (km/s) = 4.04937 4.33075 4.19242
# Velocity P-wave (km/s) = 7.24341 7.91314 7.58567
#
# Compressibility (1/GPa) = 0.01785673
#
# Stress axis : x y z
#
# Youngs Moduli (GPa) = 114.36940 114.37181 45.80426
#
# Poissons Ratio (x) = 0.22229 0.20125
# Poissons Ratio (y) = 0.22228 0.20126
# Poissons Ratio (z) = 0.50252 0.50253
#
# Static dielectric constant tensor:
#      x y z
#    x 1.624360 0.000000 0.000000 
#    y 0.000000 1.624350 0.000000 
#    z 0.000000 0.000000 1.667080 
# 
# From -- ./inp_files/2554.got.cif
#   From: 2010.05.17/outbox.cif.g08.bks.cpg/sg175_2_cif.got.tgz:2554.got - 2010.05.20 11:23:22.
