data_PCOD9581741
_publ_section_title
;
Structure prediction by ZEFSAII (Michael W. Deem and Ramdas Pophale) SiO2 
 PCOD9581741
Probable space group: P 63/M
;
_chemical_formula_sum "Si O2"
_cell_formula_units_Z 64
_cell_length_a 16.393809
_cell_length_b 16.393809
_cell_length_c 18.539837
_cell_angle_alpha 90.000000
_cell_angle_beta 90.000000
_cell_angle_gamma 120.000000
_cell_volume 4315.153857
_symmetry_space_group_name_H-M "P 63/M"
_symmetry_group_IT_number 176
_symmetry_cell_setting 'hexagonal'
loop_
_space_group_symop_operation_xyz
x,y,z
x-y,x,1/2+z
-y,x-y,z
-x,-y,1/2+z
-x+y,-x,z
y,-x+y,1/2+z
-x,-y,-z
-x+y,-x,1/2-z
y,-x+y,-z
x,y,1/2-z
x-y,x,-z
-y,x-y,1/2-z
loop_
_atom_site_type_symbol
_atom_site_label
_atom_site_fract_x
_atom_site_fract_y
_atom_site_fract_z
Si Si1 0.248123 0.457909 0.895024
Si Si2 0.055420 0.420817 0.926905
Si Si3 0.487757 0.351817 0.587423
Si Si4 0.474105 0.162999 0.561132
Si Si5 0.333333 0.666667 0.836372
Si Si6 0.532099 0.953061 0.667918
O O1 0.134808 0.399606 0.895716
O O2 0.276915 0.561367 0.866352
O O3 0.311330 0.428686 0.848334
O O4 0.285665 0.467020 0.976540
O O5 0.067142 0.513559 0.886154
O O6 0.945356 0.343475 0.920735
O O7 0.082007 0.444674 0.011250
O O8 0.464769 0.245870 0.598466
O O9 0.599098 0.424259 0.578552
O O10 0.448295 0.389276 0.649950
O O11 0.333334 0.666668 0.750000
O O12 0.498714 0.940927 0.750000
#
# Coordination Sequence:
#
# PCOD9581741 Si02
#       6
#    12  12  12  12   4  12
#     4  11  18  29  45  68  96 126 157 194 235 286
#     4  10  19  31  48  69  95 126 163 195 236 284
#     4  10  18  32  49  69  93 128 169 195 234 276
#     4  10  17  31  49  67  90 124 166 203 224 273
#     4  12  21  27  39  66 102 135 154 182 247 306
#     4  11  20  31  45  68 100 128 157 198 243 287
#
# _framework density 14.831452000000001
#
# number of rings (size 3 to 8) (size 9 to 14) (size 15 to 20)
#    0.000    1.500    5.625    3.188    0.000    0.750 
#    0.000    3.750    0.000    0.000    0.000    0.000 
#    1.875    3.375    0.000    0.000    0.000    0.000 
#
# Total GULP energy -356710.956326 kJ/mol
# GULP energy per Si atom -5573.608693 kJ/mol
# Density = 1.479770 g / cm^3
# Si number density = 14.831452 Si / 1000 Ang^3
#
#
#
# Elastic Constant Matrix: (Units=GPa)
#
#
# Indices 1 2 3 4 5 6 
#
# 1 116.3376 20.1728 10.3410 0.0000 0.0000 -0.0160
# 2 20.1728 116.3383 10.3388 0.0000 0.0000 0.0150
# 3 10.3410 10.3388 30.4962 0.0000 0.0000 0.0003
# 4 0.0000 0.0000 0.0000 4.3368 -0.0001 0.0000
# 5 0.0000 0.0000 0.0000 -0.0001 4.3365 0.0000
# 6 -0.0160 0.0150 0.0003 0.0000 0.0000 48.1017
#
#
#
# Elastic Compliance Matrix: (Units=1/GPa)
#
#
# Indices 1 2 3 4 5 6 
#
# 1 0.009061 -0.001338 -0.002619 0.000000 0.000000 0.000003
# 2 -0.001338 0.009060 -0.002618 0.000000 0.000000 -0.000003
# 3 -0.002619 -0.002618 0.034566 0.000000 0.000000 0.000000
# 4 0.000000 0.000000 0.000000 0.230583 0.000003 0.000000
# 5 0.000000 0.000000 0.000000 0.000003 0.230601 0.000000
# 6 0.000003 -0.000003 0.000000 0.000000 0.000000 0.020789
#
#
# Mechanical properties :
#
#
# Convention : Reuss Voigt Hill
#
# Bulk Modulus (GPa) = 25.29233 38.31971 31.80602
# Shear Modulus (GPa) = 8.91282 26.17630 17.54456
#
# Velocity S-wave (km/s) = 2.45407 4.20565 3.44311
# Velocity P-wave (km/s) = 5.01200 7.03393 6.10722
#
# Compressibility (1/GPa) = 0.03953767
#
# Stress axis : x y z
#
# Youngs Moduli (GPa) = 110.36911 110.37129 28.92985
#
# Poissons Ratio (x) = 0.14772 0.07576
# Poissons Ratio (y) = 0.14771 0.07573
# Poissons Ratio (z) = 0.28901 0.28893
#
# Static dielectric constant tensor:
#      x y z
#    x 1.502900 0.000000 0.000000 
#    y 0.000000 1.502900 0.000000 
#    z 0.000000 0.000000 1.498640 
# 
# From -- ./inp_files/3319.got.cif
#   From: 2010.05.17/outbox.cif.g08.bks.cpg/sg176_2_cif.got.tgz:3319.got - 2010.06.03 11:36:45.
