data_PCOD9581551
_publ_section_title
;
Structure prediction by ZEFSAII (Michael W. Deem and Ramdas Pophale) SiO2 
 PCOD9581551
Probable space group: P 6/M
;
_chemical_formula_sum "Si O2"
_cell_formula_units_Z 60
_cell_length_a 11.203166
_cell_length_b 11.203166
_cell_length_c 26.369042
_cell_angle_alpha 90.000000
_cell_angle_beta 90.000000
_cell_angle_gamma 120.000000
_cell_volume 2866.200225
_symmetry_space_group_name_H-M "P 6/M"
_symmetry_group_IT_number 175
_symmetry_cell_setting 'hexagonal'
loop_
_space_group_symop_operation_xyz
x,y,z
x-y,x,z
-y,x-y,z
-x,-y,z
-x+y,-x,z
y,-x+y,z
-x,-y,-z
-x+y,-x,-z
y,-x+y,-z
x,y,-z
x-y,x,-z
-y,x-y,-z
loop_
_atom_site_type_symbol
_atom_site_label
_atom_site_fract_x
_atom_site_fract_y
_atom_site_fract_z
Si Si1 0.487259 0.826685 0.556417
Si Si2 0.754032 0.688459 0.058401
Si Si3 0.250908 0.308803 0.354326
Si Si4 0.486170 0.826259 0.851367
Si Si5 0.750366 0.688862 0.760831
O O1 0.329126 0.792147 0.559535
O O2 0.541177 0.881193 0.500000
O O3 0.579864 0.912404 0.602615
O O4 0.733972 0.819616 0.065859
O O5 0.668280 0.568825 0.098352
O O6 0.717254 0.642020 0.000000
O O7 0.266370 0.175026 0.359625
O O8 0.293129 0.363093 0.296836
O O9 0.329164 0.792743 0.850869
O O10 0.572586 0.904688 0.802274
O O11 0.733002 0.822109 0.767031
#
# Coordination Sequence:
#
# PCOD9581551 Si02
#       5
#    12  12  12  12  12
#     4   8  18  37  56  78 108 143 187 231 268 312
#     4  10  21  38  62  89 114 143 184 234 279 319
#     4  10  21  36  56  83 113 143 177 222 279 338
#     4  10  24  40  54  80 118 152 184 223 270 328
#     4  10  21  38  60  83 108 142 184 231 278 325
#
# _framework density 20.933637999999998
#
# number of rings (size 3 to 8) (size 9 to 14) (size 15 to 20)
#    0.800    1.600    0.000    1.800    0.000    9.600 
#    0.000   10.000    0.000    1.200    0.000    0.000 
#    0.000    0.000    0.000    0.000    0.000    0.000 
#
# Total GULP energy -335139.533292 kJ/mol
# GULP energy per Si atom -5585.658888 kJ/mol
# Density = 2.088599 g / cm^3
# Si number density = 20.933638 Si / 1000 Ang^3
#
#
#
# Elastic Constant Matrix: (Units=GPa)
#
#
# Indices 1 2 3 4 5 6 
#
# 1 81.7362 12.9099 57.7657 0.0000 0.0000 0.0000
# 2 12.9099 81.7362 57.7657 0.0000 0.0000 0.0000
# 3 57.7657 57.7657 130.0336 0.0000 0.0000 0.0000
# 4 0.0000 0.0000 0.0000 -21.1282 0.0000 0.0000
# 5 0.0000 0.0000 0.0000 0.0000 -21.1282 0.0000
# 6 0.0000 0.0000 0.0000 0.0000 0.0000 34.4131
#
#
#
# Elastic Compliance Matrix: (Units=1/GPa)
#
#
# Indices 1 2 3 4 5 6 
#
# 1 0.018806 0.004277 -0.010254 0.000000 0.000000 0.000000
# 2 0.004277 0.018806 -0.010254 0.000000 0.000000 0.000000
# 3 -0.010254 -0.010254 0.016801 0.000000 0.000000 0.000000
# 4 0.000000 0.000000 0.000000 -0.047330 0.000000 0.000000
# 5 0.000000 0.000000 0.000000 0.000000 -0.047330 0.000000
# 6 0.000000 0.000000 0.000000 0.000000 0.000000 0.029059
#
#
# Mechanical properties :
#
#
# Convention : Reuss Voigt Hill
#
# Bulk Modulus (GPa) = 45.55921 61.15431 53.35676
# Shear Modulus (GPa) = 174.87866 9.43563 92.15714
#
# Velocity S-wave (km/s) = 9.14991 2.12537 6.64222
# Velocity P-wave (km/s) = 11.55157 5.94136 9.18527
#
# Compressibility (1/GPa) = 0.02194946
#
# Stress axis : x y z
#
# Youngs Moduli (GPa) = 53.17464 53.17464 59.52079
#
# Poissons Ratio (x) = -0.22741 0.61033
# Poissons Ratio (y) = -0.22741 0.61033
# Poissons Ratio (z) = 0.54526 0.54526
#
# Static dielectric constant tensor:
#      x y z
#    x 1.746980 0.000000 0.000000 
#    y 0.000000 1.746980 0.000000 
#    z 0.000000 0.000000 1.723910 
# 
# From -- ./inp_files/3291.got.cif
#   From: 2010.05.17/outbox.cif.g08.bks.cpg/sg175_2_cif.got.tgz:3291.got - 2010.05.20 11:23:22.
