data_PCOD9581063
_publ_section_title
;
Structure prediction by ZEFSAII (Michael W. Deem and Ramdas Pophale) SiO2 
 PCOD9581063
Probable space group: P 63
;
_chemical_formula_sum "Si O2"
_cell_formula_units_Z 28
_cell_length_a 11.491993
_cell_length_b 11.491993
_cell_length_c 12.767536
_cell_angle_alpha 90.000000
_cell_angle_beta 90.000000
_cell_angle_gamma 120.000000
_cell_volume 1460.254080
_symmetry_space_group_name_H-M "P 63"
_symmetry_group_IT_number 173
_symmetry_cell_setting 'hexagonal'
loop_
_space_group_symop_operation_xyz
x,y,z
x-y,x,1/2+z
-y,x-y,z
-x,-y,1/2+z
-x+y,-x,z
y,-x+y,1/2+z
loop_
_atom_site_type_symbol
_atom_site_label
_atom_site_fract_x
_atom_site_fract_y
_atom_site_fract_z
Si Si1 0.011657 0.739587 0.115380
Si Si2 0.037226 0.507306 0.499021
Si Si3 0.309641 0.915408 0.840665
Si Si4 0.333334 0.666668 0.544168
Si Si5 0.333334 0.666666 0.795680
Si Si6 0.253062 0.255851 0.549952
O O1 0.042347 0.640599 0.045679
O O2 0.965494 0.672146 0.228771
O O3 0.886408 0.747590 0.066009
O O4 0.142064 0.885635 0.119128
O O5 0.192238 0.549549 0.503204
O O6 0.024553 0.619262 0.569067
O O7 0.993947 0.531855 0.385791
O O8 0.276997 0.762586 0.833462
O O9 0.230391 0.947647 0.929997
O O10 0.333334 0.666667 0.669611
#
# Coordination Sequence:
#
# PCOD9581063 Si02
#       6
#     6   6   6   2   2   6
#     4  12  22  47  66  95 144 172 223 278 342 402
#     4  10  21  42  63  97 127 170 231 274 324 407
#     4  10  24  38  66 102 121 186 214 278 343 390
#     4  12  18  42  69  88 131 178 222 273 336 409
#     4  12  18  39  69  91 134 175 228 267 351 403
#     4  10  25  40  65  99 131 177 220 276 328 415
#
# _framework density 19.174745999999999
#
# number of rings (size 3 to 8) (size 9 to 14) (size 15 to 20)
#    1.286    0.000    4.286    1.714    0.000    1.714 
#    9.000    0.000    0.000    0.000    0.000    0.000 
#    0.000    0.000    0.000    0.000    0.000    0.000 
#
# Total GULP energy -156018.529103 kJ/mol
# GULP energy per Si atom -5572.090325 kJ/mol
# Density = 1.913110 g / cm^3
# Si number density = 19.174746 Si / 1000 Ang^3
#
#
#
# Elastic Constant Matrix: (Units=GPa)
#
#
# Indices 1 2 3 4 5 6 
#
# 1 74.7625 21.6461 21.2574 0.0000 0.0000 -0.0006
# 2 21.6461 74.7599 21.2569 0.0000 0.0000 -0.0006
# 3 21.2574 21.2569 98.5512 0.0000 0.0000 0.0003
# 4 0.0000 0.0000 0.0000 24.4378 -0.0002 0.0000
# 5 0.0000 0.0000 0.0000 -0.0002 24.4371 0.0000
# 6 -0.0006 -0.0006 0.0003 0.0000 0.0000 26.5576
#
#
#
# Elastic Compliance Matrix: (Units=1/GPa)
#
#
# Indices 1 2 3 4 5 6 
#
# 1 0.015145 -0.003682 -0.002473 0.000000 0.000000 0.000000
# 2 -0.003682 0.015145 -0.002473 0.000000 0.000000 0.000000
# 3 -0.002473 -0.002473 0.011214 0.000000 0.000000 0.000000
# 4 0.000000 0.000000 0.000000 0.040920 0.000000 0.000000
# 5 0.000000 0.000000 0.000000 0.000000 0.040921 0.000000
# 6 0.000000 0.000000 0.000000 0.000000 0.000000 0.037654
#
#
# Mechanical properties :
#
#
# Convention : Reuss Voigt Hill
#
# Bulk Modulus (GPa) = 41.23790 41.82160 41.52975
# Shear Modulus (GPa) = 26.83316 27.34739 27.09028
#
# Velocity S-wave (km/s) = 3.74492 3.78063 3.76281
# Velocity P-wave (km/s) = 6.34447 6.39653 6.37055
#
# Compressibility (1/GPa) = 0.02424954
#
# Stress axis : x y z
#
# Youngs Moduli (GPa) = 66.02940 66.02710 89.17712
#
# Poissons Ratio (x) = 0.24311 0.22049
# Poissons Ratio (y) = 0.24312 0.22049
# Poissons Ratio (z) = 0.16326 0.16325
#
# Static dielectric constant tensor:
#      x y z
#    x 1.663970 0.000000 0.000000 
#    y 0.000000 1.663970 0.000000 
#    z 0.000000 0.000000 1.655390 
# 
# From -- ./inp_files/990.got.cif
#   From: 2010.05.17/outbox.cif.g08.bks.cpg/sg173_cif.got.tgz:990.got - 2010.05.20 11:21:53.
