data_PCOD9581697
_publ_section_title
;
Structure prediction by ZEFSAII (Michael W. Deem and Ramdas Pophale) SiO2 
 PCOD9581697
Probable space group: P 6/M
;
_chemical_formula_sum "Si O2"
_cell_formula_units_Z 42
_cell_length_a 16.727581
_cell_length_b 16.727581
_cell_length_c 7.997052
_cell_angle_alpha 90.000000
_cell_angle_beta 90.000000
_cell_angle_gamma 120.000000
_cell_volume 1937.879796
_symmetry_space_group_name_H-M "P 6/M"
_symmetry_group_IT_number 175
_symmetry_cell_setting 'hexagonal'
loop_
_space_group_symop_operation_xyz
x,y,z
x-y,x,z
-y,x-y,z
-x,-y,z
-x+y,-x,z
y,-x+y,z
-x,-y,-z
-x+y,-x,-z
y,-x+y,-z
x,y,-z
x-y,x,-z
-y,x-y,-z
loop_
_atom_site_type_symbol
_atom_site_label
_atom_site_fract_x
_atom_site_fract_y
_atom_site_fract_z
Si Si1 0.480149 0.296267 0.696453
Si Si2 0.828884 0.794937 0.000000
Si Si3 0.498528 0.869013 0.808778
Si Si4 0.298911 0.301989 0.689444
O O1 0.492012 0.284663 0.500000
O O2 0.547161 0.402006 0.745466
O O3 0.504409 0.228596 0.795662
O O4 0.375040 0.271658 0.722949
O O5 0.933949 0.819877 0.000000
O O6 0.776872 0.737684 0.834099
O O7 0.587017 0.939897 0.703226
O O8 0.513496 0.901210 0.000000
O O9 0.262828 0.275147 0.500000
#
# Coordination Sequence:
#
# PCOD9581697 Si02
#       4
#    12   6  12  12
#     4  11  24  41  63  93 137 184 229 278 335 395
#     4  12  27  48  75 104 136 170 214 272 337 404
#     4  12  24  39  64  97 136 180 230 281 335 393
#     4  11  25  45  71 100 133 178 227 276 332 398
#
# _framework density 21.673169000000001
#
# number of rings (size 3 to 8) (size 9 to 14) (size 15 to 20)
#    0.000    0.571    1.429    6.714    4.000    6.857 
#    0.000    0.000    0.000    1.714    0.000    0.000 
#    0.000    0.000    0.000    0.000    0.000    0.000 
#
# Total GULP energy -235338.622074 kJ/mol
# GULP energy per Si atom -5603.300526 kJ/mol
# Density = 2.162384 g / cm^3
# Si number density = 21.673169 Si / 1000 Ang^3
#
#
#
# Elastic Constant Matrix: (Units=GPa)
#
#
# Indices 1 2 3 4 5 6 
#
# 1 71.8428 22.7357 29.4420 0.0000 0.0000 0.0000
# 2 22.7357 71.8428 29.4420 0.0000 0.0000 0.0000
# 3 29.4420 29.4420 97.4363 0.0000 0.0000 0.0000
# 4 0.0000 0.0000 0.0000 14.4351 0.0000 0.0000
# 5 0.0000 0.0000 0.0000 0.0000 14.4351 0.0000
# 6 0.0000 0.0000 0.0000 0.0000 0.0000 24.5535
#
#
#
# Elastic Compliance Matrix: (Units=1/GPa)
#
#
# Indices 1 2 3 4 5 6 
#
# 1 0.016693 -0.003670 -0.003935 0.000000 0.000000 0.000000
# 2 -0.003670 0.016693 -0.003935 0.000000 0.000000 0.000000
# 3 -0.003935 -0.003935 0.012641 0.000000 0.000000 0.000000
# 4 0.000000 0.000000 0.000000 0.069275 0.000000 0.000000
# 5 0.000000 0.000000 0.000000 0.000000 0.069275 0.000000
# 6 0.000000 0.000000 0.000000 0.000000 0.000000 0.040727
#
#
# Mechanical properties :
#
#
# Convention : Reuss Voigt Hill
#
# Bulk Modulus (GPa) = 43.57864 44.92903 44.25384
# Shear Modulus (GPa) = 19.52846 21.31824 20.42335
#
# Velocity S-wave (km/s) = 3.00499 3.13968 3.07308
# Velocity P-wave (km/s) = 5.67370 5.82398 5.74933
#
# Compressibility (1/GPa) = 0.02294702
#
# Stress axis : x y z
#
# Youngs Moduli (GPa) = 59.90367 59.90367 79.10595
#
# Poissons Ratio (x) = 0.21986 0.31130
# Poissons Ratio (y) = 0.21986 0.31130
# Poissons Ratio (z) = 0.23573 0.23573
#
# Static dielectric constant tensor:
#      x y z
#    x 1.767860 0.000000 0.000000 
#    y 0.000000 1.767860 0.000000 
#    z 0.000000 0.000000 1.758800 
# 
# From -- ./inp_files/428.got.cif
#   From: 2010.05.17/outbox.cif.g08.bks.cpg/sg175_1_cif.got.tgz:428.got - 2010.05.20 11:23:22.
