data_PCOD9581384
_publ_section_title
;
Structure prediction by ZEFSAII (Michael W. Deem and Ramdas Pophale) SiO2 
 PCOD9581384
Probable space group: P 6/M
;
_chemical_formula_sum "Si O2"
_cell_formula_units_Z 52
_cell_length_a 12.566512
_cell_length_b 12.566512
_cell_length_c 19.407507
_cell_angle_alpha 90.000000
_cell_angle_beta 90.000000
_cell_angle_gamma 120.000000
_cell_volume 2654.177014
_symmetry_space_group_name_H-M "P 6/M"
_symmetry_group_IT_number 175
_symmetry_cell_setting 'hexagonal'
loop_
_space_group_symop_operation_xyz
x,y,z
x-y,x,z
-y,x-y,z
-x,-y,z
-x+y,-x,z
y,-x+y,z
-x,-y,-z
-x+y,-x,-z
y,-x+y,-z
x,y,-z
x-y,x,-z
-y,x-y,-z
loop_
_atom_site_type_symbol
_atom_site_label
_atom_site_fract_x
_atom_site_fract_y
_atom_site_fract_z
Si Si1 0.666668 0.333335 0.914993
Si Si2 0.250329 0.238466 0.917969
Si Si3 0.817922 0.705197 0.727309
Si Si4 0.709171 0.887677 0.426267
Si Si5 0.906489 0.372234 0.165802
O O1 0.564752 0.203244 0.881825
O O2 0.666667 0.333334 0.000000
O O3 0.239202 0.111541 0.897259
O O4 0.358765 0.357662 0.884738
O O5 0.260817 0.245776 0.000000
O O6 0.771206 0.804970 0.735773
O O7 0.785522 0.650820 0.649413
O O8 0.739956 0.595963 0.780557
O O9 0.778010 0.809326 0.426712
O O10 0.639717 0.860974 0.500000
O O11 0.000000 0.500000 0.202860
#
# Coordination Sequence:
#
# PCOD9581384 Si02
#       5
#     4  12  12  12  12
#     4  12  27  45  63  81 103 137 181 228 279 330
#     4  10  20  35  56  81 107 133 163 205 261 326
#     4  10  19  33  55  84 117 149 181 219 266 320
#     4   8  13  22  41  73 112 149 180 211 252 306
#     4  12  25  40  57  78 104 137 180 227 275 325
#
# _framework density 19.591761000000002
#
# number of rings (size 3 to 8) (size 9 to 14) (size 15 to 20)
#    0.000    1.846    0.000    5.538    0.000    7.385 
#    0.000    2.308    0.000    0.692    0.000    1.615 
#    0.000    0.000    0.000    0.000    0.000    0.000 
#
# Total GULP energy -289782.825053 kJ/mol
# GULP energy per Si atom -5572.746636 kJ/mol
# Density = 1.954717 g / cm^3
# Si number density = 19.591761 Si / 1000 Ang^3
#
#
#
# Elastic Constant Matrix: (Units=GPa)
#
#
# Indices 1 2 3 4 5 6 
#
# 1 48.8089 11.6780 31.0139 0.0000 0.0000 0.0001
# 2 11.6780 48.8079 31.0130 0.0000 0.0000 -0.0003
# 3 31.0139 31.0130 134.4119 0.0000 0.0000 0.0003
# 4 0.0000 0.0000 0.0000 15.0963 0.0001 0.0000
# 5 0.0000 0.0000 0.0000 0.0001 15.0967 0.0000
# 6 0.0001 -0.0003 0.0003 0.0000 0.0000 18.5648
#
#
#
# Elastic Compliance Matrix: (Units=1/GPa)
#
#
# Indices 1 2 3 4 5 6 
#
# 1 0.024294 -0.002638 -0.004997 0.000000 0.000000 0.000000
# 2 -0.002638 0.024295 -0.004997 0.000000 0.000000 0.000000
# 3 -0.004997 -0.004997 0.009746 0.000000 0.000000 0.000000
# 4 0.000000 0.000000 0.000000 0.066241 0.000000 0.000000
# 5 0.000000 0.000000 0.000000 0.000000 0.066240 0.000000
# 6 0.000000 0.000000 0.000000 0.000000 0.000000 0.053865
#
#
# Mechanical properties :
#
#
# Convention : Reuss Voigt Hill
#
# Bulk Modulus (GPa) = 30.23742 42.15985 36.19864
# Shear Modulus (GPa) = 17.79558 20.30646 19.05102
#
# Velocity S-wave (km/s) = 3.01710 3.22293 3.12172
# Velocity P-wave (km/s) = 5.25400 5.95110 5.61338
#
# Compressibility (1/GPa) = 0.03307160
#
# Stress axis : x y z
#
# Youngs Moduli (GPa) = 41.16180 41.16122 102.60849
#
# Poissons Ratio (x) = 0.10857 0.51274
# Poissons Ratio (y) = 0.10857 0.51273
# Poissons Ratio (z) = 0.20569 0.20568
#
# Static dielectric constant tensor:
#      x y z
#    x 1.694450 0.000000 0.000000 
#    y 0.000000 1.694460 0.000000 
#    z 0.000000 0.000000 1.770280 
# 
# From -- ./inp_files/3052.got.cif
#   From: 2010.05.17/outbox.cif.g08.bks.cpg/sg175_2_cif.got.tgz:3052.got - 2010.05.20 11:23:22.
