data_PCOD9581172
_publ_section_title
;
Structure prediction by ZEFSAII (Michael W. Deem and Ramdas Pophale) SiO2 
 PCOD9581172
Probable space group: P -6
;
_chemical_formula_sum "Si O2"
_cell_formula_units_Z 32
_cell_length_a 14.325116
_cell_length_b 14.325116
_cell_length_c 9.396575
_cell_angle_alpha 90.000000
_cell_angle_beta 90.000000
_cell_angle_gamma 120.000000
_cell_volume 1669.923249
_symmetry_space_group_name_H-M "P -6"
_symmetry_group_IT_number 174
_symmetry_cell_setting 'hexagonal'
loop_
_space_group_symop_operation_xyz
x,y,z
-x+y,-x,-z
-y,x-y,z
x,y,-z
-x+y,-x,z
-y,x-y,-z
loop_
_atom_site_type_symbol
_atom_site_label
_atom_site_fract_x
_atom_site_fract_y
_atom_site_fract_z
Si Si1 0.173557 0.245481 0.165119
Si Si2 0.409374 0.805709 0.168247
Si Si3 0.453524 0.228955 0.667268
Si Si4 0.666668 0.333335 0.169546
Si Si5 0.023156 0.616923 0.666432
Si Si6 0.929001 0.173970 0.165892
O O1 0.265559 0.332681 0.264737
O O2 0.180248 0.136377 0.177560
O O3 0.054165 0.221172 0.196751
O O4 0.199028 0.281285 0.000000
O O5 0.281571 0.730732 0.198420
O O6 0.479284 0.913728 0.254826
O O7 0.420850 0.827638 0.000000
O O8 0.470329 0.217290 0.500000
O O9 0.552438 0.247505 0.763954
O O10 0.440371 0.334729 0.684315
O O11 0.345067 0.129042 0.728206
O O12 0.666667 0.333334 0.000000
O O13 0.046362 0.624243 0.500000
O O14 0.917666 0.198544 0.000000
#
# Coordination Sequence:
#
# PCOD9581172 Si02
#       6
#     6   6   6   2   6   6
#     4   9  17  30  52  78 112 147 183 228 272 318
#     4   8  17  34  54  76 103 136 172 214 263 314
#     4  10  22  40  59  80 112 147 183 233 290 338
#     4  12  25  44  67  87 103 140 196 246 292 341
#     4  10  20  34  54  81 110 144 180 218 272 333
#     4   9  17  32  54  84 114 150 192 231 275 330
#
# _framework density 19.162557
#
# number of rings (size 3 to 8) (size 9 to 14) (size 15 to 20)
#    0.375    2.250    0.000    2.062    0.000    5.250 
#    3.375    0.000    0.000    2.250    0.000    0.000 
#    0.000    0.000    0.000    0.000    0.000    0.000 
#
# Total GULP energy -178479.351103 kJ/mol
# GULP energy per Si atom -5577.479722 kJ/mol
# Density = 1.911894 g / cm^3
# Si number density = 19.162557 Si / 1000 Ang^3
#
#
#
# Elastic Constant Matrix: (Units=GPa)
#
#
# Indices 1 2 3 4 5 6 
#
# 1 37.1518 12.2765 35.6314 0.0000 0.0000 -0.0006
# 2 12.2765 37.1516 35.6310 0.0000 0.0000 -0.0004
# 3 35.6314 35.6310 90.2723 0.0000 0.0000 -0.0006
# 4 0.0000 0.0000 0.0000 18.8893 -0.0002 0.0000
# 5 0.0000 0.0000 0.0000 -0.0002 18.8900 0.0000
# 6 -0.0006 -0.0004 -0.0006 0.0000 0.0000 12.4374
#
#
#
# Elastic Compliance Matrix: (Units=1/GPa)
#
#
# Indices 1 2 3 4 5 6 
#
# 1 0.043574 0.003373 -0.018531 0.000000 0.000000 0.000001
# 2 0.003373 0.043574 -0.018531 0.000000 0.000000 0.000001
# 3 -0.018531 -0.018531 0.025706 0.000000 0.000000 0.000000
# 4 0.000000 0.000000 0.000000 0.052940 0.000001 0.000000
# 5 0.000000 0.000000 0.000000 0.000001 0.052938 0.000000
# 6 0.000001 0.000001 0.000000 0.000000 0.000000 0.080403
#
#
# Mechanical properties :
#
#
# Convention : Reuss Voigt Hill
#
# Bulk Modulus (GPa) = 21.98827 36.85039 29.41933
# Shear Modulus (GPa) = 13.10030 15.44577 14.27303
#
# Velocity S-wave (km/s) = 2.61749 2.84216 2.73214
# Velocity P-wave (km/s) = 4.54252 5.48112 5.03375
#
# Compressibility (1/GPa) = 0.04547880
#
# Stress axis : x y z
#
# Youngs Moduli (GPa) = 22.94932 22.94941 38.90143
#
# Poissons Ratio (x) = -0.07742 0.72087
# Poissons Ratio (y) = -0.07742 0.72086
# Poissons Ratio (z) = 0.42527 0.42526
#
# Static dielectric constant tensor:
#      x y z
#    x 1.682790 0.000000 0.000000 
#    y 0.000000 1.682790 0.000000 
#    z 0.000000 0.000000 1.630880 
# 
# From -- ./inp_files/360.got.cif
#   From: 2010.05.17/outbox.cif.g08.bks.cpg/sg174_cif.got.tgz:360.got - 2010.05.20 11:22:48.
