data_PCOD9581768
_publ_section_title
;
Structure prediction by ZEFSAII (Michael W. Deem and Ramdas Pophale) SiO2 
 PCOD9581768
Probable space group: P 63/M
;
_chemical_formula_sum "Si O2"
_cell_formula_units_Z 82
_cell_length_a 18.462101
_cell_length_b 18.462101
_cell_length_c 14.129202
_cell_angle_alpha 90.000000
_cell_angle_beta 90.000000
_cell_angle_gamma 120.000000
_cell_volume 4170.714970
_symmetry_space_group_name_H-M "P 63/M"
_symmetry_group_IT_number 176
_symmetry_cell_setting 'hexagonal'
loop_
_space_group_symop_operation_xyz
x,y,z
x-y,x,1/2+z
-y,x-y,z
-x,-y,1/2+z
-x+y,-x,z
y,-x+y,1/2+z
-x,-y,-z
-x+y,-x,1/2-z
y,-x+y,-z
x,y,1/2-z
x-y,x,-z
-y,x-y,1/2-z
loop_
_atom_site_type_symbol
_atom_site_label
_atom_site_fract_x
_atom_site_fract_y
_atom_site_fract_z
Si Si1 0.715463 0.576274 0.637768
Si Si2 0.190251 0.505237 0.453717
Si Si3 0.699982 0.734973 0.858397
Si Si4 0.621308 0.122106 0.142450
Si Si5 0.333334 0.666668 0.360766
Si Si6 0.949040 0.483656 0.637110
Si Si7 0.060374 0.172107 0.951255
Si Si8 0.108120 0.044104 0.250000
O O1 0.727146 0.564141 0.750000
O O2 0.773040 0.554320 0.573391
O O3 0.733050 0.670123 0.625430
O O4 0.616389 0.516279 0.616947
O O5 0.191950 0.529625 0.562881
O O6 0.248760 0.589160 0.396778
O O7 0.096087 0.474176 0.418010
O O8 0.724281 0.767808 0.750000
O O9 0.600022 0.679740 0.858894
O O10 0.736918 0.807684 0.936102
O O11 0.619689 0.149120 0.250000
O O12 0.528376 0.046874 0.116385
O O13 0.333334 0.666668 0.250000
O O14 0.942361 0.492101 0.750000
O O15 0.087534 0.154397 0.849158
O O16 0.111284 0.149386 0.026085
O O17 0.053085 0.090440 0.250000
#
# Coordination Sequence:
#
# PCOD9581768 Si02
#       8
#    12  12  12  12   4  12  12   6
#     4   9  18  32  51  80 112 135 171 222 280 336
#     4  12  20  32  58  87 113 143 180 230 282 334
#     4   9  20  37  55  74 106 147 183 224 271 323
#     4   9  21  39  54  75 108 156 198 218 255 333
#     4  12  24  36  58  98 121 138 171 228 304 338
#     4   9  17  33  56  80 109 141 179 227 276 332
#     4  12  21  32  53  78 103 136 179 228 278 328
#     4  10  18  34  48  72 104 130 166 216 278 328
#
# _framework density 19.660898
#
# number of rings (size 3 to 8) (size 9 to 14) (size 15 to 20)
#    0.146    1.756    3.659    3.659    2.049    0.000 
#    0.000    0.732    0.000    0.000    0.000    0.000 
#    0.000    0.000    0.000    0.000    0.000    0.000 
#
# Total GULP energy -457188.648902 kJ/mol
# GULP energy per Si atom -5575.471328 kJ/mol
# Density = 1.961615 g / cm^3
# Si number density = 19.660898 Si / 1000 Ang^3
#
#
#
# Elastic Constant Matrix: (Units=GPa)
#
#
# Indices 1 2 3 4 5 6 
#
# 1 58.4947 -42.6242 16.1731 0.0000 0.0000 0.0010
# 2 -42.6242 58.4921 16.1745 0.0000 0.0000 -0.0011
# 3 16.1731 16.1745 95.8145 0.0000 0.0000 -0.0016
# 4 0.0000 0.0000 0.0000 20.7205 0.0004 0.0000
# 5 0.0000 0.0000 0.0000 0.0004 20.7201 0.0000
# 6 0.0010 -0.0011 -0.0016 0.0000 0.0000 50.5794
#
#
#
# Elastic Compliance Matrix: (Units=1/GPa)
#
#
# Indices 1 2 3 4 5 6 
#
# 1 0.052980 0.043092 -0.016217 0.000000 0.000000 -0.000001
# 2 0.043092 0.052982 -0.016218 0.000000 0.000000 0.000000
# 3 -0.016217 -0.016218 0.015912 0.000000 0.000000 0.000000
# 4 0.000000 0.000000 0.000000 0.048261 -0.000001 0.000000
# 5 0.000000 0.000000 0.000000 -0.000001 0.048262 0.000000
# 6 -0.000001 0.000000 0.000000 0.000000 0.000000 0.019771
#
#
# Mechanical properties :
#
#
# Convention : Reuss Voigt Hill
#
# Bulk Modulus (GPa) = 6.98384 21.36089 14.17237
# Shear Modulus (GPa) = 18.89758 33.27585 26.08671
#
# Velocity S-wave (km/s) = 3.10365 4.11845 3.64652
# Velocity P-wave (km/s) = 4.05011 5.78824 4.99535
#
# Compressibility (1/GPa) = 0.14318763
#
# Stress axis : x y z
#
# Youngs Moduli (GPa) = 18.87521 18.87416 62.84604
#
# Poissons Ratio (x) = -0.81332 1.01918
# Poissons Ratio (y) = -0.81336 1.01922
# Poissons Ratio (z) = 0.30610 0.30609
#
# Static dielectric constant tensor:
#      x y z
#    x 1.723540 0.000000 0.000000 
#    y 0.000000 1.723540 0.000000 
#    z 0.000000 0.000000 1.713420 
# 
# From -- ./inp_files/2081.got.cif
#   From: 2010.05.17/outbox.cif.g08.bks.cpg/sg176_2_cif.got.tgz:2081.got - 2010.06.03 11:36:45.
