data_PCOD9581815
_publ_section_title
;
Structure prediction by ZEFSAII (Michael W. Deem and Ramdas Pophale) SiO2 
 PCOD9581815
Probable space group: P 63/M
;
_chemical_formula_sum "Si O2"
_cell_formula_units_Z 60
_cell_length_a 18.874096
_cell_length_b 18.874096
_cell_length_c 10.493399
_cell_angle_alpha 90.000000
_cell_angle_beta 90.000000
_cell_angle_gamma 120.000000
_cell_volume 3237.271604
_symmetry_space_group_name_H-M "P 63/M"
_symmetry_group_IT_number 176
_symmetry_cell_setting 'hexagonal'
loop_
_space_group_symop_operation_xyz
x,y,z
x-y,x,1/2+z
-y,x-y,z
-x,-y,1/2+z
-x+y,-x,z
y,-x+y,1/2+z
-x,-y,-z
-x+y,-x,1/2-z
y,-x+y,-z
x,y,1/2-z
x-y,x,-z
-y,x-y,1/2-z
loop_
_atom_site_type_symbol
_atom_site_label
_atom_site_fract_x
_atom_site_fract_y
_atom_site_fract_z
Si Si1 0.507166 0.814002 0.750000
Si Si2 0.299720 0.053761 0.892919
Si Si3 0.360426 0.851660 0.750000
Si Si4 0.525865 0.615730 0.029476
Si Si5 0.094409 0.631096 0.999752
Si Si6 0.681420 0.770135 0.103361
O O1 0.425325 0.820395 0.750000
O O2 0.497702 0.726391 0.750000
O O3 0.545823 0.855204 0.615662
O O4 0.267885 0.023705 0.750000
O O5 0.395508 0.080859 0.898828
O O6 0.296930 0.136728 0.917609
O O7 0.256719 0.984049 0.000689
O O8 0.371703 0.901977 0.877278
O O9 0.570219 0.564356 0.063316
O O10 0.428952 0.554901 0.052662
O O11 0.583566 0.705090 0.088040
O O12 0.702776 0.762599 0.250000
#
# Coordination Sequence:
#
# PCOD9581815 Si02
#       6
#     6  12   6  12  12  12
#     4  10  19  32  50  74 103 140 184 230 276 328
#     4  10  22  38  57  85 116 148 192 239 285 342
#     4  10  19  32  50  74 103 140 184 230 276 328
#     4   9  19  32  50  77 108 141 182 225 273 329
#     4   9  19  32  50  77 108 141 182 225 273 329
#     4  10  22  38  57  85 116 148 192 239 285 342
#
# _framework density 18.534126000000001
#
# number of rings (size 3 to 8) (size 9 to 14) (size 15 to 20)
#    0.000    2.400    0.000    1.400   11.200    1.600 
#    0.000    0.000    0.000    1.200    0.000    0.000 
#    0.000    0.000    0.000    0.000    0.000    0.000 
#
# Total GULP energy -334136.350254 kJ/mol
# GULP energy per Si atom -5568.939171 kJ/mol
# Density = 1.849194 g / cm^3
# Si number density = 18.534126 Si / 1000 Ang^3
#
#
#
# Elastic Constant Matrix: (Units=GPa)
#
#
# Indices 1 2 3 4 5 6 
#
# 1 47.6670 22.4150 49.6498 0.0000 0.0000 0.0000
# 2 22.4150 47.6670 49.6498 0.0000 0.0000 0.0000
# 3 49.6498 49.6498 118.8343 0.0000 0.0000 0.0000
# 4 0.0000 0.0000 0.0000 24.0779 0.0000 0.0000
# 5 0.0000 0.0000 0.0000 0.0000 24.0779 0.0000
# 6 0.0000 0.0000 0.0000 0.0000 0.0000 12.6260
#
#
#
# Elastic Compliance Matrix: (Units=1/GPa)
#
#
# Indices 1 2 3 4 5 6 
#
# 1 0.037287 -0.002314 -0.014612 0.000000 0.000000 0.000000
# 2 -0.002314 0.037287 -0.014612 0.000000 0.000000 0.000000
# 3 -0.014612 -0.014612 0.020625 0.000000 0.000000 0.000000
# 4 0.000000 0.000000 0.000000 0.041532 0.000000 0.000000
# 5 0.000000 0.000000 0.000000 0.000000 0.041532 0.000000
# 6 0.000000 0.000000 0.000000 0.000000 0.000000 0.079202
#
#
# Mechanical properties :
#
#
# Convention : Reuss Voigt Hill
#
# Bulk Modulus (GPa) = 31.13057 50.84417 40.98737
# Shear Modulus (GPa) = 15.09450 18.31993 16.70722
#
# Velocity S-wave (km/s) = 2.85689 3.14736 3.00564
# Velocity P-wave (km/s) = 5.26453 6.37967 5.84874
#
# Compressibility (1/GPa) = 0.03212277
#
# Stress axis : x y z
#
# Youngs Moduli (GPa) = 26.81928 26.81928 48.48533
#
# Poissons Ratio (x) = 0.06207 0.70845
# Poissons Ratio (y) = 0.06207 0.70845
# Poissons Ratio (z) = 0.39187 0.39187
#
# Static dielectric constant tensor:
#      x y z
#    x 1.659740 0.000000 0.000000 
#    y 0.000000 1.659740 0.000000 
#    z 0.000000 0.000000 1.820630 
# 
# From -- ./inp_files/919.got.cif
#   From: 2010.05.17/outbox.cif.g08.bks.cpg/sg176_1_cif.got.tgz:919.got - 2010.06.03 11:36:45.
