data_PCOD9581966
_publ_section_title
;
Structure prediction by ZEFSAII (Michael W. Deem and Ramdas Pophale) SiO2 
 PCOD9581966
Probable space group: P 63/M
;
_chemical_formula_sum "Si O2"
_cell_formula_units_Z 48
_cell_length_a 14.235012
_cell_length_b 14.235012
_cell_length_c 14.642514
_cell_angle_alpha 90.000000
_cell_angle_beta 90.000000
_cell_angle_gamma 120.000000
_cell_volume 2569.578885
_symmetry_space_group_name_H-M "P 63/M"
_symmetry_group_IT_number 176
_symmetry_cell_setting 'hexagonal'
loop_
_space_group_symop_operation_xyz
x,y,z
x-y,x,1/2+z
-y,x-y,z
-x,-y,1/2+z
-x+y,-x,z
y,-x+y,1/2+z
-x,-y,-z
-x+y,-x,1/2-z
y,-x+y,-z
x,y,1/2-z
x-y,x,-z
-y,x-y,1/2-z
loop_
_atom_site_type_symbol
_atom_site_label
_atom_site_fract_x
_atom_site_fract_y
_atom_site_fract_z
Si Si1 0.377559 0.469547 0.250000
Si Si2 0.777794 0.807769 0.148270
Si Si3 0.162268 0.317679 0.981291
Si Si4 0.706513 0.135073 0.750000
Si Si5 0.603813 0.596460 0.549287
O O1 0.458822 0.598314 0.250000
O O2 0.253511 0.442160 0.250000
O O3 0.399559 0.424468 0.157322
O O4 0.815287 0.856465 0.250000
O O5 0.767444 0.876243 0.065965
O O6 0.838246 0.748142 0.108188
O O7 0.621989 0.716577 0.966133
O O8 0.068178 0.349541 0.166403
O O9 0.286426 0.396022 0.009609
O O10 0.500000 0.500000 0.500000
#
# Coordination Sequence:
#
# PCOD9581966 Si02
#       5
#     6  12  12   6  12
#     4  12  21  37  64  92 128 172 224 254 342 378
#     4   9  19  37  61  85 125 160 209 267 317 378
#     4  10  20  40  61  90 123 172 211 260 326 380
#     4  10  21  37  58  94 130 172 208 282 312 392
#     4  11  24  40  64  96 129 170 219 267 325 396
#
# _framework density 18.680104
#
# number of rings (size 3 to 8) (size 9 to 14) (size 15 to 20)
#    0.750    1.000    2.500    3.250    1.750    0.000 
#    1.500    0.000    0.000   32.000    0.000    0.000 
#    0.000    0.000    0.000    0.000    0.000    0.000 
#
# Total GULP energy -267371.316931 kJ/mol
# GULP energy per Si atom -5570.235769 kJ/mol
# Density = 1.863759 g / cm^3
# Si number density = 18.680104 Si / 1000 Ang^3
#
#
#
# Elastic Constant Matrix: (Units=GPa)
#
#
# Indices 1 2 3 4 5 6 
#
# 1 115.4082 49.9283 48.7059 0.0000 0.0000 0.0000
# 2 49.9283 115.4082 48.7059 0.0000 0.0000 0.0000
# 3 48.7059 48.7059 149.9862 0.0000 0.0000 0.0000
# 4 0.0000 0.0000 0.0000 32.8584 0.0000 0.0000
# 5 0.0000 0.0000 0.0000 0.0000 32.8584 0.0000
# 6 0.0000 0.0000 0.0000 0.0000 0.0000 32.7399
#
#
#
# Elastic Compliance Matrix: (Units=1/GPa)
#
#
# Indices 1 2 3 4 5 6 
#
# 1 0.011376 -0.003896 -0.002429 0.000000 0.000000 0.000000
# 2 -0.003896 0.011376 -0.002429 0.000000 0.000000 0.000000
# 3 -0.002429 -0.002429 0.008245 0.000000 0.000000 0.000000
# 4 0.000000 0.000000 0.000000 0.030434 0.000000 0.000000
# 5 0.000000 0.000000 0.000000 0.000000 0.030434 0.000000
# 6 0.000000 0.000000 0.000000 0.000000 0.000000 0.030544
#
#
# Mechanical properties :
#
#
# Convention : Reuss Voigt Hill
#
# Bulk Modulus (GPa) = 74.13957 75.05365 74.59661
# Shear Modulus (GPa) = 34.62350 35.25550 34.93950
#
# Velocity S-wave (km/s) = 4.30990 4.34905 4.32952
# Velocity P-wave (km/s) = 8.03381 8.09226 8.06309
#
# Compressibility (1/GPa) = 0.01348807
#
# Stress axis : x y z
#
# Youngs Moduli (GPa) = 87.90776 87.90776 121.29000
#
# Poissons Ratio (x) = 0.34252 0.29459
# Poissons Ratio (y) = 0.34252 0.29459
# Poissons Ratio (z) = 0.21351 0.21351
#
# Static dielectric constant tensor:
#      x y z
#    x 1.637800 0.000000 0.000000 
#    y 0.000000 1.637800 0.000000 
#    z 0.000000 0.000000 1.727430 
# 
# From -- ./inp_files/1769.got.cif
#   From: 2010.05.17/outbox.cif.g08.bks.cpg/sg176_1_cif.got.tgz:1769.got - 2010.06.03 11:36:45.
