data_PCOD9581262
_publ_section_title
;
Structure prediction by ZEFSAII (Michael W. Deem and Ramdas Pophale) SiO2 
 PCOD9581262
Probable space group: P 6/M
;
_chemical_formula_sum "Si O2"
_cell_formula_units_Z 64
_cell_length_a 14.815074
_cell_length_b 14.815074
_cell_length_c 18.369358
_cell_angle_alpha 90.000000
_cell_angle_beta 90.000000
_cell_angle_gamma 120.000000
_cell_volume 3491.662511
_symmetry_space_group_name_H-M "P 6/M"
_symmetry_group_IT_number 175
_symmetry_cell_setting 'hexagonal'
loop_
_space_group_symop_operation_xyz
x,y,z
x-y,x,z
-y,x-y,z
-x,-y,z
-x+y,-x,z
y,-x+y,z
-x,-y,-z
-x+y,-x,-z
y,-x+y,-z
x,y,-z
x-y,x,-z
-y,x-y,-z
loop_
_atom_site_type_symbol
_atom_site_label
_atom_site_fract_x
_atom_site_fract_y
_atom_site_fract_z
Si Si1 0.239510 0.126689 0.617728
Si Si2 0.549378 0.681332 0.416377
Si Si3 0.860262 0.752652 0.079616
Si Si4 0.666668 0.333334 0.411727
Si Si5 0.176316 0.344711 0.764539
Si Si6 0.604354 0.005355 0.277177
O O1 0.175492 0.182871 0.594786
O O2 0.357320 0.198692 0.589688
O O3 0.250313 0.130351 0.706014
O O4 0.538513 0.647795 0.500000
O O5 0.440259 0.670065 0.389979
O O6 0.585266 0.619651 0.362855
O O7 0.816110 0.831292 0.082513
O O8 0.823248 0.684507 0.151998
O O9 0.829715 0.698683 0.000000
O O10 0.666667 0.333334 0.500000
O O11 0.295805 0.398516 0.738147
O O12 0.104179 0.397076 0.756993
O O13 0.500000 0.000000 0.250834
#
# Coordination Sequence:
#
# PCOD9581262 Si02
#       6
#    12  12  12   4  12  12
#     4  11  21  37  56  83 114 158 196 242 295 364
#     4  10  23  40  61  85 117 152 199 255 312 365
#     4  10  18  30  56  92 130 162 192 236 294 360
#     4   9  21  39  60  87 114 147 190 257 325 372
#     4  11  20  40  60  87 125 153 200 254 298 359
#     4  11  25  41  62  91 117 162 208 252 309 367
#
# _framework density 18.329376
#
# number of rings (size 3 to 8) (size 9 to 14) (size 15 to 20)
#    0.000    1.500    5.625    0.375    5.250    1.875 
#    1.125    1.875    0.000    3.375    0.000    0.000 
#    0.000    0.000    0.000    0.000    0.000    0.000 
#
# Total GULP energy -356924.094241 kJ/mol
# GULP energy per Si atom -5576.938973 kJ/mol
# Density = 1.828766 g / cm^3
# Si number density = 18.329376 Si / 1000 Ang^3
#
#
#
# Elastic Constant Matrix: (Units=GPa)
#
#
# Indices 1 2 3 4 5 6 
#
# 1 200.1615 -63.0490 15.3926 0.0000 0.0000 -0.0004
# 2 -63.0490 200.1590 15.3930 0.0000 0.0000 0.0050
# 3 15.3926 15.3930 106.3751 0.0000 0.0000 -0.0006
# 4 0.0000 0.0000 0.0000 9.6350 0.0001 0.0000
# 5 0.0000 0.0000 0.0000 0.0001 9.6351 0.0000
# 6 -0.0004 0.0050 -0.0006 0.0000 0.0000 131.6021
#
#
#
# Elastic Compliance Matrix: (Units=1/GPa)
#
#
# Indices 1 2 3 4 5 6 
#
# 1 0.005669 0.001870 -0.001091 0.000000 0.000000 0.000000
# 2 0.001870 0.005669 -0.001091 0.000000 0.000000 0.000000
# 3 -0.001091 -0.001091 0.009716 0.000000 0.000000 0.000000
# 4 0.000000 0.000000 0.000000 0.103789 -0.000002 0.000000
# 5 0.000000 0.000000 0.000000 -0.000002 0.103787 0.000000
# 6 0.000000 0.000000 0.000000 0.000000 0.000000 0.007599
#
#
# Mechanical properties :
#
#
# Convention : Reuss Voigt Hill
#
# Bulk Modulus (GPa) = 48.94839 49.12986 49.03912
# Shear Modulus (GPa) = 20.52019 66.10503 43.31261
#
# Velocity S-wave (km/s) = 3.34956 6.01194 4.86636
# Velocity P-wave (km/s) = 6.45928 8.66333 7.64119
#
# Compressibility (1/GPa) = 0.02042968
#
# Stress axis : x y z
#
# Youngs Moduli (GPa) = 176.40648 176.40413 102.91897
#
# Poissons Ratio (x) = -0.32979 0.11226
# Poissons Ratio (y) = -0.32979 0.11227
# Poissons Ratio (z) = 0.19242 0.19243
#
# Static dielectric constant tensor:
#      x y z
#    x 1.646900 0.000000 0.000000 
#    y 0.000000 1.646900 0.000000 
#    z 0.000000 0.000000 1.672040 
# 
# From -- ./inp_files/2817.got.cif
#   From: 2010.05.17/outbox.cif.g08.bks.cpg/sg175_2_cif.got.tgz:2817.got - 2010.05.20 11:23:22.
