data_PCOD9581572
_publ_section_title
;
Structure prediction by ZEFSAII (Michael W. Deem and Ramdas Pophale) SiO2 
 PCOD9581572
Probable space group: P 6/M
;
_chemical_formula_sum "Si O2"
_cell_formula_units_Z 48
_cell_length_a 10.416363
_cell_length_b 10.416363
_cell_length_c 23.058767
_cell_angle_alpha 90.000000
_cell_angle_beta 90.000000
_cell_angle_gamma 120.000000
_cell_volume 2166.700707
_symmetry_space_group_name_H-M "P 6/M"
_symmetry_group_IT_number 175
_symmetry_cell_setting 'hexagonal'
loop_
_space_group_symop_operation_xyz
x,y,z
x-y,x,z
-y,x-y,z
-x,-y,z
-x+y,-x,z
y,-x+y,z
-x,-y,-z
-x+y,-x,-z
y,-x+y,-z
x,y,-z
x-y,x,-z
-y,x-y,-z
loop_
_atom_site_type_symbol
_atom_site_label
_atom_site_fract_x
_atom_site_fract_y
_atom_site_fract_z
Si Si1 0.835518 0.338135 0.617569
Si Si2 0.255568 0.909014 0.810449
Si Si3 0.500000 0.000000 0.722394
Si Si4 0.935977 0.266275 0.500000
Si Si5 0.906550 0.656302 0.061788
O O1 0.802350 0.474043 0.616814
O O2 0.914725 0.360859 0.678721
O O3 0.910255 0.333104 0.558475
O O4 0.304049 0.887995 0.875281
O O5 0.079708 0.791152 0.804995
O O6 0.362049 0.896191 0.763416
O O7 0.095551 0.283946 0.500000
O O8 0.793124 0.718877 0.061610
O O9 0.883850 0.573788 0.000000
#
# Coordination Sequence:
#
# PCOD9581572 Si02
#       5
#    12  12   6   6  12
#     4  10  23  41  65  92 117 160 204 248 288 348
#     4  10  21  37  59  88 121 161 207 263 321 376
#     4  12  22  39  59  90 130 162 210 250 308 364
#     4  12  25  44  68  99 130 158 192 244 308 362
#     4   8  13  24  46  77 112 150 197 253 314 375
#
# _framework density 22.153497999999999
#
# number of rings (size 3 to 8) (size 9 to 14) (size 15 to 20)
#    0.500    1.500    0.000    4.375    0.000    4.500 
#    1.500    0.625    0.000    3.000    0.000    0.000 
#    0.000    0.000    0.000    0.000    0.000    0.000 
#
# Total GULP energy -267609.314166 kJ/mol
# GULP energy per Si atom -5575.194045 kJ/mol
# Density = 2.210308 g / cm^3
# Si number density = 22.153498 Si / 1000 Ang^3
#
#
#
# Elastic Constant Matrix: (Units=GPa)
#
#
# Indices 1 2 3 4 5 6 
#
# 1 51.9450 5.9234 45.7725 0.0000 0.0000 0.0000
# 2 5.9234 51.9450 45.7725 0.0000 0.0000 0.0000
# 3 45.7725 45.7725 229.1152 0.0000 0.0000 0.0000
# 4 0.0000 0.0000 0.0000 3.2159 0.0000 0.0000
# 5 0.0000 0.0000 0.0000 0.0000 3.2159 0.0000
# 6 0.0000 0.0000 0.0000 0.0000 0.0000 23.0108
#
#
#
# Elastic Compliance Matrix: (Units=1/GPa)
#
#
# Indices 1 2 3 4 5 6 
#
# 1 0.023497 0.001768 -0.005048 0.000000 0.000000 0.000000
# 2 0.001768 0.023497 -0.005048 0.000000 0.000000 0.000000
# 3 -0.005048 -0.005048 0.006381 0.000000 0.000000 0.000000
# 4 0.000000 0.000000 0.000000 0.310954 0.000000 0.000000
# 5 0.000000 0.000000 0.000000 0.000000 0.310954 0.000000
# 6 0.000000 0.000000 0.000000 0.000000 0.000000 0.043458
#
#
# Mechanical properties :
#
#
# Convention : Reuss Voigt Hill
#
# Bulk Modulus (GPa) = 27.23134 58.66023 42.94579
# Shear Modulus (GPa) = 6.68774 21.59098 14.13936
#
# Velocity S-wave (km/s) = 1.73936 3.12526 2.52909
# Velocity P-wave (km/s) = 4.04384 6.28963 5.28735
#
# Compressibility (1/GPa) = 0.03672240
#
# Stress axis : x y z
#
# Youngs Moduli (GPa) = 42.55817 42.55817 156.70513
#
# Poissons Ratio (x) = -0.07526 0.79098
# Poissons Ratio (y) = -0.07526 0.79098
# Poissons Ratio (z) = 0.21481 0.21481
#
# Static dielectric constant tensor:
#      x y z
#    x 1.822660 0.000000 0.000000 
#    y 0.000000 1.822660 0.000000 
#    z 0.000000 0.000000 1.862410 
# 
# From -- ./inp_files/3028.got.cif
#   From: 2010.05.17/outbox.cif.g08.bks.cpg/sg175_2_cif.got.tgz:3028.got - 2010.05.20 11:23:22.
