data_PCOD9581793
_publ_section_title
;
Structure prediction by ZEFSAII (Michael W. Deem and Ramdas Pophale) SiO2 
 PCOD9581793
Probable space group: P 63/M
;
_chemical_formula_sum "Si O2"
_cell_formula_units_Z 96
_cell_length_a 28.456108
_cell_length_b 28.456108
_cell_length_c 7.459522
_cell_angle_alpha 90.000000
_cell_angle_beta 90.000000
_cell_angle_gamma 120.000000
_cell_volume 5231.095296
_symmetry_space_group_name_H-M "P 63/M"
_symmetry_group_IT_number 176
_symmetry_cell_setting 'hexagonal'
loop_
_space_group_symop_operation_xyz
x,y,z
x-y,x,1/2+z
-y,x-y,z
-x,-y,1/2+z
-x+y,-x,z
y,-x+y,1/2+z
-x,-y,-z
-x+y,-x,1/2-z
y,-x+y,-z
x,y,1/2-z
x-y,x,-z
-y,x-y,1/2-z
loop_
_atom_site_type_symbol
_atom_site_label
_atom_site_fract_x
_atom_site_fract_y
_atom_site_fract_z
Si Si1 0.548405 0.664096 0.469804
Si Si2 0.397516 0.002890 0.457808
Si Si3 0.343258 0.228520 0.535364
Si Si4 0.334820 0.776413 0.030069
Si Si5 0.668158 0.437986 0.538125
Si Si6 0.775319 0.655492 0.464951
Si Si7 0.547673 0.879104 0.533425
Si Si8 0.719573 0.717180 0.457871
O O1 0.548945 0.663187 0.250000
O O2 0.562161 0.618023 0.532795
O O3 0.598242 0.722738 0.526538
O O4 0.491800 0.657917 0.527065
O O5 0.412624 0.002861 0.250000
O O6 0.439996 0.061798 0.534087
O O7 0.340167 0.002638 0.459661
O O8 0.343584 0.234888 0.750000
O O9 0.336211 0.170242 0.500718
O O10 0.296570 0.240312 0.464227
O O11 0.334948 0.777413 0.250000
O O12 0.277923 0.725664 0.969201
O O13 0.384365 0.768667 0.968247
O O14 0.669179 0.428866 0.750000
O O15 0.661861 0.490366 0.514094
O O16 0.769232 0.654951 0.250000
O O17 0.727078 0.596807 0.528953
O O18 0.762480 0.701542 0.535413
O O19 0.550748 0.882610 0.750000
O O20 0.735032 0.732640 0.250000
#
# Coordination Sequence:
#
# PCOD9581793 Si02
#       8
#    12  12  12  12  12  12  12  12
#     4   8  13  23  41  62  79  99 131 164 192 230
#     4   7  11  22  40  58  77 103 131 155 182 228
#     4   9  15  24  41  62  80 102 138 175 197 224
#     4   9  17  28  42  60  80 101 127 162 202 238
#     4  10  19  31  46  62  80 102 130 165 203 239
#     4   9  16  26  40  58  82 110 135 161 200 244
#     4   9  17  29  44  62  82 103 128 158 194 237
#     4   7  12  23  37  54  78 108 137 162 192 234
#
# _framework density 18.351796
#
# number of rings (size 3 to 8) (size 9 to 14) (size 15 to 20)
#    0.000    3.500    0.000    4.000    0.000    2.500 
#    0.000    1.875    0.000    5.250    0.000    0.000 
#    0.000    0.000    0.000    0.375    0.000    4.500 
#
# Total GULP energy -534693.507936 kJ/mol
# GULP energy per Si atom -5569.724041 kJ/mol
# Density = 1.831003 g / cm^3
# Si number density = 18.351796 Si / 1000 Ang^3
#
#
#
# Elastic Constant Matrix: (Units=GPa)
#
#
# Indices 1 2 3 4 5 6 
#
# 1 115.7975 98.4170 -0.3030 0.0000 0.0000 0.0000
# 2 98.4170 115.7975 -0.3030 0.0000 0.0000 0.0000
# 3 -0.3030 -0.3030 50.3242 0.0000 0.0000 0.0000
# 4 0.0000 0.0000 0.0000 0.3218 0.0000 0.0000
# 5 0.0000 0.0000 0.0000 0.0000 0.3218 0.0000
# 6 0.0000 0.0000 0.0000 0.0000 0.0000 8.6902
#
#
#
# Elastic Compliance Matrix: (Units=1/GPa)
#
#
# Indices 1 2 3 4 5 6 
#
# 1 0.031102 -0.026434 0.000028 0.000000 0.000000 0.000000
# 2 -0.026434 0.031102 0.000028 0.000000 0.000000 0.000000
# 3 0.000028 0.000028 0.019871 0.000000 0.000000 0.000000
# 4 0.000000 0.000000 0.000000 3.107947 0.000000 0.000000
# 5 0.000000 0.000000 0.000000 0.000000 3.107947 0.000000
# 6 0.000000 0.000000 0.000000 0.000000 0.000000 0.115072
#
#
# Mechanical properties :
#
#
# Convention : Reuss Voigt Hill
#
# Bulk Modulus (GPa) = 34.10581 53.06014 43.58298
# Shear Modulus (GPa) = 0.77213 14.14061 7.45637
#
# Velocity S-wave (km/s) = 0.64935 2.77885 2.01788
# Velocity P-wave (km/s) = 4.38030 6.26670 5.40641
#
# Compressibility (1/GPa) = 0.02932051
#
# Stress axis : x y z
#
# Youngs Moduli (GPa) = 32.15211 32.15211 50.32334
#
# Poissons Ratio (x) = 0.84990 -0.00141
# Poissons Ratio (y) = 0.84990 -0.00141
# Poissons Ratio (z) = -0.00090 -0.00090
#
# Static dielectric constant tensor:
#      x y z
#    x 1.639640 0.000000 0.000000 
#    y 0.000000 1.639640 0.000000 
#    z 0.000000 0.000000 1.608080 
# 
# From -- ./inp_files/2191.got.cif
#   From: 2010.05.17/outbox.cif.g08.bks.cpg/sg176_2_cif.got.tgz:2191.got - 2010.06.03 11:36:45.
