data_PCOD9581958
_publ_section_title
;
Structure prediction by ZEFSAII (Michael W. Deem and Ramdas Pophale) SiO2 
 PCOD9581958
Probable space group: P 63/M
;
_chemical_formula_sum "Si O2"
_cell_formula_units_Z 52
_cell_length_a 13.586854
_cell_length_b 13.586854
_cell_length_c 17.670529
_cell_angle_alpha 90.000000
_cell_angle_beta 90.000000
_cell_angle_gamma 120.000000
_cell_volume 2824.997059
_symmetry_space_group_name_H-M "P 63/M"
_symmetry_group_IT_number 176
_symmetry_cell_setting 'hexagonal'
loop_
_space_group_symop_operation_xyz
x,y,z
x-y,x,1/2+z
-y,x-y,z
-x,-y,1/2+z
-x+y,-x,z
y,-x+y,1/2+z
-x,-y,-z
-x+y,-x,1/2-z
y,-x+y,-z
x,y,1/2-z
x-y,x,-z
-y,x-y,1/2-z
loop_
_atom_site_type_symbol
_atom_site_label
_atom_site_fract_x
_atom_site_fract_y
_atom_site_fract_z
Si Si1 0.333334 0.666668 0.659790
Si Si2 0.890752 0.153923 0.519699
Si Si3 0.532442 0.419998 0.595541
Si Si4 0.171189 0.762432 0.337754
Si Si5 0.514705 0.858189 0.942351
O O1 0.333334 0.666668 0.750000
O O2 0.326652 0.554289 0.624141
O O3 0.876503 0.177416 0.607173
O O4 0.845730 0.226669 0.473501
O O5 0.022078 0.204374 0.499758
O O6 0.628364 0.523085 0.644230
O O7 0.492581 0.301019 0.635930
O O8 0.590863 0.432120 0.513598
O O9 0.424391 0.435946 0.582796
O O10 0.166436 0.784745 0.250000
#
# Coordination Sequence:
#
# PCOD9581958 Si02
#       5
#     4  12  12  12  12
#     4  12  27  39  57  93 136 170 202 252 309 372
#     4  11  23  44  68  90 118 166 217 261 308 380
#     4  10  20  38  65  88 127 163 207 256 303 377
#     4  11  22  36  62  99 128 159 204 262 316 359
#     4  10  22  41  63  92 119 171 214 244 308 379
#
# _framework density 18.407098000000001
#
# number of rings (size 3 to 8) (size 9 to 14) (size 15 to 20)
#    0.000    1.385    2.308    4.154    6.462    1.846 
#    0.000    1.154    0.000    0.000    0.000    0.000 
#    0.000    0.000    0.000    0.000    0.000    0.000 
#
# Total GULP energy -290699.867899 kJ/mol
# GULP energy per Si atom -5590.382075 kJ/mol
# Density = 1.836520 g / cm^3
# Si number density = 18.407098 Si / 1000 Ang^3
#
#
#
# Elastic Constant Matrix: (Units=GPa)
#
#
# Indices 1 2 3 4 5 6 
#
# 1 77.6620 23.3177 53.7781 0.0000 0.0000 0.0001
# 2 23.3177 77.6620 53.7778 0.0000 0.0000 0.0004
# 3 53.7781 53.7778 166.1225 0.0000 0.0000 0.0000
# 4 0.0000 0.0000 0.0000 10.5895 0.0001 0.0000
# 5 0.0000 0.0000 0.0000 0.0001 10.5895 0.0000
# 6 0.0001 0.0004 0.0000 0.0000 0.0000 27.1723
#
#
#
# Elastic Compliance Matrix: (Units=1/GPa)
#
#
# Indices 1 2 3 4 5 6 
#
# 1 0.016758 -0.001643 -0.004893 0.000000 0.000000 0.000000
# 2 -0.001643 0.016758 -0.004893 0.000000 0.000000 0.000000
# 3 -0.004893 -0.004893 0.009188 0.000000 0.000000 0.000000
# 4 0.000000 0.000000 0.000000 0.094433 -0.000001 0.000000
# 5 0.000000 0.000000 0.000000 -0.000001 0.094433 0.000000
# 6 0.000000 0.000000 0.000000 0.000000 0.000000 0.036802
#
#
# Mechanical properties :
#
#
# Convention : Reuss Voigt Hill
#
# Bulk Modulus (GPa) = 50.39067 64.79929 57.59498
# Shear Modulus (GPa) = 16.78724 22.37512 19.58118
#
# Velocity S-wave (km/s) = 3.02321 3.49029 3.26511
# Velocity P-wave (km/s) = 6.29456 7.17793 6.75071
#
# Compressibility (1/GPa) = 0.01984494
#
# Stress axis : x y z
#
# Youngs Moduli (GPa) = 59.67320 59.67341 108.84217
#
# Poissons Ratio (x) = 0.09806 0.53257
# Poissons Ratio (y) = 0.09806 0.53256
# Poissons Ratio (z) = 0.29198 0.29198
#
# Static dielectric constant tensor:
#      x y z
#    x 1.626010 0.000000 0.000000 
#    y 0.000000 1.626010 0.000000 
#    z 0.000000 0.000000 1.619770 
# 
# From -- ./inp_files/2579.got.cif
#   From: 2010.05.17/outbox.cif.g08.bks.cpg/sg176_2_cif.got.tgz:2579.got - 2010.06.03 11:36:45.
