data_PCOD9581725
_publ_section_title
;
Structure prediction by ZEFSAII (Michael W. Deem and Ramdas Pophale) SiO2 
 PCOD9581725
Probable space group: P 6/M
;
_chemical_formula_sum "Si O2"
_cell_formula_units_Z 76
_cell_length_a 18.000000
_cell_length_b 18.000000
_cell_length_c 15.000000
_cell_angle_alpha 90.000000
_cell_angle_beta 90.000000
_cell_angle_gamma 120.000000
_cell_volume 4208.883462
_symmetry_space_group_name_H-M "P 6/M"
_symmetry_group_IT_number 175
_symmetry_cell_setting 'hexagonal'
loop_
_space_group_symop_operation_xyz
x,y,z
x-y,x,z
-y,x-y,z
-x,-y,z
-x+y,-x,z
y,-x+y,z
-x,-y,-z
-x+y,-x,-z
y,-x+y,-z
x,y,-z
x-y,x,-z
-y,x-y,-z
loop_
_atom_site_type_symbol
_atom_site_label
_atom_site_fract_x
_atom_site_fract_y
_atom_site_fract_z
Si Si1 0.666667 0.333334 0.892460
Si Si2 0.713807 0.195055 0.892754
Si Si3 0.032917 0.436479 0.777291
Si Si4 0.732543 0.533741 0.396985
Si Si5 0.467367 0.603120 0.397425
Si Si6 0.072856 0.869867 0.896602
Si Si7 0.630969 0.876206 0.220006
O O1 0.667559 0.248546 0.865278
O O2 0.666667 0.333334 0.000000
O O3 0.662878 0.104379 0.844402
O O4 0.807673 0.244191 0.849835
O O5 0.715831 0.189194 0.000000
O O6 0.072158 0.471749 0.679006
O O7 0.000000 0.500000 0.810197
O O8 0.958090 0.339161 0.774282
O O9 0.743392 0.565860 0.500000
O O10 0.780946 0.478802 0.391533
O O11 0.630947 0.470440 0.381272
O O12 0.771020 0.605261 0.319066
O O13 0.489855 0.593098 0.500000
O O14 0.098913 0.821535 0.823195
O O15 0.972448 0.839937 0.887166
O O16 0.084988 0.848602 0.000000
#
# Coordination Sequence:
#
# PCOD9581725 Si02
#       7
#     4  12  12  12  12  12  12
#     4   9  21  39  57  75 106 161 211 249 288 333
#     4  11  24  41  59  83 118 160 207 255 298 354
#     4  12  24  38  59  90 120 165 204 249 304 362
#     4  10  21  38  62  91 123 163 211 257 300 349
#     4  10  21  39  62  91 125 163 210 260 303 348
#     4  10  22  42  69  95 119 150 195 254 315 375
#     4  12  23  37  60  89 125 160 197 244 310 367
#
# _framework density 18.057044999999999
#
# number of rings (size 3 to 8) (size 9 to 14) (size 15 to 20)
#    0.000    1.263    3.158    2.842    0.000    5.684 
#    0.000    0.000    0.000    0.000    0.000    0.000 
#    0.000    1.263    0.000    0.000    0.000    0.000 
#
# Total GULP energy -424518.643308 kJ/mol
# GULP energy per Si atom -5585.771622 kJ/mol
# Density = 1.801595 g / cm^3
# Si number density = 18.057045 Si / 1000 Ang^3
#
#
#
# Elastic Constant Matrix: (Units=GPa)
#
#
# Indices 1 2 3 4 5 6 
#
# 1 84.8211 19.6330 52.2598 0.0000 0.0000 0.0000
# 2 19.6330 84.8184 52.2592 0.0000 0.0000 0.0005
# 3 52.2598 52.2592 142.7787 0.0000 0.0000 0.0000
# 4 0.0000 0.0000 0.0000 19.5529 0.0001 0.0000
# 5 0.0000 0.0000 0.0000 0.0001 19.5530 0.0000
# 6 0.0000 0.0005 0.0000 0.0000 0.0000 32.5934
#
#
#
# Elastic Compliance Matrix: (Units=1/GPa)
#
#
# Indices 1 2 3 4 5 6 
#
# 1 0.015223 -0.000117 -0.005529 0.000000 0.000000 0.000000
# 2 -0.000117 0.015224 -0.005529 0.000000 0.000000 0.000000
# 3 -0.005529 -0.005529 0.011051 0.000000 0.000000 0.000000
# 4 0.000000 0.000000 0.000000 0.051143 0.000000 0.000000
# 5 0.000000 0.000000 0.000000 0.000000 0.051143 0.000000
# 6 0.000000 0.000000 0.000000 0.000000 0.000000 0.030681
#
#
# Mechanical properties :
#
#
# Convention : Reuss Voigt Hill
#
# Bulk Modulus (GPa) = 52.22634 62.30244 57.26439
# Shear Modulus (GPa) = 24.60641 26.89096 25.74868
#
# Velocity S-wave (km/s) = 3.69549 3.86323 3.78029
# Velocity P-wave (km/s) = 6.86983 7.38088 7.12994
#
# Compressibility (1/GPa) = 0.01914743
#
# Stress axis : x y z
#
# Youngs Moduli (GPa) = 65.68910 65.68690 90.48613
#
# Poissons Ratio (x) = 0.00769 0.50031
# Poissons Ratio (y) = 0.00769 0.50032
# Poissons Ratio (z) = 0.36320 0.36320
#
# Static dielectric constant tensor:
#      x y z
#    x 1.631820 0.000000 0.000000 
#    y 0.000000 1.631820 0.000000 
#    z 0.000000 0.000000 1.615310 
# 
# From -- ./inp_files/2536.got.cif
#   From: 2010.05.17/outbox.ucp.g08.bks.cvg/sg175_2_cif.got.tgz:2536.got - 2010.06.11 15:18:44.
