data_PCOD9581165
_publ_section_title
;
Structure prediction by ZEFSAII (Michael W. Deem and Ramdas Pophale) SiO2 
 PCOD9581165
Probable space group: P -6
;
_chemical_formula_sum "Si O2"
_cell_formula_units_Z 40
_cell_length_a 19.540752
_cell_length_b 19.540752
_cell_length_c 8.681980
_cell_angle_alpha 90.000000
_cell_angle_beta 90.000000
_cell_angle_gamma 120.000000
_cell_volume 2870.991843
_symmetry_space_group_name_H-M "P -6"
_symmetry_group_IT_number 174
_symmetry_cell_setting 'hexagonal'
loop_
_space_group_symop_operation_xyz
x,y,z
-x+y,-x,-z
-y,x-y,z
x,y,-z
-x+y,-x,z
-y,x-y,-z
loop_
_atom_site_type_symbol
_atom_site_label
_atom_site_fract_x
_atom_site_fract_y
_atom_site_fract_z
Si Si1 0.536578 0.623906 0.815467
Si Si2 0.914284 0.536918 0.315362
Si Si3 0.757912 0.515825 0.185089
Si Si4 0.536578 0.912673 0.184533
Si Si5 0.666667 0.333333 0.813273
Si Si6 0.244882 0.489763 0.683607
Si Si7 0.333333 0.666667 0.184489
Si Si8 0.463081 0.085715 0.684638
O O1 0.448306 0.551694 0.775326
O O2 0.549067 0.704473 0.743069
O O3 0.596118 0.596534 0.751917
O O4 0.541142 0.629901 0.000000
O O5 0.915799 0.541281 0.500000
O O6 0.845951 0.550874 0.248917
O O7 0.897392 0.448696 0.271243
O O8 0.000416 0.596533 0.248085
O O9 0.711940 0.423879 0.236928
O O10 0.704924 0.550874 0.248919
O O11 0.759368 0.518738 0.000000
O O12 0.549067 0.844595 0.256930
O O13 0.541143 0.911243 0.000000
O O14 0.666667 0.333334 0.000000
O O15 0.246933 0.493866 0.500000
O O16 0.288873 0.577746 0.754282
O O17 0.333334 0.666668 0.000000
O O18 0.458718 0.084200 0.500000
#
# Coordination Sequence:
#
# PCOD9581165 Si02
#       8
#     6   6   6   6   2   6   2   6
#     4  10  20  33  48  64  87 117 150 186 226 271
#     4  10  20  32  45  64  89 115 148 189 232 270
#     4  11  19  31  47  64  86 117 154 190 230 272
#     4  10  20  33  48  64  87 117 150 186 226 271
#     4   9  18  27  40  62  85 111 151 191 220 261
#     4  12  22  32  48  67  89 116 149 191 232 269
#     4  12  22  32  43  63  88 116 154 192 226 266
#     4  10  20  32  45  64  89 115 148 189 232 270
#
# _framework density 13.932468
#
# number of rings (size 3 to 8) (size 9 to 14) (size 15 to 20)
#    0.000    1.500    3.000    4.050    0.000    2.400 
#    0.000    0.000    0.000    0.000    0.000    0.000 
#    0.000    0.000    0.000    0.900    0.000   12.600 
#
# Total GULP energy -223355.249102 kJ/mol
# GULP energy per Si atom -5583.881228 kJ/mol
# Density = 1.390076 g / cm^3
# Si number density = 13.932468 Si / 1000 Ang^3
#
#
#
# Elastic Constant Matrix: (Units=GPa)
#
#
# Indices 1 2 3 4 5 6 
#
# 1 106.0108 45.0348 41.7632 0.0000 0.0000 -0.0052
# 2 45.0348 106.0049 41.7585 0.0000 0.0000 0.0057
# 3 41.7632 41.7585 77.4573 0.0000 0.0000 0.0001
# 4 0.0000 0.0000 0.0000 22.6172 0.0000 0.0000
# 5 0.0000 0.0000 0.0000 0.0000 22.6173 0.0000
# 6 -0.0052 0.0057 0.0001 0.0000 0.0000 30.4825
#
#
#
# Elastic Compliance Matrix: (Units=1/GPa)
#
#
# Indices 1 2 3 4 5 6 
#
# 1 0.012917 -0.003484 -0.005086 0.000000 0.000000 0.000003
# 2 -0.003484 0.012917 -0.005085 0.000000 0.000000 -0.000003
# 3 -0.005086 -0.005085 0.018394 0.000000 0.000000 0.000000
# 4 0.000000 0.000000 0.000000 0.044214 0.000000 0.000000
# 5 0.000000 0.000000 0.000000 0.000000 0.044214 0.000000
# 6 0.000003 -0.000003 0.000000 0.000000 0.000000 0.032806
#
#
# Mechanical properties :
#
#
# Convention : Reuss Voigt Hill
#
# Bulk Modulus (GPa) = 59.11158 60.73176 59.92167
# Shear Modulus (GPa) = 25.20020 25.87119 25.53570
#
# Velocity S-wave (km/s) = 4.25754 4.31385 4.28579
# Velocity P-wave (km/s) = 8.16628 8.27630 8.22148
#
# Compressibility (1/GPa) = 0.01691716
#
# Stress axis : x y z
#
# Youngs Moduli (GPa) = 77.41910 77.41831 54.36495
#
# Poissons Ratio (x) = 0.26972 0.27651
# Poissons Ratio (y) = 0.26972 0.27646
# Poissons Ratio (z) = 0.39377 0.39369
#
# Static dielectric constant tensor:
#      x y z
#    x 1.350510 0.000110 0.000000 
#    y 0.000110 1.350420 0.000000 
#    z 0.000000 0.000000 1.457390 
# 
# From -- ./inp_files/491.got.cif
#   From: 2010.05.17/outbox.cif.g08.bks.cpg/sg174_cif.got.tgz:491.got - 2010.05.20 11:22:48.
