data_PCOD9581903
_publ_section_title
;
Structure prediction by ZEFSAII (Michael W. Deem and Ramdas Pophale) SiO2 
 PCOD9581903
Probable space group: P 63/M
;
_chemical_formula_sum "Si O2"
_cell_formula_units_Z 72
_cell_length_a 12.647231
_cell_length_b 12.647231
_cell_length_c 31.379061
_cell_angle_alpha 90.000000
_cell_angle_beta 90.000000
_cell_angle_gamma 120.000000
_cell_volume 4346.718115
_symmetry_space_group_name_H-M "P 63/M"
_symmetry_group_IT_number 176
_symmetry_cell_setting 'hexagonal'
loop_
_space_group_symop_operation_xyz
x,y,z
x-y,x,1/2+z
-y,x-y,z
-x,-y,1/2+z
-x+y,-x,z
y,-x+y,1/2+z
-x,-y,-z
-x+y,-x,1/2-z
y,-x+y,-z
x,y,1/2-z
x-y,x,-z
-y,x-y,1/2-z
loop_
_atom_site_type_symbol
_atom_site_label
_atom_site_fract_x
_atom_site_fract_y
_atom_site_fract_z
Si Si1 0.333215 0.918128 0.416384
Si Si2 0.251435 0.000000 0.000000
Si Si3 0.082009 0.415789 0.666966
Si Si4 0.666221 0.584211 0.333034
Si Si5 0.333583 0.918307 0.250000
Si Si6 0.918128 0.333215 0.916384
Si Si7 0.415276 0.081693 0.750000
O O1 0.311955 0.977061 0.458561
O O2 0.451830 0.903660 0.421376
O O3 0.212951 0.787049 0.409786
O O4 0.356568 0.003932 0.375627
O O5 0.334894 0.022939 0.958561
O O6 0.119564 0.880437 0.993976
O O7 0.204472 0.408943 0.667572
O O8 0.112463 0.556231 0.668021
O O9 0.003932 0.356568 0.624373
O O10 0.998652 0.351512 0.708115
O O11 0.647140 0.648487 0.291885
O O12 0.444640 0.889279 0.250000
O O13 0.205204 0.794797 0.250000
#
# Coordination Sequence:
#
# PCOD9581903 Si02
#       7
#    12  12  12  12   6  12   6
#     4  10  20  34  53  76 102 132 167 209 255 301
#     4  10  20  34  52  74 102 136 172 208 248 298
#     4  10  20  34  53  76 102 132 166 205 249 297
#     4  10  20  34  53  76 102 132 166 205 249 297
#     4  10  20  34  54  78 104 134 168 208 252 298
#     4  10  20  34  53  76 102 132 167 209 255 301
#     4  10  20  34  54  78 104 134 168 208 252 298
#
# _framework density 16.564222000000001
#
# number of rings (size 3 to 8) (size 9 to 14) (size 15 to 20)
#    0.000    2.000    0.000    4.000    0.000    0.000 
#    0.000    5.000    0.000   22.000    0.000    0.000 
#    0.000    0.000    0.000    0.000    0.000    0.000 
#
# Total GULP energy -402037.871319 kJ/mol
# GULP energy per Si atom -5583.859324 kJ/mol
# Density = 1.652652 g / cm^3
# Si number density = 16.564222 Si / 1000 Ang^3
#
#
#
# Elastic Constant Matrix: (Units=GPa)
#
#
# Indices 1 2 3 4 5 6 
#
# 1 150.0896 111.5411 105.7887 0.0000 0.0000 0.0000
# 2 111.5411 150.0896 105.7887 0.0000 0.0000 0.0000
# 3 105.7887 105.7887 162.8645 0.0000 0.0000 0.0000
# 4 0.0000 0.0000 0.0000 20.2318 0.0000 0.0000
# 5 0.0000 0.0000 0.0000 0.0000 20.2318 0.0000
# 6 0.0000 0.0000 0.0000 0.0000 0.0000 19.2743
#
#
#
# Elastic Compliance Matrix: (Units=1/GPa)
#
#
# Indices 1 2 3 4 5 6 
#
# 1 0.016996 -0.008945 -0.005230 0.000000 0.000000 0.000000
# 2 -0.008945 0.016996 -0.005230 0.000000 0.000000 0.000000
# 3 -0.005230 -0.005230 0.012934 0.000000 0.000000 0.000000
# 4 0.000000 0.000000 0.000000 0.049427 0.000000 0.000000
# 5 0.000000 0.000000 0.000000 0.000000 0.049427 0.000000
# 6 0.000000 0.000000 0.000000 0.000000 0.000000 0.051883
#
#
# Mechanical properties :
#
#
# Convention : Reuss Voigt Hill
#
# Bulk Modulus (GPa) = 123.18667 123.25341 123.22004
# Shear Modulus (GPa) = 20.90483 21.27592 21.09037
#
# Velocity S-wave (km/s) = 3.55638 3.58781 3.57213
# Velocity P-wave (km/s) = 9.56004 9.57779 9.56892
#
# Compressibility (1/GPa) = 0.00811776
#
# Stress axis : x y z
#
# Youngs Moduli (GPa) = 58.83591 58.83591 77.31452
#
# Poissons Ratio (x) = 0.52628 0.40434
# Poissons Ratio (y) = 0.52628 0.40434
# Poissons Ratio (z) = 0.30770 0.30770
#
# Static dielectric constant tensor:
#      x y z
#    x 1.523300 0.000000 0.000000 
#    y 0.000000 1.523300 0.000000 
#    z 0.000000 0.000000 1.539780 
# 
# From -- ./inp_files/4516.got.cif
#   From: 2010.05.17/outbox.cif.g08.bks.cpg/sg176_3_cif.got.tgz:4516.got - 2010.06.03 11:36:45.
