data_PCOD9581230
_publ_section_title
;
Structure prediction by ZEFSAII (Michael W. Deem and Ramdas Pophale) SiO2 
 PCOD9581230
Probable space group: P 6/M
;
_chemical_formula_sum "Si O2"
_cell_formula_units_Z 40
_cell_length_a 20.013093
_cell_length_b 20.013093
_cell_length_c 7.358689
_cell_angle_alpha 90.000000
_cell_angle_beta 90.000000
_cell_angle_gamma 120.000000
_cell_volume 2552.463306
_symmetry_space_group_name_H-M "P 6/M"
_symmetry_group_IT_number 175
_symmetry_cell_setting 'hexagonal'
loop_
_space_group_symop_operation_xyz
x,y,z
x-y,x,z
-y,x-y,z
-x,-y,z
-x+y,-x,z
y,-x+y,z
-x,-y,-z
-x+y,-x,-z
y,-x+y,-z
x,y,-z
x-y,x,-z
-y,x-y,-z
loop_
_atom_site_type_symbol
_atom_site_label
_atom_site_fract_x
_atom_site_fract_y
_atom_site_fract_z
Si Si1 0.086430 0.620712 0.778272
Si Si2 0.242499 0.484999 0.788729
Si Si3 0.465715 0.379287 0.778272
Si Si4 0.666668 0.333334 0.716885
O O1 0.157756 0.700554 0.712038
O O2 0.098368 0.549183 0.724695
O O3 0.000001 0.597586 0.723202
O O4 0.088017 0.621850 0.000000
O O5 0.157753 0.457198 0.712038
O O6 0.289120 0.578246 0.780383
O O7 0.231109 0.462219 0.000000
O O8 0.466164 0.378149 0.000000
O O9 0.666667 0.333334 0.500000
#
# Coordination Sequence:
#
# PCOD9581230 Si02
#       4
#    12  12  12   4
#     4   8  13  20  33  54  71  81 105 144 171 192
#     4  10  16  26  42  51  63  92 121 139 168 210
#     4   8  13  20  33  54  71  81 105 144 171 192
#     4  12  22  26  31  51  76  89 112 153 175 191
#
# _framework density 15.671136000000001
#
# number of rings (size 3 to 8) (size 9 to 14) (size 15 to 20)
#    0.000    3.000    3.000    2.700    0.000    0.000 
#    0.000    0.000    0.000    3.600    0.000    0.000 
#    0.000    0.000    0.000    0.900    0.000   28.800 
#
# Total GULP energy -222961.821172 kJ/mol
# GULP energy per Si atom -5574.045529 kJ/mol
# Density = 1.563547 g / cm^3
# Si number density = 15.671136 Si / 1000 Ang^3
#
#
#
# Elastic Constant Matrix: (Units=GPa)
#
#
# Indices 1 2 3 4 5 6 
#
# 1 129.2826 73.6762 2.5064 0.0000 0.0000 0.0003
# 2 73.6762 129.2827 2.5069 0.0000 0.0000 -0.0003
# 3 2.5064 2.5069 60.6202 0.0000 0.0000 -0.0002
# 4 0.0000 0.0000 0.0000 -18.8797 0.0001 0.0000
# 5 0.0000 0.0000 0.0000 0.0001 -18.8794 0.0000
# 6 0.0003 -0.0003 -0.0002 0.0000 0.0000 27.8041
#
#
#
# Elastic Compliance Matrix: (Units=1/GPa)
#
#
# Indices 1 2 3 4 5 6 
#
# 1 0.011458 -0.006526 -0.000204 0.000000 0.000000 0.000000
# 2 -0.006526 0.011458 -0.000204 0.000000 0.000000 0.000000
# 3 -0.000204 -0.000204 0.016513 0.000000 0.000000 0.000000
# 4 0.000000 0.000000 0.000000 -0.052967 0.000000 0.000000
# 5 0.000000 0.000000 0.000000 0.000000 -0.052968 0.000000
# 6 0.000000 0.000000 0.000000 0.000000 0.000000 0.035966
#
#
# Mechanical properties :
#
#
# Convention : Reuss Voigt Hill
#
# Bulk Modulus (GPa) = 39.12130 52.95161 46.03645
# Shear Modulus (GPa) = -613.31875 14.04206 -299.63834
#
# Velocity S-wave (km/s) = -19.80450 2.99665 -13.84265
# Velocity P-wave (km/s) = 22.31455 6.77022 15.03502
#
# Compressibility (1/GPa) = 0.02556152
#
# Stress axis : x y z
#
# Youngs Moduli (GPa) = 87.27655 87.27655 60.55832
#
# Poissons Ratio (x) = 0.56954 0.01235
# Poissons Ratio (y) = 0.56954 0.01235
# Poissons Ratio (z) = 0.01779 0.01781
#
# Static dielectric constant tensor:
#      x y z
#    x 1.525760 0.000000 0.000000 
#    y 0.000000 1.525750 0.000000 
#    z 0.000000 0.000000 1.570030 
# 
# From -- ./inp_files/702.got.cif
#   From: 2010.05.17/outbox.cif.g08.bks.cpg/sg175_1_cif.got.tgz:702.got - 2010.05.20 11:23:22.
