data_PCOD9581513
_publ_section_title
;
Structure prediction by ZEFSAII (Michael W. Deem and Ramdas Pophale) SiO2 
 PCOD9581513
Probable space group: P 6/M
;
_chemical_formula_sum "Si O2"
_cell_formula_units_Z 90
_cell_length_a 27.564038
_cell_length_b 27.564038
_cell_length_c 7.220611
_cell_angle_alpha 90.000000
_cell_angle_beta 90.000000
_cell_angle_gamma 120.000000
_cell_volume 4751.057213
_symmetry_space_group_name_H-M "P 6/M"
_symmetry_group_IT_number 175
_symmetry_cell_setting 'hexagonal'
loop_
_space_group_symop_operation_xyz
x,y,z
x-y,x,z
-y,x-y,z
-x,-y,z
-x+y,-x,z
y,-x+y,z
-x,-y,-z
-x+y,-x,-z
y,-x+y,-z
x,y,-z
x-y,x,-z
-y,x-y,-z
loop_
_atom_site_type_symbol
_atom_site_label
_atom_site_fract_x
_atom_site_fract_y
_atom_site_fract_z
Si Si1 0.665826 0.444347 0.225289
Si Si2 0.881857 0.763684 0.777092
Si Si3 0.312352 0.063750 0.225112
Si Si4 0.444336 0.665802 0.774711
Si Si5 0.063729 0.312362 0.225111
Si Si6 0.134488 0.067265 0.500000
Si Si7 0.431204 0.159137 0.775303
Si Si8 0.272110 0.840895 0.224697
O O1 0.607060 0.392959 0.287264
O O2 0.718171 0.436324 0.279161
O O3 0.681050 0.506680 0.283598
O O4 0.665230 0.443897 0.000000
O O5 0.816407 0.727192 0.724739
O O6 0.910791 0.727169 0.724744
O O7 0.911499 0.822946 0.674510
O O8 0.885429 0.770826 0.000000
O O9 0.376131 0.103509 0.286998
O O10 0.284956 0.000011 0.286349
O O11 0.313312 0.064052 0.000000
O O12 0.506666 0.681015 0.716400
O O13 0.443887 0.665205 0.000000
O O14 0.103474 0.376144 0.286998
O O15 0.064031 0.313323 0.000000
O O16 0.096826 0.096846 0.500000
O O17 0.424759 0.212399 0.724024
O O18 0.431234 0.157708 0.000000
O O19 0.273571 0.842324 0.000000
#
# Coordination Sequence:
#
# PCOD9581513 Si02
#       8
#    12  12  12  12  12   6  12  12
#     4   8  12  16  24  39  64 102 149 196 236 279
#     4  10  20  37  59  81 104 130 168 212 252 294
#     4   9  15  24  42  65  86 110 145 192 240 287
#     4   8  12  16  24  39  64 102 149 196 236 279
#     4   9  15  24  42  65  86 110 145 192 240 287
#     4  12  27  44  60  80 108 140 170 202 246 302
#     4   8  12  19  30  47  72 101 139 188 236 285
#     4   8  12  19  30  47  72 101 139 188 236 285
#
# _framework density 18.943152999999999
#
# number of rings (size 3 to 8) (size 9 to 14) (size 15 to 20)
#    0.000    3.200    1.333    2.733    0.000    2.667 
#    0.000    0.000    0.000    1.600    0.000    5.600 
#    0.000    0.000    0.000    1.200    0.000    8.933 
#
# Total GULP energy -502169.959183 kJ/mol
# GULP energy per Si atom -5579.666213 kJ/mol
# Density = 1.890004 g / cm^3
# Si number density = 18.943153 Si / 1000 Ang^3
#
#
#
# Elastic Constant Matrix: (Units=GPa)
#
#
# Indices 1 2 3 4 5 6 
#
# 1 196.7003 124.1449 18.9893 0.0000 0.0000 0.0000
# 2 124.1449 196.7003 18.9893 0.0000 0.0000 0.0000
# 3 18.9893 18.9893 94.5915 0.0000 0.0000 0.0000
# 4 0.0000 0.0000 0.0000 -31.6329 0.0000 0.0000
# 5 0.0000 0.0000 0.0000 0.0000 -31.6329 0.0000
# 6 0.0000 0.0000 0.0000 0.0000 0.0000 36.2777
#
#
#
# Elastic Compliance Matrix: (Units=1/GPa)
#
#
# Indices 1 2 3 4 5 6 
#
# 1 0.008488 -0.005295 -0.000641 0.000000 0.000000 0.000000
# 2 -0.005295 0.008488 -0.000641 0.000000 0.000000 0.000000
# 3 -0.000641 -0.000641 0.010829 0.000000 0.000000 0.000000
# 4 0.000000 0.000000 0.000000 -0.031613 0.000000 0.000000
# 5 0.000000 0.000000 0.000000 0.000000 -0.031613 0.000000
# 6 0.000000 0.000000 0.000000 0.000000 0.000000 0.027565
#
#
# Mechanical properties :
#
#
# Convention : Reuss Voigt Hill
#
# Bulk Modulus (GPa) = 68.25621 90.24880 79.25251
# Shear Modulus (GPa) = 491.09698 16.32696 253.71197
#
# Velocity S-wave (km/s) = 16.11864 2.93899 11.58551
# Velocity P-wave (km/s) = 19.55823 7.69819 14.86248
#
# Compressibility (1/GPa) = 0.01465068
#
# Stress axis : x y z
#
# Youngs Moduli (GPa) = 117.81895 117.81895 92.34369
#
# Poissons Ratio (x) = 0.62385 0.05919
# Poissons Ratio (y) = 0.62385 0.05919
# Poissons Ratio (z) = 0.07551 0.07551
#
# Static dielectric constant tensor:
#      x y z
#    x 1.628870 0.000000 0.000000 
#    y 0.000000 1.628870 0.000000 
#    z 0.000000 0.000000 1.742620 
# 
# From -- ./inp_files/1437.got.cif
#   From: 2010.05.17/outbox.cif.g08.bks.cpg/sg175_1_cif.got.tgz:1437.got - 2010.05.20 11:23:22.
