data_PCOD9581361
_publ_section_title
;
Structure prediction by ZEFSAII (Michael W. Deem and Ramdas Pophale) SiO2 
 PCOD9581361
Probable space group: P 6/M
;
_chemical_formula_sum "Si O2"
_cell_formula_units_Z 70
_cell_length_a 14.010528
_cell_length_b 14.010528
_cell_length_c 21.170420
_cell_angle_alpha 90.000000
_cell_angle_beta 90.000000
_cell_angle_gamma 120.000000
_cell_volume 3598.894457
_symmetry_space_group_name_H-M "P 6/M"
_symmetry_group_IT_number 175
_symmetry_cell_setting 'hexagonal'
loop_
_space_group_symop_operation_xyz
x,y,z
x-y,x,z
-y,x-y,z
-x,-y,z
-x+y,-x,z
y,-x+y,z
-x,-y,-z
-x+y,-x,-z
y,-x+y,-z
x,y,-z
x-y,x,-z
-y,x-y,-z
loop_
_atom_site_type_symbol
_atom_site_label
_atom_site_fract_x
_atom_site_fract_y
_atom_site_fract_z
Si Si1 0.666668 0.333335 0.574556
Si Si2 0.461944 0.871562 0.249721
Si Si3 0.780277 0.464814 0.000000
Si Si4 0.619962 0.098836 0.126834
Si Si5 0.939711 0.758549 0.332932
Si Si6 0.956744 0.758111 0.819418
Si Si7 0.524547 0.749625 0.334927
O O1 0.666667 0.333334 0.500000
O O2 0.545444 0.254577 0.604438
O O3 0.416169 0.838453 0.178371
O O4 0.550368 0.846684 0.283483
O O5 0.357643 0.805391 0.294121
O O6 0.500000 0.000000 0.252002
O O7 0.652626 0.429542 0.000000
O O8 0.835734 0.520427 0.934790
O O9 0.699323 0.060187 0.160178
O O10 0.500000 0.000000 0.106666
O O11 0.849305 0.790001 0.354520
O O12 0.949348 0.759298 0.256649
O O13 0.887225 0.632596 0.353110
O O14 0.856867 0.779081 0.840476
#
# Coordination Sequence:
#
# PCOD9581361 Si02
#       7
#     4  12   6  12  12  12  12
#     4   9  21  39  57  87 123 157 194 235 291 348
#     4  10  21  32  54  84 112 139 190 242 290 348
#     4  10  27  40  56  76 113 161 206 247 306 377
#     4  11  24  38  60  83 116 153 204 251 312 366
#     4  10  19  32  53  85 121 156 192 236 297 350
#     4  10  22  38  62  89 121 156 196 250 310 372
#     4  10  19  33  57  85 115 155 185 238 283 353
#
# _framework density 19.450417999999999
#
# number of rings (size 3 to 8) (size 9 to 14) (size 15 to 20)
#    0.171    1.714    1.714    1.971   12.000    1.371 
#    0.000    0.000    0.000   18.514    0.000    1.200 
#    0.000    1.371    0.000    0.000    0.000    0.000 
#
# Total GULP energy -390057.468799 kJ/mol
# GULP energy per Si atom -5572.249554 kJ/mol
# Density = 1.940615 g / cm^3
# Si number density = 19.450418 Si / 1000 Ang^3
#
#
#
# Elastic Constant Matrix: (Units=GPa)
#
#
# Indices 1 2 3 4 5 6 
#
# 1 67.6036 11.1751 5.4191 0.0000 0.0000 -0.0001
# 2 11.1751 67.6037 5.4193 0.0000 0.0000 0.0001
# 3 5.4191 5.4193 73.3940 0.0000 0.0000 -0.0002
# 4 0.0000 0.0000 0.0000 12.1661 -0.0001 0.0000
# 5 0.0000 0.0000 0.0000 -0.0001 12.1660 0.0000
# 6 -0.0001 0.0001 -0.0002 0.0000 0.0000 28.2144
#
#
#
# Elastic Compliance Matrix: (Units=1/GPa)
#
#
# Indices 1 2 3 4 5 6 
#
# 1 0.015273 -0.002449 -0.000947 0.000000 0.000000 0.000000
# 2 -0.002449 0.015273 -0.000947 0.000000 0.000000 0.000000
# 3 -0.000947 -0.000947 0.013765 0.000000 0.000000 0.000000
# 4 0.000000 0.000000 0.000000 0.082195 0.000001 0.000000
# 5 0.000000 0.000000 0.000000 0.000001 0.082196 0.000000
# 6 0.000000 0.000000 0.000000 0.000000 0.000000 0.035443
#
#
# Mechanical properties :
#
#
# Convention : Reuss Voigt Hill
#
# Bulk Modulus (GPa) = 28.06983 28.06983 28.06983
# Shear Modulus (GPa) = 18.88894 22.94849 20.91872
#
# Velocity S-wave (km/s) = 3.11968 3.43861 3.28302
# Velocity P-wave (km/s) = 5.23826 5.49802 5.36971
#
# Compressibility (1/GPa) = 0.03562544
#
# Stress axis : x y z
#
# Youngs Moduli (GPa) = 65.47583 65.47594 72.64839
#
# Poissons Ratio (x) = 0.16033 0.06879
# Poissons Ratio (y) = 0.16033 0.06879
# Poissons Ratio (z) = 0.06200 0.06200
#
# Static dielectric constant tensor:
#      x y z
#    x 1.746430 0.000000 0.000000 
#    y 0.000000 1.746430 0.000000 
#    z 0.000000 0.000000 1.666180 
# 
# From -- ./inp_files/2897.got.cif
#   From: 2010.05.17/outbox.cif.g08.bks.cpg/sg175_2_cif.got.tgz:2897.got - 2010.05.20 11:23:22.
