data_PCOD9581959
_publ_section_title
;
Structure prediction by ZEFSAII (Michael W. Deem and Ramdas Pophale) SiO2 
 PCOD9581959
Probable space group: P 63/M
;
_chemical_formula_sum "Si O2"
_cell_formula_units_Z 30
_cell_length_a 8.444393
_cell_length_b 8.444393
_cell_length_c 22.806304
_cell_angle_alpha 90.000000
_cell_angle_beta 90.000000
_cell_angle_gamma 120.000000
_cell_volume 1408.388320
_symmetry_space_group_name_H-M "P 63/M"
_symmetry_group_IT_number 176
_symmetry_cell_setting 'hexagonal'
loop_
_space_group_symop_operation_xyz
x,y,z
x-y,x,1/2+z
-y,x-y,z
-x,-y,1/2+z
-x+y,-x,z
y,-x+y,1/2+z
-x,-y,-z
-x+y,-x,1/2-z
y,-x+y,-z
x,y,1/2-z
x-y,x,-z
-y,x-y,1/2-z
loop_
_atom_site_type_symbol
_atom_site_label
_atom_site_fract_x
_atom_site_fract_y
_atom_site_fract_z
Si Si1 0.000000 0.000000 0.179851
Si Si2 0.656196 0.017080 0.366237
Si Si3 0.091252 0.557967 0.250000
Si Si4 0.666667 0.333334 0.059695
Si Si5 0.333334 0.666668 0.079864
O O1 0.845274 0.040488 0.156011
O O2 0.000000 0.000000 0.250000
O O3 0.544998 0.022444 0.308883
O O4 0.527775 0.818192 0.394501
O O5 0.682443 0.166057 0.413749
O O6 0.223010 0.470151 0.250000
O O7 0.666668 0.333334 0.989885
#
# Coordination Sequence:
#
# PCOD9581959 Si02
#       5
#     4  12   6   4   4
#     4  12  27  42  70 107 139 171 222 283 353 415
#     4  12  24  44  71  99 137 176 225 284 345 400
#     4  10  20  38  72  96 134 174 220 280 358 404
#     4  12  30  43  68 103 135 189 235 272 331 417
#     4  12  24  52  71  94 141 183 235 281 331 405
#
# _framework density 21.300943
#
# number of rings (size 3 to 8) (size 9 to 14) (size 15 to 20)
#    0.400    0.000    6.000    3.600    0.000    1.600 
#    0.000    2.000    0.000    0.000    0.000    0.000 
#    0.000    0.000    0.000    0.000    0.000    0.000 
#
# Total GULP energy -167996.949369 kJ/mol
# GULP energy per Si atom -5599.898312 kJ/mol
# Density = 2.125246 g / cm^3
# Si number density = 21.300943 Si / 1000 Ang^3
#
#
#
# Elastic Constant Matrix: (Units=GPa)
#
#
# Indices 1 2 3 4 5 6 
#
# 1 61.8921 2.9888 18.5362 0.0000 0.0000 -0.0001
# 2 2.9888 61.8897 18.5363 0.0000 0.0000 0.0005
# 3 18.5362 18.5363 181.1720 0.0000 0.0000 -0.0002
# 4 0.0000 0.0000 0.0000 12.9021 0.0002 0.0000
# 5 0.0000 0.0000 0.0000 0.0002 12.9018 0.0000
# 6 -0.0001 0.0005 -0.0002 0.0000 0.0000 29.4511
#
#
#
# Elastic Compliance Matrix: (Units=1/GPa)
#
#
# Indices 1 2 3 4 5 6 
#
# 1 0.016673 -0.000304 -0.001675 0.000000 0.000000 0.000000
# 2 -0.000304 0.016674 -0.001675 0.000000 0.000000 0.000000
# 3 -0.001675 -0.001675 0.005862 0.000000 0.000000 0.000000
# 4 0.000000 0.000000 0.000000 0.077507 -0.000001 0.000000
# 5 0.000000 0.000000 0.000000 -0.000001 0.077509 0.000000
# 6 0.000000 0.000000 0.000000 0.000000 0.000000 0.033955
#
#
# Mechanical properties :
#
#
# Convention : Reuss Voigt Hill
#
# Bulk Modulus (GPa) = 31.34483 42.78624 37.06553
# Shear Modulus (GPa) = 20.31521 28.71049 24.51285
#
# Velocity S-wave (km/s) = 3.09159 3.67529 3.39601
# Velocity P-wave (km/s) = 5.24319 6.17580 5.72851
#
# Compressibility (1/GPa) = 0.03190319
#
# Stress axis : x y z
#
# Youngs Moduli (GPa) = 59.97570 59.97327 170.58031
#
# Poissons Ratio (x) = 0.01821 0.28570
# Poissons Ratio (y) = 0.01821 0.28571
# Poissons Ratio (z) = 0.10045 0.10045
#
# Static dielectric constant tensor:
#      x y z
#    x 1.768650 0.000000 0.000000 
#    y 0.000000 1.768650 0.000000 
#    z 0.000000 0.000000 1.716860 
# 
# From -- ./inp_files/3941.got.cif
#   From: 2010.05.17/outbox.cif.g08.bks.cpg/sg176_2_cif.got.tgz:3941.got - 2010.06.03 11:36:45.
