data_PCOD9581638
_publ_section_title
;
Structure prediction by ZEFSAII (Michael W. Deem and Ramdas Pophale) SiO2 
 PCOD9581638
Probable space group: P 6/M
;
_chemical_formula_sum "Si O2"
_cell_formula_units_Z 54
_cell_length_a 20.363951
_cell_length_b 20.363951
_cell_length_c 7.623364
_cell_angle_alpha 90.000000
_cell_angle_beta 90.000000
_cell_angle_gamma 120.000000
_cell_volume 2737.797833
_symmetry_space_group_name_H-M "P 6/M"
_symmetry_group_IT_number 175
_symmetry_cell_setting 'hexagonal'
loop_
_space_group_symop_operation_xyz
x,y,z
x-y,x,z
-y,x-y,z
-x,-y,z
-x+y,-x,z
y,-x+y,z
-x,-y,-z
-x+y,-x,-z
y,-x+y,-z
x,y,-z
x-y,x,-z
-y,x-y,-z
loop_
_atom_site_type_symbol
_atom_site_label
_atom_site_fract_x
_atom_site_fract_y
_atom_site_fract_z
Si Si1 0.819107 0.934935 0.000000
Si Si2 0.694148 0.851021 0.286574
Si Si3 0.526247 0.441892 0.794275
Si Si4 0.623452 0.682474 0.294078
Si Si5 0.892383 0.323160 0.710084
O O1 0.857943 0.881896 0.000000
O O2 0.764098 0.911724 0.171378
O O3 0.707290 0.861769 0.500000
O O4 0.674024 0.767113 0.228387
O O5 0.616046 0.850924 0.247378
O O6 0.500000 0.500000 0.716603
O O7 0.467590 0.358866 0.723152
O O8 0.616407 0.484271 0.767227
O O9 0.512553 0.436398 0.000000
O O10 0.640440 0.688419 0.500000
O O11 0.646759 0.624040 0.216915
O O12 0.894971 0.328126 0.500000
#
# Coordination Sequence:
#
# PCOD9581638 Si02
#       5
#     6  12  12  12  12
#     4  12  27  44  64  86 116 154 198 252 318 392
#     4  10  22  39  61  88 117 152 196 249 302 354
#     4   9  17  27  45  74 107 139 171 209 257 316
#     4   9  17  31  51  76 107 142 182 229 281 335
#     4   9  17  31  51  76 107 142 182 229 281 335
#
# _framework density 19.723882
#
# number of rings (size 3 to 8) (size 9 to 14) (size 15 to 20)
#    0.000    2.444    0.000    2.111    3.111    5.333 
#    0.000    0.000    0.000    2.222    0.000    3.111 
#    0.000    0.000    0.000    0.000    0.000    0.000 
#
# Total GULP energy -300631.808377 kJ/mol
# GULP energy per Si atom -5567.255711 kJ/mol
# Density = 1.967899 g / cm^3
# Si number density = 19.723882 Si / 1000 Ang^3
#
#
#
# Elastic Constant Matrix: (Units=GPa)
#
#
# Indices 1 2 3 4 5 6 
#
# 1 49.6364 -4.4517 4.6834 0.0000 0.0000 0.0000
# 2 -4.4517 49.6364 4.6834 0.0000 0.0000 0.0000
# 3 4.6834 4.6834 58.1202 0.0000 0.0000 0.0000
# 4 0.0000 0.0000 0.0000 13.4800 0.0000 0.0000
# 5 0.0000 0.0000 0.0000 0.0000 13.4800 0.0000
# 6 0.0000 0.0000 0.0000 0.0000 0.0000 27.0440
#
#
#
# Elastic Compliance Matrix: (Units=1/GPa)
#
#
# Indices 1 2 3 4 5 6 
#
# 1 0.020498 0.002009 -0.001814 0.000000 0.000000 0.000000
# 2 0.002009 0.020498 -0.001814 0.000000 0.000000 0.000000
# 3 -0.001814 -0.001814 0.017498 0.000000 0.000000 0.000000
# 4 0.000000 0.000000 0.000000 0.074184 0.000000 0.000000
# 5 0.000000 0.000000 0.000000 0.000000 0.074184 0.000000
# 6 0.000000 0.000000 0.000000 0.000000 0.000000 0.036977
#
#
# Mechanical properties :
#
#
# Convention : Reuss Voigt Hill
#
# Bulk Modulus (GPa) = 18.09691 18.58036 18.33864
# Shear Modulus (GPa) = 18.83286 20.96600 19.89943
#
# Velocity S-wave (km/s) = 3.09338 3.26387 3.17976
# Velocity P-wave (km/s) = 4.68548 4.86256 4.77484
#
# Compressibility (1/GPa) = 0.05525804
#
# Stress axis : x y z
#
# Youngs Moduli (GPa) = 48.78557 48.78557 57.14932
#
# Poissons Ratio (x) = -0.09803 0.10365
# Poissons Ratio (y) = -0.09803 0.10365
# Poissons Ratio (z) = 0.08848 0.08848
#
# Static dielectric constant tensor:
#      x y z
#    x 1.760230 0.000000 0.000000 
#    y 0.000000 1.760230 0.000000 
#    z 0.000000 0.000000 1.711720 
# 
# From -- ./inp_files/809.got.cif
#   From: 2010.05.17/outbox.cif.g08.bks.cpg/sg175_1_cif.got.tgz:809.got - 2010.05.20 11:23:22.
