data_PCOD9581630
_publ_section_title
;
Structure prediction by ZEFSAII (Michael W. Deem and Ramdas Pophale) SiO2 
 PCOD9581630
Probable space group: P 6/M
;
_chemical_formula_sum "Si O2"
_cell_formula_units_Z 24
_cell_length_a 10.024740
_cell_length_b 10.024740
_cell_length_c 11.865327
_cell_angle_alpha 90.000000
_cell_angle_beta 90.000000
_cell_angle_gamma 120.000000
_cell_volume 1032.658154
_symmetry_space_group_name_H-M "P 6/M"
_symmetry_group_IT_number 175
_symmetry_cell_setting 'hexagonal'
loop_
_space_group_symop_operation_xyz
x,y,z
x-y,x,z
-y,x-y,z
-x,-y,z
-x+y,-x,z
y,-x+y,z
-x,-y,-z
-x+y,-x,-z
y,-x+y,-z
x,y,-z
x-y,x,-z
-y,x-y,-z
loop_
_atom_site_type_symbol
_atom_site_label
_atom_site_fract_x
_atom_site_fract_y
_atom_site_fract_z
Si Si1 0.500000 0.000000 0.305699
Si Si2 0.741975 0.643859 0.126984
Si Si3 0.080309 0.349827 0.500000
O O1 0.473160 0.110670 0.222523
O O2 0.356564 0.909919 0.389643
O O3 0.707507 0.784627 0.138522
O O4 0.696494 0.579626 0.000000
O O5 0.204725 0.296417 0.500000
#
# Coordination Sequence:
#
# PCOD9581630 Si02
#       3
#     6  12   6
#     4  11  23  40  60  98 137 163 206 262 330 403
#     4  10  21  41  68  99 132 173 222 272 321 377
#     4  11  25  48  72  96 121 167 224 282 332 381
#
# _framework density 23.240993
#
# number of rings (size 3 to 8) (size 9 to 14) (size 15 to 20)
#    0.000    1.500    0.000    4.500    0.000    2.000 
#   42.000    5.000    0.000    0.000    0.000    0.000 
#    0.000    0.000    0.000    0.000    0.000    0.000 
#
# Total GULP energy -134452.789541 kJ/mol
# GULP energy per Si atom -5602.199564 kJ/mol
# Density = 2.318810 g / cm^3
# Si number density = 23.240993 Si / 1000 Ang^3
#
#
#
# Elastic Constant Matrix: (Units=GPa)
#
#
# Indices 1 2 3 4 5 6 
#
# 1 93.8599 58.4804 77.4312 0.0000 0.0000 0.0000
# 2 58.4804 93.8599 77.4312 0.0000 0.0000 0.0000
# 3 77.4312 77.4312 205.1629 0.0000 0.0000 0.0000
# 4 0.0000 0.0000 0.0000 84.9302 0.0000 0.0000
# 5 0.0000 0.0000 0.0000 0.0000 84.9302 0.0000
# 6 0.0000 0.0000 0.0000 0.0000 0.0000 17.6898
#
#
#
# Elastic Compliance Matrix: (Units=1/GPa)
#
#
# Indices 1 2 3 4 5 6 
#
# 1 0.019458 -0.008807 -0.004020 0.000000 0.000000 0.000000
# 2 -0.008807 0.019458 -0.004020 0.000000 0.000000 0.000000
# 3 -0.004020 -0.004020 0.007908 0.000000 0.000000 0.000000
# 4 0.000000 0.000000 0.000000 0.011774 0.000000 0.000000
# 5 0.000000 0.000000 0.000000 0.000000 0.011774 0.000000
# 6 0.000000 0.000000 0.000000 0.000000 0.000000 0.056530
#
#
# Mechanical properties :
#
#
# Convention : Reuss Voigt Hill
#
# Bulk Modulus (GPa) = 76.15760 91.06316 83.61038
# Shear Modulus (GPa) = 30.30817 49.47937 39.89377
#
# Velocity S-wave (km/s) = 3.61513 4.61908 4.14759
# Velocity P-wave (km/s) = 7.08980 8.22892 7.68051
#
# Compressibility (1/GPa) = 0.01313067
#
# Stress axis : x y z
#
# Youngs Moduli (GPa) = 51.39364 51.39364 126.44979
#
# Poissons Ratio (x) = 0.45264 0.50828
# Poissons Ratio (y) = 0.45264 0.50828
# Poissons Ratio (z) = 0.20658 0.20658
#
# Static dielectric constant tensor:
#      x y z
#    x 1.846820 0.000000 0.000000 
#    y 0.000000 1.846820 0.000000 
#    z 0.000000 0.000000 1.879460 
# 
# From -- ./inp_files/1496.got.cif
#   From: 2010.05.17/outbox.cif.g08.bks.cpg/sg175_1_cif.got.tgz:1496.got - 2010.05.20 11:23:22.
