data_PCOD9581032
_publ_section_title
;
Structure prediction by ZEFSAII (Michael W. Deem and Ramdas Pophale) SiO2 
 PCOD9581032
Probable space group: P 63
;
_chemical_formula_sum "Si O2"
_cell_formula_units_Z 42
_cell_length_a 21.271348
_cell_length_b 21.271348
_cell_length_c 5.547099
_cell_angle_alpha 90.000000
_cell_angle_beta 90.000000
_cell_angle_gamma 120.000000
_cell_volume 2173.634777
_symmetry_space_group_name_H-M "P 63"
_symmetry_group_IT_number 173
_symmetry_cell_setting 'hexagonal'
loop_
_space_group_symop_operation_xyz
x,y,z
x-y,x,1/2+z
-y,x-y,z
-x,-y,1/2+z
-x+y,-x,z
y,-x+y,1/2+z
loop_
_atom_site_type_symbol
_atom_site_label
_atom_site_fract_x
_atom_site_fract_y
_atom_site_fract_z
Si Si1 0.799246 0.060945 0.331670
Si Si2 0.675076 0.989201 0.959635
Si Si3 0.188431 0.263654 0.575204
Si Si4 0.424551 0.514695 0.415549
Si Si5 0.124732 0.398271 0.134298
Si Si6 0.587142 0.856738 0.275175
Si Si7 0.416439 0.916171 0.912729
O O1 0.864644 0.110920 0.162090
O O2 0.788596 0.108261 0.536189
O O3 0.799817 0.991374 0.433122
O O4 0.723812 0.028239 0.189412
O O5 0.676359 0.055647 0.811641
O O6 0.718542 0.960939 0.799201
O O7 0.605516 0.914695 0.052623
O O8 0.225921 0.337874 0.422935
O O9 0.337639 0.472834 0.422025
O O10 0.451180 0.455206 0.413607
O O11 0.457096 0.560552 0.659870
O O12 0.452854 0.557204 0.160874
O O13 0.207519 0.433154 0.222264
O O14 0.119282 0.449557 0.935484
#
# Coordination Sequence:
#
# PCOD9581032 Si02
#       7
#     6   6   6   6   6   6   6
#     4  10  20  33  53  84 125 162 204 255 323 387
#     4  10  20  34  56  84 130 158 204 248 316 392
#     4  10  20  33  53  84 125 162 204 255 323 387
#     4  10  23  39  61  89 126 169 213 262 314 380
#     4  11  22  36  60  90 128 168 202 263 320 384
#     4  11  22  36  60  90 128 168 202 263 320 384
#     4  10  23  39  61  89 126 169 213 262 314 380
#
# _framework density 19.322472000000001
#
# number of rings (size 3 to 8) (size 9 to 14) (size 15 to 20)
#    0.000    1.714    2.857    2.571   10.000    0.000 
#    0.000    0.000    0.000    0.571    0.000    2.000 
#   14.286    0.000    0.000    0.000    0.000    0.000 
#
# Total GULP energy -234132.463798 kJ/mol
# GULP energy per Si atom -5574.582471 kJ/mol
# Density = 1.927849 g / cm^3
# Si number density = 19.322472 Si / 1000 Ang^3
#
#
#
# Elastic Constant Matrix: (Units=GPa)
#
#
# Indices 1 2 3 4 5 6 
#
# 1 87.5180 47.9020 30.4847 0.0000 0.0000 0.0000
# 2 47.9020 87.5180 30.4847 0.0000 0.0000 0.0000
# 3 30.4847 30.4847 71.1368 0.0000 0.0000 0.0000
# 4 0.0000 0.0000 0.0000 27.7720 0.0000 0.0000
# 5 0.0000 0.0000 0.0000 0.0000 27.7720 0.0000
# 6 0.0000 0.0000 0.0000 0.0000 0.0000 19.8080
#
#
#
# Elastic Compliance Matrix: (Units=1/GPa)
#
#
# Indices 1 2 3 4 5 6 
#
# 1 0.017196 -0.008046 -0.003921 0.000000 0.000000 0.000000
# 2 -0.008046 0.017196 -0.003921 0.000000 0.000000 0.000000
# 3 -0.003921 -0.003921 0.017418 0.000000 0.000000 0.000000
# 4 0.000000 0.000000 0.000000 0.036008 0.000000 0.000000
# 5 0.000000 0.000000 0.000000 0.000000 0.036008 0.000000
# 6 0.000000 0.000000 0.000000 0.000000 0.000000 0.050485
#
#
# Mechanical properties :
#
#
# Convention : Reuss Voigt Hill
#
# Bulk Modulus (GPa) = 49.91633 51.54616 50.73124
# Shear Modulus (GPa) = 23.50019 24.22382 23.86200
#
# Velocity S-wave (km/s) = 3.49120 3.54455 3.51798
# Velocity P-wave (km/s) = 6.49159 6.59443 6.54321
#
# Compressibility (1/GPa) = 0.02003352
#
# Stress axis : x y z
#
# Youngs Moduli (GPa) = 58.15286 58.15286 57.41189
#
# Poissons Ratio (x) = 0.46792 0.22511
# Poissons Ratio (y) = 0.46792 0.22511
# Poissons Ratio (z) = 0.22802 0.22802
#
# Static dielectric constant tensor:
#      x y z
#    x 1.680200 0.000000 0.000000 
#    y 0.000000 1.680200 0.000000 
#    z 0.000000 0.000000 1.785840 
# 
# From -- ./inp_files/179.got.cif
#   From: 2010.05.17/outbox.cif.g08.bks.cpg/sg173_cif.got.tgz:179.got - 2010.05.20 11:21:53.
