data_PCOD9581372
_publ_section_title
;
Structure prediction by ZEFSAII (Michael W. Deem and Ramdas Pophale) SiO2 
 PCOD9581372
Probable space group: P 6/M
;
_chemical_formula_sum "Si O2"
_cell_formula_units_Z 52
_cell_length_a 12.591337
_cell_length_b 12.591337
_cell_length_c 21.775060
_cell_angle_alpha 90.000000
_cell_angle_beta 90.000000
_cell_angle_gamma 120.000000
_cell_volume 2989.741828
_symmetry_space_group_name_H-M "P 6/M"
_symmetry_group_IT_number 175
_symmetry_cell_setting 'hexagonal'
loop_
_space_group_symop_operation_xyz
x,y,z
x-y,x,z
-y,x-y,z
-x,-y,z
-x+y,-x,z
y,-x+y,z
-x,-y,-z
-x+y,-x,-z
y,-x+y,-z
x,y,-z
x-y,x,-z
-y,x-y,-z
loop_
_atom_site_type_symbol
_atom_site_label
_atom_site_fract_x
_atom_site_fract_y
_atom_site_fract_z
Si Si1 0.216356 0.934718 0.000000
Si Si2 0.719557 0.784669 0.132076
Si Si3 0.261514 0.244552 0.500000
Si Si4 0.666667 0.333335 0.573540
Si Si5 0.917600 0.562955 0.384375
Si Si6 0.934518 0.718992 0.266707
O O1 0.265960 0.919664 0.066191
O O2 0.071642 0.835457 0.000000
O O3 0.836473 0.765395 0.131950
O O4 0.659264 0.738539 0.198810
O O5 0.242031 0.108491 0.500000
O O6 0.339260 0.312963 0.439646
O O7 0.666667 0.333334 0.500000
O O8 0.677530 0.218465 0.596707
O O9 0.915067 0.628901 0.322189
O O10 0.000000 0.500000 0.376489
O O11 0.835138 0.763627 0.271091
#
# Coordination Sequence:
#
# PCOD9581372 Si02
#       6
#     6  12   6   4  12  12
#     4   8  11  16  28  54  89 130 170 204 239 286
#     4   8  13  20  35  59  94 133 170 205 244 293
#     4  12  24  40  60  84 109 134 162 200 248 306
#     4  12  24  42  63  81 102 133 170 214 258 309
#     4  12  25  40  59  80 103 133 172 214 259 306
#     4  10  19  33  51  76 107 141 174 211 257 309
#
# _framework density 17.392806
#
# number of rings (size 3 to 8) (size 9 to 14) (size 15 to 20)
#    0.000    1.846    1.154    5.192    0.000    3.692 
#    0.000    2.308    0.000    0.000    0.000    0.808 
#    0.000    1.846    0.000    0.346    0.000    0.115 
#
# Total GULP energy -289813.575970 kJ/mol
# GULP energy per Si atom -5573.337999 kJ/mol
# Density = 1.735322 g / cm^3
# Si number density = 17.392806 Si / 1000 Ang^3
#
#
#
# Elastic Constant Matrix: (Units=GPa)
#
#
# Indices 1 2 3 4 5 6 
#
# 1 46.8591 36.8538 52.0037 0.0000 0.0000 -0.0157
# 2 36.8538 46.8620 51.9999 0.0000 0.0000 0.0143
# 3 52.0037 51.9999 226.8398 0.0000 0.0000 0.0006
# 4 0.0000 0.0000 0.0000 -11.9702 -0.0004 0.0000
# 5 0.0000 0.0000 0.0000 -0.0004 -11.9682 0.0000
# 6 -0.0157 0.0143 0.0006 0.0000 0.0000 5.0020
#
#
#
# Elastic Compliance Matrix: (Units=1/GPa)
#
#
# Indices 1 2 3 4 5 6 
#
# 1 0.058322 -0.041616 -0.003831 0.000000 0.000000 0.000302
# 2 -0.041616 0.058314 -0.003827 0.000000 0.000000 -0.000297
# 3 -0.003831 -0.003827 0.006164 0.000000 0.000000 -0.000002
# 4 0.000000 0.000000 0.000000 -0.083541 0.000002 0.000000
# 5 0.000000 0.000000 0.000000 0.000002 -0.083555 0.000000
# 6 0.000302 -0.000297 -0.000002 0.000000 0.000000 0.199923
#
#
# Mechanical properties :
#
#
# Convention : Reuss Voigt Hill
#
# Bulk Modulus (GPa) = 41.23228 66.91949 54.07588
# Shear Modulus (GPa) = 19.06515 8.19295 13.62905
#
# Velocity S-wave (km/s) = 3.31441 2.17273 2.80233
# Velocity P-wave (km/s) = 6.19718 6.69726 6.45207
#
# Compressibility (1/GPa) = 0.02425285
#
# Stress axis : x y z
#
# Youngs Moduli (GPa) = 17.14625 17.14855 162.23476
#
# Poissons Ratio (x) = 0.71365 0.62146
# Poissons Ratio (y) = 0.71355 0.62090
# Poissons Ratio (z) = 0.06568 0.06563
#
# Static dielectric constant tensor:
#      x y z
#    x 1.562440 0.000000 0.000000 
#    y 0.000000 1.562430 0.000000 
#    z 0.000000 0.000000 1.663960 
# 
# From -- ./inp_files/3071.got.cif
#   From: 2010.05.17/outbox.cif.g08.bks.cpg/sg175_2_cif.got.tgz:3071.got - 2010.05.20 11:23:22.
