data_PCOD9581698
_publ_section_title
;
Structure prediction by ZEFSAII (Michael W. Deem and Ramdas Pophale) SiO2 
 PCOD9581698
Probable space group: P 6/M
;
_chemical_formula_sum "Si O2"
_cell_formula_units_Z 52
_cell_length_a 13.670941
_cell_length_b 13.670941
_cell_length_c 13.865848
_cell_angle_alpha 90.000000
_cell_angle_beta 90.000000
_cell_angle_gamma 120.000000
_cell_volume 2244.263699
_symmetry_space_group_name_H-M "P 6/M"
_symmetry_group_IT_number 175
_symmetry_cell_setting 'hexagonal'
loop_
_space_group_symop_operation_xyz
x,y,z
x-y,x,z
-y,x-y,z
-x,-y,z
-x+y,-x,z
y,-x+y,z
-x,-y,-z
-x+y,-x,-z
y,-x+y,-z
x,y,-z
x-y,x,-z
-y,x-y,-z
loop_
_atom_site_type_symbol
_atom_site_label
_atom_site_fract_x
_atom_site_fract_y
_atom_site_fract_z
Si Si1 0.781452 0.113556 0.000000
Si Si2 0.500000 0.500000 0.825142
Si Si3 0.947299 0.738278 0.500000
Si Si4 0.134024 0.257229 0.208901
Si Si5 0.466739 0.112911 0.000000
Si Si6 0.333335 0.666668 0.614609
Si Si7 0.430642 0.300643 0.680646
O O1 0.852460 0.123579 0.095067
O O2 0.779202 0.230195 0.000000
O O3 0.659828 0.001633 0.000000
O O4 0.436067 0.392897 0.755739
O O5 0.419468 0.517341 0.900573
O O6 0.848405 0.773648 0.500000
O O7 0.926063 0.655082 0.591187
O O8 0.191115 0.186800 0.239673
O O9 0.192878 0.378344 0.258035
O O10 0.333334 0.666668 0.500000
O O11 0.219083 0.556321 0.648314
#
# Coordination Sequence:
#
# PCOD9581698 Si02
#       7
#     6   6   6  12   6   4  12
#     4  12  20  38  65  99 143 189 243 300 370 439
#     4  11  26  45  72 104 140 205 250 305 374 432
#     4  12  29  53  83 117 153 192 237 301 377 455
#     4  12  24  43  70 108 149 197 246 307 376 453
#     4  11  24  42  68  98 149 189 251 301 370 438
#     4  12  30  51  72 112 149 187 258 318 378 439
#     4  12  28  47  78 105 148 194 253 305 374 446
#
# _framework density 23.170180999999999
#
# number of rings (size 3 to 8) (size 9 to 14) (size 15 to 20)
#    0.000    0.231    5.769    1.731    9.692    0.462 
#    0.000    3.462    0.000    0.000    0.000    0.000 
#    0.000    0.000    0.000    0.000    0.000    0.000 
#
# Total GULP energy -290898.894339 kJ/mol
# GULP energy per Si atom -5594.209507 kJ/mol
# Density = 2.311744 g / cm^3
# Si number density = 23.170181 Si / 1000 Ang^3
#
#
#
# Elastic Constant Matrix: (Units=GPa)
#
#
# Indices 1 2 3 4 5 6 
#
# 1 104.1998 25.3577 51.7810 0.0000 0.0000 -0.0005
# 2 25.3577 104.2006 51.7813 0.0000 0.0000 -0.0011
# 3 51.7810 51.7813 156.7200 0.0000 0.0000 -0.0003
# 4 0.0000 0.0000 0.0000 26.0434 0.0001 0.0000
# 5 0.0000 0.0000 0.0000 0.0001 26.0433 0.0000
# 6 -0.0005 -0.0011 -0.0003 0.0000 0.0000 39.4211
#
#
#
# Elastic Compliance Matrix: (Units=1/GPa)
#
#
# Indices 1 2 3 4 5 6 
#
# 1 0.011586 -0.001097 -0.003466 0.000000 0.000000 0.000000
# 2 -0.001097 0.011586 -0.003466 0.000000 0.000000 0.000000
# 3 -0.003466 -0.003466 0.008671 0.000000 0.000000 0.000000
# 4 0.000000 0.000000 0.000000 0.038397 0.000000 0.000000
# 5 0.000000 0.000000 0.000000 0.000000 0.038398 0.000000
# 6 0.000000 0.000000 0.000000 0.000000 0.000000 0.025367
#
#
# Mechanical properties :
#
#
# Convention : Reuss Voigt Hill
#
# Bulk Modulus (GPa) = 63.34648 69.21783 66.28216
# Shear Modulus (GPa) = 32.19071 34.04826 33.11948
#
# Velocity S-wave (km/s) = 3.73140 3.83755 3.78484
# Velocity P-wave (km/s) = 6.77963 7.04090 6.91150
#
# Compressibility (1/GPa) = 0.01578620
#
# Stress axis : x y z
#
# Youngs Moduli (GPa) = 86.30986 86.31046 115.32870
#
# Poissons Ratio (x) = 0.09472 0.39968
# Poissons Ratio (y) = 0.09472 0.39968
# Poissons Ratio (z) = 0.29911 0.29911
#
# Static dielectric constant tensor:
#      x y z
#    x 1.907710 0.000000 0.000000 
#    y 0.000000 1.907710 0.000000 
#    z 0.000000 0.000000 1.888460 
# 
# From -- ./inp_files/2345.got.cif
#   From: 2010.05.17/outbox.cif.g08.bks.cpg/sg175_2_cif.got.tgz:2345.got - 2010.05.20 11:23:22.
