data_PCOD9581359
_publ_section_title
;
Structure prediction by ZEFSAII (Michael W. Deem and Ramdas Pophale) SiO2 
 PCOD9581359
Probable space group: P 6/M
;
_chemical_formula_sum "Si O2"
_cell_formula_units_Z 48
_cell_length_a 10.357459
_cell_length_b 10.357459
_cell_length_c 23.384322
_cell_angle_alpha 90.000000
_cell_angle_beta 90.000000
_cell_angle_gamma 120.000000
_cell_volume 2172.510379
_symmetry_space_group_name_H-M "P 6/M"
_symmetry_group_IT_number 175
_symmetry_cell_setting 'hexagonal'
loop_
_space_group_symop_operation_xyz
x,y,z
x-y,x,z
-y,x-y,z
-x,-y,z
-x+y,-x,z
y,-x+y,z
-x,-y,-z
-x+y,-x,-z
y,-x+y,-z
x,y,-z
x-y,x,-z
-y,x-y,-z
loop_
_atom_site_type_symbol
_atom_site_label
_atom_site_fract_x
_atom_site_fract_y
_atom_site_fract_z
Si Si1 0.740167 0.655684 0.438877
Si Si2 0.265647 0.917517 0.000000
Si Si3 0.500000 0.000000 0.905338
Si Si4 0.164366 0.661409 0.198835
Si Si5 0.338200 0.074728 0.683940
O O1 0.713565 0.796709 0.438937
O O2 0.680448 0.574366 0.500000
O O3 0.679201 0.578521 0.377435
O O4 0.089634 0.793469 0.000000
O O5 0.358113 0.905437 0.946182
O O6 0.448662 0.087810 0.862047
O O7 0.195998 0.523897 0.199046
O O8 0.095693 0.666508 0.258766
O O9 0.285547 0.196349 0.685003
#
# Coordination Sequence:
#
# PCOD9581359 Si02
#       5
#    12   6   6  12  12
#     4   8  13  22  40  68 104 146 192 243 300 364
#     4  11  25  44  70 104 137 165 194 246 310 365
#     4  11  22  44  68  96 125 164 212 242 285 352
#     4  10  22  37  60  85 114 153 204 252 286 336
#     4  10  19  32  52  82 118 155 197 250 313 368
#
# _framework density 22.094253999999999
#
# number of rings (size 3 to 8) (size 9 to 14) (size 15 to 20)
#    0.500    1.750    0.000    3.625    0.000    3.000 
#    6.000    0.000    0.000    4.500    0.000    7.875 
#    0.000    0.000    0.000    0.000    0.000    0.000 
#
# Total GULP energy -267287.838276 kJ/mol
# GULP energy per Si atom -5568.496631 kJ/mol
# Density = 2.204397 g / cm^3
# Si number density = 22.094254 Si / 1000 Ang^3
#
#
#
# Elastic Constant Matrix: (Units=GPa)
#
#
# Indices 1 2 3 4 5 6 
#
# 1 49.3275 -4.8233 42.7791 0.0000 0.0000 0.0000
# 2 -4.8233 49.3275 42.7791 0.0000 0.0000 0.0000
# 3 42.7791 42.7791 251.6680 0.0000 0.0000 0.0000
# 4 0.0000 0.0000 0.0000 56.7304 0.0000 0.0000
# 5 0.0000 0.0000 0.0000 0.0000 56.7304 0.0000
# 6 0.0000 0.0000 0.0000 0.0000 0.0000 27.0754
#
#
#
# Elastic Compliance Matrix: (Units=1/GPa)
#
#
# Indices 1 2 3 4 5 6 
#
# 1 0.025922 0.007455 -0.005673 0.000000 0.000000 0.000000
# 2 0.007455 0.025922 -0.005673 0.000000 0.000000 0.000000
# 3 -0.005673 -0.005673 0.005902 0.000000 0.000000 0.000000
# 4 0.000000 0.000000 0.000000 0.017627 0.000000 0.000000
# 5 0.000000 0.000000 0.000000 0.000000 0.017627 0.000000
# 6 0.000000 0.000000 0.000000 0.000000 0.000000 0.036934
#
#
# Mechanical properties :
#
#
# Convention : Reuss Voigt Hill
#
# Bulk Modulus (GPa) = 20.01513 56.86589 38.44051
# Shear Modulus (GPa) = 32.38919 46.07980 39.23449
#
# Velocity S-wave (km/s) = 3.83293 4.57179 4.21857
# Velocity P-wave (km/s) = 5.35417 7.32544 6.41597
#
# Compressibility (1/GPa) = 0.04996220
#
# Stress axis : x y z
#
# Youngs Moduli (GPa) = 38.57735 38.57735 169.42612
#
# Poissons Ratio (x) = -0.28759 0.96124
# Poissons Ratio (y) = -0.28759 0.96124
# Poissons Ratio (z) = 0.21887 0.21887
#
# Static dielectric constant tensor:
#      x y z
#    x 1.851810 0.000000 0.000000 
#    y 0.000000 1.851810 0.000000 
#    z 0.000000 0.000000 1.880810 
# 
# From -- ./inp_files/3195.got.cif
#   From: 2010.05.17/outbox.cif.g08.bks.cpg/sg175_2_cif.got.tgz:3195.got - 2010.05.20 11:23:22.
