data_PCOD9581356
_publ_section_title
;
Structure prediction by ZEFSAII (Michael W. Deem and Ramdas Pophale) SiO2 
 PCOD9581356
Probable space group: P 6/M
;
_chemical_formula_sum "Si O2"
_cell_formula_units_Z 60
_cell_length_a 10.759449
_cell_length_b 10.759449
_cell_length_c 27.374234
_cell_angle_alpha 90.000000
_cell_angle_beta 90.000000
_cell_angle_gamma 120.000000
_cell_volume 2744.433233
_symmetry_space_group_name_H-M "P 6/M"
_symmetry_group_IT_number 175
_symmetry_cell_setting 'hexagonal'
loop_
_space_group_symop_operation_xyz
x,y,z
x-y,x,z
-y,x-y,z
-x,-y,z
-x+y,-x,z
y,-x+y,z
-x,-y,-z
-x+y,-x,-z
y,-x+y,-z
x,y,-z
x-y,x,-z
-y,x-y,-z
loop_
_atom_site_type_symbol
_atom_site_label
_atom_site_fract_x
_atom_site_fract_y
_atom_site_fract_z
Si Si1 0.670331 0.922359 0.895367
Si Si2 0.495325 0.830225 0.500000
Si Si3 0.066228 0.742466 0.403530
Si Si4 0.829536 0.334731 0.692767
Si Si5 0.747838 0.668821 0.000000
Si Si6 0.745900 0.671666 0.789200
O O1 0.724542 0.807091 0.895392
O O2 0.592129 0.902650 0.947583
O O3 0.598159 0.906384 0.842622
O O4 0.333104 0.799840 0.500000
O O5 0.578488 0.905011 0.451068
O O6 0.091721 0.676082 0.354682
O O7 0.909749 0.723570 0.404204
O O8 0.800226 0.466935 0.691117
O O9 0.897379 0.328155 0.743620
O O10 0.723278 0.805384 0.000000
O O11 0.723426 0.808430 0.786390
#
# Coordination Sequence:
#
# PCOD9581356 Si02
#       6
#    12   6  12  12   6  12
#     4   8  13  20  34  60  94 133 168 205 257 318
#     4  10  24  44  64 100 122 164 206 234 264 298
#     4  12  25  42  66  93 124 154 185 231 284 338
#     4  10  24  42  57  83 104 144 190 236 278 320
#     4   8  11  16  28  52  90 130 168 202 245 314
#     4  10  19  32  52  78 109 140 174 220 276 338
#
# _framework density 21.862435999999999
#
# number of rings (size 3 to 8) (size 9 to 14) (size 15 to 20)
#    0.600    1.600    0.000    3.700    0.000    9.600 
#    0.000    3.000    0.000    0.000    0.000    1.400 
#    0.000    8.000    0.000    0.000    0.000    0.000 
#
# Total GULP energy -334978.610211 kJ/mol
# GULP energy per Si atom -5582.976837 kJ/mol
# Density = 2.181268 g / cm^3
# Si number density = 21.862436 Si / 1000 Ang^3
#
#
#
# Elastic Constant Matrix: (Units=GPa)
#
#
# Indices 1 2 3 4 5 6 
#
# 1 80.7399 16.2209 48.7472 0.0000 0.0000 0.0000
# 2 16.2209 80.7399 48.7472 0.0000 0.0000 0.0000
# 3 48.7472 48.7472 240.3460 0.0000 0.0000 0.0000
# 4 0.0000 0.0000 0.0000 -71.8227 0.0000 0.0000
# 5 0.0000 0.0000 0.0000 0.0000 -71.8227 0.0000
# 6 0.0000 0.0000 0.0000 0.0000 0.0000 32.2595
#
#
#
# Elastic Compliance Matrix: (Units=1/GPa)
#
#
# Indices 1 2 3 4 5 6 
#
# 1 0.014227 -0.001272 -0.002628 0.000000 0.000000 0.000000
# 2 -0.001272 0.014227 -0.002628 0.000000 0.000000 0.000000
# 3 -0.002628 -0.002628 0.005227 0.000000 0.000000 0.000000
# 4 0.000000 0.000000 0.000000 -0.013923 0.000000 0.000000
# 5 0.000000 0.000000 0.000000 0.000000 -0.013923 0.000000
# 6 0.000000 0.000000 0.000000 0.000000 0.000000 0.030999
#
#
# Mechanical properties :
#
#
# Convention : Reuss Voigt Hill
#
# Bulk Modulus (GPa) = 48.48006 69.91741 59.19873
# Shear Modulus (GPa) = 88.08434 -3.06983 42.50725
#
# Velocity S-wave (km/s) = 6.35435 -1.18626 4.41421
# Velocity P-wave (km/s) = 8.72125 5.49307 7.28814
#
# Compressibility (1/GPa) = 0.02062704
#
# Stress axis : x y z
#
# Youngs Moduli (GPa) = 70.28673 70.28673 191.33047
#
# Poissons Ratio (x) = 0.08940 0.50275
# Poissons Ratio (y) = 0.08940 0.50275
# Poissons Ratio (z) = 0.18469 0.18469
#
# Static dielectric constant tensor:
#      x y z
#    x 1.779050 0.000000 0.000000 
#    y 0.000000 1.779050 0.000000 
#    z 0.000000 0.000000 1.822350 
# 
# From -- ./inp_files/3305.got.cif
#   From: 2010.05.17/outbox.cif.g08.bks.cpg/sg175_2_cif.got.tgz:3305.got - 2010.05.20 11:23:22.
