data_PCOD9581187
_publ_section_title
;
Structure prediction by ZEFSAII (Michael W. Deem and Ramdas Pophale) SiO2 
 PCOD9581187
Probable space group: P -6
;
_chemical_formula_sum "Si O2"
_cell_formula_units_Z 17
_cell_length_a 11.562732
_cell_length_b 11.562732
_cell_length_c 7.290926
_cell_angle_alpha 90.000000
_cell_angle_beta 90.000000
_cell_angle_gamma 120.000000
_cell_volume 844.178411
_symmetry_space_group_name_H-M "P -6"
_symmetry_group_IT_number 174
_symmetry_cell_setting 'hexagonal'
loop_
_space_group_symop_operation_xyz
x,y,z
-x+y,-x,-z
-y,x-y,z
x,y,-z
-x+y,-x,z
-y,x-y,-z
loop_
_atom_site_type_symbol
_atom_site_label
_atom_site_fract_x
_atom_site_fract_y
_atom_site_fract_z
Si Si1 0.902552 0.624030 0.278795
Si Si2 0.344438 0.527274 0.278212
Si Si3 0.666667 0.333333 0.721721
Si Si4 0.910352 0.084184 0.000000
O O1 0.901754 0.636314 0.500000
O O2 0.786553 0.477224 0.223773
O O3 0.045684 0.643300 0.218341
O O4 0.880715 0.733868 0.177390
O O5 0.463065 0.676395 0.225098
O O6 0.345564 0.522956 0.500000
O O7 0.666667 0.333334 0.500000
O O8 0.855999 0.924584 0.000000
#
# Coordination Sequence:
#
# PCOD9581187 Si02
#       4
#     6   6   2   3
#     4  10  20  39  64  89 127 164 198 257 312 360
#     4   7  13  28  53  87 119 154 198 240 291 354
#     4   9  21  37  62 103 124 161 217 238 305 397
#     4  10  26  44  56  88 120 152 218 260 294 382
#
# _framework density 20.137926
#
# number of rings (size 3 to 8) (size 9 to 14) (size 15 to 20)
#    1.059    2.118    0.000    0.000    0.000    5.647 
#    0.000    8.824    0.000    0.000    0.000    0.000 
#    0.000    0.000    0.000    0.000    0.000    0.000 
#
# Total GULP energy -94656.804010 kJ/mol
# GULP energy per Si atom -5568.047295 kJ/mol
# Density = 2.009209 g / cm^3
# Si number density = 20.137926 Si / 1000 Ang^3
#
#
#
# Elastic Constant Matrix: (Units=GPa)
#
#
# Indices 1 2 3 4 5 6 
#
# 1 76.4957 3.6096 20.1056 0.0000 0.0000 0.0000
# 2 3.6096 76.4962 20.1057 0.0000 0.0000 0.0001
# 3 20.1056 20.1057 97.3203 0.0000 0.0000 0.0001
# 4 0.0000 0.0000 0.0000 -47.0870 0.0056 0.0000
# 5 0.0000 0.0000 0.0000 0.0056 -47.0862 0.0000
# 6 0.0000 0.0001 0.0001 0.0000 0.0000 36.4435
#
#
#
# Elastic Compliance Matrix: (Units=1/GPa)
#
#
# Indices 1 2 3 4 5 6 
#
# 1 0.013824 0.000104 -0.002877 0.000000 0.000000 0.000000
# 2 0.000104 0.013824 -0.002877 0.000000 0.000000 0.000000
# 3 -0.002877 -0.002877 0.011464 0.000000 0.000000 0.000000
# 4 0.000000 0.000000 0.000000 -0.021237 -0.000003 0.000000
# 5 0.000000 0.000000 0.000000 -0.000003 -0.021238 0.000000
# 6 0.000000 0.000000 0.000000 0.000000 0.000000 0.027440
#
#
# Mechanical properties :
#
#
# Convention : Reuss Voigt Hill
#
# Bulk Modulus (GPa) = 35.95764 37.55042 36.75403
# Shear Modulus (GPa) = 111.98506 2.22015 57.10261
#
# Velocity S-wave (km/s) = 7.46524 1.05113 5.33079
# Velocity P-wave (km/s) = 9.60212 4.49002 7.49537
#
# Compressibility (1/GPa) = 0.02781050
#
# Stress axis : x y z
#
# Youngs Moduli (GPa) = 72.33793 72.33843 87.22772
#
# Poissons Ratio (x) = -0.00752 0.25099
# Poissons Ratio (y) = -0.00752 0.25099
# Poissons Ratio (z) = 0.20815 0.20815
#
# Static dielectric constant tensor:
#      x y z
#    x 1.697900 0.000000 0.000000 
#    y 0.000000 1.697900 0.000000 
#    z 0.000000 0.000000 1.751180 
# 
# From -- ./inp_files/138.got.cif
#   From: 2010.05.17/outbox.cif.g08.bks.cpg/sg174_cif.got.tgz:138.got - 2010.05.20 11:22:48.
