data_PCOD9581838
_publ_section_title
;
Structure prediction by ZEFSAII (Michael W. Deem and Ramdas Pophale) SiO2 
 PCOD9581838
Probable space group: P 63/M
;
_chemical_formula_sum "Si O2"
_cell_formula_units_Z 64
_cell_length_a 15.014890
_cell_length_b 15.014890
_cell_length_c 14.407934
_cell_angle_alpha 90.000000
_cell_angle_beta 90.000000
_cell_angle_gamma 120.000000
_cell_volume 2813.044820
_symmetry_space_group_name_H-M "P 63/M"
_symmetry_group_IT_number 176
_symmetry_cell_setting 'hexagonal'
loop_
_space_group_symop_operation_xyz
x,y,z
x-y,x,1/2+z
-y,x-y,z
-x,-y,1/2+z
-x+y,-x,z
y,-x+y,1/2+z
-x,-y,-z
-x+y,-x,1/2-z
y,-x+y,-z
x,y,1/2-z
x-y,x,-z
-y,x-y,1/2-z
loop_
_atom_site_type_symbol
_atom_site_label
_atom_site_fract_x
_atom_site_fract_y
_atom_site_fract_z
Si Si1 0.666668 0.333334 0.635919
Si Si2 0.597674 0.094384 0.364413
Si Si3 0.073981 0.847639 0.886628
Si Si4 0.330347 0.461316 0.359343
Si Si5 0.184746 0.727310 0.643850
Si Si6 0.076651 0.843990 0.109931
O O1 0.666667 0.333334 0.750000
O O2 0.673915 0.439922 0.604443
O O3 0.598275 0.090004 0.250000
O O4 0.712364 0.177334 0.397164
O O5 0.524521 0.138269 0.395165
O O6 0.559797 0.978910 0.397583
O O7 0.099757 0.761145 0.856793
O O8 0.960840 0.819585 0.856311
O O9 0.165154 0.959298 0.856330
O O10 0.073582 0.848106 0.998381
O O11 0.352282 0.482062 0.250000
O O12 0.224920 0.352737 0.367479
O O13 0.212735 0.718705 0.750000
#
# Coordination Sequence:
#
# PCOD9581838 Si02
#       6
#     4  12  12  12  12  12
#     4   9  21  36  54  78 111 153 187 215 268 324
#     4   9  18  32  54  81 111 139 172 223 273 318
#     4  10  21  37  57  81 108 144 180 223 281 331
#     4  10  20  37  57  80 109 145 185 226 265 321
#     4  10  19  34  56  84 110 140 181 223 273 326
#     4  10  21  38  57  79 110 143 182 225 276 335
#
# _framework density 22.751147
#
# number of rings (size 3 to 8) (size 9 to 14) (size 15 to 20)
#    0.000    2.250    1.875    0.750    2.625    3.750 
#    0.000    2.812    0.000    2.250    0.000    0.000 
#    0.000    0.000    0.000    0.000    0.000    0.000 
#
# Total GULP energy -357616.466033 kJ/mol
# GULP energy per Si atom -5587.757282 kJ/mol
# Density = 2.269936 g / cm^3
# Si number density = 22.751147 Si / 1000 Ang^3
#
#
#
# Elastic Constant Matrix: (Units=GPa)
#
#
# Indices 1 2 3 4 5 6 
#
# 1 140.0938 53.4820 -3.1998 0.0000 0.0000 -0.0001
# 2 53.4820 140.0939 -3.1996 0.0000 0.0000 -0.0006
# 3 -3.1998 -3.1996 64.3322 0.0000 0.0000 -0.0001
# 4 0.0000 0.0000 0.0000 14.9797 0.0000 0.0000
# 5 0.0000 0.0000 0.0000 0.0000 14.9794 0.0000
# 6 -0.0001 -0.0006 -0.0001 0.0000 0.0000 43.3054
#
#
#
# Elastic Compliance Matrix: (Units=1/GPa)
#
#
# Indices 1 2 3 4 5 6 
#
# 1 0.008360 -0.003186 0.000257 0.000000 0.000000 0.000000
# 2 -0.003186 0.008360 0.000257 0.000000 0.000000 0.000000
# 3 0.000257 0.000257 0.015570 0.000000 0.000000 0.000000
# 4 0.000000 0.000000 0.000000 0.066757 0.000000 0.000000
# 5 0.000000 0.000000 0.000000 0.000000 0.066758 0.000000
# 6 0.000000 0.000000 0.000000 0.000000 0.000000 0.023092
#
#
# Mechanical properties :
#
#
# Convention : Reuss Voigt Hill
#
# Bulk Modulus (GPa) = 37.10815 48.74278 42.92546
# Shear Modulus (GPa) = 24.60367 34.48208 29.54288
#
# Velocity S-wave (km/s) = 3.29207 3.89732 3.60741
# Velocity P-wave (km/s) = 5.54943 6.45933 6.02159
#
# Compressibility (1/GPa) = 0.02694826
#
# Stress axis : x y z
#
# Youngs Moduli (GPa) = 119.61577 119.61587 64.22642
#
# Poissons Ratio (x) = 0.38106 -0.01653
# Poissons Ratio (y) = 0.38105 -0.01653
# Poissons Ratio (z) = -0.03079 -0.03078
#
# Static dielectric constant tensor:
#      x y z
#    x 1.799650 0.000000 0.000000 
#    y 0.000000 1.799650 0.000000 
#    z 0.000000 0.000000 1.916480 
# 
# From -- ./inp_files/3300.got.cif
#   From: 2010.05.17/outbox.cif.g08.bks.cpg/sg176_2_cif.got.tgz:3300.got - 2010.06.03 11:36:45.
