data_PCOD9581853
_publ_section_title
;
Structure prediction by ZEFSAII (Michael W. Deem and Ramdas Pophale) SiO2 
 PCOD9581853
Probable space group: P 63/M
;
_chemical_formula_sum "Si O2"
_cell_formula_units_Z 78
_cell_length_a 24.406524
_cell_length_b 24.406524
_cell_length_c 7.721801
_cell_angle_alpha 90.000000
_cell_angle_beta 90.000000
_cell_angle_gamma 120.000000
_cell_volume 3983.465858
_symmetry_space_group_name_H-M "P 63/M"
_symmetry_group_IT_number 176
_symmetry_cell_setting 'hexagonal'
loop_
_space_group_symop_operation_xyz
x,y,z
x-y,x,1/2+z
-y,x-y,z
-x,-y,1/2+z
-x+y,-x,z
y,-x+y,1/2+z
-x,-y,-z
-x+y,-x,1/2-z
y,-x+y,-z
x,y,1/2-z
x-y,x,-z
-y,x-y,1/2-z
loop_
_atom_site_type_symbol
_atom_site_label
_atom_site_fract_x
_atom_site_fract_y
_atom_site_fract_z
Si Si1 0.504338 0.756785 0.053403
Si Si2 0.082785 0.273311 0.457399
Si Si3 0.435375 0.436624 0.542251
Si Si4 0.699011 0.110730 0.538161
Si Si5 0.057094 0.796954 0.542199
Si Si6 0.726192 0.314331 0.250000
Si Si7 0.298918 0.403067 0.539748
O O1 0.480851 0.740140 0.250000
O O2 0.532982 0.713493 0.990941
O O3 0.452976 0.753523 0.920728
O O4 0.562858 0.827711 0.045872
O O5 0.078609 0.276229 0.250000
O O6 0.099431 0.343314 0.521543
O O7 0.137999 0.257283 0.491780
O O8 0.012770 0.221405 0.521900
O O9 0.500000 0.500000 0.500000
O O10 0.431803 0.431835 0.750000
O O11 0.428163 0.370442 0.478856
O O12 0.371893 0.436142 0.485317
O O13 0.699810 0.109338 0.750000
O O14 0.055583 0.798144 0.750000
O O15 0.068007 0.738828 0.493719
O O16 0.732442 0.382728 0.250000
O O17 0.295763 0.407474 0.750000
#
# Coordination Sequence:
#
# PCOD9581853 Si02
#       7
#    12  12  12  12  12   6  12
#     4  11  22  39  68  94 116 158 206 256 310 371
#     4  10  19  35  58  85 121 159 197 248 305 363
#     4  10  21  38  55  81 121 160 194 240 300 363
#     4   9  18  35  58  85 118 155 196 240 302 363
#     4  10  20  34  58  88 119 162 202 246 305 366
#     4  10  26  48  64  84 118 154 212 262 318 370
#     4  10  19  35  59  86 123 161 198 243 305 368
#
# _framework density 19.580938
#
# number of rings (size 3 to 8) (size 9 to 14) (size 15 to 20)
#    0.154    1.846    3.846    0.000    0.000    3.077 
#    1.385    1.538    0.000    0.308    0.000    0.000 
#    0.000    0.000    0.000    0.000    0.000    0.000 
#
# Total GULP energy -435266.739197 kJ/mol
# GULP energy per Si atom -5580.342810 kJ/mol
# Density = 1.953637 g / cm^3
# Si number density = 19.580938 Si / 1000 Ang^3
#
#
#
# Elastic Constant Matrix: (Units=GPa)
#
#
# Indices 1 2 3 4 5 6 
#
# 1 87.3055 15.1727 4.2906 0.0000 0.0000 0.0000
# 2 15.1727 87.3055 4.2906 0.0000 0.0000 0.0000
# 3 4.2906 4.2906 42.3379 0.0000 0.0000 0.0000
# 4 0.0000 0.0000 0.0000 16.8490 0.0000 0.0000
# 5 0.0000 0.0000 0.0000 0.0000 16.8490 0.0000
# 6 0.0000 0.0000 0.0000 0.0000 0.0000 36.0664
#
#
#
# Elastic Compliance Matrix: (Units=1/GPa)
#
#
# Indices 1 2 3 4 5 6 
#
# 1 0.011853 -0.002011 -0.000997 0.000000 0.000000 0.000000
# 2 -0.002011 0.011853 -0.000997 0.000000 0.000000 0.000000
# 3 -0.000997 -0.000997 0.023822 0.000000 0.000000 0.000000
# 4 0.000000 0.000000 0.000000 0.059351 0.000000 0.000000
# 5 0.000000 0.000000 0.000000 0.000000 0.059351 0.000000
# 6 0.000000 0.000000 0.000000 0.000000 0.000000 0.027727
#
#
# Mechanical properties :
#
#
# Convention : Reuss Voigt Hill
#
# Bulk Modulus (GPa) = 25.30649 29.38405 27.34527
# Shear Modulus (GPa) = 23.24096 26.83256 25.03676
#
# Velocity S-wave (km/s) = 3.44890 3.70583 3.57967
# Velocity P-wave (km/s) = 5.36768 5.77494 5.57503
#
# Compressibility (1/GPa) = 0.03951555
#
# Stress axis : x y z
#
# Youngs Moduli (GPa) = 84.37034 84.37034 41.97867
#
# Poissons Ratio (x) = 0.16965 0.04187
# Poissons Ratio (y) = 0.16965 0.04187
# Poissons Ratio (z) = 0.08415 0.08415
#
# Static dielectric constant tensor:
#      x y z
#    x 1.683760 0.000000 0.000000 
#    y 0.000000 1.683760 0.000000 
#    z 0.000000 0.000000 1.724970 
# 
# From -- ./inp_files/1277.got.cif
#   From: 2010.05.17/outbox.cif.g08.bks.cpg/sg176_1_cif.got.tgz:1277.got - 2010.06.03 11:36:45.
