data_PCOD9581556
_publ_section_title
;
Structure prediction by ZEFSAII (Michael W. Deem and Ramdas Pophale) SiO2 
 PCOD9581556
Probable space group: P 6/M
;
_chemical_formula_sum "Si O2"
_cell_formula_units_Z 72
_cell_length_a 23.775509
_cell_length_b 23.775509
_cell_length_c 8.765365
_cell_angle_alpha 90.000000
_cell_angle_beta 90.000000
_cell_angle_gamma 120.000000
_cell_volume 4291.017480
_symmetry_space_group_name_H-M "P 6/M"
_symmetry_group_IT_number 175
_symmetry_cell_setting 'hexagonal'
loop_
_space_group_symop_operation_xyz
x,y,z
x-y,x,z
-y,x-y,z
-x,-y,z
-x+y,-x,z
y,-x+y,z
-x,-y,-z
-x+y,-x,-z
y,-x+y,-z
x,y,-z
x-y,x,-z
-y,x-y,-z
loop_
_atom_site_type_symbol
_atom_site_label
_atom_site_fract_x
_atom_site_fract_y
_atom_site_fract_z
Si Si1 0.402388 0.913383 0.319177
Si Si2 0.044365 0.708640 0.685094
Si Si3 0.092196 0.942228 0.184235
Si Si4 0.279211 0.900926 0.818980
Si Si5 0.468536 0.070096 0.680316
Si Si6 0.145585 0.289497 0.317801
O O1 0.392117 0.898759 0.500000
O O2 0.333727 0.884076 0.236653
O O3 0.458271 0.899175 0.257724
O O4 0.435248 0.991814 0.305614
O O5 0.036539 0.701903 0.500000
O O6 0.083023 0.671293 0.735300
O O7 0.083239 0.784232 0.722775
O O8 0.973930 0.671220 0.760199
O O9 0.133042 0.910927 0.250500
O O10 0.016840 0.897095 0.230928
O O11 0.094733 0.941089 0.000000
O O12 0.208750 0.858341 0.746162
O O13 0.275406 0.898906 0.000000
O O14 0.476833 0.084805 0.500000
O O15 0.139615 0.287974 0.500000
#
# Coordination Sequence:
#
# PCOD9581556 Si02
#       6
#    12  12  12  12  12  12
#     4   8  13  25  45  66  90 118 147 175 210 257
#     4   9  18  33  50  67  90 121 158 195 233 278
#     4  10  21  37  55  72  91 118 156 204 259 316
#     4  11  21  31  45  66  95 126 154 187 229 280
#     4   7  11  23  45  68  88 114 145 178 215 254
#     4  11  22  34  49  68  92 123 159 199 244 293
#
# _framework density 16.779239
#
# number of rings (size 3 to 8) (size 9 to 14) (size 15 to 20)
#    0.000    2.667    0.000    5.167    0.000    5.333 
#    0.000    6.667    0.000    1.000    0.000    0.000 
#    1.667    0.000    3.000    0.000    1.000    0.000 
#
# Total GULP energy -401025.179803 kJ/mol
# GULP energy per Si atom -5569.794164 kJ/mol
# Density = 1.674105 g / cm^3
# Si number density = 16.779239 Si / 1000 Ang^3
#
#
#
# Elastic Constant Matrix: (Units=GPa)
#
#
# Indices 1 2 3 4 5 6 
#
# 1 35.8107 -10.2723 5.0306 0.0000 0.0000 0.0000
# 2 -10.2723 35.8107 5.0306 0.0000 0.0000 0.0000
# 3 5.0306 5.0306 16.9708 0.0000 0.0000 0.0000
# 4 0.0000 0.0000 0.0000 3.6333 0.0000 0.0000
# 5 0.0000 0.0000 0.0000 0.0000 3.6333 0.0000
# 6 0.0000 0.0000 0.0000 0.0000 0.0000 23.0415
#
#
#
# Elastic Compliance Matrix: (Units=1/GPa)
#
#
# Indices 1 2 3 4 5 6 
#
# 1 0.033017 0.011317 -0.013142 0.000000 0.000000 0.000000
# 2 0.011317 0.033017 -0.013142 0.000000 0.000000 0.000000
# 3 -0.013142 -0.013142 0.066716 0.000000 0.000000 0.000000
# 4 0.000000 0.000000 0.000000 0.275230 0.000000 0.000000
# 5 0.000000 0.000000 0.000000 0.000000 0.275230 0.000000
# 6 0.000000 0.000000 0.000000 0.000000 0.000000 0.043400
#
#
# Mechanical properties :
#
#
# Convention : Reuss Voigt Hill
#
# Bulk Modulus (GPa) = 9.72603 9.79667 9.76135
# Shear Modulus (GPa) = 6.32259 11.98185 9.15222
#
# Velocity S-wave (km/s) = 1.94327 2.67514 2.33802
# Velocity P-wave (km/s) = 3.29304 3.92340 3.62196
#
# Compressibility (1/GPa) = 0.10281690
#
# Stress axis : x y z
#
# Youngs Moduli (GPa) = 30.28737 30.28737 14.98888
#
# Poissons Ratio (x) = -0.34276 0.19698
# Poissons Ratio (y) = -0.34276 0.19698
# Poissons Ratio (z) = 0.39803 0.39803
#
# Static dielectric constant tensor:
#      x y z
#    x 1.587370 0.000000 0.000000 
#    y 0.000000 1.587370 0.000000 
#    z 0.000000 0.000000 1.563700 
# 
# From -- ./inp_files/1172.got.cif
#   From: 2010.05.17/outbox.cif.g08.bks.cpg/sg175_1_cif.got.tgz:1172.got - 2010.05.20 11:23:22.
