data_PCOD9581676
_publ_section_title
;
Structure prediction by ZEFSAII (Michael W. Deem and Ramdas Pophale) SiO2 
 PCOD9581676
Probable space group: P 6/M
;
_chemical_formula_sum "Si O2"
_cell_formula_units_Z 84
_cell_length_a 17.775894
_cell_length_b 17.775894
_cell_length_c 14.899179
_cell_angle_alpha 90.000000
_cell_angle_beta 90.000000
_cell_angle_gamma 120.000000
_cell_volume 4077.142336
_symmetry_space_group_name_H-M "P 6/M"
_symmetry_group_IT_number 175
_symmetry_cell_setting 'hexagonal'
loop_
_space_group_symop_operation_xyz
x,y,z
x-y,x,z
-y,x-y,z
-x,-y,z
-x+y,-x,z
y,-x+y,z
-x,-y,-z
-x+y,-x,-z
y,-x+y,-z
x,y,-z
x-y,x,-z
-y,x-y,-z
loop_
_atom_site_type_symbol
_atom_site_label
_atom_site_fract_x
_atom_site_fract_y
_atom_site_fract_z
Si Si1 0.678478 0.920672 0.209216
Si Si2 0.832456 0.345798 0.600461
Si Si3 0.159896 0.498706 0.867233
Si Si4 0.168549 0.484927 0.660233
Si Si5 0.157301 0.670769 0.099239
Si Si6 0.991817 0.324056 0.602715
Si Si7 0.085876 0.308477 0.100827
O O1 0.582990 0.898949 0.175156
O O2 0.695839 0.953927 0.312112
O O3 0.680705 0.835580 0.177528
O O4 0.747823 0.993798 0.143637
O O5 0.802642 0.312193 0.500000
O O6 0.770295 0.262568 0.660173
O O7 0.822899 0.429260 0.615095
O O8 0.931886 0.369015 0.607530
O O9 0.143671 0.489613 0.761661
O O10 0.147961 0.577061 0.899146
O O11 0.256868 0.515561 0.886561
O O12 0.097077 0.404069 0.905963
O O13 0.092172 0.396425 0.617868
O O14 0.133033 0.688416 0.000000
O O15 0.980876 0.288621 0.500000
O O16 0.099559 0.284670 0.000000
#
# Coordination Sequence:
#
# PCOD9581676 Si02
#       7
#    12  12  12  12  12  12  12
#     4  11  23  42  63  92 121 160 203 253 309 376
#     4  11  23  37  58  83 116 162 218 268 317 367
#     4  11  21  35  55  83 120 164 209 260 307 362
#     4  12  22  40  58  87 119 162 213 267 317 370
#     4  11  22  37  57  85 123 165 215 263 314 367
#     4  11  24  41  61  86 123 167 207 257 316 373
#     4  11  22  41  65  91 122 158 201 251 312 374
#
# _framework density 20.602665999999999
#
# number of rings (size 3 to 8) (size 9 to 14) (size 15 to 20)
#    0.000    0.857    1.429    9.143    0.000    1.714 
#    0.000    1.429    0.000    0.286    0.000    1.000 
#    0.000    0.000    0.000    1.286    0.000    0.286 
#
# Total GULP energy -469120.507422 kJ/mol
# GULP energy per Si atom -5584.767946 kJ/mol
# Density = 2.055577 g / cm^3
# Si number density = 20.602666 Si / 1000 Ang^3
#
#
#
# Elastic Constant Matrix: (Units=GPa)
#
#
# Indices 1 2 3 4 5 6 
#
# 1 40.1814 24.0691 9.2963 0.0000 0.0000 0.0000
# 2 24.0691 40.1814 9.2963 0.0000 0.0000 0.0000
# 3 9.2963 9.2963 153.9005 0.0000 0.0000 0.0000
# 4 0.0000 0.0000 0.0000 21.3143 0.0000 0.0000
# 5 0.0000 0.0000 0.0000 0.0000 21.3143 0.0000
# 6 0.0000 0.0000 0.0000 0.0000 0.0000 8.0561
#
#
#
# Elastic Compliance Matrix: (Units=1/GPa)
#
#
# Indices 1 2 3 4 5 6 
#
# 1 0.038953 -0.023112 -0.000957 0.000000 0.000000 0.000000
# 2 -0.023112 0.038953 -0.000957 0.000000 0.000000 0.000000
# 3 -0.000957 -0.000957 0.006613 0.000000 0.000000 0.000000
# 4 0.000000 0.000000 0.000000 0.046917 0.000000 0.000000
# 5 0.000000 0.000000 0.000000 0.000000 0.046917 0.000000
# 6 0.000000 0.000000 0.000000 0.000000 0.000000 0.124129
#
#
# Mechanical properties :
#
#
# Convention : Reuss Voigt Hill
#
# Bulk Modulus (GPa) = 29.01261 35.50963 32.26112
# Shear Modulus (GPa) = 13.73544 22.91039 18.32292
#
# Velocity S-wave (km/s) = 2.58482 3.33830 2.98543
# Velocity P-wave (km/s) = 4.79801 5.66850 5.25132
#
# Compressibility (1/GPa) = 0.03446778
#
# Stress axis : x y z
#
# Youngs Moduli (GPa) = 25.67213 25.67213 151.21032
#
# Poissons Ratio (x) = 0.59333 0.14469
# Poissons Ratio (y) = 0.59333 0.14469
# Poissons Ratio (z) = 0.02456 0.02456
#
# Static dielectric constant tensor:
#      x y z
#    x 1.726050 0.000000 0.000000 
#    y 0.000000 1.726050 0.000000 
#    z 0.000000 0.000000 1.796990 
# 
# From -- ./inp_files/2619.got.cif
#   From: 2010.05.17/outbox.cif.g08.bks.cpg/sg175_2_cif.got.tgz:2619.got - 2010.05.20 11:23:22.
