data_PCOD9581127
_publ_section_title
;
Structure prediction by ZEFSAII (Michael W. Deem and Ramdas Pophale) SiO2 
 PCOD9581127
Probable space group: P -6
;
_chemical_formula_sum "Si O2"
_cell_formula_units_Z 40
_cell_length_a 19.577081
_cell_length_b 19.577081
_cell_length_c 8.757414
_cell_angle_alpha 90.000000
_cell_angle_beta 90.000000
_cell_angle_gamma 120.000000
_cell_volume 2906.714575
_symmetry_space_group_name_H-M "P -6"
_symmetry_group_IT_number 174
_symmetry_cell_setting 'hexagonal'
loop_
_space_group_symop_operation_xyz
x,y,z
-x+y,-x,-z
-y,x-y,z
x,y,-z
-x+y,-x,z
-y,x-y,-z
loop_
_atom_site_type_symbol
_atom_site_label
_atom_site_fract_x
_atom_site_fract_y
_atom_site_fract_z
Si Si1 0.578630 0.709110 0.682850
Si Si2 0.000000 0.000000 0.185194
Si Si3 0.333335 0.666667 0.317362
Si Si4 0.049792 0.250172 0.816723
Si Si5 0.293239 0.426464 0.317407
Si Si6 0.157766 0.577217 0.818633
Si Si7 0.197759 0.244849 0.317664
Si Si8 0.912453 0.817496 0.815773
O O1 0.576905 0.703133 0.500000
O O2 0.666165 0.738555 0.743995
O O3 0.561058 0.780202 0.722228
O O4 0.511581 0.628765 0.756144
O O5 0.957693 0.909431 0.233164
O O6 0.000000 0.000000 0.000000
O O7 0.333334 0.666668 0.500000
O O8 0.377106 0.755481 0.256456
O O9 0.116512 0.230161 0.759714
O O10 0.963319 0.178699 0.775380
O O11 0.054819 0.256312 0.000000
O O12 0.305085 0.437843 0.500000
O O13 0.371226 0.489967 0.232614
O O14 0.262774 0.335189 0.281370
O O15 0.164656 0.577444 0.000000
O O16 0.186611 0.239642 0.500000
O O17 0.218990 0.180398 0.259033
O O18 0.917767 0.814739 0.000000
#
# Coordination Sequence:
#
# PCOD9581127 Si02
#       8
#     6   2   2   6   6   6   6   6
#     4  10  20  33  47  62  87 116 142 179 225 265
#     4   9  15  27  40  59  82 111 148 179 220 264
#     4  12  22  32  43  60  88 116 145 186 226 260
#     4  10  19  31  46  63  86 114 147 184 221 264
#     4   9  19  33  45  59  85 116 142 176 226 265
#     4  12  22  31  47  67  84 109 150 189 220 264
#     4  10  20  31  44  63  86 112 146 184 223 266
#     4  10  18  30  46  61  84 116 148 185 225 260
#
# _framework density 13.761240000000001
#
# number of rings (size 3 to 8) (size 9 to 14) (size 15 to 20)
#    0.000    1.800    3.000    4.050    0.000    4.200 
#    0.000    0.000    0.000    0.000    0.000    0.000 
#    0.000    0.000    0.000    0.900    0.000   14.400 
#
# Total GULP energy -223196.213116 kJ/mol
# GULP energy per Si atom -5579.905328 kJ/mol
# Density = 1.372992 g / cm^3
# Si number density = 13.761240 Si / 1000 Ang^3
#
#
#
# Elastic Constant Matrix: (Units=GPa)
#
#
# Indices 1 2 3 4 5 6 
#
# 1 88.8639 44.0624 39.1403 0.0000 0.0000 0.0003
# 2 44.0624 88.8641 39.1410 0.0000 0.0000 -0.0006
# 3 39.1403 39.1410 62.5377 0.0000 0.0000 -0.0002
# 4 0.0000 0.0000 0.0000 20.5350 -0.0001 0.0000
# 5 0.0000 0.0000 0.0000 -0.0001 20.5349 0.0000
# 6 0.0003 -0.0006 -0.0002 0.0000 0.0000 22.4007
#
#
#
# Elastic Compliance Matrix: (Units=1/GPa)
#
#
# Indices 1 2 3 4 5 6 
#
# 1 0.017117 -0.005203 -0.007457 0.000000 0.000000 0.000000
# 2 -0.005203 0.017118 -0.007457 0.000000 0.000000 0.000000
# 3 -0.007457 -0.007457 0.025325 0.000000 0.000000 0.000000
# 4 0.000000 0.000000 0.000000 0.048697 0.000000 0.000000
# 5 0.000000 0.000000 0.000000 0.000000 0.048698 0.000000
# 6 0.000000 0.000000 0.000000 0.000000 0.000000 0.044641
#
#
# Mechanical properties :
#
#
# Convention : Reuss Voigt Hill
#
# Bulk Modulus (GPa) = 51.74459 53.88368 52.81414
# Shear Modulus (GPa) = 20.13924 20.55559 20.34741
#
# Velocity S-wave (km/s) = 3.82969 3.86907 3.84943
# Velocity P-wave (km/s) = 7.56563 7.69420 7.63019
#
# Compressibility (1/GPa) = 0.01932569
#
# Stress axis : x y z
#
# Youngs Moduli (GPa) = 58.42005 58.41945 39.48744
#
# Poissons Ratio (x) = 0.30396 0.29445
# Poissons Ratio (y) = 0.30397 0.29446
# Poissons Ratio (z) = 0.43562 0.43564
#
# Static dielectric constant tensor:
#      x y z
#    x 1.450150 0.000000 0.000000 
#    y 0.000000 1.450150 0.000000 
#    z 0.000000 0.000000 1.459410 
# 
# From -- ./inp_files/496.got.cif
#   From: 2010.05.17/outbox.cif.g08.bks.cpg/sg174_cif.got.tgz:496.got - 2010.05.20 11:22:48.
