data_PCOD9581135
_publ_section_title
;
Structure prediction by ZEFSAII (Michael W. Deem and Ramdas Pophale) SiO2 
 PCOD9581135
Probable space group: P -6
;
_chemical_formula_sum "Si O2"
_cell_formula_units_Z 38
_cell_length_a 15.678661
_cell_length_b 15.678661
_cell_length_c 12.729144
_cell_angle_alpha 90.000000
_cell_angle_beta 90.000000
_cell_angle_gamma 120.000000
_cell_volume 2709.865721
_symmetry_space_group_name_H-M "P -6"
_symmetry_group_IT_number 174
_symmetry_cell_setting 'hexagonal'
loop_
_space_group_symop_operation_xyz
x,y,z
-x+y,-x,-z
-y,x-y,z
x,y,-z
-x+y,-x,z
-y,x-y,-z
loop_
_atom_site_type_symbol
_atom_site_label
_atom_site_fract_x
_atom_site_fract_y
_atom_site_fract_z
Si Si1 0.867238 0.532955 0.500000
Si Si2 0.015049 0.608574 0.694172
Si Si3 0.467046 0.132761 0.500000
Si Si4 0.866063 0.332897 0.123810
Si Si5 0.391429 0.984950 0.694172
Si Si6 0.561766 0.780884 0.627434
Si Si7 0.466832 0.332894 0.876190
Si Si8 0.333334 0.666668 0.626632
O O1 0.772714 0.545430 0.500000
O O2 0.836006 0.418004 0.500000
O O3 0.935494 0.580721 0.601656
O O4 0.043577 0.521791 0.691210
O O5 0.109561 0.713777 0.671478
O O6 0.959202 0.598503 0.802970
O O7 0.419282 0.064505 0.601656
O O8 0.840956 0.420479 0.140379
O O9 0.771382 0.228620 0.151494
O O10 0.959204 0.360703 0.197030
O O11 0.886729 0.332008 0.000000
O O12 0.286226 0.890437 0.671478
O O13 0.568805 0.784403 0.500000
O O14 0.446555 0.723281 0.658359
O O15 0.445277 0.332005 0.000000
O O16 0.333334 0.666668 0.500000
#
# Coordination Sequence:
#
# PCOD9581135 Si02
#       8
#     3   6   3   6   6   6   6   2
#     4  10  19  29  42  64  96 126 148 177 225 280
#     4  10  19  29  44  67  93 121 155 193 228 267
#     4  10  19  29  42  64  96 126 148 177 225 280
#     4   9  17  30  48  69  95 127 159 188 220 266
#     4  10  19  29  44  67  93 121 155 193 228 267
#     4  11  18  30  45  67  93 123 160 193 229 269
#     4   9  17  30  48  69  95 127 159 188 220 266
#     4   9  18  24  48  63  85 125 163 198 219 259
#
# _framework density 14.022835000000001
#
# number of rings (size 3 to 8) (size 9 to 14) (size 15 to 20)
#    0.000    2.211    3.158    1.421    0.000    1.263 
#    0.000    3.947    0.000    0.000    0.000    0.000 
#   22.105    0.000    0.000    0.000    0.000    0.000 
#
# Total GULP energy -211796.774014 kJ/mol
# GULP energy per Si atom -5573.599316 kJ/mol
# Density = 1.399092 g / cm^3
# Si number density = 14.022835 Si / 1000 Ang^3
#
#
#
# Elastic Constant Matrix: (Units=GPa)
#
#
# Indices 1 2 3 4 5 6 
#
# 1 101.3930 52.9059 44.9805 0.0000 0.0000 0.0000
# 2 52.9059 101.3924 44.9805 0.0000 0.0000 0.0000
# 3 44.9805 44.9805 61.0585 0.0000 0.0000 0.0000
# 4 0.0000 0.0000 0.0000 18.6470 0.0000 0.0000
# 5 0.0000 0.0000 0.0000 0.0000 18.6471 0.0000
# 6 0.0000 0.0000 0.0000 0.0000 0.0000 24.2438
#
#
#
# Elastic Compliance Matrix: (Units=1/GPa)
#
#
# Indices 1 2 3 4 5 6 
#
# 1 0.015992 -0.004632 -0.008369 0.000000 0.000000 0.000000
# 2 -0.004632 0.015992 -0.008369 0.000000 0.000000 0.000000
# 3 -0.008369 -0.008369 0.028708 0.000000 0.000000 0.000000
# 4 0.000000 0.000000 0.000000 0.053628 0.000000 0.000000
# 5 0.000000 0.000000 0.000000 0.000000 0.053628 0.000000
# 6 0.000000 0.000000 0.000000 0.000000 0.000000 0.041248
#
#
# Mechanical properties :
#
#
# Convention : Reuss Voigt Hill
#
# Bulk Modulus (GPa) = 55.70057 61.06418 58.38238
# Shear Modulus (GPa) = 19.38590 20.37271 19.87931
#
# Velocity S-wave (km/s) = 3.72217 3.81573 3.76924
# Velocity P-wave (km/s) = 7.63415 7.94064 7.78891
#
# Compressibility (1/GPa) = 0.01795314
#
# Stress axis : x y z
#
# Youngs Moduli (GPa) = 62.53074 62.53009 34.83345
#
# Poissons Ratio (x) = 0.28964 0.29151
# Poissons Ratio (y) = 0.28964 0.29152
# Poissons Ratio (z) = 0.52331 0.52331
#
# Static dielectric constant tensor:
#      x y z
#    x 1.445470 0.000000 0.000000 
#    y 0.000000 1.445470 0.000000 
#    z 0.000000 0.000000 1.470410 
# 
# From -- ./inp_files/751.got.cif
#   From: 2010.05.17/outbox.cif.g08.bks.cpg/sg174_cif.got.tgz:751.got - 2010.05.20 11:22:48.
