data_PCOD9581563
_publ_section_title
;
Structure prediction by ZEFSAII (Michael W. Deem and Ramdas Pophale) SiO2 
 PCOD9581563
Probable space group: P 6/M
;
_chemical_formula_sum "Si O2"
_cell_formula_units_Z 72
_cell_length_a 22.139440
_cell_length_b 22.139440
_cell_length_c 7.818218
_cell_angle_alpha 90.000000
_cell_angle_beta 90.000000
_cell_angle_gamma 120.000000
_cell_volume 3318.728086
_symmetry_space_group_name_H-M "P 6/M"
_symmetry_group_IT_number 175
_symmetry_cell_setting 'hexagonal'
loop_
_space_group_symop_operation_xyz
x,y,z
x-y,x,z
-y,x-y,z
-x,-y,z
-x+y,-x,z
y,-x+y,z
-x,-y,-z
-x+y,-x,-z
y,-x+y,-z
x,y,-z
x-y,x,-z
-y,x-y,-z
loop_
_atom_site_type_symbol
_atom_site_label
_atom_site_fract_x
_atom_site_fract_y
_atom_site_fract_z
Si Si1 0.601356 0.925123 0.304761
Si Si2 0.126894 0.147427 0.793420
Si Si3 0.189922 0.821737 0.193017
Si Si4 0.632499 0.452141 0.709222
Si Si5 0.785945 0.484615 0.707153
Si Si6 0.748547 0.025669 0.296606
O O1 0.595140 0.944168 0.500000
O O2 0.621935 0.864209 0.307908
O O3 0.523692 0.886716 0.228509
O O4 0.669609 0.990303 0.226485
O O5 0.053624 0.137428 0.732634
O O6 0.195453 0.218176 0.740986
O O7 0.124543 0.145704 0.000000
O O8 0.264521 0.827192 0.222737
O O9 0.201114 0.897690 0.224487
O O10 0.166039 0.799719 0.000000
O O11 0.631718 0.453791 0.500000
O O12 0.704968 0.455268 0.755653
O O13 0.566830 0.379936 0.764872
O O14 0.789558 0.488077 0.500000
O O15 0.745515 0.032369 0.500000
#
# Coordination Sequence:
#
# PCOD9581563 Si02
#       6
#    12  12  12  12  12  12
#     4   9  19  36  56  78 103 132 173 221 263 303
#     4  10  21  37  57  81 109 139 170 206 252 308
#     4  11  22  35  52  75 105 139 173 210 256 310
#     4   8  14  27  51  79 102 129 167 213 260 304
#     4   9  16  30  53  79 106 135 172 216 261 308
#     4  11  22  36  55  77 102 135 175 218 260 303
#
# _framework density 21.695058
#
# number of rings (size 3 to 8) (size 9 to 14) (size 15 to 20)
#    0.000    2.333    0.000    4.500    0.000    6.667 
#    0.000    4.167    0.000    6.000    0.000    0.000 
#    0.000    0.000    0.000    0.000    0.000    0.000 
#
# Total GULP energy -401960.905959 kJ/mol
# GULP energy per Si atom -5582.790361 kJ/mol
# Density = 2.164568 g / cm^3
# Si number density = 21.695058 Si / 1000 Ang^3
#
#
#
# Elastic Constant Matrix: (Units=GPa)
#
#
# Indices 1 2 3 4 5 6 
#
# 1 53.8345 -13.7251 -6.3734 0.0000 0.0000 0.0000
# 2 -13.7251 53.8345 -6.3734 0.0000 0.0000 0.0000
# 3 -6.3734 -6.3734 43.6511 0.0000 0.0000 0.0000
# 4 0.0000 0.0000 0.0000 28.0467 0.0000 0.0000
# 5 0.0000 0.0000 0.0000 0.0000 28.0467 0.0000
# 6 0.0000 0.0000 0.0000 0.0000 0.0000 33.7798
#
#
#
# Elastic Compliance Matrix: (Units=1/GPa)
#
#
# Indices 1 2 3 4 5 6 
#
# 1 0.020473 0.005672 0.003817 0.000000 0.000000 0.000000
# 2 0.005672 0.020473 0.003817 0.000000 0.000000 0.000000
# 3 0.003817 0.003817 0.024024 0.000000 0.000000 0.000000
# 4 0.000000 0.000000 0.000000 0.035655 0.000000 0.000000
# 5 0.000000 0.000000 0.000000 0.000000 0.035655 0.000000
# 6 0.000000 0.000000 0.000000 0.000000 0.000000 0.029603
#
#
# Mechanical properties :
#
#
# Convention : Reuss Voigt Hill
#
# Bulk Modulus (GPa) = 10.91905 10.93071 10.92488
# Shear Modulus (GPa) = 29.44664 29.82742 29.63703
#
# Velocity S-wave (km/s) = 3.68815 3.71192 3.70005
# Velocity P-wave (km/s) = 4.81461 4.83946 4.82705
#
# Compressibility (1/GPa) = 0.09158302
#
# Stress axis : x y z
#
# Youngs Moduli (GPa) = 48.84395 48.84395 41.62562
#
# Poissons Ratio (x) = -0.27702 -0.15890
# Poissons Ratio (y) = -0.27702 -0.15890
# Poissons Ratio (z) = -0.18645 -0.18645
#
# Static dielectric constant tensor:
#      x y z
#    x 1.789160 0.000000 0.000000 
#    y 0.000000 1.789160 0.000000 
#    z 0.000000 0.000000 1.809910 
# 
# From -- ./inp_files/1175.got.cif
#   From: 2010.05.17/outbox.cif.g08.bks.cpg/sg175_1_cif.got.tgz:1175.got - 2010.05.20 11:23:22.
