data_PCOD9581008
_publ_section_title
;
Structure prediction by ZEFSAII (Michael W. Deem and Ramdas Pophale) SiO2 
 PCOD9581008
Probable space group: P 63
;
_chemical_formula_sum "Si O2"
_cell_formula_units_Z 40
_cell_length_a 19.861397
_cell_length_b 19.861397
_cell_length_c 7.739892
_cell_angle_alpha 90.000000
_cell_angle_beta 90.000000
_cell_angle_gamma 120.000000
_cell_volume 2644.144086
_symmetry_space_group_name_H-M "P 63"
_symmetry_group_IT_number 173
_symmetry_cell_setting 'hexagonal'
loop_
_space_group_symop_operation_xyz
x,y,z
x-y,x,1/2+z
-y,x-y,z
-x,-y,1/2+z
-x+y,-x,z
y,-x+y,1/2+z
loop_
_atom_site_type_symbol
_atom_site_label
_atom_site_fract_x
_atom_site_fract_y
_atom_site_fract_z
Si Si1 0.913304 0.539670 0.935350
Si Si2 0.666668 0.333335 0.348628
Si Si3 0.754035 0.512052 0.346844
Si Si4 0.245968 0.487949 0.428849
Si Si5 0.473918 0.086296 0.432551
Si Si6 0.333334 0.666668 0.427085
Si Si7 0.086695 0.460335 0.840317
Si Si8 0.612374 0.526077 0.843119
O O1 0.842378 0.548417 0.863822
O O2 0.891559 0.449513 0.920589
O O3 0.000659 0.588888 0.863166
O O4 0.919016 0.559177 0.137835
O O5 0.708300 0.422302 0.405925
O O6 0.666668 0.333334 0.137856
O O7 0.700063 0.547283 0.398272
O O8 0.842382 0.548413 0.411859
O O9 0.756336 0.511635 0.137846
O O10 0.291701 0.577700 0.369780
O O11 0.299943 0.452722 0.377415
O O12 0.557947 0.108441 0.355069
O O13 0.481439 0.079979 0.637834
O O14 0.999341 0.411119 0.912505
#
# Coordination Sequence:
#
# PCOD9581008 Si02
#       8
#     6   2   6   6   6   2   6   6
#     4   9  18  31  43  55  77 109 136 158 197 251
#     4   9  15  24  40  56  70  99 142 167 181 231
#     4  10  17  29  44  55  73 107 140 162 194 244
#     4  10  17  29  44  55  73 107 140 162 194 244
#     4  10  19  28  40  61  82  98 128 175 209 226
#     4   9  15  24  40  56  70  99 142 167 181 231
#     4   9  18  31  43  55  77 109 136 158 197 251
#     4  10  19  28  40  61  82  98 128 175 209 226
#
# _framework density 15.127769000000001
#
# number of rings (size 3 to 8) (size 9 to 14) (size 15 to 20)
#    0.000    2.400    3.000    0.900    0.000    2.400 
#    0.000    0.000    0.000    0.000    0.000    0.000 
#    0.000    0.000    0.000    0.900    0.000   10.800 
#
# Total GULP energy -222907.546090 kJ/mol
# GULP energy per Si atom -5572.688652 kJ/mol
# Density = 1.509334 g / cm^3
# Si number density = 15.127769 Si / 1000 Ang^3
#
#
#
# Elastic Constant Matrix: (Units=GPa)
#
#
# Indices 1 2 3 4 5 6 
#
# 1 93.1874 42.7586 -3.5075 0.0000 0.0000 0.0000
# 2 42.7586 93.1877 -3.5075 0.0000 0.0000 0.0000
# 3 -3.5075 -3.5075 19.7536 0.0000 0.0000 0.0000
# 4 0.0000 0.0000 0.0000 11.4582 0.0000 0.0000
# 5 0.0000 0.0000 0.0000 0.0000 11.4582 0.0000
# 6 0.0000 0.0000 0.0000 0.0000 0.0000 25.2144
#
#
#
# Elastic Compliance Matrix: (Units=1/GPa)
#
#
# Indices 1 2 3 4 5 6 
#
# 1 0.013627 -0.006203 0.001318 0.000000 0.000000 0.000000
# 2 -0.006203 0.013627 0.001318 0.000000 0.000000 0.000000
# 3 0.001318 0.001318 0.051092 0.000000 0.000000 0.000000
# 4 0.000000 0.000000 0.000000 0.087274 0.000000 0.000000
# 5 0.000000 0.000000 0.000000 0.000000 0.087274 0.000000
# 6 0.000000 0.000000 0.000000 0.000000 0.000000 0.039660
#
#
# Mechanical properties :
#
#
# Convention : Reuss Voigt Hill
#
# Bulk Modulus (GPa) = 14.04252 30.84622 22.44437
# Shear Modulus (GPa) = 15.45959 20.98516 18.22238
#
# Velocity S-wave (km/s) = 3.20024 3.72855 3.47445
# Velocity P-wave (km/s) = 4.79147 6.24266 5.56457
#
# Compressibility (1/GPa) = 0.07121229
#
# Stress axis : x y z
#
# Youngs Moduli (GPa) = 73.38422 73.38441 19.57263
#
# Poissons Ratio (x) = 0.45520 -0.02580
# Poissons Ratio (y) = 0.45520 -0.02580
# Poissons Ratio (z) = -0.09674 -0.09673
#
# Static dielectric constant tensor:
#      x y z
#    x 1.517940 0.000000 0.000000 
#    y 0.000000 1.517940 0.000000 
#    z 0.000000 0.000000 1.582170 
# 
# From -- ./inp_files/640.got.cif
#   From: 2010.05.17/outbox.cif.g08.bks.cpg/sg173_cif.got.tgz:640.got - 2010.05.20 11:21:53.
