data_PCOD9581524
_publ_section_title
;
Structure prediction by ZEFSAII (Michael W. Deem and Ramdas Pophale) SiO2 
 PCOD9581524
Probable space group: P 6/M
;
_chemical_formula_sum "Si O2"
_cell_formula_units_Z 30
_cell_length_a 9.847150
_cell_length_b 9.847150
_cell_length_c 14.881478
_cell_angle_alpha 90.000000
_cell_angle_beta 90.000000
_cell_angle_gamma 120.000000
_cell_volume 1249.677082
_symmetry_space_group_name_H-M "P 6/M"
_symmetry_group_IT_number 175
_symmetry_cell_setting 'hexagonal'
loop_
_space_group_symop_operation_xyz
x,y,z
x-y,x,z
-y,x-y,z
-x,-y,z
-x+y,-x,z
y,-x+y,z
-x,-y,-z
-x+y,-x,-z
y,-x+y,-z
x,y,-z
x-y,x,-z
-y,x-y,-z
loop_
_atom_site_type_symbol
_atom_site_label
_atom_site_fract_x
_atom_site_fract_y
_atom_site_fract_z
Si Si1 0.742145 0.635066 0.500000
Si Si2 0.914027 0.643897 0.000000
Si Si3 0.500000 0.000000 0.843349
Si Si4 0.261849 0.364896 0.305365
O O1 0.928590 0.705666 0.500000
O O2 0.682987 0.553671 0.403576
O O3 0.789824 0.700539 0.000000
O O4 0.904136 0.547891 0.911071
O O5 0.527369 0.888061 0.776450
O O6 0.076546 0.298002 0.299773
#
# Coordination Sequence:
#
# PCOD9581524 Si02
#       4
#     6   6   6  12
#     4   8  15  29  58  90 128 164 215 267 312 356
#     4  11  25  50  74  98 117 155 208 268 326 385
#     4  11  24  39  58 100 128 161 194 247 330 376
#     4  10  20  39  63  96 128 172 218 267 313 363
#
# _framework density 24.0062
#
# number of rings (size 3 to 8) (size 9 to 14) (size 15 to 20)
#    0.000    2.000    0.000    3.200    0.000    4.000 
#   33.600    4.000    0.000    0.000    0.000    0.000 
#    0.000    0.000    0.000    0.000    0.000    0.000 
#
# Total GULP energy -167876.636932 kJ/mol
# GULP energy per Si atom -5595.887898 kJ/mol
# Density = 2.395156 g / cm^3
# Si number density = 24.006200 Si / 1000 Ang^3
#
#
#
# Elastic Constant Matrix: (Units=GPa)
#
#
# Indices 1 2 3 4 5 6 
#
# 1 85.7403 46.2263 68.0082 0.0000 0.0000 0.0000
# 2 46.2263 85.7403 68.0082 0.0000 0.0000 0.0000
# 3 68.0082 68.0082 260.3600 0.0000 0.0000 0.0000
# 4 0.0000 0.0000 0.0000 69.0162 0.0000 0.0000
# 5 0.0000 0.0000 0.0000 0.0000 69.0162 0.0000
# 6 0.0000 0.0000 0.0000 0.0000 0.0000 19.7570
#
#
#
# Elastic Compliance Matrix: (Units=1/GPa)
#
#
# Indices 1 2 3 4 5 6 
#
# 1 0.017838 -0.007469 -0.002709 0.000000 0.000000 0.000000
# 2 -0.007469 0.017838 -0.002709 0.000000 0.000000 0.000000
# 3 -0.002709 -0.002709 0.005256 0.000000 0.000000 0.000000
# 4 0.000000 0.000000 0.000000 0.014489 0.000000 0.000000
# 5 0.000000 0.000000 0.000000 0.000000 0.014489 0.000000
# 6 0.000000 0.000000 0.000000 0.000000 0.000000 0.050615
#
#
# Mechanical properties :
#
#
# Convention : Reuss Voigt Hill
#
# Bulk Modulus (GPa) = 65.96174 88.48065 77.22119
# Shear Modulus (GPa) = 33.03554 48.19776 40.61665
#
# Velocity S-wave (km/s) = 3.71364 4.48562 4.11776
# Velocity P-wave (km/s) = 6.77678 7.98531 7.40574
#
# Compressibility (1/GPa) = 0.01516030
#
# Stress axis : x y z
#
# Youngs Moduli (GPa) = 56.05877 56.05877 190.26471
#
# Poissons Ratio (x) = 0.41871 0.51534
# Poissons Ratio (y) = 0.41871 0.51534
# Poissons Ratio (z) = 0.15184 0.15184
#
# Static dielectric constant tensor:
#      x y z
#    x 1.895790 0.000000 0.000000 
#    y 0.000000 1.895790 0.000000 
#    z 0.000000 0.000000 1.952610 
# 
# From -- ./inp_files/2195.got.cif
#   From: 2010.05.17/outbox.cif.g08.bks.cpg/sg175_2_cif.got.tgz:2195.got - 2010.05.20 11:23:22.
