data_PCOD9581242
_publ_section_title
;
Structure prediction by ZEFSAII (Michael W. Deem and Ramdas Pophale) SiO2 
 PCOD9581242
Probable space group: P 6/M
;
_chemical_formula_sum "Si O2"
_cell_formula_units_Z 78
_cell_length_a 22.208453
_cell_length_b 22.208453
_cell_length_c 12.666557
_cell_angle_alpha 90.000000
_cell_angle_beta 90.000000
_cell_angle_gamma 120.000000
_cell_volume 5410.355824
_symmetry_space_group_name_H-M "P 6/M"
_symmetry_group_IT_number 175
_symmetry_cell_setting 'hexagonal'
loop_
_space_group_symop_operation_xyz
x,y,z
x-y,x,z
-y,x-y,z
-x,-y,z
-x+y,-x,z
y,-x+y,z
-x,-y,-z
-x+y,-x,-z
y,-x+y,-z
x,y,-z
x-y,x,-z
-y,x-y,-z
loop_
_atom_site_type_symbol
_atom_site_label
_atom_site_fract_x
_atom_site_fract_y
_atom_site_fract_z
Si Si1 0.471478 0.805386 0.628420
Si Si2 0.471479 0.666094 0.628420
Si Si3 0.083213 0.166424 0.500000
Si Si4 0.919364 0.292867 0.373054
Si Si5 0.081941 0.918057 0.874760
Si Si6 0.080637 0.373502 0.626946
Si Si7 0.273736 0.136867 0.304905
O O1 0.470210 0.805263 0.500000
O O2 0.464199 0.732100 0.660983
O O3 0.406391 0.812784 0.664628
O O4 0.546977 0.868143 0.659358
O O5 0.470211 0.664949 0.500000
O O6 0.546979 0.678836 0.659358
O O7 0.119739 0.119738 0.500000
O O8 0.108122 0.216242 0.397811
O O9 0.911139 0.280258 0.500000
O O10 0.897133 0.219337 0.320003
O O11 0.000000 0.346814 0.352648
O O12 0.116280 0.883718 0.804382
O O13 0.999999 0.881059 0.850395
O O14 0.089256 0.910742 0.000000
O O15 0.088861 0.369118 0.500000
O O16 0.102866 0.322203 0.679997
#
# Coordination Sequence:
#
# PCOD9581242 Si02
#       7
#    12  12   6  12  12  12  12
#     4   9  16  26  39  57  82 118 157 190 221 262
#     4   9  16  26  39  57  82 118 157 190 221 262
#     4  12  23  32  44  64  90 122 158 198 234 272
#     4  10  18  28  42  61  87 119 154 187 224 275
#     4  10  21  36  52  68  88 118 158 204 248 283
#     4  10  18  28  42  61  87 119 154 187 224 275
#     4  12  20  32  47  66  90 122 158 188 231 285
#
# _framework density 14.416797000000001
#
# number of rings (size 3 to 8) (size 9 to 14) (size 15 to 20)
#    0.000    1.846    3.077    3.308    0.000    2.462 
#    0.000    4.615    0.000    0.000    0.000    0.000 
#    0.000    1.231    0.000    6.462    0.000    0.308 
#
# Total GULP energy -435084.874525 kJ/mol
# GULP energy per Si atom -5578.011212 kJ/mol
# Density = 1.438398 g / cm^3
# Si number density = 14.416797 Si / 1000 Ang^3
#
#
#
# Elastic Constant Matrix: (Units=GPa)
#
#
# Indices 1 2 3 4 5 6 
#
# 1 151.8573 94.6381 31.3308 0.0000 0.0000 0.0000
# 2 94.6381 151.8573 31.3308 0.0000 0.0000 0.0000
# 3 31.3308 31.3308 20.0562 0.0000 0.0000 0.0000
# 4 0.0000 0.0000 0.0000 11.8532 0.0000 0.0000
# 5 0.0000 0.0000 0.0000 0.0000 11.8532 0.0000
# 6 0.0000 0.0000 0.0000 0.0000 0.0000 28.6096
#
#
#
# Elastic Compliance Matrix: (Units=1/GPa)
#
#
# Indices 1 2 3 4 5 6 
#
# 1 0.012103 -0.005374 -0.010512 0.000000 0.000000 0.000000
# 2 -0.005374 0.012103 -0.010512 0.000000 0.000000 0.000000
# 3 -0.010512 -0.010512 0.082702 0.000000 0.000000 0.000000
# 4 0.000000 0.000000 0.000000 0.084366 0.000000 0.000000
# 5 0.000000 0.000000 0.000000 0.000000 0.084366 0.000000
# 6 0.000000 0.000000 0.000000 0.000000 0.000000 0.034953
#
#
# Mechanical properties :
#
#
# Convention : Reuss Voigt Hill
#
# Bulk Modulus (GPa) = 18.47985 70.93004 44.70494
# Shear Modulus (GPa) = 13.10872 21.56125 17.33498
#
# Velocity S-wave (km/s) = 3.01868 3.87145 3.47135
# Velocity P-wave (km/s) = 4.99960 8.32409 6.86610
#
# Compressibility (1/GPa) = 0.05411299
#
# Stress axis : x y z
#
# Youngs Moduli (GPa) = 82.62490 82.62490 12.09155
#
# Poissons Ratio (x) = 0.44401 0.12711
# Poissons Ratio (y) = 0.44401 0.12711
# Poissons Ratio (z) = 0.86855 0.86855
#
# Static dielectric constant tensor:
#      x y z
#    x 1.475320 0.000000 0.000000 
#    y 0.000000 1.475320 0.000000 
#    z 0.000000 0.000000 1.445440 
# 
# From -- ./inp_files/2682.got.cif
#   From: 2010.05.17/outbox.cif.g08.bks.cpg/sg175_2_cif.got.tgz:2682.got - 2010.05.20 11:23:22.
