data_PCOD9581814
_publ_section_title
;
Structure prediction by ZEFSAII (Michael W. Deem and Ramdas Pophale) SiO2 
 PCOD9581814
Probable space group: P 63/M
;
_chemical_formula_sum "Si O2"
_cell_formula_units_Z 72
_cell_length_a 24.348930
_cell_length_b 24.348930
_cell_length_c 8.735904
_cell_angle_alpha 90.000000
_cell_angle_beta 90.000000
_cell_angle_gamma 120.000000
_cell_volume 4485.369720
_symmetry_space_group_name_H-M "P 63/M"
_symmetry_group_IT_number 176
_symmetry_cell_setting 'hexagonal'
loop_
_space_group_symop_operation_xyz
x,y,z
x-y,x,1/2+z
-y,x-y,z
-x,-y,1/2+z
-x+y,-x,z
y,-x+y,1/2+z
-x,-y,-z
-x+y,-x,1/2-z
y,-x+y,-z
x,y,1/2-z
x-y,x,-z
-y,x-y,1/2-z
loop_
_atom_site_type_symbol
_atom_site_label
_atom_site_fract_x
_atom_site_fract_y
_atom_site_fract_z
Si Si1 0.072760 0.809069 0.933591
Si Si2 0.737441 0.596026 0.932087
Si Si3 0.264825 0.190998 0.566364
Si Si4 0.528629 0.595202 0.566204
Si Si5 0.927402 0.399750 0.067748
Si Si6 0.404862 0.259392 0.433502
O O1 0.079114 0.812080 0.750000
O O2 0.999404 0.781909 0.973198
O O3 0.096018 0.761759 0.996436
O O4 0.121201 0.877459 0.003780
O O5 0.741516 0.601708 0.750000
O O6 0.666198 0.549291 0.985181
O O7 0.786879 0.575560 0.993486
O O8 0.271007 0.191505 0.750000
O O9 0.334140 0.236375 0.494737
O O10 0.536245 0.591949 0.750000
O O11 0.456258 0.543103 0.528691
O O12 0.573500 0.573510 0.483746
O O13 0.549670 0.667139 0.527108
O O14 0.922066 0.390131 0.250000
O O15 0.402446 0.252497 0.250000
#
# Coordination Sequence:
#
# PCOD9581814 Si02
#       6
#    12  12  12  12  12  12
#     4  10  20  33  50  72  97 127 160 195 238 283
#     4  11  21  32  48  71  98 128 161 196 237 282
#     4  10  20  32  48  72  98 125 158 194 235 282
#     4   9  19  33  50  73  98 126 159 195 237 284
#     4  10  19  32  50  72  99 128 159 195 236 283
#     4  10  19  32  50  71  96 126 159 195 237 282
#
# _framework density 16.052188999999998
#
# number of rings (size 3 to 8) (size 9 to 14) (size 15 to 20)
#    0.000    2.000    0.000    6.500    0.000    7.333 
#    0.000    0.000    0.000    1.000    0.000    2.333 
#    0.000    0.000    0.000    0.000    0.000    0.000 
#
# Total GULP energy -401894.366418 kJ/mol
# GULP energy per Si atom -5581.866200 kJ/mol
# Density = 1.601565 g / cm^3
# Si number density = 16.052189 Si / 1000 Ang^3
#
#
#
# Elastic Constant Matrix: (Units=GPa)
#
#
# Indices 1 2 3 4 5 6 
#
# 1 117.2256 76.3751 44.7204 0.0000 0.0000 0.0000
# 2 76.3751 117.2256 44.7204 0.0000 0.0000 0.0000
# 3 44.7204 44.7204 61.0606 0.0000 0.0000 0.0000
# 4 0.0000 0.0000 0.0000 23.2677 0.0000 0.0000
# 5 0.0000 0.0000 0.0000 0.0000 23.2677 0.0000
# 6 0.0000 0.0000 0.0000 0.0000 0.0000 20.4252
#
#
#
# Elastic Compliance Matrix: (Units=1/GPa)
#
#
# Indices 1 2 3 4 5 6 
#
# 1 0.016143 -0.008336 -0.005718 0.000000 0.000000 0.000000
# 2 -0.008336 0.016143 -0.005718 0.000000 0.000000 0.000000
# 3 -0.005718 -0.005718 0.024752 0.000000 0.000000 0.000000
# 4 0.000000 0.000000 0.000000 0.042978 0.000000 0.000000
# 5 0.000000 0.000000 0.000000 0.000000 0.042978 0.000000
# 6 0.000000 0.000000 0.000000 0.000000 0.000000 0.048959
#
#
# Mechanical properties :
#
#
# Convention : Reuss Voigt Hill
#
# Bulk Modulus (GPa) = 57.15823 69.68266 63.42044
# Shear Modulus (GPa) = 21.06784 22.03851 21.55318
#
# Velocity S-wave (km/s) = 3.62672 3.70933 3.66825
# Velocity P-wave (km/s) = 7.29537 7.86446 7.58526
#
# Compressibility (1/GPa) = 0.01749529
#
# Stress axis : x y z
#
# Youngs Moduli (GPa) = 61.94592 61.94592 40.40039
#
# Poissons Ratio (x) = 0.51641 0.23099
# Poissons Ratio (y) = 0.51641 0.23099
# Poissons Ratio (z) = 0.35418 0.35418
#
# Static dielectric constant tensor:
#      x y z
#    x 1.524260 0.000000 0.000000 
#    y 0.000000 1.524260 0.000000 
#    z 0.000000 0.000000 1.539110 
# 
# From -- ./inp_files/1180.got.cif
#   From: 2010.05.17/outbox.cif.g08.bks.cpg/sg176_1_cif.got.tgz:1180.got - 2010.06.03 11:36:45.
