data_PCOD9581363
_publ_section_title
;
Structure prediction by ZEFSAII (Michael W. Deem and Ramdas Pophale) SiO2 
 PCOD9581363
Probable space group: P 6/M
;
_chemical_formula_sum "Si O2"
_cell_formula_units_Z 66
_cell_length_a 10.956495
_cell_length_b 10.956495
_cell_length_c 29.752951
_cell_angle_alpha 90.000000
_cell_angle_beta 90.000000
_cell_angle_gamma 120.000000
_cell_volume 3093.171275
_symmetry_space_group_name_H-M "P 6/M"
_symmetry_group_IT_number 175
_symmetry_cell_setting 'hexagonal'
loop_
_space_group_symop_operation_xyz
x,y,z
x-y,x,z
-y,x-y,z
-x,-y,z
-x+y,-x,z
y,-x+y,z
-x,-y,-z
-x+y,-x,-z
y,-x+y,-z
x,y,-z
x-y,x,-z
-y,x-y,-z
loop_
_atom_site_type_symbol
_atom_site_label
_atom_site_fract_x
_atom_site_fract_y
_atom_site_fract_z
Si Si1 0.745291 0.679246 0.353750
Si Si2 0.681981 0.936293 0.083602
Si Si3 0.253888 0.318241 0.815185
Si Si4 0.657735 0.487930 0.000000
Si Si5 0.747017 0.679241 0.548100
Si Si6 0.829466 0.340459 0.268746
O O1 0.726613 0.815786 0.350608
O O2 0.691979 0.609799 0.403249
O O3 0.668116 0.573280 0.313249
O O4 0.728085 0.818185 0.079147
O O5 0.623959 0.923939 0.134211
O O6 0.570351 0.905669 0.044771
O O7 0.271797 0.182211 0.810732
O O8 0.334086 0.429855 0.776286
O O9 0.532589 0.327279 0.000000
O O10 0.728309 0.815968 0.548066
O O11 0.687967 0.603382 0.500000
O O12 0.795494 0.466760 0.268985
#
# Coordination Sequence:
#
# PCOD9581363 Si02
#       6
#    12  12  12   6  12  12
#     4  10  19  32  54  81 107 135 170 219 274 322
#     4  10  21  38  62  89 114 142 177 223 278 328
#     4  10  21  38  62  89 113 136 169 222 282 332
#     4  10  24  40  54  80 120 156 196 228 258 300
#     4   8  13  22  40  70 105 134 160 199 260 328
#     4  10  24  40  52  73 105 145 191 219 254 309
#
# _framework density 21.337326000000001
#
# number of rings (size 3 to 8) (size 9 to 14) (size 15 to 20)
#    0.545    1.818    0.000    2.364    0.000    9.455 
#    0.000    6.364    0.000    1.091    0.000    5.091 
#    0.000    0.000    0.000    0.000    0.000    0.000 
#
# Total GULP energy -368463.304335 kJ/mol
# GULP energy per Si atom -5582.777338 kJ/mol
# Density = 2.128876 g / cm^3
# Si number density = 21.337326 Si / 1000 Ang^3
#
#
#
# Elastic Constant Matrix: (Units=GPa)
#
#
# Indices 1 2 3 4 5 6 
#
# 1 79.0212 11.2674 59.9344 0.0000 0.0000 0.0000
# 2 11.2674 79.0212 59.9344 0.0000 0.0000 0.0000
# 3 59.9344 59.9344 197.1377 0.0000 0.0000 0.0000
# 4 0.0000 0.0000 0.0000 -23.3110 0.0000 0.0000
# 5 0.0000 0.0000 0.0000 0.0000 -23.3110 0.0000
# 6 0.0000 0.0000 0.0000 0.0000 0.0000 33.8769
#
#
#
# Elastic Compliance Matrix: (Units=1/GPa)
#
#
# Indices 1 2 3 4 5 6 
#
# 1 0.016665 0.001906 -0.005646 0.000000 0.000000 0.000000
# 2 0.001906 0.016665 -0.005646 0.000000 0.000000 0.000000
# 3 -0.005646 -0.005646 0.008506 0.000000 0.000000 0.000000
# 4 0.000000 0.000000 0.000000 -0.042898 0.000000 0.000000
# 5 0.000000 0.000000 0.000000 0.000000 -0.042898 0.000000
# 6 0.000000 0.000000 0.000000 0.000000 0.000000 0.029519
#
#
# Mechanical properties :
#
#
# Convention : Reuss Voigt Hill
#
# Bulk Modulus (GPa) = 43.35736 68.60586 55.98161
# Shear Modulus (GPa) = 415.99744 12.38725 214.19234
#
# Velocity S-wave (km/s) = 13.97804 2.41206 10.03004
# Velocity P-wave (km/s) = 16.75942 6.32299 12.66606
#
# Compressibility (1/GPa) = 0.02306414
#
# Stress axis : x y z
#
# Youngs Moduli (GPa) = 60.00438 60.00438 117.56763
#
# Poissons Ratio (x) = -0.11438 0.66381
# Poissons Ratio (y) = -0.11438 0.66381
# Poissons Ratio (z) = 0.33880 0.33880
#
# Static dielectric constant tensor:
#      x y z
#    x 1.749720 0.000000 0.000000 
#    y 0.000000 1.749720 0.000000 
#    z 0.000000 0.000000 1.789260 
# 
# From -- ./inp_files/3359.got.cif
#   From: 2010.05.17/outbox.cif.g08.bks.cpg/sg175_2_cif.got.tgz:3359.got - 2010.05.20 11:23:22.
