data_PCOD9581178
_publ_section_title
;
Structure prediction by ZEFSAII (Michael W. Deem and Ramdas Pophale) SiO2 
 PCOD9581178
Probable space group: P -6
;
_chemical_formula_sum "Si O2"
_cell_formula_units_Z 28
_cell_length_a 12.791782
_cell_length_b 12.791782
_cell_length_c 7.295324
_cell_angle_alpha 90.000000
_cell_angle_beta 90.000000
_cell_angle_gamma 120.000000
_cell_volume 1033.801874
_symmetry_space_group_name_H-M "P -6"
_symmetry_group_IT_number 174
_symmetry_cell_setting 'hexagonal'
loop_
_space_group_symop_operation_xyz
x,y,z
-x+y,-x,-z
-y,x-y,z
x,y,-z
-x+y,-x,z
-y,x-y,-z
loop_
_atom_site_type_symbol
_atom_site_label
_atom_site_fract_x
_atom_site_fract_y
_atom_site_fract_z
Si Si1 0.333334 0.666668 0.214446
Si Si2 0.000000 0.000000 0.279421
Si Si3 0.605099 0.181130 0.721817
Si Si4 0.584383 0.719834 0.284354
Si Si5 0.650269 0.983427 0.724318
Si Si6 0.919203 0.182341 0.722153
O O1 0.439932 0.642141 0.273712
O O2 0.333334 0.666668 0.000000
O O3 0.000000 0.000000 0.500000
O O4 0.879805 0.878637 0.228495
O O5 0.744583 0.282748 0.772515
O O6 0.597753 0.174951 0.500000
O O7 0.577218 0.050795 0.783658
O O8 0.610744 0.736087 0.500000
O O9 0.679259 0.681017 0.214455
O O10 0.614051 0.850826 0.209656
O O11 0.645330 0.977218 0.500000
O O12 0.786164 0.081804 0.780929
O O13 0.906114 0.184640 0.500000
#
# Coordination Sequence:
#
# PCOD9581178 Si02
#       6
#     2   2   6   6   6   6
#     4  12  28  47  58  69 109 167 217 258 295 338
#     4   9  12  21  39  72 121 152 160 198 283 362
#     4   7  12  21  31  51  92 136 165 193 244 314
#     4  10  20  35  58  87 113 145 194 242 284 346
#     4   9  15  24  45  78 113 144 171 213 276 337
#     4   9  15  24  45  81 120 146 169 216 286 351
#
# _framework density 27.084492999999998
#
# number of rings (size 3 to 8) (size 9 to 14) (size 15 to 20)
#    0.429    2.571    2.143    0.643    0.000    1.714 
#    0.000    6.429    0.000    1.286    0.000    0.000 
#    0.000    0.000    0.000    0.000    0.000    0.000 
#
# Total GULP energy -156269.620387 kJ/mol
# GULP energy per Si atom -5581.057871 kJ/mol
# Density = 2.702285 g / cm^3
# Si number density = 27.084493 Si / 1000 Ang^3
#
#
#
# Elastic Constant Matrix: (Units=GPa)
#
#
# Indices 1 2 3 4 5 6 
#
# 1 96.6955 33.6512 -7.3887 0.0000 0.0000 0.0015
# 2 33.6512 96.7019 -7.3896 0.0000 0.0000 -0.0016
# 3 -7.3887 -7.3896 105.5009 0.0000 0.0000 0.0008
# 4 0.0000 0.0000 0.0000 -116.7799 0.0041 0.0000
# 5 0.0000 0.0000 0.0000 0.0041 -116.7827 0.0000
# 6 0.0015 -0.0016 0.0008 0.0000 0.0000 31.5267
#
#
#
# Elastic Compliance Matrix: (Units=1/GPa)
#
#
# Indices 1 2 3 4 5 6 
#
# 1 0.011797 -0.004064 0.000542 0.000000 0.000000 -0.000001
# 2 -0.004064 0.011797 0.000542 0.000000 0.000000 0.000001
# 3 0.000542 0.000542 0.009554 0.000000 0.000000 0.000000
# 4 0.000000 0.000000 0.000000 -0.008563 0.000000 0.000000
# 5 0.000000 0.000000 0.000000 0.000000 -0.008563 0.000000
# 6 -0.000001 0.000001 0.000000 0.000000 0.000000 0.031719
#
#
# Mechanical properties :
#
#
# Convention : Reuss Voigt Hill
#
# Bulk Modulus (GPa) = 36.78221 37.40488 37.09354
# Shear Modulus (GPa) = 79.66146 -21.73883 28.96132
#
# Velocity S-wave (km/s) = 5.42919 -2.83615 3.27356
# Velocity P-wave (km/s) = 7.27402 1.76507 5.29277
#
# Compressibility (1/GPa) = 0.02718706
#
# Stress axis : x y z
#
# Youngs Moduli (GPa) = 84.76416 84.76966 104.66313
#
# Poissons Ratio (x) = 0.34450 -0.05668
# Poissons Ratio (y) = 0.34448 -0.05669
# Poissons Ratio (z) = -0.04591 -0.04592
#
# Static dielectric constant tensor:
#      x y z
#    x 2.184630 -0.000010 0.000000 
#    y -0.000010 2.184630 0.000000 
#    z 0.000000 0.000000 2.109720 
# 
# From -- ./inp_files/275.got.cif
#   From: 2010.05.17/outbox.cif.g08.bks.cpg/sg174_cif.got.tgz:275.got - 2010.05.20 11:22:48.
