data_PCOD9581144
_publ_section_title
;
Structure prediction by ZEFSAII (Michael W. Deem and Ramdas Pophale) SiO2 
 PCOD9581144
Probable space group: P -6
;
_chemical_formula_sum "Si O2"
_cell_formula_units_Z 48
_cell_length_a 18.771490
_cell_length_b 18.771490
_cell_length_c 7.709796
_cell_angle_alpha 90.000000
_cell_angle_beta 90.000000
_cell_angle_gamma 120.000000
_cell_volume 2352.724155
_symmetry_space_group_name_H-M "P -6"
_symmetry_group_IT_number 174
_symmetry_cell_setting 'hexagonal'
loop_
_space_group_symop_operation_xyz
x,y,z
-x+y,-x,-z
-y,x-y,z
x,y,-z
-x+y,-x,z
-y,x-y,-z
loop_
_atom_site_type_symbol
_atom_site_label
_atom_site_fract_x
_atom_site_fract_y
_atom_site_fract_z
Si Si1 0.789299 0.760816 0.295530
Si Si2 0.427482 0.122632 0.295530
Si Si3 0.719066 0.147777 0.790446
Si Si4 0.237957 0.185557 0.209554
Si Si5 0.428102 0.856915 0.787596
Si Si6 0.523582 0.761435 0.212404
Si Si7 0.534882 0.043468 0.202238
Si Si8 0.710134 0.868215 0.202238
O O1 0.774184 0.758578 0.500000
O O2 0.739765 0.666667 0.228034
O O3 0.885456 0.792639 0.267936
O O4 0.755476 0.815547 0.213475
O O5 0.425244 0.107517 0.500000
O O6 0.459306 0.218789 0.267936
O O7 0.482213 0.088809 0.213475
O O8 0.760829 0.094162 0.736654
O O9 0.625843 0.102204 0.724236
O O10 0.718592 0.150116 0.000000
O O11 0.190306 0.231130 0.275764
O O12 0.235143 0.183217 0.000000
O O13 0.470274 0.803607 0.737051
O O14 0.333333 0.814607 0.730784
O O15 0.482727 0.951047 0.725648
O O16 0.426838 0.857864 0.000000
O O17 0.617714 0.816060 0.274352
O O18 0.524530 0.760171 0.000000
O O19 0.548036 0.031984 0.000000
O O20 0.698651 0.881369 0.000000
#
# Coordination Sequence:
#
# PCOD9581144 Si02
#       8
#     6   6   6   6   6   6   6   6
#     4  10  21  36  53  74 102 136 173 213 259 311
#     4  10  21  36  53  74 102 136 173 213 259 311
#     4   9  18  34  55  77 102 133 170 214 263 313
#     4   9  18  34  55  77 102 133 170 214 263 313
#     4   9  16  26  44  74 111 145 175 210 253 300
#     4   9  16  26  44  74 111 145 175 210 253 300
#     4  10  19  32  53  80 105 134 173 217 260 308
#     4  10  19  32  53  80 105 134 173 217 260 308
#
# _framework density 20.401882000000001
#
# number of rings (size 3 to 8) (size 9 to 14) (size 15 to 20)
#    0.000    2.500    0.000    2.500    0.000    7.500 
#    1.500    0.000    0.000    2.250    0.000    0.000 
#    0.000    2.000    0.000    0.000    0.000    0.000 
#
# Total GULP energy -267914.768019 kJ/mol
# GULP energy per Si atom -5581.557667 kJ/mol
# Density = 2.035545 g / cm^3
# Si number density = 20.401882 Si / 1000 Ang^3
#
#
#
# Elastic Constant Matrix: (Units=GPa)
#
#
# Indices 1 2 3 4 5 6 
#
# 1 93.6887 49.7887 -13.4872 0.0000 0.0000 0.0000
# 2 49.7887 93.6887 -13.4872 0.0000 0.0000 0.0000
# 3 -13.4872 -13.4872 29.7441 0.0000 0.0000 0.0000
# 4 0.0000 0.0000 0.0000 -5.9713 0.0000 0.0000
# 5 0.0000 0.0000 0.0000 0.0000 -5.9713 0.0000
# 6 0.0000 0.0000 0.0000 0.0000 0.0000 21.9500
#
#
#
# Elastic Compliance Matrix: (Units=1/GPa)
#
#
# Indices 1 2 3 4 5 6 
#
# 1 0.015199 -0.007580 0.003455 0.000000 0.000000 0.000000
# 2 -0.007580 0.015199 0.003455 0.000000 0.000000 0.000000
# 3 0.003455 0.003455 0.036753 0.000000 0.000000 0.000000
# 4 0.000000 0.000000 0.000000 -0.167467 0.000000 0.000000
# 5 0.000000 0.000000 0.000000 0.000000 -0.167467 0.000000
# 6 0.000000 0.000000 0.000000 0.000000 0.000000 0.045558
#
#
# Mechanical properties :
#
#
# Convention : Reuss Voigt Hill
#
# Bulk Modulus (GPa) = 15.19492 29.19443 22.19467
# Shear Modulus (GPa) = -25.13235 14.95529 -5.08853
#
# Velocity S-wave (km/s) = -3.51360 2.71040 -1.58100
# Velocity P-wave (km/s) = 2.99942 4.91282 2.75129
#
# Compressibility (1/GPa) = 0.06581148
#
# Stress axis : x y z
#
# Youngs Moduli (GPa) = 65.79311 65.79311 27.20844
#
# Poissons Ratio (x) = 0.49870 -0.09400
# Poissons Ratio (y) = 0.49870 -0.09400
# Poissons Ratio (z) = -0.22731 -0.22731
#
# Static dielectric constant tensor:
#      x y z
#    x 1.703300 0.000000 0.000000 
#    y 0.000000 1.703300 0.000000 
#    z 0.000000 0.000000 1.763220 
# 
# From -- ./inp_files/521.got.cif
#   From: 2010.05.17/outbox.cif.g08.bks.cpg/sg174_cif.got.tgz:521.got - 2010.05.20 11:22:48.
