data_PCOD9581111
_publ_section_title
;
Structure prediction by ZEFSAII (Michael W. Deem and Ramdas Pophale) SiO2 
 PCOD9581111
Probable space group: P 63
;
_chemical_formula_sum "Si O2"
_cell_formula_units_Z 48
_cell_length_a 14.581076
_cell_length_b 14.581076
_cell_length_c 11.117901
_cell_angle_alpha 90.000000
_cell_angle_beta 90.000000
_cell_angle_gamma 120.000000
_cell_volume 2047.069471
_symmetry_space_group_name_H-M "P 63"
_symmetry_group_IT_number 173
_symmetry_cell_setting 'hexagonal'
loop_
_space_group_symop_operation_xyz
x,y,z
x-y,x,1/2+z
-y,x-y,z
-x,-y,1/2+z
-x+y,-x,z
y,-x+y,1/2+z
loop_
_atom_site_type_symbol
_atom_site_label
_atom_site_fract_x
_atom_site_fract_y
_atom_site_fract_z
Si Si1 0.661783 0.622705 0.146540
Si Si2 0.561559 0.200868 0.985534
Si Si3 0.053095 0.762769 0.268289
Si Si4 0.576584 0.696788 0.924418
Si Si5 0.176305 0.069338 0.171214
Si Si6 0.817399 0.864068 0.418046
Si Si7 0.090178 0.717971 0.019977
Si Si8 0.474215 0.472522 0.875851
O O1 0.783337 0.712203 0.165791
O O2 0.594108 0.597155 0.266436
O O3 0.649297 0.513084 0.096905
O O4 0.613566 0.668456 0.049130
O O5 0.689184 0.248819 0.980499
O O6 0.517777 0.107017 0.885805
O O7 0.128558 0.845098 0.367617
O O8 0.108486 0.734737 0.162427
O O9 0.952279 0.668860 0.332367
O O10 0.995943 0.815243 0.195501
O O11 0.482728 0.586985 0.875089
O O12 0.566433 0.798883 0.948882
O O13 0.124369 0.006559 0.295549
O O14 0.138759 0.051727 0.029809
O O15 0.780004 0.746791 0.466547
O O16 0.012369 0.594650 0.994565
#
# Coordination Sequence:
#
# PCOD9581111 Si02
#       8
#     6   6   6   6   6   6   6   6
#     4  11  22  42  71 103 140 191 250 305 377 456
#     4   9  24  43  69 105 148 190 250 314 384 460
#     4  11  24  39  72  96 140 183 236 292 371 434
#     4  11  24  46  67 101 139 187 244 295 376 446
#     4  11  23  41  69 101 140 192 245 305 370 449
#     4  11  23  42  68 102 138 192 243 300 365 455
#     4  11  25  44  69 102 142 191 241 300 379 445
#     4  11  25  43  73 104 143 188 249 313 374 457
#
# _framework density 23.448153999999999
#
# number of rings (size 3 to 8) (size 9 to 14) (size 15 to 20)
#    0.250    1.000    3.750    0.750    7.000    1.000 
#    1.500    0.000    2.750    0.000    0.000    0.000 
#    0.000    0.000    0.000    0.000    0.000    0.000 
#
# Total GULP energy -267576.013505 kJ/mol
# GULP energy per Si atom -5574.500281 kJ/mol
# Density = 2.339478 g / cm^3
# Si number density = 23.448154 Si / 1000 Ang^3
#
#
#
# Elastic Constant Matrix: (Units=GPa)
#
#
# Indices 1 2 3 4 5 6 
#
# 1 -192.2139 273.7971 26.1417 0.0000 0.0000 0.0000
# 2 273.7971 -192.2139 26.1417 0.0000 0.0000 0.0000
# 3 26.1417 26.1417 151.4998 0.0000 0.0000 0.0000
# 4 0.0000 0.0000 0.0000 1.5158 0.0000 0.0000
# 5 0.0000 0.0000 0.0000 0.0000 1.5158 0.0000
# 6 0.0000 0.0000 0.0000 0.0000 0.0000 -233.0055
#
#
#
# Elastic Compliance Matrix: (Units=1/GPa)
#
#
# Indices 1 2 3 4 5 6 
#
# 1 0.005818 0.007964 -0.002378 0.000000 0.000000 0.000000
# 2 0.007964 0.005818 -0.002378 0.000000 0.000000 0.000000
# 3 -0.002378 -0.002378 0.007421 0.000000 0.000000 0.000000
# 4 0.000000 0.000000 0.000000 0.659731 0.000000 0.000000
# 5 0.000000 0.000000 0.000000 0.000000 0.659731 0.000000
# 6 0.000000 0.000000 0.000000 0.000000 0.000000 -0.004292
#
#
# Mechanical properties :
#
#
# Convention : Reuss Voigt Hill
#
# Bulk Modulus (GPa) = 39.25867 46.58144 42.92005
# Shear Modulus (GPa) = 3.74167 -83.26203 -39.76018
#
# Velocity S-wave (km/s) = 1.26459 -5.96541 -4.12231
# Velocity P-wave (km/s) = 4.34872 5.24779 2.07701
#
# Compressibility (1/GPa) = 0.02547208
#
# Stress axis : x y z
#
# Youngs Moduli (GPa) = 171.88711 171.88711 134.74658
#
# Poissons Ratio (x) = -1.36885 0.32043
# Poissons Ratio (y) = -1.36885 0.32043
# Poissons Ratio (z) = 0.40875 0.40875
#
# Static dielectric constant tensor:
#      x y z
#    x 1.975670 0.000000 0.000000 
#    y 0.000000 1.975670 0.000000 
#    z 0.000000 0.000000 1.925660 
# 
# From -- ./inp_files/936.got.cif
#   From: 2010.05.17/outbox.cif.g08.bks.cpg/sg173_cif.got.tgz:936.got - 2010.05.20 11:21:53.
