data_PCOD9581105
_publ_section_title
;
Structure prediction by ZEFSAII (Michael W. Deem and Ramdas Pophale) SiO2 
 PCOD9581105
Probable space group: P 63
;
_chemical_formula_sum "Si O2"
_cell_formula_units_Z 30
_cell_length_a 14.549374
_cell_length_b 14.549374
_cell_length_c 7.641857
_cell_angle_alpha 90.000000
_cell_angle_beta 90.000000
_cell_angle_gamma 120.000000
_cell_volume 1400.935543
_symmetry_space_group_name_H-M "P 63"
_symmetry_group_IT_number 173
_symmetry_cell_setting 'hexagonal'
loop_
_space_group_symop_operation_xyz
x,y,z
x-y,x,1/2+z
-y,x-y,z
-x,-y,1/2+z
-x+y,-x,z
y,-x+y,1/2+z
loop_
_atom_site_type_symbol
_atom_site_label
_atom_site_fract_x
_atom_site_fract_y
_atom_site_fract_z
Si Si1 0.611617 0.601422 0.365840
Si Si2 0.842058 0.676254 0.450017
Si Si3 0.165805 0.842058 0.366134
Si Si4 0.611616 0.601422 0.950310
Si Si5 0.916058 0.858756 0.158075
O O1 0.716019 0.601541 0.432885
O O2 0.624841 0.713148 0.430694
O O3 0.620363 0.607136 0.158075
O O4 0.500000 0.500000 0.408075
O O5 0.862835 0.693051 0.658075
O O6 0.873815 0.778739 0.323959
O O7 0.911693 0.624841 0.385456
O O8 0.114479 0.716019 0.383265
O O9 0.043961 0.935391 0.158075
O O10 0.873815 0.778738 0.992192
#
# Coordination Sequence:
#
# PCOD9581105 Si02
#       5
#     6   6   6   6   6
#     4  11  26  47  75 105 140 193 243 310 367 432
#     4  11  26  45  74 107 152 194 251 304 370 444
#     4  11  26  45  74 107 152 194 251 304 370 444
#     4  11  26  47  75 105 140 193 243 310 367 432
#     4  10  26  46  70 114 162 202 244 284 366 458
#
# _framework density 21.414262000000001
#
# number of rings (size 3 to 8) (size 9 to 14) (size 15 to 20)
#    0.400    0.800    2.000    1.200   11.200    1.600 
#    2.400    2.000    0.000    0.000    0.000    0.000 
#    0.000    0.000    0.000    0.000    0.000    0.000 
#
# Total GULP energy -167505.939744 kJ/mol
# GULP energy per Si atom -5583.531325 kJ/mol
# Density = 2.136552 g / cm^3
# Si number density = 21.414262 Si / 1000 Ang^3
#
#
#
# Elastic Constant Matrix: (Units=GPa)
#
#
# Indices 1 2 3 4 5 6 
#
# 1 128.5841 73.0817 22.6872 0.0000 0.0000 0.0000
# 2 73.0817 128.5841 22.6872 0.0000 0.0000 0.0000
# 3 22.6872 22.6872 139.9073 0.0000 0.0000 0.0000
# 4 0.0000 0.0000 0.0000 39.4804 0.0000 0.0000
# 5 0.0000 0.0000 0.0000 0.0000 39.4804 0.0000
# 6 0.0000 0.0000 0.0000 0.0000 0.0000 27.7512
#
#
#
# Elastic Compliance Matrix: (Units=1/GPa)
#
#
# Indices 1 2 3 4 5 6 
#
# 1 0.011582 -0.006435 -0.000835 0.000000 0.000000 0.000000
# 2 -0.006435 0.011582 -0.000835 0.000000 0.000000 0.000000
# 3 -0.000835 -0.000835 0.007418 0.000000 0.000000 0.000000
# 4 0.000000 0.000000 0.000000 0.025329 0.000000 0.000000
# 5 0.000000 0.000000 0.000000 0.000000 0.025329 0.000000
# 6 0.000000 0.000000 0.000000 0.000000 0.000000 0.036034
#
#
# Mechanical properties :
#
#
# Convention : Reuss Voigt Hill
#
# Bulk Modulus (GPa) = 69.57489 70.44310 70.00900
# Shear Modulus (GPa) = 36.15997 39.91702 38.03850
#
# Velocity S-wave (km/s) = 4.11371 4.32214 4.21921
# Velocity P-wave (km/s) = 7.42455 7.60754 7.51660
#
# Compressibility (1/GPa) = 0.01437300
#
# Stress axis : x y z
#
# Youngs Moduli (GPa) = 86.34201 86.34201 134.80274
#
# Poissons Ratio (x) = 0.55564 0.11250
# Poissons Ratio (y) = 0.55564 0.11250
# Poissons Ratio (z) = 0.07206 0.07206
#
# Static dielectric constant tensor:
#      x y z
#    x 1.872720 0.000000 0.000000 
#    y 0.000000 1.872720 0.000000 
#    z 0.000000 0.000000 1.833030 
# 
# From -- ./inp_files/484.got.cif
#   From: 2010.05.17/outbox.cif.g08.bks.cpg/sg173_cif.got.tgz:484.got - 2010.05.20 11:21:53.
