data_PCOD9581795
_publ_section_title
;
Structure prediction by ZEFSAII (Michael W. Deem and Ramdas Pophale) SiO2 
 PCOD9581795
Probable space group: P 63/M
;
_chemical_formula_sum "Si O2"
_cell_formula_units_Z 72
_cell_length_a 24.389788
_cell_length_b 24.389788
_cell_length_c 8.945732
_cell_angle_alpha 90.000000
_cell_angle_beta 90.000000
_cell_angle_gamma 120.000000
_cell_volume 4608.531557
_symmetry_space_group_name_H-M "P 63/M"
_symmetry_group_IT_number 176
_symmetry_cell_setting 'hexagonal'
loop_
_space_group_symop_operation_xyz
x,y,z
x-y,x,1/2+z
-y,x-y,z
-x,-y,1/2+z
-x+y,-x,z
y,-x+y,1/2+z
-x,-y,-z
-x+y,-x,1/2-z
y,-x+y,-z
x,y,1/2-z
x-y,x,-z
-y,x-y,1/2-z
loop_
_atom_site_type_symbol
_atom_site_label
_atom_site_fract_x
_atom_site_fract_y
_atom_site_fract_z
Si Si1 0.926495 0.405398 0.929813
Si Si2 0.739977 0.599150 0.570496
Si Si3 0.736769 0.931106 0.928297
Si Si4 0.065402 0.256860 0.928093
Si Si5 0.740196 0.145382 0.070189
Si Si6 0.926148 0.521072 0.429980
O O1 0.924128 0.408881 0.750000
O O2 0.884165 0.332433 0.974543
O O3 0.000182 0.432102 0.971673
O O4 0.906956 0.453310 0.001182
O O5 0.743094 0.602344 0.750000
O O6 0.762595 0.668954 0.506332
O O7 0.789488 0.579667 0.507418
O O8 0.728210 0.929699 0.750000
O O9 0.757509 0.879155 0.964140
O O10 0.785322 0.000842 0.984587
O O11 0.053253 0.248765 0.750000
O O12 0.094819 0.331565 0.962235
O O13 0.744778 0.154358 0.250000
O O14 0.667662 0.116914 0.023441
O O15 0.923673 0.516505 0.250000
#
# Coordination Sequence:
#
# PCOD9581795 Si02
#       6
#    12  12  12  12  12  12
#     4   9  18  31  46  67  94 121 151 187 227 272
#     4  10  19  31  48  69  95 126 155 188 232 276
#     4  10  20  32  48  71  96 123 156 192 229 273
#     4   9  18  32  48  68  96 124 150 187 232 274
#     4   9  18  32  48  69  97 124 153 191 232 275
#     4   9  17  30  48  68  92 122 151 185 230 273
#
# _framework density 15.623196999999999
#
# number of rings (size 3 to 8) (size 9 to 14) (size 15 to 20)
#    0.000    2.667    0.000    3.000    0.000    8.000 
#    0.000    3.333    0.000    1.000    0.000    0.000 
#    0.000    0.000    0.000    0.000    0.000    0.000 
#
# Total GULP energy -401448.244072 kJ/mol
# GULP energy per Si atom -5575.670057 kJ/mol
# Density = 1.558764 g / cm^3
# Si number density = 15.623197 Si / 1000 Ang^3
#
#
#
# Elastic Constant Matrix: (Units=GPa)
#
#
# Indices 1 2 3 4 5 6 
#
# 1 130.6078 85.8031 46.4249 0.0000 0.0000 0.0000
# 2 85.8031 130.6078 46.4249 0.0000 0.0000 0.0000
# 3 46.4249 46.4249 31.6565 0.0000 0.0000 0.0000
# 4 0.0000 0.0000 0.0000 28.3182 0.0000 0.0000
# 5 0.0000 0.0000 0.0000 0.0000 28.3182 0.0000
# 6 0.0000 0.0000 0.0000 0.0000 0.0000 22.4023
#
#
#
# Elastic Compliance Matrix: (Units=1/GPa)
#
#
# Indices 1 2 3 4 5 6 
#
# 1 0.017390 -0.004929 -0.018276 0.000000 0.000000 0.000000
# 2 -0.004929 0.017390 -0.018276 0.000000 0.000000 0.000000
# 3 -0.018276 -0.018276 0.085192 0.000000 0.000000 0.000000
# 4 0.000000 0.000000 0.000000 0.035313 0.000000 0.000000
# 5 0.000000 0.000000 0.000000 0.000000 0.035313 0.000000
# 6 0.000000 0.000000 0.000000 0.000000 0.000000 0.044638
#
#
# Mechanical properties :
#
#
# Convention : Reuss Voigt Hill
#
# Bulk Modulus (GPa) = 27.01720 72.24197 49.62958
# Shear Modulus (GPa) = 15.12703 23.42235 19.27469
#
# Velocity S-wave (km/s) = 3.11503 3.87616 3.51625
# Velocity P-wave (km/s) = 5.50168 8.14698 6.95132
#
# Compressibility (1/GPa) = 0.03701346
#
# Stress axis : x y z
#
# Youngs Moduli (GPa) = 57.50278 57.50278 11.73821
#
# Poissons Ratio (x) = 0.28341 0.21452
# Poissons Ratio (y) = 0.28341 0.21452
# Poissons Ratio (z) = 1.05089 1.05089
#
# Static dielectric constant tensor:
#      x y z
#    x 1.506280 0.000000 0.000000 
#    y 0.000000 1.506280 0.000000 
#    z 0.000000 0.000000 1.523290 
# 
# From -- ./inp_files/1162.got.cif
#   From: 2010.05.17/outbox.cif.g08.bks.cpg/sg176_1_cif.got.tgz:1162.got - 2010.06.03 11:36:45.
