data_PCOD9581003
_publ_section_title
;
Structure prediction by ZEFSAII (Michael W. Deem and Ramdas Pophale) SiO2 
 PCOD9581003
Probable space group: P 64
;
_chemical_formula_sum "Si O2"
_cell_formula_units_Z 36
_cell_length_a 11.621315
_cell_length_b 11.621315
_cell_length_c 13.376661
_cell_angle_alpha 90.000000
_cell_angle_beta 90.000000
_cell_angle_gamma 120.000000
_cell_volume 1564.548026
_symmetry_space_group_name_H-M "P 64"
_symmetry_group_IT_number 172
_symmetry_cell_setting 'hexagonal'
loop_
_space_group_symop_operation_xyz
x,y,z
x-y,x,2/3+z
-y,x-y,1/3+z
-x,-y,z
-x+y,-x,2/3+z
y,-x+y,1/3+z
loop_
_atom_site_type_symbol
_atom_site_label
_atom_site_fract_x
_atom_site_fract_y
_atom_site_fract_z
Si Si1 0.503529 0.372325 0.281780
Si Si2 0.920158 0.743207 0.626075
Si Si3 0.217924 0.175957 0.195777
Si Si4 0.340386 0.258884 0.604793
Si Si5 0.458640 0.350636 0.815041
Si Si6 0.589467 0.316938 0.484214
O O1 0.500000 0.500000 0.323431
O O2 0.362394 0.256884 0.246271
O O3 0.559296 0.319388 0.368447
O O4 0.606424 0.426809 0.190436
O O5 0.940565 0.765627 0.743688
O O6 0.766588 0.692658 0.599299
O O7 0.946165 0.631459 0.579860
O O8 0.026505 0.878674 0.571430
O O9 0.146399 0.257792 0.226414
O O10 0.374861 0.259252 0.721396
O O11 0.479872 0.335648 0.546037
O O12 0.500000 0.500000 0.785076
O O13 0.577362 0.321274 0.833611
#
# Coordination Sequence:
#
# PCOD9581003 Si02
#       6
#     6   6   6   6   6   6
#     4  12  27  48  73 115 153 208 266 332 403 485
#     4  12  29  48  80 113 160 211 264 337 409 486
#     4  12  27  50  77 116 161 210 272 335 408 490
#     4  12  28  49  79 116 155 211 267 333 409 489
#     4  12  29  52  75 118 161 211 272 338 417 491
#     4  12  27  48  79 109 157 204 268 327 405 488
#
# _framework density 23.009838999999999
#
# number of rings (size 3 to 8) (size 9 to 14) (size 15 to 20)
#    0.000    0.000    5.000    2.500   11.667    2.000 
#    0.000    0.000    0.000    0.000    0.000    0.000 
#    0.000    0.000    0.000    0.000    0.000    0.000 
#
# Total GULP energy -201606.359546 kJ/mol
# GULP energy per Si atom -5600.176654 kJ/mol
# Density = 2.295747 g / cm^3
# Si number density = 23.009839 Si / 1000 Ang^3
#
#
#
# Elastic Constant Matrix: (Units=GPa)
#
#
# Indices 1 2 3 4 5 6 
#
# 1 81.6952 10.4568 25.3957 0.0000 0.0000 0.0000
# 2 10.4568 81.6952 25.3957 0.0000 0.0000 0.0000
# 3 25.3957 25.3957 99.1943 0.0000 0.0000 0.0000
# 4 0.0000 0.0000 0.0000 29.2377 0.0000 0.0000
# 5 0.0000 0.0000 0.0000 0.0000 29.2377 0.0000
# 6 0.0000 0.0000 0.0000 0.0000 0.0000 35.6192
#
#
#
# Elastic Compliance Matrix: (Units=1/GPa)
#
#
# Indices 1 2 3 4 5 6 
#
# 1 0.013336 -0.000701 -0.003235 0.000000 0.000000 0.000000
# 2 -0.000701 0.013336 -0.003235 0.000000 0.000000 0.000000
# 3 -0.003235 -0.003235 0.011738 0.000000 0.000000 0.000000
# 4 0.000000 0.000000 0.000000 0.034202 0.000000 0.000000
# 5 0.000000 0.000000 0.000000 0.000000 0.034202 0.000000
# 6 0.000000 0.000000 0.000000 0.000000 0.000000 0.028075
#
#
# Mechanical properties :
#
#
# Convention : Reuss Voigt Hill
#
# Bulk Modulus (GPa) = 41.54931 42.78677 42.16804
# Shear Modulus (GPa) = 31.79587 32.24136 32.01862
#
# Velocity S-wave (km/s) = 3.72134 3.74732 3.73435
# Velocity P-wave (km/s) = 6.04656 6.11217 6.07945
#
# Compressibility (1/GPa) = 0.02406779
#
# Stress axis : x y z
#
# Youngs Moduli (GPa) = 74.98539 74.98539 85.19699
#
# Poissons Ratio (x) = 0.05260 0.27558
# Poissons Ratio (y) = 0.05260 0.27558
# Poissons Ratio (z) = 0.24255 0.24255
#
# Static dielectric constant tensor:
#      x y z
#    x 1.882960 0.000000 0.000000 
#    y 0.000000 1.882960 0.000000 
#    z 0.000000 0.000000 1.808840 
# 
# From -- ./inp_files/1249.got.cif
#   From: 2010.05.17/outbox.cif.g08.bks.cpg/sg172_1_cif.got.tgz:1249.got - 2010.05.20 11:19:57.
