data_PCOD9581963
_publ_section_title
;
Structure prediction by ZEFSAII (Michael W. Deem and Ramdas Pophale) SiO2 
 PCOD9581963
Probable space group: P 63/M
;
_chemical_formula_sum "Si O2"
_cell_formula_units_Z 30
_cell_length_a 11.837439
_cell_length_b 11.837439
_cell_length_c 14.011978
_cell_angle_alpha 90.000000
_cell_angle_beta 90.000000
_cell_angle_gamma 120.000000
_cell_volume 1700.378428
_symmetry_space_group_name_H-M "P 63/M"
_symmetry_group_IT_number 176
_symmetry_cell_setting 'hexagonal'
loop_
_space_group_symop_operation_xyz
x,y,z
x-y,x,1/2+z
-y,x-y,z
-x,-y,1/2+z
-x+y,-x,z
y,-x+y,1/2+z
-x,-y,-z
-x+y,-x,1/2-z
y,-x+y,-z
x,y,1/2-z
x-y,x,-z
-y,x-y,1/2-z
loop_
_atom_site_type_symbol
_atom_site_label
_atom_site_fract_x
_atom_site_fract_y
_atom_site_fract_z
Si Si1 0.822282 0.776151 0.750000
Si Si2 0.000000 0.000000 0.112947
Si Si3 0.457068 0.333574 0.750000
Si Si4 0.666667 0.333334 0.886434
Si Si5 0.890202 0.510903 0.250000
Si Si6 0.333335 0.666668 0.887343
O O1 0.878541 0.871551 0.841091
O O2 0.880749 0.679493 0.750000
O O3 0.666570 0.691663 0.750000
O O4 0.000000 0.000000 0.000000
O O5 0.541713 0.333827 0.840854
O O6 0.452108 0.465525 0.750000
O O7 0.666668 0.333334 0.999552
O O8 0.794950 0.454791 0.341221
#
# Coordination Sequence:
#
# PCOD9581963 Si02
#       6
#     6   4   6   4   6   4
#     4  10  21  42  63  81 122 162 191 245 298 345
#     4  10  26  40  61  92 115 157 209 241 286 353
#     4  10  20  40  64  82 124 156 194 240 298 352
#     4  10  20  40  55  98 112 154 203 235 292 350
#     4  10  21  42  59  85 122 160 185 245 302 343
#     4  10  26  34  61  92 121 145 200 244 292 350
#
# _framework density 17.643131
#
# number of rings (size 3 to 8) (size 9 to 14) (size 15 to 20)
#    0.000    2.400    4.000    0.000   11.200    4.800 
#    0.000    0.000    0.000    0.000    0.000    0.000 
#    0.000    0.000    0.000    0.000    0.000    0.000 
#
# Total GULP energy -167380.910265 kJ/mol
# GULP energy per Si atom -5579.363676 kJ/mol
# Density = 1.760297 g / cm^3
# Si number density = 17.643131 Si / 1000 Ang^3
#
#
#
# Elastic Constant Matrix: (Units=GPa)
#
#
# Indices 1 2 3 4 5 6 
#
# 1 100.9983 50.1683 39.4534 0.0000 0.0000 0.0000
# 2 50.1683 100.9963 39.4530 0.0000 0.0000 -0.0001
# 3 39.4534 39.4530 188.9648 0.0000 0.0000 -0.0001
# 4 0.0000 0.0000 0.0000 2.1073 0.0000 0.0000
# 5 0.0000 0.0000 0.0000 0.0000 2.1074 0.0000
# 6 0.0000 -0.0001 -0.0001 0.0000 0.0000 25.4144
#
#
#
# Elastic Compliance Matrix: (Units=1/GPa)
#
#
# Indices 1 2 3 4 5 6 
#
# 1 0.013549 -0.006125 -0.001550 0.000000 0.000000 0.000000
# 2 -0.006125 0.013549 -0.001550 0.000000 0.000000 0.000000
# 3 -0.001550 -0.001550 0.005939 0.000000 0.000000 0.000000
# 4 0.000000 0.000000 0.000000 0.474537 0.000000 0.000000
# 5 0.000000 0.000000 0.000000 0.000000 0.474520 0.000000
# 6 0.000000 0.000000 0.000000 0.000000 0.000000 0.039348
#
#
# Mechanical properties :
#
#
# Convention : Reuss Voigt Hill
#
# Bulk Modulus (GPa) = 68.55125 72.12321 70.33723
# Shear Modulus (GPa) = 4.78582 23.38480 14.08531
#
# Velocity S-wave (km/s) = 1.64877 3.64460 2.82857
# Velocity P-wave (km/s) = 6.52406 7.66019 7.11484
#
# Compressibility (1/GPa) = 0.01458763
#
# Stress axis : x y z
#
# Youngs Moduli (GPa) = 73.80627 73.80489 168.37074
#
# Poissons Ratio (x) = 0.45203 0.26099
# Poissons Ratio (y) = 0.45204 0.26099
# Poissons Ratio (z) = 0.11441 0.11441
#
# Static dielectric constant tensor:
#      x y z
#    x 1.607090 0.000000 0.000000 
#    y 0.000000 1.607090 0.000000 
#    z 0.000000 0.000000 1.561960 
# 
# From -- ./inp_files/2308.got.cif
#   From: 2010.05.17/outbox.cif.g08.bks.cpg/sg176_2_cif.got.tgz:2308.got - 2010.06.03 11:36:45.
