data_PCOD9581405
_publ_section_title
;
Structure prediction by ZEFSAII (Michael W. Deem and Ramdas Pophale) SiO2 
 PCOD9581405
Probable space group: P 6/M
;
_chemical_formula_sum "Si O2"
_cell_formula_units_Z 78
_cell_length_a 23.768434
_cell_length_b 23.768434
_cell_length_c 8.862240
_cell_angle_alpha 90.000000
_cell_angle_beta 90.000000
_cell_angle_gamma 120.000000
_cell_volume 4335.860256
_symmetry_space_group_name_H-M "P 6/M"
_symmetry_group_IT_number 175
_symmetry_cell_setting 'hexagonal'
loop_
_space_group_symop_operation_xyz
x,y,z
x-y,x,z
-y,x-y,z
-x,-y,z
-x+y,-x,z
y,-x+y,z
-x,-y,-z
-x+y,-x,-z
y,-x+y,-z
x,y,-z
x-y,x,-z
-y,x-y,-z
loop_
_atom_site_type_symbol
_atom_site_label
_atom_site_fract_x
_atom_site_fract_y
_atom_site_fract_z
Si Si1 0.971518 0.853429 0.000000
Si Si2 0.346845 0.045962 0.679466
Si Si3 0.520139 0.283407 0.816891
Si Si4 0.785745 0.053997 0.171292
Si Si5 0.426208 0.472668 0.682125
Si Si6 0.195702 0.376889 0.182238
Si Si7 0.570412 0.185764 0.817119
O O1 0.915499 0.872288 0.000000
O O2 0.961836 0.805355 0.141161
O O3 0.348658 0.051883 0.500000
O O4 0.398149 0.022917 0.724322
O O5 0.370790 0.116179 0.751145
O O6 0.274015 0.997448 0.732520
O O7 0.444872 0.243390 0.770153
O O8 0.553914 0.241579 0.773178
O O9 0.561798 0.357498 0.765776
O O10 0.520609 0.285269 0.000000
O O11 0.811913 0.127034 0.226480
O O12 0.759763 0.050757 0.000000
O O13 0.500000 0.500000 0.733590
O O14 0.573280 0.523114 0.500000
O O15 0.399740 0.517361 0.749559
O O16 0.200453 0.376615 0.000000
O O17 0.567774 0.181716 0.000000
#
# Coordination Sequence:
#
# PCOD9581405 Si02
#       7
#     6  12  12  12  12  12  12
#     4  10  19  36  60  92 119 152 182 220 266 328
#     4  11  22  37  58  82 112 151 193 236 288 343
#     4   9  18  31  53  80 109 137 181 239 295 337
#     4   9  21  35  58  84 119 149 183 226 283 338
#     4  10  23  40  53  72 110 153 190 234 288 343
#     4  10  19  36  57  84 114 150 185 232 286 342
#     4  10  19  35  56  82 106 139 186 236 290 342
#
# _framework density 17.989509999999999
#
# number of rings (size 3 to 8) (size 9 to 14) (size 15 to 20)
#    0.462    1.692    1.538    1.769    2.154    2.769 
#    0.000    1.538    0.000    0.000    0.000    0.000 
#    0.000    2.462    0.000    0.000    0.000    0.000 
#
# Total GULP energy -434878.826287 kJ/mol
# GULP energy per Si atom -5575.369568 kJ/mol
# Density = 1.794857 g / cm^3
# Si number density = 17.989510 Si / 1000 Ang^3
#
#
#
# Elastic Constant Matrix: (Units=GPa)
#
#
# Indices 1 2 3 4 5 6 
#
# 1 133.0832 61.0858 16.8996 0.0000 0.0000 0.0000
# 2 61.0858 133.0832 16.8996 0.0000 0.0000 0.0000
# 3 16.8996 16.8996 7.4577 0.0000 0.0000 0.0000
# 4 0.0000 0.0000 0.0000 7.7248 0.0000 0.0000
# 5 0.0000 0.0000 0.0000 0.0000 7.7248 0.0000
# 6 0.0000 0.0000 0.0000 0.0000 0.0000 35.9987
#
#
#
# Elastic Compliance Matrix: (Units=1/GPa)
#
#
# Indices 1 2 3 4 5 6 
#
# 1 0.011197 -0.002692 -0.019273 0.000000 0.000000 0.000000
# 2 -0.002692 0.011197 -0.019273 0.000000 0.000000 0.000000
# 3 -0.019273 -0.019273 0.221436 0.000000 0.000000 0.000000
# 4 0.000000 0.000000 0.000000 0.129453 0.000000 0.000000
# 5 0.000000 0.000000 0.000000 0.000000 0.129453 0.000000
# 6 0.000000 0.000000 0.000000 0.000000 0.000000 0.027779
#
#
# Mechanical properties :
#
#
# Convention : Reuss Voigt Hill
#
# Bulk Modulus (GPa) = 6.19752 51.48827 28.84290
# Shear Modulus (GPa) = 7.49876 22.20560 14.85218
#
# Velocity S-wave (km/s) = 2.04388 3.51716 2.87645
# Velocity P-wave (km/s) = 3.00375 6.72141 5.20576
#
# Compressibility (1/GPa) = 0.16135474
#
# Stress axis : x y z
#
# Youngs Moduli (GPa) = 89.30808 89.30808 4.51597
#
# Poissons Ratio (x) = 0.24043 0.08704
# Poissons Ratio (y) = 0.24043 0.08704
# Poissons Ratio (z) = 1.72122 1.72122
#
# Static dielectric constant tensor:
#      x y z
#    x 1.612380 0.000000 0.000000 
#    y 0.000000 1.612380 0.000000 
#    z 0.000000 0.000000 1.603740 
# 
# From -- ./inp_files/1295.got.cif
#   From: 2010.05.17/outbox.cif.g08.bks.cpg/sg175_1_cif.got.tgz:1295.got - 2010.05.20 11:23:22.
