data_PCOD9581876
_publ_section_title
;
Structure prediction by ZEFSAII (Michael W. Deem and Ramdas Pophale) SiO2 
 PCOD9581876
Probable space group: P 63/M
;
_chemical_formula_sum "Si O2"
_cell_formula_units_Z 46
_cell_length_a 13.578647
_cell_length_b 13.578647
_cell_length_c 14.405753
_cell_angle_alpha 90.000000
_cell_angle_beta 90.000000
_cell_angle_gamma 120.000000
_cell_volume 2300.274115
_symmetry_space_group_name_H-M "P 63/M"
_symmetry_group_IT_number 176
_symmetry_cell_setting 'hexagonal'
loop_
_space_group_symop_operation_xyz
x,y,z
x-y,x,1/2+z
-y,x-y,z
-x,-y,1/2+z
-x+y,-x,z
y,-x+y,1/2+z
-x,-y,-z
-x+y,-x,1/2-z
y,-x+y,-z
x,y,1/2-z
x-y,x,-z
-y,x-y,1/2-z
loop_
_atom_site_type_symbol
_atom_site_label
_atom_site_fract_x
_atom_site_fract_y
_atom_site_fract_z
Si Si1 0.094317 0.403793 0.588631
Si Si2 0.566772 0.379249 0.250000
Si Si3 0.856090 0.106339 0.250000
Si Si4 0.167020 0.740319 0.424449
Si Si5 0.847507 0.118457 0.750000
Si Si6 0.666668 0.333334 0.859364
O O1 0.119497 0.509742 0.655965
O O2 0.107975 0.319847 0.659698
O O3 0.183288 0.429630 0.507594
O O4 0.965519 0.339531 0.552016
O O5 0.547186 0.250094 0.250000
O O6 0.983122 0.209917 0.250000
O O7 0.833324 0.977768 0.250000
O O8 0.171469 0.821267 0.339613
O O9 0.219704 0.663469 0.392731
O O10 0.666667 0.333334 0.750000
#
# Coordination Sequence:
#
# PCOD9581876 Si02
#       6
#    12   6   6  12   6   4
#     4  10  22  42  63  94 124 167 208 263 311 374
#     4   9  22  42  62  84 126 162 211 258 305 367
#     4   9  19  36  62  90 126 157 212 248 312 375
#     4  11  24  42  65  91 132 160 214 256 320 375
#     4  10  19  38  60  92 124 167 197 262 309 376
#     4  12  27  45  60  91 128 169 210 261 312 382
#
# _framework density 19.997617999999999
#
# number of rings (size 3 to 8) (size 9 to 14) (size 15 to 20)
#    0.261    1.565    1.304    2.609    3.652    1.043 
#    9.391    0.000    0.000    8.348    0.000    0.000 
#    0.000    0.000    0.000    0.000    0.000    0.000 
#
# Total GULP energy -256801.593414 kJ/mol
# GULP energy per Si atom -5582.643335 kJ/mol
# Density = 1.995210 g / cm^3
# Si number density = 19.997618 Si / 1000 Ang^3
#
#
#
# Elastic Constant Matrix: (Units=GPa)
#
#
# Indices 1 2 3 4 5 6 
#
# 1 156.5752 -79.1661 9.0251 0.0000 0.0000 0.4472
# 2 -79.1661 156.6302 9.0569 0.0000 0.0000 -0.4205
# 3 9.0251 9.0569 97.5524 0.0000 0.0000 -0.0099
# 4 0.0000 0.0000 0.0000 5.5355 -0.0001 0.0000
# 5 0.0000 0.0000 0.0000 -0.0001 5.5357 0.0000
# 6 0.4472 -0.4205 -0.0099 0.0000 0.0000 118.5647
#
#
#
# Elastic Compliance Matrix: (Units=1/GPa)
#
#
# Indices 1 2 3 4 5 6 
#
# 1 0.008722 0.004479 -0.001223 0.000000 0.000000 -0.000017
# 2 0.004479 0.008719 -0.001224 0.000000 0.000000 0.000014
# 3 -0.001223 -0.001224 0.010478 0.000000 0.000000 0.000001
# 4 0.000000 0.000000 0.000000 0.180652 0.000004 0.000000
# 5 0.000000 0.000000 0.000000 0.000004 0.180646 0.000000
# 6 -0.000017 0.000014 0.000001 0.000000 0.000000 0.008434
#
#
# Mechanical properties :
#
#
# Convention : Reuss Voigt Hill
#
# Bulk Modulus (GPa) = 31.26630 32.06552 31.66591
# Shear Modulus (GPa) = 12.36865 57.38330 34.87597
#
# Velocity S-wave (km/s) = 2.48968 5.36259 4.18066
# Velocity P-wave (km/s) = 4.89220 7.37649 6.25884
#
# Compressibility (1/GPa) = 0.03198332
#
# Stress axis : x y z
#
# Youngs Moduli (GPa) = 114.65449 114.69079 95.44123
#
# Poissons Ratio (x) = -0.51370 0.11670
# Poissons Ratio (y) = -0.51353 0.11681
# Poissons Ratio (z) = 0.14019 0.14037
#
# Static dielectric constant tensor:
#      x y z
#    x 1.693810 0.000000 0.000000 
#    y 0.000000 1.693810 0.000000 
#    z 0.000000 0.000000 1.729730 
# 
# From -- ./inp_files/2538.got.cif
#   From: 2010.05.17/outbox.cif.g08.bks.cpg/sg176_2_cif.got.tgz:2538.got - 2010.06.03 11:36:45.
