data_PCOD9581688
_publ_section_title
;
Structure prediction by ZEFSAII (Michael W. Deem and Ramdas Pophale) SiO2 
 PCOD9581688
Probable space group: P 6/M
;
_chemical_formula_sum "Si O2"
_cell_formula_units_Z 58
_cell_length_a 14.367642
_cell_length_b 14.367642
_cell_length_c 15.906911
_cell_angle_alpha 90.000000
_cell_angle_beta 90.000000
_cell_angle_gamma 120.000000
_cell_volume 2843.724234
_symmetry_space_group_name_H-M "P 6/M"
_symmetry_group_IT_number 175
_symmetry_cell_setting 'hexagonal'
loop_
_space_group_symop_operation_xyz
x,y,z
x-y,x,z
-y,x-y,z
-x,-y,z
-x+y,-x,z
y,-x+y,z
-x,-y,-z
-x+y,-x,-z
y,-x+y,-z
x,y,-z
x-y,x,-z
-y,x-y,-z
loop_
_atom_site_type_symbol
_atom_site_label
_atom_site_fract_x
_atom_site_fract_y
_atom_site_fract_z
Si Si1 0.587920 0.618780 0.903414
Si Si2 0.422417 0.181248 0.650742
Si Si3 0.745467 0.915382 0.500000
Si Si4 0.753234 0.570653 0.158557
Si Si5 0.407747 0.877186 0.403186
Si Si6 0.666668 0.333334 0.101988
O O1 0.500000 0.500000 0.868759
O O2 0.594424 0.721582 0.859397
O O3 0.702722 0.625634 0.898416
O O4 0.555548 0.620848 0.000000
O O5 0.331400 0.113313 0.582028
O O6 0.399999 0.142544 0.745934
O O7 0.533475 0.187452 0.623489
O O8 0.450506 0.304413 0.649201
O O9 0.795877 0.836587 0.500000
O O10 0.682001 0.443990 0.138037
O O11 0.371817 0.853298 0.500000
O O12 0.500000 0.000000 0.396870
O O13 0.666667 0.333334 0.000000
#
# Coordination Sequence:
#
# PCOD9581688 Si02
#       6
#    12  12   6  12  12   4
#     4  11  24  44  68  96 134 179 220 270 338 402
#     4  12  25  41  65  96 133 169 215 259 323 385
#     4  12  27  48  72  90 122 170 223 288 338 388
#     4  12  26  39  67 104 135 174 221 277 326 401
#     4  11  22  39  62  89 127 173 208 249 309 379
#     4  12  21  42  69 100 140 184 228 267 327 396
#
# _framework density 20.395790000000002
#
# number of rings (size 3 to 8) (size 9 to 14) (size 15 to 20)
#    0.000    0.414    4.138    4.862    5.793    0.000 
#    0.000    0.000    0.000    0.414    0.000    1.448 
#    0.000    0.000    0.000    0.000    0.000    0.000 
#
# Total GULP energy -324375.248142 kJ/mol
# GULP energy per Si atom -5592.676692 kJ/mol
# Density = 2.034937 g / cm^3
# Si number density = 20.395790 Si / 1000 Ang^3
#
#
#
# Elastic Constant Matrix: (Units=GPa)
#
#
# Indices 1 2 3 4 5 6 
#
# 1 76.3134 16.0755 16.0847 0.0000 0.0000 -0.0003
# 2 16.0755 76.3122 16.0843 0.0000 0.0000 -0.0001
# 3 16.0847 16.0843 97.4668 0.0000 0.0000 -0.0001
# 4 0.0000 0.0000 0.0000 1.6314 0.0003 0.0000
# 5 0.0000 0.0000 0.0000 0.0003 1.6331 0.0000
# 6 -0.0003 -0.0001 -0.0001 0.0000 0.0000 30.1186
#
#
#
# Elastic Compliance Matrix: (Units=1/GPa)
#
#
# Indices 1 2 3 4 5 6 
#
# 1 0.014042 -0.002559 -0.001895 0.000000 0.000000 0.000000
# 2 -0.002559 0.014042 -0.001895 0.000000 0.000000 0.000000
# 3 -0.001895 -0.001895 0.010885 0.000000 0.000000 0.000000
# 4 0.000000 0.000000 0.000000 0.612972 -0.000101 0.000000
# 5 0.000000 0.000000 0.000000 -0.000101 0.612334 0.000000
# 6 0.000000 0.000000 0.000000 0.000000 0.000000 0.033202
#
#
# Mechanical properties :
#
#
# Convention : Reuss Voigt Hill
#
# Bulk Modulus (GPa) = 38.06270 38.50904 38.28587
# Shear Modulus (GPa) = 3.79094 20.13314 11.96204
#
# Velocity S-wave (km/s) = 1.36482 3.14526 2.42439
# Velocity P-wave (km/s) = 4.60285 5.66675 5.16228
#
# Compressibility (1/GPa) = 0.02627244
#
# Stress axis : x y z
#
# Youngs Moduli (GPa) = 71.21352 71.21248 91.86623
#
# Poissons Ratio (x) = 0.18221 0.17410
# Poissons Ratio (y) = 0.18221 0.17410
# Poissons Ratio (z) = 0.13496 0.13495
#
# Static dielectric constant tensor:
#      x y z
#    x 1.792220 0.000000 0.000000 
#    y 0.000000 1.792220 0.000000 
#    z 0.000000 0.000000 1.779670 
# 
# From -- ./inp_files/2423.got.cif
#   From: 2010.05.17/outbox.cif.g08.bks.cpg/sg175_2_cif.got.tgz:2423.got - 2010.05.20 11:23:22.
