data_PCOD9581407
_publ_section_title
;
Structure prediction by ZEFSAII (Michael W. Deem and Ramdas Pophale) SiO2 
 PCOD9581407
Probable space group: P 6/M
;
_chemical_formula_sum "Si O2"
_cell_formula_units_Z 40
_cell_length_a 12.633448
_cell_length_b 12.633448
_cell_length_c 15.978265
_cell_angle_alpha 90.000000
_cell_angle_beta 90.000000
_cell_angle_gamma 120.000000
_cell_volume 2208.533777
_symmetry_space_group_name_H-M "P 6/M"
_symmetry_group_IT_number 175
_symmetry_cell_setting 'hexagonal'
loop_
_space_group_symop_operation_xyz
x,y,z
x-y,x,z
-y,x-y,z
-x,-y,z
-x+y,-x,z
y,-x+y,z
-x,-y,-z
-x+y,-x,-z
y,-x+y,-z
x,y,-z
x-y,x,-z
-y,x-y,-z
loop_
_atom_site_type_symbol
_atom_site_label
_atom_site_fract_x
_atom_site_fract_y
_atom_site_fract_z
Si Si1 0.666668 0.333334 0.600280
Si Si2 0.243301 0.261440 0.500000
Si Si3 0.719762 0.935016 0.816633
Si Si4 0.437527 0.082594 0.657085
Si Si5 0.935488 0.213737 0.000000
O O1 0.666667 0.333334 0.500000
O O2 0.541598 0.218314 0.631807
O O3 0.241414 0.134066 0.500000
O O4 0.311807 0.339508 0.582011
O O5 0.764016 0.835665 0.810289
O O6 0.628732 0.915518 0.741792
O O7 0.660746 0.921305 0.909366
O O8 0.500000 0.000000 0.667118
O O9 0.070465 0.232339 0.000000
#
# Coordination Sequence:
#
# PCOD9581407 Si02
#       5
#     4   6  12  12   6
#     4  12  24  42  63  82 110 154 198 246 285 334
#     4  12  24  40  60  86 115 146 182 232 292 350
#     4  10  19  35  58  89 121 153 189 234 288 345
#     4  12  25  40  60  84 113 151 197 241 288 339
#     4   8  15  28  53  84 118 152 187 228 280 342
#
# _framework density 18.111563
#
# number of rings (size 3 to 8) (size 9 to 14) (size 15 to 20)
#    0.000    1.200    1.500    6.450    0.000    2.400 
#    0.000    3.750    0.000    1.800    0.000    0.000 
#    0.000    0.000    0.000    0.000    0.000    0.000 
#
# Total GULP energy -223450.572380 kJ/mol
# GULP energy per Si atom -5586.264310 kJ/mol
# Density = 1.807034 g / cm^3
# Si number density = 18.111563 Si / 1000 Ang^3
#
#
#
# Elastic Constant Matrix: (Units=GPa)
#
#
# Indices 1 2 3 4 5 6 
#
# 1 95.0490 37.8251 70.5077 0.0000 0.0000 -0.0005
# 2 37.8251 95.0493 70.5069 0.0000 0.0000 0.0006
# 3 70.5077 70.5069 219.2673 0.0000 0.0000 0.0002
# 4 0.0000 0.0000 0.0000 -1.8400 0.0007 0.0000
# 5 0.0000 0.0000 0.0000 0.0007 -1.8390 0.0000
# 6 -0.0005 0.0006 0.0002 0.0000 0.0000 28.6110
#
#
#
# Elastic Compliance Matrix: (Units=1/GPa)
#
#
# Indices 1 2 3 4 5 6 
#
# 1 0.014450 -0.003025 -0.003674 0.000000 0.000000 0.000000
# 2 -0.003025 0.014450 -0.003674 0.000000 0.000000 0.000000
# 3 -0.003674 -0.003674 0.006923 0.000000 0.000000 0.000000
# 4 0.000000 0.000000 0.000000 -0.543491 -0.000202 0.000000
# 5 0.000000 0.000000 0.000000 -0.000202 -0.543772 0.000000
# 6 0.000000 0.000000 0.000000 0.000000 0.000000 0.034952
#
#
# Mechanical properties :
#
#
# Convention : Reuss Voigt Hill
#
# Bulk Modulus (GPa) = 66.32265 85.22723 75.77494
# Shear Modulus (GPa) = -5.04685 20.35480 7.65397
#
# Velocity S-wave (km/s) = -1.67110 3.35603 2.05796
# Velocity P-wave (km/s) = 5.74239 7.88519 6.89751
#
# Compressibility (1/GPa) = 0.01507780
#
# Stress axis : x y z
#
# Youngs Moduli (GPa) = 69.20414 69.20493 144.44055
#
# Poissons Ratio (x) = 0.20936 0.53064
# Poissons Ratio (y) = 0.20936 0.53062
# Poissons Ratio (z) = 0.25424 0.25423
#
# Static dielectric constant tensor:
#      x y z
#    x 1.594600 0.000000 0.000000 
#    y 0.000000 1.594600 0.000000 
#    z 0.000000 0.000000 1.644430 
# 
# From -- ./inp_files/2752.got.cif
#   From: 2010.05.17/outbox.cif.g08.bks.cpg/sg175_2_cif.got.tgz:2752.got - 2010.05.20 11:23:22.
