data_PCOD9581781
_publ_section_title
;
Structure prediction by ZEFSAII (Michael W. Deem and Ramdas Pophale) SiO2 
 PCOD9581781
Probable space group: P 63/M
;
_chemical_formula_sum "Si O2"
_cell_formula_units_Z 72
_cell_length_a 24.578346
_cell_length_b 24.578346
_cell_length_c 8.734480
_cell_angle_alpha 90.000000
_cell_angle_beta 90.000000
_cell_angle_gamma 120.000000
_cell_volume 4569.545371
_symmetry_space_group_name_H-M "P 63/M"
_symmetry_group_IT_number 176
_symmetry_cell_setting 'hexagonal'
loop_
_space_group_symop_operation_xyz
x,y,z
x-y,x,1/2+z
-y,x-y,z
-x,-y,1/2+z
-x+y,-x,z
y,-x+y,1/2+z
-x,-y,-z
-x+y,-x,1/2-z
y,-x+y,-z
x,y,1/2-z
x-y,x,-z
-y,x-y,1/2-z
loop_
_atom_site_type_symbol
_atom_site_label
_atom_site_fract_x
_atom_site_fract_y
_atom_site_fract_z
Si Si1 0.926997 0.403788 0.932944
Si Si2 0.734003 0.594022 0.065185
Si Si3 0.739778 0.932017 0.934314
Si Si4 0.068927 0.260502 0.934629
Si Si5 0.737012 0.142282 0.063644
Si Si6 0.926812 0.521184 0.434893
O O1 0.923953 0.402953 0.750000
O O2 0.000310 0.431264 0.977446
O O3 0.884622 0.334188 0.996697
O O4 0.908915 0.453855 0.997400
O O5 0.730202 0.590836 0.250000
O O6 0.761078 0.667006 0.020888
O O7 0.787669 0.577634 0.017131
O O8 0.742017 0.934917 0.750000
O O9 0.755976 0.878361 0.981695
O O10 0.784343 0.000305 0.000801
O O11 0.066316 0.259114 0.750000
O O12 0.095278 0.333039 0.982498
O O13 0.736527 0.142069 0.250000
O O14 0.665980 0.116660 0.012480
O O15 0.924072 0.516764 0.250000
#
# Coordination Sequence:
#
# PCOD9581781 Si02
#       6
#    12  12  12  12  12  12
#     4  10  19  29  44  68  94 118 146 181 223 266
#     4   9  17  30  47  66  90 118 148 183 220 262
#     4   9  18  30  45  68  94 119 149 184 222 264
#     4   9  17  30  47  67  93 121 147 181 224 265
#     4   8  15  29  48  67  87 116 151 182 216 261
#     4   9  17  30  47  65  88 119 151 181 215 260
#
# _framework density 15.756489999999999
#
# number of rings (size 3 to 8) (size 9 to 14) (size 15 to 20)
#    0.000    3.000    0.000    3.500    0.000    3.333 
#    0.000    4.167    0.000    1.000    0.000    2.333 
#    0.000    0.000    0.000    0.000    0.000    0.000 
#
# Total GULP energy -401187.754767 kJ/mol
# GULP energy per Si atom -5572.052150 kJ/mol
# Density = 1.572063 g / cm^3
# Si number density = 15.756490 Si / 1000 Ang^3
#
#
#
# Elastic Constant Matrix: (Units=GPa)
#
#
# Indices 1 2 3 4 5 6 
#
# 1 147.7619 99.4239 30.2358 0.0000 0.0000 0.0000
# 2 99.4239 147.7619 30.2358 0.0000 0.0000 0.0000
# 3 30.2358 30.2358 10.6215 0.0000 0.0000 0.0000
# 4 0.0000 0.0000 0.0000 20.2411 0.0000 0.0000
# 5 0.0000 0.0000 0.0000 0.0000 20.2411 0.0000
# 6 0.0000 0.0000 0.0000 0.0000 0.0000 24.1690
#
#
#
# Elastic Compliance Matrix: (Units=1/GPa)
#
#
# Indices 1 2 3 4 5 6 
#
# 1 0.017007 -0.003681 -0.037934 0.000000 0.000000 0.000000
# 2 -0.003681 0.017007 -0.037934 0.000000 0.000000 0.000000
# 3 -0.037934 -0.037934 0.310116 0.000000 0.000000 0.000000
# 4 0.000000 0.000000 0.000000 0.049405 0.000000 0.000000
# 5 0.000000 0.000000 0.000000 0.000000 0.049405 0.000000
# 6 0.000000 0.000000 0.000000 0.000000 0.000000 0.041375
#
#
# Mechanical properties :
#
#
# Convention : Reuss Voigt Hill
#
# Bulk Modulus (GPa) = 5.40443 69.54848 37.47646
# Shear Modulus (GPa) = 7.09132 22.68021 14.88576
#
# Velocity S-wave (km/s) = 2.12376 3.79808 3.07699
# Velocity P-wave (km/s) = 3.07428 7.96676 6.03823
#
# Compressibility (1/GPa) = 0.18503331
#
# Stress axis : x y z
#
# Youngs Moduli (GPa) = 58.80056 58.80056 3.22460
#
# Poissons Ratio (x) = 0.21645 0.12232
# Poissons Ratio (y) = 0.21645 0.12232
# Poissons Ratio (z) = 2.23051 2.23051
#
# Static dielectric constant tensor:
#      x y z
#    x 1.514410 0.000000 0.000000 
#    y 0.000000 1.514410 0.000000 
#    z 0.000000 0.000000 1.533110 
# 
# From -- ./inp_files/1161.got.cif
#   From: 2010.05.17/outbox.cif.g08.bks.cpg/sg176_1_cif.got.tgz:1161.got - 2010.06.03 11:36:45.
