data_PCOD9581671
_publ_section_title
;
Structure prediction by ZEFSAII (Michael W. Deem and Ramdas Pophale) SiO2 
 PCOD9581671
Probable space group: P 6/M
;
_chemical_formula_sum "Si O2"
_cell_formula_units_Z 72
_cell_length_a 24.662176
_cell_length_b 24.662176
_cell_length_c 7.784517
_cell_angle_alpha 90.000000
_cell_angle_beta 90.000000
_cell_angle_gamma 120.000000
_cell_volume 4100.389272
_symmetry_space_group_name_H-M "P 6/M"
_symmetry_group_IT_number 175
_symmetry_cell_setting 'hexagonal'
loop_
_space_group_symop_operation_xyz
x,y,z
x-y,x,z
-y,x-y,z
-x,-y,z
-x+y,-x,z
y,-x+y,z
-x,-y,-z
-x+y,-x,-z
y,-x+y,-z
x,y,-z
x-y,x,-z
-y,x-y,-z
loop_
_atom_site_type_symbol
_atom_site_label
_atom_site_fract_x
_atom_site_fract_y
_atom_site_fract_z
Si Si1 0.529052 0.930673 0.707475
Si Si2 0.595681 0.074943 0.290197
Si Si3 0.741100 0.604568 0.197207
Si Si4 0.408996 0.263847 0.292592
Si Si5 0.195351 0.930260 0.288628
Si Si6 0.929937 0.185727 0.301790
O O1 0.529152 0.929905 0.500000
O O2 0.458732 0.910779 0.764375
O O3 0.556872 0.888078 0.768272
O O4 0.572858 0.003265 0.760439
O O5 0.596040 0.075674 0.500000
O O6 0.665979 0.121393 0.230920
O O7 0.786539 0.576959 0.237311
O O8 0.766689 0.669440 0.299511
O O9 0.749581 0.623719 0.000000
O O10 0.409711 0.264861 0.500000
O O11 0.337462 0.240722 0.238282
O O12 0.195410 0.930376 0.500000
O O13 0.125716 0.879244 0.228783
O O14 0.220539 0.000563 0.226435
O O15 0.936900 0.172392 0.500000
#
# Coordination Sequence:
#
# PCOD9581671 Si02
#       6
#    12  12  12  12  12  12
#     4   9  16  30  50  71  92 115 142 180 221 263
#     4   8  15  28  51  75  90 109 145 183 220 263
#     4  11  21  30  41  64  93 122 150 179 216 260
#     4   9  16  29  47  67  88 115 147 181 217 259
#     4   8  14  24  44  67  86 110 144 180 219 262
#     4   9  16  29  46  64  85 115 150 185 221 263
#
# _framework density 17.559308000000001
#
# number of rings (size 3 to 8) (size 9 to 14) (size 15 to 20)
#    0.000    3.000    0.000    4.500    0.000    2.667 
#    0.000   10.000    0.000    1.000    0.000    4.667 
#    0.000    0.000    0.000    6.000    0.000    6.667 
#
# Total GULP energy -401240.230352 kJ/mol
# GULP energy per Si atom -5572.780977 kJ/mol
# Density = 1.751934 g / cm^3
# Si number density = 17.559308 Si / 1000 Ang^3
#
#
#
# Elastic Constant Matrix: (Units=GPa)
#
#
# Indices 1 2 3 4 5 6 
#
# 1 135.7679 85.5562 -1.1263 0.0000 0.0000 0.0000
# 2 85.5562 135.7679 -1.1263 0.0000 0.0000 0.0000
# 3 -1.1263 -1.1263 24.9768 0.0000 0.0000 0.0000
# 4 0.0000 0.0000 0.0000 -18.0011 0.0000 0.0000
# 5 0.0000 0.0000 0.0000 0.0000 -18.0011 0.0000
# 6 0.0000 0.0000 0.0000 0.0000 0.0000 25.1059
#
#
#
# Elastic Compliance Matrix: (Units=1/GPa)
#
#
# Indices 1 2 3 4 5 6 
#
# 1 0.012218 -0.007698 0.000204 0.000000 0.000000 0.000000
# 2 -0.007698 0.012218 0.000204 0.000000 0.000000 0.000000
# 3 0.000204 0.000204 0.040055 0.000000 0.000000 0.000000
# 4 0.000000 0.000000 0.000000 -0.055552 0.000000 0.000000
# 5 0.000000 0.000000 0.000000 0.000000 -0.055552 0.000000
# 6 0.000000 0.000000 0.000000 0.000000 0.000000 0.039831
#
#
# Mechanical properties :
#
#
# Convention : Reuss Voigt Hill
#
# Bulk Modulus (GPa) = 20.03544 51.45775 35.74660
# Shear Modulus (GPa) = 204.61846 12.03467 108.32657
#
# Velocity S-wave (km/s) = 10.80661 2.62080 7.86293
# Velocity P-wave (km/s) = 12.92847 6.20700 10.14082
#
# Compressibility (1/GPa) = 0.04991155
#
# Stress axis : x y z
#
# Youngs Moduli (GPa) = 81.84652 81.84652 24.96536
#
# Poissons Ratio (x) = 0.63003 -0.00509
# Poissons Ratio (y) = 0.63003 -0.00509
# Poissons Ratio (z) = -0.01668 -0.01668
#
# Static dielectric constant tensor:
#      x y z
#    x 1.590780 0.000000 0.000000 
#    y 0.000000 1.590780 0.000000 
#    z 0.000000 0.000000 1.639080 
# 
# From -- ./inp_files/1169.got.cif
#   From: 2010.05.17/outbox.cif.g08.bks.cpg/sg175_1_cif.got.tgz:1169.got - 2010.05.20 11:23:22.
