data_PCOD9581622
_publ_section_title
;
Structure prediction by ZEFSAII (Michael W. Deem and Ramdas Pophale) SiO2 
 PCOD9581622
Probable space group: P 6/M
;
_chemical_formula_sum "Si O2"
_cell_formula_units_Z 64
_cell_length_a 14.446503
_cell_length_b 14.446503
_cell_length_c 16.889493
_cell_angle_alpha 90.000000
_cell_angle_beta 90.000000
_cell_angle_gamma 120.000000
_cell_volume 3052.619743
_symmetry_space_group_name_H-M "P 6/M"
_symmetry_group_IT_number 175
_symmetry_cell_setting 'hexagonal'
loop_
_space_group_symop_operation_xyz
x,y,z
x-y,x,z
-y,x-y,z
-x,-y,z
-x+y,-x,z
y,-x+y,z
-x,-y,-z
-x+y,-x,-z
y,-x+y,-z
x,y,-z
x-y,x,-z
-y,x-y,-z
loop_
_atom_site_type_symbol
_atom_site_label
_atom_site_fract_x
_atom_site_fract_y
_atom_site_fract_z
Si Si1 0.582711 0.466784 0.596219
Si Si2 0.814150 0.576344 0.853650
Si Si3 0.583518 0.767427 0.594908
Si Si4 0.666667 0.333334 0.901275
Si Si5 0.025398 0.614512 0.910768
Si Si6 0.748538 0.830268 0.719062
O O1 0.500000 0.500000 0.625363
O O2 0.588946 0.472913 0.500000
O O3 0.698863 0.552021 0.624568
O O4 0.525021 0.342552 0.615757
O O5 0.753405 0.448249 0.865806
O O6 0.719835 0.601721 0.870677
O O7 0.873280 0.643293 0.775081
O O8 0.915712 0.616771 0.911254
O O9 0.593000 0.767563 0.500000
O O10 0.693556 0.791308 0.633250
O O11 0.666667 0.333334 0.000000
O O12 0.000000 0.500000 0.874721
O O13 0.064504 0.615592 0.000000
O O14 0.839502 0.797699 0.730296
#
# Coordination Sequence:
#
# PCOD9581622 Si02
#       6
#    12  12  12   4  12  12
#     4   9  17  32  55  87 122 150 190 251 311 382
#     4  12  24  41  64  98 138 177 217 261 335 407
#     4  10  21  39  66  96 127 170 218 267 334 403
#     4  12  24  42  72 111 148 170 208 267 324 396
#     4  11  22  40  68  99 134 174 219 269 324 399
#     4  12  27  47  66  87 126 176 229 295 348 395
#
# _framework density 20.965596999999999
#
# number of rings (size 3 to 8) (size 9 to 14) (size 15 to 20)
#    0.000    1.125    3.750    3.375    0.000    5.250 
#    0.000    1.875    0.000    1.125    0.000    2.625 
#    0.000    0.000    0.000    0.000    0.000    0.000 
#
# Total GULP energy -356718.028279 kJ/mol
# GULP energy per Si atom -5573.719192 kJ/mol
# Density = 2.091788 g / cm^3
# Si number density = 20.965597 Si / 1000 Ang^3
#
#
#
# Elastic Constant Matrix: (Units=GPa)
#
#
# Indices 1 2 3 4 5 6 
#
# 1 92.1554 12.7299 19.2925 0.0000 0.0000 0.0001
# 2 12.7299 92.1564 19.2926 0.0000 0.0000 0.0002
# 3 19.2925 19.2926 44.9075 0.0000 0.0000 0.0001
# 4 0.0000 0.0000 0.0000 87.4416 0.0000 0.0000
# 5 0.0000 0.0000 0.0000 0.0000 87.4419 0.0000
# 6 0.0001 0.0002 0.0001 0.0000 0.0000 39.7129
#
#
#
# Elastic Compliance Matrix: (Units=1/GPa)
#
#
# Indices 1 2 3 4 5 6 
#
# 1 0.011957 -0.000633 -0.004865 0.000000 0.000000 0.000000
# 2 -0.000633 0.011957 -0.004865 0.000000 0.000000 0.000000
# 3 -0.004865 -0.004865 0.026448 0.000000 0.000000 0.000000
# 4 0.000000 0.000000 0.000000 0.011436 0.000000 0.000000
# 5 0.000000 0.000000 0.000000 0.000000 0.011436 0.000000
# 6 0.000000 0.000000 0.000000 0.000000 0.000000 0.025181
#
#
# Mechanical properties :
#
#
# Convention : Reuss Voigt Hill
#
# Bulk Modulus (GPa) = 33.74229 36.87213 35.30721
# Shear Modulus (GPa) = 38.75380 54.77957 46.76669
#
# Velocity S-wave (km/s) = 4.30402 5.11713 4.72809
# Velocity P-wave (km/s) = 6.38972 7.24835 6.83253
#
# Compressibility (1/GPa) = 0.02963640
#
# Stress axis : x y z
#
# Youngs Moduli (GPa) = 83.63199 83.63295 37.81019
#
# Poissons Ratio (x) = 0.05296 0.18394
# Poissons Ratio (y) = 0.05296 0.18394
# Poissons Ratio (z) = 0.40685 0.40685
#
# Static dielectric constant tensor:
#      x y z
#    x 1.695410 0.000000 0.000000 
#    y 0.000000 1.695410 0.000000 
#    z 0.000000 0.000000 1.811750 
# 
# From -- ./inp_files/2831.got.cif
#   From: 2010.05.17/outbox.cif.g08.bks.cpg/sg175_2_cif.got.tgz:2831.got - 2010.05.20 11:23:22.
