data_PCOD9581780
_publ_section_title
;
Structure prediction by ZEFSAII (Michael W. Deem and Ramdas Pophale) SiO2 
 PCOD9581780
Probable space group: P 63/M
;
_chemical_formula_sum "Si O2"
_cell_formula_units_Z 84
_cell_length_a 15.647022
_cell_length_b 15.647022
_cell_length_c 22.634191
_cell_angle_alpha 90.000000
_cell_angle_beta 90.000000
_cell_angle_gamma 120.000000
_cell_volume 4799.091104
_symmetry_space_group_name_H-M "P 63/M"
_symmetry_group_IT_number 176
_symmetry_cell_setting 'hexagonal'
loop_
_space_group_symop_operation_xyz
x,y,z
x-y,x,1/2+z
-y,x-y,z
-x,-y,1/2+z
-x+y,-x,z
y,-x+y,1/2+z
-x,-y,-z
-x+y,-x,1/2-z
y,-x+y,-z
x,y,1/2-z
x-y,x,-z
-y,x-y,1/2-z
loop_
_atom_site_type_symbol
_atom_site_label
_atom_site_fract_x
_atom_site_fract_y
_atom_site_fract_z
Si Si1 0.649721 0.521444 0.912843
Si Si2 0.946561 0.322567 0.029439
Si Si3 0.129942 0.839519 0.879964
Si Si4 0.998357 0.168746 0.976448
Si Si5 0.858957 0.539628 0.603446
Si Si6 0.801654 0.080044 0.680972
Si Si7 0.709721 0.695917 0.820242
O O1 0.755441 0.527660 0.916877
O O2 0.565645 0.416134 0.889383
O O3 0.658298 0.604389 0.866171
O O4 0.628070 0.539315 0.980448
O O5 0.874113 0.250709 0.081436
O O6 0.050545 0.399017 0.058459
O O7 0.963641 0.245684 0.991329
O O8 0.023396 0.792792 0.849863
O O9 0.140566 0.924074 0.924619
O O10 0.221594 0.901680 0.836213
O O11 0.062853 0.160122 0.029707
O O12 0.886972 0.610646 0.660172
O O13 0.795591 0.063436 0.750000
O O14 0.910507 0.172830 0.668329
O O15 0.692765 0.670027 0.750000
#
# Coordination Sequence:
#
# PCOD9581780 Si02
#       7
#    12  12  12  12  12  12  12
#     4  11  21  36  57  81 113 139 185 229 287 339
#     4  10  20  35  52  78 110 147 177 219 283 335
#     4  10  19  31  54  73 105 148 184 221 268 328
#     4  10  19  28  44  73 107 142 178 217 260 317
#     4  10  21  35  56  81 107 144 178 231 283 337
#     4   9  20  37  53  73 108 147 186 227 274 323
#     4  10  21  36  53  77 108 147 188 232 270 321
#
# _framework density 17.503315000000001
#
# number of rings (size 3 to 8) (size 9 to 14) (size 15 to 20)
#    0.000    2.000    1.429    3.000    6.000    0.571 
#    0.857    0.000    0.000    1.714    0.000    0.000 
#    0.000    0.000    0.857    0.000    0.000    0.000 
#
# Total GULP energy -467880.351869 kJ/mol
# GULP energy per Si atom -5570.004189 kJ/mol
# Density = 1.746348 g / cm^3
# Si number density = 17.503315 Si / 1000 Ang^3
#
#
#
# Elastic Constant Matrix: (Units=GPa)
#
#
# Indices 1 2 3 4 5 6 
#
# 1 -5.4488 69.1580 16.0445 0.0000 0.0000 0.0000
# 2 69.1580 -5.4488 16.0445 0.0000 0.0000 0.0000
# 3 16.0445 16.0445 70.6607 0.0000 0.0000 0.0000
# 4 0.0000 0.0000 0.0000 -13.8053 0.0000 0.0000
# 5 0.0000 0.0000 0.0000 0.0000 -13.8053 0.0000
# 6 0.0000 0.0000 0.0000 0.0000 0.0000 -37.3034
#
#
#
# Elastic Compliance Matrix: (Units=1/GPa)
#
#
# Indices 1 2 3 4 5 6 
#
# 1 0.002160 0.015563 -0.004024 0.000000 0.000000 0.000000
# 2 0.015563 0.002160 -0.004024 0.000000 0.000000 0.000000
# 3 -0.004024 -0.004024 0.015980 0.000000 0.000000 0.000000
# 4 0.000000 0.000000 0.000000 -0.072436 0.000000 0.000000
# 5 0.000000 0.000000 0.000000 0.000000 -0.072436 0.000000
# 6 0.000000 0.000000 0.000000 0.000000 0.000000 -0.026807
#
#
# Mechanical properties :
#
#
# Convention : Reuss Voigt Hill
#
# Bulk Modulus (GPa) = 28.30539 29.13970 28.72254
# Shear Modulus (GPa) = -32.33457 -15.74840 -24.04148
#
# Velocity S-wave (km/s) = -4.30273 -3.00282 -3.71015
# Velocity P-wave (km/s) = 2.91172 2.15910 1.38138
#
# Compressibility (1/GPa) = 0.03532897
#
# Stress axis : x y z
#
# Youngs Moduli (GPa) = 462.99528 462.99527 62.57935
#
# Poissons Ratio (x) = -7.20580 0.25184
# Poissons Ratio (y) = -7.20580 0.25184
# Poissons Ratio (z) = 1.86325 1.86325
#
# Static dielectric constant tensor:
#      x y z
#    x 1.598940 0.000000 0.000000 
#    y 0.000000 1.598940 0.000000 
#    z 0.000000 0.000000 1.661220 
# 
# From -- ./inp_files/4087.got.cif
#   From: 2010.05.17/outbox.cif.g08.bks.cpg/sg176_3_cif.got.tgz:4087.got - 2010.06.03 11:36:45.
