data_PCOD9581439
_publ_section_title
;
Structure prediction by ZEFSAII (Michael W. Deem and Ramdas Pophale) SiO2 
 PCOD9581439
Probable space group: P 6/M
;
_chemical_formula_sum "Si O2"
_cell_formula_units_Z 48
_cell_length_a 21.169533
_cell_length_b 21.169533
_cell_length_c 7.335887
_cell_angle_alpha 90.000000
_cell_angle_beta 90.000000
_cell_angle_gamma 120.000000
_cell_volume 2847.120313
_symmetry_space_group_name_H-M "P 6/M"
_symmetry_group_IT_number 175
_symmetry_cell_setting 'hexagonal'
loop_
_space_group_symop_operation_xyz
x,y,z
x-y,x,z
-y,x-y,z
-x,-y,z
-x+y,-x,z
y,-x+y,z
-x,-y,-z
-x+y,-x,-z
y,-x+y,-z
x,y,-z
x-y,x,-z
-y,x-y,-z
loop_
_atom_site_type_symbol
_atom_site_label
_atom_site_fract_x
_atom_site_fract_y
_atom_site_fract_z
Si Si1 0.542166 0.457834 0.721330
Si Si2 0.917160 0.228195 0.000000
Si Si3 0.438972 0.291931 0.282721
Si Si4 0.708069 0.561028 0.282721
Si Si5 0.771805 0.082840 0.000000
O O1 0.500000 0.500000 0.781143
O O2 0.541874 0.458125 0.500000
O O3 0.498037 0.373379 0.775854
O O4 0.626621 0.501963 0.775854
O O5 0.900332 0.264769 0.172990
O O6 0.856778 0.143223 0.000000
O O7 0.000000 0.248050 0.000000
O O8 0.427455 0.292574 0.500000
O O9 0.462594 0.231297 0.246757
O O10 0.364437 0.264769 0.172991
O O11 0.707426 0.572545 0.500000
#
# Coordination Sequence:
#
# PCOD9581439 Si02
#       5
#    12   6  12  12   6
#     4   9  16  27  45  67  90 119 157 196 231 269
#     4  10  20  33  51  72  93 119 151 189 233 283
#     4   9  18  32  47  67  96 126 158 195 234 275
#     4   9  18  32  47  67  96 126 158 195 234 275
#     4  10  20  33  51  72  93 119 151 189 233 283
#
# _framework density 16.85914
#
# number of rings (size 3 to 8) (size 9 to 14) (size 15 to 20)
#    0.000    2.750    0.000    1.500    0.000    4.000 
#    1.500    2.500    0.000    0.250    0.000    0.000 
#    0.000    0.000    0.000   12.500    0.000    0.000 
#
# Total GULP energy -267736.746875 kJ/mol
# GULP energy per Si atom -5577.848893 kJ/mol
# Density = 1.682077 g / cm^3
# Si number density = 16.859140 Si / 1000 Ang^3
#
#
#
# Elastic Constant Matrix: (Units=GPa)
#
#
# Indices 1 2 3 4 5 6 
#
# 1 134.2409 99.4857 29.6757 0.0000 0.0000 0.0000
# 2 99.4857 134.2409 29.6757 0.0000 0.0000 0.0000
# 3 29.6757 29.6757 65.9470 0.0000 0.0000 0.0000
# 4 0.0000 0.0000 0.0000 10.7351 0.0000 0.0000
# 5 0.0000 0.0000 0.0000 0.0000 10.7351 0.0000
# 6 0.0000 0.0000 0.0000 0.0000 0.0000 17.3776
#
#
#
# Elastic Compliance Matrix: (Units=1/GPa)
#
#
# Indices 1 2 3 4 5 6 
#
# 1 0.016802 -0.011971 -0.002174 0.000000 0.000000 0.000000
# 2 -0.011971 0.016802 -0.002174 0.000000 0.000000 0.000000
# 3 -0.002174 -0.002174 0.017120 0.000000 0.000000 0.000000
# 4 0.000000 0.000000 0.000000 0.093153 0.000000 0.000000
# 5 0.000000 0.000000 0.000000 0.000000 0.093153 0.000000
# 6 0.000000 0.000000 0.000000 0.000000 0.000000 0.057545
#
#
# Mechanical properties :
#
#
# Convention : Reuss Voigt Hill
#
# Bulk Modulus (GPa) = 55.29077 72.45588 63.87332
# Shear Modulus (GPa) = 15.00424 19.47567 17.23995
#
# Velocity S-wave (km/s) = 2.98648 3.40251 3.20126
# Velocity P-wave (km/s) = 6.69022 7.64896 7.18560
#
# Compressibility (1/GPa) = 0.01808620
#
# Stress axis : x y z
#
# Youngs Moduli (GPa) = 59.51823 59.51823 58.41132
#
# Poissons Ratio (x) = 0.71250 0.12697
# Poissons Ratio (y) = 0.71250 0.12697
# Poissons Ratio (z) = 0.12937 0.12937
#
# Static dielectric constant tensor:
#      x y z
#    x 1.549350 0.000000 0.000000 
#    y 0.000000 1.549350 0.000000 
#    z 0.000000 0.000000 1.607510 
# 
# From -- ./inp_files/552.got.cif
#   From: 2010.05.17/outbox.cif.g08.bks.cpg/sg175_1_cif.got.tgz:552.got - 2010.05.20 11:23:22.
