data_PCOD9581564
_publ_section_title
;
Structure prediction by ZEFSAII (Michael W. Deem and Ramdas Pophale) SiO2 
 PCOD9581564
Probable space group: P 6/M
;
_chemical_formula_sum "Si O2"
_cell_formula_units_Z 54
_cell_length_a 15.631068
_cell_length_b 15.631068
_cell_length_c 12.641738
_cell_angle_alpha 90.000000
_cell_angle_beta 90.000000
_cell_angle_gamma 120.000000
_cell_volume 2674.944168
_symmetry_space_group_name_H-M "P 6/M"
_symmetry_group_IT_number 175
_symmetry_cell_setting 'hexagonal'
loop_
_space_group_symop_operation_xyz
x,y,z
x-y,x,z
-y,x-y,z
-x,-y,z
-x+y,-x,z
y,-x+y,z
-x,-y,-z
-x+y,-x,-z
y,-x+y,-z
x,y,-z
x-y,x,-z
-y,x-y,-z
loop_
_atom_site_type_symbol
_atom_site_label
_atom_site_fract_x
_atom_site_fract_y
_atom_site_fract_z
Si Si1 0.334808 0.404791 0.883982
Si Si2 0.224702 0.158932 0.627254
Si Si3 0.362210 0.850391 0.883496
Si Si4 0.785777 0.574849 0.290234
Si Si5 0.699573 0.458673 0.500000
O O1 0.407763 0.360768 0.880778
O O2 0.405531 0.523600 0.877246
O O3 0.262214 0.378996 0.786952
O O4 0.285836 0.379956 0.000000
O O5 0.142897 0.188028 0.656369
O O6 0.233717 0.166220 0.500000
O O7 0.334332 0.225058 0.673754
O O8 0.298346 0.791718 0.783106
O O9 0.325531 0.803472 0.000000
O O10 0.722824 0.523679 0.394924
O O11 0.591164 0.361134 0.500000
#
# Coordination Sequence:
#
# PCOD9581564 Si02
#       5
#    12  12  12  12   6
#     4   9  19  35  54  79 110 142 181 233 283 323
#     4  10  21  37  57  82 111 143 184 235 284 332
#     4   9  19  35  54  79 110 142 181 233 283 323
#     4  12  19  35  57  82 107 150 192 225 269 338
#     4  10  24  38  48  74 118 154 180 224 272 322
#
# _framework density 20.187339000000001
#
# number of rings (size 3 to 8) (size 9 to 14) (size 15 to 20)
#    0.222    1.778    1.111    4.889    0.000    0.889 
#    1.333    0.000    0.000    5.333    0.000    0.000 
#    0.000   10.667    0.000    0.000    0.000    0.000 
#
# Total GULP energy -301268.452769 kJ/mol
# GULP energy per Si atom -5579.045422 kJ/mol
# Density = 2.014139 g / cm^3
# Si number density = 20.187339 Si / 1000 Ang^3
#
#
#
# Elastic Constant Matrix: (Units=GPa)
#
#
# Indices 1 2 3 4 5 6 
#
# 1 36.5372 -17.1837 21.4463 0.0000 0.0000 0.0000
# 2 -17.1837 36.5372 21.4463 0.0000 0.0000 0.0000
# 3 21.4463 21.4463 136.4106 0.0000 0.0000 0.0000
# 4 0.0000 0.0000 0.0000 13.4319 0.0000 0.0000
# 5 0.0000 0.0000 0.0000 0.0000 13.4319 0.0000
# 6 0.0000 0.0000 0.0000 0.0000 0.0000 26.8605
#
#
#
# Elastic Compliance Matrix: (Units=1/GPa)
#
#
# Indices 1 2 3 4 5 6 
#
# 1 0.048959 0.030344 -0.012468 0.000000 0.000000 0.000000
# 2 0.030344 0.048959 -0.012468 0.000000 0.000000 0.000000
# 3 -0.012468 -0.012468 0.011251 0.000000 0.000000 0.000000
# 4 0.000000 0.000000 0.000000 0.074449 0.000000 0.000000
# 5 0.000000 0.000000 0.000000 0.000000 0.074449 0.000000
# 6 0.000000 0.000000 0.000000 0.000000 0.000000 0.037229
#
#
# Mechanical properties :
#
#
# Convention : Reuss Voigt Hill
#
# Bulk Modulus (GPa) = 8.33440 28.98922 18.66181
# Shear Modulus (GPa) = 15.40950 22.99661 19.20306
#
# Velocity S-wave (km/s) = 2.76583 3.37881 3.08757
# Velocity P-wave (km/s) = 3.78646 5.44179 4.68777
#
# Compressibility (1/GPa) = 0.11998463
#
# Stress axis : x y z
#
# Youngs Moduli (GPa) = 20.42543 20.42543 88.87964
#
# Poissons Ratio (x) = -0.61979 1.10814
# Poissons Ratio (y) = -0.61979 1.10814
# Poissons Ratio (z) = 0.25466 0.25466
#
# Static dielectric constant tensor:
#      x y z
#    x 1.716220 0.000000 0.000000 
#    y 0.000000 1.716220 0.000000 
#    z 0.000000 0.000000 1.716590 
# 
# From -- ./inp_files/1751.got.cif
#   From: 2010.05.17/outbox.cif.g08.bks.cpg/sg175_1_cif.got.tgz:1751.got - 2010.05.20 11:23:22.
