data_PCOD9581539
_publ_section_title
;
Structure prediction by ZEFSAII (Michael W. Deem and Ramdas Pophale) SiO2 
 PCOD9581539
Probable space group: P 6/M
;
_chemical_formula_sum "Si O2"
_cell_formula_units_Z 48
_cell_length_a 9.571335
_cell_length_b 9.571335
_cell_length_c 23.536435
_cell_angle_alpha 90.000000
_cell_angle_beta 90.000000
_cell_angle_gamma 120.000000
_cell_volume 1867.309676
_symmetry_space_group_name_H-M "P 6/M"
_symmetry_group_IT_number 175
_symmetry_cell_setting 'hexagonal'
loop_
_space_group_symop_operation_xyz
x,y,z
x-y,x,z
-y,x-y,z
-x,-y,z
-x+y,-x,z
y,-x+y,z
-x,-y,-z
-x+y,-x,-z
y,-x+y,-z
x,y,-z
x-y,x,-z
-y,x-y,-z
loop_
_atom_site_type_symbol
_atom_site_label
_atom_site_fract_x
_atom_site_fract_y
_atom_site_fract_z
Si Si1 0.838700 0.310072 0.061924
Si Si2 0.000000 0.500000 0.162275
Si Si3 0.377940 0.261661 0.255562
Si Si4 0.377646 0.260065 0.378871
Si Si5 0.620987 0.738818 0.500000
O O1 0.823198 0.472703 0.061439
O O2 0.921321 0.338029 0.122625
O O3 0.898839 0.291331 0.000000
O O4 0.872329 0.507511 0.204325
O O5 0.233921 0.304369 0.252144
O O6 0.460269 0.318750 0.317746
O O7 0.301740 0.067630 0.378880
O O8 0.466799 0.323389 0.439314
O O9 0.696626 0.931860 0.500000
#
# Coordination Sequence:
#
# PCOD9581539 Si02
#       5
#    12   6  12  12   6
#     4   8  17  32  48  70  99 124 160 216 260 291
#     4  12  19  30  52  79 102 136 174 214 254 303
#     4  10  21  35  51  75 107 145 175 211 258 320
#     4   8  13  22  37  60  91 124 166 207 256 301
#     4   8  11  16  32  57  84 118 158 212 255 295
#
# _framework density 25.705432999999999
#
# number of rings (size 3 to 8) (size 9 to 14) (size 15 to 20)
#    0.500    2.500    0.000    2.500    0.000    4.000 
#    1.500    0.000    0.000    0.750    0.000    0.000 
#    0.000   12.000    0.000    0.000    0.000    0.000 
#
# Total GULP energy -267465.004870 kJ/mol
# GULP energy per Si atom -5572.187601 kJ/mol
# Density = 2.564693 g / cm^3
# Si number density = 25.705433 Si / 1000 Ang^3
#
#
#
# Elastic Constant Matrix: (Units=GPa)
#
#
# Indices 1 2 3 4 5 6 
#
# 1 82.0405 18.2529 24.7185 0.0000 0.0000 0.0000
# 2 18.2529 82.0405 24.7185 0.0000 0.0000 0.0000
# 3 24.7185 24.7185 244.8638 0.0000 0.0000 0.0000
# 4 0.0000 0.0000 0.0000 -57.1718 0.0000 0.0000
# 5 0.0000 0.0000 0.0000 0.0000 -57.1718 0.0000
# 6 0.0000 0.0000 0.0000 0.0000 0.0000 31.8938
#
#
#
# Elastic Compliance Matrix: (Units=1/GPa)
#
#
# Indices 1 2 3 4 5 6 
#
# 1 0.013085 -0.002592 -0.001059 0.000000 0.000000 0.000000
# 2 -0.002592 0.013085 -0.001059 0.000000 0.000000 0.000000
# 3 -0.001059 -0.001059 0.004298 0.000000 0.000000 0.000000
# 4 0.000000 0.000000 0.000000 -0.017491 0.000000 0.000000
# 5 0.000000 0.000000 0.000000 0.000000 -0.017491 0.000000
# 6 0.000000 0.000000 0.000000 0.000000 0.000000 0.031354
#
#
# Mechanical properties :
#
#
# Convention : Reuss Voigt Hill
#
# Bulk Modulus (GPa) = 47.51369 60.48050 53.99709
# Shear Modulus (GPa) = 115.53742 6.26038 60.89890
#
# Velocity S-wave (km/s) = 6.71150 1.56228 4.87263
# Velocity P-wave (km/s) = 8.86471 5.18012 7.26005
#
# Compressibility (1/GPa) = 0.02104657
#
# Stress axis : x y z
#
# Youngs Moduli (GPa) = 76.42367 76.42367 232.67944
#
# Poissons Ratio (x) = 0.19810 0.24646
# Poissons Ratio (y) = 0.19810 0.24646
# Poissons Ratio (z) = 0.08095 0.08095
#
# Static dielectric constant tensor:
#      x y z
#    x 2.079070 0.000000 0.000000 
#    y 0.000000 2.079070 0.000000 
#    z 0.000000 0.000000 2.187330 
# 
# From -- ./inp_files/3043.got.cif
#   From: 2010.05.17/outbox.cif.g08.bks.cpg/sg175_2_cif.got.tgz:3043.got - 2010.05.20 11:23:22.
