data_PCOD9581329
_publ_section_title
;
Structure prediction by ZEFSAII (Michael W. Deem and Ramdas Pophale) SiO2 
 PCOD9581329
Probable space group: P 6/M
;
_chemical_formula_sum "Si O2"
_cell_formula_units_Z 48
_cell_length_a 16.578006
_cell_length_b 16.578006
_cell_length_c 12.441790
_cell_angle_alpha 90.000000
_cell_angle_beta 90.000000
_cell_angle_gamma 120.000000
_cell_volume 2961.270522
_symmetry_space_group_name_H-M "P 6/M"
_symmetry_group_IT_number 175
_symmetry_cell_setting 'hexagonal'
loop_
_space_group_symop_operation_xyz
x,y,z
x-y,x,z
-y,x-y,z
-x,-y,z
-x+y,-x,z
y,-x+y,z
-x,-y,-z
-x+y,-x,-z
y,-x+y,-z
x,y,-z
x-y,x,-z
-y,x-y,-z
loop_
_atom_site_type_symbol
_atom_site_label
_atom_site_fract_x
_atom_site_fract_y
_atom_site_fract_z
Si Si1 0.494181 0.361660 0.000000
Si Si2 0.791190 0.206790 0.177165
Si Si3 0.073865 0.215332 0.128984
Si Si4 0.655289 0.570422 0.000000
Si Si5 0.715508 0.454560 0.623773
O O1 0.480679 0.298810 0.896028
O O2 0.589747 0.458623 0.000000
O O3 0.411198 0.385772 0.000000
O O4 0.801025 0.115538 0.186573
O O5 0.878422 0.279397 0.104601
O O6 0.783832 0.249778 0.288472
O O7 0.140801 0.173263 0.153329
O O8 0.079222 0.233439 0.000000
O O9 0.607290 0.373700 0.638003
O O10 0.728223 0.486137 0.500000
#
# Coordination Sequence:
#
# PCOD9581329 Si02
#       5
#     6  12  12   6  12
#     4  10  20  30  41  67 105 135 156 196 252 305
#     4  11  18  29  51  72  96 133 172 207 245 308
#     4  10  19  32  50  73 101 132 167 208 254 303
#     4  10  20  30  41  67 105 135 156 196 252 305
#     4   8  17  33  51  73 100 131 175 219 248 283
#
# _framework density 16.209258999999999
#
# number of rings (size 3 to 8) (size 9 to 14) (size 15 to 20)
#    0.500    1.750    2.500    3.250    0.000    1.000 
#    6.000    0.000    0.000    6.000    0.000   17.500 
#    0.000    2.000    0.000    0.000    0.000    0.000 
#
# Total GULP energy -267555.876240 kJ/mol
# GULP energy per Si atom -5574.080755 kJ/mol
# Density = 1.617237 g / cm^3
# Si number density = 16.209259 Si / 1000 Ang^3
#
#
#
# Elastic Constant Matrix: (Units=GPa)
#
#
# Indices 1 2 3 4 5 6 
#
# 1 43.5228 -4.1204 20.0247 0.0000 0.0000 0.0000
# 2 -4.1204 43.5228 20.0247 0.0000 0.0000 0.0000
# 3 20.0247 20.0247 91.3311 0.0000 0.0000 0.0000
# 4 0.0000 0.0000 0.0000 9.5368 0.0000 0.0000
# 5 0.0000 0.0000 0.0000 0.0000 9.5368 0.0000
# 6 0.0000 0.0000 0.0000 0.0000 0.0000 23.8216
#
#
#
# Elastic Compliance Matrix: (Units=1/GPa)
#
#
# Indices 1 2 3 4 5 6 
#
# 1 0.026823 0.005834 -0.007160 0.000000 0.000000 0.000000
# 2 0.005834 0.026823 -0.007160 0.000000 0.000000 0.000000
# 3 -0.007160 -0.007160 0.014089 0.000000 0.000000 0.000000
# 4 0.000000 0.000000 0.000000 0.104857 0.000000 0.000000
# 5 0.000000 0.000000 0.000000 0.000000 0.104857 0.000000
# 6 0.000000 0.000000 0.000000 0.000000 0.000000 0.041979
#
#
# Mechanical properties :
#
#
# Convention : Reuss Voigt Hill
#
# Bulk Modulus (GPa) = 19.69974 27.80384 23.75179
# Shear Modulus (GPa) = 14.15142 18.07555 16.11349
#
# Velocity S-wave (km/s) = 2.95794 3.34299 3.15634
# Velocity P-wave (km/s) = 4.88320 5.66490 5.28851
#
# Compressibility (1/GPa) = 0.05076210
#
# Stress axis : x y z
#
# Youngs Moduli (GPa) = 37.28130 37.28130 70.97772
#
# Poissons Ratio (x) = -0.21749 0.50821
# Poissons Ratio (y) = -0.21749 0.50821
# Poissons Ratio (z) = 0.26694 0.26694
#
# Static dielectric constant tensor:
#      x y z
#    x 1.560850 0.000000 0.000000 
#    y 0.000000 1.560850 0.000000 
#    z 0.000000 0.000000 1.508610 
# 
# From -- ./inp_files/1702.got.cif
#   From: 2010.05.17/outbox.cif.g08.bks.cpg/sg175_1_cif.got.tgz:1702.got - 2010.05.20 11:23:22.
