data_PCOD9581164
_publ_section_title
;
Structure prediction by ZEFSAII (Michael W. Deem and Ramdas Pophale) SiO2 
 PCOD9581164
Probable space group: P -6
;
_chemical_formula_sum "Si O2"
_cell_formula_units_Z 21
_cell_length_a 6.877117
_cell_length_b 6.877117
_cell_length_c 19.147330
_cell_angle_alpha 90.000000
_cell_angle_beta 90.000000
_cell_angle_gamma 120.000000
_cell_volume 784.244858
_symmetry_space_group_name_H-M "P -6"
_symmetry_group_IT_number 174
_symmetry_cell_setting 'hexagonal'
loop_
_space_group_symop_operation_xyz
x,y,z
-x+y,-x,-z
-y,x-y,z
x,y,-z
-x+y,-x,z
-y,x-y,-z
loop_
_atom_site_type_symbol
_atom_site_label
_atom_site_fract_x
_atom_site_fract_y
_atom_site_fract_z
Si Si1 0.215112 0.282400 0.641680
Si Si2 0.949156 0.546617 0.217182
Si Si3 0.948854 0.548972 0.500000
Si Si4 0.061542 0.779385 0.924070
O O1 0.332503 0.409186 0.712502
O O2 0.333243 0.408047 0.570838
O O3 0.947790 0.177704 0.641593
O O4 0.720548 0.564002 0.217870
O O5 0.071419 0.658433 0.145280
O O6 0.844791 0.281706 0.500000
O O7 0.820340 0.772085 0.922819
O O8 0.079141 0.690551 0.000000
#
# Coordination Sequence:
#
# PCOD9581164 Si02
#       4
#     6   6   3   6
#     4  10  20  34  58  76  99 141 183 201 238 318
#     4  10  20  30  50  80 107 132 171 220 264 294
#     4  10  20  34  58  82 108 126 162 220 264 294
#     4   8  16  32  54  74  98 138 180 210 250 318
#
# _framework density 26.777353999999999
#
# number of rings (size 3 to 8) (size 9 to 14) (size 15 to 20)
#    2.000    0.571    0.000    4.286    0.000    1.143 
#    0.000    0.000    0.000   27.429    0.000    0.000 
#    0.000    0.000    0.000    0.000    0.000    0.000 
#
# Total GULP energy -117385.117795 kJ/mol
# GULP energy per Si atom -5589.767514 kJ/mol
# Density = 2.671641 g / cm^3
# Si number density = 26.777354 Si / 1000 Ang^3
#
#
#
# Elastic Constant Matrix: (Units=GPa)
#
#
# Indices 1 2 3 4 5 6 
#
# 1 116.7471 19.9598 62.9311 0.0000 0.0000 0.0000
# 2 19.9598 116.7471 62.9311 0.0000 0.0000 0.0000
# 3 62.9311 62.9311 325.3847 0.0000 0.0000 0.0000
# 4 0.0000 0.0000 0.0000 -11.6394 0.0000 0.0000
# 5 0.0000 0.0000 0.0000 0.0000 -11.6394 0.0000
# 6 0.0000 0.0000 0.0000 0.0000 0.0000 48.3936
#
#
#
# Elastic Compliance Matrix: (Units=1/GPa)
#
#
# Indices 1 2 3 4 5 6 
#
# 1 0.009616 -0.000716 -0.001721 0.000000 0.000000 0.000000
# 2 -0.000716 0.009616 -0.001721 0.000000 0.000000 0.000000
# 3 -0.001721 -0.001721 0.003739 0.000000 0.000000 0.000000
# 4 0.000000 0.000000 0.000000 -0.085915 0.000000 0.000000
# 5 0.000000 0.000000 0.000000 0.000000 -0.085915 0.000000
# 6 0.000000 0.000000 0.000000 0.000000 0.000000 0.020664
#
#
# Mechanical properties :
#
#
# Convention : Reuss Voigt Hill
#
# Bulk Modulus (GPa) = 68.24372 94.50257 81.37315
# Shear Modulus (GPa) = -43.48031 32.56010 -5.46010
#
# Velocity S-wave (km/s) = -4.03398 3.49084 -1.42951
# Velocity P-wave (km/s) = 1.96052 7.18447 5.26594
#
# Compressibility (1/GPa) = 0.01465336
#
# Stress axis : x y z
#
# Youngs Moduli (GPa) = 103.99582 103.99582 267.44572
#
# Poissons Ratio (x) = 0.07448 0.46034
# Poissons Ratio (y) = 0.07448 0.46034
# Poissons Ratio (z) = 0.17900 0.17900
#
# Static dielectric constant tensor:
#      x y z
#    x 2.064610 0.000000 0.000000 
#    y 0.000000 2.064610 0.000000 
#    z 0.000000 0.000000 1.989350 
# 
# From -- ./inp_files/962.got.cif
#   From: 2010.05.17/outbox.cif.g08.bks.cpg/sg174_cif.got.tgz:962.got - 2010.05.20 11:22:48.
