data_PCOD9581570
_publ_section_title
;
Structure prediction by ZEFSAII (Michael W. Deem and Ramdas Pophale) SiO2 
 PCOD9581570
Probable space group: P 6/M
;
_chemical_formula_sum "Si O2"
_cell_formula_units_Z 54
_cell_length_a 10.253420
_cell_length_b 10.253420
_cell_length_c 26.059932
_cell_angle_alpha 90.000000
_cell_angle_beta 90.000000
_cell_angle_gamma 120.000000
_cell_volume 2372.692210
_symmetry_space_group_name_H-M "P 6/M"
_symmetry_group_IT_number 175
_symmetry_cell_setting 'hexagonal'
loop_
_space_group_symop_operation_xyz
x,y,z
x-y,x,z
-y,x-y,z
-x,-y,z
-x+y,-x,z
y,-x+y,z
-x,-y,-z
-x+y,-x,-z
y,-x+y,-z
x,y,-z
x-y,x,-z
-y,x-y,-z
loop_
_atom_site_type_symbol
_atom_site_label
_atom_site_fract_x
_atom_site_fract_y
_atom_site_fract_z
Si Si1 0.500000 0.500000 0.198816
Si Si2 0.663174 0.162814 0.893880
Si Si3 0.067028 0.335091 0.000000
Si Si4 0.097025 0.744044 0.722255
Si Si5 0.899838 0.250484 0.390496
Si Si6 0.748502 0.646918 0.500000
O O1 0.440514 0.357987 0.160159
O O2 0.637447 0.527936 0.235401
O O3 0.805264 0.329259 0.893783
O O4 0.666492 0.092505 0.947656
O O5 0.192013 0.286999 0.000000
O O6 0.922958 0.708371 0.726829
O O7 0.119767 0.694856 0.665091
O O8 0.071196 0.284455 0.390671
O O9 0.875385 0.310475 0.445057
O O10 0.928802 0.713077 0.500000
#
# Coordination Sequence:
#
# PCOD9581570 Si02
#       6
#     6  12   6  12  12   6
#     4  12  22  39  60  89 126 158 208 252 298 352
#     4  10  23  41  65  93 118 157 200 245 288 335
#     4  12  25  44  68  99 132 162 192 234 294 356
#     4  10  21  37  58  85 118 158 201 255 313 372
#     4   8  13  22  39  67 103 142 187 237 301 364
#     4   8  11  16  32  61  98 138 180 234 293 363
#
# _framework density 22.758956999999999
#
# number of rings (size 3 to 8) (size 9 to 14) (size 15 to 20)
#    0.444    1.778    0.000    4.000    0.000    4.889 
#    1.333    0.000    0.000    3.333    0.000    0.000 
#    0.000    0.000    0.000    0.000    0.000    0.000 
#
# Total GULP energy -300991.061823 kJ/mol
# GULP energy per Si atom -5573.908552 kJ/mol
# Density = 2.270716 g / cm^3
# Si number density = 22.758957 Si / 1000 Ang^3
#
#
#
# Elastic Constant Matrix: (Units=GPa)
#
#
# Indices 1 2 3 4 5 6 
#
# 1 47.5780 6.9394 43.5476 0.0000 0.0000 0.0000
# 2 6.9394 47.5780 43.5476 0.0000 0.0000 0.0000
# 3 43.5476 43.5476 252.1651 0.0000 0.0000 0.0000
# 4 0.0000 0.0000 0.0000 -10.8207 0.0000 0.0000
# 5 0.0000 0.0000 0.0000 0.0000 -10.8207 0.0000
# 6 0.0000 0.0000 0.0000 0.0000 0.0000 20.3193
#
#
#
# Elastic Compliance Matrix: (Units=1/GPa)
#
#
# Indices 1 2 3 4 5 6 
#
# 1 0.024969 0.000362 -0.004375 0.000000 0.000000 0.000000
# 2 0.000362 0.024969 -0.004375 0.000000 0.000000 0.000000
# 3 -0.004375 -0.004375 0.005477 0.000000 0.000000 0.000000
# 4 0.000000 0.000000 0.000000 -0.092415 0.000000 0.000000
# 5 0.000000 0.000000 0.000000 0.000000 -0.092415 0.000000
# 6 0.000000 0.000000 0.000000 0.000000 0.000000 0.049214
#
#
# Mechanical properties :
#
#
# Convention : Reuss Voigt Hill
#
# Bulk Modulus (GPa) = 25.87917 59.48783 42.68350
# Shear Modulus (GPa) = -98.91795 16.62135 -41.14830
#
# Velocity S-wave (km/s) = -6.59982 2.70538 -4.25668
# Velocity P-wave (km/s) = 6.83236 5.99614 2.31598
#
# Compressibility (1/GPa) = 0.03864112
#
# Stress axis : x y z
#
# Youngs Moduli (GPa) = 40.04916 40.04916 182.59484
#
# Poissons Ratio (x) = -0.01451 0.79878
# Poissons Ratio (y) = -0.01451 0.79878
# Poissons Ratio (z) = 0.17520 0.17520
#
# Static dielectric constant tensor:
#      x y z
#    x 1.855890 0.000000 0.000000 
#    y 0.000000 1.855890 0.000000 
#    z 0.000000 0.000000 1.912500 
# 
# From -- ./inp_files/3217.got.cif
#   From: 2010.05.17/outbox.cif.g08.bks.cpg/sg175_2_cif.got.tgz:3217.got - 2010.05.20 11:23:22.
