data_PCOD9581516
_publ_section_title
;
Structure prediction by ZEFSAII (Michael W. Deem and Ramdas Pophale) SiO2 
 PCOD9581516
Probable space group: P 6/M
;
_chemical_formula_sum "Si O2"
_cell_formula_units_Z 54
_cell_length_a 9.605899
_cell_length_b 9.605899
_cell_length_c 26.488713
_cell_angle_alpha 90.000000
_cell_angle_beta 90.000000
_cell_angle_gamma 120.000000
_cell_volume 2116.740023
_symmetry_space_group_name_H-M "P 6/M"
_symmetry_group_IT_number 175
_symmetry_cell_setting 'hexagonal'
loop_
_space_group_symop_operation_xyz
x,y,z
x-y,x,z
-y,x-y,z
-x,-y,z
-x+y,-x,z
y,-x+y,z
-x,-y,-z
-x+y,-x,-z
y,-x+y,-z
x,y,-z
x-y,x,-z
-y,x-y,-z
loop_
_atom_site_type_symbol
_atom_site_label
_atom_site_fract_x
_atom_site_fract_y
_atom_site_fract_z
Si Si1 0.739044 0.622424 0.607754
Si Si2 0.000000 0.500000 0.910462
Si Si3 0.622380 0.883110 0.500000
Si Si4 0.092649 0.364334 0.000000
Si Si5 0.627009 0.891798 0.175721
Si Si6 0.114944 0.738689 0.715405
O O1 0.697439 0.766036 0.607741
O O2 0.676978 0.534641 0.553876
O O3 0.676464 0.534923 0.661659
O O4 0.897511 0.541351 0.949253
O O5 0.115464 0.639920 0.872145
O O6 0.765905 0.068355 0.500000
O O7 0.216964 0.303794 0.000000
O O8 0.697367 0.772757 0.173409
O O9 0.540652 0.863034 0.230383
O O10 0.930512 0.698257 0.715408
#
# Coordination Sequence:
#
# PCOD9581516 Si02
#       6
#    12   6   6   6  12  12
#     4   8  11  14  21  40  69 113 159 214 267 328
#     4  11  24  40  58  98 128 151 182 222 282 329
#     4   8  11  12  16  30  64 107 158 204 264 328
#     4  11  25  50  76 102 123 157 196 236 272 319
#     4  10  20  38  60  88 117 157 201 248 289 337
#     4   8  13  21  38  60  90 125 176 228 280 326
#
# _framework density 25.510926999999999
#
# number of rings (size 3 to 8) (size 9 to 14) (size 15 to 20)
#    0.000    2.889    0.000    2.222    0.000    5.333 
#   18.667    2.222    0.000    0.000    0.000    0.000 
#    0.000    0.889    0.000    0.222    0.000    0.889 
#
# Total GULP energy -301805.531418 kJ/mol
# GULP energy per Si atom -5588.991323 kJ/mol
# Density = 2.545286 g / cm^3
# Si number density = 25.510927 Si / 1000 Ang^3
#
#
#
# Elastic Constant Matrix: (Units=GPa)
#
#
# Indices 1 2 3 4 5 6 
#
# 1 96.5779 35.8571 51.2228 0.0000 0.0000 0.0000
# 2 35.8571 96.5779 51.2228 0.0000 0.0000 0.0000
# 3 51.2228 51.2228 342.2079 0.0000 0.0000 0.0000
# 4 0.0000 0.0000 0.0000 71.2925 0.0000 0.0000
# 5 0.0000 0.0000 0.0000 0.0000 71.2925 0.0000
# 6 0.0000 0.0000 0.0000 0.0000 0.0000 30.3604
#
#
#
# Elastic Compliance Matrix: (Units=1/GPa)
#
#
# Indices 1 2 3 4 5 6 
#
# 1 0.012504 -0.003965 -0.001278 0.000000 0.000000 0.000000
# 2 -0.003965 0.012504 -0.001278 0.000000 0.000000 0.000000
# 3 -0.001278 -0.001278 0.003305 0.000000 0.000000 0.000000
# 4 0.000000 0.000000 0.000000 0.014027 0.000000 0.000000
# 5 0.000000 0.000000 0.000000 0.000000 0.014027 0.000000
# 6 0.000000 0.000000 0.000000 0.000000 0.000000 0.032938
#
#
# Mechanical properties :
#
#
# Convention : Reuss Voigt Hill
#
# Bulk Modulus (GPa) = 65.48268 90.21881 77.85075
# Shear Modulus (GPa) = 46.53895 61.05984 53.79939
#
# Velocity S-wave (km/s) = 4.27579 4.89763 4.59723
# Velocity P-wave (km/s) = 7.07818 8.21120 7.66566
#
# Compressibility (1/GPa) = 0.01527121
#
# Stress axis : x y z
#
# Youngs Moduli (GPa) = 79.97290 79.97290 302.58422
#
# Poissons Ratio (x) = 0.31706 0.38678
# Poissons Ratio (y) = 0.31706 0.38678
# Poissons Ratio (z) = 0.10223 0.10223
#
# Static dielectric constant tensor:
#      x y z
#    x 2.000210 0.000000 0.000000 
#    y 0.000000 2.000210 0.000000 
#    z 0.000000 0.000000 2.088030 
# 
# From -- ./inp_files/3287.got.cif
#   From: 2010.05.17/outbox.cif.g08.bks.cpg/sg175_2_cif.got.tgz:3287.got - 2010.05.20 11:23:22.
