data_PCOD9581101
_publ_section_title
;
Structure prediction by ZEFSAII (Michael W. Deem and Ramdas Pophale) SiO2 
 PCOD9581101
Probable space group: P 63
;
_chemical_formula_sum "Si O2"
_cell_formula_units_Z 34
_cell_length_a 13.952574
_cell_length_b 13.952574
_cell_length_c 9.129253
_cell_angle_alpha 90.000000
_cell_angle_beta 90.000000
_cell_angle_gamma 120.000000
_cell_volume 1539.127308
_symmetry_space_group_name_H-M "P 63"
_symmetry_group_IT_number 173
_symmetry_cell_setting 'hexagonal'
loop_
_space_group_symop_operation_xyz
x,y,z
x-y,x,1/2+z
-y,x-y,z
-x,-y,1/2+z
-x+y,-x,z
y,-x+y,1/2+z
loop_
_atom_site_type_symbol
_atom_site_label
_atom_site_fract_x
_atom_site_fract_y
_atom_site_fract_z
Si Si1 0.596764 0.122162 0.294980
Si Si2 0.333334 0.666667 0.255534
Si Si3 0.130033 0.221033 0.725791
Si Si4 0.233219 0.100132 0.880204
Si Si5 0.666667 0.333334 0.102503
Si Si6 0.114382 0.683423 0.220332
Si Si7 0.754679 0.577019 0.413783
O O1 0.636653 0.213628 0.166288
O O2 0.488507 0.117654 0.360553
O O3 0.689373 0.183657 0.422100
O O4 0.574264 0.002828 0.242738
O O5 0.333334 0.666667 0.430744
O O6 0.219332 0.664328 0.212419
O O7 0.216446 0.192069 0.799824
O O8 0.120970 0.210294 0.552565
O O9 0.174278 0.344101 0.781867
O O10 0.011667 0.152700 0.802192
O O11 0.355443 0.120585 0.849064
O O12 0.122833 0.749521 0.069700
#
# Coordination Sequence:
#
# PCOD9581101 Si02
#       7
#     6   2   6   6   2   6   6
#     4  10  24  45  75  98 144 186 242 292 373 422
#     4  12  30  43  68 109 153 181 251 301 363 433
#     4  12  26  47  73 107 142 188 239 296 360 429
#     4  12  27  46  74 105 146 186 239 298 360 433
#     4   9  24  46  71 109 138 193 236 313 357 451
#     4  12  27  45  72 107 146 189 242 299 369 434
#     4  11  24  46  73 101 141 187 239 295 358 430
#
# _framework density 22.090441999999999
#
# number of rings (size 3 to 8) (size 9 to 14) (size 15 to 20)
#    0.000    0.706    1.765    4.941    9.882    0.000 
#    0.000    0.000    0.000    0.000    0.000    0.000 
#    0.000    0.000    0.000    0.000    0.000    0.000 
#
# Total GULP energy -190016.764220 kJ/mol
# GULP energy per Si atom -5588.728359 kJ/mol
# Density = 2.204016 g / cm^3
# Si number density = 22.090442 Si / 1000 Ang^3
#
#
#
# Elastic Constant Matrix: (Units=GPa)
#
#
# Indices 1 2 3 4 5 6 
#
# 1 80.6057 18.5447 16.5110 0.0000 0.0000 -0.0007
# 2 18.5447 80.6067 16.5110 0.0000 0.0000 0.0005
# 3 16.5110 16.5110 161.4148 0.0000 0.0000 0.0002
# 4 0.0000 0.0000 0.0000 17.0118 -0.0001 0.0000
# 5 0.0000 0.0000 0.0000 -0.0001 17.0119 0.0000
# 6 -0.0007 0.0005 0.0002 0.0000 0.0000 31.0315
#
#
#
# Elastic Compliance Matrix: (Units=1/GPa)
#
#
# Indices 1 2 3 4 5 6 
#
# 1 0.013277 -0.002836 -0.001068 0.000000 0.000000 0.000000
# 2 -0.002836 0.013277 -0.001068 0.000000 0.000000 0.000000
# 3 -0.001068 -0.001068 0.006414 0.000000 0.000000 0.000000
# 4 0.000000 0.000000 0.000000 0.058783 0.000000 0.000000
# 5 0.000000 0.000000 0.000000 0.000000 0.058782 0.000000
# 6 0.000000 0.000000 0.000000 0.000000 0.000000 0.032225
#
#
# Mechanical properties :
#
#
# Convention : Reuss Voigt Hill
#
# Bulk Modulus (GPa) = 43.43247 47.30674 45.36960
# Shear Modulus (GPa) = 24.95294 31.08174 28.01734
#
# Velocity S-wave (km/s) = 3.36457 3.75510 3.56519
# Velocity P-wave (km/s) = 5.89895 6.34528 6.12618
#
# Compressibility (1/GPa) = 0.02302425
#
# Stress axis : x y z
#
# Youngs Moduli (GPa) = 75.31659 75.31758 155.91586
#
# Poissons Ratio (x) = 0.21359 0.16653
# Poissons Ratio (y) = 0.21359 0.16652
# Poissons Ratio (z) = 0.08044 0.08044
#
# Static dielectric constant tensor:
#      x y z
#    x 1.857540 0.000000 0.000000 
#    y 0.000000 1.857540 0.000000 
#    z 0.000000 0.000000 1.824440 
# 
# From -- ./inp_files/574.got.cif
#   From: 2010.05.17/outbox.cif.g08.bks.cpg/sg173_cif.got.tgz:574.got - 2010.05.20 11:21:53.
