data_PCOD9581004
_publ_section_title
;
Structure prediction by ZEFSAII (Michael W. Deem and Ramdas Pophale) SiO2 
 PCOD9581004
Probable space group: P 64
;
_chemical_formula_sum "Si O2"
_cell_formula_units_Z 21
_cell_length_a 5.037485
_cell_length_b 5.037485
_cell_length_c 39.467394
_cell_angle_alpha 90.000000
_cell_angle_beta 90.000000
_cell_angle_gamma 120.000000
_cell_volume 867.354458
_symmetry_space_group_name_H-M "P 64"
_symmetry_group_IT_number 172
_symmetry_cell_setting 'hexagonal'
loop_
_space_group_symop_operation_xyz
x,y,z
x-y,x,2/3+z
-y,x-y,1/3+z
-x,-y,z
-x+y,-x,2/3+z
y,-x+y,1/3+z
loop_
_atom_site_type_symbol
_atom_site_label
_atom_site_fract_x
_atom_site_fract_y
_atom_site_fract_z
Si Si1 0.500000 0.500000 0.156780
Si Si2 0.000000 0.500000 0.536105
Si Si3 0.000000 0.000000 0.726936
Si Si4 0.500000 0.500000 0.013241
Si Si5 0.500000 0.500000 0.584435
Si Si6 0.500000 0.000000 0.773965
Si Si7 0.500000 0.000000 0.630425
O O1 0.599085 0.796653 0.180215
O O2 0.252975 0.507002 0.132122
O O3 0.772120 0.544240 0.560270
O O4 0.917876 0.705282 0.704000
O O5 0.294719 0.082125 0.749873
O O6 0.745972 0.492997 0.988418
O O7 0.400915 0.197567 0.606991
#
# Coordination Sequence:
#
# PCOD9581004 Si02
#       7
#     3   3   3   3   3   3   3
#     4  12  28  50  78 114 154 202 255 316 382 455
#     4  12  29  52  80 116 156 204 258 318 384 458
#     4  12  28  52  80 114 154 204 256 318 384 456
#     4  12  28  50  78 113 154 202 256 316 382 456
#     4  12  29  52  80 116 156 204 258 318 384 458
#     4  12  28  50  78 113 154 202 256 316 382 456
#     4  12  28  50  78 114 154 202 255 316 382 455
#
# _framework density 24.211554
#
# number of rings (size 3 to 8) (size 9 to 14) (size 15 to 20)
#    0.000    0.000    0.000    7.714    0.000   21.714 
#    0.000    0.000    0.000    0.000    0.000    0.000 
#    0.000    0.000    0.000    0.000    0.000    0.000 
#
# Total GULP energy -117922.968365 kJ/mol
# GULP energy per Si atom -5615.379446 kJ/mol
# Density = 2.415645 g / cm^3
# Si number density = 24.211554 Si / 1000 Ang^3
#
#
#
# Elastic Constant Matrix: (Units=GPa)
#
#
# Indices 1 2 3 4 5 6 
#
# 1 228.2624 107.5121 135.7832 0.0000 0.0000 0.0000
# 2 107.5121 228.2624 135.7832 0.0000 0.0000 0.0000
# 3 135.7832 135.7832 215.6673 0.0000 0.0000 0.0000
# 4 0.0000 0.0000 0.0000 26.4317 0.0000 0.0000
# 5 0.0000 0.0000 0.0000 0.0000 26.4317 0.0000
# 6 0.0000 0.0000 0.0000 0.0000 0.0000 60.3752
#
#
#
# Elastic Compliance Matrix: (Units=1/GPa)
#
#
# Indices 1 2 3 4 5 6 
#
# 1 0.007175 -0.001107 -0.003820 0.000000 0.000000 0.000000
# 2 -0.001107 0.007175 -0.003820 0.000000 0.000000 0.000000
# 3 -0.003820 -0.003820 0.009447 0.000000 0.000000 0.000000
# 4 0.000000 0.000000 0.000000 0.037833 0.000000 0.000000
# 5 0.000000 0.000000 0.000000 0.000000 0.037833 0.000000
# 6 0.000000 0.000000 0.000000 0.000000 0.000000 0.016563
#
#
# Mechanical properties :
#
#
# Convention : Reuss Voigt Hill
#
# Bulk Modulus (GPa) = 158.68389 158.92770 158.80579
# Shear Modulus (GPa) = 36.86702 42.18863 39.52782
#
# Velocity S-wave (km/s) = 3.90642 4.17885 4.04493
# Velocity P-wave (km/s) = 9.27522 9.43756 9.35674
#
# Compressibility (1/GPa) = 0.00630184
#
# Stress axis : x y z
#
# Youngs Moduli (GPa) = 139.37665 139.37665 105.84906
#
# Poissons Ratio (x) = 0.15425 0.40439
# Poissons Ratio (y) = 0.15425 0.40439
# Poissons Ratio (z) = 0.53248 0.53248
#
# Static dielectric constant tensor:
#      x y z
#    x 1.882170 0.000000 0.000000 
#    y 0.000000 1.882170 0.000000 
#    z 0.000000 0.000000 1.913170 
# 
# From -- ./inp_files/2739.got.cif
#   From: 2010.05.17/outbox.cif.g08.bks.cpg/sg172_2_cif.got.tgz:2739.got - 2010.05.20 11:19:57.
