data_PCOD9581112
_publ_section_title
;
Structure prediction by ZEFSAII (Michael W. Deem and Ramdas Pophale) SiO2 
 PCOD9581112
Probable space group: P 63
;
_chemical_formula_sum "Si O2"
_cell_formula_units_Z 48
_cell_length_a 14.502997
_cell_length_b 14.502997
_cell_length_c 12.988486
_cell_angle_alpha 90.000000
_cell_angle_beta 90.000000
_cell_angle_gamma 120.000000
_cell_volume 2365.945174
_symmetry_space_group_name_H-M "P 63"
_symmetry_group_IT_number 173
_symmetry_cell_setting 'hexagonal'
loop_
_space_group_symop_operation_xyz
x,y,z
x-y,x,1/2+z
-y,x-y,z
-x,-y,1/2+z
-x+y,-x,z
y,-x+y,1/2+z
loop_
_atom_site_type_symbol
_atom_site_label
_atom_site_fract_x
_atom_site_fract_y
_atom_site_fract_z
Si Si1 0.117602 0.225258 0.572260
Si Si2 0.867828 0.685913 0.860131
Si Si3 0.014753 0.427247 0.453375
Si Si4 0.393877 0.898786 0.677083
Si Si5 0.735663 0.577666 0.202097
Si Si6 0.995299 0.376951 0.875340
Si Si7 0.106597 0.871230 0.131883
Si Si8 0.211058 0.382987 0.930876
O O1 0.084570 0.228320 0.453905
O O2 0.216278 0.337446 0.609866
O O3 0.150091 0.137073 0.590274
O O4 0.019295 0.200064 0.645529
O O5 0.917696 0.610782 0.884089
O O6 0.742645 0.641425 0.879752
O O7 0.885568 0.721572 0.741281
O O8 0.060531 0.442542 0.567094
O O9 0.034648 0.541722 0.424605
O O10 0.888068 0.340025 0.447931
O O11 0.285922 0.787348 0.697184
O O12 0.500355 0.891344 0.693127
O O13 0.392736 0.980567 0.757723
O O14 0.779044 0.643290 0.309863
O O15 0.109221 0.400435 0.921933
O O16 0.134954 0.819969 0.035866
#
# Coordination Sequence:
#
# PCOD9581112 Si02
#       8
#     6   6   6   6   6   6   6   6
#     4  12  25  43  67 104 137 185 236 295 358 436
#     4  12  25  46  71 104 143 188 239 296 368 434
#     4  12  24  44  69 104 144 188 238 301 366 433
#     4  11  23  40  70 100 139 184 245 293 364 422
#     4  11  22  43  68 100 139 182 242 300 353 429
#     4  11  25  44  69 104 143 185 237 300 357 437
#     4  12  26  43  72 100 145 189 232 297 365 438
#     4  11  22  43  68 100 140 187 233 290 361 429
#
# _framework density 20.287873999999999
#
# number of rings (size 3 to 8) (size 9 to 14) (size 15 to 20)
#    0.000    0.500    5.000    4.250    0.000    0.000 
#    1.500    0.000    0.000    0.000    0.000    0.000 
#    0.000    0.000    0.000    0.000    0.000    0.000 
#
# Total GULP energy -267394.236322 kJ/mol
# GULP energy per Si atom -5570.713257 kJ/mol
# Density = 2.024170 g / cm^3
# Si number density = 20.287874 Si / 1000 Ang^3
#
#
#
# Elastic Constant Matrix: (Units=GPa)
#
#
# Indices 1 2 3 4 5 6 
#
# 1 74.2609 16.8714 8.1798 0.0000 0.0000 0.0000
# 2 16.8714 74.2609 8.1798 0.0000 0.0000 0.0000
# 3 8.1798 8.1798 115.8032 0.0000 0.0000 0.0000
# 4 0.0000 0.0000 0.0000 24.7030 0.0000 0.0000
# 5 0.0000 0.0000 0.0000 0.0000 24.7030 0.0000
# 6 0.0000 0.0000 0.0000 0.0000 0.0000 28.6947
#
#
#
# Elastic Compliance Matrix: (Units=1/GPa)
#
#
# Indices 1 2 3 4 5 6 
#
# 1 0.014269 -0.003155 -0.000785 0.000000 0.000000 0.000000
# 2 -0.003155 0.014269 -0.000785 0.000000 0.000000 0.000000
# 3 -0.000785 -0.000785 0.008746 0.000000 0.000000 0.000000
# 4 0.000000 0.000000 0.000000 0.040481 0.000000 0.000000
# 5 0.000000 0.000000 0.000000 0.000000 0.040481 0.000000
# 6 0.000000 0.000000 0.000000 0.000000 0.000000 0.034850
#
#
# Mechanical properties :
#
#
# Convention : Reuss Voigt Hill
#
# Bulk Modulus (GPa) = 35.92721 36.75410 36.34066
# Shear Modulus (GPa) = 29.09930 31.02641 30.06285
#
# Velocity S-wave (km/s) = 3.79135 3.91488 3.85361
# Velocity P-wave (km/s) = 6.07560 6.21214 6.14425
#
# Compressibility (1/GPa) = 0.02783406
#
# Stress axis : x y z
#
# Youngs Moduli (GPa) = 70.08003 70.08003 114.33483
#
# Poissons Ratio (x) = 0.22113 0.08976
# Poissons Ratio (y) = 0.22113 0.08976
# Poissons Ratio (z) = 0.05502 0.05502
#
# Static dielectric constant tensor:
#      x y z
#    x 1.745990 0.000000 0.000000 
#    y 0.000000 1.745990 0.000000 
#    z 0.000000 0.000000 1.743310 
# 
# From -- ./inp_files/931.got.cif
#   From: 2010.05.17/outbox.cif.g08.bks.cpg/sg173_cif.got.tgz:931.got - 2010.05.20 11:21:53.
