data_PCOD9581204
_publ_section_title
;
Structure prediction by ZEFSAII (Michael W. Deem and Ramdas Pophale) SiO2 
 PCOD9581204
Probable space group: P -6
;
_chemical_formula_sum "Si O2"
_cell_formula_units_Z 44
_cell_length_a 11.721350
_cell_length_b 11.721350
_cell_length_c 19.268871
_cell_angle_alpha 90.000000
_cell_angle_beta 90.000000
_cell_angle_gamma 120.000000
_cell_volume 2292.673279
_symmetry_space_group_name_H-M "P -6"
_symmetry_group_IT_number 174
_symmetry_cell_setting 'hexagonal'
loop_
_space_group_symop_operation_xyz
x,y,z
-x+y,-x,-z
-y,x-y,z
x,y,-z
-x+y,-x,z
-y,x-y,-z
loop_
_atom_site_type_symbol
_atom_site_label
_atom_site_fract_x
_atom_site_fract_y
_atom_site_fract_z
Si Si1 0.053089 0.492115 0.135130
Si Si2 0.586304 0.646249 0.576567
Si Si3 0.025917 0.747646 0.144131
Si Si4 0.437137 0.061968 0.722806
Si Si5 0.975777 0.228687 0.081802
Si Si6 0.333334 0.666668 0.918157
Si Si7 0.312086 0.376627 0.423315
Si Si8 0.912159 0.628236 0.715989
O O1 0.962039 0.357813 0.094176
O O2 0.200165 0.546913 0.109558
O O3 0.025175 0.612587 0.122449
O O4 0.042331 0.447428 0.215536
O O5 0.636947 0.634736 0.500000
O O6 0.643746 0.625559 0.647018
O O7 0.436397 0.525102 0.580095
O O8 0.605004 0.790806 0.580779
O O9 0.898159 0.749042 0.114278
O O10 0.016093 0.727280 0.227608
O O11 0.147455 0.886504 0.118716
O O12 0.392747 0.165948 0.741553
O O13 0.592027 0.112634 0.716191
O O14 0.985710 0.208709 0.000000
O O15 0.333334 0.666668 0.000000
O O16 0.314571 0.323071 0.500000
O O17 0.320349 0.290568 0.360725
#
# Coordination Sequence:
#
# PCOD9581204 Si02
#       8
#     6   6   6   6   6   2   6   6
#     4  11  24  41  66  95 125 162 209 260 325 389
#     4   9  18  32  54  84 117 152 195 249 306 362
#     4  11  25  44  65  94 126 166 213 260 318 387
#     4  10  21  37  58  84 119 161 205 251 308 371
#     4  12  25  43  67  92 124 164 209 263 319 387
#     4  12  24  42  69  96 127 155 199 273 336 387
#     4   9  18  32  54  86 119 155 198 250 311 370
#     4  10  21  37  59  83 121 161 206 256 305 371
#
# _framework density 19.191571
#
# number of rings (size 3 to 8) (size 9 to 14) (size 15 to 20)
#    0.000    1.636    2.727    1.636    1.909    4.364 
#    0.818    0.000    0.000    2.182    0.000    0.000 
#    0.000    0.000    0.000    0.000    0.000    0.000 
#
# Total GULP energy -245034.454938 kJ/mol
# GULP energy per Si atom -5568.964885 kJ/mol
# Density = 1.914789 g / cm^3
# Si number density = 19.191571 Si / 1000 Ang^3
#
#
#
# Elastic Constant Matrix: (Units=GPa)
#
#
# Indices 1 2 3 4 5 6 
#
# 1 72.8517 35.0221 40.0642 0.0000 0.0000 -0.0004
# 2 35.0221 72.8513 40.0643 0.0000 0.0000 0.0001
# 3 40.0642 40.0643 132.4189 0.0000 0.0000 -0.0004
# 4 0.0000 0.0000 0.0000 39.1185 0.0017 0.0000
# 5 0.0000 0.0000 0.0000 0.0017 39.1126 0.0000
# 6 -0.0004 0.0001 -0.0004 0.0000 0.0000 18.9147
#
#
#
# Elastic Compliance Matrix: (Units=1/GPa)
#
#
# Indices 1 2 3 4 5 6 
#
# 1 0.019196 -0.007239 -0.003618 0.000000 0.000000 0.000000
# 2 -0.007239 0.019196 -0.003618 0.000000 0.000000 0.000000
# 3 -0.003618 -0.003618 0.009741 0.000000 0.000000 0.000000
# 4 0.000000 0.000000 0.000000 0.025563 -0.000001 0.000000
# 5 0.000000 0.000000 0.000000 -0.000001 0.025567 0.000000
# 6 0.000000 0.000000 0.000000 0.000000 0.000000 0.052869
#
#
# Mechanical properties :
#
#
# Convention : Reuss Voigt Hill
#
# Bulk Modulus (GPa) = 52.12515 56.49145 54.30830
# Shear Modulus (GPa) = 26.67015 30.29391 28.48203
#
# Velocity S-wave (km/s) = 3.73189 3.97735 3.85657
# Velocity P-wave (km/s) = 6.76673 7.11279 6.94192
#
# Compressibility (1/GPa) = 0.01918460
#
# Stress axis : x y z
#
# Youngs Moduli (GPa) = 52.09450 52.09416 102.65929
#
# Poissons Ratio (x) = 0.37709 0.37140
# Poissons Ratio (y) = 0.37709 0.37140
# Poissons Ratio (z) = 0.18847 0.18847
#
# Static dielectric constant tensor:
#      x y z
#    x 1.670710 0.000000 0.000000 
#    y 0.000000 1.670710 0.000000 
#    z 0.000000 0.000000 1.707570 
# 
# From -- ./inp_files/1015.got.cif
#   From: 2010.05.17/outbox.cif.g08.bks.cpg/sg174_cif.got.tgz:1015.got - 2010.05.20 11:22:48.
