data_PCOD9581785
_publ_section_title
;
Structure prediction by ZEFSAII (Michael W. Deem and Ramdas Pophale) SiO2 
 PCOD9581785
Probable space group: P 63/M
;
_chemical_formula_sum "Si O2"
_cell_formula_units_Z 72
_cell_length_a 24.549466
_cell_length_b 24.549466
_cell_length_c 8.646041
_cell_angle_alpha 90.000000
_cell_angle_beta 90.000000
_cell_angle_gamma 120.000000
_cell_volume 4512.653854
_symmetry_space_group_name_H-M "P 63/M"
_symmetry_group_IT_number 176
_symmetry_cell_setting 'hexagonal'
loop_
_space_group_symop_operation_xyz
x,y,z
x-y,x,1/2+z
-y,x-y,z
-x,-y,1/2+z
-x+y,-x,z
y,-x+y,1/2+z
-x,-y,-z
-x+y,-x,1/2-z
y,-x+y,-z
x,y,1/2-z
x-y,x,-z
-y,x-y,1/2-z
loop_
_atom_site_type_symbol
_atom_site_label
_atom_site_fract_x
_atom_site_fract_y
_atom_site_fract_z
Si Si1 0.071130 0.807979 0.935474
Si Si2 0.735581 0.596679 0.935567
Si Si3 0.260215 0.187645 0.563177
Si Si4 0.521049 0.594469 0.436963
Si Si5 0.926831 0.402960 0.065144
Si Si6 0.405581 0.262949 0.562254
O O1 0.072752 0.805479 0.750000
O O2 0.999505 0.783644 0.983647
O O3 0.094676 0.762055 0.002509
O O4 0.120725 0.877599 0.993077
O O5 0.735262 0.598259 0.750000
O O6 0.787372 0.577497 0.985268
O O7 0.666090 0.551262 0.996665
O O8 0.259000 0.182509 0.750000
O O9 0.332759 0.236029 0.517864
O O10 0.516608 0.592853 0.250000
O O11 0.453496 0.545054 0.504837
O O12 0.568466 0.568854 0.479313
O O13 0.549636 0.666067 0.491485
O O14 0.923312 0.399789 0.250000
O O15 0.407127 0.265030 0.750000
#
# Coordination Sequence:
#
# PCOD9581785 Si02
#       6
#    12  12  12  12  12  12
#     4  10  19  31  49  72  97 126 159 196 237 280
#     4  10  19  31  48  70  96 126 159 194 234 280
#     4   9  18  32  48  69  98 127 155 191 236 284
#     4   9  17  31  49  67  91 123 156 190 231 280
#     4  10  19  30  46  70  97 123 153 191 236 282
#     4   8  15  29  48  67  89 120 154 187 226 274
#
# _framework density 15.955136
#
# number of rings (size 3 to 8) (size 9 to 14) (size 15 to 20)
#    0.000    2.667    0.000    3.500    0.000    4.667 
#    0.000    4.167    0.000    1.000    0.000    2.333 
#    0.000    0.000    0.000    0.000    0.000    0.000 
#
# Total GULP energy -401408.396062 kJ/mol
# GULP energy per Si atom -5575.116612 kJ/mol
# Density = 1.591882 g / cm^3
# Si number density = 15.955136 Si / 1000 Ang^3
#
#
#
# Elastic Constant Matrix: (Units=GPa)
#
#
# Indices 1 2 3 4 5 6 
#
# 1 148.2760 99.3571 35.1962 0.0000 0.0000 0.0000
# 2 99.3571 148.2760 35.1962 0.0000 0.0000 0.0000
# 3 35.1962 35.1962 26.4465 0.0000 0.0000 0.0000
# 4 0.0000 0.0000 0.0000 24.2767 0.0000 0.0000
# 5 0.0000 0.0000 0.0000 0.0000 24.2767 0.0000
# 6 0.0000 0.0000 0.0000 0.0000 0.0000 24.4595
#
#
#
# Elastic Compliance Matrix: (Units=1/GPa)
#
#
# Indices 1 2 3 4 5 6 
#
# 1 0.013469 -0.006973 -0.008645 0.000000 0.000000 0.000000
# 2 -0.006973 0.013469 -0.008645 0.000000 0.000000 0.000000
# 3 -0.008645 -0.008645 0.060821 0.000000 0.000000 0.000000
# 4 0.000000 0.000000 0.000000 0.041192 0.000000 0.000000
# 5 0.000000 0.000000 0.000000 0.000000 0.041192 0.000000
# 6 0.000000 0.000000 0.000000 0.000000 0.000000 0.040884
#
#
# Mechanical properties :
#
#
# Convention : Reuss Voigt Hill
#
# Bulk Modulus (GPa) = 25.48795 73.61082 49.54939
# Shear Modulus (GPa) = 18.33993 24.81918 21.57955
#
# Velocity S-wave (km/s) = 3.39406 3.94834 3.68164
# Velocity P-wave (km/s) = 5.60080 8.18670 7.01395
#
# Compressibility (1/GPa) = 0.03923423
#
# Stress axis : x y z
#
# Youngs Moduli (GPa) = 74.24590 74.24590 16.44159
#
# Poissons Ratio (x) = 0.51773 0.14213
# Poissons Ratio (y) = 0.51773 0.14213
# Poissons Ratio (z) = 0.64182 0.64182
#
# Static dielectric constant tensor:
#      x y z
#    x 1.522070 0.000000 0.000000 
#    y 0.000000 1.522070 0.000000 
#    z 0.000000 0.000000 1.541560 
# 
# From -- ./inp_files/1181.got.cif
#   From: 2010.05.17/outbox.cif.g08.bks.cpg/sg176_1_cif.got.tgz:1181.got - 2010.06.03 11:36:45.
