data_PCOD9581773
_publ_section_title
;
Structure prediction by ZEFSAII (Michael W. Deem and Ramdas Pophale) SiO2 
 PCOD9581773
Probable space group: P 63/M
;
_chemical_formula_sum "Si O2"
_cell_formula_units_Z 58
_cell_length_a 13.566667
_cell_length_b 13.566667
_cell_length_c 22.844780
_cell_angle_alpha 90.000000
_cell_angle_beta 90.000000
_cell_angle_gamma 120.000000
_cell_volume 3641.362724
_symmetry_space_group_name_H-M "P 63/M"
_symmetry_group_IT_number 176
_symmetry_cell_setting 'hexagonal'
loop_
_space_group_symop_operation_xyz
x,y,z
x-y,x,1/2+z
-y,x-y,z
-x,-y,1/2+z
-x+y,-x,z
y,-x+y,1/2+z
-x,-y,-z
-x+y,-x,1/2-z
y,-x+y,-z
x,y,1/2-z
x-y,x,-z
-y,x-y,1/2-z
loop_
_atom_site_type_symbol
_atom_site_label
_atom_site_fract_x
_atom_site_fract_y
_atom_site_fract_z
Si Si1 0.663388 0.104247 0.583455
Si Si2 0.433364 0.328237 0.052239
Si Si3 0.665936 0.521055 0.397362
Si Si4 0.333335 0.666668 0.681322
Si Si5 0.121756 0.668404 0.378125
Si Si6 0.343631 0.540928 0.250000
O O1 0.669547 0.076267 0.515591
O O2 0.782846 0.205294 0.604816
O O3 0.571447 0.145875 0.591657
O O4 0.611809 0.984771 0.617637
O O5 0.564628 0.426726 0.062250
O O6 0.424701 0.209966 0.069440
O O7 0.361910 0.361644 0.095960
O O8 0.672657 0.447045 0.344289
O O9 0.333334 0.666668 0.750000
O O10 0.131515 0.652897 0.308770
O O11 0.443018 0.674751 0.250000
#
# Coordination Sequence:
#
# PCOD9581773 Si02
#       6
#    12  12  12   4  12   6
#     4  11  18  32  51  77 101 131 165 209 260 301
#     4  10  19  32  51  75 102 132 166 208 256 302
#     4   9  19  33  46  72 100 127 170 199 244 300
#     4   9  18  36  48  66  96 138 168 205 239 286
#     4  11  20  31  51  74 102 137 165 210 257 301
#     4  10  18  36  46  70 110 136 170 202 252 316
#
# _framework density 15.928103999999999
#
# number of rings (size 3 to 8) (size 9 to 14) (size 15 to 20)
#    0.207    1.655    2.069    5.793    0.000    0.000 
#   18.621    0.000    0.000    0.828    0.000    2.897 
#    0.000    0.000    0.000    0.000    0.000    0.000 
#
# Total GULP energy -323331.257622 kJ/mol
# GULP energy per Si atom -5574.676856 kJ/mol
# Density = 1.589185 g / cm^3
# Si number density = 15.928104 Si / 1000 Ang^3
#
#
#
# Elastic Constant Matrix: (Units=GPa)
#
#
# Indices 1 2 3 4 5 6 
#
# 1 86.6576 44.1911 27.8098 0.0000 0.0000 0.0001
# 2 44.1911 86.6576 27.8098 0.0000 0.0000 0.0002
# 3 27.8098 27.8098 119.8295 0.0000 0.0000 0.0002
# 4 0.0000 0.0000 0.0000 11.5842 0.0000 0.0000
# 5 0.0000 0.0000 0.0000 0.0000 11.5842 0.0000
# 6 0.0001 0.0002 0.0002 0.0000 0.0000 21.2331
#
#
#
# Elastic Compliance Matrix: (Units=1/GPa)
#
#
# Indices 1 2 3 4 5 6 
#
# 1 0.016013 -0.007535 -0.001968 0.000000 0.000000 0.000000
# 2 -0.007535 0.016013 -0.001968 0.000000 0.000000 0.000000
# 3 -0.001968 -0.001968 0.009259 0.000000 0.000000 0.000000
# 4 0.000000 0.000000 0.000000 0.086324 0.000000 0.000000
# 5 0.000000 0.000000 0.000000 0.000000 0.086324 0.000000
# 6 0.000000 0.000000 0.000000 0.000000 0.000000 0.047096
#
#
# Mechanical properties :
#
#
# Convention : Reuss Voigt Hill
#
# Bulk Modulus (GPa) = 54.51015 54.75178 54.63096
# Shear Modulus (GPa) = 17.23630 21.76926 19.50278
#
# Velocity S-wave (km/s) = 3.29315 3.70093 3.50298
# Velocity P-wave (km/s) = 6.98260 7.26026 7.12278
#
# Compressibility (1/GPa) = 0.01834521
#
# Stress axis : x y z
#
# Youngs Moduli (GPa) = 62.44771 62.44767 108.00849
#
# Poissons Ratio (x) = 0.47052 0.21253
# Poissons Ratio (y) = 0.47052 0.21253
# Poissons Ratio (z) = 0.12288 0.12288
#
# Static dielectric constant tensor:
#      x y z
#    x 1.538920 0.000000 0.000000 
#    y 0.000000 1.538910 0.000000 
#    z 0.000000 0.000000 1.537380 
# 
# From -- ./inp_files/3765.got.cif
#   From: 2010.05.17/outbox.cif.g08.bks.cpg/sg176_2_cif.got.tgz:3765.got - 2010.06.03 11:36:45.
