data_PCOD9581805
_publ_section_title
;
Structure prediction by ZEFSAII (Michael W. Deem and Ramdas Pophale) SiO2 
 PCOD9581805
Probable space group: P 63/M
;
_chemical_formula_sum "Si O2"
_cell_formula_units_Z 72
_cell_length_a 24.209265
_cell_length_b 24.209265
_cell_length_c 8.992764
_cell_angle_alpha 90.000000
_cell_angle_beta 90.000000
_cell_angle_gamma 120.000000
_cell_volume 4564.435102
_symmetry_space_group_name_H-M "P 63/M"
_symmetry_group_IT_number 176
_symmetry_cell_setting 'hexagonal'
loop_
_space_group_symop_operation_xyz
x,y,z
x-y,x,1/2+z
-y,x-y,z
-x,-y,1/2+z
-x+y,-x,z
y,-x+y,1/2+z
-x,-y,-z
-x+y,-x,1/2-z
y,-x+y,-z
x,y,1/2-z
x-y,x,-z
-y,x-y,1/2-z
loop_
_atom_site_type_symbol
_atom_site_label
_atom_site_fract_x
_atom_site_fract_y
_atom_site_fract_z
Si Si1 0.410179 0.140918 0.426671
Si Si2 0.402769 0.469562 0.426554
Si Si3 0.405074 0.265878 0.072303
Si Si4 0.926709 0.187688 0.072018
Si Si5 0.929336 0.529012 0.927006
Si Si6 0.926082 0.733442 0.928159
O O1 0.418614 0.136033 0.250000
O O2 0.451826 0.118327 0.516438
O O3 0.424370 0.212146 0.459599
O O4 0.334908 0.095367 0.460731
O O5 0.402390 0.459329 0.250000
O O6 0.457432 0.542332 0.457781
O O7 0.424680 0.424847 0.509851
O O8 0.400354 0.269468 0.250000
O O9 0.452899 0.334297 0.004848
O O10 0.335207 0.239459 0.001163
O O11 0.918668 0.176183 0.250000
O O12 0.000598 0.217229 0.033444
O O13 0.877587 0.123383 0.988110
O O14 0.929027 0.537410 0.750000
O O15 0.921489 0.726464 0.750000
#
# Coordination Sequence:
#
# PCOD9581805 Si02
#       6
#    12  12  12  12  12  12
#     4   9  18  32  49  70  98 127 154 193 240 282
#     4  10  20  32  49  73  98 127 161 195 235 283
#     4  10  20  33  50  72  97 126 159 196 238 283
#     4   9  19  33  47  69  99 126 157 196 236 281
#     4  10  20  33  49  71  99 128 159 197 238 280
#     4  10  19  31  50  73  97 128 160 194 239 284
#
# _framework density 15.774131000000001
#
# number of rings (size 3 to 8) (size 9 to 14) (size 15 to 20)
#    0.000    2.333    0.000    4.000    0.000    8.000 
#    0.000    0.000    0.000    1.000    0.000    0.000 
#    0.000    0.000    0.000    0.000    0.000    0.000 
#
# Total GULP energy -401736.955369 kJ/mol
# GULP energy per Si atom -5579.679936 kJ/mol
# Density = 1.573823 g / cm^3
# Si number density = 15.774131 Si / 1000 Ang^3
#
#
#
# Elastic Constant Matrix: (Units=GPa)
#
#
# Indices 1 2 3 4 5 6 
#
# 1 108.4972 71.3873 59.8252 0.0000 0.0000 0.0000
# 2 71.3873 108.4972 59.8252 0.0000 0.0000 0.0000
# 3 59.8252 59.8252 62.7829 0.0000 0.0000 0.0000
# 4 0.0000 0.0000 0.0000 30.0799 0.0000 0.0000
# 5 0.0000 0.0000 0.0000 0.0000 30.0799 0.0000
# 6 0.0000 0.0000 0.0000 0.0000 0.0000 18.5549
#
#
#
# Elastic Compliance Matrix: (Units=1/GPa)
#
#
# Indices 1 2 3 4 5 6 
#
# 1 0.021064 -0.005883 -0.014466 0.000000 0.000000 0.000000
# 2 -0.005883 0.021064 -0.014466 0.000000 0.000000 0.000000
# 3 -0.014466 -0.014466 0.043497 0.000000 0.000000 0.000000
# 4 0.000000 0.000000 0.000000 0.033245 0.000000 0.000000
# 5 0.000000 0.000000 0.000000 0.000000 0.033245 0.000000
# 6 0.000000 0.000000 0.000000 0.000000 0.000000 0.053894
#
#
# Mechanical properties :
#
#
# Convention : Reuss Voigt Hill
#
# Bulk Modulus (GPa) = 62.51844 73.53920 68.02882
# Shear Modulus (GPa) = 17.79549 21.65893 19.72721
#
# Velocity S-wave (km/s) = 3.36243 3.70951 3.54023
# Velocity P-wave (km/s) = 7.40231 8.06651 7.74154
#
# Compressibility (1/GPa) = 0.01599528
#
# Stress axis : x y z
#
# Youngs Moduli (GPa) = 47.47418 47.47418 22.99018
#
# Poissons Ratio (x) = 0.27929 0.33258
# Poissons Ratio (y) = 0.27929 0.33258
# Poissons Ratio (z) = 0.68676 0.68676
#
# Static dielectric constant tensor:
#      x y z
#    x 1.511290 0.000000 0.000000 
#    y 0.000000 1.511290 0.000000 
#    z 0.000000 0.000000 1.524930 
# 
# From -- ./inp_files/1160.got.cif
#   From: 2010.05.17/outbox.cif.g08.bks.cpg/sg176_1_cif.got.tgz:1160.got - 2010.06.03 11:36:45.
