data_PCOD9581406
_publ_section_title
;
Structure prediction by ZEFSAII (Michael W. Deem and Ramdas Pophale) SiO2 
 PCOD9581406
Probable space group: P 6/M
;
_chemical_formula_sum "Si O2"
_cell_formula_units_Z 48
_cell_length_a 10.778057
_cell_length_b 10.778057
_cell_length_c 22.586113
_cell_angle_alpha 90.000000
_cell_angle_beta 90.000000
_cell_angle_gamma 120.000000
_cell_volume 2272.234138
_symmetry_space_group_name_H-M "P 6/M"
_symmetry_group_IT_number 175
_symmetry_cell_setting 'hexagonal'
loop_
_space_group_symop_operation_xyz
x,y,z
x-y,x,z
-y,x-y,z
-x,-y,z
-x+y,-x,z
y,-x+y,z
-x,-y,-z
-x+y,-x,-z
y,-x+y,-z
x,y,-z
x-y,x,-z
-y,x-y,-z
loop_
_atom_site_type_symbol
_atom_site_label
_atom_site_fract_x
_atom_site_fract_y
_atom_site_fract_z
Si Si1 0.750496 0.673209 0.569562
Si Si2 0.065299 0.324226 0.000000
Si Si3 0.063030 0.323763 0.871532
Si Si4 0.657202 0.167735 0.242055
Si Si5 0.000000 0.500000 0.348943
O O1 0.916097 0.721486 0.580280
O O2 0.722027 0.635072 0.500000
O O3 0.636472 0.542648 0.609644
O O4 0.184368 0.275939 0.000000
O O5 0.080102 0.396882 0.936252
O O6 0.184284 0.277765 0.868558
O O7 0.089291 0.425356 0.816161
O O8 0.795903 0.324748 0.240660
O O9 0.632367 0.089046 0.304143
#
# Coordination Sequence:
#
# PCOD9581406 Si02
#       5
#    12   6  12  12   6
#     4  10  22  41  66  97 130 162 198 250 313 371
#     4   8  15  28  52  82 114 147 190 246 306 362
#     4  10  19  35  58  87 117 152 197 251 307 363
#     4  10  23  38  56  81 114 161 197 246 300 348
#     4  12  21  40  64  91 122 158 218 248 292 357
#
# _framework density 21.124583000000001
#
# number of rings (size 3 to 8) (size 9 to 14) (size 15 to 20)
#    0.500    1.500    0.000    4.000    0.000    3.000 
#    1.500    1.250    0.000    8.250    0.000    0.000 
#    0.000    0.000    0.000    0.000    0.000    0.000 
#
# Total GULP energy -267690.390838 kJ/mol
# GULP energy per Si atom -5576.883142 kJ/mol
# Density = 2.107650 g / cm^3
# Si number density = 21.124583 Si / 1000 Ang^3
#
#
#
# Elastic Constant Matrix: (Units=GPa)
#
#
# Indices 1 2 3 4 5 6 
#
# 1 57.6722 0.1806 52.8463 0.0000 0.0000 0.0000
# 2 0.1806 57.6722 52.8463 0.0000 0.0000 0.0000
# 3 52.8463 52.8463 178.5763 0.0000 0.0000 0.0000
# 4 0.0000 0.0000 0.0000 33.2424 0.0000 0.0000
# 5 0.0000 0.0000 0.0000 0.0000 33.2424 0.0000
# 6 0.0000 0.0000 0.0000 0.0000 0.0000 28.7458
#
#
#
# Elastic Compliance Matrix: (Units=1/GPa)
#
#
# Indices 1 2 3 4 5 6 
#
# 1 0.027512 0.010118 -0.011136 0.000000 0.000000 0.000000
# 2 0.010118 0.027512 -0.011136 0.000000 0.000000 0.000000
# 3 -0.011136 -0.011136 0.012191 0.000000 0.000000 0.000000
# 4 0.000000 0.000000 0.000000 0.030082 0.000000 0.000000
# 5 0.000000 0.000000 0.000000 0.000000 0.030082 0.000000
# 6 0.000000 0.000000 0.000000 0.000000 0.000000 0.034788
#
#
# Mechanical properties :
#
#
# Convention : Reuss Voigt Hill
#
# Bulk Modulus (GPa) = 23.30647 56.18521 39.74584
# Shear Modulus (GPa) = 24.90348 31.58261 28.24304
#
# Velocity S-wave (km/s) = 3.43722 3.87080 3.66043
# Velocity P-wave (km/s) = 5.17778 6.82878 6.05977
#
# Compressibility (1/GPa) = 0.04290654
#
# Stress axis : x y z
#
# Youngs Moduli (GPa) = 36.34832 36.34832 82.03011
#
# Poissons Ratio (x) = -0.36776 0.91346
# Poissons Ratio (y) = -0.36776 0.91346
# Poissons Ratio (z) = 0.40476 0.40476
#
# Static dielectric constant tensor:
#      x y z
#    x 1.777620 0.000000 0.000000 
#    y 0.000000 1.777620 0.000000 
#    z 0.000000 0.000000 1.787540 
# 
# From -- ./inp_files/3040.got.cif
#   From: 2010.05.17/outbox.cif.g08.bks.cpg/sg175_2_cif.got.tgz:3040.got - 2010.05.20 11:23:22.
