data_PCOD9581931
_publ_section_title
;
Structure prediction by ZEFSAII (Michael W. Deem and Ramdas Pophale) SiO2 
 PCOD9581931
Probable space group: P 63/M
;
_chemical_formula_sum "Si O2"
_cell_formula_units_Z 66
_cell_length_a 19.862965
_cell_length_b 19.862965
_cell_length_c 10.710565
_cell_angle_alpha 90.000000
_cell_angle_beta 90.000000
_cell_angle_gamma 120.000000
_cell_volume 3659.579344
_symmetry_space_group_name_H-M "P 63/M"
_symmetry_group_IT_number 176
_symmetry_cell_setting 'hexagonal'
loop_
_space_group_symop_operation_xyz
x,y,z
x-y,x,1/2+z
-y,x-y,z
-x,-y,1/2+z
-x+y,-x,z
y,-x+y,1/2+z
-x,-y,-z
-x+y,-x,1/2-z
y,-x+y,-z
x,y,1/2-z
x-y,x,-z
-y,x-y,1/2-z
loop_
_atom_site_type_symbol
_atom_site_label
_atom_site_fract_x
_atom_site_fract_y
_atom_site_fract_z
Si Si1 0.453010 0.936132 0.605800
Si Si2 0.471042 0.170672 0.109210
Si Si3 0.305737 0.833539 0.464617
Si Si4 0.194083 0.898555 0.108799
Si Si5 0.916717 0.205971 0.107065
Si Si6 0.352489 0.763630 0.250000
O O1 0.466780 0.964877 0.750000
O O2 0.480461 0.872577 0.595449
O O3 0.362423 0.891650 0.569683
O O4 0.500000 0.000000 0.500000
O O5 0.482339 0.201640 0.250000
O O6 0.490546 0.241529 0.019394
O O7 0.379843 0.108056 0.094497
O O8 0.258395 0.871542 0.404219
O O9 0.355393 0.814547 0.367508
O O10 0.161522 0.878517 0.250000
O O11 0.236211 0.991190 0.093403
O O12 0.131350 0.855937 0.999926
O O13 0.895608 0.175131 0.250000
O O14 0.269360 0.681372 0.250000
#
# Coordination Sequence:
#
# PCOD9581931 Si02
#       6
#    12  12  12  12  12   6
#     4  11  24  39  59  83 113 152 195 246 303 359
#     4   9  19  37  56  78 109 147 194 240 290 348
#     4  11  20  37  57  81 112 154 195 244 294 353
#     4  10  20  36  59  86 115 153 188 233 291 345
#     4   9  19  35  57  83 114 146 186 234 283 342
#     4  10  22  34  52  82 116 152 194 248 304 340
#
# _framework density 18.034859000000001
#
# number of rings (size 3 to 8) (size 9 to 14) (size 15 to 20)
#    0.182    1.818    0.909    2.727    1.273    2.909 
#    2.727    3.636    0.000    0.364    0.000    0.000 
#    0.000    0.000    0.000    0.000    0.000    0.000 
#
# Total GULP energy -368043.559105 kJ/mol
# GULP energy per Si atom -5576.417562 kJ/mol
# Density = 1.799381 g / cm^3
# Si number density = 18.034859 Si / 1000 Ang^3
#
#
#
# Elastic Constant Matrix: (Units=GPa)
#
#
# Indices 1 2 3 4 5 6 
#
# 1 39.7460 10.0874 42.8497 0.0000 0.0000 0.0000
# 2 10.0874 39.7460 42.8497 0.0000 0.0000 0.0000
# 3 42.8497 42.8497 134.5066 0.0000 0.0000 0.0000
# 4 0.0000 0.0000 0.0000 26.7554 0.0000 0.0000
# 5 0.0000 0.0000 0.0000 0.0000 26.7554 0.0000
# 6 0.0000 0.0000 0.0000 0.0000 0.0000 14.8293
#
#
#
# Elastic Compliance Matrix: (Units=1/GPa)
#
#
# Indices 1 2 3 4 5 6 
#
# 1 0.039049 0.005332 -0.014138 0.000000 0.000000 0.000000
# 2 0.005332 0.039049 -0.014138 0.000000 0.000000 0.000000
# 3 -0.014138 -0.014138 0.016443 0.000000 0.000000 0.000000
# 4 0.000000 0.000000 0.000000 0.037376 0.000000 0.000000
# 5 0.000000 0.000000 0.000000 0.000000 0.037376 0.000000
# 6 0.000000 0.000000 0.000000 0.000000 0.000000 0.067434
#
#
# Mechanical properties :
#
#
# Convention : Reuss Voigt Hill
#
# Bulk Modulus (GPa) = 20.55459 45.06358 32.80909
# Shear Modulus (GPa) = 16.73176 21.54881 19.14029
#
# Velocity S-wave (km/s) = 3.04920 3.46040 3.26128
# Velocity P-wave (km/s) = 4.88044 6.40367 5.69323
#
# Compressibility (1/GPa) = 0.04865093
#
# Stress axis : x y z
#
# Youngs Moduli (GPa) = 25.60884 25.60884 60.81725
#
# Poissons Ratio (x) = -0.13654 0.85986
# Poissons Ratio (y) = -0.13654 0.85986
# Poissons Ratio (z) = 0.36207 0.36207
#
# Static dielectric constant tensor:
#      x y z
#    x 1.603450 0.000000 0.000000 
#    y 0.000000 1.603450 0.000000 
#    z 0.000000 0.000000 1.646690 
# 
# From -- ./inp_files/967.got.cif
#   From: 2010.05.17/outbox.cif.g08.bks.cpg/sg176_1_cif.got.tgz:967.got - 2010.06.03 11:36:45.
