data_PCOD9581824
_publ_section_title
;
Structure prediction by ZEFSAII (Michael W. Deem and Ramdas Pophale) SiO2 
 PCOD9581824
Probable space group: P 63/M
;
_chemical_formula_sum "Si O2"
_cell_formula_units_Z 40
_cell_length_a 9.512063
_cell_length_b 9.512063
_cell_length_c 18.164881
_cell_angle_alpha 90.000000
_cell_angle_beta 90.000000
_cell_angle_gamma 120.000000
_cell_volume 1423.353012
_symmetry_space_group_name_H-M "P 63/M"
_symmetry_group_IT_number 176
_symmetry_cell_setting 'hexagonal'
loop_
_space_group_symop_operation_xyz
x,y,z
x-y,x,1/2+z
-y,x-y,z
-x,-y,1/2+z
-x+y,-x,z
y,-x+y,1/2+z
-x,-y,-z
-x+y,-x,1/2-z
y,-x+y,-z
x,y,1/2-z
x-y,x,-z
-y,x-y,1/2-z
loop_
_atom_site_type_symbol
_atom_site_label
_atom_site_fract_x
_atom_site_fract_y
_atom_site_fract_z
Si Si1 0.514988 0.375662 0.860898
Si Si2 0.000000 0.000000 0.837283
Si Si3 0.191129 0.374704 0.833178
Si Si4 0.265521 0.892459 0.513923
O O1 0.500553 0.201912 0.839407
O O2 0.369807 0.394959 0.830754
O O3 0.497023 0.368154 0.949104
O O4 0.000000 0.000000 0.750000
O O5 0.078149 0.186433 0.856491
O O6 0.156545 0.408838 0.750000
O O7 0.159306 0.453277 0.904980
O O8 0.076857 0.772667 0.493636
#
# Coordination Sequence:
#
# PCOD9581824 Si02
#       4
#    12   4  12  12
#     4   9  21  37  51  76 106 151 188 221 252 325
#     4   9  18  33  52  83 112 129 160 215 295 342
#     4  10  19  32  55  82 110 136 173 234 287 331
#     4  10  19  33  56  80 107 138 180 225 282 331
#
# _framework density 28.102654999999999
#
# number of rings (size 3 to 8) (size 9 to 14) (size 15 to 20)
#    0.600    1.800    0.000    3.900    0.000    6.000 
#    0.000    0.000    0.000    9.000    0.000    0.000 
#    0.000    0.000    0.000    0.000    0.000    0.000 
#
# Total GULP energy -224122.527390 kJ/mol
# GULP energy per Si atom -5603.063185 kJ/mol
# Density = 2.803869 g / cm^3
# Si number density = 28.102655 Si / 1000 Ang^3
#
#
#
# Elastic Constant Matrix: (Units=GPa)
#
#
# Indices 1 2 3 4 5 6 
#
# 1 96.3930 58.2081 30.2579 0.0000 0.0000 0.0000
# 2 58.2081 96.3930 30.2579 0.0000 0.0000 0.0000
# 3 30.2579 30.2579 260.2721 0.0000 0.0000 0.0000
# 4 0.0000 0.0000 0.0000 26.2709 0.0000 0.0000
# 5 0.0000 0.0000 0.0000 0.0000 26.2709 0.0000
# 6 0.0000 0.0000 0.0000 0.0000 0.0000 19.0924
#
#
#
# Elastic Compliance Matrix: (Units=1/GPa)
#
#
# Indices 1 2 3 4 5 6 
#
# 1 0.016483 -0.009706 -0.000788 0.000000 0.000000 0.000000
# 2 -0.009706 0.016483 -0.000788 0.000000 0.000000 0.000000
# 3 -0.000788 -0.000788 0.004025 0.000000 0.000000 0.000000
# 4 0.000000 0.000000 0.000000 0.038065 0.000000 0.000000
# 5 0.000000 0.000000 0.000000 0.000000 0.038065 0.000000
# 6 0.000000 0.000000 0.000000 0.000000 0.000000 0.052377
#
#
# Mechanical properties :
#
#
# Convention : Reuss Voigt Hill
#
# Bulk Modulus (GPa) = 69.31296 76.72286 73.01791
# Shear Modulus (GPa) = 25.92432 36.61579 31.27005
#
# Velocity S-wave (km/s) = 3.04054 3.61353 3.33935
# Velocity P-wave (km/s) = 6.08640 6.69106 6.39588
#
# Compressibility (1/GPa) = 0.01442732
#
# Stress axis : x y z
#
# Youngs Moduli (GPa) = 60.67036 60.67036 248.42822
#
# Poissons Ratio (x) = 0.58886 0.19572
# Poissons Ratio (y) = 0.58886 0.19572
# Poissons Ratio (z) = 0.04780 0.04780
#
# Static dielectric constant tensor:
#      x y z
#    x 2.900980 0.000000 0.000000 
#    y 0.000000 2.900980 0.000000 
#    z 0.000000 0.000000 2.178590 
# 
# From -- ./inp_files/3137.got.cif
#   From: 2010.05.17/outbox.cif.g08.bks.cpg/sg176_2_cif.got.tgz:3137.got - 2010.06.03 11:36:45.
