data_PCOD9581410
_publ_section_title
;
Structure prediction by ZEFSAII (Michael W. Deem and Ramdas Pophale) SiO2 
 PCOD9581410
Probable space group: P 6/M
;
_chemical_formula_sum "Si O2"
_cell_formula_units_Z 70
_cell_length_a 15.415579
_cell_length_b 15.415579
_cell_length_c 17.034662
_cell_angle_alpha 90.000000
_cell_angle_beta 90.000000
_cell_angle_gamma 120.000000
_cell_volume 3505.773347
_symmetry_space_group_name_H-M "P 6/M"
_symmetry_group_IT_number 175
_symmetry_cell_setting 'hexagonal'
loop_
_space_group_symop_operation_xyz
x,y,z
x-y,x,z
-y,x-y,z
-x,-y,z
-x+y,-x,z
y,-x+y,z
-x,-y,-z
-x+y,-x,-z
y,-x+y,-z
x,y,-z
x-y,x,-z
-y,x-y,-z
loop_
_atom_site_type_symbol
_atom_site_label
_atom_site_fract_x
_atom_site_fract_y
_atom_site_fract_z
Si Si1 0.333335 0.666668 0.595582
Si Si2 0.329323 0.948594 0.333507
Si Si3 0.657639 0.587830 0.909963
Si Si4 0.734325 0.558393 0.406220
Si Si5 0.793398 0.832682 0.242779
Si Si6 0.192840 0.892030 0.087674
Si Si7 0.500000 0.500000 0.222947
O O1 0.333334 0.666668 0.500000
O O2 0.318982 0.558778 0.619110
O O3 0.382942 0.061734 0.371200
O O4 0.411220 0.936614 0.284418
O O5 0.253069 0.852567 0.385803
O O6 0.258280 0.947271 0.265204
O O7 0.646408 0.686999 0.912214
O O8 0.775018 0.627712 0.892773
O O9 0.589704 0.522743 0.837872
O O10 0.635131 0.545726 0.000000
O O11 0.725829 0.562208 0.500000
O O12 0.875510 0.810781 0.276062
O O13 0.787593 0.842662 0.149854
O O14 0.157248 0.893266 0.000000
#
# Coordination Sequence:
#
# PCOD9581410 Si02
#       7
#     4  12  12  12  12  12   6
#     4   9  21  42  69  96 126 153 202 266 328 390
#     4  12  24  40  67  95 129 167 218 269 330 398
#     4  10  21  37  59  87 125 173 221 268 320 382
#     4  11  24  46  69  97 130 171 214 271 338 412
#     4  12  22  38  58  89 131 168 210 266 321 381
#     4  10  19  35  60  87 121 167 213 263 313 371
#     4  12  23  36  59  94 124 162 218 270 323 390
#
# _framework density 19.967065000000002
#
# number of rings (size 3 to 8) (size 9 to 14) (size 15 to 20)
#    0.000    1.029    5.143    1.971    0.000    0.000 
#    0.000    3.429    0.000    1.714    0.000    7.200 
#    0.000    0.000    0.000    0.000    0.000    0.000 
#
# Total GULP energy -389779.876538 kJ/mol
# GULP energy per Si atom -5568.283951 kJ/mol
# Density = 1.992162 g / cm^3
# Si number density = 19.967065 Si / 1000 Ang^3
#
#
#
# Elastic Constant Matrix: (Units=GPa)
#
#
# Indices 1 2 3 4 5 6 
#
# 1 99.5542 34.7335 36.2981 0.0000 0.0000 0.0002
# 2 34.7335 99.5555 36.2981 0.0000 0.0000 0.0001
# 3 36.2981 36.2981 80.2458 0.0000 0.0000 0.0000
# 4 0.0000 0.0000 0.0000 22.0162 0.0001 0.0000
# 5 0.0000 0.0000 0.0000 0.0001 22.0162 0.0000
# 6 0.0002 0.0001 0.0000 0.0000 0.0000 32.4109
#
#
#
# Elastic Compliance Matrix: (Units=1/GPa)
#
#
# Indices 1 2 3 4 5 6 
#
# 1 0.012642 -0.002785 -0.004459 0.000000 0.000000 0.000000
# 2 -0.002785 0.012642 -0.004459 0.000000 0.000000 0.000000
# 3 -0.004459 -0.004459 0.016495 0.000000 0.000000 0.000000
# 4 0.000000 0.000000 0.000000 0.045421 0.000000 0.000000
# 5 0.000000 0.000000 0.000000 0.000000 0.045421 0.000000
# 6 0.000000 0.000000 0.000000 0.000000 0.000000 0.030854
#
#
# Mechanical properties :
#
#
# Convention : Reuss Voigt Hill
#
# Bulk Modulus (GPa) = 54.42280 54.89055 54.65668
# Shear Modulus (GPa) = 25.90605 26.75704 26.33154
#
# Velocity S-wave (km/s) = 3.60591 3.66465 3.63540
# Velocity P-wave (km/s) = 6.68223 6.74214 6.71225
#
# Compressibility (1/GPa) = 0.01837465
#
# Stress axis : x y z
#
# Youngs Moduli (GPa) = 79.10063 79.10190 60.62306
#
# Poissons Ratio (x) = 0.22030 0.27030
# Poissons Ratio (y) = 0.22029 0.27030
# Poissons Ratio (z) = 0.35269 0.35269
#
# Static dielectric constant tensor:
#      x y z
#    x 1.739000 0.000000 0.000000 
#    y 0.000000 1.739000 0.000000 
#    z 0.000000 0.000000 1.728520 
# 
# From -- ./inp_files/2909.got.cif
#   From: 2010.05.17/outbox.cif.g08.bks.cpg/sg175_2_cif.got.tgz:2909.got - 2010.05.20 11:23:22.
