data_PCOD9581222
_publ_section_title
;
Structure prediction by ZEFSAII (Michael W. Deem and Ramdas Pophale) SiO2 
 PCOD9581222
Probable space group: P -6
;
_chemical_formula_sum "Si O2"
_cell_formula_units_Z 32
_cell_length_a 15.152106
_cell_length_b 15.152106
_cell_length_c 7.984622
_cell_angle_alpha 90.000000
_cell_angle_beta 90.000000
_cell_angle_gamma 120.000000
_cell_volume 1587.563087
_symmetry_space_group_name_H-M "P -6"
_symmetry_group_IT_number 174
_symmetry_cell_setting 'hexagonal'
loop_
_space_group_symop_operation_xyz
x,y,z
-x+y,-x,-z
-y,x-y,z
x,y,-z
-x+y,-x,z
-y,x-y,-z
loop_
_atom_site_type_symbol
_atom_site_label
_atom_site_fract_x
_atom_site_fract_y
_atom_site_fract_z
Si Si1 0.872476 0.918723 0.701155
Si Si2 0.820737 0.258391 0.702766
Si Si3 0.333335 0.666667 0.292352
Si Si4 0.463544 0.571333 0.694974
Si Si5 0.276285 0.958250 0.191405
Si Si6 0.891393 0.487352 0.704610
O O1 0.863540 0.912836 0.500000
O O2 0.763444 0.840864 0.773086
O O3 0.930296 0.038824 0.747406
O O4 0.825119 0.254471 0.500000
O O5 0.920892 0.260978 0.771276
O O6 0.831650 0.367422 0.747202
O O7 0.712289 0.167703 0.760893
O O8 0.333334 0.666668 0.500000
O O9 0.217130 0.615503 0.233826
O O10 0.437161 0.547390 0.500000
O O11 0.577673 0.668564 0.704569
O O12 0.468667 0.475264 0.767392
O O13 0.289723 0.939662 0.000000
O O14 0.893824 0.491126 0.500000
#
# Coordination Sequence:
#
# PCOD9581222 Si02
#       6
#     6   6   2   6   6   6
#     4   8  17  35  57  77  97 126 168 213 255 304
#     4   9  16  29  50  74 104 137 178 223 263 312
#     4   9  18  36  61  83 103 135 187 248 289 306
#     4   9  18  35  56  77 104 137 181 232 276 318
#     4  11  21  33  50  76 110 145 172 207 263 325
#     4   8  14  26  48  75 100 132 174 223 270 311
#
# _framework density 20.156679
#
# number of rings (size 3 to 8) (size 9 to 14) (size 15 to 20)
#    0.375    2.625    0.000    3.188    0.000    2.250 
#    3.375    4.688    0.000    0.000    0.000    0.000 
#    0.000    0.000    0.000    0.000    0.000    0.000 
#
# Total GULP energy -178255.352875 kJ/mol
# GULP energy per Si atom -5570.479777 kJ/mol
# Density = 2.011080 g / cm^3
# Si number density = 20.156679 Si / 1000 Ang^3
#
#
#
# Elastic Constant Matrix: (Units=GPa)
#
#
# Indices 1 2 3 4 5 6 
#
# 1 52.7576 19.5700 -3.0029 0.0000 0.0000 0.0002
# 2 19.5700 52.7622 -3.0029 0.0000 0.0000 0.0004
# 3 -3.0029 -3.0029 16.1005 0.0000 0.0000 0.0001
# 4 0.0000 0.0000 0.0000 -20.7616 -0.0002 0.0000
# 5 0.0000 0.0000 0.0000 -0.0002 -20.7621 0.0000
# 6 0.0002 0.0004 0.0001 0.0000 0.0000 16.5945
#
#
#
# Elastic Compliance Matrix: (Units=1/GPa)
#
#
# Indices 1 2 3 4 5 6 
#
# 1 0.022087 -0.008043 0.002619 0.000000 0.000000 0.000000
# 2 -0.008043 0.022085 0.002619 0.000000 0.000000 0.000000
# 3 0.002619 0.002619 0.063087 0.000000 0.000000 0.000000
# 4 0.000000 0.000000 0.000000 -0.048166 0.000000 0.000000
# 5 0.000000 0.000000 0.000000 0.000000 -0.048165 0.000000
# 6 0.000000 0.000000 0.000000 0.000000 0.000000 0.060261
#
#
# Mechanical properties :
#
#
# Convention : Reuss Voigt Hill
#
# Bulk Modulus (GPa) = 9.83774 16.52764 13.18269
# Shear Modulus (GPa) = 45.17405 2.21789 23.69597
#
# Velocity S-wave (km/s) = 4.73921 1.05010 3.43241
# Velocity P-wave (km/s) = 5.90238 3.11250 4.71835
#
# Compressibility (1/GPa) = 0.10164934
#
# Stress axis : x y z
#
# Youngs Moduli (GPa) = 45.27484 45.27889 15.85121
#
# Poissons Ratio (x) = 0.36419 -0.04152
# Poissons Ratio (y) = 0.36416 -0.04151
# Poissons Ratio (z) = -0.11859 -0.11858
#
# Static dielectric constant tensor:
#      x y z
#    x 1.716870 0.000000 0.000000 
#    y 0.000000 1.716870 0.000000 
#    z 0.000000 0.000000 1.721420 
# 
# From -- ./inp_files/329.got.cif
#   From: 2010.05.17/outbox.cif.g08.bks.cpg/sg174_cif.got.tgz:329.got - 2010.05.20 11:22:48.
