data_PCOD9581436
_publ_section_title
;
Structure prediction by ZEFSAII (Michael W. Deem and Ramdas Pophale) SiO2 
 PCOD9581436
Probable space group: P 6/M
;
_chemical_formula_sum "Si O2"
_cell_formula_units_Z 52
_cell_length_a 13.783516
_cell_length_b 13.783516
_cell_length_c 13.745087
_cell_angle_alpha 90.000000
_cell_angle_beta 90.000000
_cell_angle_gamma 120.000000
_cell_volume 2261.508134
_symmetry_space_group_name_H-M "P 6/M"
_symmetry_group_IT_number 175
_symmetry_cell_setting 'hexagonal'
loop_
_space_group_symop_operation_xyz
x,y,z
x-y,x,z
-y,x-y,z
-x,-y,z
-x+y,-x,z
y,-x+y,z
-x,-y,-z
-x+y,-x,-z
y,-x+y,-z
x,y,-z
x-y,x,-z
-y,x-y,-z
loop_
_atom_site_type_symbol
_atom_site_label
_atom_site_fract_x
_atom_site_fract_y
_atom_site_fract_z
Si Si1 0.870332 0.408139 0.758084
Si Si2 0.744468 0.801586 0.397510
Si Si3 0.804342 0.056382 0.813497
Si Si4 0.666668 0.333334 0.616997
Si Si5 0.783734 0.536469 0.890658
O O1 0.789983 0.371062 0.663050
O O2 0.811280 0.451397 0.834940
O O3 0.852389 0.299160 0.817632
O O4 0.000000 0.500000 0.741630
O O5 0.851817 0.784844 0.398181
O O6 0.681693 0.753180 0.500000
O O7 0.689787 0.758852 0.293017
O O8 0.749531 0.098165 0.891899
O O9 0.935858 0.145025 0.820068
O O10 0.666667 0.333334 0.500000
O O11 0.740640 0.504495 0.000000
#
# Coordination Sequence:
#
# PCOD9581436 Si02
#       5
#    12  12  12   4  12
#     4  10  22  41  65  92 122 157 201 258 321 376
#     4   8  13  23  41  65  95 134 179 223 263 306
#     4  10  20  33  50  77 115 156 194 231 278 345
#     4   9  21  42  67  98 130 159 201 252 310 392
#     4  11  23  39  61  88 116 151 201 257 309 361
#
# _framework density 22.993504000000001
#
# number of rings (size 3 to 8) (size 9 to 14) (size 15 to 20)
#    0.000    2.308    0.000    3.000    0.000    7.846 
#    0.000    4.615    0.000   12.462    0.000    0.000 
#    0.000    0.000    0.000    0.000    0.000   13.385 
#
# Total GULP energy -290097.550186 kJ/mol
# GULP energy per Si atom -5578.799042 kJ/mol
# Density = 2.294117 g / cm^3
# Si number density = 22.993504 Si / 1000 Ang^3
#
#
#
# Elastic Constant Matrix: (Units=GPa)
#
#
# Indices 1 2 3 4 5 6 
#
# 1 75.2570 23.7369 31.8398 0.0000 0.0000 -0.0001
# 2 23.7369 75.2562 31.8393 0.0000 0.0000 -0.0001
# 3 31.8398 31.8393 179.0861 0.0000 0.0000 0.0000
# 4 0.0000 0.0000 0.0000 15.7871 0.0001 0.0000
# 5 0.0000 0.0000 0.0000 0.0001 15.7872 0.0000
# 6 -0.0001 -0.0001 0.0000 0.0000 0.0000 25.7600
#
#
#
# Elastic Compliance Matrix: (Units=1/GPa)
#
#
# Indices 1 2 3 4 5 6 
#
# 1 0.015408 -0.004002 -0.002028 0.000000 0.000000 0.000000
# 2 -0.004002 0.015408 -0.002028 0.000000 0.000000 0.000000
# 3 -0.002028 -0.002028 0.006305 0.000000 0.000000 0.000000
# 4 0.000000 0.000000 0.000000 0.063343 0.000000 0.000000
# 5 0.000000 0.000000 0.000000 0.000000 0.063342 0.000000
# 6 0.000000 0.000000 0.000000 0.000000 0.000000 0.038820
#
#
# Mechanical properties :
#
#
# Convention : Reuss Voigt Hill
#
# Bulk Modulus (GPa) = 47.60607 56.04792 51.82699
# Shear Modulus (GPa) = 22.14901 27.61241 24.88071
#
# Velocity S-wave (km/s) = 3.10703 3.46913 3.29306
# Velocity P-wave (km/s) = 5.79833 6.36199 6.08669
#
# Compressibility (1/GPa) = 0.02100572
#
# Stress axis : x y z
#
# Youngs Moduli (GPa) = 64.90121 64.90068 158.60485
#
# Poissons Ratio (x) = 0.25973 0.32164
# Poissons Ratio (y) = 0.25973 0.32163
# Poissons Ratio (z) = 0.13161 0.13161
#
# Static dielectric constant tensor:
#      x y z
#    x 1.879290 0.000000 0.000000 
#    y 0.000000 1.879290 0.000000 
#    z 0.000000 0.000000 1.923620 
# 
# From -- ./inp_files/2308.got.cif
#   From: 2010.05.17/outbox.cif.g08.bks.cpg/sg175_2_cif.got.tgz:2308.got - 2010.05.20 11:23:22.
