data_PCOD9581639
_publ_section_title
;
Structure prediction by ZEFSAII (Michael W. Deem and Ramdas Pophale) SiO2 
 PCOD9581639
Probable space group: P 6/M
;
_chemical_formula_sum "Si O2"
_cell_formula_units_Z 46
_cell_length_a 14.012015
_cell_length_b 14.012015
_cell_length_c 12.216850
_cell_angle_alpha 90.000000
_cell_angle_beta 90.000000
_cell_angle_gamma 120.000000
_cell_volume 2077.260966
_symmetry_space_group_name_H-M "P 6/M"
_symmetry_group_IT_number 175
_symmetry_cell_setting 'hexagonal'
loop_
_space_group_symop_operation_xyz
x,y,z
x-y,x,z
-y,x-y,z
-x,-y,z
-x+y,-x,z
y,-x+y,z
-x,-y,-z
-x+y,-x,-z
y,-x+y,-z
x,y,-z
x-y,x,-z
-y,x-y,-z
loop_
_atom_site_type_symbol
_atom_site_label
_atom_site_fract_x
_atom_site_fract_y
_atom_site_fract_z
Si Si1 0.333334 0.666668 0.368707
Si Si2 0.771297 0.191199 0.629957
Si Si3 0.416761 0.372009 0.180349
Si Si4 0.250060 0.062329 0.783555
Si Si5 0.468785 0.689736 0.000000
O O1 0.333334 0.666668 0.500000
O O2 0.248299 0.707485 0.336687
O O3 0.758422 0.176400 0.500000
O O4 0.677470 0.089407 0.698954
O O5 0.886653 0.204253 0.669680
O O6 0.500000 0.500000 0.175176
O O7 0.292861 0.341138 0.148588
O O8 0.461995 0.310701 0.103399
O O9 0.206635 0.147052 0.800695
O O10 0.425591 0.776284 0.000000
#
# Coordination Sequence:
#
# PCOD9581639 Si02
#       5
#     4  12  12  12   6
#     4   9  18  33  60  97 146 193 231 279 349 422
#     4  10  22  39  66 105 148 195 241 294 360 431
#     4  11  24  43  72 109 147 189 246 297 364 436
#     4  10  23  41  65  93 135 185 241 293 346 412
#     4  10  27  44  76 104 149 189 226 291 378 447
#
# _framework density 22.144545000000001
#
# number of rings (size 3 to 8) (size 9 to 14) (size 15 to 20)
#    0.261    1.565    0.000    2.217   10.957    4.696 
#    0.000    0.000    0.000    6.261    0.000    7.304 
#    0.000    0.000    0.000    0.000    0.000    0.000 
#
# Total GULP energy -256166.979666 kJ/mol
# GULP energy per Si atom -5568.847384 kJ/mol
# Density = 2.209414 g / cm^3
# Si number density = 22.144545 Si / 1000 Ang^3
#
#
#
# Elastic Constant Matrix: (Units=GPa)
#
#
# Indices 1 2 3 4 5 6 
#
# 1 153.4303 54.3436 14.0246 0.0000 0.0000 -0.0001
# 2 54.3436 153.4292 14.0246 0.0000 0.0000 0.0000
# 3 14.0246 14.0246 47.2761 0.0000 0.0000 -0.0005
# 4 0.0000 0.0000 0.0000 16.1411 0.0001 0.0000
# 5 0.0000 0.0000 0.0000 0.0001 16.1413 0.0000
# 6 -0.0001 0.0000 -0.0005 0.0000 0.0000 49.5439
#
#
#
# Elastic Compliance Matrix: (Units=1/GPa)
#
#
# Indices 1 2 3 4 5 6 
#
# 1 0.007553 -0.002539 -0.001487 0.000000 0.000000 0.000000
# 2 -0.002539 0.007553 -0.001487 0.000000 0.000000 0.000000
# 3 -0.001487 -0.001487 0.022035 0.000000 0.000000 0.000000
# 4 0.000000 0.000000 0.000000 0.061954 0.000000 0.000000
# 5 0.000000 0.000000 0.000000 0.000000 0.061953 0.000000
# 6 0.000000 0.000000 0.000000 0.000000 0.000000 0.020184
#
#
# Mechanical properties :
#
#
# Convention : Reuss Voigt Hill
#
# Bulk Modulus (GPa) = 38.29524 57.65789 47.97657
# Shear Modulus (GPa) = 24.88016 34.48146 29.68081
#
# Velocity S-wave (km/s) = 3.35555 3.95030 3.66501
# Velocity P-wave (km/s) = 5.68716 6.84837 6.29460
#
# Compressibility (1/GPa) = 0.02611291
#
# Stress axis : x y z
#
# Youngs Moduli (GPa) = 132.39863 132.39761 45.38277
#
# Poissons Ratio (x) = 0.33619 0.06750
# Poissons Ratio (y) = 0.33619 0.06750
# Poissons Ratio (z) = 0.19692 0.19692
#
# Static dielectric constant tensor:
#      x y z
#    x 1.865400 0.000000 0.000000 
#    y 0.000000 1.865400 0.000000 
#    z 0.000000 0.000000 1.803490 
# 
# From -- ./inp_files/1648.got.cif
#   From: 2010.05.17/outbox.cif.g08.bks.cpg/sg175_1_cif.got.tgz:1648.got - 2010.05.20 11:23:22.
