data_PCOD9581324
_publ_section_title
;
Structure prediction by ZEFSAII (Michael W. Deem and Ramdas Pophale) SiO2 
 PCOD9581324
Probable space group: P 6/M
;
_chemical_formula_sum "Si O2"
_cell_formula_units_Z 72
_cell_length_a 24.530032
_cell_length_b 24.530032
_cell_length_c 8.502470
_cell_angle_alpha 90.000000
_cell_angle_beta 90.000000
_cell_angle_gamma 120.000000
_cell_volume 4430.696166
_symmetry_space_group_name_H-M "P 6/M"
_symmetry_group_IT_number 175
_symmetry_cell_setting 'hexagonal'
loop_
_space_group_symop_operation_xyz
x,y,z
x-y,x,z
-y,x-y,z
-x,-y,z
-x+y,-x,z
y,-x+y,z
-x,-y,-z
-x+y,-x,-z
y,-x+y,-z
x,y,-z
x-y,x,-z
-y,x-y,-z
loop_
_atom_site_type_symbol
_atom_site_label
_atom_site_fract_x
_atom_site_fract_y
_atom_site_fract_z
Si Si1 0.593007 0.859795 0.188527
Si Si2 0.071262 0.264434 0.310331
Si Si3 0.734359 0.929181 0.309245
Si Si4 0.595079 0.528493 0.314149
Si Si5 0.141913 0.405236 0.189858
Si Si6 0.927236 0.521034 0.812031
O O1 0.664663 0.905635 0.243975
O O2 0.548891 0.883756 0.261236
O O3 0.577180 0.789629 0.237015
O O4 0.590113 0.861737 0.000000
O O5 0.070941 0.264690 0.500000
O O6 0.124382 0.247604 0.259833
O O7 0.095547 0.335299 0.253159
O O8 0.000159 0.218221 0.257023
O O9 0.731072 0.928486 0.500000
O O10 0.592783 0.536170 0.500000
O O11 0.571755 0.572437 0.230810
O O12 0.543925 0.457515 0.266401
O O13 0.118087 0.452617 0.240361
O O14 0.139378 0.402437 0.000000
O O15 0.922657 0.512608 0.000000
#
# Coordination Sequence:
#
# PCOD9581324 Si02
#       6
#    12  12  12  12  12  12
#     4  10  19  32  48  68  93 121 151 188 228 271
#     4   9  17  28  44  64  90 120 152 187 228 273
#     4   9  17  29  44  65  90 120 153 189 230 274
#     4  11  21  32  47  71  98 125 154 186 225 274
#     4   9  19  32  48  69  92 117 150 187 227 270
#     4  10  19  33  51  71  94 123 155 191 231 272
#
# _framework density 16.250268999999999
#
# number of rings (size 3 to 8) (size 9 to 14) (size 15 to 20)
#    0.000    2.333    0.000    4.500    0.000    5.333 
#    0.000    0.000    0.000    1.000    0.000    4.667 
#    0.000    0.000    0.000    8.333    0.000    8.667 
#
# Total GULP energy -401585.246812 kJ/mol
# GULP energy per Si atom -5577.572872 kJ/mol
# Density = 1.621328 g / cm^3
# Si number density = 16.250269 Si / 1000 Ang^3
#
#
#
# Elastic Constant Matrix: (Units=GPa)
#
#
# Indices 1 2 3 4 5 6 
#
# 1 111.6316 68.9317 5.5121 0.0000 0.0000 0.0000
# 2 68.9317 111.6316 5.5121 0.0000 0.0000 0.0000
# 3 5.5121 5.5121 14.4636 0.0000 0.0000 0.0000
# 4 0.0000 0.0000 0.0000 17.0430 0.0000 0.0000
# 5 0.0000 0.0000 0.0000 0.0000 17.0430 0.0000
# 6 0.0000 0.0000 0.0000 0.0000 0.0000 21.3499
#
#
#
# Elastic Compliance Matrix: (Units=1/GPa)
#
#
# Indices 1 2 3 4 5 6 
#
# 1 0.014545 -0.008875 -0.002161 0.000000 0.000000 0.000000
# 2 -0.008875 0.014545 -0.002161 0.000000 0.000000 0.000000
# 3 -0.002161 -0.002161 0.070786 0.000000 0.000000 0.000000
# 4 0.000000 0.000000 0.000000 0.058675 0.000000 0.000000
# 5 0.000000 0.000000 0.000000 0.000000 0.058675 0.000000
# 6 0.000000 0.000000 0.000000 0.000000 0.000000 0.046839
#
#
# Mechanical properties :
#
#
# Convention : Reuss Voigt Hill
#
# Bulk Modulus (GPa) = 13.60865 44.18208 28.89537
# Shear Modulus (GPa) = 15.87548 21.60525 18.74037
#
# Velocity S-wave (km/s) = 3.12899 3.65023 3.39961
# Velocity P-wave (km/s) = 4.63106 6.70918 5.76454
#
# Compressibility (1/GPa) = 0.07348265
#
# Stress axis : x y z
#
# Youngs Moduli (GPa) = 68.75351 68.75351 14.12709
#
# Poissons Ratio (x) = 0.61016 0.03053
# Poissons Ratio (y) = 0.61016 0.03053
# Poissons Ratio (z) = 0.14857 0.14857
#
# Static dielectric constant tensor:
#      x y z
#    x 1.538770 0.000000 0.000000 
#    y 0.000000 1.538770 0.000000 
#    z 0.000000 0.000000 1.554650 
# 
# From -- ./inp_files/1160.got.cif
#   From: 2010.05.17/outbox.cif.g08.bks.cpg/sg175_1_cif.got.tgz:1160.got - 2010.05.20 11:23:22.
