data_PCOD9581969
_publ_section_title
;
Structure prediction by ZEFSAII (Michael W. Deem and Ramdas Pophale) SiO2 
 PCOD9581969
Probable space group: P 63/M
;
_chemical_formula_sum "Si O2"
_cell_formula_units_Z 42
_cell_length_a 8.890905
_cell_length_b 8.890905
_cell_length_c 32.322829
_cell_angle_alpha 90.000000
_cell_angle_beta 90.000000
_cell_angle_gamma 120.000000
_cell_volume 2212.747893
_symmetry_space_group_name_H-M "P 63/M"
_symmetry_group_IT_number 176
_symmetry_cell_setting 'hexagonal'
loop_
_space_group_symop_operation_xyz
x,y,z
x-y,x,1/2+z
-y,x-y,z
-x,-y,1/2+z
-x+y,-x,z
y,-x+y,1/2+z
-x,-y,-z
-x+y,-x,1/2-z
y,-x+y,-z
x,y,1/2-z
x-y,x,-z
-y,x-y,1/2-z
loop_
_atom_site_type_symbol
_atom_site_label
_atom_site_fract_x
_atom_site_fract_y
_atom_site_fract_z
Si Si1 0.190238 0.200983 0.750000
Si Si2 0.576119 0.106243 0.041780
Si Si3 0.674511 0.994459 0.658818
Si Si4 0.643862 0.993746 0.126618
O O1 0.273868 0.288243 0.707006
O O2 0.991179 0.158830 0.750000
O O3 0.778023 0.259915 0.043562
O O4 0.567499 0.990942 0.080821
O O5 0.500000 0.000000 0.000000
O O6 0.835155 0.160888 0.637234
O O7 0.649087 0.821535 0.636093
O O8 0.504111 0.010088 0.655390
#
# Coordination Sequence:
#
# PCOD9581969 Si02
#       4
#     6  12  12  12
#     4  10  20  42  66 100 134 178 224 278 346 396
#     4  10  23  41  65  98 136 172 227 283 345 418
#     4  12  24  42  72  95 140 177 230 285 339 417
#     4  12  24  45  66 105 132 188 227 282 351 415
#
# _framework density 18.980923000000001
#
# number of rings (size 3 to 8) (size 9 to 14) (size 15 to 20)
#    0.857    0.000    5.714    1.714    4.000    2.286 
#    0.000    0.000    0.000    2.286    0.000    0.000 
#    0.000    0.000    0.000    0.000    0.000    0.000 
#
# Total GULP energy -234072.547341 kJ/mol
# GULP energy per Si atom -5573.155889 kJ/mol
# Density = 1.893772 g / cm^3
# Si number density = 18.980923 Si / 1000 Ang^3
#
#
#
# Elastic Constant Matrix: (Units=GPa)
#
#
# Indices 1 2 3 4 5 6 
#
# 1 68.9591 4.2635 39.8715 0.0000 0.0000 0.0000
# 2 4.2635 68.9591 39.8715 0.0000 0.0000 0.0000
# 3 39.8715 39.8715 200.3069 0.0000 0.0000 0.0000
# 4 0.0000 0.0000 0.0000 35.2956 0.0000 0.0000
# 5 0.0000 0.0000 0.0000 0.0000 35.2956 0.0000
# 6 0.0000 0.0000 0.0000 0.0000 0.0000 32.3478
#
#
#
# Elastic Compliance Matrix: (Units=1/GPa)
#
#
# Indices 1 2 3 4 5 6 
#
# 1 0.016447 0.000990 -0.003471 0.000000 0.000000 0.000000
# 2 0.000990 0.016447 -0.003471 0.000000 0.000000 0.000000
# 3 -0.003471 -0.003471 0.006374 0.000000 0.000000 0.000000
# 4 0.000000 0.000000 0.000000 0.028332 0.000000 0.000000
# 5 0.000000 0.000000 0.000000 0.000000 0.028332 0.000000
# 6 0.000000 0.000000 0.000000 0.000000 0.000000 0.030914
#
#
# Mechanical properties :
#
#
# Convention : Reuss Voigt Hill
#
# Bulk Modulus (GPa) = 36.54368 56.24868 46.39618
# Shear Modulus (GPa) = 33.81318 37.53571 35.67445
#
# Velocity S-wave (km/s) = 4.22528 4.45179 4.34001
# Velocity P-wave (km/s) = 6.56495 7.49154 7.04350
#
# Compressibility (1/GPa) = 0.02736451
#
# Stress axis : x y z
#
# Youngs Moduli (GPa) = 60.80152 60.80152 156.88497
#
# Poissons Ratio (x) = -0.06019 0.54452
# Poissons Ratio (y) = -0.06019 0.54452
# Poissons Ratio (z) = 0.21103 0.21103
#
# Static dielectric constant tensor:
#      x y z
#    x 1.659260 0.000000 0.000000 
#    y 0.000000 1.659260 0.000000 
#    z 0.000000 0.000000 1.767500 
# 
# From -- ./inp_files/4405.got.cif
#   From: 2010.05.17/outbox.cif.g08.bks.cpg/sg176_3_cif.got.tgz:4405.got - 2010.06.03 11:36:45.
