data_PCOD9581158
_publ_section_title
;
Structure prediction by ZEFSAII (Michael W. Deem and Ramdas Pophale) SiO2 
 PCOD9581158
Probable space group: P -6
;
_chemical_formula_sum "Si O2"
_cell_formula_units_Z 42
_cell_length_a 15.304925
_cell_length_b 15.304925
_cell_length_c 11.426743
_cell_angle_alpha 90.000000
_cell_angle_beta 90.000000
_cell_angle_gamma 120.000000
_cell_volume 2318.011055
_symmetry_space_group_name_H-M "P -6"
_symmetry_group_IT_number 174
_symmetry_cell_setting 'hexagonal'
loop_
_space_group_symop_operation_xyz
x,y,z
-x+y,-x,-z
-y,x-y,z
x,y,-z
-x+y,-x,z
-y,x-y,-z
loop_
_atom_site_type_symbol
_atom_site_label
_atom_site_fract_x
_atom_site_fract_y
_atom_site_fract_z
Si Si1 0.206043 0.454238 0.139880
Si Si2 0.203127 0.625975 0.500000
Si Si3 0.153234 0.926391 0.857627
Si Si4 0.418354 0.534738 0.754273
Si Si5 0.926391 0.773157 0.857627
Si Si6 0.577152 0.203127 0.500000
Si Si7 0.581646 0.465262 0.754273
Si Si8 0.751805 0.206043 0.860120
O O1 0.118231 0.342851 0.175290
O O2 0.185267 0.536204 0.200053
O O3 0.313197 0.468608 0.178761
O O4 0.204860 0.464364 0.000000
O O5 0.299899 0.739574 0.500000
O O6 0.139073 0.604419 0.383013
O O7 0.039520 0.849133 0.818140
O O8 0.190387 0.039520 0.818140
O O9 0.151804 0.927543 0.000000
O O10 0.500000 0.500000 0.776327
O O11 0.881769 0.657149 0.824710
O O12 0.927543 0.775740 0.000000
O O13 0.560325 0.299899 0.500000
O O14 0.534653 0.139073 0.616987
O O15 0.686803 0.531392 0.821239
O O16 0.536204 0.350937 0.799947
O O17 0.740496 0.204860 0.000000
#
# Coordination Sequence:
#
# PCOD9581158 Si02
#       8
#     6   3   6   6   6   3   6   6
#     4  11  22  36  53  81 119 152 183 224 271 336
#     4  10  19  42  64  78 108 146 186 246 299 334
#     4   9  17  30  48  71 102 140 180 218 256 304
#     4  12  23  38  61  84 111 150 192 237 289 339
#     4   9  17  30  48  71 102 140 180 218 256 304
#     4  10  19  42  64  78 108 146 186 246 299 334
#     4  12  23  38  61  84 111 150 192 237 289 339
#     4  11  22  36  53  81 119 152 183 224 271 336
#
# _framework density 18.118981000000002
#
# number of rings (size 3 to 8) (size 9 to 14) (size 15 to 20)
#    0.286    1.143    2.857    3.857    0.000    5.714 
#    0.000    0.000    0.000    0.000    0.000    0.000 
#    0.000    0.000    0.000   12.286    0.000    5.429 
#
# Total GULP energy -234492.168174 kJ/mol
# GULP energy per Si atom -5583.146861 kJ/mol
# Density = 1.807774 g / cm^3
# Si number density = 18.118981 Si / 1000 Ang^3
#
#
#
# Elastic Constant Matrix: (Units=GPa)
#
#
# Indices 1 2 3 4 5 6 
#
# 1 45.4756 -22.2446 -0.9141 0.0000 0.0000 0.0000
# 2 -22.2446 45.4756 -0.9141 0.0000 0.0000 0.0000
# 3 -0.9141 -0.9141 61.4536 0.0000 0.0000 0.0000
# 4 0.0000 0.0000 0.0000 9.4601 0.0000 0.0000
# 5 0.0000 0.0000 0.0000 0.0000 9.4601 0.0000
# 6 0.0000 0.0000 0.0000 0.0000 0.0000 33.8601
#
#
#
# Elastic Compliance Matrix: (Units=1/GPa)
#
#
# Indices 1 2 3 4 5 6 
#
# 1 0.028931 0.014165 0.000641 0.000000 0.000000 0.000000
# 2 0.014165 0.028931 0.000641 0.000000 0.000000 0.000000
# 3 0.000641 0.000641 0.016292 0.000000 0.000000 0.000000
# 4 0.000000 0.000000 0.000000 0.105707 0.000000 0.000000
# 5 0.000000 0.000000 0.000000 0.000000 0.105707 0.000000
# 6 0.000000 0.000000 0.000000 0.000000 0.000000 0.029533
#
#
# Mechanical properties :
#
#
# Convention : Reuss Voigt Hill
#
# Bulk Modulus (GPa) = 9.51942 11.58434 10.55188
# Shear Modulus (GPa) = 15.66300 22.32124 18.99212
#
# Velocity S-wave (km/s) = 2.94335 3.51369 3.24109
# Velocity P-wave (km/s) = 4.10077 4.78212 4.45449
#
# Compressibility (1/GPa) = 0.10504843
#
# Stress axis : x y z
#
# Youngs Moduli (GPa) = 34.56442 34.56442 61.38161
#
# Poissons Ratio (x) = -0.48960 -0.03935
# Poissons Ratio (y) = -0.48960 -0.03935
# Poissons Ratio (z) = -0.02216 -0.02216
#
# Static dielectric constant tensor:
#      x y z
#    x 1.620140 0.000000 0.000000 
#    y 0.000000 1.620140 0.000000 
#    z 0.000000 0.000000 1.581350 
# 
# From -- ./inp_files/802.got.cif
#   From: 2010.05.17/outbox.cif.g08.bks.cpg/sg174_cif.got.tgz:802.got - 2010.05.20 11:22:48.
