data_PCOD9581210
_publ_section_title
;
Structure prediction by ZEFSAII (Michael W. Deem and Ramdas Pophale) SiO2 
 PCOD9581210
Probable space group: P -6
;
_chemical_formula_sum "Si O2"
_cell_formula_units_Z 32
_cell_length_a 14.690766
_cell_length_b 14.690766
_cell_length_c 8.472267
_cell_angle_alpha 90.000000
_cell_angle_beta 90.000000
_cell_angle_gamma 120.000000
_cell_volume 1583.503939
_symmetry_space_group_name_H-M "P -6"
_symmetry_group_IT_number 174
_symmetry_cell_setting 'hexagonal'
loop_
_space_group_symop_operation_xyz
x,y,z
-x+y,-x,-z
-y,x-y,z
x,y,-z
-x+y,-x,z
-y,x-y,-z
loop_
_atom_site_type_symbol
_atom_site_label
_atom_site_fract_x
_atom_site_fract_y
_atom_site_fract_z
Si Si1 0.876239 0.489140 0.818788
Si Si2 0.000000 0.000000 0.807552
Si Si3 0.218157 0.015001 0.811619
Si Si4 0.266040 0.839851 0.689666
Si Si5 0.098645 0.601278 0.689844
Si Si6 0.725850 0.557313 0.318163
O O1 0.870291 0.379016 0.783335
O O2 0.796076 0.503522 0.709099
O O3 0.993505 0.578277 0.777715
O O4 0.849168 0.494086 0.000000
O O5 0.993428 0.102457 0.757617
O O6 0.000000 0.000000 0.000000
O O7 0.321839 0.111174 0.735209
O O8 0.225433 0.911994 0.768162
O O9 0.224966 0.028808 0.000000
O O10 0.264370 0.852475 0.500000
O O11 0.192296 0.717262 0.726300
O O12 0.385351 0.874495 0.734044
O O13 0.081426 0.594562 0.500000
O O14 0.694820 0.552091 0.500000
#
# Coordination Sequence:
#
# PCOD9581210 Si02
#       6
#     6   2   6   6   6   6
#     4  12  25  42  65  96 129 167 210 260 319 390
#     4   9  24  45  64  89 127 171 217 272 331 375
#     4  11  23  43  67  94 127 171 218 271 327 384
#     4  10  21  39  64  94 130 172 213 261 317 382
#     4  10  21  39  63  94 131 170 212 258 317 382
#     4  12  25  44  67  95 130 169 210 266 323 387
#
# _framework density 20.208347
#
# number of rings (size 3 to 8) (size 9 to 14) (size 15 to 20)
#    0.000    1.125    1.875    4.688    2.625    2.250 
#    0.000    2.812    0.000    2.250    0.000    0.000 
#    0.000    0.000    0.000    0.000    0.000    0.000 
#
# Total GULP energy -178979.094808 kJ/mol
# GULP energy per Si atom -5593.096713 kJ/mol
# Density = 2.016235 g / cm^3
# Si number density = 20.208347 Si / 1000 Ang^3
#
#
#
# Elastic Constant Matrix: (Units=GPa)
#
#
# Indices 1 2 3 4 5 6 
#
# 1 90.2581 12.4007 5.1190 0.0000 0.0000 0.0000
# 2 12.4007 90.2581 5.1190 0.0000 0.0000 0.0000
# 3 5.1190 5.1190 27.4997 0.0000 0.0000 0.0000
# 4 0.0000 0.0000 0.0000 -20.5896 0.0000 0.0000
# 5 0.0000 0.0000 0.0000 0.0000 -20.5896 0.0000
# 6 0.0000 0.0000 0.0000 0.0000 0.0000 38.9287
#
#
#
# Elastic Compliance Matrix: (Units=1/GPa)
#
#
# Indices 1 2 3 4 5 6 
#
# 1 0.011385 -0.001459 -0.001848 0.000000 0.000000 0.000000
# 2 -0.001459 0.011385 -0.001848 0.000000 0.000000 0.000000
# 3 -0.001848 -0.001848 0.037052 0.000000 0.000000 0.000000
# 4 0.000000 0.000000 0.000000 -0.048568 0.000000 0.000000
# 5 0.000000 0.000000 0.000000 0.000000 -0.048568 0.000000
# 6 0.000000 0.000000 0.000000 0.000000 0.000000 0.025688
#
#
# Mechanical properties :
#
#
# Convention : Reuss Voigt Hill
#
# Bulk Modulus (GPa) = 20.19705 28.14368 24.17037
# Shear Modulus (GPa) = 329.26139 11.90841 170.58490
#
# Velocity S-wave (km/s) = 12.77838 2.43015 9.19763
# Velocity P-wave (km/s) = 15.09080 4.67238 11.17057
#
# Compressibility (1/GPa) = 0.04951218
#
# Stress axis : x y z
#
# Youngs Moduli (GPa) = 87.83777 87.83777 26.98919
#
# Poissons Ratio (x) = 0.12819 0.04986
# Poissons Ratio (y) = 0.12819 0.04986
# Poissons Ratio (z) = 0.16228 0.16228
#
# Static dielectric constant tensor:
#      x y z
#    x 1.691210 0.000000 0.000000 
#    y 0.000000 1.691210 0.000000 
#    z 0.000000 0.000000 1.692690 
# 
# From -- ./inp_files/339.got.cif
#   From: 2010.05.17/outbox.cif.g08.bks.cpg/sg174_cif.got.tgz:339.got - 2010.05.20 11:22:48.
