data_PCOD9581850
_publ_section_title
;
Structure prediction by ZEFSAII (Michael W. Deem and Ramdas Pophale) SiO2 
 PCOD9581850
Probable space group: P 63/M
;
_chemical_formula_sum "Si O2"
_cell_formula_units_Z 84
_cell_length_a 18.799760
_cell_length_b 18.799760
_cell_length_c 14.212538
_cell_angle_alpha 90.000000
_cell_angle_beta 90.000000
_cell_angle_gamma 120.000000
_cell_volume 4350.176527
_symmetry_space_group_name_H-M "P 63/M"
_symmetry_group_IT_number 176
_symmetry_cell_setting 'hexagonal'
loop_
_space_group_symop_operation_xyz
x,y,z
x-y,x,1/2+z
-y,x-y,z
-x,-y,1/2+z
-x+y,-x,z
y,-x+y,1/2+z
-x,-y,-z
-x+y,-x,1/2-z
y,-x+y,-z
x,y,1/2-z
x-y,x,-z
-y,x-y,1/2-z
loop_
_atom_site_type_symbol
_atom_site_label
_atom_site_fract_x
_atom_site_fract_y
_atom_site_fract_z
Si Si1 0.912420 0.759145 0.635987
Si Si2 0.663551 0.564905 0.558777
Si Si3 0.673022 0.586798 0.352119
Si Si4 0.243917 0.087883 0.142511
Si Si5 0.496763 0.575548 0.358651
Si Si6 0.745491 0.004663 0.364003
Si Si7 0.179574 0.427607 0.137682
O O1 0.921657 0.758851 0.750000
O O2 0.835999 0.772569 0.619811
O O3 0.880378 0.665713 0.603941
O O4 0.001737 0.826276 0.598736
O O5 0.676900 0.549336 0.450772
O O6 0.570582 0.503098 0.586981
O O7 0.688090 0.659330 0.581228
O O8 0.728495 0.550845 0.617164
O O9 0.673862 0.549868 0.250000
O O10 0.753444 0.676710 0.353580
O O11 0.587679 0.587238 0.357691
O O12 0.217909 0.091755 0.250000
O O13 0.268462 0.177356 0.104241
O O14 0.468741 0.564876 0.250000
O O15 0.510054 0.661391 0.398927
O O16 0.729966 0.005910 0.250000
O O17 0.168614 0.425574 0.250000
#
# Coordination Sequence:
#
# PCOD9581850 Si02
#       7
#    12  12  12  12  12  12  12
#     4   8  13  27  49  72 105 149 182 214 266 322
#     4  11  21  34  55  84 116 141 179 235 283 322
#     4  10  21  36  55  77 105 147 192 227 265 328
#     4   9  16  31  51  72 106 149 190 224 264 328
#     4  10  19  35  58  83 113 146 180 221 278 343
#     4   9  18  31  51  82 114 141 180 236 285 319
#     4   9  17  32  55  81 112 148 177 214 276 339
#
# _framework density 19.309560000000001
#
# number of rings (size 3 to 8) (size 9 to 14) (size 15 to 20)
#    0.000    2.571    1.429    2.571    0.000    1.143 
#    1.714    0.000    0.000    0.857    0.000    1.000 
#    1.429    0.000    2.571    0.000    0.000    0.000 
#
# Total GULP energy -468020.929888 kJ/mol
# GULP energy per Si atom -5571.677737 kJ/mol
# Density = 1.926561 g / cm^3
# Si number density = 19.309560 Si / 1000 Ang^3
#
#
#
# Elastic Constant Matrix: (Units=GPa)
#
#
# Indices 1 2 3 4 5 6 
#
# 1 98.9246 48.2691 18.0668 0.0000 0.0000 0.0000
# 2 48.2691 98.9246 18.0668 0.0000 0.0000 0.0000
# 3 18.0668 18.0668 71.7825 0.0000 0.0000 0.0000
# 4 0.0000 0.0000 0.0000 4.1648 0.0000 0.0000
# 5 0.0000 0.0000 0.0000 0.0000 4.1648 0.0000
# 6 0.0000 0.0000 0.0000 0.0000 0.0000 25.3277
#
#
#
# Elastic Compliance Matrix: (Units=1/GPa)
#
#
# Indices 1 2 3 4 5 6 
#
# 1 0.013491 -0.006250 -0.001823 0.000000 0.000000 0.000000
# 2 -0.006250 0.013491 -0.001823 0.000000 0.000000 0.000000
# 3 -0.001823 -0.001823 0.014848 0.000000 0.000000 0.000000
# 4 0.000000 0.000000 0.000000 0.240110 0.000000 0.000000
# 5 0.000000 0.000000 0.000000 0.000000 0.240110 0.000000
# 6 0.000000 0.000000 0.000000 0.000000 0.000000 0.039482
#
#
# Mechanical properties :
#
#
# Convention : Reuss Voigt Hill
#
# Bulk Modulus (GPa) = 45.37071 48.71524 47.04298
# Shear Modulus (GPa) = 8.49373 19.08005 13.78689
#
# Velocity S-wave (km/s) = 2.09959 3.14684 2.67496
# Velocity P-wave (km/s) = 5.42450 6.20377 5.82718
#
# Compressibility (1/GPa) = 0.02204065
#
# Stress axis : x y z
#
# Youngs Moduli (GPa) = 74.12246 74.12246 67.34744
#
# Poissons Ratio (x) = 0.46327 0.12274
# Poissons Ratio (y) = 0.46327 0.12274
# Poissons Ratio (z) = 0.13509 0.13509
#
# Static dielectric constant tensor:
#      x y z
#    x 1.671850 0.000000 0.000000 
#    y 0.000000 1.671850 0.000000 
#    z 0.000000 0.000000 1.754860 
# 
# From -- ./inp_files/2929.got.cif
#   From: 2010.05.17/outbox.cif.g08.bks.cpg/sg176_2_cif.got.tgz:2929.got - 2010.06.03 11:36:45.
