data_PCOD9581871
_publ_section_title
;
Structure prediction by ZEFSAII (Michael W. Deem and Ramdas Pophale) SiO2 
 PCOD9581871
Probable space group: P 63/M
;
_chemical_formula_sum "Si O2"
_cell_formula_units_Z 78
_cell_length_a 20.831998
_cell_length_b 20.831998
_cell_length_c 8.181921
_cell_angle_alpha 90.000000
_cell_angle_beta 90.000000
_cell_angle_gamma 120.000000
_cell_volume 3075.018720
_symmetry_space_group_name_H-M "P 63/M"
_symmetry_group_IT_number 176
_symmetry_cell_setting 'hexagonal'
loop_
_space_group_symop_operation_xyz
x,y,z
x-y,x,1/2+z
-y,x-y,z
-x,-y,1/2+z
-x+y,-x,z
y,-x+y,1/2+z
-x,-y,-z
-x+y,-x,1/2-z
y,-x+y,-z
x,y,1/2-z
x-y,x,-z
-y,x-y,1/2-z
loop_
_atom_site_type_symbol
_atom_site_label
_atom_site_fract_x
_atom_site_fract_y
_atom_site_fract_z
Si Si1 0.164647 0.782054 0.430363
Si Si2 0.388117 0.947330 0.933966
Si Si3 0.708712 0.766870 0.942265
Si Si4 0.368409 0.459233 0.579426
Si Si5 0.210823 0.608073 0.750000
Si Si6 0.324895 0.791944 0.068857
Si Si7 0.869158 0.848335 0.940180
O O1 0.131219 0.760143 0.250000
O O2 0.181760 0.863831 0.470347
O O3 0.114466 0.716007 0.549498
O O4 0.242994 0.783064 0.432119
O O5 0.387522 0.917569 0.750000
O O6 0.315411 0.955071 0.955520
O O7 0.376712 0.881246 0.049584
O O8 0.453648 0.031111 0.950564
O O9 0.717010 0.785444 0.750000
O O10 0.788793 0.782659 0.998094
O O11 0.394519 0.441866 0.750000
O O12 0.371655 0.536631 0.609814
O O13 0.243151 0.578001 0.599904
O O14 0.336836 0.768365 0.250000
O O15 0.881317 0.837660 0.750000
O O16 0.939634 0.860394 0.040877
#
# Coordination Sequence:
#
# PCOD9581871 Si02
#       7
#    12  12  12  12   6  12  12
#     4  10  21  38  65  92 122 165 211 266 321 377
#     4  10  19  37  60  88 129 166 204 264 314 377
#     4   9  21  38  62  91 121 166 212 256 329 391
#     4  10  23  37  54  93 125 163 204 256 314 369
#     4  10  24  40  60  92 122 174 202 250 310 372
#     4  10  21  40  64  89 121 168 218 253 306 384
#     4  11  24  42  61  88 120 164 218 274 330 386
#
# _framework density 25.365701000000001
#
# number of rings (size 3 to 8) (size 9 to 14) (size 15 to 20)
#    0.462    1.538    0.769    2.000    4.308    3.692 
#    0.000    0.000    0.000    2.462    0.000    0.000 
#    0.000    0.000    0.000    0.000    0.000    0.000 
#
# Total GULP energy -434604.198290 kJ/mol
# GULP energy per Si atom -5571.848696 kJ/mol
# Density = 2.530797 g / cm^3
# Si number density = 25.365701 Si / 1000 Ang^3
#
#
#
# Elastic Constant Matrix: (Units=GPa)
#
#
# Indices 1 2 3 4 5 6 
#
# 1 88.3180 5.6446 11.8886 0.0000 0.0000 0.0000
# 2 5.6446 88.3180 11.8886 0.0000 0.0000 0.0000
# 3 11.8886 11.8886 88.9367 0.0000 0.0000 0.0000
# 4 0.0000 0.0000 0.0000 3.3917 0.0000 0.0000
# 5 0.0000 0.0000 0.0000 0.0000 3.3917 0.0000
# 6 0.0000 0.0000 0.0000 0.0000 0.0000 41.3367
#
#
#
# Elastic Compliance Matrix: (Units=1/GPa)
#
#
# Indices 1 2 3 4 5 6 
#
# 1 0.011555 -0.000540 -0.001472 0.000000 0.000000 0.000000
# 2 -0.000540 0.011555 -0.001472 0.000000 0.000000 0.000000
# 3 -0.001472 -0.001472 0.011638 0.000000 0.000000 0.000000
# 4 0.000000 0.000000 0.000000 0.294834 0.000000 0.000000
# 5 0.000000 0.000000 0.000000 0.000000 0.294834 0.000000
# 6 0.000000 0.000000 0.000000 0.000000 0.000000 0.024192
#
#
# Mechanical properties :
#
#
# Convention : Reuss Voigt Hill
#
# Bulk Modulus (GPa) = 35.99959 36.04626 36.02293
# Shear Modulus (GPa) = 7.52062 25.36744 16.44403
#
# Velocity S-wave (km/s) = 1.72375 3.16582 2.54889
# Velocity P-wave (km/s) = 4.26436 5.25402 4.78484
#
# Compressibility (1/GPa) = 0.02777809
#
# Stress axis : x y z
#
# Youngs Moduli (GPa) = 86.53917 86.53917 85.92833
#
# Poissons Ratio (x) = 0.04676 0.12653
# Poissons Ratio (y) = 0.04676 0.12653
# Poissons Ratio (z) = 0.12742 0.12742
#
# Static dielectric constant tensor:
#      x y z
#    x 2.112580 0.000000 0.000000 
#    y 0.000000 2.112580 0.000000 
#    z 0.000000 0.000000 1.968770 
# 
# From -- ./inp_files/1334.got.cif
#   From: 2010.05.17/outbox.cif.g08.bks.cpg/sg176_1_cif.got.tgz:1334.got - 2010.06.03 11:36:45.
