data_PCOD9581913
_publ_section_title
;
Structure prediction by ZEFSAII (Michael W. Deem and Ramdas Pophale) SiO2 
 PCOD9581913
Probable space group: P 63/M
;
_chemical_formula_sum "Si O2"
_cell_formula_units_Z 48
_cell_length_a 19.047217
_cell_length_b 19.047217
_cell_length_c 8.830280
_cell_angle_alpha 90.000000
_cell_angle_beta 90.000000
_cell_angle_gamma 120.000000
_cell_volume 2774.394187
_symmetry_space_group_name_H-M "P 63/M"
_symmetry_group_IT_number 176
_symmetry_cell_setting 'hexagonal'
loop_
_space_group_symop_operation_xyz
x,y,z
x-y,x,1/2+z
-y,x-y,z
-x,-y,1/2+z
-x+y,-x,z
y,-x+y,1/2+z
-x,-y,-z
-x+y,-x,1/2-z
y,-x+y,-z
x,y,1/2-z
x-y,x,-z
-y,x-y,1/2-z
loop_
_atom_site_type_symbol
_atom_site_label
_atom_site_fract_x
_atom_site_fract_y
_atom_site_fract_z
Si Si1 0.750096 0.661788 0.430195
Si Si2 0.755679 0.083257 0.429896
Si Si3 0.486479 0.821742 0.069289
Si Si4 0.482612 0.665917 0.930722
O O1 0.741293 0.647278 0.250000
O O2 0.842470 0.686965 0.469157
O O3 0.725613 0.727098 0.479238
O O4 0.692357 0.576979 0.513723
O O5 0.753599 0.067419 0.250000
O O6 0.694790 0.118043 0.458921
O O7 0.482586 0.819273 0.250000
O O8 0.467483 0.734556 0.004536
O O9 0.420262 0.841173 0.001182
O O10 0.471029 0.665305 0.750000
#
# Coordination Sequence:
#
# PCOD9581913 Si02
#       4
#    12  12  12  12
#     4  10  21  37  57  80 106 137 171 211 262 313
#     4   9  20  37  56  79 104 133 171 212 258 313
#     4  11  21  33  51  76 106 142 184 223 260 305
#     4  10  20  35  52  73 106 144 182 223 264 305
#
# _framework density 17.301075999999998
#
# number of rings (size 3 to 8) (size 9 to 14) (size 15 to 20)
#    0.000    2.000    0.000    5.750    0.000    7.000 
#    0.000    0.000    0.000    0.500    0.000    0.000 
#    0.000    0.000    0.000    0.000    0.000    0.000 
#
# Total GULP energy -268096.084005 kJ/mol
# GULP energy per Si atom -5585.335083 kJ/mol
# Density = 1.726170 g / cm^3
# Si number density = 17.301076 Si / 1000 Ang^3
#
#
#
# Elastic Constant Matrix: (Units=GPa)
#
#
# Indices 1 2 3 4 5 6 
#
# 1 86.9045 75.1009 61.8525 0.0000 0.0000 0.0000
# 2 75.1009 86.9045 61.8525 0.0000 0.0000 0.0000
# 3 61.8525 61.8525 103.3934 0.0000 0.0000 0.0000
# 4 0.0000 0.0000 0.0000 28.6742 0.0000 0.0000
# 5 0.0000 0.0000 0.0000 0.0000 28.6742 0.0000
# 6 0.0000 0.0000 0.0000 0.0000 0.0000 5.9018
#
#
#
# Elastic Compliance Matrix: (Units=1/GPa)
#
#
# Indices 1 2 3 4 5 6 
#
# 1 0.048042 -0.036678 -0.006798 0.000000 0.000000 0.000000
# 2 -0.036678 0.048042 -0.006798 0.000000 0.000000 0.000000
# 3 -0.006798 -0.006798 0.017805 0.000000 0.000000 0.000000
# 4 0.000000 0.000000 0.000000 0.034875 0.000000 0.000000
# 5 0.000000 0.000000 0.000000 0.000000 0.034875 0.000000
# 6 0.000000 0.000000 0.000000 0.000000 0.000000 0.169440
#
#
# Mechanical properties :
#
#
# Convention : Reuss Voigt Hill
#
# Bulk Modulus (GPa) = 74.96014 74.97936 74.96975
# Shear Modulus (GPa) = 10.91531 17.87648 14.39589
#
# Velocity S-wave (km/s) = 2.51450 3.21792 2.88771
# Velocity P-wave (km/s) = 7.20078 7.56563 7.38546
#
# Compressibility (1/GPa) = 0.01334042
#
# Stress axis : x y z
#
# Youngs Moduli (GPa) = 20.81526 20.81526 56.16374
#
# Poissons Ratio (x) = 0.76347 0.38179
# Poissons Ratio (y) = 0.76347 0.38179
# Poissons Ratio (z) = 0.14150 0.14150
#
# Static dielectric constant tensor:
#      x y z
#    x 1.572490 0.000000 0.000000 
#    y 0.000000 1.572490 0.000000 
#    z 0.000000 0.000000 1.574370 
# 
# From -- ./inp_files/563.got.cif
#   From: 2010.05.17/outbox.cif.g08.bks.cpg/sg176_1_cif.got.tgz:563.got - 2010.06.03 11:36:45.
