data_PCOD9581856
_publ_section_title
;
Structure prediction by ZEFSAII (Michael W. Deem and Ramdas Pophale) SiO2 
 PCOD9581856
Probable space group: P 63/M
;
_chemical_formula_sum "Si O2"
_cell_formula_units_Z 54
_cell_length_a 20.363995
_cell_length_b 20.363995
_cell_length_c 7.998089
_cell_angle_alpha 90.000000
_cell_angle_beta 90.000000
_cell_angle_gamma 120.000000
_cell_volume 2872.386174
_symmetry_space_group_name_H-M "P 63/M"
_symmetry_group_IT_number 176
_symmetry_cell_setting 'hexagonal'
loop_
_space_group_symop_operation_xyz
x,y,z
x-y,x,1/2+z
-y,x-y,z
-x,-y,1/2+z
-x+y,-x,z
y,-x+y,1/2+z
-x,-y,-z
-x+y,-x,1/2-z
y,-x+y,-z
x,y,1/2-z
x-y,x,-z
-y,x-y,1/2-z
loop_
_atom_site_type_symbol
_atom_site_label
_atom_site_fract_x
_atom_site_fract_y
_atom_site_fract_z
Si Si1 0.961387 0.549164 0.549903
Si Si2 0.286118 0.797039 0.061561
Si Si3 0.282231 0.288177 0.547887
Si Si4 0.172936 0.846348 0.552790
Si Si5 0.707921 0.430588 0.250000
O O1 0.964617 0.553719 0.750000
O O2 0.871954 0.507862 0.506412
O O3 0.000000 0.500000 0.500000
O O4 0.998195 0.637080 0.489899
O O5 0.293949 0.774614 0.250000
O O6 0.225055 0.824518 0.056234
O O7 0.257543 0.732595 0.922219
O O8 0.285824 0.285631 0.750000
O O9 0.209646 0.295902 0.505674
O O10 0.275719 0.211696 0.475638
O O11 0.181202 0.833506 0.750000
O O12 0.620252 0.368878 0.250000
#
# Coordination Sequence:
#
# PCOD9581856 Si02
#       5
#    12  12  12  12   6
#     4   9  19  33  52  81 111 146 187 237 288 342
#     4  10  21  39  58  80 116 150 191 248 290 343
#     4   9  20  36  54  84 118 151 192 244 295 350
#     4  10  19  35  60  86 117 153 195 240 297 356
#     4  10  24  40  56  80 108 154 198 234 288 346
#
# _framework density 18.799700000000001
#
# number of rings (size 3 to 8) (size 9 to 14) (size 15 to 20)
#    0.222    2.222    1.111    2.000    1.556    5.333 
#    0.000    2.222    0.000    0.444    0.000    0.000 
#    0.000    0.000    0.000    0.000    0.000    0.000 
#
# Total GULP energy -300843.078216 kJ/mol
# GULP energy per Si atom -5571.168115 kJ/mol
# Density = 1.875691 g / cm^3
# Si number density = 18.799700 Si / 1000 Ang^3
#
#
#
# Elastic Constant Matrix: (Units=GPa)
#
#
# Indices 1 2 3 4 5 6 
#
# 1 71.1603 26.0373 10.8079 0.0000 0.0000 0.0000
# 2 26.0373 71.1603 10.8079 0.0000 0.0000 0.0000
# 3 10.8079 10.8079 44.1763 0.0000 0.0000 0.0000
# 4 0.0000 0.0000 0.0000 20.5346 0.0000 0.0000
# 5 0.0000 0.0000 0.0000 0.0000 20.5346 0.0000
# 6 0.0000 0.0000 0.0000 0.0000 0.0000 22.5615
#
#
#
# Elastic Compliance Matrix: (Units=1/GPa)
#
#
# Indices 1 2 3 4 5 6 
#
# 1 0.016521 -0.005641 -0.002662 0.000000 0.000000 0.000000
# 2 -0.005641 0.016521 -0.002662 0.000000 0.000000 0.000000
# 3 -0.002662 -0.002662 0.023939 0.000000 0.000000 0.000000
# 4 0.000000 0.000000 0.000000 0.048698 0.000000 0.000000
# 5 0.000000 0.000000 0.000000 0.000000 0.048698 0.000000
# 6 0.000000 0.000000 0.000000 0.000000 0.000000 0.044323
#
#
# Mechanical properties :
#
#
# Convention : Reuss Voigt Hill
#
# Bulk Modulus (GPa) = 28.52901 31.31145 29.92023
# Shear Modulus (GPa) = 21.52260 21.98239 21.75250
#
# Velocity S-wave (km/s) = 3.38722 3.42320 3.40526
# Velocity P-wave (km/s) = 5.52321 5.68471 5.60454
#
# Compressibility (1/GPa) = 0.03505204
#
# Stress axis : x y z
#
# Youngs Moduli (GPa) = 60.52910 60.52910 41.77275
#
# Poissons Ratio (x) = 0.34142 0.11120
# Poissons Ratio (y) = 0.34142 0.11120
# Poissons Ratio (z) = 0.16112 0.16112
#
# Static dielectric constant tensor:
#      x y z
#    x 1.670250 0.000000 0.000000 
#    y 0.000000 1.670250 0.000000 
#    z 0.000000 0.000000 1.767690 
# 
# From -- ./inp_files/819.got.cif
#   From: 2010.05.17/outbox.cif.g08.bks.cpg/sg176_1_cif.got.tgz:819.got - 2010.06.03 11:36:45.
