data_PCOD9581054
_publ_section_title
;
Structure prediction by ZEFSAII (Michael W. Deem and Ramdas Pophale) SiO2 
 PCOD9581054
Probable space group: P 63
;
_chemical_formula_sum "Si O2"
_cell_formula_units_Z 30
_cell_length_a 8.509716
_cell_length_b 8.509716
_cell_length_c 24.708712
_cell_angle_alpha 90.000000
_cell_angle_beta 90.000000
_cell_angle_gamma 120.000000
_cell_volume 1549.568830
_symmetry_space_group_name_H-M "P 63"
_symmetry_group_IT_number 173
_symmetry_cell_setting 'hexagonal'
loop_
_space_group_symop_operation_xyz
x,y,z
x-y,x,1/2+z
-y,x-y,z
-x,-y,1/2+z
-x+y,-x,z
y,-x+y,1/2+z
loop_
_atom_site_type_symbol
_atom_site_label
_atom_site_fract_x
_atom_site_fract_y
_atom_site_fract_z
Si Si1 0.872241 0.330327 0.739510
Si Si2 0.994939 0.330082 0.075299
Si Si3 0.341626 0.877957 0.839240
Si Si4 0.662325 0.123900 0.461744
Si Si5 0.334893 0.003325 0.621514
O O1 0.836422 0.501683 0.738150
O O2 0.976770 0.330050 0.685953
O O3 0.983054 0.345460 0.793237
O O4 0.196604 0.396506 0.096756
O O5 0.937984 0.469298 0.098781
O O6 0.863325 0.134645 0.099798
O O7 0.002317 0.340741 0.010426
O O8 0.168768 0.674278 0.833825
O O9 0.341877 0.940647 0.900632
O O10 0.833803 0.329820 0.467207
#
# Coordination Sequence:
#
# PCOD9581054 Si02
#       5
#     6   6   6   6   6
#     4  10  21  38  55  82 125 160 196 260 319 354
#     4  12  22  41  61  89 123 165 213 257 322 376
#     4   8  18  34  62  89 107 155 207 247 304 384
#     4   8  15  36  63  82 120 159 192 253 322 369
#     4  12  24  39  61  90 121 169 210 263 315 379
#
# _framework density 19.360223999999999
#
# number of rings (size 3 to 8) (size 9 to 14) (size 15 to 20)
#    1.200    0.800    4.000    1.200    2.800    0.000 
#    3.600    0.000    0.000    0.800    0.000    0.000 
#    0.000    0.000    0.000    0.000    0.000    0.000 
#
# Total GULP energy -167095.894798 kJ/mol
# GULP energy per Si atom -5569.863160 kJ/mol
# Density = 1.931616 g / cm^3
# Si number density = 19.360224 Si / 1000 Ang^3
#
#
#
# Elastic Constant Matrix: (Units=GPa)
#
#
# Indices 1 2 3 4 5 6 
#
# 1 7.5744 43.5476 37.3744 0.0000 0.0000 0.0000
# 2 43.5476 7.5744 37.3744 0.0000 0.0000 0.0000
# 3 37.3744 37.3744 208.6579 0.0000 0.0000 0.0000
# 4 0.0000 0.0000 0.0000 -2.7370 0.0000 0.0000
# 5 0.0000 0.0000 0.0000 0.0000 -2.7370 0.0000
# 6 0.0000 0.0000 0.0000 0.0000 0.0000 -17.9865
#
#
#
# Elastic Compliance Matrix: (Units=1/GPa)
#
#
# Indices 1 2 3 4 5 6 
#
# 1 -0.000648 0.027150 -0.004747 0.000000 0.000000 0.000000
# 2 0.027150 -0.000648 -0.004747 0.000000 0.000000 0.000000
# 3 -0.004747 -0.004747 0.006493 0.000000 0.000000 0.000000
# 4 0.000000 0.000000 0.000000 -0.365362 0.000000 0.000000
# 5 0.000000 0.000000 0.000000 0.000000 -0.365362 0.000000
# 6 0.000000 0.000000 0.000000 0.000000 0.000000 -0.055597
#
#
# Mechanical properties :
#
#
# Convention : Reuss Voigt Hill
#
# Bulk Modulus (GPa) = 24.68587 51.15551 37.92069
# Shear Modulus (GPa) = -6.22716 2.34191 -1.94262
#
# Velocity S-wave (km/s) = -1.79540 1.10104 -1.00279
# Velocity P-wave (km/s) = 2.91214 5.30063 4.27652
#
# Compressibility (1/GPa) = 0.04050900
#
# Stress axis : x y z
#
# Youngs Moduli (GPa) = -1542.45386 -1542.45409 154.01034
#
# Poissons Ratio (x) = 41.87797 0.73108
# Poissons Ratio (y) = 41.87797 0.73108
# Poissons Ratio (z) = -7.32199 -7.32199
#
# Static dielectric constant tensor:
#      x y z
#    x 1.711930 0.000000 0.000000 
#    y 0.000000 1.711930 0.000000 
#    z 0.000000 0.000000 1.657930 
# 
# From -- ./inp_files/1427.got.cif
#   From: 2010.05.17/outbox.cif.g08.bks.cpg/sg173_cif.got.tgz:1427.got - 2010.05.20 11:21:53.
