data_PCOD9581986
_publ_section_title
;
Structure prediction by ZEFSAII (Michael W. Deem and Ramdas Pophale) SiO2 
 PCOD9581986
Probable space group: P 63/M
;
_chemical_formula_sum "Si O2"
_cell_formula_units_Z 72
_cell_length_a 24.029957
_cell_length_b 24.029957
_cell_length_c 7.854486
_cell_angle_alpha 90.000000
_cell_angle_beta 90.000000
_cell_angle_gamma 120.000000
_cell_volume 3927.845430
_symmetry_space_group_name_H-M "P 63/M"
_symmetry_group_IT_number 176
_symmetry_cell_setting 'hexagonal'
loop_
_space_group_symop_operation_xyz
x,y,z
x-y,x,1/2+z
-y,x-y,z
-x,-y,1/2+z
-x+y,-x,z
y,-x+y,1/2+z
-x,-y,-z
-x+y,-x,1/2-z
y,-x+y,-z
x,y,1/2-z
x-y,x,-z
-y,x-y,1/2-z
loop_
_atom_site_type_symbol
_atom_site_label
_atom_site_fract_x
_atom_site_fract_y
_atom_site_fract_z
Si Si1 0.535428 0.159396 0.054612
Si Si2 0.361678 0.605187 0.250000
Si Si3 0.519418 0.303191 0.750000
Si Si4 0.610410 0.905956 0.955065
Si Si5 0.948108 0.518915 0.442889
Si Si6 0.045551 0.355873 0.055712
Si Si7 0.185730 0.419313 0.946475
O O1 0.532421 0.178834 0.250000
O O2 0.461942 0.113108 0.993189
O O3 0.571299 0.118679 0.061884
O O4 0.567697 0.219890 0.930981
O O5 0.283495 0.595543 0.250000
O O6 0.441170 0.621181 0.250000
O O7 0.476025 0.271259 0.585554
O O8 0.612493 0.914006 0.750000
O O9 0.613395 0.841844 0.989982
O O10 0.665647 0.974773 0.019948
O O11 0.961876 0.544617 0.250000
O O12 0.949640 0.574505 0.555281
O O13 0.000000 0.500000 0.500000
O O14 0.049437 0.337372 0.250000
O O15 0.110124 0.369537 0.962371
O O16 0.199274 0.442596 0.750000
#
# Coordination Sequence:
#
# PCOD9581986 Si02
#       7
#    12   6   6  12  12  12  12
#     4  10  21  37  53  75 102 137 172 214 276 333
#     4  12  25  38  60  74 100 139 181 231 273 325
#     4  12  25  42  58  82 108 143 193 237 281 341
#     4   9  19  37  59  78 110 145 179 223 281 336
#     4  11  21  31  47  75 109 136 168 223 278 320
#     4  11  21  36  56  84 111 140 182 230 276 337
#     4  11  23  43  60  80 114 152 181 230 289 338
#
# _framework density 18.330660000000002
#
# number of rings (size 3 to 8) (size 9 to 14) (size 15 to 20)
#    0.000    1.333    4.167    2.167    2.333    2.000 
#    4.500    0.000    0.000    2.000    0.000    0.000 
#    0.000    0.000    0.000    0.500    0.000    6.000 
#
# Total GULP energy -401195.176041 kJ/mol
# GULP energy per Si atom -5572.155223 kJ/mol
# Density = 1.828894 g / cm^3
# Si number density = 18.330660 Si / 1000 Ang^3
#
#
#
# Elastic Constant Matrix: (Units=GPa)
#
#
# Indices 1 2 3 4 5 6 
#
# 1 79.7957 22.3877 24.9318 0.0000 0.0000 0.0000
# 2 22.3877 79.7957 24.9318 0.0000 0.0000 0.0000
# 3 24.9318 24.9318 97.9624 0.0000 0.0000 0.0000
# 4 0.0000 0.0000 0.0000 11.9977 0.0000 0.0000
# 5 0.0000 0.0000 0.0000 0.0000 11.9977 0.0000
# 6 0.0000 0.0000 0.0000 0.0000 0.0000 28.7040
#
#
#
# Elastic Compliance Matrix: (Units=1/GPa)
#
#
# Indices 1 2 3 4 5 6 
#
# 1 0.014297 -0.003123 -0.002844 0.000000 0.000000 0.000000
# 2 -0.003123 0.014297 -0.002844 0.000000 0.000000 0.000000
# 3 -0.002844 -0.002844 0.011656 0.000000 0.000000 0.000000
# 4 0.000000 0.000000 0.000000 0.083349 0.000000 0.000000
# 5 0.000000 0.000000 0.000000 0.000000 0.083349 0.000000
# 6 0.000000 0.000000 0.000000 0.000000 0.000000 0.034838
#
#
# Mechanical properties :
#
#
# Convention : Reuss Voigt Hill
#
# Bulk Modulus (GPa) = 44.19244 44.67293 44.43269
# Shear Modulus (GPa) = 18.73020 22.89339 20.81179
#
# Velocity S-wave (km/s) = 3.20002 3.53783 3.37316
# Velocity P-wave (km/s) = 6.14934 6.41185 6.28197
#
# Compressibility (1/GPa) = 0.02262830
#
# Stress axis : x y z
#
# Youngs Moduli (GPa) = 69.94660 69.94660 85.79617
#
# Poissons Ratio (x) = 0.21841 0.24399
# Poissons Ratio (y) = 0.21841 0.24399
# Poissons Ratio (z) = 0.19892 0.19892
#
# Static dielectric constant tensor:
#      x y z
#    x 1.686260 0.000000 0.000000 
#    y 0.000000 1.686260 0.000000 
#    z 0.000000 0.000000 1.687270 
# 
# From -- ./inp_files/1253.got.cif
#   From: 2010.05.17/outbox.cif.g08.bks.cpg/sg176_1_cif.got.tgz:1253.got - 2010.06.03 11:36:45.
