data_PCOD9581591
_publ_section_title
;
Structure prediction by ZEFSAII (Michael W. Deem and Ramdas Pophale) SiO2 
 PCOD9581591
Probable space group: P 6/M
;
_chemical_formula_sum "Si O2"
_cell_formula_units_Z 66
_cell_length_a 21.188366
_cell_length_b 21.188366
_cell_length_c 8.226888
_cell_angle_alpha 90.000000
_cell_angle_beta 90.000000
_cell_angle_gamma 120.000000
_cell_volume 3198.608956
_symmetry_space_group_name_H-M "P 6/M"
_symmetry_group_IT_number 175
_symmetry_cell_setting 'hexagonal'
loop_
_space_group_symop_operation_xyz
x,y,z
x-y,x,z
-y,x-y,z
-x,-y,z
-x+y,-x,z
y,-x+y,z
-x,-y,-z
-x+y,-x,-z
y,-x+y,-z
x,y,-z
x-y,x,-z
-y,x-y,-z
loop_
_atom_site_type_symbol
_atom_site_label
_atom_site_fract_x
_atom_site_fract_y
_atom_site_fract_z
Si Si1 0.662017 0.846049 0.196317
Si Si2 0.424785 0.078632 0.684642
Si Si3 0.831107 0.932863 0.801588
Si Si4 0.423189 0.856013 0.820037
Si Si5 0.926717 0.606507 0.188014
Si Si6 0.382858 0.760314 0.500000
O O1 0.606345 0.869075 0.267187
O O2 0.746363 0.897146 0.248583
O O3 0.633564 0.762141 0.237716
O O4 0.660374 0.851258 0.000000
O O5 0.451238 0.091637 0.500000
O O6 0.490777 0.088126 0.797950
O O7 0.357582 0.998099 0.704722
O O8 0.864675 0.881870 0.750586
O O9 0.831149 0.932819 0.000000
O O10 0.372068 0.891575 0.807166
O O11 0.404421 0.803309 0.667520
O O12 0.411273 0.822117 0.000000
O O13 0.948128 0.630236 0.000000
O O14 0.295583 0.708653 0.500000
#
# Coordination Sequence:
#
# PCOD9581591 Si02
#       6
#    12  12  12  12  12   6
#     4  10  21  38  61  87 123 164 212 265 317 383
#     4  12  25  40  63  93 127 167 211 270 329 386
#     4   9  16  28  51  84 122 160 201 253 311 373
#     4  11  24  43  69  95 129 172 218 265 322 390
#     4  10  23  41  64  93 122 166 217 263 321 386
#     4  10  26  44  65  98 140 168 208 272 316 390
#
# _framework density 20.633969
#
# number of rings (size 3 to 8) (size 9 to 14) (size 15 to 20)
#    0.182    1.455    0.909    3.455    3.818    7.273 
#    0.000    0.000    0.000    0.000    0.000    0.000 
#    0.000    2.909    0.000    0.000    0.000    0.000 
#
# Total GULP energy -368668.529484 kJ/mol
# GULP energy per Si atom -5585.886810 kJ/mol
# Density = 2.058701 g / cm^3
# Si number density = 20.633969 Si / 1000 Ang^3
#
#
#
# Elastic Constant Matrix: (Units=GPa)
#
#
# Indices 1 2 3 4 5 6 
#
# 1 56.8398 -8.6718 20.5192 0.0000 0.0000 0.0000
# 2 -8.6718 56.8398 20.5192 0.0000 0.0000 0.0000
# 3 20.5192 20.5192 83.0805 0.0000 0.0000 0.0000
# 4 0.0000 0.0000 0.0000 -11.2462 0.0000 0.0000
# 5 0.0000 0.0000 0.0000 0.0000 -11.2462 0.0000
# 6 0.0000 0.0000 0.0000 0.0000 0.0000 32.7558
#
#
#
# Elastic Compliance Matrix: (Units=1/GPa)
#
#
# Indices 1 2 3 4 5 6 
#
# 1 0.020779 0.005514 -0.006494 0.000000 0.000000 0.000000
# 2 0.005514 0.020779 -0.006494 0.000000 0.000000 0.000000
# 3 -0.006494 -0.006494 0.015244 0.000000 0.000000 0.000000
# 4 0.000000 0.000000 0.000000 -0.088919 0.000000 0.000000
# 5 0.000000 0.000000 0.000000 0.000000 -0.088919 0.000000
# 6 0.000000 0.000000 0.000000 0.000000 0.000000 0.030529
#
#
# Mechanical properties :
#
#
# Convention : Reuss Voigt Hill
#
# Bulk Modulus (GPa) = 23.89183 29.05480 26.47332
# Shear Modulus (GPa) = -81.15737 13.01225 -34.07256
#
# Velocity S-wave (km/s) = -6.27832 2.51394 -4.06801
# Velocity P-wave (km/s) = 6.39941 4.74744 3.03432
#
# Compressibility (1/GPa) = 0.04185531
#
# Stress axis : x y z
#
# Youngs Moduli (GPa) = 48.12567 48.12567 65.59847
#
# Poissons Ratio (x) = -0.26539 0.42599
# Poissons Ratio (y) = -0.26539 0.42599
# Poissons Ratio (z) = 0.31252 0.31252
#
# Static dielectric constant tensor:
#      x y z
#    x 1.745730 0.000000 0.000000 
#    y 0.000000 1.745730 0.000000 
#    z 0.000000 0.000000 1.745930 
# 
# From -- ./inp_files/1051.got.cif
#   From: 2010.05.17/outbox.cif.g08.bks.cpg/sg175_1_cif.got.tgz:1051.got - 2010.05.20 11:23:22.
