data_PCOD9581582
_publ_section_title
;
Structure prediction by ZEFSAII (Michael W. Deem and Ramdas Pophale) SiO2 
 PCOD9581582
Probable space group: P 6/M
;
_chemical_formula_sum "Si O2"
_cell_formula_units_Z 66
_cell_length_a 21.545087
_cell_length_b 21.545087
_cell_length_c 7.816944
_cell_angle_alpha 90.000000
_cell_angle_beta 90.000000
_cell_angle_gamma 120.000000
_cell_volume 3142.419323
_symmetry_space_group_name_H-M "P 6/M"
_symmetry_group_IT_number 175
_symmetry_cell_setting 'hexagonal'
loop_
_space_group_symop_operation_xyz
x,y,z
x-y,x,z
-y,x-y,z
-x,-y,z
-x+y,-x,z
y,-x+y,z
-x,-y,-z
-x+y,-x,-z
y,-x+y,-z
x,y,-z
x-y,x,-z
-y,x-y,-z
loop_
_atom_site_type_symbol
_atom_site_label
_atom_site_fract_x
_atom_site_fract_y
_atom_site_fract_z
Si Si1 0.324608 0.582055 0.000000
Si Si2 0.449900 0.319087 0.703011
Si Si3 0.393098 0.420376 0.299019
Si Si4 0.164057 0.605213 0.298798
Si Si5 0.307252 0.190834 0.201252
Si Si6 0.246248 0.292168 0.791297
O O1 0.396495 0.660806 0.000000
O O2 0.331311 0.547641 0.825926
O O3 0.434856 0.310024 0.500000
O O4 0.426440 0.374678 0.777135
O O5 0.535409 0.362580 0.717423
O O6 0.393311 0.242367 0.778812
O O7 0.411334 0.427998 0.500000
O O8 0.415883 0.499744 0.241698
O O9 0.308544 0.369321 0.271987
O O10 0.172962 0.625423 0.500000
O O11 0.281845 0.111448 0.268677
O O12 0.268905 0.234299 0.269214
O O13 0.291610 0.182430 0.000000
O O14 0.247625 0.293147 0.000000
#
# Coordination Sequence:
#
# PCOD9581582 Si02
#       6
#     6  12  12  12  12  12
#     4  10  26  44  53  72 100 136 186 236 274 318
#     4   9  18  33  53  80 110 135 169 218 272 330
#     4   9  18  33  53  80 110 135 169 218 272 330
#     4  10  21  38  60  80 104 144 184 228 284 334
#     4   9  18  32  50  75 106 140 175 217 267 320
#     4   9  18  32  50  75 106 140 175 217 267 320
#
# _framework density 21.002925000000001
#
# number of rings (size 3 to 8) (size 9 to 14) (size 15 to 20)
#    0.182    2.545    0.000    0.545    2.545    5.091 
#    0.000    4.545    0.000    0.364    0.000    2.545 
#    0.000    0.000    0.000    9.091    0.000    9.455 
#
# Total GULP energy -367741.722119 kJ/mol
# GULP energy per Si atom -5571.844275 kJ/mol
# Density = 2.095512 g / cm^3
# Si number density = 21.002925 Si / 1000 Ang^3
#
#
#
# Elastic Constant Matrix: (Units=GPa)
#
#
# Indices 1 2 3 4 5 6 
#
# 1 56.7763 11.1379 7.8167 0.0000 0.0000 0.0000
# 2 11.1379 56.7763 7.8167 0.0000 0.0000 0.0000
# 3 7.8167 7.8167 42.2402 0.0000 0.0000 0.0000
# 4 0.0000 0.0000 0.0000 38.1503 0.0000 0.0000
# 5 0.0000 0.0000 0.0000 0.0000 38.1503 0.0000
# 6 0.0000 0.0000 0.0000 0.0000 0.0000 22.8192
#
#
#
# Elastic Compliance Matrix: (Units=1/GPa)
#
#
# Indices 1 2 3 4 5 6 
#
# 1 0.018645 -0.003266 -0.002846 0.000000 0.000000 0.000000
# 2 -0.003266 0.018645 -0.002846 0.000000 0.000000 0.000000
# 3 -0.002846 -0.002846 0.024727 0.000000 0.000000 0.000000
# 4 0.000000 0.000000 0.000000 0.026212 0.000000 0.000000
# 5 0.000000 0.000000 0.000000 0.000000 0.026212 0.000000
# 6 0.000000 0.000000 0.000000 0.000000 0.000000 0.043823
#
#
# Mechanical properties :
#
#
# Convention : Reuss Voigt Hill
#
# Bulk Modulus (GPa) = 22.67446 23.25950 22.96698
# Shear Modulus (GPa) = 26.19418 28.42541 27.30979
#
# Velocity S-wave (km/s) = 3.53536 3.68285 3.60986
# Velocity P-wave (km/s) = 5.24255 5.40213 5.32294
#
# Compressibility (1/GPa) = 0.04410248
#
# Stress axis : x y z
#
# Youngs Moduli (GPa) = 53.63231 53.63231 40.44083
#
# Poissons Ratio (x) = 0.17516 0.11510
# Poissons Ratio (y) = 0.17516 0.11510
# Poissons Ratio (z) = 0.15264 0.15264
#
# Static dielectric constant tensor:
#      x y z
#    x 1.786820 0.000000 0.000000 
#    y 0.000000 1.786820 0.000000 
#    z 0.000000 0.000000 1.769900 
# 
# From -- ./inp_files/1021.got.cif
#   From: 2010.05.17/outbox.cif.g08.bks.cpg/sg175_1_cif.got.tgz:1021.got - 2010.05.20 11:23:22.
