data_PCOD9581386
_publ_section_title
;
Structure prediction by ZEFSAII (Michael W. Deem and Ramdas Pophale) SiO2 
 PCOD9581386
Probable space group: P 6/M
;
_chemical_formula_sum "Si O2"
_cell_formula_units_Z 78
_cell_length_a 23.683129
_cell_length_b 23.683129
_cell_length_c 9.910152
_cell_angle_alpha 90.000000
_cell_angle_beta 90.000000
_cell_angle_gamma 120.000000
_cell_volume 4813.811814
_symmetry_space_group_name_H-M "P 6/M"
_symmetry_group_IT_number 175
_symmetry_cell_setting 'hexagonal'
loop_
_space_group_symop_operation_xyz
x,y,z
x-y,x,z
-y,x-y,z
-x,-y,z
-x+y,-x,z
y,-x+y,z
-x,-y,-z
-x+y,-x,-z
y,-x+y,-z
x,y,-z
x-y,x,-z
-y,x-y,-z
loop_
_atom_site_type_symbol
_atom_site_label
_atom_site_fract_x
_atom_site_fract_y
_atom_site_fract_z
Si Si1 0.092526 0.446981 0.655385
Si Si2 0.194034 0.395831 0.345030
Si Si3 0.894630 0.718272 0.149269
Si Si4 0.462159 0.921577 0.155678
Si Si5 0.439005 0.132656 0.152463
Si Si6 0.993436 0.669576 0.151789
Si Si7 0.156374 0.087735 0.000000
O O1 0.075349 0.450220 0.500000
O O2 0.150638 0.430659 0.657624
O O3 0.107136 0.510695 0.738495
O O4 0.035554 0.386235 0.736429
O O5 0.205019 0.384857 0.500000
O O6 0.153513 0.327356 0.264410
O O7 0.260010 0.440933 0.264918
O O8 0.960945 0.714785 0.166569
O O9 0.867650 0.687430 0.000000
O O10 0.911056 0.792349 0.126060
O O11 0.512119 0.895058 0.175538
O O12 0.500000 0.000000 0.171643
O O13 0.439114 0.907573 0.000000
O O14 0.365796 0.070723 0.158314
O O15 0.450536 0.159545 0.000000
O O16 0.975632 0.640027 0.000000
O O17 0.108405 0.117841 0.000000
#
# Coordination Sequence:
#
# PCOD9581386 Si02
#       7
#    12  12  12  12  12  12   6
#     4  10  20  33  49  71 106 144 178 210 258 317
#     4  10  21  35  50  75 109 142 176 220 266 317
#     4   8  18  31  54  74 101 137 174 211 262 321
#     4  10  19  34  52  77 105 137 171 216 258 312
#     4  10  20  31  53  78 108 135 175 216 266 315
#     4   9  16  30  50  75 102 137 168 211 257 313
#     4  10  21  34  56  82 108 135 181 231 273 309
#
# _framework density 16.203375999999999
#
# number of rings (size 3 to 8) (size 9 to 14) (size 15 to 20)
#    0.462    2.000    1.538    1.000    2.154    3.385 
#    0.000    0.000    0.000    0.615    0.000    0.000 
#    0.000    1.231    0.000    0.000    0.000    0.000 
#
# Total GULP energy -434279.087900 kJ/mol
# GULP energy per Si atom -5567.680614 kJ/mol
# Density = 1.616650 g / cm^3
# Si number density = 16.203376 Si / 1000 Ang^3
#
#
#
# Elastic Constant Matrix: (Units=GPa)
#
#
# Indices 1 2 3 4 5 6 
#
# 1 59.1705 23.8429 45.6315 0.0000 0.0000 0.0000
# 2 23.8429 59.1705 45.6315 0.0000 0.0000 0.0000
# 3 45.6315 45.6315 120.9719 0.0000 0.0000 0.0000
# 4 0.0000 0.0000 0.0000 14.1230 0.0000 0.0000
# 5 0.0000 0.0000 0.0000 0.0000 14.1230 0.0000
# 6 0.0000 0.0000 0.0000 0.0000 0.0000 17.6638
#
#
#
# Elastic Compliance Matrix: (Units=1/GPa)
#
#
# Indices 1 2 3 4 5 6 
#
# 1 0.024444 -0.003863 -0.007763 0.000000 0.000000 0.000000
# 2 -0.003863 0.024444 -0.007763 0.000000 0.000000 0.000000
# 3 -0.007763 -0.007763 0.014123 0.000000 0.000000 0.000000
# 4 0.000000 0.000000 0.000000 0.070806 0.000000 0.000000
# 5 0.000000 0.000000 0.000000 0.000000 0.070806 0.000000
# 6 0.000000 0.000000 0.000000 0.000000 0.000000 0.056613
#
#
# Mechanical properties :
#
#
# Convention : Reuss Voigt Hill
#
# Bulk Modulus (GPa) = 41.26779 52.16943 46.71861
# Shear Modulus (GPa) = 16.22890 17.46244 16.84567
#
# Velocity S-wave (km/s) = 3.16820 3.28640 3.22784
# Velocity P-wave (km/s) = 6.23757 6.83133 6.54119
#
# Compressibility (1/GPa) = 0.02423197
#
# Stress axis : x y z
#
# Youngs Moduli (GPa) = 40.91023 40.91023 70.80566
#
# Poissons Ratio (x) = 0.15802 0.54969
# Poissons Ratio (y) = 0.15802 0.54969
# Poissons Ratio (z) = 0.31760 0.31760
#
# Static dielectric constant tensor:
#      x y z
#    x 1.551180 0.000000 0.000000 
#    y 0.000000 1.551180 0.000000 
#    z 0.000000 0.000000 1.552860 
# 
# From -- ./inp_files/1274.got.cif
#   From: 2010.05.17/outbox.cif.g08.bks.cpg/sg175_1_cif.got.tgz:1274.got - 2010.05.20 11:23:22.
