data_PCOD9581786
_publ_section_title
;
Structure prediction by ZEFSAII (Michael W. Deem and Ramdas Pophale) SiO2 
 PCOD9581786
Probable space group: P 63/M
;
_chemical_formula_sum "Si O2"
_cell_formula_units_Z 72
_cell_length_a 24.725883
_cell_length_b 24.725883
_cell_length_c 7.645383
_cell_angle_alpha 90.000000
_cell_angle_beta 90.000000
_cell_angle_gamma 120.000000
_cell_volume 4047.934700
_symmetry_space_group_name_H-M "P 63/M"
_symmetry_group_IT_number 176
_symmetry_cell_setting 'hexagonal'
loop_
_space_group_symop_operation_xyz
x,y,z
x-y,x,1/2+z
-y,x-y,z
-x,-y,1/2+z
-x+y,-x,z
y,-x+y,1/2+z
-x,-y,-z
-x+y,-x,1/2-z
y,-x+y,-z
x,y,1/2-z
x-y,x,-z
-y,x-y,1/2-z
loop_
_atom_site_type_symbol
_atom_site_label
_atom_site_fract_x
_atom_site_fract_y
_atom_site_fract_z
Si Si1 0.260401 0.069408 0.038982
Si Si2 0.141103 0.736877 0.964740
Si Si3 0.408977 0.263670 0.454254
Si Si4 0.924313 0.403198 0.041716
Si Si5 0.403357 0.930684 0.537740
Si Si6 0.734900 0.805759 0.456447
O O1 0.259704 0.069306 0.250000
O O2 0.332206 0.094747 0.983754
O O3 0.216444 0.998677 0.977108
O O4 0.243500 0.121807 0.984138
O O5 0.141489 0.736873 0.750000
O O6 0.209942 0.788584 0.026753
O O7 0.116867 0.666869 0.026742
O O8 0.425877 0.269676 0.250000
O O9 0.445801 0.333207 0.529166
O O10 0.334361 0.234981 0.465107
O O11 0.914070 0.400032 0.250000
O O12 0.912694 0.458158 0.974214
O O13 0.997273 0.427271 0.011540
O O14 0.402605 0.928563 0.750000
O O15 0.727183 0.793256 0.250000
#
# Coordination Sequence:
#
# PCOD9581786 Si02
#       6
#    12  12  12  12  12  12
#     4   9  18  31  45  64  90 116 141 174 217 257
#     4   8  14  26  43  59  80 112 141 168 208 254
#     4   9  17  29  43  61  88 117 143 177 221 261
#     4   9  16  27  43  61  82 110 143 175 209 254
#     4   9  17  27  41  62  85 110 139 173 214 254
#     4  10  19  30  47  69  89 114 147 177 211 258
#
# _framework density 17.786847999999999
#
# number of rings (size 3 to 8) (size 9 to 14) (size 15 to 20)
#    0.000    3.000    0.000    2.500    0.000    3.333 
#    0.000    5.000    0.000    1.000    0.000    4.667 
#    0.000    0.000    0.000   10.667    0.000   13.333 
#
# Total GULP energy -401264.910103 kJ/mol
# GULP energy per Si atom -5573.123751 kJ/mol
# Density = 1.774636 g / cm^3
# Si number density = 17.786848 Si / 1000 Ang^3
#
#
#
# Elastic Constant Matrix: (Units=GPa)
#
#
# Indices 1 2 3 4 5 6 
#
# 1 143.7531 92.6030 -6.1231 0.0000 0.0000 0.0000
# 2 92.6030 143.7531 -6.1231 0.0000 0.0000 0.0000
# 3 -6.1231 -6.1231 29.1254 0.0000 0.0000 0.0000
# 4 0.0000 0.0000 0.0000 4.6440 0.0000 0.0000
# 5 0.0000 0.0000 0.0000 0.0000 4.6440 0.0000
# 6 0.0000 0.0000 0.0000 0.0000 0.0000 25.5750
#
#
#
# Elastic Compliance Matrix: (Units=1/GPa)
#
#
# Indices 1 2 3 4 5 6 
#
# 1 0.011914 -0.007636 0.000899 0.000000 0.000000 0.000000
# 2 -0.007636 0.011914 0.000899 0.000000 0.000000 0.000000
# 3 0.000899 0.000899 0.034712 0.000000 0.000000 0.000000
# 4 0.000000 0.000000 0.000000 0.215332 0.000000 0.000000
# 5 0.000000 0.000000 0.000000 0.000000 0.215332 0.000000
# 6 0.000000 0.000000 0.000000 0.000000 0.000000 0.039101
#
#
# Mechanical properties :
#
#
# Convention : Reuss Voigt Hill
#
# Bulk Modulus (GPa) = 21.33811 53.03833 37.18822
# Shear Modulus (GPa) = 8.99925 22.72426 15.86176
#
# Velocity S-wave (km/s) = 2.25177 3.57821 2.98949
# Velocity P-wave (km/s) = 4.33396 6.85238 5.73316
#
# Compressibility (1/GPa) = 0.04686451
#
# Stress axis : x y z
#
# Youngs Moduli (GPa) = 83.93553 83.93553 28.80813
#
# Poissons Ratio (x) = 0.64097 -0.02591
# Poissons Ratio (y) = 0.64097 -0.02591
# Poissons Ratio (z) = -0.07548 -0.07548
#
# Static dielectric constant tensor:
#      x y z
#    x 1.606730 0.000000 0.000000 
#    y 0.000000 1.606730 0.000000 
#    z 0.000000 0.000000 1.679360 
# 
# From -- ./inp_files/1169.got.cif
#   From: 2010.05.17/outbox.cif.g08.bks.cpg/sg176_1_cif.got.tgz:1169.got - 2010.06.03 11:36:45.
