data_PCOD9581440
_publ_section_title
;
Structure prediction by ZEFSAII (Michael W. Deem and Ramdas Pophale) SiO2 
 PCOD9581440
Probable space group: P 6/M
;
_chemical_formula_sum "Si O2"
_cell_formula_units_Z 90
_cell_length_a 26.487905
_cell_length_b 26.487905
_cell_length_c 8.123765
_cell_angle_alpha 90.000000
_cell_angle_beta 90.000000
_cell_angle_gamma 120.000000
_cell_volume 4936.091525
_symmetry_space_group_name_H-M "P 6/M"
_symmetry_group_IT_number 175
_symmetry_cell_setting 'hexagonal'
loop_
_space_group_symop_operation_xyz
x,y,z
x-y,x,z
-y,x-y,z
-x,-y,z
-x+y,-x,z
y,-x+y,z
-x,-y,-z
-x+y,-x,-z
y,-x+y,-z
x,y,-z
x-y,x,-z
-y,x-y,-z
loop_
_atom_site_type_symbol
_atom_site_label
_atom_site_fract_x
_atom_site_fract_y
_atom_site_fract_z
Si Si1 0.684403 0.453596 0.192924
Si Si2 0.904374 0.774535 0.811013
Si Si3 0.294650 0.073596 0.312823
Si Si4 0.435814 0.647617 0.692250
Si Si5 0.051278 0.316022 0.194885
Si Si6 0.138674 0.089299 0.500000
Si Si7 0.418164 0.167226 0.809593
Si Si8 0.287189 0.852232 0.305648
O O1 0.618143 0.404152 0.215684
O O2 0.727812 0.436216 0.281471
O O3 0.699202 0.517985 0.249174
O O4 0.699870 0.459477 0.000000
O O5 0.834807 0.747132 0.797047
O O6 0.915071 0.720275 0.778599
O O7 0.935487 0.821656 0.665892
O O8 0.923533 0.795200 0.000000
O O9 0.276606 0.074302 0.500000
O O10 0.361865 0.121810 0.288561
O O11 0.287480 0.011959 0.268831
O O12 0.427728 0.632866 0.500000
O O13 0.500597 0.662036 0.742909
O O14 0.085196 0.379742 0.273907
O O15 0.047493 0.322207 0.000000
O O16 0.090485 0.109576 0.500000
O O17 0.422387 0.229780 0.793625
O O18 0.409513 0.148402 0.000000
O O19 0.276161 0.838023 0.500000
#
# Coordination Sequence:
#
# PCOD9581440 Si02
#       8
#    12  12  12  12  12   6  12  12
#     4  10  20  33  52  76 107 147 190 233 280 336
#     4  11  24  42  63  91 123 153 194 243 294 347
#     4  12  23  36  59  87 116 149 185 229 284 344
#     4  10  20  33  51  76 109 146 186 234 284 334
#     4  11  23  37  58  85 116 150 183 229 285 339
#     4  12  27  46  68  92 122 162 202 244 294 352
#     4  10  20  35  53  78 111 145 183 230 282 336
#     4  10  20  34  53  79 110 144 183 229 281 338
#
# _framework density 18.233049000000001
#
# number of rings (size 3 to 8) (size 9 to 14) (size 15 to 20)
#    0.000    1.333    2.000    4.333    1.867    4.800 
#    0.000    0.000    0.000    1.600    0.000    5.600 
#    0.000    0.000    0.000    0.000    0.000    0.000 
#
# Total GULP energy -502636.315208 kJ/mol
# GULP energy per Si atom -5584.847947 kJ/mol
# Density = 1.819155 g / cm^3
# Si number density = 18.233049 Si / 1000 Ang^3
#
#
#
# Elastic Constant Matrix: (Units=GPa)
#
#
# Indices 1 2 3 4 5 6 
#
# 1 45.6985 -4.2740 12.9728 0.0000 0.0000 0.0000
# 2 -4.2740 45.6985 12.9728 0.0000 0.0000 0.0000
# 3 12.9728 12.9728 60.3372 0.0000 0.0000 0.0000
# 4 0.0000 0.0000 0.0000 18.9134 0.0000 0.0000
# 5 0.0000 0.0000 0.0000 0.0000 18.9134 0.0000
# 6 0.0000 0.0000 0.0000 0.0000 0.0000 24.9862
#
#
#
# Elastic Compliance Matrix: (Units=1/GPa)
#
#
# Indices 1 2 3 4 5 6 
#
# 1 0.023954 0.003943 -0.005998 0.000000 0.000000 0.000000
# 2 0.003943 0.023954 -0.005998 0.000000 0.000000 0.000000
# 3 -0.005998 -0.005998 0.019153 0.000000 0.000000 0.000000
# 4 0.000000 0.000000 0.000000 0.052873 0.000000 0.000000
# 5 0.000000 0.000000 0.000000 0.000000 0.052873 0.000000
# 6 0.000000 0.000000 0.000000 0.000000 0.000000 0.040022
#
#
# Mechanical properties :
#
#
# Convention : Reuss Voigt Hill
#
# Bulk Modulus (GPa) = 19.62524 21.67528 20.65026
# Shear Modulus (GPa) = 20.33189 21.23343 20.78266
#
# Velocity S-wave (km/s) = 3.34295 3.41626 3.37981
# Velocity P-wave (km/s) = 5.06827 5.24165 5.15569
#
# Compressibility (1/GPa) = 0.05095480
#
# Stress axis : x y z
#
# Youngs Moduli (GPa) = 41.74658 41.74658 52.21183
#
# Poissons Ratio (x) = -0.16461 0.31317
# Poissons Ratio (y) = -0.16461 0.31317
# Poissons Ratio (z) = 0.25040 0.25040
#
# Static dielectric constant tensor:
#      x y z
#    x 1.628150 0.000000 0.000000 
#    y 0.000000 1.628150 0.000000 
#    z 0.000000 0.000000 1.635710 
# 
# From -- ./inp_files/1438.got.cif
#   From: 2010.05.17/outbox.cif.g08.bks.cpg/sg175_1_cif.got.tgz:1438.got - 2010.05.20 11:23:22.
