data_PCOD9581593
_publ_section_title
;
Structure prediction by ZEFSAII (Michael W. Deem and Ramdas Pophale) SiO2 
 PCOD9581593
Probable space group: P 6/M
;
_chemical_formula_sum "Si O2"
_cell_formula_units_Z 28
_cell_length_a 13.898079
_cell_length_b 13.898079
_cell_length_c 8.821854
_cell_angle_alpha 90.000000
_cell_angle_beta 90.000000
_cell_angle_gamma 120.000000
_cell_volume 1475.706702
_symmetry_space_group_name_H-M "P 6/M"
_symmetry_group_IT_number 175
_symmetry_cell_setting 'hexagonal'
loop_
_space_group_symop_operation_xyz
x,y,z
x-y,x,z
-y,x-y,z
-x,-y,z
-x+y,-x,z
y,-x+y,z
-x,-y,-z
-x+y,-x,-z
y,-x+y,-z
x,y,-z
x-y,x,-z
-y,x-y,-z
loop_
_atom_site_type_symbol
_atom_site_label
_atom_site_fract_x
_atom_site_fract_y
_atom_site_fract_z
Si Si1 0.333334 0.666668 0.819154
Si Si2 0.246272 0.050310 0.817489
Si Si3 0.479747 0.101800 0.318821
O O1 0.427001 0.785865 0.758073
O O2 0.333334 0.666668 0.000000
O O3 0.216642 0.145310 0.777765
O O4 0.359107 0.073678 0.738487
O O5 0.261060 0.053416 0.000000
O O6 0.486935 0.116543 0.500000
O O7 0.500000 0.000000 0.281432
#
# Coordination Sequence:
#
# PCOD9581593 Si02
#       3
#     4  12  12
#     4  12  25  41  64  90 118 155 199 246 295 350
#     4  10  21  38  61  89 121 157 198 244 294 349
#     4  11  24  41  61  87 121 158 197 244 297 352
#
# _framework density 18.973958
#
# number of rings (size 3 to 8) (size 9 to 14) (size 15 to 20)
#    0.000    1.286    0.000    5.571    0.000   13.714 
#    0.000    0.000    0.000    2.571    0.000    0.000 
#    0.000    0.000    0.000    0.000    0.000    0.000 
#
# Total GULP energy -156670.325696 kJ/mol
# GULP energy per Si atom -5595.368775 kJ/mol
# Density = 1.893077 g / cm^3
# Si number density = 18.973958 Si / 1000 Ang^3
#
#
#
# Elastic Constant Matrix: (Units=GPa)
#
#
# Indices 1 2 3 4 5 6 
#
# 1 221.4932 135.9971 95.0327 0.0000 0.0000 0.0000
# 2 135.9971 221.4951 95.0322 0.0000 0.0000 0.0009
# 3 95.0327 95.0322 70.9586 0.0000 0.0000 0.0005
# 4 0.0000 0.0000 0.0000 26.6711 -0.0005 0.0000
# 5 0.0000 0.0000 0.0000 -0.0005 26.6732 0.0000
# 6 0.0000 0.0009 0.0005 0.0000 0.0000 42.7480
#
#
#
# Elastic Compliance Matrix: (Units=1/GPa)
#
#
# Indices 1 2 3 4 5 6 
#
# 1 0.010705 -0.000991 -0.013010 0.000000 0.000000 0.000000
# 2 -0.000991 0.010705 -0.013009 0.000000 0.000000 0.000000
# 3 -0.013010 -0.013009 0.048940 0.000000 0.000000 0.000000
# 4 0.000000 0.000000 0.000000 0.037494 0.000001 0.000000
# 5 0.000000 0.000000 0.000000 0.000001 0.037491 0.000000
# 6 0.000000 0.000000 0.000000 0.000000 0.000000 0.023393
#
#
# Mechanical properties :
#
#
# Convention : Reuss Voigt Hill
#
# Bulk Modulus (GPa) = 61.24107 129.56343 95.40225
# Shear Modulus (GPa) = 21.91143 31.74411 26.82777
#
# Velocity S-wave (km/s) = 3.40195 4.09471 3.76430
# Velocity P-wave (km/s) = 6.91212 9.52831 8.32364
#
# Compressibility (1/GPa) = 0.01632891
#
# Stress axis : x y z
#
# Youngs Moduli (GPa) = 93.41117 93.41443 20.43338
#
# Poissons Ratio (x) = 0.09259 0.26584
# Poissons Ratio (y) = 0.09258 0.26583
# Poissons Ratio (z) = 1.21528 1.21526
#
# Static dielectric constant tensor:
#      x y z
#    x 1.620040 0.000000 0.000000 
#    y 0.000000 1.620030 0.000000 
#    z 0.000000 0.000000 1.638410 
# 
# From -- ./inp_files/289.got.cif
#   From: 2010.05.17/outbox.cif.g08.bks.cpg/sg175_1_cif.got.tgz:289.got - 2010.05.20 11:23:22.
