data_PCOD9581332
_publ_section_title
;
Structure prediction by ZEFSAII (Michael W. Deem and Ramdas Pophale) SiO2 
 PCOD9581332
Probable space group: P 6/M
;
_chemical_formula_sum "Si O2"
_cell_formula_units_Z 54
_cell_length_a 19.736775
_cell_length_b 19.736775
_cell_length_c 9.288685
_cell_angle_alpha 90.000000
_cell_angle_beta 90.000000
_cell_angle_gamma 120.000000
_cell_volume 3133.554462
_symmetry_space_group_name_H-M "P 6/M"
_symmetry_group_IT_number 175
_symmetry_cell_setting 'hexagonal'
loop_
_space_group_symop_operation_xyz
x,y,z
x-y,x,z
-y,x-y,z
-x,-y,z
-x+y,-x,z
y,-x+y,z
-x,-y,-z
-x+y,-x,-z
y,-x+y,-z
x,y,-z
x-y,x,-z
-y,x-y,-z
loop_
_atom_site_type_symbol
_atom_site_label
_atom_site_fract_x
_atom_site_fract_y
_atom_site_fract_z
Si Si1 0.114791 0.929512 0.500000
Si Si2 0.930615 0.320437 0.834754
Si Si3 0.094521 0.559028 0.666382
Si Si4 0.680599 0.117290 0.833857
Si Si5 0.839519 0.172106 0.663624
O O1 0.147322 0.901372 0.635016
O O2 0.020864 0.876336 0.500000
O O3 0.892464 0.364525 0.750655
O O4 0.909241 0.241816 0.750186
O O5 0.023448 0.378969 0.835065
O O6 0.904014 0.304295 0.000000
O O7 0.119208 0.574565 0.500000
O O8 0.131147 0.513935 0.750647
O O9 0.000000 0.500000 0.666364
O O10 0.761199 0.151600 0.747827
O O11 0.691238 0.143594 0.000000
O O12 0.837365 0.198841 0.500000
#
# Coordination Sequence:
#
# PCOD9581332 Si02
#       5
#     6  12  12  12  12
#     4  10  21  36  56  78 106 140 186 240 304 372
#     4  10  19  32  50  75 106 139 177 221 273 329
#     4   9  17  29  49  74 103 137 169 204 247 301
#     4  10  19  32  50  75 106 139 177 221 273 329
#     4  10  21  32  52  75 107 139 181 234 285 336
#
# _framework density 17.232825999999999
#
# number of rings (size 3 to 8) (size 9 to 14) (size 15 to 20)
#    0.667    1.556    0.000    4.111    0.000    4.444 
#    0.000    0.000    0.000    0.889    0.000    6.222 
#    0.000   10.667    0.000    0.000    0.000    0.000 
#
# Total GULP energy -300834.360324 kJ/mol
# GULP energy per Si atom -5571.006673 kJ/mol
# Density = 1.719360 g / cm^3
# Si number density = 17.232826 Si / 1000 Ang^3
#
#
#
# Elastic Constant Matrix: (Units=GPa)
#
#
# Indices 1 2 3 4 5 6 
#
# 1 37.8741 -14.3998 16.2393 0.0000 0.0000 0.0000
# 2 -14.3998 37.8741 16.2393 0.0000 0.0000 0.0000
# 3 16.2393 16.2393 140.5568 0.0000 0.0000 0.0000
# 4 0.0000 0.0000 0.0000 26.5197 0.0000 0.0000
# 5 0.0000 0.0000 0.0000 0.0000 26.5197 0.0000
# 6 0.0000 0.0000 0.0000 0.0000 0.0000 26.1369
#
#
#
# Elastic Compliance Matrix: (Units=1/GPa)
#
#
# Indices 1 2 3 4 5 6 
#
# 1 0.034918 0.015788 -0.005858 0.000000 0.000000 0.000000
# 2 0.015788 0.034918 -0.005858 0.000000 0.000000 0.000000
# 3 -0.005858 -0.005858 0.008468 0.000000 0.000000 0.000000
# 4 0.000000 0.000000 0.000000 0.037708 0.000000 0.000000
# 5 0.000000 0.000000 0.000000 0.000000 0.037708 0.000000
# 6 0.000000 0.000000 0.000000 0.000000 0.000000 0.038260
#
#
# Mechanical properties :
#
#
# Convention : Reuss Voigt Hill
#
# Bulk Modulus (GPa) = 11.56795 28.05137 19.80966
# Shear Modulus (GPa) = 23.51259 29.05037 26.28148
#
# Velocity S-wave (km/s) = 3.69780 4.11025 3.90947
# Velocity P-wave (km/s) = 4.99589 6.23208 5.64791
#
# Compressibility (1/GPa) = 0.08644574
#
# Stress axis : x y z
#
# Youngs Moduli (GPa) = 28.63883 28.63883 118.08846
#
# Poissons Ratio (x) = -0.45214 0.69179
# Poissons Ratio (y) = -0.45214 0.69179
# Poissons Ratio (z) = 0.16777 0.16777
#
# Static dielectric constant tensor:
#      x y z
#    x 1.586820 0.000000 0.000000 
#    y 0.000000 1.586820 0.000000 
#    z 0.000000 0.000000 1.579060 
# 
# From -- ./inp_files/785.got.cif
#   From: 2010.05.17/outbox.cif.g08.bks.cpg/sg175_1_cif.got.tgz:785.got - 2010.05.20 11:23:22.
