data_PCOD9581261
_publ_section_title
;
Structure prediction by ZEFSAII (Michael W. Deem and Ramdas Pophale) SiO2 
 PCOD9581261
Probable space group: P 6/M
;
_chemical_formula_sum "Si O2"
_cell_formula_units_Z 82
_cell_length_a 21.858289
_cell_length_b 21.858289
_cell_length_c 10.826138
_cell_angle_alpha 90.000000
_cell_angle_beta 90.000000
_cell_angle_gamma 120.000000
_cell_volume 4479.571963
_symmetry_space_group_name_H-M "P 6/M"
_symmetry_group_IT_number 175
_symmetry_cell_setting 'hexagonal'
loop_
_space_group_symop_operation_xyz
x,y,z
x-y,x,z
-y,x-y,z
-x,-y,z
-x+y,-x,z
y,-x+y,z
-x,-y,-z
-x+y,-x,-z
y,-x+y,-z
x,y,-z
x-y,x,-z
-y,x-y,-z
loop_
_atom_site_type_symbol
_atom_site_label
_atom_site_fract_x
_atom_site_fract_y
_atom_site_fract_z
Si Si1 0.206137 0.417081 0.353809
Si Si2 0.625884 0.384958 0.500000
Si Si3 0.067880 0.266632 0.353730
Si Si4 0.645259 0.191971 0.266215
Si Si5 0.350463 0.052874 0.648900
Si Si6 0.416031 0.955417 0.644401
Si Si7 0.102589 0.935002 0.140579
Si Si8 0.333335 0.666667 0.142919
O O1 0.219204 0.430877 0.500000
O O2 0.127909 0.348966 0.342578
O O3 0.212302 0.486486 0.294181
O O4 0.259203 0.391871 0.303055
O O5 0.591933 0.299255 0.500000
O O6 0.596652 0.401148 0.380181
O O7 0.068076 0.247677 0.500000
O O8 0.082829 0.221816 0.253627
O O9 0.992746 0.260208 0.321681
O O10 0.608747 0.107518 0.256263
O O11 0.650692 0.255887 0.185765
O O12 0.352915 0.058550 0.500000
O O13 0.386359 0.006734 0.680543
O O14 0.390565 0.929864 0.500000
O O15 0.500000 0.000000 0.639328
O O16 0.018128 0.889106 0.150431
O O17 0.121613 0.923039 0.000000
O O18 0.333334 0.666668 0.000000
#
# Coordination Sequence:
#
# PCOD9581261 Si02
#       8
#    12   6  12  12  12  12  12   4
#     4  10  19  30  55  85 119 153 184 230 285 350
#     4  10  18  30  51  92 112 128 178 236 289 342
#     4  10  19  35  55  84 121 154 191 237 294 360
#     4  12  20  37  61  83 117 152 190 241 290 356
#     4   9  18  31  46  81 123 153 179 216 281 351
#     4  10  20  31  51  89 129 147 172 227 292 358
#     4  10  21  37  57  80 108 146 196 252 303 351
#     4  12  30  46  59  82 111 156 211 257 295 342
#
# _framework density 18.305319000000001
#
# number of rings (size 3 to 8) (size 9 to 14) (size 15 to 20)
#    0.146    1.610    4.390    1.024    2.049    2.341 
#    0.000    0.732    0.000    2.195    0.000    0.000 
#    0.000    0.000    0.000    0.000    0.000    0.000 
#
# Total GULP energy -456560.836126 kJ/mol
# GULP energy per Si atom -5567.815075 kJ/mol
# Density = 1.826366 g / cm^3
# Si number density = 18.305319 Si / 1000 Ang^3
#
#
#
# Elastic Constant Matrix: (Units=GPa)
#
#
# Indices 1 2 3 4 5 6 
#
# 1 80.4077 26.4484 25.5700 0.0000 0.0000 -0.0005
# 2 26.4484 80.4093 25.5712 0.0000 0.0000 -0.0011
# 3 25.5700 25.5712 68.4063 0.0000 0.0000 -0.0005
# 4 0.0000 0.0000 0.0000 -1.5520 0.0009 0.0000
# 5 0.0000 0.0000 0.0000 0.0009 -1.5519 0.0000
# 6 -0.0005 -0.0011 -0.0005 0.0000 0.0000 26.9795
#
#
#
# Elastic Compliance Matrix: (Units=1/GPa)
#
#
# Indices 1 2 3 4 5 6 
#
# 1 0.014965 -0.003567 -0.004260 0.000000 0.000000 0.000000
# 2 -0.003567 0.014965 -0.004261 0.000000 0.000000 0.000000
# 3 -0.004260 -0.004261 0.017804 0.000000 0.000000 0.000000
# 4 0.000000 0.000000 0.000000 -0.644344 -0.000386 0.000000
# 5 0.000000 0.000000 0.000000 -0.000386 -0.644354 0.000000
# 6 0.000000 0.000000 0.000000 0.000000 0.000000 0.037065
#
#
# Mechanical properties :
#
#
# Convention : Reuss Voigt Hill
#
# Bulk Modulus (GPa) = 42.45065 42.71139 42.58102
# Shear Modulus (GPa) = -4.26668 14.88403 5.30867
#
# Velocity S-wave (km/s) = -1.52837 2.85458 1.70481
# Velocity P-wave (km/s) = 4.48622 5.85220 5.21414
#
# Compressibility (1/GPa) = 0.02355676
#
# Stress axis : x y z
#
# Youngs Moduli (GPa) = 66.82337 66.82403 56.16828
#
# Poissons Ratio (x) = 0.23839 0.23929
# Poissons Ratio (y) = 0.23839 0.23931
# Poissons Ratio (z) = 0.28468 0.28470
#
# Static dielectric constant tensor:
#      x y z
#    x 1.688930 0.000000 0.000000 
#    y 0.000000 1.688940 0.000000 
#    z 0.000000 0.000000 1.629370 
# 
# From -- ./inp_files/2051.got.cif
#   From: 2010.05.17/outbox.cif.g08.bks.cpg/sg175_2_cif.got.tgz:2051.got - 2010.05.20 11:23:22.
