data_PCOD9581935
_publ_section_title
;
Structure prediction by ZEFSAII (Michael W. Deem and Ramdas Pophale) SiO2 
 PCOD9581935
Probable space group: P 63/M
;
_chemical_formula_sum "Si O2"
_cell_formula_units_Z 76
_cell_length_a 18.296866
_cell_length_b 18.296866
_cell_length_c 13.698398
_cell_angle_alpha 90.000000
_cell_angle_beta 90.000000
_cell_angle_gamma 120.000000
_cell_volume 3971.493233
_symmetry_space_group_name_H-M "P 63/M"
_symmetry_group_IT_number 176
_symmetry_cell_setting 'hexagonal'
loop_
_space_group_symop_operation_xyz
x,y,z
x-y,x,1/2+z
-y,x-y,z
-x,-y,1/2+z
-x+y,-x,z
y,-x+y,1/2+z
-x,-y,-z
-x+y,-x,1/2-z
y,-x+y,-z
x,y,1/2-z
x-y,x,-z
-y,x-y,1/2-z
loop_
_atom_site_type_symbol
_atom_site_label
_atom_site_fract_x
_atom_site_fract_y
_atom_site_fract_z
Si Si1 0.050940 0.190041 0.485919
Si Si2 0.827668 0.659107 0.862988
Si Si3 0.414643 0.410048 0.863301
Si Si4 0.677892 0.182258 0.556508
Si Si5 0.681842 0.000316 0.443244
Si Si6 0.389725 0.885888 0.639769
Si Si7 0.333334 0.666667 0.363776
O O1 0.112645 0.157202 0.526072
O O2 0.098318 0.246844 0.391081
O O3 0.043042 0.259632 0.551166
O O4 0.832538 0.640877 0.750000
O O5 0.831164 0.588592 0.929128
O O6 0.739683 0.652497 0.889564
O O7 0.388702 0.384466 0.750000
O O8 0.492368 0.394599 0.890312
O O9 0.447550 0.509149 0.871634
O O10 0.344654 0.358004 0.946778
O O11 0.651201 0.181942 0.445406
O O12 0.695584 0.268477 0.602292
O O13 0.647801 0.052933 0.385083
O O14 0.369249 0.854379 0.750000
O O15 0.333334 0.666668 0.250000
#
# Coordination Sequence:
#
# PCOD9581935 Si02
#       7
#    12  12  12  12  12  12   4
#     4  10  21  39  63  89 125 162 197 249 313 375
#     4  11  22  38  62  87 119 157 201 255 310 365
#     4  10  20  37  63  89 120 159 203 255 308 360
#     4  11  23  40  58  87 124 158 205 255 301 366
#     4  10  20  36  61  91 123 158 203 257 305 365
#     4  10  21  39  62  88 120 161 207 255 310 362
#     4  12  27  39  58  86 124 168 204 249 313 371
#
# _framework density 19.136379000000002
#
# number of rings (size 3 to 8) (size 9 to 14) (size 15 to 20)
#    0.000    1.579    3.158    3.947    4.421    0.000 
#    0.000    5.526    0.000    0.000    0.000    0.000 
#    0.000    0.000    0.000    0.000    0.000    0.000 
#
# Total GULP energy -423735.313581 kJ/mol
# GULP energy per Si atom -5575.464652 kJ/mol
# Density = 1.909282 g / cm^3
# Si number density = 19.136379 Si / 1000 Ang^3
#
#
#
# Elastic Constant Matrix: (Units=GPa)
#
#
# Indices 1 2 3 4 5 6 
#
# 1 89.6336 13.5921 13.9660 0.0000 0.0000 0.0063
# 2 13.5921 89.6386 13.9723 0.0000 0.0000 -0.0033
# 3 13.9660 13.9723 67.7522 0.0000 0.0000 0.0007
# 4 0.0000 0.0000 0.0000 5.1913 -0.0003 0.0000
# 5 0.0000 0.0000 0.0000 -0.0003 5.1919 0.0000
# 6 0.0063 -0.0033 0.0007 0.0000 0.0000 38.0319
#
#
#
# Elastic Compliance Matrix: (Units=1/GPa)
#
#
# Indices 1 2 3 4 5 6 
#
# 1 0.011705 -0.001445 -0.002115 0.000000 0.000000 -0.000002
# 2 -0.001445 0.011705 -0.002116 0.000000 0.000000 0.000001
# 3 -0.002115 -0.002116 0.015632 0.000000 0.000000 0.000000
# 4 0.000000 0.000000 0.000000 0.192631 0.000011 0.000000
# 5 0.000000 0.000000 0.000000 0.000011 0.192607 0.000000
# 6 -0.000002 0.000001 0.000000 0.000000 0.000000 0.026294
#
#
# Mechanical properties :
#
#
# Convention : Reuss Voigt Hill
#
# Bulk Modulus (GPa) = 36.11404 36.67616 36.39510
# Shear Modulus (GPa) = 10.61220 23.38262 16.99741
#
# Velocity S-wave (km/s) = 2.35746 3.49935 2.98354
# Velocity P-wave (km/s) = 5.13060 5.96109 5.56137
#
# Compressibility (1/GPa) = 0.02769006
#
# Stress axis : x y z
#
# Youngs Moduli (GPa) = 85.43215 85.43452 63.97153
#
# Poissons Ratio (x) = 0.12347 0.13529
# Poissons Ratio (y) = 0.12347 0.13536
# Poissons Ratio (z) = 0.18067 0.18077
#
# Static dielectric constant tensor:
#      x y z
#    x 1.687290 0.000000 0.000000 
#    y 0.000000 1.687300 0.000000 
#    z 0.000000 0.000000 1.676590 
# 
# From -- ./inp_files/2885.got.cif
#   From: 2010.05.17/outbox.cif.g08.bks.cpg/sg176_2_cif.got.tgz:2885.got - 2010.06.03 11:36:45.
