data_PCOD9581247
_publ_section_title
;
Structure prediction by ZEFSAII (Michael W. Deem and Ramdas Pophale) SiO2 
 PCOD9581247
Probable space group: P 6/M
;
_chemical_formula_sum "Si O2"
_cell_formula_units_Z 84
_cell_length_a 26.806230
_cell_length_b 26.806230
_cell_length_c 7.314996
_cell_angle_alpha 90.000000
_cell_angle_beta 90.000000
_cell_angle_gamma 120.000000
_cell_volume 4552.146222
_symmetry_space_group_name_H-M "P 6/M"
_symmetry_group_IT_number 175
_symmetry_cell_setting 'hexagonal'
loop_
_space_group_symop_operation_xyz
x,y,z
x-y,x,z
-y,x-y,z
-x,-y,z
-x+y,-x,z
y,-x+y,z
-x,-y,-z
-x+y,-x,-z
y,-x+y,-z
x,y,-z
x-y,x,-z
-y,x-y,-z
loop_
_atom_site_type_symbol
_atom_site_label
_atom_site_fract_x
_atom_site_fract_y
_atom_site_fract_z
Si Si1 0.000000 0.231460 0.785437
Si Si2 0.465036 0.534964 0.213427
Si Si3 0.885964 0.885964 0.720117
Si Si4 0.932973 0.575336 0.223011
Si Si5 0.770842 0.114945 0.776635
Si Si6 0.885055 0.229158 0.223365
Si Si7 0.575336 0.932973 0.223011
O O1 0.059094 0.284818 0.714063
O O2 0.000000 0.172144 0.766798
O O3 0.940907 0.225725 0.714063
O O4 0.000000 0.243966 0.000000
O O5 0.500000 0.500000 0.220881
O O6 0.510629 0.597679 0.287798
O O7 0.402321 0.489371 0.287797
O O8 0.456736 0.543264 0.000000
O O9 0.884754 0.942377 0.785465
O O10 0.889164 0.889165 0.500000
O O11 0.895488 0.603933 0.278605
O O12 1.000000 0.616639 0.276067
O O13 0.933141 0.574002 0.000000
O O14 0.825828 0.174173 0.716315
O O15 0.772105 0.115562 0.000000
O O16 0.895489 0.291555 0.278605
O O17 0.884438 0.227895 0.000000
O O18 0.574002 0.933141 0.000000
#
# Coordination Sequence:
#
# PCOD9581247 Si02
#       7
#    12  12  12  12  12  12  12
#     4  10  18  29  43  60  80 100 122 149 188 240
#     4   7  10  14  24  38  54  80 110 136 164 200
#     4  10  21  36  50  60  71  91 123 163 202 236
#     4   8  11  17  26  39  60  85 111 138 169 208
#     4   9  15  21  31  48  71  96 117 141 179 228
#     4   9  15  21  31  48  71  96 117 141 179 228
#     4   8  11  17  26  39  60  85 111 138 169 208
#
# _framework density 18.452835
#
# number of rings (size 3 to 8) (size 9 to 14) (size 15 to 20)
#    0.000    3.286    1.429    2.714    0.000    2.286 
#    0.000    0.000    0.000    0.857    0.000    0.000 
#    1.429    0.000    4.286    2.571    0.000    3.143 
#
# Total GULP energy -468348.416337 kJ/mol
# GULP energy per Si atom -5575.576385 kJ/mol
# Density = 1.841084 g / cm^3
# Si number density = 18.452835 Si / 1000 Ang^3
#
#
#
# Elastic Constant Matrix: (Units=GPa)
#
#
# Indices 1 2 3 4 5 6 
#
# 1 165.0955 116.7919 4.3727 0.0000 0.0000 0.0000
# 2 116.7919 165.0955 4.3727 0.0000 0.0000 0.0000
# 3 4.3727 4.3727 71.6601 0.0000 0.0000 0.0000
# 4 0.0000 0.0000 0.0000 0.1039 0.0000 0.0000
# 5 0.0000 0.0000 0.0000 0.0000 0.1039 0.0000
# 6 0.0000 0.0000 0.0000 0.0000 0.0000 24.1518
#
#
#
# Elastic Compliance Matrix: (Units=1/GPa)
#
#
# Indices 1 2 3 4 5 6 
#
# 1 0.012128 -0.008574 -0.000217 0.000000 0.000000 0.000000
# 2 -0.008574 0.012128 -0.000217 0.000000 0.000000 0.000000
# 3 -0.000217 -0.000217 0.013981 0.000000 0.000000 0.000000
# 4 0.000000 0.000000 0.000000 9.624099 0.000001 0.000000
# 5 0.000000 0.000000 0.000000 0.000001 9.624098 0.000000
# 6 0.000000 0.000000 0.000000 0.000000 0.000000 0.041405
#
#
# Mechanical properties :
#
#
# Convention : Reuss Voigt Hill
#
# Bulk Modulus (GPa) = 49.45062 72.54732 60.99897
# Shear Modulus (GPa) = 0.25836 23.29283 11.77560
#
# Velocity S-wave (km/s) = 0.37459 3.55673 2.52890
# Velocity P-wave (km/s) = 5.20035 7.50116 6.45411
#
# Compressibility (1/GPa) = 0.02022219
#
# Stress axis : x y z
#
# Youngs Moduli (GPa) = 82.45162 82.45162 71.52446
#
# Poissons Ratio (x) = 0.70695 0.01551
# Poissons Ratio (y) = 0.70695 0.01551
# Poissons Ratio (z) = 0.01788 0.01788
#
# Static dielectric constant tensor:
#      x y z
#    x 1.623960 0.000000 0.000000 
#    y 0.000000 1.623960 0.000000 
#    z 0.000000 0.000000 1.702280 
# 
# From -- ./inp_files/2120.got.cif
#   From: 2010.05.17/outbox.cif.g08.bks.cpg/sg175_2_cif.got.tgz:2120.got - 2010.05.20 11:23:22.
