data_PCOD9581648
_publ_section_title
;
Structure prediction by ZEFSAII (Michael W. Deem and Ramdas Pophale) SiO2 
 PCOD9581648
Probable space group: P 6/M
;
_chemical_formula_sum "Si O2"
_cell_formula_units_Z 70
_cell_length_a 14.367183
_cell_length_b 14.367183
_cell_length_c 18.830183
_cell_angle_alpha 90.000000
_cell_angle_beta 90.000000
_cell_angle_gamma 120.000000
_cell_volume 3366.110895
_symmetry_space_group_name_H-M "P 6/M"
_symmetry_group_IT_number 175
_symmetry_cell_setting 'hexagonal'
loop_
_space_group_symop_operation_xyz
x,y,z
x-y,x,z
-y,x-y,z
-x,-y,z
-x+y,-x,z
y,-x+y,z
-x,-y,-z
-x+y,-x,-z
y,-x+y,-z
x,y,-z
x-y,x,-z
-y,x-y,-z
loop_
_atom_site_type_symbol
_atom_site_label
_atom_site_fract_x
_atom_site_fract_y
_atom_site_fract_z
Si Si1 0.333333 0.666666 0.082313
Si Si2 0.590650 0.815540 0.628403
Si Si3 0.449068 0.575896 0.580520
Si Si4 0.826959 0.748441 0.500000
Si Si5 0.800171 0.592563 0.782284
Si Si6 0.743123 0.860024 0.079590
Si Si7 0.564141 0.123337 0.171637
O O1 0.408900 0.621987 0.111113
O O2 0.333334 0.666668 0.000000
O O3 0.540117 0.692452 0.604738
O O4 0.485370 0.829080 0.628867
O O5 0.672384 0.892613 0.568982
O O6 0.644779 0.833275 0.705474
O O7 0.500000 0.500000 0.578944
O O8 0.414538 0.583704 0.500000
O O9 0.796283 0.841138 0.500000
O O10 0.846600 0.665192 0.852461
O O11 0.672855 0.517956 0.794111
O O12 0.855955 0.519057 0.778184
O O13 0.821217 0.810258 0.083270
O O14 0.690890 0.831823 0.000000
O O15 0.500000 0.000000 0.147956
#
# Coordination Sequence:
#
# PCOD9581648 Si02
#       7
#     4  12  12   6  12  12  12
#     4   9  21  39  60  93 123 154 209 253 291 372
#     4  12  24  41  66  95 129 164 204 261 320 371
#     4  11  22  39  63  92 123 162 209 254 306 370
#     4  12  27  46  64  86 122 168 211 254 308 372
#     4  11  24  40  63  95 127 166 212 255 309 384
#     4  10  22  42  67  94 124 161 213 277 336 383
#     4  10  22  41  60  84 125 167 200 247 307 360
#
# _framework density 20.795511999999999
#
# number of rings (size 3 to 8) (size 9 to 14) (size 15 to 20)
#    0.000    1.200    1.714    4.029    0.000   10.629 
#    0.000    0.000    0.000    2.057    0.000    0.000 
#    0.000    0.000    0.000    0.000    0.000    0.000 
#
# Total GULP energy -391235.847361 kJ/mol
# GULP energy per Si atom -5589.083534 kJ/mol
# Density = 2.074818 g / cm^3
# Si number density = 20.795512 Si / 1000 Ang^3
#
#
#
# Elastic Constant Matrix: (Units=GPa)
#
#
# Indices 1 2 3 4 5 6 
#
# 1 166.7906 107.0285 992.8960 0.0000 0.0000 0.0025
# 2 107.0285 166.7786 992.8315 0.0000 0.0000 0.0024
# 3 992.8960 992.831510992.1701 0.0000 0.0000 0.0267
# 4 0.0000 0.0000 0.0000 26.7891 -0.0005 0.0000
# 5 0.0000 0.0000 0.0000 -0.0005 26.7892 0.0000
# 6 0.0025 0.0024 0.0267 0.0000 0.0000 29.8780
#
#
#
# Elastic Compliance Matrix: (Units=1/GPa)
#
#
# Indices 1 2 3 4 5 6 
#
# 1 0.013661 -0.003074 -0.000956 0.000000 0.000000 0.000000
# 2 -0.003074 0.013661 -0.000956 0.000000 0.000000 0.000000
# 3 -0.000956 -0.000956 0.000264 0.000000 0.000000 0.000000
# 4 0.000000 0.000000 0.000000 0.037329 0.000001 0.000000
# 5 0.000000 0.000000 0.000000 0.000001 0.037328 0.000000
# 6 0.000000 0.000000 0.000000 0.000000 0.000000 0.033469
#
#
# Mechanical properties :
#
#
# Convention : Reuss Voigt Hill
#
# Bulk Modulus (GPa) = 56.77586 1723.47236 890.12411
# Shear Modulus (GPa) = 32.99117 632.22350 332.60734
#
# Velocity S-wave (km/s) = 3.98736 17.45506 12.66053
# Velocity P-wave (km/s) = 6.96849 35.16830 25.35123
#
# Compressibility (1/GPa) = 0.01761312
#
# Stress axis : x y z
#
# Youngs Moduli (GPa) = 73.20134 73.20098 3791.79485
#
# Poissons Ratio (x) = 0.22500 3.62624
# Poissons Ratio (y) = 0.22500 3.62589
# Poissons Ratio (z) = 0.07001 0.07000
#
# Static dielectric constant tensor:
#      x y z
#    x 1.736470 0.000000 0.000000 
#    y 0.000000 1.736470 0.000000 
#    z 0.000000 0.000000 1.767780 
# 
# From -- ./inp_files/2910.got.cif
#   From: 2010.05.17/outbox.cif.g08.bks.cpg/sg175_2_cif.got.tgz:2910.got - 2010.05.20 11:23:22.
