data_PCOD9581954
_publ_section_title
;
Structure prediction by ZEFSAII (Michael W. Deem and Ramdas Pophale) SiO2 
 PCOD9581954
Probable space group: P 63/M
;
_chemical_formula_sum "Si O2"
_cell_formula_units_Z 76
_cell_length_a 18.377568
_cell_length_b 18.377568
_cell_length_c 14.591955
_cell_angle_alpha 90.000000
_cell_angle_beta 90.000000
_cell_angle_gamma 120.000000
_cell_volume 4267.958522
_symmetry_space_group_name_H-M "P 63/M"
_symmetry_group_IT_number 176
_symmetry_cell_setting 'hexagonal'
loop_
_space_group_symop_operation_xyz
x,y,z
x-y,x,1/2+z
-y,x-y,z
-x,-y,1/2+z
-x+y,-x,z
y,-x+y,1/2+z
-x,-y,-z
-x+y,-x,1/2-z
y,-x+y,-z
x,y,1/2-z
x-y,x,-z
-y,x-y,1/2-z
loop_
_atom_site_type_symbol
_atom_site_label
_atom_site_fract_x
_atom_site_fract_y
_atom_site_fract_z
Si Si1 0.775321 0.395478 0.857810
Si Si2 0.932968 0.801133 0.992412
Si Si3 0.333334 0.666668 0.639106
Si Si4 0.960077 0.685334 0.856756
Si Si5 0.152089 0.829110 0.851865
Si Si6 0.685548 0.177512 0.356931
Si Si7 0.928881 0.523158 0.523904
O O1 0.705154 0.423825 0.873247
O O2 0.798191 0.408622 0.750000
O O3 0.853896 0.444779 0.922393
O O4 0.925086 0.741426 0.906072
O O5 0.872720 0.842374 0.991194
O O6 0.898361 0.735892 0.076200
O O7 0.333334 0.666668 0.750000
O O8 0.327755 0.746931 0.610552
O O9 0.932638 0.664527 0.750000
O O10 0.946197 0.604017 0.914242
O O11 0.059619 0.749995 0.857562
O O12 0.165039 0.865757 0.750000
O O13 0.218041 0.797518 0.864475
O O14 0.660382 0.159180 0.250000
O O15 0.636155 0.101276 0.424731
O O16 0.000000 0.500000 0.500000
#
# Coordination Sequence:
#
# PCOD9581954 Si02
#       7
#    12  12   4  12  12  12  12
#     4   8  19  41  63  83 112 155 204 252 295 344
#     4  10  20  38  62  92 121 155 200 245 299 357
#     4   9  21  36  57  84 109 146 196 237 288 342
#     4  10  22  40  60  86 121 159 194 242 304 362
#     4   9  19  38  61  83 121 158 192 239 294 357
#     4  10  22  39  58  85 115 154 196 242 290 348
#     4  12  25  36  58  90 120 157 198 245 299 361
#
# _framework density 17.807107999999999
#
# number of rings (size 3 to 8) (size 9 to 14) (size 15 to 20)
#    0.316    1.895    1.579    0.632    4.421    1.895 
#    0.000    0.000    0.000    1.895    0.000    0.000 
#    0.000    0.000    0.000    0.000    0.000    0.000 
#
# Total GULP energy -423259.740577 kJ/mol
# GULP energy per Si atom -5569.207113 kJ/mol
# Density = 1.776658 g / cm^3
# Si number density = 17.807108 Si / 1000 Ang^3
#
#
#
# Elastic Constant Matrix: (Units=GPa)
#
#
# Indices 1 2 3 4 5 6 
#
# 1 70.1727 42.4383 55.4341 0.0000 0.0000 -0.0003
# 2 42.4383 70.1739 55.4344 0.0000 0.0000 -0.0004
# 3 55.4341 55.4344 109.1177 0.0000 0.0000 0.0000
# 4 0.0000 0.0000 0.0000 28.6678 -0.0001 0.0000
# 5 0.0000 0.0000 0.0000 -0.0001 28.6676 0.0000
# 6 -0.0003 -0.0004 0.0000 0.0000 0.0000 13.8675
#
#
#
# Elastic Compliance Matrix: (Units=1/GPa)
#
#
# Indices 1 2 3 4 5 6 
#
# 1 0.026911 -0.009145 -0.009025 0.000000 0.000000 0.000000
# 2 -0.009145 0.026910 -0.009025 0.000000 0.000000 0.000001
# 3 -0.009025 -0.009025 0.018335 0.000000 0.000000 0.000000
# 4 0.000000 0.000000 0.000000 0.034882 0.000000 0.000000
# 5 0.000000 0.000000 0.000000 0.000000 0.034883 0.000000
# 6 0.000000 0.000001 0.000000 0.000000 0.000000 0.072111
#
#
# Mechanical properties :
#
#
# Convention : Reuss Voigt Hill
#
# Bulk Modulus (GPa) = 56.29186 61.78642 59.03914
# Shear Modulus (GPa) = 18.22522 20.65107 19.43814
#
# Velocity S-wave (km/s) = 3.20266 3.40914 3.30751
# Velocity P-wave (km/s) = 6.73474 7.09008 6.91469
#
# Compressibility (1/GPa) = 0.01776456
#
# Stress axis : x y z
#
# Youngs Moduli (GPa) = 37.15959 37.16034 54.54159
#
# Poissons Ratio (x) = 0.33983 0.49226
# Poissons Ratio (y) = 0.33982 0.49226
# Poissons Ratio (z) = 0.33538 0.33538
#
# Static dielectric constant tensor:
#      x y z
#    x 1.608160 0.000000 0.000000 
#    y 0.000000 1.608160 0.000000 
#    z 0.000000 0.000000 1.638130 
# 
# From -- ./inp_files/2852.got.cif
#   From: 2010.05.17/outbox.cif.g08.bks.cpg/sg176_2_cif.got.tgz:2852.got - 2010.06.03 11:36:45.
