data_PCOD9581906
_publ_section_title
;
Structure prediction by ZEFSAII (Michael W. Deem and Ramdas Pophale) SiO2 
 PCOD9581906
Probable space group: P 63/M
;
_chemical_formula_sum "Si O2"
_cell_formula_units_Z 84
_cell_length_a 15.002845
_cell_length_b 15.002845
_cell_length_c 22.823254
_cell_angle_alpha 90.000000
_cell_angle_beta 90.000000
_cell_angle_gamma 120.000000
_cell_volume 4448.928643
_symmetry_space_group_name_H-M "P 63/M"
_symmetry_group_IT_number 176
_symmetry_cell_setting 'hexagonal'
loop_
_space_group_symop_operation_xyz
x,y,z
x-y,x,1/2+z
-y,x-y,z
-x,-y,1/2+z
-x+y,-x,z
y,-x+y,1/2+z
-x,-y,-z
-x+y,-x,1/2-z
y,-x+y,-z
x,y,1/2-z
x-y,x,-z
-y,x-y,1/2-z
loop_
_atom_site_type_symbol
_atom_site_label
_atom_site_fract_x
_atom_site_fract_y
_atom_site_fract_z
Si Si1 0.535247 0.108920 0.819189
Si Si2 0.229093 0.544981 0.977916
Si Si3 0.377562 0.880566 0.819344
Si Si4 0.283174 0.435287 0.820682
Si Si5 0.357988 0.313674 0.884394
Si Si6 0.806596 0.259093 0.908447
Si Si7 0.608015 0.006949 0.014338
O O1 0.558855 0.129075 0.750000
O O2 0.613985 0.082531 0.852269
O O3 0.520113 0.192011 0.854592
O O4 0.426160 0.002179 0.825271
O O5 0.347816 0.579422 0.963364
O O6 0.121964 0.448350 0.957965
O O7 0.230546 0.519304 0.047157
O O8 0.370895 0.859023 0.750000
O O9 0.464461 0.854807 0.840121
O O10 0.262732 0.806949 0.840309
O O11 0.284923 0.428290 0.750000
O O12 0.280356 0.335678 0.847866
O O13 0.357587 0.206738 0.887164
O O14 0.352172 0.344687 0.951221
O O15 0.911516 0.323956 0.945456
O O16 0.500000 0.000000 0.000000
#
# Coordination Sequence:
#
# PCOD9581906 Si02
#       7
#    12  12  12  12  12  12  12
#     4  10  20  34  53  78 112 151 189 227 276 336
#     4   9  17  31  53  75 100 139 181 233 276 325
#     4   8  15  28  48  75 107 144 179 218 265 321
#     4   9  16  31  53  77 111 146 181 227 278 327
#     4  10  21  34  52  75 107 142 191 229 273 333
#     4  11  20  35  52  72 112 151 180 230 280 333
#     4  11  18  33  52  69 100 145 183 228 282 317
#
# _framework density 18.880951
#
# number of rings (size 3 to 8) (size 9 to 14) (size 15 to 20)
#    0.286    2.000    2.857    2.429    0.000    2.286 
#    6.000    0.000    0.000    0.000    0.000    0.000 
#    1.429    4.571    0.857    0.286    0.000    0.000 
#
# Total GULP energy -467883.791778 kJ/mol
# GULP energy per Si atom -5570.045140 kJ/mol
# Density = 1.883798 g / cm^3
# Si number density = 18.880951 Si / 1000 Ang^3
#
#
#
# Elastic Constant Matrix: (Units=GPa)
#
#
# Indices 1 2 3 4 5 6 
#
# 1 68.6990 26.9570 30.9667 0.0000 0.0000 0.0000
# 2 26.9570 68.6990 30.9667 0.0000 0.0000 0.0000
# 3 30.9667 30.9667 114.4877 0.0000 0.0000 0.0000
# 4 0.0000 0.0000 0.0000 28.1849 0.0000 0.0000
# 5 0.0000 0.0000 0.0000 0.0000 28.1849 0.0000
# 6 0.0000 0.0000 0.0000 0.0000 0.0000 20.8710
#
#
#
# Elastic Compliance Matrix: (Units=1/GPa)
#
#
# Indices 1 2 3 4 5 6 
#
# 1 0.018315 -0.005642 -0.003428 0.000000 0.000000 0.000000
# 2 -0.005642 0.018315 -0.003428 0.000000 0.000000 0.000000
# 3 -0.003428 -0.003428 0.010589 0.000000 0.000000 0.000000
# 4 0.000000 0.000000 0.000000 0.035480 0.000000 0.000000
# 5 0.000000 0.000000 0.000000 0.000000 0.035480 0.000000
# 6 0.000000 0.000000 0.000000 0.000000 0.000000 0.047913
#
#
# Mechanical properties :
#
#
# Convention : Reuss Voigt Hill
#
# Bulk Modulus (GPa) = 44.99580 47.74073 46.36826
# Shear Modulus (GPa) = 25.18949 26.31453 25.75201
#
# Velocity S-wave (km/s) = 3.65653 3.73729 3.69713
# Velocity P-wave (km/s) = 6.45832 6.63047 6.54496
#
# Compressibility (1/GPa) = 0.02222430
#
# Stress axis : x y z
#
# Youngs Moduli (GPa) = 54.59966 54.59966 94.43797
#
# Poissons Ratio (x) = 0.30803 0.32373
# Poissons Ratio (y) = 0.30803 0.32373
# Poissons Ratio (z) = 0.18717 0.18717
#
# Static dielectric constant tensor:
#      x y z
#    x 1.700360 0.000000 0.000000 
#    y 0.000000 1.700360 0.000000 
#    z 0.000000 0.000000 1.745320 
# 
# From -- ./inp_files/4089.got.cif
#   From: 2010.05.17/outbox.cif.g08.bks.cpg/sg176_3_cif.got.tgz:4089.got - 2010.06.03 11:36:45.
