data_PCOD9581621
_publ_section_title
;
Structure prediction by ZEFSAII (Michael W. Deem and Ramdas Pophale) SiO2 
 PCOD9581621
Probable space group: P 6/M
;
_chemical_formula_sum "Si O2"
_cell_formula_units_Z 46
_cell_length_a 14.098667
_cell_length_b 14.098667
_cell_length_c 11.262360
_cell_angle_alpha 90.000000
_cell_angle_beta 90.000000
_cell_angle_gamma 120.000000
_cell_volume 1938.724698
_symmetry_space_group_name_H-M "P 6/M"
_symmetry_group_IT_number 175
_symmetry_cell_setting 'hexagonal'
loop_
_space_group_symop_operation_xyz
x,y,z
x-y,x,z
-y,x-y,z
-x,-y,z
-x+y,-x,z
y,-x+y,z
-x,-y,-z
-x+y,-x,-z
y,-x+y,-z
x,y,-z
x-y,x,-z
-y,x-y,-z
loop_
_atom_site_type_symbol
_atom_site_label
_atom_site_fract_x
_atom_site_fract_y
_atom_site_fract_z
Si Si1 0.399798 0.373798 0.870716
Si Si2 0.106459 0.488744 0.633662
Si Si3 0.251507 0.071827 0.500000
Si Si4 0.812818 0.745505 0.763118
Si Si5 0.666666 0.333333 0.640903
O O1 0.500000 0.500000 0.869814
O O2 0.417023 0.323845 0.748825
O O3 0.274933 0.346681 0.851554
O O4 0.405880 0.329727 0.000000
O O5 0.125228 0.456133 0.500000
O O6 0.207455 0.605089 0.671537
O O7 0.000000 0.500000 0.622693
O O8 0.305102 0.084464 0.628540
O O9 0.152046 0.948931 0.500000
O O10 0.942780 0.792345 0.777454
O O11 0.666667 0.333334 0.500000
#
# Coordination Sequence:
#
# PCOD9581621 Si02
#       5
#    12  12   6  12   4
#     4  10  23  41  59  84 125 173 222 274 323 381
#     4   9  19  37  62  88 116 156 205 261 321 381
#     4   8  15  30  55  92 134 176 218 260 316 388
#     4  10  21  39  66 100 139 179 220 270 330 402
#     4   9  18  36  61  92 124 153 202 266 319 375
#
# _framework density 23.726937
#
# number of rings (size 3 to 8) (size 9 to 14) (size 15 to 20)
#    0.000    2.609    0.000    0.391    1.826    7.304 
#    0.000    3.913    0.000    2.609    0.000    0.000 
#    0.000    0.000    0.000    0.000    0.000    0.000 
#
# Total GULP energy -256169.312122 kJ/mol
# GULP energy per Si atom -5568.898090 kJ/mol
# Density = 2.367293 g / cm^3
# Si number density = 23.726937 Si / 1000 Ang^3
#
#
#
# Elastic Constant Matrix: (Units=GPa)
#
#
# Indices 1 2 3 4 5 6 
#
# 1 102.8993 54.8248 18.7043 0.0000 0.0000 -0.0008
# 2 54.8248 102.8986 18.7048 0.0000 0.0000 0.0005
# 3 18.7043 18.7048 178.8062 0.0000 0.0000 -0.0004
# 4 0.0000 0.0000 0.0000 -7.5304 -0.0011 0.0000
# 5 0.0000 0.0000 0.0000 -0.0011 -7.5257 0.0000
# 6 -0.0008 0.0005 -0.0004 0.0000 0.0000 24.0371
#
#
#
# Elastic Compliance Matrix: (Units=1/GPa)
#
#
# Indices 1 2 3 4 5 6 
#
# 1 0.013651 -0.007150 -0.000680 0.000000 0.000000 0.000001
# 2 -0.007150 0.013651 -0.000680 0.000000 0.000000 -0.000001
# 3 -0.000680 -0.000680 0.005735 0.000000 0.000000 0.000000
# 4 0.000000 0.000000 0.000000 -0.132796 0.000020 0.000000
# 5 0.000000 0.000000 0.000000 0.000020 -0.132877 0.000000
# 6 0.000001 -0.000001 0.000000 0.000000 0.000000 0.041602
#
#
# Mechanical properties :
#
#
# Convention : Reuss Voigt Hill
#
# Bulk Modulus (GPa) = 62.43166 63.23022 62.83094
# Shear Modulus (GPa) = -29.64308 21.28754 -4.17777
#
# Velocity S-wave (km/s) = -3.53844 2.99856 -1.32838
# Velocity P-wave (km/s) = 3.11057 6.22057 4.91788
#
# Compressibility (1/GPa) = 0.01601751
#
# Stress axis : x y z
#
# Youngs Moduli (GPa) = 73.25310 73.25254 174.36981
#
# Poissons Ratio (x) = 0.52374 0.11858
# Poissons Ratio (y) = 0.52375 0.11860
# Poissons Ratio (z) = 0.04982 0.04982
#
# Static dielectric constant tensor:
#      x y z
#    x 2.067540 -0.000010 0.000000 
#    y -0.000010 2.067530 0.000000 
#    z 0.000000 0.000000 1.976940 
# 
# From -- ./inp_files/1630.got.cif
#   From: 2010.05.17/outbox.cif.g08.bks.cpg/sg175_1_cif.got.tgz:1630.got - 2010.05.20 11:23:22.
