data_PCOD9581607
_publ_section_title
;
Structure prediction by ZEFSAII (Michael W. Deem and Ramdas Pophale) SiO2 
 PCOD9581607
Probable space group: P 6/M
;
_chemical_formula_sum "Si O2"
_cell_formula_units_Z 42
_cell_length_a 9.787769
_cell_length_b 9.787769
_cell_length_c 20.596577
_cell_angle_alpha 90.000000
_cell_angle_beta 90.000000
_cell_angle_gamma 120.000000
_cell_volume 1708.807351
_symmetry_space_group_name_H-M "P 6/M"
_symmetry_group_IT_number 175
_symmetry_cell_setting 'hexagonal'
loop_
_space_group_symop_operation_xyz
x,y,z
x-y,x,z
-y,x-y,z
-x,-y,z
-x+y,-x,z
y,-x+y,z
-x,-y,-z
-x+y,-x,-z
y,-x+y,-z
x,y,-z
x-y,x,-z
-y,x-y,-z
loop_
_atom_site_type_symbol
_atom_site_label
_atom_site_fract_x
_atom_site_fract_y
_atom_site_fract_z
Si Si1 0.000000 0.500000 0.819202
Si Si2 0.368956 0.259591 0.430850
Si Si3 0.736206 0.101574 0.290674
Si Si4 0.900763 0.264191 0.928666
O O1 0.891742 0.532422 0.770243
O O2 0.891731 0.360012 0.868381
O O3 0.226304 0.297603 0.430843
O O4 0.456297 0.321253 0.500000
O O5 0.450201 0.319906 0.361080
O O6 0.921968 0.220809 0.287480
O O7 0.079261 0.297994 0.924845
O O8 0.877777 0.318106 0.000000
#
# Coordination Sequence:
#
# PCOD9581607 Si02
#       4
#     6  12  12  12
#     4  12  23  36  53  88 130 158 190 230 287 356
#     4   8  13  24  48  81 113 144 188 250 310 356
#     4  10  21  39  61  87 118 159 207 253 303 356
#     4  10  22  44  72  98 120 149 194 246 298 352
#
# _framework density 24.578544999999998
#
# number of rings (size 3 to 8) (size 9 to 14) (size 15 to 20)
#    0.000    2.286    0.000    3.000    0.000    4.571 
#   13.714    3.571    0.000    0.000    0.000    0.000 
#    0.000    0.000    0.000    0.000    0.000    0.000 
#
# Total GULP energy -234858.325945 kJ/mol
# GULP energy per Si atom -5591.864903 kJ/mol
# Density = 2.452260 g / cm^3
# Si number density = 24.578545 Si / 1000 Ang^3
#
#
#
# Elastic Constant Matrix: (Units=GPa)
#
#
# Indices 1 2 3 4 5 6 
#
# 1 69.8218 23.5320 60.8760 0.0000 0.0000 0.0000
# 2 23.5320 69.8218 60.8760 0.0000 0.0000 0.0000
# 3 60.8760 60.8760 300.1475 0.0000 0.0000 0.0000
# 4 0.0000 0.0000 0.0000 324.4714 0.0000 0.0000
# 5 0.0000 0.0000 0.0000 0.0000 324.4714 0.0000
# 6 0.0000 0.0000 0.0000 0.0000 0.0000 23.1449
#
#
#
# Elastic Compliance Matrix: (Units=1/GPa)
#
#
# Indices 1 2 3 4 5 6 
#
# 1 0.018084 -0.003519 -0.002954 0.000000 0.000000 0.000000
# 2 -0.003519 0.018084 -0.002954 0.000000 0.000000 0.000000
# 3 -0.002954 -0.002954 0.004530 0.000000 0.000000 0.000000
# 4 0.000000 0.000000 0.000000 0.003082 0.000000 0.000000
# 5 0.000000 0.000000 0.000000 0.000000 0.003082 0.000000
# 6 0.000000 0.000000 0.000000 0.000000 0.000000 0.043206
#
#
# Mechanical properties :
#
#
# Convention : Reuss Voigt Hill
#
# Bulk Modulus (GPa) = 45.78111 81.15101 63.46606
# Shear Modulus (GPa) = 43.02816 154.05135 98.53976
#
# Velocity S-wave (km/s) = 4.18860 7.92548 6.33868
# Velocity P-wave (km/s) = 6.48532 10.80924 8.91345
#
# Compressibility (1/GPa) = 0.02184307
#
# Stress axis : x y z
#
# Youngs Moduli (GPa) = 55.29815 55.29815 220.75306
#
# Poissons Ratio (x) = 0.19461 0.65210
# Poissons Ratio (y) = 0.19461 0.65210
# Poissons Ratio (z) = 0.16335 0.16335
#
# Static dielectric constant tensor:
#      x y z
#    x 1.933610 0.000000 0.000000 
#    y 0.000000 1.933610 0.000000 
#    z 0.000000 0.000000 2.014200 
# 
# From -- ./inp_files/3012.got.cif
#   From: 2010.05.17/outbox.cif.g08.bks.cpg/sg175_2_cif.got.tgz:3012.got - 2010.05.20 11:23:22.
