data_PCOD9581149
_publ_section_title
;
Structure prediction by ZEFSAII (Michael W. Deem and Ramdas Pophale) SiO2 
 PCOD9581149
Probable space group: P -6
;
_chemical_formula_sum "Si O2"
_cell_formula_units_Z 28
_cell_length_a 14.684877
_cell_length_b 14.684877
_cell_length_c 8.618739
_cell_angle_alpha 90.000000
_cell_angle_beta 90.000000
_cell_angle_gamma 120.000000
_cell_volume 1609.588970
_symmetry_space_group_name_H-M "P -6"
_symmetry_group_IT_number 174
_symmetry_cell_setting 'hexagonal'
loop_
_space_group_symop_operation_xyz
x,y,z
-x+y,-x,-z
-y,x-y,z
x,y,-z
-x+y,-x,z
-y,x-y,-z
loop_
_atom_site_type_symbol
_atom_site_label
_atom_site_fract_x
_atom_site_fract_y
_atom_site_fract_z
Si Si1 0.333333 0.666666 0.687943
Si Si2 0.304307 0.333334 0.183814
Si Si3 0.452894 0.551282 0.312660
Si Si4 0.666668 0.762820 0.687718
Si Si5 0.884614 0.119557 0.312661
Si Si6 0.000000 0.000000 0.312057
O O1 0.333334 0.666668 0.500000
O O2 0.216785 0.632753 0.736446
O O3 0.409269 0.437136 0.241451
O O4 0.199807 0.333334 0.249617
O O5 0.305467 0.229532 0.241453
O O6 0.298135 0.333333 0.000000
O O7 0.452331 0.542851 0.500000
O O8 0.564119 0.652104 0.268448
O O9 0.666668 0.771810 0.500000
O O10 0.769220 0.754657 0.731551
O O11 0.876184 0.118995 0.500000
O O12 0.917361 0.033908 0.263554
O O13 0.000000 0.000000 0.500000
#
# Coordination Sequence:
#
# PCOD9581149 Si02
#       6
#     2   6   6   6   6   2
#     4   9  15  27  55  83 106 135 175 227 268 312
#     4  12  24  34  50  81 118 151 178 215 276 340
#     4  10  19  35  56  80 108 143 187 228 269 318
#     4  10  20  36  60  83 104 141 190 235 274 314
#     4  10  19  35  56  80 108 143 187 228 269 318
#     4   9  15  27  55  83 106 135 175 227 268 312
#
# _framework density 17.395745000000002
#
# number of rings (size 3 to 8) (size 9 to 14) (size 15 to 20)
#    0.000    1.714    4.286    1.929    0.000    1.714 
#    0.000    0.000    0.000    0.857    0.000    3.000 
#    0.000    0.000    0.000    0.000    0.000    0.000 
#
# Total GULP energy -156100.161057 kJ/mol
# GULP energy per Si atom -5575.005752 kJ/mol
# Density = 1.735615 g / cm^3
# Si number density = 17.395745 Si / 1000 Ang^3
#
#
#
# Elastic Constant Matrix: (Units=GPa)
#
#
# Indices 1 2 3 4 5 6 
#
# 1 76.0913 18.9755 23.2735 0.0000 0.0000 0.0000
# 2 18.9755 76.0913 23.2734 0.0000 0.0000 0.0000
# 3 23.2735 23.2734 34.0133 0.0000 0.0000 0.0000
# 4 0.0000 0.0000 0.0000 4.3984 0.0000 0.0000
# 5 0.0000 0.0000 0.0000 0.0000 4.3984 0.0000
# 6 0.0000 0.0000 0.0000 0.0000 0.0000 28.5579
#
#
#
# Elastic Compliance Matrix: (Units=1/GPa)
#
#
# Indices 1 2 3 4 5 6 
#
# 1 0.016663 -0.000845 -0.010824 0.000000 0.000000 0.000000
# 2 -0.000845 0.016663 -0.010824 0.000000 0.000000 0.000000
# 3 -0.010824 -0.010824 0.044212 0.000000 0.000000 0.000000
# 4 0.000000 0.000000 0.000000 0.227356 0.000001 0.000000
# 5 0.000000 0.000000 0.000000 0.000001 0.227356 0.000000
# 6 0.000000 0.000000 0.000000 0.000000 0.000000 0.035017
#
#
# Mechanical properties :
#
#
# Convention : Reuss Voigt Hill
#
# Bulk Modulus (GPa) = 30.71774 35.24897 32.98335
# Shear Modulus (GPa) = 8.02434 15.51583 11.77008
#
# Velocity S-wave (km/s) = 2.15008 2.98976 2.60399
# Velocity P-wave (km/s) = 4.88470 5.67673 5.29554
#
# Compressibility (1/GPa) = 0.03255448
#
# Stress axis : x y z
#
# Youngs Moduli (GPa) = 60.01181 60.01193 22.61812
#
# Poissons Ratio (x) = 0.05071 0.24481
# Poissons Ratio (y) = 0.05071 0.24481
# Poissons Ratio (z) = 0.64955 0.64955
#
# Static dielectric constant tensor:
#      x y z
#    x 1.598370 0.000000 0.000000 
#    y 0.000000 1.598370 0.000000 
#    z 0.000000 0.000000 1.591910 
# 
# From -- ./inp_files/295.got.cif
#   From: 2010.05.17/outbox.cif.g08.bks.cpg/sg174_cif.got.tgz:295.got - 2010.05.20 11:22:48.
