data_PCOD9581358
_publ_section_title
;
Structure prediction by ZEFSAII (Michael W. Deem and Ramdas Pophale) SiO2 
 PCOD9581358
Probable space group: P 6/M
;
_chemical_formula_sum "Si O2"
_cell_formula_units_Z 66
_cell_length_a 15.216034
_cell_length_b 15.216034
_cell_length_c 20.565638
_cell_angle_alpha 90.000000
_cell_angle_beta 90.000000
_cell_angle_gamma 120.000000
_cell_volume 4123.592668
_symmetry_space_group_name_H-M "P 6/M"
_symmetry_group_IT_number 175
_symmetry_cell_setting 'hexagonal'
loop_
_space_group_symop_operation_xyz
x,y,z
x-y,x,z
-y,x-y,z
-x,-y,z
-x+y,-x,z
y,-x+y,z
-x,-y,-z
-x+y,-x,-z
y,-x+y,-z
x,y,-z
x-y,x,-z
-y,x-y,-z
loop_
_atom_site_type_symbol
_atom_site_label
_atom_site_fract_x
_atom_site_fract_y
_atom_site_fract_z
Si Si1 0.757924 0.878977 0.069654
Si Si2 0.119008 0.881149 0.577968
Si Si3 0.245430 0.122700 0.214664
Si Si4 0.799688 0.399894 0.500000
Si Si5 0.440925 0.881850 0.644493
Si Si6 0.209191 0.418429 0.676075
O O1 0.828199 0.828213 0.069185
O O2 0.709094 0.854565 0.141061
O O3 0.700119 0.850078 0.000000
O O4 0.124385 0.875783 0.500000
O O5 0.173130 0.827080 0.612592
O O6 0.000077 0.824946 0.596427
O O7 0.176233 0.176220 0.222467
O O8 0.337306 0.168639 0.265584
O O9 0.721428 0.442936 0.500000
O O10 0.859780 0.429952 0.566917
O O11 0.507437 0.836830 0.673882
O O12 0.329436 0.836812 0.673958
O O13 0.500000 0.000000 0.655480
#
# Coordination Sequence:
#
# PCOD9581358 Si02
#       6
#    12  12  12   6  12  12
#     4   8  13  22  40  70 108 146 175 196 224 272
#     4  10  21  36  54  76 104 133 161 193 238 303
#     4  10  19  32  52  80 114 145 171 199 237 295
#     4  10  19  40  56  72  92 118 152 214 257 306
#     4  12  24  38  56  71  93 126 160 209 269 305
#     4  12  24  40  51  74  97 125 171 218 257 309
#
# _framework density 16.005459999999999
#
# number of rings (size 3 to 8) (size 9 to 14) (size 15 to 20)
#    0.182    1.455    1.818    4.455    2.545    2.909 
#    0.000    1.818    0.000    0.000    0.000    1.273 
#    0.000    7.273    0.000    0.000    0.000    0.000 
#
# Total GULP energy -367965.841112 kJ/mol
# GULP energy per Si atom -5575.240017 kJ/mol
# Density = 1.596903 g / cm^3
# Si number density = 16.005460 Si / 1000 Ang^3
#
#
#
# Elastic Constant Matrix: (Units=GPa)
#
#
# Indices 1 2 3 4 5 6 
#
# 1 128.4622 62.4038 45.8036 0.0000 0.0000 0.0000
# 2 62.4038 128.4622 45.8036 0.0000 0.0000 0.0000
# 3 45.8036 45.8036 98.5135 0.0000 0.0000 0.0000
# 4 0.0000 0.0000 0.0000 -6.5685 0.0000 0.0000
# 5 0.0000 0.0000 0.0000 0.0000 -6.5685 0.0000
# 6 0.0000 0.0000 0.0000 0.0000 0.0000 33.0292
#
#
#
# Elastic Compliance Matrix: (Units=1/GPa)
#
#
# Indices 1 2 3 4 5 6 
#
# 1 0.010941 -0.004197 -0.003136 0.000000 0.000000 0.000000
# 2 -0.004197 0.010941 -0.003136 0.000000 0.000000 0.000000
# 3 -0.003136 -0.003136 0.013067 0.000000 0.000000 0.000000
# 4 0.000000 0.000000 0.000000 -0.152241 0.000000 0.000000
# 5 0.000000 0.000000 0.000000 0.000000 -0.152241 0.000000
# 6 0.000000 0.000000 0.000000 0.000000 0.000000 0.030276
#
#
# Mechanical properties :
#
#
# Convention : Reuss Voigt Hill
#
# Bulk Modulus (GPa) = 71.36526 73.71778 72.54152
# Shear Modulus (GPa) = -23.40283 17.40691 -2.99796
#
# Velocity S-wave (km/s) = -3.82799 3.30140 -1.37009
# Velocity P-wave (km/s) = 5.01466 7.79039 6.55122
#
# Compressibility (1/GPa) = 0.01401242
#
# Stress axis : x y z
#
# Youngs Moduli (GPa) = 91.39767 91.39767 76.52984
#
# Poissons Ratio (x) = 0.38359 0.23998
# Poissons Ratio (y) = 0.38359 0.23998
# Poissons Ratio (z) = 0.28660 0.28660
#
# Static dielectric constant tensor:
#      x y z
#    x 1.515860 0.000000 0.000000 
#    y 0.000000 1.515860 0.000000 
#    z 0.000000 0.000000 1.603080 
# 
# From -- ./inp_files/3112.got.cif
#   From: 2010.05.17/outbox.cif.g08.bks.cpg/sg175_2_cif.got.tgz:3112.got - 2010.05.20 11:23:22.
