data_PCOD9581443
_publ_section_title
;
Structure prediction by ZEFSAII (Michael W. Deem and Ramdas Pophale) SiO2 
 PCOD9581443
Probable space group: P 6/M
;
_chemical_formula_sum "Si O2"
_cell_formula_units_Z 78
_cell_length_a 25.869422
_cell_length_b 25.869422
_cell_length_c 7.672486
_cell_angle_alpha 90.000000
_cell_angle_beta 90.000000
_cell_angle_gamma 120.000000
_cell_volume 4446.724130
_symmetry_space_group_name_H-M "P 6/M"
_symmetry_group_IT_number 175
_symmetry_cell_setting 'hexagonal'
loop_
_space_group_symop_operation_xyz
x,y,z
x-y,x,z
-y,x-y,z
-x,-y,z
-x+y,-x,z
y,-x+y,z
-x,-y,-z
-x+y,-x,-z
y,-x+y,-z
x,y,-z
x-y,x,-z
-y,x-y,-z
loop_
_atom_site_type_symbol
_atom_site_label
_atom_site_fract_x
_atom_site_fract_y
_atom_site_fract_z
Si Si1 0.353418 0.939714 0.786439
Si Si2 0.531474 0.459146 0.205980
Si Si3 0.022593 0.888429 0.500000
Si Si4 0.892768 0.228140 0.302016
Si Si5 0.200955 0.209125 0.198545
Si Si6 0.780062 0.104846 0.788937
Si Si7 0.077609 0.645537 0.210009
O O1 0.394591 0.912521 0.724617
O O2 0.285401 0.910054 0.729210
O O3 0.387832 0.009202 0.734196
O O4 0.353642 0.938762 0.000000
O O5 0.500000 0.500000 0.218461
O O6 0.598099 0.501679 0.276844
O O7 0.537476 0.450743 0.000000
O O8 0.957069 0.881959 0.500000
O O9 0.027137 0.853366 0.330927
O O10 0.912938 0.233551 0.500000
O O11 0.830871 0.168143 0.275817
O O12 0.887052 0.285628 0.258908
O O13 0.942916 0.222396 0.195350
O O14 0.258533 0.205458 0.261112
O O15 0.185566 0.186174 0.000000
O O16 0.779761 0.105127 0.000000
O O17 0.076953 0.642002 0.000000
#
# Coordination Sequence:
#
# PCOD9581443 Si02
#       7
#    12  12   6  12  12  12  12
#     4   8  13  25  45  72  98 125 163 203 245 297
#     4   7  11  20  42  70  96 125 158 196 236 286
#     4  12  27  46  66  86 106 133 174 228 282 336
#     4  12  23  33  49  74 106 140 177 219 264 317
#     4  11  23  41  61  82 108 141 178 216 272 343
#     4  10  20  33  53  76 103 137 175 219 266 321
#     4   9  15  28  47  70  99 131 166 200 244 300
#
# _framework density 17.541001999999999
#
# number of rings (size 3 to 8) (size 9 to 14) (size 15 to 20)
#    0.000    2.308    2.308    4.231    1.077    1.846 
#    0.000    0.000    0.000    6.000    0.000    0.000 
#    1.538    0.000    2.769    0.000    0.923    0.000 
#
# Total GULP energy -434908.818039 kJ/mol
# GULP energy per Si atom -5575.754077 kJ/mol
# Density = 1.750108 g / cm^3
# Si number density = 17.541002 Si / 1000 Ang^3
#
#
#
# Elastic Constant Matrix: (Units=GPa)
#
#
# Indices 1 2 3 4 5 6 
#
# 1 50.3316 1.2033 5.8243 0.0000 0.0000 0.0000
# 2 1.2033 50.3316 5.8243 0.0000 0.0000 0.0000
# 3 5.8243 5.8243 48.7106 0.0000 0.0000 0.0000
# 4 0.0000 0.0000 0.0000 123.2111 0.0000 0.0000
# 5 0.0000 0.0000 0.0000 0.0000 123.2111 0.0000
# 6 0.0000 0.0000 0.0000 0.0000 0.0000 24.5642
#
#
#
# Elastic Compliance Matrix: (Units=1/GPa)
#
#
# Indices 1 2 3 4 5 6 
#
# 1 0.020149 -0.000206 -0.002385 0.000000 0.000000 0.000000
# 2 -0.000206 0.020149 -0.002385 0.000000 0.000000 0.000000
# 3 -0.002385 -0.002385 0.021100 0.000000 0.000000 0.000000
# 4 0.000000 0.000000 0.000000 0.008116 0.000000 0.000000
# 5 0.000000 0.000000 0.000000 0.000000 0.008116 0.000000
# 6 0.000000 0.000000 0.000000 0.000000 0.000000 0.040710
#
#
# Mechanical properties :
#
#
# Convention : Reuss Voigt Hill
#
# Bulk Modulus (GPa) = 19.43716 19.45308 19.44512
# Shear Modulus (GPa) = 34.37865 63.29872 48.83869
#
# Velocity S-wave (km/s) = 4.43188 6.01369 5.28233
# Velocity P-wave (km/s) = 6.10687 7.70282 6.95080
#
# Compressibility (1/GPa) = 0.05144784
#
# Stress axis : x y z
#
# Youngs Moduli (GPa) = 49.63004 49.63004 47.39416
#
# Poissons Ratio (x) = 0.01021 0.11302
# Poissons Ratio (y) = 0.01021 0.11302
# Poissons Ratio (z) = 0.11835 0.11835
#
# Static dielectric constant tensor:
#      x y z
#    x 1.601580 0.000000 0.000000 
#    y 0.000000 1.601580 0.000000 
#    z 0.000000 0.000000 1.630470 
# 
# From -- ./inp_files/1287.got.cif
#   From: 2010.05.17/outbox.cif.g08.bks.cpg/sg175_1_cif.got.tgz:1287.got - 2010.05.20 11:23:22.
