data_PCOD9581494
_publ_section_title
;
Structure prediction by ZEFSAII (Michael W. Deem and Ramdas Pophale) SiO2 
 PCOD9581494
Probable space group: P 6/M
;
_chemical_formula_sum "Si O2"
_cell_formula_units_Z 66
_cell_length_a 18.786086
_cell_length_b 18.786086
_cell_length_c 10.710763
_cell_angle_alpha 90.000000
_cell_angle_beta 90.000000
_cell_angle_gamma 120.000000
_cell_volume 3273.585238
_symmetry_space_group_name_H-M "P 6/M"
_symmetry_group_IT_number 175
_symmetry_cell_setting 'hexagonal'
loop_
_space_group_symop_operation_xyz
x,y,z
x-y,x,z
-y,x-y,z
-x,-y,z
-x+y,-x,z
y,-x+y,z
-x,-y,-z
-x+y,-x,-z
y,-x+y,-z
x,y,-z
x-y,x,-z
-y,x-y,-z
loop_
_atom_site_type_symbol
_atom_site_label
_atom_site_fract_x
_atom_site_fract_y
_atom_site_fract_z
Si Si1 0.401407 0.111113 0.148779
Si Si2 0.268810 0.232745 0.869692
Si Si3 0.153031 0.448121 0.198815
Si Si4 0.587721 0.005711 0.358876
Si Si5 0.232664 0.581975 0.000000
Si Si6 0.809936 0.867872 0.633888
O O1 0.436004 0.203401 0.200145
O O2 0.301811 0.059012 0.145206
O O3 0.419259 0.058378 0.251041
O O4 0.424063 0.110845 0.000000
O O5 0.367367 0.280711 0.874698
O O6 0.246184 0.177672 0.749281
O O7 0.234864 0.187288 0.000000
O O8 0.098879 0.442405 0.318887
O O9 0.181800 0.531401 0.120370
O O10 0.605563 0.987220 0.500000
O O11 0.500000 0.000000 0.361432
O O12 0.321334 0.585478 0.000000
O O13 0.882785 0.847296 0.639310
O O14 0.766549 0.838012 0.500000
#
# Coordination Sequence:
#
# PCOD9581494 Si02
#       6
#    12  12  12  12   6  12
#     4  10  21  37  64  93 122 162 211 268 330 386
#     4  10  20  36  57  86 119 156 194 250 308 370
#     4  11  21  40  65  92 129 162 209 266 327 385
#     4  10  25  43  62  91 130 174 218 264 327 402
#     4  10  24  38  63 101 131 154 209 268 327 398
#     4  10  21  36  54  78 113 157 205 252 302 359
#
# _framework density 20.161380000000001
#
# number of rings (size 3 to 8) (size 9 to 14) (size 15 to 20)
#    0.182    1.636    1.818    1.273    3.818    6.909 
#    0.000    0.000    0.000    1.091    0.000    0.000 
#    0.000    0.000    0.000    0.000    0.000    0.000 
#
# Total GULP energy -367537.291502 kJ/mol
# GULP energy per Si atom -5568.746841 kJ/mol
# Density = 2.011549 g / cm^3
# Si number density = 20.161380 Si / 1000 Ang^3
#
#
#
# Elastic Constant Matrix: (Units=GPa)
#
#
# Indices 1 2 3 4 5 6 
#
# 1 73.4925 3.2572 49.4422 0.0000 0.0000 0.0000
# 2 3.2572 73.4925 49.4422 0.0000 0.0000 0.0000
# 3 49.4422 49.4422 164.1038 0.0000 0.0000 0.0000
# 4 0.0000 0.0000 0.0000 631.2107 0.0000 0.0000
# 5 0.0000 0.0000 0.0000 0.0000 631.2107 0.0000
# 6 0.0000 0.0000 0.0000 0.0000 0.0000 35.1176
#
#
#
# Elastic Compliance Matrix: (Units=1/GPa)
#
#
# Indices 1 2 3 4 5 6 
#
# 1 0.017767 0.003529 -0.006416 0.000000 0.000000 0.000000
# 2 0.003529 0.017767 -0.006416 0.000000 0.000000 0.000000
# 3 -0.006416 -0.006416 0.009960 0.000000 0.000000 0.000000
# 4 0.000000 0.000000 0.000000 0.001584 0.000000 0.000000
# 5 0.000000 0.000000 0.000000 0.000000 0.001584 0.000000
# 6 0.000000 0.000000 0.000000 0.000000 0.000000 0.028476
#
#
# Mechanical properties :
#
#
# Convention : Reuss Voigt Hill
#
# Bulk Modulus (GPa) = 37.19249 57.26354 47.22801
# Shear Modulus (GPa) = 47.75230 273.43760 160.59495
#
# Velocity S-wave (km/s) = 4.87201 11.65843 8.93463
# Velocity P-wave (km/s) = 7.08068 14.48066 11.39793
#
# Compressibility (1/GPa) = 0.02688715
#
# Stress axis : x y z
#
# Youngs Moduli (GPa) = 56.28438 56.28438 100.40246
#
# Poissons Ratio (x) = -0.19863 0.64420
# Poissons Ratio (y) = -0.19863 0.64420
# Poissons Ratio (z) = 0.36113 0.36113
#
# Static dielectric constant tensor:
#      x y z
#    x 1.733310 0.000000 0.000000 
#    y 0.000000 1.733310 0.000000 
#    z 0.000000 0.000000 1.760200 
# 
# From -- ./inp_files/981.got.cif
#   From: 2010.05.17/outbox.cif.g08.bks.cpg/sg175_1_cif.got.tgz:981.got - 2010.05.20 11:23:22.
