data_PCOD9581660
_publ_section_title
;
Structure prediction by ZEFSAII (Michael W. Deem and Ramdas Pophale) SiO2 
 PCOD9581660
Probable space group: P 6/M
;
_chemical_formula_sum "Si O2"
_cell_formula_units_Z 58
_cell_length_a 14.786753
_cell_length_b 14.786753
_cell_length_c 15.489466
_cell_angle_alpha 90.000000
_cell_angle_beta 90.000000
_cell_angle_gamma 120.000000
_cell_volume 2933.004398
_symmetry_space_group_name_H-M "P 6/M"
_symmetry_group_IT_number 175
_symmetry_cell_setting 'hexagonal'
loop_
_space_group_symop_operation_xyz
x,y,z
x-y,x,z
-y,x-y,z
-x,-y,z
-x+y,-x,z
y,-x+y,z
-x,-y,-z
-x+y,-x,-z
y,-x+y,-z
x,y,-z
x-y,x,-z
-y,x-y,-z
loop_
_atom_site_type_symbol
_atom_site_label
_atom_site_fract_x
_atom_site_fract_y
_atom_site_fract_z
Si Si1 0.106575 0.245871 0.000000
Si Si2 0.451140 0.130757 0.401035
Si Si3 0.995173 0.395720 0.234943
Si Si4 0.666667 0.333334 0.395315
Si Si5 0.657560 0.825129 0.813288
Si Si6 0.127310 0.239853 0.362545
O O1 0.168223 0.183686 0.000000
O O2 0.135697 0.309831 0.088698
O O3 0.462312 0.107244 0.500000
O O4 0.414433 0.033719 0.336630
O O5 0.560334 0.228786 0.369599
O O6 0.358109 0.158251 0.395061
O O7 0.896725 0.292517 0.194262
O O8 0.000000 0.500000 0.203527
O O9 0.103391 0.398475 0.216979
O O10 0.666667 0.333334 0.500000
O O11 0.750042 0.880600 0.742140
O O12 0.183486 0.175651 0.389926
#
# Coordination Sequence:
#
# PCOD9581660 Si02
#       6
#     6  12  12   4  12  12
#     4  12  21  38  70 102 138 166 214 269 332 404
#     4  10  23  40  64  93 129 169 220 277 331 390
#     4  11  25  44  67  97 133 179 223 272 335 397
#     4   9  21  39  60  96 126 157 218 286 339 390
#     4  11  22  43  64 101 131 169 220 272 332 394
#     4  11  21  39  59  87 127 169 216 263 327 392
#
# _framework density 19.774944000000001
#
# number of rings (size 3 to 8) (size 9 to 14) (size 15 to 20)
#    0.000    1.241    6.207    0.310    5.793    1.241 
#    1.241    4.138    0.000    1.241    0.000    0.000 
#    0.000    0.000    0.000    0.000    0.000    0.000 
#
# Total GULP energy -323788.911681 kJ/mol
# GULP energy per Si atom -5582.567443 kJ/mol
# Density = 1.972994 g / cm^3
# Si number density = 19.774944 Si / 1000 Ang^3
#
#
#
# Elastic Constant Matrix: (Units=GPa)
#
#
# Indices 1 2 3 4 5 6 
#
# 1 137.2245 27.7828 13.3131 0.0000 0.0000 0.0003
# 2 27.7828 137.2218 13.3132 0.0000 0.0000 0.0003
# 3 13.3131 13.3132 101.9850 0.0000 0.0000 0.0000
# 4 0.0000 0.0000 0.0000 -37.3622 -0.0006 0.0000
# 5 0.0000 0.0000 0.0000 -0.0006 -37.3637 0.0000
# 6 0.0003 0.0003 0.0000 0.0000 0.0000 54.7195
#
#
#
# Elastic Compliance Matrix: (Units=1/GPa)
#
#
# Indices 1 2 3 4 5 6 
#
# 1 0.007664 -0.001473 -0.000808 0.000000 0.000000 0.000000
# 2 -0.001473 0.007664 -0.000808 0.000000 0.000000 0.000000
# 3 -0.000808 -0.000808 0.010016 0.000000 0.000000 0.000000
# 4 0.000000 0.000000 0.000000 -0.026765 0.000000 0.000000
# 5 0.000000 0.000000 0.000000 0.000000 -0.026764 0.000000
# 6 0.000000 0.000000 0.000000 0.000000 0.000000 0.018275
#
#
# Mechanical properties :
#
#
# Convention : Reuss Voigt Hill
#
# Bulk Modulus (GPa) = 52.17749 53.91661 53.04705
# Shear Modulus (GPa) = 1880.91800 17.46686 949.19243
#
# Velocity S-wave (km/s) = 30.87438 2.97523 21.93261
# Velocity P-wave (km/s) = 36.01961 6.25516 25.85091
#
# Compressibility (1/GPa) = 0.01916535
#
# Stress axis : x y z
#
# Youngs Moduli (GPa) = 130.47982 130.47719 99.83666
#
# Poissons Ratio (x) = 0.19223 0.08068
# Poissons Ratio (y) = 0.19224 0.08068
# Poissons Ratio (z) = 0.10545 0.10545
#
# Static dielectric constant tensor:
#      x y z
#    x 1.712380 0.000000 0.000000 
#    y 0.000000 1.712380 0.000000 
#    z 0.000000 0.000000 1.727160 
# 
# From -- ./inp_files/2416.got.cif
#   From: 2010.05.17/outbox.cif.g08.bks.cpg/sg175_2_cif.got.tgz:2416.got - 2010.05.20 11:23:22.
