data_PCOD9581656
_publ_section_title
;
Structure prediction by ZEFSAII (Michael W. Deem and Ramdas Pophale) SiO2 
 PCOD9581656
Probable space group: P 6/M
;
_chemical_formula_sum "Si O2"
_cell_formula_units_Z 70
_cell_length_a 14.868335
_cell_length_b 14.868335
_cell_length_c 16.332723
_cell_angle_alpha 90.000000
_cell_angle_beta 90.000000
_cell_angle_gamma 120.000000
_cell_volume 3126.899360
_symmetry_space_group_name_H-M "P 6/M"
_symmetry_group_IT_number 175
_symmetry_cell_setting 'hexagonal'
loop_
_space_group_symop_operation_xyz
x,y,z
x-y,x,z
-y,x-y,z
-x,-y,z
-x+y,-x,z
y,-x+y,z
-x,-y,-z
-x+y,-x,-z
y,-x+y,-z
x,y,-z
x-y,x,-z
-y,x-y,-z
loop_
_atom_site_type_symbol
_atom_site_label
_atom_site_fract_x
_atom_site_fract_y
_atom_site_fract_z
Si Si1 0.837437 0.366622 0.230376
Si Si2 0.947281 0.764581 0.402334
Si Si3 0.090181 0.428601 0.000000
Si Si4 0.268410 0.842533 0.712943
Si Si5 0.871156 0.109524 0.175994
Si Si6 0.000000 0.500000 0.134087
Si Si7 0.311435 0.112996 0.000000
Si Si8 0.666668 0.333335 0.897557
O O1 0.799074 0.281968 0.300944
O O2 0.855721 0.476151 0.265133
O O3 0.758486 0.327137 0.152806
O O4 0.945856 0.397081 0.188573
O O5 0.858719 0.795405 0.382941
O O6 0.944644 0.748704 0.500000
O O7 0.913578 0.656730 0.355161
O O8 0.081121 0.489528 0.076920
O O9 0.189873 0.415530 0.000000
O O10 0.984806 0.314621 0.000000
O O11 0.205330 0.853236 0.789200
O O12 0.990492 0.171570 0.202239
O O13 0.882497 0.133750 0.079560
O O14 0.666667 0.333334 0.000000
#
# Coordination Sequence:
#
# PCOD9581656 Si02
#       8
#    12  12   6  12  12   6   6   4
#     4  10  24  41  60  86 125 163 218 279 339 387
#     4  10  22  43  74 113 149 180 214 260 323 398
#     4  11  24  38  56  77 116 154 220 273 346 395
#     4  11  24  44  68  92 130 176 220 278 342 398
#     4  12  24  40  60  90 126 174 224 277 345 411
#     4  11  24  38  54  90 105 158 212 280 333 388
#     4  12  22  40  55  82 120 168 208 283 326 408
#     4   9  21  42  57  78 106 167 211 279 342 393
#
# _framework density 22.386392000000001
#
# number of rings (size 3 to 8) (size 9 to 14) (size 15 to 20)
#    0.000    1.200    1.714    3.771    7.200    2.057 
#    6.171    3.429    0.000    4.800    0.000    0.000 
#    0.000    0.000    0.000    0.000    0.000    0.000 
#
# Total GULP energy -390746.373449 kJ/mol
# GULP energy per Si atom -5582.091049 kJ/mol
# Density = 2.233544 g / cm^3
# Si number density = 22.386392 Si / 1000 Ang^3
#
#
#
# Elastic Constant Matrix: (Units=GPa)
#
#
# Indices 1 2 3 4 5 6 
#
# 1 94.1465 9.4675 1.7345 0.0000 0.0000 0.0000
# 2 9.4675 94.1474 1.7346 0.0000 0.0000 0.0000
# 3 1.7345 1.7346 74.0641 0.0000 0.0000 0.0000
# 4 0.0000 0.0000 0.0000 23.4673 -0.0001 0.0000
# 5 0.0000 0.0000 0.0000 -0.0001 23.4674 0.0000
# 6 0.0000 0.0000 0.0000 0.0000 0.0000 42.3396
#
#
#
# Elastic Compliance Matrix: (Units=1/GPa)
#
#
# Indices 1 2 3 4 5 6 
#
# 1 0.010734 -0.001075 -0.000226 0.000000 0.000000 0.000000
# 2 -0.001075 0.010734 -0.000226 0.000000 0.000000 0.000000
# 3 -0.000226 -0.000226 0.013512 0.000000 0.000000 0.000000
# 4 0.000000 0.000000 0.000000 0.042612 0.000000 0.000000
# 5 0.000000 0.000000 0.000000 0.000000 0.042612 0.000000
# 6 0.000000 0.000000 0.000000 0.000000 0.000000 0.023619
#
#
# Mechanical properties :
#
#
# Convention : Reuss Voigt Hill
#
# Bulk Modulus (GPa) = 31.32334 32.02569 31.67452
# Shear Modulus (GPa) = 31.74186 34.48295 33.11241
#
# Velocity S-wave (km/s) = 3.76960 3.92899 3.85012
# Velocity P-wave (km/s) = 5.74186 5.90928 5.82617
#
# Compressibility (1/GPa) = 0.03192507
#
# Stress axis : x y z
#
# Youngs Moduli (GPa) = 93.16160 93.16244 74.00601
#
# Poissons Ratio (x) = 0.10017 0.01674
# Poissons Ratio (y) = 0.10017 0.01674
# Poissons Ratio (z) = 0.02107 0.02107
#
# Static dielectric constant tensor:
#      x y z
#    x 1.893710 0.000000 0.000000 
#    y 0.000000 1.893710 0.000000 
#    z 0.000000 0.000000 1.845240 
# 
# From -- ./inp_files/2918.got.cif
#   From: 2010.05.17/outbox.cif.g08.bks.cpg/sg175_2_cif.got.tgz:2918.got - 2010.05.20 11:23:22.
