data_PCOD9581515
_publ_section_title
;
Structure prediction by ZEFSAII (Michael W. Deem and Ramdas Pophale) SiO2 
 PCOD9581515
Probable space group: P 6/M
;
_chemical_formula_sum "Si O2"
_cell_formula_units_Z 84
_cell_length_a 18.384134
_cell_length_b 18.384134
_cell_length_c 14.227201
_cell_angle_alpha 90.000000
_cell_angle_beta 90.000000
_cell_angle_gamma 120.000000
_cell_volume 4164.246723
_symmetry_space_group_name_H-M "P 6/M"
_symmetry_group_IT_number 175
_symmetry_cell_setting 'hexagonal'
loop_
_space_group_symop_operation_xyz
x,y,z
x-y,x,z
-y,x-y,z
-x,-y,z
-x+y,-x,z
y,-x+y,z
-x,-y,-z
-x+y,-x,-z
y,-x+y,-z
x,y,-z
x-y,x,-z
-y,x-y,-z
loop_
_atom_site_type_symbol
_atom_site_label
_atom_site_fract_x
_atom_site_fract_y
_atom_site_fract_z
Si Si1 0.900185 0.243041 0.749940
Si Si2 0.463382 0.600844 0.606936
Si Si3 0.033467 0.844753 0.609530
Si Si4 0.117956 0.356927 0.111663
Si Si5 0.984608 0.828782 0.113445
Si Si6 0.523542 0.791425 0.606345
Si Si7 0.030084 0.436798 0.783404
O O1 0.952354 0.210035 0.688432
O O2 0.845109 0.191753 0.840510
O O3 0.826190 0.227021 0.677539
O O4 0.953826 0.342424 0.769392
O O5 0.486856 0.592223 0.500000
O O6 0.470010 0.691320 0.614282
O O7 0.367002 0.531778 0.623284
O O8 0.523936 0.595800 0.683180
O O9 0.038178 0.820332 0.500000
O O10 0.941492 0.834482 0.620622
O O11 0.035536 0.265245 0.130768
O O12 0.098020 0.425519 0.155212
O O13 0.130644 0.367124 0.000000
O O14 0.906256 0.836395 0.148732
O O15 0.987358 0.836592 0.000000
O O16 0.555898 0.811379 0.500000
O O17 0.000000 0.500000 0.823154
#
# Coordination Sequence:
#
# PCOD9581515 Si02
#       7
#    12  12  12  12  12  12  12
#     4  12  23  40  64  93 129 169 218 263 328 390
#     4  10  21  39  65 100 137 172 210 257 320 392
#     4  10  22  40  63  93 133 181 228 270 313 374
#     4  11  25  45  65  86 121 169 220 276 331 384
#     4   9  17  32  57  88 119 153 198 256 319 375
#     4  10  20  37  64  96 132 171 209 254 316 394
#     4  12  25  42  67  99 130 167 209 268 331 394
#
# _framework density 20.171714999999999
#
# number of rings (size 3 to 8) (size 9 to 14) (size 15 to 20)
#    0.000    1.429    2.857    2.714    0.000    5.714 
#    0.000    0.000    0.000    1.714    0.000    0.000 
#    0.000    0.000    0.000    0.000    0.000    0.000 
#
# Total GULP energy -469196.328209 kJ/mol
# GULP energy per Si atom -5585.670574 kJ/mol
# Density = 2.012580 g / cm^3
# Si number density = 20.171715 Si / 1000 Ang^3
#
#
#
# Elastic Constant Matrix: (Units=GPa)
#
#
# Indices 1 2 3 4 5 6 
#
# 1 91.5523 28.9000 43.0815 0.0000 0.0000 0.0000
# 2 28.9000 91.5523 43.0815 0.0000 0.0000 0.0000
# 3 43.0815 43.0815 122.1712 0.0000 0.0000 0.0000
# 4 0.0000 0.0000 0.0000 27.0413 0.0000 0.0000
# 5 0.0000 0.0000 0.0000 0.0000 27.0413 0.0000
# 6 0.0000 0.0000 0.0000 0.0000 0.0000 31.3261
#
#
#
# Elastic Compliance Matrix: (Units=1/GPa)
#
#
# Indices 1 2 3 4 5 6 
#
# 1 0.013532 -0.002429 -0.003915 0.000000 0.000000 0.000000
# 2 -0.002429 0.013532 -0.003915 0.000000 0.000000 0.000000
# 3 -0.003915 -0.003915 0.010946 0.000000 0.000000 0.000000
# 4 0.000000 0.000000 0.000000 0.036980 0.000000 0.000000
# 5 0.000000 0.000000 0.000000 0.000000 0.036980 0.000000
# 6 0.000000 0.000000 0.000000 0.000000 0.000000 0.031922
#
#
# Mechanical properties :
#
#
# Convention : Reuss Voigt Hill
#
# Bulk Modulus (GPa) = 57.17173 59.48908 58.33041
# Shear Modulus (GPa) = 29.36980 29.76259 29.56620
#
# Velocity S-wave (km/s) = 3.81988 3.84534 3.83263
# Velocity P-wave (km/s) = 6.91805 7.01932 6.96887
#
# Compressibility (1/GPa) = 0.01749116
#
# Stress axis : x y z
#
# Youngs Moduli (GPa) = 73.89947 73.89947 91.35378
#
# Poissons Ratio (x) = 0.17952 0.35766
# Poissons Ratio (y) = 0.17952 0.35766
# Poissons Ratio (z) = 0.28933 0.28933
#
# Static dielectric constant tensor:
#      x y z
#    x 1.722370 0.000000 0.000000 
#    y 0.000000 1.722370 0.000000 
#    z 0.000000 0.000000 1.732290 
# 
# From -- ./inp_files/2611.got.cif
#   From: 2010.05.17/outbox.cif.g08.bks.cpg/sg175_2_cif.got.tgz:2611.got - 2010.05.20 11:23:22.
