data_PCOD9581579
_publ_section_title
;
Structure prediction by ZEFSAII (Michael W. Deem and Ramdas Pophale) SiO2 
 PCOD9581579
Probable space group: P 6/M
;
_chemical_formula_sum "Si O2"
_cell_formula_units_Z 60
_cell_length_a 19.451111
_cell_length_b 19.451111
_cell_length_c 9.755489
_cell_angle_alpha 90.000000
_cell_angle_beta 90.000000
_cell_angle_gamma 120.000000
_cell_volume 3196.454300
_symmetry_space_group_name_H-M "P 6/M"
_symmetry_group_IT_number 175
_symmetry_cell_setting 'hexagonal'
loop_
_space_group_symop_operation_xyz
x,y,z
x-y,x,z
-y,x-y,z
-x,-y,z
-x+y,-x,z
y,-x+y,z
-x,-y,-z
-x+y,-x,-z
y,-x+y,-z
x,y,-z
x-y,x,-z
-y,x-y,-z
loop_
_atom_site_type_symbol
_atom_site_label
_atom_site_fract_x
_atom_site_fract_y
_atom_site_fract_z
Si Si1 0.845699 0.702465 0.750078
Si Si2 0.594172 0.925549 0.841229
Si Si3 0.932425 0.812299 0.000000
Si Si4 0.680015 0.080808 0.342362
Si Si5 0.186726 0.059130 0.500000
Si Si6 0.096514 0.557775 0.344783
O O1 0.762692 0.645751 0.823221
O O2 0.871854 0.645420 0.677259
O O3 0.839147 0.758466 0.634971
O O4 0.908755 0.757825 0.864635
O O5 0.510044 0.882919 0.762342
O O6 0.644932 0.009149 0.764341
O O7 0.582893 0.936195 0.000000
O O8 0.877463 0.852732 0.000000
O O9 0.662162 0.051153 0.500000
O O10 0.631457 0.127279 0.319188
O O11 0.150534 0.118163 0.500000
O O12 0.116765 0.588709 0.500000
O O13 0.000000 0.500000 0.338958
#
# Coordination Sequence:
#
# PCOD9581579 Si02
#       6
#    12  12   6  12   6  12
#     4  12  25  38  60  88 120 161 209 267 319 370
#     4  11  22  36  56  87 120 152 193 242 301 366
#     4  12  25  44  60  82 118 168 222 276 338 394
#     4  10  21  38  59  86 116 151 195 245 302 362
#     4  12  25  42  62  86 116 162 222 284 340 384
#     4   8  17  34  58  84 112 142 174 219 282 353
#
# _framework density 18.770799
#
# number of rings (size 3 to 8) (size 9 to 14) (size 15 to 20)
#    0.000    1.400    2.000    5.600    4.200    3.600 
#    0.000    2.000    0.000    0.800    0.000    0.000 
#    0.000    0.000    0.000    0.000    0.000    0.000 
#
# Total GULP energy -335052.734526 kJ/mol
# GULP energy per Si atom -5584.212242 kJ/mol
# Density = 1.872808 g / cm^3
# Si number density = 18.770799 Si / 1000 Ang^3
#
#
#
# Elastic Constant Matrix: (Units=GPa)
#
#
# Indices 1 2 3 4 5 6 
#
# 1 72.8897 15.0434 31.0914 0.0000 0.0000 0.0000
# 2 15.0434 72.8897 31.0914 0.0000 0.0000 0.0000
# 3 31.0914 31.0914 121.7092 0.0000 0.0000 0.0000
# 4 0.0000 0.0000 0.0000 25.2889 0.0000 0.0000
# 5 0.0000 0.0000 0.0000 0.0000 25.2889 0.0000
# 6 0.0000 0.0000 0.0000 0.0000 0.0000 28.9231
#
#
#
# Elastic Compliance Matrix: (Units=1/GPa)
#
#
# Indices 1 2 3 4 5 6 
#
# 1 0.015583 -0.001704 -0.003546 0.000000 0.000000 0.000000
# 2 -0.001704 0.015583 -0.003546 0.000000 0.000000 0.000000
# 3 -0.003546 -0.003546 0.010028 0.000000 0.000000 0.000000
# 4 0.000000 0.000000 0.000000 0.039543 0.000000 0.000000
# 5 0.000000 0.000000 0.000000 0.000000 0.039543 0.000000
# 6 0.000000 0.000000 0.000000 0.000000 0.000000 0.034574
#
#
# Mechanical properties :
#
#
# Convention : Reuss Voigt Hill
#
# Bulk Modulus (GPa) = 42.36480 46.88235 44.62357
# Shear Modulus (GPa) = 27.72948 28.58433 28.15690
#
# Velocity S-wave (km/s) = 3.84769 3.90655 3.87723
# Velocity P-wave (km/s) = 6.50832 6.73637 6.62332
#
# Compressibility (1/GPa) = 0.02360450
#
# Stress axis : x y z
#
# Youngs Moduli (GPa) = 64.17077 64.17077 99.72250
#
# Poissons Ratio (x) = 0.10933 0.35358
# Poissons Ratio (y) = 0.10933 0.35358
# Poissons Ratio (z) = 0.22753 0.22753
#
# Static dielectric constant tensor:
#      x y z
#    x 1.665800 0.000000 0.000000 
#    y 0.000000 1.665800 0.000000 
#    z 0.000000 0.000000 1.612830 
# 
# From -- ./inp_files/911.got.cif
#   From: 2010.05.17/outbox.cif.g08.bks.cpg/sg175_1_cif.got.tgz:911.got - 2010.05.20 11:23:22.
