data_PCOD9581602
_publ_section_title
;
Structure prediction by ZEFSAII (Michael W. Deem and Ramdas Pophale) SiO2 
 PCOD9581602
Probable space group: P 6/M
;
_chemical_formula_sum "Si O2"
_cell_formula_units_Z 66
_cell_length_a 15.955341
_cell_length_b 15.955341
_cell_length_c 16.734766
_cell_angle_alpha 90.000000
_cell_angle_beta 90.000000
_cell_angle_gamma 120.000000
_cell_volume 3689.457030
_symmetry_space_group_name_H-M "P 6/M"
_symmetry_group_IT_number 175
_symmetry_cell_setting 'hexagonal'
loop_
_space_group_symop_operation_xyz
x,y,z
x-y,x,z
-y,x-y,z
-x,-y,z
-x+y,-x,z
y,-x+y,z
-x,-y,-z
-x+y,-x,-z
y,-x+y,-z
x,y,-z
x-y,x,-z
-y,x-y,-z
loop_
_atom_site_type_symbol
_atom_site_label
_atom_site_fract_x
_atom_site_fract_y
_atom_site_fract_z
Si Si1 0.545172 0.429649 0.592385
Si Si2 0.104238 0.356161 0.345697
Si Si3 0.779228 0.835353 0.500000
Si Si4 0.640239 0.914110 0.237560
Si Si5 0.565078 0.219862 0.258119
Si Si6 0.830324 0.780243 0.908811
O O1 0.500000 0.500000 0.606698
O O2 0.572906 0.438710 0.500000
O O3 0.459021 0.323555 0.614362
O O4 0.633546 0.451116 0.650392
O O5 0.072629 0.282587 0.419769
O O6 0.188089 0.354183 0.293698
O O7 0.012694 0.328195 0.288086
O O8 0.867452 0.815603 0.500000
O O9 0.526680 0.866568 0.215796
O O10 0.702357 0.931818 0.158349
O O11 0.676550 0.248914 0.241578
O O12 0.814373 0.871360 0.899037
O O13 0.802362 0.743996 0.000000
#
# Coordination Sequence:
#
# PCOD9581602 Si02
#       6
#    12  12   6  12  12  12
#     4  11  22  35  55  83 113 150 202 256 303 346
#     4  12  22  36  56  81 108 156 197 240 291 345
#     4  12  25  38  51  72 112 154 202 240 279 340
#     4  12  22  37  61  84 116 153 196 241 296 365
#     4  10  22  38  55  83 114 152 198 245 302 346
#     4  10  21  38  63  96 127 155 190 246 310 369
#
# _framework density 17.888812000000001
#
# number of rings (size 3 to 8) (size 9 to 14) (size 15 to 20)
#    0.364    0.545    8.182    0.273    0.000    1.455 
#    1.636    0.000    0.000    1.091    0.000    3.818 
#    0.000    0.000    0.000    0.000    0.000    0.000 
#
# Total GULP energy -368144.929181 kJ/mol
# GULP energy per Si atom -5577.953472 kJ/mol
# Density = 1.784810 g / cm^3
# Si number density = 17.888812 Si / 1000 Ang^3
#
#
#
# Elastic Constant Matrix: (Units=GPa)
#
#
# Indices 1 2 3 4 5 6 
#
# 1 67.7066 15.6633 26.9484 0.0000 0.0000 0.0000
# 2 15.6633 67.7066 26.9484 0.0000 0.0000 0.0000
# 3 26.9484 26.9484 88.0420 0.0000 0.0000 0.0000
# 4 0.0000 0.0000 0.0000 25.8560 0.0000 0.0000
# 5 0.0000 0.0000 0.0000 0.0000 25.8560 0.0000
# 6 0.0000 0.0000 0.0000 0.0000 0.0000 26.0217
#
#
#
# Elastic Compliance Matrix: (Units=1/GPa)
#
#
# Indices 1 2 3 4 5 6 
#
# 1 0.017084 -0.002131 -0.004577 0.000000 0.000000 0.000000
# 2 -0.002131 0.017084 -0.004577 0.000000 0.000000 0.000000
# 3 -0.004577 -0.004577 0.014160 0.000000 0.000000 0.000000
# 4 0.000000 0.000000 0.000000 0.038676 0.000000 0.000000
# 5 0.000000 0.000000 0.000000 0.000000 0.038676 0.000000
# 6 0.000000 0.000000 0.000000 0.000000 0.000000 0.038430
#
#
# Mechanical properties :
#
#
# Convention : Reuss Voigt Hill
#
# Bulk Modulus (GPa) = 38.82108 40.28613 39.55361
# Shear Modulus (GPa) = 25.60613 25.80639 25.70626
#
# Velocity S-wave (km/s) = 3.78750 3.80228 3.79489
# Velocity P-wave (km/s) = 6.39338 6.46882 6.43121
#
# Compressibility (1/GPa) = 0.02575920
#
# Stress axis : x y z
#
# Youngs Moduli (GPa) = 58.53340 58.53340 70.62045
#
# Poissons Ratio (x) = 0.12471 0.32324
# Poissons Ratio (y) = 0.12471 0.32324
# Poissons Ratio (z) = 0.26791 0.26791
#
# Static dielectric constant tensor:
#      x y z
#    x 1.630030 0.000000 0.000000 
#    y 0.000000 1.630030 0.000000 
#    z 0.000000 0.000000 1.572970 
# 
# From -- ./inp_files/2487.got.cif
#   From: 2010.05.17/outbox.cif.g08.bks.cpg/sg175_2_cif.got.tgz:2487.got - 2010.05.20 11:23:22.
