data_PCOD9581089
_publ_section_title
;
Structure prediction by ZEFSAII (Michael W. Deem and Ramdas Pophale) SiO2 
 PCOD9581089
Probable space group: P 63
;
_chemical_formula_sum "Si O2"
_cell_formula_units_Z 34
_cell_length_a 13.961994
_cell_length_b 13.961994
_cell_length_c 9.059918
_cell_angle_alpha 90.000000
_cell_angle_beta 90.000000
_cell_angle_gamma 120.000000
_cell_volume 1529.501097
_symmetry_space_group_name_H-M "P 63"
_symmetry_group_IT_number 173
_symmetry_cell_setting 'hexagonal'
loop_
_space_group_symop_operation_xyz
x,y,z
x-y,x,1/2+z
-y,x-y,z
-x,-y,1/2+z
-x+y,-x,z
y,-x+y,1/2+z
loop_
_atom_site_type_symbol
_atom_site_label
_atom_site_fract_x
_atom_site_fract_y
_atom_site_fract_z
Si Si1 0.929089 0.455603 0.590960
Si Si2 0.333335 0.666668 0.756478
Si Si3 0.666667 0.333333 0.909899
Si Si4 0.143746 0.919326 0.802049
Si Si5 0.084078 0.229742 0.444057
Si Si6 0.640214 0.103153 0.883873
Si Si7 0.459607 0.231889 0.451001
O O1 0.953726 0.508587 0.751417
O O2 0.848602 0.322606 0.567520
O O3 0.860106 0.508951 0.517738
O O4 0.046212 0.483130 0.524325
O O5 0.333334 0.666667 0.584540
O O6 0.294465 0.547387 0.823832
O O7 0.681183 0.231726 0.862255
O O8 0.141683 0.918071 0.623224
O O9 0.178720 0.836146 0.872733
O O10 0.022303 0.873943 0.870832
O O11 0.225527 0.039110 0.870715
O O12 0.084977 0.340925 0.394412
#
# Coordination Sequence:
#
# PCOD9581089 Si02
#       7
#     6   2   2   6   6   6   6
#     4  11  26  46  72 106 144 194 250 312 381 466
#     4   9  21  43  68 106 138 187 233 298 375 445
#     4  12  27  43  68 103 156 181 242 304 372 451
#     4  12  27  49  76 111 154 203 260 325 395 479
#     4  12  29  49  79 113 156 204 265 325 402 475
#     4  12  29  46  75 110 150 200 255 314 395 463
#     4  10  23  44  76 101 148 191 245 312 384 451
#
# _framework density 22.229472000000001
#
# number of rings (size 3 to 8) (size 9 to 14) (size 15 to 20)
#    0.000    0.706    1.765    3.882   14.824    0.000 
#    0.000    0.000    0.000    0.000    0.000    0.000 
#    0.000    0.000    0.000    0.000    0.000    0.000 
#
# Total GULP energy -190166.440277 kJ/mol
# GULP energy per Si atom -5593.130596 kJ/mol
# Density = 2.217888 g / cm^3
# Si number density = 22.229472 Si / 1000 Ang^3
#
#
#
# Elastic Constant Matrix: (Units=GPa)
#
#
# Indices 1 2 3 4 5 6 
#
# 1 89.6331 54.6445 50.0475 0.0000 0.0000 0.0066
# 2 54.6445 89.6317 50.0458 0.0000 0.0000 -0.0046
# 3 50.0475 50.0458 166.2822 0.0000 0.0000 -0.0021
# 4 0.0000 0.0000 0.0000 26.8794 0.0000 0.0000
# 5 0.0000 0.0000 0.0000 0.0000 26.8796 0.0000
# 6 0.0066 -0.0046 -0.0021 0.0000 0.0000 17.5029
#
#
#
# Elastic Compliance Matrix: (Units=1/GPa)
#
#
# Indices 1 2 3 4 5 6 
#
# 1 0.018671 -0.009911 -0.002637 0.000000 0.000000 -0.000010
# 2 -0.009911 0.018671 -0.002636 0.000000 0.000000 0.000008
# 3 -0.002637 -0.002636 0.007601 0.000000 0.000000 0.000001
# 4 0.000000 0.000000 0.000000 0.037203 0.000000 0.000000
# 5 0.000000 0.000000 0.000000 0.000000 0.037203 0.000000
# 6 -0.000010 0.000008 0.000001 0.000000 0.000000 0.057133
#
#
# Mechanical properties :
#
#
# Convention : Reuss Voigt Hill
#
# Bulk Modulus (GPa) = 68.61025 72.78029 70.69527
# Shear Modulus (GPa) = 23.61742 26.97299 25.29521
#
# Velocity S-wave (km/s) = 3.26304 3.48715 3.37696
# Velocity P-wave (km/s) = 6.71775 7.00180 6.86124
#
# Compressibility (1/GPa) = 0.01457508
#
# Stress axis : x y z
#
# Youngs Moduli (GPa) = 53.55966 53.55939 131.56190
#
# Poissons Ratio (x) = 0.53080 0.34690
# Poissons Ratio (y) = 0.53080 0.34686
# Poissons Ratio (z) = 0.14122 0.14121
#
# Static dielectric constant tensor:
#      x y z
#    x 1.869670 0.000000 0.000000 
#    y 0.000000 1.869660 0.000000 
#    z 0.000000 0.000000 1.577690 
# 
# From -- ./inp_files/573.got.cif
#   From: 2010.05.17/outbox.cif.g08.bks.cpg/sg173_cif.got.tgz:573.got - 2010.05.20 11:21:53.
