data_PCOD9581197
_publ_section_title
;
Structure prediction by ZEFSAII (Michael W. Deem and Ramdas Pophale) SiO2 
 PCOD9581197
Probable space group: P -6
;
_chemical_formula_sum "Si O2"
_cell_formula_units_Z 30
_cell_length_a 8.459433
_cell_length_b 8.459433
_cell_length_c 24.921632
_cell_angle_alpha 90.000000
_cell_angle_beta 90.000000
_cell_angle_gamma 120.000000
_cell_volume 1544.506074
_symmetry_space_group_name_H-M "P -6"
_symmetry_group_IT_number 174
_symmetry_cell_setting 'hexagonal'
loop_
_space_group_symop_operation_xyz
x,y,z
-x+y,-x,-z
-y,x-y,z
x,y,-z
-x+y,-x,z
-y,x-y,-z
loop_
_atom_site_type_symbol
_atom_site_label
_atom_site_fract_x
_atom_site_fract_y
_atom_site_fract_z
Si Si1 0.999662 0.661487 0.882671
Si Si2 0.024966 0.221076 0.382370
Si Si3 0.118051 0.653983 0.000000
Si Si4 0.131693 0.452961 0.278237
Si Si5 0.328630 0.000675 0.836456
Si Si6 0.778954 0.804805 0.500000
O O1 0.935566 0.467065 0.856013
O O2 0.866609 0.730294 0.861603
O O3 0.200585 0.801169 0.861099
O O4 0.013028 0.648906 0.946414
O O5 0.178589 0.157781 0.378715
O O6 0.049129 0.352233 0.333852
O O7 0.035365 0.303622 0.441663
O O8 0.168231 0.491436 0.000000
O O9 0.343969 0.502006 0.274892
O O10 0.020013 0.334853 0.227483
O O11 0.979100 0.821036 0.500000
#
# Coordination Sequence:
#
# PCOD9581197 Si02
#       6
#     6   6   3   6   6   3
#     4  12  24  42  68  91 123 161 202 250 315 375
#     4   8  16  29  56  84 105 152 210 254 298 373
#     4  10  20  42  72  88 120 156 188 250 328 366
#     4  10  21  36  54  79 127 161 196 255 321 342
#     4  12  24  43  61  96 123 166 203 256 312 380
#     4   6  10  26  46  78 116 140 190 262 312 348
#
# _framework density 19.423684999999999
#
# number of rings (size 3 to 8) (size 9 to 14) (size 15 to 20)
#    1.200    0.800    4.000    1.200    2.800    1.600 
#    0.000    1.000    0.000    0.800    0.000    0.000 
#    0.000    0.000    0.000    0.000    0.000    0.000 
#
# Total GULP energy -167023.871043 kJ/mol
# GULP energy per Si atom -5567.462368 kJ/mol
# Density = 1.937948 g / cm^3
# Si number density = 19.423685 Si / 1000 Ang^3
#
#
#
# Elastic Constant Matrix: (Units=GPa)
#
#
# Indices 1 2 3 4 5 6 
#
# 1 46.5291 6.1129 35.7658 0.0000 0.0000 0.0000
# 2 6.1129 46.5291 35.7658 0.0000 0.0000 0.0000
# 3 35.7658 35.7658 235.4143 0.0000 0.0000 0.0000
# 4 0.0000 0.0000 0.0000 18.6636 0.0000 0.0000
# 5 0.0000 0.0000 0.0000 0.0000 18.6636 0.0000
# 6 0.0000 0.0000 0.0000 0.0000 0.0000 20.2081
#
#
#
# Elastic Compliance Matrix: (Units=1/GPa)
#
#
# Indices 1 2 3 4 5 6 
#
# 1 0.024340 -0.000402 -0.003637 0.000000 0.000000 0.000000
# 2 -0.000402 0.024340 -0.003637 0.000000 0.000000 0.000000
# 3 -0.003637 -0.003637 0.005353 0.000000 0.000000 0.000000
# 4 0.000000 0.000000 0.000000 0.053580 0.000000 0.000000
# 5 0.000000 0.000000 0.000000 0.000000 0.053580 0.000000
# 6 0.000000 0.000000 0.000000 0.000000 0.000000 0.049485
#
#
# Mechanical properties :
#
#
# Convention : Reuss Voigt Hill
#
# Bulk Modulus (GPa) = 25.85204 53.75128 39.80166
# Shear Modulus (GPa) = 20.92709 28.22893 24.57801
#
# Velocity S-wave (km/s) = 3.28594 3.81639 3.56105
# Velocity P-wave (km/s) = 5.26640 6.86679 6.11914
#
# Compressibility (1/GPa) = 0.03868167
#
# Stress axis : x y z
#
# Youngs Moduli (GPa) = 41.08411 41.08411 186.81471
#
# Poissons Ratio (x) = 0.01653 0.67941
# Poissons Ratio (y) = 0.01653 0.67941
# Poissons Ratio (z) = 0.14942 0.14942
#
# Static dielectric constant tensor:
#      x y z
#    x 1.555330 0.000000 0.000000 
#    y 0.000000 1.555330 0.000000 
#    z 0.000000 0.000000 1.673540 
# 
# From -- ./inp_files/1072.got.cif
#   From: 2010.05.17/outbox.cif.g08.bks.cpg/sg174_cif.got.tgz:1072.got - 2010.05.20 11:22:48.
