data_PCOD9581039
_publ_section_title
;
Structure prediction by ZEFSAII (Michael W. Deem and Ramdas Pophale) SiO2 
 PCOD9581039
Probable space group: P 63
;
_chemical_formula_sum "Si O2"
_cell_formula_units_Z 40
_cell_length_a 14.204157
_cell_length_b 14.204157
_cell_length_c 11.945889
_cell_angle_alpha 90.000000
_cell_angle_beta 90.000000
_cell_angle_gamma 120.000000
_cell_volume 2087.276745
_symmetry_space_group_name_H-M "P 63"
_symmetry_group_IT_number 173
_symmetry_cell_setting 'hexagonal'
loop_
_space_group_symop_operation_xyz
x,y,z
x-y,x,1/2+z
-y,x-y,z
-x,-y,1/2+z
-x+y,-x,z
y,-x+y,1/2+z
loop_
_atom_site_type_symbol
_atom_site_label
_atom_site_fract_x
_atom_site_fract_y
_atom_site_fract_z
Si Si1 0.333333 0.666667 0.517246
Si Si2 0.855778 0.293044 0.767452
Si Si3 0.216248 0.323182 0.606116
Si Si4 0.068018 0.825178 0.849680
Si Si5 0.665231 0.008448 0.055149
Si Si6 0.491147 0.909576 0.491800
Si Si7 0.666668 0.333334 0.748848
Si Si8 0.935771 0.155507 0.889500
O O1 0.408574 0.791675 0.545459
O O2 0.333334 0.666667 0.382921
O O3 0.899128 0.389812 0.859643
O O4 0.744487 0.283702 0.720566
O O5 0.854621 0.196909 0.842279
O O6 0.934515 0.309525 0.665250
O O7 0.228072 0.301290 0.733990
O O8 0.129107 0.364625 0.587855
O O9 0.335132 0.397818 0.553152
O O10 0.160895 0.219221 0.524160
O O11 0.044178 0.748597 0.958173
O O12 0.966966 0.846894 0.848175
O O13 0.176078 0.942091 0.851738
O O14 0.563836 0.018427 0.010932
#
# Coordination Sequence:
#
# PCOD9581039 Si02
#       8
#     2   6   6   6   6   6   2   6
#     4   9  15  33  60  82 113 145 213 249 298 368
#     4  10  22  41  61  91 125 159 214 265 315 377
#     4  10  22  39  62  90 123 163 210 262 319 379
#     4  11  24  40  63  91 124 166 211 259 327 385
#     4  11  23  39  62  92 127 163 212 264 318 386
#     4  10  20  36  61  90 118 163 207 260 317 369
#     4   9  21  36  66  85 119 166 207 264 310 371
#     4  10  23  40  61  91 123 163 206 263 320 385
#
# _framework density 19.163726
#
# number of rings (size 3 to 8) (size 9 to 14) (size 15 to 20)
#    0.000    1.800    3.000    0.300   10.500    0.000 
#    2.700    0.000    0.000    0.000    0.000    0.000 
#    0.000    0.000    0.000    0.000    0.000    0.000 
#
# Total GULP energy -222712.662960 kJ/mol
# GULP energy per Si atom -5567.816574 kJ/mol
# Density = 1.912011 g / cm^3
# Si number density = 19.163726 Si / 1000 Ang^3
#
#
#
# Elastic Constant Matrix: (Units=GPa)
#
#
# Indices 1 2 3 4 5 6 
#
# 1 62.3575 17.6503 26.7296 0.0000 0.0000 0.0000
# 2 17.6503 62.3579 26.7299 0.0000 0.0000 -0.0001
# 3 26.7296 26.7299 109.3457 0.0000 0.0000 0.0000
# 4 0.0000 0.0000 0.0000 20.2466 0.0000 0.0000
# 5 0.0000 0.0000 0.0000 0.0000 20.2465 0.0000
# 6 0.0000 -0.0001 0.0000 0.0000 0.0000 22.3538
#
#
#
# Elastic Compliance Matrix: (Units=1/GPa)
#
#
# Indices 1 2 3 4 5 6 
#
# 1 0.018653 -0.003714 -0.003652 0.000000 0.000000 0.000000
# 2 -0.003714 0.018653 -0.003652 0.000000 0.000000 0.000000
# 3 -0.003652 -0.003652 0.010931 0.000000 0.000000 0.000000
# 4 0.000000 0.000000 0.000000 0.049391 0.000000 0.000000
# 5 0.000000 0.000000 0.000000 0.000000 0.049391 0.000000
# 6 0.000000 0.000000 0.000000 0.000000 0.000000 0.044735
#
#
# Mechanical properties :
#
#
# Convention : Reuss Voigt Hill
#
# Bulk Modulus (GPa) = 38.16641 41.80897 39.98769
# Shear Modulus (GPa) = 22.46945 23.43280 22.95112
#
# Velocity S-wave (km/s) = 3.42789 3.50060 3.46444
# Velocity P-wave (km/s) = 5.96879 6.18086 6.07575
#
# Compressibility (1/GPa) = 0.02620105
#
# Stress axis : x y z
#
# Youngs Moduli (GPa) = 53.60990 53.61014 91.48548
#
# Poissons Ratio (x) = 0.19913 0.33409
# Poissons Ratio (y) = 0.19913 0.33409
# Poissons Ratio (z) = 0.19577 0.19578
#
# Static dielectric constant tensor:
#      x y z
#    x 1.723320 0.000000 0.000000 
#    y 0.000000 1.723320 0.000000 
#    z 0.000000 0.000000 1.656820 
# 
# From -- ./inp_files/872.got.cif
#   From: 2010.05.17/outbox.cif.g08.bks.cpg/sg173_cif.got.tgz:872.got - 2010.05.20 11:21:53.
