data_PCOD9581206
_publ_section_title
;
Structure prediction by ZEFSAII (Michael W. Deem and Ramdas Pophale) SiO2 
 PCOD9581206
Probable space group: P -6
;
_chemical_formula_sum "Si O2"
_cell_formula_units_Z 42
_cell_length_a 8.783286
_cell_length_b 8.783286
_cell_length_c 33.127941
_cell_angle_alpha 90.000000
_cell_angle_beta 90.000000
_cell_angle_gamma 120.000000
_cell_volume 2213.294091
_symmetry_space_group_name_H-M "P -6"
_symmetry_group_IT_number 174
_symmetry_cell_setting 'hexagonal'
loop_
_space_group_symop_operation_xyz
x,y,z
-x+y,-x,-z
-y,x-y,z
x,y,-z
-x+y,-x,z
-y,x-y,-z
loop_
_atom_site_type_symbol
_atom_site_label
_atom_site_fract_x
_atom_site_fract_y
_atom_site_fract_z
Si Si1 0.792910 0.807153 0.379951
Si Si2 0.995885 0.659449 0.163282
Si Si3 0.147798 0.454698 0.453866
Si Si4 0.006402 0.333086 0.292499
Si Si5 0.325913 0.996362 0.130288
Si Si6 0.140816 0.457965 0.045428
Si Si7 0.340403 0.334886 0.259486
O O1 0.685137 0.720411 0.420295
O O2 0.687159 0.707504 0.340291
O O3 0.842640 0.012397 0.378734
O O4 0.982281 0.640197 0.211391
O O5 0.044957 0.520516 0.145125
O O6 0.813099 0.624351 0.144621
O O7 0.144867 0.854246 0.150888
O O8 0.355630 0.515378 0.449160
O O9 0.095898 0.394605 0.500000
O O10 0.145725 0.290724 0.271439
O O11 0.043871 0.522888 0.278939
O O12 0.814018 0.189395 0.277382
O O13 0.308940 0.970393 0.082102
O O14 0.346327 0.510011 0.049096
O O15 0.080416 0.392774 0.000000
#
# Coordination Sequence:
#
# PCOD9581206 Si02
#       7
#     6   6   6   6   6   6   6
#     4  10  21  38  58  89 124 160 206 261 315 367
#     4  12  24  39  64  87 126 162 212 257 319 373
#     4   8  18  35  60  91 121 157 207 253 301 370
#     4  12  25  43  62  90 124 164 221 266 323 381
#     4  12  23  42  61  97 123 163 208 258 309 382
#     4   8  15  35  66  91 120 161 197 247 312 373
#     4  12  24  42  61  87 122 169 209 270 321 378
#
# _framework density 18.976241000000002
#
# number of rings (size 3 to 8) (size 9 to 14) (size 15 to 20)
#    0.857    0.571    2.857    4.286    2.000    0.571 
#    0.000    1.429    0.000    0.571    0.000    0.000 
#    0.000    0.000    0.000    0.000    0.000    0.000 
#
# Total GULP energy -234361.384075 kJ/mol
# GULP energy per Si atom -5580.032954 kJ/mol
# Density = 1.893305 g / cm^3
# Si number density = 18.976241 Si / 1000 Ang^3
#
#
#
# Elastic Constant Matrix: (Units=GPa)
#
#
# Indices 1 2 3 4 5 6 
#
# 1 42.3079 -8.7336 31.0448 0.0000 0.0000 0.0000
# 2 -8.7336 42.3079 31.0448 0.0000 0.0000 0.0000
# 3 31.0448 31.0448 194.6248 0.0000 0.0000 0.0000
# 4 0.0000 0.0000 0.0000 -20.1301 0.0000 0.0000
# 5 0.0000 0.0000 0.0000 0.0000 -20.1301 0.0000
# 6 0.0000 0.0000 0.0000 0.0000 0.0000 25.5208
#
#
#
# Elastic Compliance Matrix: (Units=1/GPa)
#
#
# Indices 1 2 3 4 5 6 
#
# 1 0.030919 0.011328 -0.006739 0.000000 0.000000 0.000000
# 2 0.011328 0.030919 -0.006739 0.000000 0.000000 0.000000
# 3 -0.006739 -0.006739 0.007288 0.000000 0.000000 0.000000
# 4 0.000000 0.000000 0.000000 -0.049677 0.000000 0.000000
# 5 0.000000 0.000000 0.000000 0.000000 -0.049677 0.000000
# 6 0.000000 0.000000 0.000000 0.000000 0.000000 0.039184
#
#
# Mechanical properties :
#
#
# Convention : Reuss Voigt Hill
#
# Bulk Modulus (GPa) = 15.42578 42.88363 29.15470
# Shear Modulus (GPa) = 143.40463 12.11107 77.75785
#
# Velocity S-wave (km/s) = 8.70257 2.52905 6.40823
# Velocity P-wave (km/s) = 10.44635 5.58353 8.37562
#
# Compressibility (1/GPa) = 0.06482656
#
# Stress axis : x y z
#
# Youngs Moduli (GPa) = 32.34208 32.34208 137.21296
#
# Poissons Ratio (x) = -0.36636 0.92466
# Poissons Ratio (y) = -0.36636 0.92466
# Poissons Ratio (z) = 0.21795 0.21795
#
# Static dielectric constant tensor:
#      x y z
#    x 1.645860 0.000000 0.000000 
#    y 0.000000 1.645860 0.000000 
#    z 0.000000 0.000000 1.636330 
# 
# From -- ./inp_files/1100.got.cif
#   From: 2010.05.17/outbox.cif.g08.bks.cpg/sg174_cif.got.tgz:1100.got - 2010.05.20 11:22:48.
