data_PCOD9581860
_publ_section_title
;
Structure prediction by ZEFSAII (Michael W. Deem and Ramdas Pophale) SiO2 
 PCOD9581860
Probable space group: P 63/M
;
_chemical_formula_sum "Si O2"
_cell_formula_units_Z 66
_cell_length_a 23.388922
_cell_length_b 23.388922
_cell_length_c 7.527533
_cell_angle_alpha 90.000000
_cell_angle_beta 90.000000
_cell_angle_gamma 120.000000
_cell_volume 3566.183702
_symmetry_space_group_name_H-M "P 63/M"
_symmetry_group_IT_number 176
_symmetry_cell_setting 'hexagonal'
loop_
_space_group_symop_operation_xyz
x,y,z
x-y,x,1/2+z
-y,x-y,z
-x,-y,1/2+z
-x+y,-x,z
y,-x+y,1/2+z
-x,-y,-z
-x+y,-x,1/2-z
y,-x+y,-z
x,y,1/2-z
x-y,x,-z
-y,x-y,1/2-z
loop_
_atom_site_type_symbol
_atom_site_label
_atom_site_fract_x
_atom_site_fract_y
_atom_site_fract_z
Si Si1 0.475662 0.700047 0.964333
Si Si2 0.687249 0.680628 0.051684
Si Si3 0.775531 0.661972 0.750000
Si Si4 0.554017 0.185729 0.466044
Si Si5 0.033564 0.576698 0.047505
Si Si6 0.144099 0.372847 0.960217
O O1 0.468623 0.698117 0.750000
O O2 0.421553 0.627608 0.026798
O O3 0.463675 0.759049 0.025944
O O4 0.550241 0.719550 0.002730
O O5 0.716458 0.694847 0.250000
O O6 0.732559 0.673542 0.905803
O O7 0.619354 0.610316 0.057207
O O8 0.669628 0.736012 0.994818
O O9 0.817160 0.648760 0.593074
O O10 0.552492 0.183978 0.250000
O O11 0.501629 0.112584 0.528288
O O12 0.016264 0.580318 0.250000
O O13 0.000000 0.500000 0.000000
O O14 0.158386 0.369893 0.750000
#
# Coordination Sequence:
#
# PCOD9581860 Si02
#       6
#    12  12   6  12  12  12
#     4   9  19  33  58  83 118 163 217 280 344 414
#     4  12  24  43  66  96 134 178 227 277 337 411
#     4  12  24  42  68  96 132 176 222 270 324 408
#     4  10  19  36  56  83 114 160 216 274 344 407
#     4  12  24  39  58  86 119 164 220 286 353 413
#     4  11  22  41  65  97 132 176 227 277 340 405
#
# _framework density 18.507179000000001
#
# number of rings (size 3 to 8) (size 9 to 14) (size 15 to 20)
#    0.000    1.091    2.727    4.727    0.000    4.364 
#    1.636    0.000    0.000    0.000    0.000    0.000 
#    0.000    0.000    0.000    5.455    0.000    0.000 
#
# Total GULP energy -367414.032989 kJ/mol
# GULP energy per Si atom -5566.879288 kJ/mol
# Density = 1.846506 g / cm^3
# Si number density = 18.507179 Si / 1000 Ang^3
#
#
#
# Elastic Constant Matrix: (Units=GPa)
#
#
# Indices 1 2 3 4 5 6 
#
# 1 40.3675 28.4286 22.1694 0.0000 0.0000 0.0000
# 2 28.4286 40.3675 22.1694 0.0000 0.0000 0.0000
# 3 22.1694 22.1694 135.0699 0.0000 0.0000 0.0000
# 4 0.0000 0.0000 0.0000 19.2400 0.0000 0.0000
# 5 0.0000 0.0000 0.0000 0.0000 19.2400 0.0000
# 6 0.0000 0.0000 0.0000 0.0000 0.0000 5.9694
#
#
#
# Elastic Compliance Matrix: (Units=1/GPa)
#
#
# Indices 1 2 3 4 5 6 
#
# 1 0.050008 -0.033752 -0.002668 0.000000 0.000000 0.000000
# 2 -0.033752 0.050008 -0.002668 0.000000 0.000000 0.000000
# 3 -0.002668 -0.002668 0.008279 0.000000 0.000000 0.000000
# 4 0.000000 0.000000 0.000000 0.051975 0.000000 0.000000
# 5 0.000000 0.000000 0.000000 0.000000 0.051975 0.000000
# 6 0.000000 0.000000 0.000000 0.000000 0.000000 0.167520
#
#
# Mechanical properties :
#
#
# Convention : Reuss Voigt Hill
#
# Bulk Modulus (GPa) = 33.20299 40.14885 36.67592
# Shear Modulus (GPa) = 10.68422 18.42574 14.55498
#
# Velocity S-wave (km/s) = 2.40532 3.15874 2.80741
# Velocity P-wave (km/s) = 5.06889 5.91982 5.51080
#
# Compressibility (1/GPa) = 0.03011777
#
# Stress axis : x y z
#
# Youngs Moduli (GPa) = 19.99699 19.99699 120.78188
#
# Poissons Ratio (x) = 0.67494 0.32225
# Poissons Ratio (y) = 0.67494 0.32225
# Poissons Ratio (z) = 0.05335 0.05335
#
# Static dielectric constant tensor:
#      x y z
#    x 1.608080 0.000000 0.000000 
#    y 0.000000 1.608080 0.000000 
#    z 0.000000 0.000000 1.680230 
# 
# From -- ./inp_files/1007.got.cif
#   From: 2010.05.17/outbox.cif.g08.bks.cpg/sg176_1_cif.got.tgz:1007.got - 2010.06.03 11:36:45.
