data_PCOD9581053
_publ_section_title
;
Structure prediction by ZEFSAII (Michael W. Deem and Ramdas Pophale) SiO2 
 PCOD9581053
Probable space group: P 63
;
_chemical_formula_sum "Si O2"
_cell_formula_units_Z 30
_cell_length_a 8.518883
_cell_length_b 8.518883
_cell_length_c 24.710313
_cell_angle_alpha 90.000000
_cell_angle_beta 90.000000
_cell_angle_gamma 120.000000
_cell_volume 1553.009761
_symmetry_space_group_name_H-M "P 63"
_symmetry_group_IT_number 173
_symmetry_cell_setting 'hexagonal'
loop_
_space_group_symop_operation_xyz
x,y,z
x-y,x,1/2+z
-y,x-y,z
-x,-y,1/2+z
-x+y,-x,z
y,-x+y,1/2+z
loop_
_atom_site_type_symbol
_atom_site_label
_atom_site_fract_x
_atom_site_fract_y
_atom_site_fract_z
Si Si1 0.333485 0.459829 0.701060
Si Si2 0.326125 0.455929 0.823331
Si Si3 0.669537 0.004261 0.586784
Si Si4 0.332622 0.997350 0.540645
Si Si5 0.208119 0.205940 0.923080
O O1 0.502146 0.666752 0.695806
O O2 0.328439 0.393848 0.762005
O O3 0.336819 0.343854 0.651543
O O4 0.498124 0.659945 0.828651
O O5 0.303832 0.316382 0.869287
O O6 0.728573 0.864793 0.564880
O O7 0.472090 0.938303 0.561828
O O8 0.805412 0.201013 0.564336
O O9 0.312578 0.998304 0.476234
O O10 0.168460 0.999240 0.924581
#
# Coordination Sequence:
#
# PCOD9581053 Si02
#       5
#     6   6   6   6   6
#     4   8  15  36  60  84 116 153 199 249 298 365
#     4   8  18  34  62  83 106 160 207 236 295 364
#     4  12  22  41  61  89 123 162 207 254 321 359
#     4  12  24  39  61  90 121 167 201 259 311 378
#     4  10  21  38  52  84 130 148 198 254 299 358
#
# _framework density 19.317329999999998
#
# number of rings (size 3 to 8) (size 9 to 14) (size 15 to 20)
#    1.200    0.800    4.000    1.200    2.800    0.000 
#    3.600    0.000    0.000    0.800    0.000    0.000 
#    0.000    0.000    0.000    0.000    0.000    0.000 
#
# Total GULP energy -167093.000733 kJ/mol
# GULP energy per Si atom -5569.766691 kJ/mol
# Density = 1.927336 g / cm^3
# Si number density = 19.317330 Si / 1000 Ang^3
#
#
#
# Elastic Constant Matrix: (Units=GPa)
#
#
# Indices 1 2 3 4 5 6 
#
# 1 32.1196 -0.8670 20.0937 0.0000 0.0000 0.0000
# 2 -0.8670 32.1196 20.0937 0.0000 0.0000 0.0000
# 3 20.0937 20.0937 173.7737 0.0000 0.0000 0.0000
# 4 0.0000 0.0000 0.0000 9.0785 0.0000 0.0000
# 5 0.0000 0.0000 0.0000 0.0000 9.0785 0.0000
# 6 0.0000 0.0000 0.0000 0.0000 0.0000 16.4933
#
#
#
# Elastic Compliance Matrix: (Units=1/GPa)
#
#
# Indices 1 2 3 4 5 6 
#
# 1 0.033951 0.003635 -0.004346 0.000000 0.000000 0.000000
# 2 0.003635 0.033951 -0.004346 0.000000 0.000000 0.000000
# 3 -0.004346 -0.004346 0.006760 0.000000 0.000000 0.000000
# 4 0.000000 0.000000 0.000000 0.110150 0.000000 0.000000
# 5 0.000000 0.000000 0.000000 0.000000 0.110150 0.000000
# 6 0.000000 0.000000 0.000000 0.000000 0.000000 0.060631
#
#
# Mechanical properties :
#
#
# Convention : Reuss Voigt Hill
#
# Bulk Modulus (GPa) = 15.49252 35.18374 25.33813
# Shear Modulus (GPa) = 12.91247 20.17621 16.54434
#
# Velocity S-wave (km/s) = 2.58823 3.23532 2.92969
# Velocity P-wave (km/s) = 4.11938 5.67534 4.95877
#
# Compressibility (1/GPa) = 0.06454729
#
# Stress axis : x y z
#
# Youngs Moduli (GPa) = 29.45446 29.45446 147.93528
#
# Poissons Ratio (x) = -0.10708 0.64295
# Poissons Ratio (y) = -0.10708 0.64295
# Poissons Ratio (z) = 0.12801 0.12801
#
# Static dielectric constant tensor:
#      x y z
#    x 1.709220 0.000000 0.000000 
#    y 0.000000 1.709220 0.000000 
#    z 0.000000 0.000000 1.650940 
# 
# From -- ./inp_files/1428.got.cif
#   From: 2010.05.17/outbox.cif.g08.bks.cpg/sg173_cif.got.tgz:1428.got - 2010.05.20 11:21:53.
