data_PCOD9581098
_publ_section_title
;
Structure prediction by ZEFSAII (Michael W. Deem and Ramdas Pophale) SiO2 
 PCOD9581098
Probable space group: P 63
;
_chemical_formula_sum "Si O2"
_cell_formula_units_Z 34
_cell_length_a 14.050370
_cell_length_b 14.050370
_cell_length_c 8.345972
_cell_angle_alpha 90.000000
_cell_angle_beta 90.000000
_cell_angle_gamma 120.000000
_cell_volume 1426.865631
_symmetry_space_group_name_H-M "P 63"
_symmetry_group_IT_number 173
_symmetry_cell_setting 'hexagonal'
loop_
_space_group_symop_operation_xyz
x,y,z
x-y,x,1/2+z
-y,x-y,z
-x,-y,1/2+z
-x+y,-x,z
y,-x+y,1/2+z
loop_
_atom_site_type_symbol
_atom_site_label
_atom_site_fract_x
_atom_site_fract_y
_atom_site_fract_z
Si Si1 0.666668 0.333334 0.829517
Si Si2 0.895714 0.437085 0.930110
Si Si3 0.929916 0.659022 0.815526
Si Si4 0.486063 0.370499 0.283525
Si Si5 0.252056 0.065689 0.602434
Si Si6 0.333334 0.666668 0.949010
Si Si7 0.725303 0.862300 0.767669
O O1 0.666668 0.333334 0.639582
O O2 0.775176 0.335955 0.896885
O O3 0.898905 0.468206 0.114967
O O4 0.901006 0.534567 0.817200
O O5 0.000840 0.430052 0.878365
O O6 0.833600 0.679017 0.741894
O O7 0.035149 0.747935 0.715660
O O8 0.988003 0.701945 0.993834
O O9 0.585514 0.374104 0.383011
O O10 0.393739 0.244845 0.257305
O O11 0.241969 0.129609 0.453802
O O12 0.145141 0.966786 0.679019
#
# Coordination Sequence:
#
# PCOD9581098 Si02
#       7
#     2   6   6   6   6   2   6
#     4  12  31  47  73 114 148 188 253 300 361 440
#     4  12  27  47  76 109 144 191 241 305 370 440
#     4  10  25  44  72 101 141 185 239 289 364 420
#     4  12  25  47  74 104 148 189 245 299 372 431
#     4  10  24  42  72 100 139 189 235 298 348 435
#     4  12  28  47  70 108 154 191 247 303 352 437
#     4  10  24  44  69 104 136 191 236 290 359 429
#
# _framework density 23.828454000000001
#
# number of rings (size 3 to 8) (size 9 to 14) (size 15 to 20)
#    1.059    0.000    1.765    3.176    9.882    0.000 
#    1.059    0.000    0.000    0.000    0.000    0.000 
#    0.000    0.000    0.000    0.000    0.000    0.000 
#
# Total GULP energy -189416.085953 kJ/mol
# GULP energy per Si atom -5571.061352 kJ/mol
# Density = 2.377422 g / cm^3
# Si number density = 23.828454 Si / 1000 Ang^3
#
#
#
# Elastic Constant Matrix: (Units=GPa)
#
#
# Indices 1 2 3 4 5 6 
#
# 1 300.0001 -225.1582 9.4452 0.0000 0.0000 0.0246
# 2 -225.1582 299.9852 9.4265 0.0000 0.0000 -0.0182
# 3 9.4452 9.4265 69.5844 0.0000 0.0000 -0.0060
# 4 0.0000 0.0000 0.0000 28.0190 0.0001 0.0000
# 5 0.0000 0.0000 0.0000 0.0001 28.0190 0.0000
# 6 0.0246 -0.0182 -0.0060 0.0000 0.0000 262.5926
#
#
#
# Elastic Compliance Matrix: (Units=1/GPa)
#
#
# Indices 1 2 3 4 5 6 
#
# 1 0.007870 0.005966 -0.001876 0.000000 0.000000 0.000000
# 2 0.005966 0.007870 -0.001876 0.000000 0.000000 0.000000
# 3 -0.001876 -0.001876 0.014880 0.000000 0.000000 0.000000
# 4 0.000000 0.000000 0.000000 0.035690 0.000000 0.000000
# 5 0.000000 0.000000 0.000000 0.000000 0.035690 0.000000
# 6 0.000000 0.000000 0.000000 0.000000 0.000000 0.003808
#
#
# Mechanical properties :
#
#
# Convention : Reuss Voigt Hill
#
# Bulk Modulus (GPa) = 28.53310 28.55519 28.54414
# Shear Modulus (GPa) = 44.22283 122.11652 83.16968
#
# Velocity S-wave (km/s) = 4.31267 7.16655 5.91433
# Velocity P-wave (km/s) = 6.06624 8.97156 7.65794
#
# Compressibility (1/GPa) = 0.03504702
#
# Stress axis : x y z
#
# Youngs Moduli (GPa) = 127.06547 127.06126 67.20483
#
# Poissons Ratio (x) = -0.75803 0.12611
# Poissons Ratio (y) = -0.75806 0.12607
# Poissons Ratio (z) = 0.23843 0.23836
#
# Static dielectric constant tensor:
#      x y z
#    x 1.933840 0.000000 0.000000 
#    y 0.000000 1.933840 0.000000 
#    z 0.000000 0.000000 1.996480 
# 
# From -- ./inp_files/568.got.cif
#   From: 2010.05.17/outbox.cif.g08.bks.cpg/sg173_cif.got.tgz:568.got - 2010.05.20 11:21:53.
