data_PCOD9581308
_publ_section_title
;
Structure prediction by ZEFSAII (Michael W. Deem and Ramdas Pophale) SiO2 
 PCOD9581308
Probable space group: P 6/M
;
_chemical_formula_sum "Si O2"
_cell_formula_units_Z 72
_cell_length_a 23.669814
_cell_length_b 23.669814
_cell_length_c 8.838740
_cell_angle_alpha 90.000000
_cell_angle_beta 90.000000
_cell_angle_gamma 120.000000
_cell_volume 4288.552006
_symmetry_space_group_name_H-M "P 6/M"
_symmetry_group_IT_number 175
_symmetry_cell_setting 'hexagonal'
loop_
_space_group_symop_operation_xyz
x,y,z
x-y,x,z
-y,x-y,z
-x,-y,z
-x+y,-x,z
y,-x+y,z
-x,-y,-z
-x+y,-x,-z
y,-x+y,-z
x,y,-z
x-y,x,-z
-y,x-y,-z
loop_
_atom_site_type_symbol
_atom_site_label
_atom_site_fract_x
_atom_site_fract_y
_atom_site_fract_z
Si Si1 0.602106 0.867846 0.672572
Si Si2 0.334346 0.791605 0.179724
Si Si3 0.542669 0.208464 0.682182
Si Si4 0.803136 0.066501 0.682108
Si Si5 0.134219 0.408544 0.327095
Si Si6 0.263325 0.072079 0.179207
O O1 0.616268 0.893444 0.500000
O O2 0.529880 0.850963 0.719205
O O3 0.595753 0.796322 0.669211
O O4 0.663243 0.910977 0.777621
O O5 0.400187 0.802001 0.255491
O O6 0.274360 0.724524 0.245799
O O7 0.319325 0.848840 0.225333
O O8 0.336796 0.786339 0.000000
O O9 0.546126 0.215535 0.500000
O O10 0.807778 0.069382 0.500000
O O11 0.744451 0.080721 0.723844
O O12 0.869486 0.124629 0.751449
O O13 0.785701 0.996636 0.744822
O O14 0.120954 0.419925 0.500000
O O15 0.255164 0.069642 0.000000
#
# Coordination Sequence:
#
# PCOD9581308 Si02
#       6
#    12  12  12  12  12  12
#     4   8  16  31  49  68  92 128 169 205 245 297
#     4  11  20  28  42  66  95 124 161 212 267 311
#     4  10  19  31  45  61  89 129 171 210 252 308
#     4  10  20  36  57  79 106 139 171 198 231 285
#     4   8  16  31  49  68  92 127 168 204 241 291
#     4  11  21  33  54  84 112 133 160 203 248 282
#
# _framework density 16.788883999999999
#
# number of rings (size 3 to 8) (size 9 to 14) (size 15 to 20)
#    0.000    2.333    0.000    6.333    0.000    7.333 
#    0.000    0.000    0.000    1.333    0.000    9.333 
#    0.000    0.000    0.000    0.000    0.000    0.000 
#
# Total GULP energy -401435.359952 kJ/mol
# GULP energy per Si atom -5575.491110 kJ/mol
# Density = 1.675067 g / cm^3
# Si number density = 16.788884 Si / 1000 Ang^3
#
#
#
# Elastic Constant Matrix: (Units=GPa)
#
#
# Indices 1 2 3 4 5 6 
#
# 1 86.3830 47.4552 47.4126 0.0000 0.0000 0.0000
# 2 47.4552 86.3830 47.4126 0.0000 0.0000 0.0000
# 3 47.4126 47.4126 94.6714 0.0000 0.0000 0.0000
# 4 0.0000 0.0000 0.0000 12.1813 0.0000 0.0000
# 5 0.0000 0.0000 0.0000 0.0000 12.1813 0.0000
# 6 0.0000 0.0000 0.0000 0.0000 0.0000 19.4639
#
#
#
# Elastic Compliance Matrix: (Units=1/GPa)
#
#
# Indices 1 2 3 4 5 6 
#
# 1 0.018635 -0.007054 -0.005800 0.000000 0.000000 0.000000
# 2 -0.007054 0.018635 -0.005800 0.000000 0.000000 0.000000
# 3 -0.005800 -0.005800 0.016372 0.000000 0.000000 0.000000
# 4 0.000000 0.000000 0.000000 0.082093 0.000000 0.000000
# 5 0.000000 0.000000 0.000000 0.000000 0.082093 0.000000
# 6 0.000000 0.000000 0.000000 0.000000 0.000000 0.051377
#
#
# Mechanical properties :
#
#
# Convention : Reuss Voigt Hill
#
# Bulk Modulus (GPa) = 61.21996 61.33311 61.27653
# Shear Modulus (GPa) = 16.02784 17.10909 16.56847
#
# Velocity S-wave (km/s) = 3.09313 3.19576 3.14486
# Velocity P-wave (km/s) = 7.02142 7.08720 7.05439
#
# Compressibility (1/GPa) = 0.01633454
#
# Stress axis : x y z
#
# Youngs Moduli (GPa) = 53.66311 53.66311 61.07926
#
# Poissons Ratio (x) = 0.37853 0.35425
# Poissons Ratio (y) = 0.37853 0.35425
# Poissons Ratio (z) = 0.31124 0.31124
#
# Static dielectric constant tensor:
#      x y z
#    x 1.571410 0.000000 0.000000 
#    y 0.000000 1.571410 0.000000 
#    z 0.000000 0.000000 1.555530 
# 
# From -- ./inp_files/1231.got.cif
#   From: 2010.05.17/outbox.cif.g08.bks.cpg/sg175_1_cif.got.tgz:1231.got - 2010.05.20 11:23:22.
