data_PCOD9581765
_publ_section_title
;
Structure prediction by ZEFSAII (Michael W. Deem and Ramdas Pophale) SiO2 
 PCOD9581765
Probable space group: P 63/M
;
_chemical_formula_sum "Si O2"
_cell_formula_units_Z 96
_cell_length_a 24.292633
_cell_length_b 24.292633
_cell_length_c 10.903165
_cell_angle_alpha 90.000000
_cell_angle_beta 90.000000
_cell_angle_gamma 120.000000
_cell_volume 5572.273114
_symmetry_space_group_name_H-M "P 63/M"
_symmetry_group_IT_number 176
_symmetry_cell_setting 'hexagonal'
loop_
_space_group_symop_operation_xyz
x,y,z
x-y,x,1/2+z
-y,x-y,z
-x,-y,1/2+z
-x+y,-x,z
y,-x+y,1/2+z
-x,-y,-z
-x+y,-x,1/2-z
y,-x+y,-z
x,y,1/2-z
x-y,x,-z
-y,x-y,1/2-z
loop_
_atom_site_type_symbol
_atom_site_label
_atom_site_fract_x
_atom_site_fract_y
_atom_site_fract_z
Si Si1 0.208713 0.842943 0.888496
Si Si2 0.979197 0.661464 0.109545
Si Si3 0.662946 0.499958 0.538309
Si Si4 0.484604 0.724811 0.611273
Si Si5 0.535448 0.604342 0.035100
Si Si6 0.361382 0.797951 0.117645
Si Si7 0.763074 0.637389 0.887583
Si Si8 0.501018 0.061032 0.383383
O O1 0.181402 0.823584 0.750000
O O2 0.246502 0.919253 0.895302
O O3 0.259692 0.817688 0.898900
O O4 0.159917 0.810867 0.999868
O O5 0.979223 0.638528 0.250000
O O6 0.960608 0.607003 0.008669
O O7 0.049788 0.720285 0.090874
O O8 0.697844 0.489103 0.423225
O O9 0.621898 0.433170 0.606501
O O10 0.715966 0.560756 0.609571
O O11 0.612623 0.518476 0.487043
O O12 0.462694 0.704109 0.750000
O O13 0.441382 0.677836 0.503847
O O14 0.492329 0.573080 0.914169
O O15 0.501622 0.635496 0.109369
O O16 0.529875 0.544105 0.107108
O O17 0.333985 0.767728 0.250000
O O18 0.791040 0.654767 0.750000
O O19 0.495352 0.083095 0.250000
#
# Coordination Sequence:
#
# PCOD9581765 Si02
#       8
#    12  12  12  12  12  12  12  12
#     4   9  19  36  54  75 105 136 169 205 246 293
#     4  10  18  33  54  75 102 139 174 202 244 300
#     4  10  21  37  53  71  95 123 165 211 261 316
#     4  10  21  37  56  72  91 125 167 208 255 315
#     4  10  19  32  45  72 101 127 162 197 247 309
#     4  11  23  36  53  75  99 127 159 207 268 319
#     4  10  20  35  56  79 103 135 173 208 250 299
#     4  10  19  30  48  69  96 125 156 205 255 300
#
# _framework density 17.228159000000002
#
# number of rings (size 3 to 8) (size 9 to 14) (size 15 to 20)
#    0.000    2.000    2.500    1.500    0.000    5.500 
#    0.750    0.625    0.000    0.000    0.000    0.000 
#    0.000    0.000    0.000    0.375    0.000    4.500 
#
# Total GULP energy -535033.165971 kJ/mol
# GULP energy per Si atom -5573.262146 kJ/mol
# Density = 1.718895 g / cm^3
# Si number density = 17.228159 Si / 1000 Ang^3
#
#
#
# Elastic Constant Matrix: (Units=GPa)
#
#
# Indices 1 2 3 4 5 6 
#
# 1 45.8468 13.0680 31.5538 0.0000 0.0000 0.0000
# 2 13.0680 45.8468 31.5538 0.0000 0.0000 0.0000
# 3 31.5538 31.5538 123.5624 0.0000 0.0000 0.0000
# 4 0.0000 0.0000 0.0000 12.4446 0.0000 0.0000
# 5 0.0000 0.0000 0.0000 0.0000 12.4446 0.0000
# 6 0.0000 0.0000 0.0000 0.0000 0.0000 16.3894
#
#
#
# Elastic Compliance Matrix: (Units=1/GPa)
#
#
# Indices 1 2 3 4 5 6 
#
# 1 0.026936 -0.003571 -0.005967 0.000000 0.000000 0.000000
# 2 -0.003571 0.026936 -0.005967 0.000000 0.000000 0.000000
# 3 -0.005967 -0.005967 0.011140 0.000000 0.000000 0.000000
# 4 0.000000 0.000000 0.000000 0.080356 0.000000 0.000000
# 5 0.000000 0.000000 0.000000 0.000000 0.080356 0.000000
# 6 0.000000 0.000000 0.000000 0.000000 0.000000 0.061015
#
#
# Mechanical properties :
#
#
# Convention : Reuss Voigt Hill
#
# Bulk Modulus (GPa) = 29.40852 40.84525 35.12689
# Shear Modulus (GPa) = 15.19368 17.52775 16.36071
#
# Velocity S-wave (km/s) = 2.97292 3.19311 3.08498
# Velocity P-wave (km/s) = 5.37507 6.11184 5.75526
#
# Compressibility (1/GPa) = 0.03400375
#
# Stress axis : x y z
#
# Youngs Moduli (GPa) = 37.12476 37.12476 89.76302
#
# Poissons Ratio (x) = 0.13258 0.53558
# Poissons Ratio (y) = 0.13258 0.53558
# Poissons Ratio (z) = 0.22151 0.22151
#
# Static dielectric constant tensor:
#      x y z
#    x 1.597470 0.000000 0.000000 
#    y 0.000000 1.597470 0.000000 
#    z 0.000000 0.000000 1.639420 
# 
# From -- ./inp_files/2178.got.cif
#   From: 2010.05.17/outbox.cif.g08.bks.cpg/sg176_2_cif.got.tgz:2178.got - 2010.06.03 11:36:45.
