data_PCOD9581181
_publ_section_title
;
Structure prediction by ZEFSAII (Michael W. Deem and Ramdas Pophale) SiO2 
 PCOD9581181
Probable space group: P -6
;
_chemical_formula_sum "Si O2"
_cell_formula_units_Z 45
_cell_length_a 18.286888
_cell_length_b 18.286888
_cell_length_c 8.131538
_cell_angle_alpha 90.000000
_cell_angle_beta 90.000000
_cell_angle_gamma 120.000000
_cell_volume 2354.956761
_symmetry_space_group_name_H-M "P -6"
_symmetry_group_IT_number 174
_symmetry_cell_setting 'hexagonal'
loop_
_space_group_symop_operation_xyz
x,y,z
-x+y,-x,-z
-y,x-y,z
x,y,-z
-x+y,-x,z
-y,x-y,-z
loop_
_atom_site_type_symbol
_atom_site_label
_atom_site_fract_x
_atom_site_fract_y
_atom_site_fract_z
Si Si1 0.763391 0.751177 0.309145
Si Si2 0.165931 0.283124 0.810568
Si Si3 0.743498 0.167954 0.802642
Si Si4 0.538077 0.871753 0.809059
Si Si5 0.563040 0.045604 0.689477
Si Si6 0.834823 0.066794 0.693317
Si Si7 0.337843 0.573043 0.500000
Si Si8 0.435293 0.097664 0.808512
O O1 0.761161 0.726944 0.500000
O O2 0.732653 0.818110 0.292577
O O3 0.860542 0.788651 0.253454
O O4 0.704702 0.665301 0.212303
O O5 0.250288 0.371639 0.774204
O O6 0.186322 0.208233 0.784161
O O7 0.144197 0.285576 0.000000
O O8 0.647616 0.128677 0.748220
O O9 0.777543 0.109721 0.724821
O O10 0.809110 0.264281 0.754628
O O11 0.748101 0.162936 0.000000
O O12 0.474218 0.813978 0.665856
O O13 0.550179 0.964976 0.791635
O O14 0.514057 0.842973 0.000000
O O15 0.572835 0.028627 0.500000
O O16 0.485157 0.061262 0.710733
O O17 0.835849 0.049898 0.500000
O O18 0.255957 0.585607 0.500000
O O19 0.458091 0.101405 0.000000
#
# Coordination Sequence:
#
# PCOD9581181 Si02
#       8
#     6   6   6   6   6   6   3   6
#     4  10  22  39  60  89 123 159 200 253 315 376
#     4  11  23  38  62  93 122 164 213 259 312 377
#     4  10  20  37  61  88 120 160 202 251 309 372
#     4  11  24  43  69 101 131 170 224 273 327 394
#     4  12  23  38  64  94 127 167 216 267 315 382
#     4  10  20  36  60  88 119 158 198 247 306 365
#     4  10  26  48  68  98 132 170 216 268 342 400
#     4  10  22  40  61  88 124 162 204 256 317 380
#
# _framework density 19.108630999999999
#
# number of rings (size 3 to 8) (size 9 to 14) (size 15 to 20)
#    0.133    1.333    2.000    3.200    1.867    4.800 
#    1.600    1.333    0.000    0.000    0.000    0.000 
#    0.000    0.000    0.000    0.000    0.000    0.000 
#
# Total GULP energy -251276.441292 kJ/mol
# GULP energy per Si atom -5583.920918 kJ/mol
# Density = 1.906514 g / cm^3
# Si number density = 19.108631 Si / 1000 Ang^3
#
#
#
# Elastic Constant Matrix: (Units=GPa)
#
#
# Indices 1 2 3 4 5 6 
#
# 1 84.1254 37.4254 23.7978 0.0000 0.0000 0.0000
# 2 37.4254 84.1254 23.7978 0.0000 0.0000 0.0000
# 3 23.7978 23.7978 68.3490 0.0000 0.0000 0.0000
# 4 0.0000 0.0000 0.0000 26.7829 0.0000 0.0000
# 5 0.0000 0.0000 0.0000 0.0000 26.7829 0.0000
# 6 0.0000 0.0000 0.0000 0.0000 0.0000 23.3500
#
#
#
# Elastic Compliance Matrix: (Units=1/GPa)
#
#
# Indices 1 2 3 4 5 6 
#
# 1 0.015470 -0.005944 -0.003317 0.000000 0.000000 0.000000
# 2 -0.005944 0.015470 -0.003317 0.000000 0.000000 0.000000
# 3 -0.003317 -0.003317 0.016940 0.000000 0.000000 0.000000
# 4 0.000000 0.000000 0.000000 0.037337 0.000000 0.000000
# 5 0.000000 0.000000 0.000000 0.000000 0.037337 0.000000
# 6 0.000000 0.000000 0.000000 0.000000 0.000000 0.042827
#
#
# Mechanical properties :
#
#
# Convention : Reuss Voigt Hill
#
# Bulk Modulus (GPa) = 44.00412 45.18243 44.59327
# Shear Modulus (GPa) = 25.23852 25.48839 25.36345
#
# Velocity S-wave (km/s) = 3.63821 3.65618 3.64721
# Velocity P-wave (km/s) = 6.38178 6.44359 6.41276
#
# Compressibility (1/GPa) = 0.02272515
#
# Stress axis : x y z
#
# Youngs Moduli (GPa) = 64.64327 64.64327 59.03049
#
# Poissons Ratio (x) = 0.38423 0.19578
# Poissons Ratio (y) = 0.38423 0.19578
# Poissons Ratio (z) = 0.21440 0.21440
#
# Static dielectric constant tensor:
#      x y z
#    x 1.647620 0.000000 0.000000 
#    y 0.000000 1.647620 0.000000 
#    z 0.000000 0.000000 1.657010 
# 
# From -- ./inp_files/526.got.cif
#   From: 2010.05.17/outbox.cif.g08.bks.cpg/sg174_cif.got.tgz:526.got - 2010.05.20 11:22:48.
