data_PCOD9581600
_publ_section_title
;
Structure prediction by ZEFSAII (Michael W. Deem and Ramdas Pophale) SiO2 
 PCOD9581600
Probable space group: P 6/M
;
_chemical_formula_sum "Si O2"
_cell_formula_units_Z 48
_cell_length_a 10.631955
_cell_length_b 10.631955
_cell_length_c 22.881080
_cell_angle_alpha 90.000000
_cell_angle_beta 90.000000
_cell_angle_gamma 120.000000
_cell_volume 2239.924659
_symmetry_space_group_name_H-M "P 6/M"
_symmetry_group_IT_number 175
_symmetry_cell_setting 'hexagonal'
loop_
_space_group_symop_operation_xyz
x,y,z
x-y,x,z
-y,x-y,z
-x,-y,z
-x+y,-x,z
y,-x+y,z
-x,-y,-z
-x+y,-x,-z
y,-x+y,-z
x,y,-z
x-y,x,-z
-y,x-y,-z
loop_
_atom_site_type_symbol
_atom_site_label
_atom_site_fract_x
_atom_site_fract_y
_atom_site_fract_z
Si Si1 0.833724 0.341974 0.321752
Si Si2 0.744512 0.082643 0.871116
Si Si3 0.500000 0.000000 0.216037
Si Si4 0.667957 0.751069 0.000000
Si Si5 0.326517 0.063282 0.564087
O O1 0.798214 0.472916 0.322666
O O2 0.912099 0.365164 0.260273
O O3 0.910084 0.337175 0.380481
O O4 0.715221 0.916353 0.865195
O O5 0.638172 0.095937 0.824885
O O6 0.696711 0.100830 0.936809
O O7 0.725891 0.921755 0.000000
O O8 0.279924 0.185477 0.566835
O O9 0.397143 0.078853 0.500000
#
# Coordination Sequence:
#
# PCOD9581600 Si02
#       5
#    12  12   6   6  12
#     4  10  23  39  59  82 117 160 202 242 295 359
#     4  10  21  38  63  92 122 159 205 259 314 372
#     4  12  22  39  59  88 124 164 208 250 308 362
#     4   8  15  31  56  88 122 154 195 251 316 374
#     4  10  21  39  64  93 122 153 194 248 307 361
#
# _framework density 21.429293000000001
#
# number of rings (size 3 to 8) (size 9 to 14) (size 15 to 20)
#    0.500    1.500    0.000    3.625    0.000    4.500 
#    1.500    3.125    0.000    3.000    0.000    0.000 
#    0.000    0.000    0.000    0.000    0.000    0.000 
#
# Total GULP energy -267611.743925 kJ/mol
# GULP energy per Si atom -5575.244665 kJ/mol
# Density = 2.138052 g / cm^3
# Si number density = 21.429293 Si / 1000 Ang^3
#
#
#
# Elastic Constant Matrix: (Units=GPa)
#
#
# Indices 1 2 3 4 5 6 
#
# 1 37.1295 11.9724 48.1124 0.0000 0.0000 0.0000
# 2 11.9724 37.1295 48.1124 0.0000 0.0000 0.0000
# 3 48.1124 48.1124 213.3415 0.0000 0.0000 0.0000
# 4 0.0000 0.0000 0.0000 23.4342 0.0000 0.0000
# 5 0.0000 0.0000 0.0000 0.0000 23.4342 0.0000
# 6 0.0000 0.0000 0.0000 0.0000 0.0000 12.5786
#
#
#
# Elastic Compliance Matrix: (Units=1/GPa)
#
#
# Indices 1 2 3 4 5 6 
#
# 1 0.038122 -0.001628 -0.008230 0.000000 0.000000 0.000000
# 2 -0.001628 0.038122 -0.008230 0.000000 0.000000 0.000000
# 3 -0.008230 -0.008230 0.008399 0.000000 0.000000 0.000000
# 4 0.000000 0.000000 0.000000 0.042673 0.000000 0.000000
# 5 0.000000 0.000000 0.000000 0.000000 0.042673 0.000000
# 6 0.000000 0.000000 0.000000 0.000000 0.000000 0.079500
#
#
# Mechanical properties :
#
#
# Convention : Reuss Voigt Hill
#
# Bulk Modulus (GPa) = 20.63232 55.99942 38.31587
# Shear Modulus (GPa) = 16.56605 23.84961 20.20783
#
# Velocity S-wave (km/s) = 2.78341 3.33970 3.07416
# Velocity P-wave (km/s) = 4.46976 6.40784 5.52445
#
# Compressibility (1/GPa) = 0.04846766
#
# Stress axis : x y z
#
# Youngs Moduli (GPa) = 26.23135 26.23135 119.05585
#
# Poissons Ratio (x) = 0.04270 0.97985
# Poissons Ratio (y) = 0.04270 0.97985
# Poissons Ratio (z) = 0.21589 0.21589
#
# Static dielectric constant tensor:
#      x y z
#    x 1.792070 0.000000 0.000000 
#    y 0.000000 1.792070 0.000000 
#    z 0.000000 0.000000 1.814260 
# 
# From -- ./inp_files/3027.got.cif
#   From: 2010.05.17/outbox.cif.g08.bks.cpg/sg175_2_cif.got.tgz:3027.got - 2010.05.20 11:23:22.
