data_PCOD9581082
_publ_section_title
;
Structure prediction by ZEFSAII (Michael W. Deem and Ramdas Pophale) SiO2 
 PCOD9581082
Probable space group: P 63
;
_chemical_formula_sum "Si O2"
_cell_formula_units_Z 36
_cell_length_a 11.871784
_cell_length_b 11.871784
_cell_length_c 13.451471
_cell_angle_alpha 90.000000
_cell_angle_beta 90.000000
_cell_angle_gamma 120.000000
_cell_volume 1641.845867
_symmetry_space_group_name_H-M "P 63"
_symmetry_group_IT_number 173
_symmetry_cell_setting 'hexagonal'
loop_
_space_group_symop_operation_xyz
x,y,z
x-y,x,1/2+z
-y,x-y,z
-x,-y,1/2+z
-x+y,-x,z
y,-x+y,1/2+z
loop_
_atom_site_type_symbol
_atom_site_label
_atom_site_fract_x
_atom_site_fract_y
_atom_site_fract_z
Si Si1 0.404787 0.829948 0.047680
Si Si2 0.936939 0.477329 0.325298
Si Si3 0.149667 0.786554 0.556813
Si Si4 0.028063 0.761234 0.772691
Si Si5 0.897427 0.475550 0.114148
Si Si6 0.031085 0.766481 0.347377
O O1 0.254270 0.728655 0.066145
O O2 0.464406 0.953417 0.116239
O O3 0.418237 0.869263 0.932325
O O4 0.031635 0.633259 0.321950
O O5 0.984650 0.372758 0.314089
O O6 0.848712 0.454747 0.227252
O O7 0.076127 0.778904 0.658610
O O8 0.299525 0.896662 0.565018
O O9 0.166372 0.658339 0.554387
O O10 0.074750 0.794200 0.462177
O O11 0.891654 0.756550 0.786295
O O12 0.144041 0.886376 0.829089
#
# Coordination Sequence:
#
# PCOD9581082 Si02
#       6
#     6   6   6   6   6   6
#     4  10  23  40  71 101 136 181 236 292 357 428
#     4  11  23  45  72 104 142 188 243 299 362 437
#     4  11  25  43  74 107 145 198 244 302 375 441
#     4  11  27  48  72 109 151 200 248 307 380 445
#     4  11  23  43  67 107 139 186 239 303 359 440
#     4  12  25  49  74 108 151 195 252 309 371 447
#
# _framework density 21.926539999999999
#
# number of rings (size 3 to 8) (size 9 to 14) (size 15 to 20)
#    0.333    0.667    3.333    2.667    2.333    4.000 
#    2.000    0.000    0.000    0.000    0.000    0.000 
#    0.000    0.000    0.000    0.000    0.000    0.000 
#
# Total GULP energy -200985.884662 kJ/mol
# GULP energy per Si atom -5582.941241 kJ/mol
# Density = 2.187663 g / cm^3
# Si number density = 21.926540 Si / 1000 Ang^3
#
#
#
# Elastic Constant Matrix: (Units=GPa)
#
#
# Indices 1 2 3 4 5 6 
#
# 1 97.6693 30.3931 22.5389 0.0000 0.0000 0.0000
# 2 30.3931 97.6693 22.5389 0.0000 0.0000 0.0000
# 3 22.5389 22.5389 94.6550 0.0000 0.0000 0.0000
# 4 0.0000 0.0000 0.0000 26.9936 0.0000 0.0000
# 5 0.0000 0.0000 0.0000 0.0000 26.9936 0.0000
# 6 0.0000 0.0000 0.0000 0.0000 0.0000 33.6381
#
#
#
# Elastic Compliance Matrix: (Units=1/GPa)
#
#
# Indices 1 2 3 4 5 6 
#
# 1 0.011694 -0.003171 -0.002029 0.000000 0.000000 0.000000
# 2 -0.003171 0.011694 -0.002029 0.000000 0.000000 0.000000
# 3 -0.002029 -0.002029 0.011531 0.000000 0.000000 0.000000
# 4 0.000000 0.000000 0.000000 0.037046 0.000000 0.000000
# 5 0.000000 0.000000 0.000000 0.000000 0.037046 0.000000
# 6 0.000000 0.000000 0.000000 0.000000 0.000000 0.029728
#
#
# Mechanical properties :
#
#
# Convention : Reuss Voigt Hill
#
# Bulk Modulus (GPa) = 48.87732 48.99285 48.93508
# Shear Modulus (GPa) = 31.24670 31.82658 31.53664
#
# Velocity S-wave (km/s) = 3.77910 3.81400 3.79659
# Velocity P-wave (km/s) = 6.43287 6.46437 6.44864
#
# Compressibility (1/GPa) = 0.02045939
#
# Stress axis : x y z
#
# Youngs Moduli (GPa) = 85.51698 85.51698 86.72129
#
# Poissons Ratio (x) = 0.27113 0.17600
# Poissons Ratio (y) = 0.27113 0.17600
# Poissons Ratio (z) = 0.17356 0.17356
#
# Static dielectric constant tensor:
#      x y z
#    x 1.833760 0.000000 0.000000 
#    y 0.000000 1.833760 0.000000 
#    z 0.000000 0.000000 1.794870 
# 
# From -- ./inp_files/1086.got.cif
#   From: 2010.05.17/outbox.cif.g08.bks.cpg/sg173_cif.got.tgz:1086.got - 2010.05.20 11:21:53.
