data_PCOD9581924
_publ_section_title
;
Structure prediction by ZEFSAII (Michael W. Deem and Ramdas Pophale) SiO2 
 PCOD9581924
Probable space group: P 63/M
;
_chemical_formula_sum "Si O2"
_cell_formula_units_Z 60
_cell_length_a 15.091938
_cell_length_b 15.091938
_cell_length_c 14.393021
_cell_angle_alpha 90.000000
_cell_angle_beta 90.000000
_cell_angle_gamma 120.000000
_cell_volume 2839.047217
_symmetry_space_group_name_H-M "P 63/M"
_symmetry_group_IT_number 176
_symmetry_cell_setting 'hexagonal'
loop_
_space_group_symop_operation_xyz
x,y,z
x-y,x,1/2+z
-y,x-y,z
-x,-y,1/2+z
-x+y,-x,z
y,-x+y,1/2+z
-x,-y,-z
-x+y,-x,1/2-z
y,-x+y,-z
x,y,1/2-z
x-y,x,-z
-y,x-y,1/2-z
loop_
_atom_site_type_symbol
_atom_site_label
_atom_site_fract_x
_atom_site_fract_y
_atom_site_fract_z
Si Si1 0.865061 0.064575 0.856675
Si Si2 0.098522 0.423539 0.150599
Si Si3 0.517214 0.085406 0.421799
Si Si4 0.838230 0.073011 0.363204
Si Si5 0.257078 0.802197 0.955598
O O1 0.897457 0.064658 0.750000
O O2 0.759111 0.063308 0.856546
O O3 0.954215 0.173084 0.891321
O O4 0.841338 0.955558 0.892953
O O5 0.151445 0.463302 0.250000
O O6 0.994603 0.428500 0.149047
O O7 0.170418 0.470264 0.061107
O O8 0.487177 0.170936 0.448591
O O9 0.637089 0.152200 0.397201
O O10 0.500000 0.000000 0.500000
O O11 0.833412 0.087426 0.250000
O O12 0.793793 0.132826 0.419366
#
# Coordination Sequence:
#
# PCOD9581924 Si02
#       5
#    12  12  12  12  12
#     4   9  18  33  56  89 131 169 202 253 324 398
#     4  10  22  41  63  90 129 169 213 273 337 397
#     4  10  23  42  65  96 129 174 224 283 331 392
#     4  10  20  35  61  99 136 171 214 269 329 403
#     4  11  23  41  67  93 131 175 227 273 335 396
#
# _framework density 21.133852000000001
#
# number of rings (size 3 to 8) (size 9 to 14) (size 15 to 20)
#    0.000    2.000    2.000    0.800    5.600    2.400 
#    0.000    4.000    0.000    4.800    0.000    0.000 
#    0.000    0.000    0.000    0.000    0.000    0.000 
#
# Total GULP energy -334215.356161 kJ/mol
# GULP energy per Si atom -5570.255936 kJ/mol
# Density = 2.108575 g / cm^3
# Si number density = 21.133852 Si / 1000 Ang^3
#
#
#
# Elastic Constant Matrix: (Units=GPa)
#
#
# Indices 1 2 3 4 5 6 
#
# 1 93.3711 60.8044 16.1012 0.0000 0.0000 0.0000
# 2 60.8044 93.3711 16.1012 0.0000 0.0000 0.0000
# 3 16.1012 16.1012 79.0893 0.0000 0.0000 0.0000
# 4 0.0000 0.0000 0.0000 9.2303 0.0000 0.0000
# 5 0.0000 0.0000 0.0000 0.0000 9.2303 0.0000
# 6 0.0000 0.0000 0.0000 0.0000 0.0000 16.2834
#
#
#
# Elastic Compliance Matrix: (Units=1/GPa)
#
#
# Indices 1 2 3 4 5 6 
#
# 1 0.018740 -0.011966 -0.001379 0.000000 0.000000 0.000000
# 2 -0.011966 0.018740 -0.001379 0.000000 0.000000 0.000000
# 3 -0.001379 -0.001379 0.013205 0.000000 0.000000 0.000000
# 4 0.000000 0.000000 0.000000 0.108339 0.000000 0.000000
# 5 0.000000 0.000000 0.000000 0.000000 0.108339 0.000000
# 6 0.000000 0.000000 0.000000 0.000000 0.000000 0.061412
#
#
# Mechanical properties :
#
#
# Convention : Reuss Voigt Hill
#
# Bulk Modulus (GPa) = 47.08681 50.20503 48.64592
# Shear Modulus (GPa) = 13.68724 18.47043 16.07883
#
# Velocity S-wave (km/s) = 2.54765 2.95951 2.76127
# Velocity P-wave (km/s) = 5.56621 5.95698 5.76490
#
# Compressibility (1/GPa) = 0.02123737
#
# Stress axis : x y z
#
# Youngs Moduli (GPa) = 53.36126 53.36126 75.72628
#
# Poissons Ratio (x) = 0.63852 0.10443
# Poissons Ratio (y) = 0.63852 0.10443
# Poissons Ratio (z) = 0.07359 0.07359
#
# Static dielectric constant tensor:
#      x y z
#    x 1.766730 0.000000 0.000000 
#    y 0.000000 1.766730 0.000000 
#    z 0.000000 0.000000 1.865070 
# 
# From -- ./inp_files/2631.got.cif
#   From: 2010.05.17/outbox.cif.g08.bks.cpg/sg176_2_cif.got.tgz:2631.got - 2010.06.03 11:36:45.
