data_PCOD9581774
_publ_section_title
;
Structure prediction by ZEFSAII (Michael W. Deem and Ramdas Pophale) SiO2 
 PCOD9581774
Probable space group: P 63/M
;
_chemical_formula_sum "Si O2"
_cell_formula_units_Z 60
_cell_length_a 11.136031
_cell_length_b 11.136031
_cell_length_c 25.819029
_cell_angle_alpha 90.000000
_cell_angle_beta 90.000000
_cell_angle_gamma 120.000000
_cell_volume 2772.882070
_symmetry_space_group_name_H-M "P 63/M"
_symmetry_group_IT_number 176
_symmetry_cell_setting 'hexagonal'
loop_
_space_group_symop_operation_xyz
x,y,z
x-y,x,1/2+z
-y,x-y,z
-x,-y,1/2+z
-x+y,-x,z
y,-x+y,1/2+z
-x,-y,-z
-x+y,-x,1/2-z
y,-x+y,-z
x,y,1/2-z
x-y,x,-z
-y,x-y,1/2-z
loop_
_atom_site_type_symbol
_atom_site_label
_atom_site_fract_x
_atom_site_fract_y
_atom_site_fract_z
Si Si1 0.651126 0.909555 0.750000
Si Si2 0.407211 0.982713 0.750000
Si Si3 0.270861 0.033222 0.473528
Si Si4 0.407713 0.983537 0.637253
Si Si5 0.350831 0.519352 0.461909
Si Si6 0.346417 0.088747 0.137435
O O1 0.523276 0.937649 0.750000
O O2 0.591379 0.744599 0.750000
O O3 0.722991 0.961094 0.694175
O O4 0.420523 0.052012 0.694116
O O5 0.532136 0.320000 0.537412
O O6 0.162321 0.907468 0.507963
O O7 0.253053 0.012684 0.412186
O O8 0.429564 0.083768 0.489265
O O9 0.518848 0.930236 0.636161
O O10 0.251722 0.855774 0.631914
O O11 0.446464 0.088733 0.590106
#
# Coordination Sequence:
#
# PCOD9581774 Si02
#       6
#     6   6  12  12  12  12
#     4   8  15  30  48  86 114 154 195 245 293 347
#     4   8  15  26  54  80 122 152 197 247 301 345
#     4  12  25  42  63  89 120 158 202 252 302 365
#     4  10  18  36  55  92 119 160 199 251 301 358
#     4  10  24  40  57  83 127 158 197 243 301 370
#     4  10  20  32  61  85 123 154 199 248 300 349
#
# _framework density 21.638134999999998
#
# number of rings (size 3 to 8) (size 9 to 14) (size 15 to 20)
#    0.400    1.600    2.000    2.000    2.800    4.800 
#    0.000    1.000    0.000    2.400    0.000    0.000 
#    0.000    0.000    0.000    0.000    0.000    0.000 
#
# Total GULP energy -334824.183948 kJ/mol
# GULP energy per Si atom -5580.403066 kJ/mol
# Density = 2.158889 g / cm^3
# Si number density = 21.638135 Si / 1000 Ang^3
#
#
#
# Elastic Constant Matrix: (Units=GPa)
#
#
# Indices 1 2 3 4 5 6 
#
# 1 52.4313 10.9597 22.8856 0.0000 0.0000 0.0000
# 2 10.9597 52.4313 22.8856 0.0000 0.0000 0.0000
# 3 22.8856 22.8856 193.9479 0.0000 0.0000 0.0000
# 4 0.0000 0.0000 0.0000 23.6666 0.0000 0.0000
# 5 0.0000 0.0000 0.0000 0.0000 23.6666 0.0000
# 6 0.0000 0.0000 0.0000 0.0000 0.0000 20.7358
#
#
#
# Elastic Compliance Matrix: (Units=1/GPa)
#
#
# Indices 1 2 3 4 5 6 
#
# 1 0.020679 -0.003434 -0.002035 0.000000 0.000000 0.000000
# 2 -0.003434 0.020679 -0.002035 0.000000 0.000000 0.000000
# 3 -0.002035 -0.002035 0.005636 0.000000 0.000000 0.000000
# 4 0.000000 0.000000 0.000000 0.042254 0.000000 0.000000
# 5 0.000000 0.000000 0.000000 0.000000 0.042254 0.000000
# 6 0.000000 0.000000 0.000000 0.000000 0.000000 0.048226
#
#
# Mechanical properties :
#
#
# Convention : Reuss Voigt Hill
#
# Bulk Modulus (GPa) = 31.26398 45.80801 38.53599
# Shear Modulus (GPa) = 24.34321 29.75245 27.04783
#
# Velocity S-wave (km/s) = 3.35776 3.71212 3.53938
# Velocity P-wave (km/s) = 5.43256 6.29199 5.87800
#
# Compressibility (1/GPa) = 0.03198569
#
# Stress axis : x y z
#
# Youngs Moduli (GPa) = 48.35918 48.35918 177.42352
#
# Poissons Ratio (x) = 0.16608 0.36102
# Poissons Ratio (y) = 0.16608 0.36102
# Poissons Ratio (z) = 0.09840 0.09840
#
# Static dielectric constant tensor:
#      x y z
#    x 1.797470 0.000000 0.000000 
#    y 0.000000 1.797470 0.000000 
#    z 0.000000 0.000000 1.826860 
# 
# From -- ./inp_files/4262.got.cif
#   From: 2010.05.17/outbox.cif.g08.bks.cpg/sg176_3_cif.got.tgz:4262.got - 2010.06.03 11:36:45.
