data_PCOD9581299
_publ_section_title
;
Structure prediction by ZEFSAII (Michael W. Deem and Ramdas Pophale) SiO2 
 PCOD9581299
Probable space group: P 6/M
;
_chemical_formula_sum "Si O2"
_cell_formula_units_Z 68
_cell_length_a 13.271654
_cell_length_b 13.271654
_cell_length_c 26.437749
_cell_angle_alpha 90.000000
_cell_angle_beta 90.000000
_cell_angle_gamma 120.000000
_cell_volume 4032.786294
_symmetry_space_group_name_H-M "P 6/M"
_symmetry_group_IT_number 175
_symmetry_cell_setting 'hexagonal'
loop_
_space_group_symop_operation_xyz
x,y,z
x-y,x,z
-y,x-y,z
-x,-y,z
-x+y,-x,z
y,-x+y,z
-x,-y,-z
-x+y,-x,-z
y,-x+y,-z
x,y,-z
x-y,x,-z
-y,x-y,-z
loop_
_atom_site_type_symbol
_atom_site_label
_atom_site_fract_x
_atom_site_fract_y
_atom_site_fract_z
Si Si1 0.969229 0.224336 0.391151
Si Si2 0.666667 0.333334 0.798832
Si Si3 0.666667 0.333334 0.921515
Si Si4 0.743871 0.969103 0.500000
Si Si5 0.745221 0.969108 0.719620
Si Si6 0.362660 0.450754 0.199914
Si Si7 0.361821 0.449508 0.919025
Si Si8 0.745273 0.968240 0.000000
O O1 0.961974 0.276826 0.445459
O O2 0.962527 0.272690 0.336222
O O3 0.091602 0.226904 0.391245
O O4 0.666668 0.333334 0.860170
O O5 0.665070 0.448902 0.783338
O O6 0.784514 0.335033 0.936515
O O7 0.771709 0.863869 0.500000
O O8 0.771793 0.863665 0.722806
O O9 0.659838 0.955701 0.764618
O O10 0.500000 0.500000 0.203505
O O11 0.331623 0.425352 0.140484
O O12 0.500000 0.500000 0.924456
O O13 0.290398 0.334784 0.951866
O O14 0.771039 0.862466 0.000000
#
# Coordination Sequence:
#
# PCOD9581299 Si02
#       8
#    12   4   4   6  12  12  12   6
#     4   8  13  20  32  53  83 119 157 195 236 282
#     4   9  18  33  52  76 102 127 160 204 247 287
#     4   9  18  34  58  84 105 126 160 205 250 290
#     4   8  11  16  28  48  77 114 154 194 235 280
#     4  10  19  30  45  68  99 133 166 200 240 291
#     4  10  20  35  55  76 100 129 162 203 249 293
#     4  10  21  38  59  82 104 128 161 204 251 294
#     4  12  26  42  58  78 107 140 170 198 232 282
#
# _framework density 16.861789999999999
#
# number of rings (size 3 to 8) (size 9 to 14) (size 15 to 20)
#    0.000    2.471    0.000    2.912    0.000    7.765 
#    0.000    0.000    0.000    2.118    0.000    0.618 
#    0.000    1.412    0.000    0.265    0.000    0.088 
#
# Total GULP energy -378795.969474 kJ/mol
# GULP energy per Si atom -5570.528963 kJ/mol
# Density = 1.682341 g / cm^3
# Si number density = 16.861790 Si / 1000 Ang^3
#
#
#
# Elastic Constant Matrix: (Units=GPa)
#
#
# Indices 1 2 3 4 5 6 
#
# 1 62.4250 17.8081 53.9266 0.0000 0.0000 -0.0001
# 2 17.8081 62.4254 53.9266 0.0000 0.0000 -0.0005
# 3 53.9266 53.9266 138.6323 0.0000 0.0000 0.0001
# 4 0.0000 0.0000 0.0000 -28.8209 0.0031 0.0000
# 5 0.0000 0.0000 0.0000 0.0031 -28.8198 0.0000
# 6 -0.0001 -0.0005 0.0001 0.0000 0.0000 22.3085
#
#
#
# Elastic Compliance Matrix: (Units=1/GPa)
#
#
# Indices 1 2 3 4 5 6 
#
# 1 0.024268 0.001855 -0.010162 0.000000 0.000000 0.000000
# 2 0.001855 0.024268 -0.010162 0.000000 0.000000 0.000001
# 3 -0.010162 -0.010162 0.015119 0.000000 0.000000 0.000000
# 4 0.000000 0.000000 0.000000 -0.034697 -0.000004 0.000000
# 5 0.000000 0.000000 0.000000 -0.000004 -0.034698 0.000000
# 6 0.000000 0.000001 0.000000 0.000000 0.000000 0.044826
#
#
# Mechanical properties :
#
#
# Convention : Reuss Voigt Hill
#
# Bulk Modulus (GPa) = 37.42659 57.20060 47.31360
# Shear Modulus (GPa) = 58.87261 2.12165 30.49713
#
# Velocity S-wave (km/s) = 5.91529 1.12294 4.25744
# Velocity P-wave (km/s) = 8.30051 5.97312 7.23106
#
# Compressibility (1/GPa) = 0.02671897
#
# Stress axis : x y z
#
# Youngs Moduli (GPa) = 41.20585 41.20624 66.14176
#
# Poissons Ratio (x) = -0.07645 0.67213
# Poissons Ratio (y) = -0.07645 0.67212
# Poissons Ratio (z) = 0.41873 0.41873
#
# Static dielectric constant tensor:
#      x y z
#    x 1.544450 0.000000 0.000000 
#    y 0.000000 1.544450 0.000000 
#    z 0.000000 0.000000 1.636460 
# 
# From -- ./inp_files/3377.got.cif
#   From: 2010.05.17/outbox.cif.g08.bks.cpg/sg175_2_cif.got.tgz:3377.got - 2010.05.20 11:23:22.
