data_PCOD9581902
_publ_section_title
;
Structure prediction by ZEFSAII (Michael W. Deem and Ramdas Pophale) SiO2 
 PCOD9581902
Probable space group: P 63/M
;
_chemical_formula_sum "Si O2"
_cell_formula_units_Z 72
_cell_length_a 12.687192
_cell_length_b 12.687192
_cell_length_c 31.249796
_cell_angle_alpha 90.000000
_cell_angle_beta 90.000000
_cell_angle_gamma 120.000000
_cell_volume 4356.210353
_symmetry_space_group_name_H-M "P 63/M"
_symmetry_group_IT_number 176
_symmetry_cell_setting 'hexagonal'
loop_
_space_group_symop_operation_xyz
x,y,z
x-y,x,1/2+z
-y,x-y,z
-x,-y,1/2+z
-x+y,-x,z
y,-x+y,1/2+z
-x,-y,-z
-x+y,-x,1/2-z
y,-x+y,-z
x,y,1/2-z
x-y,x,-z
-y,x-y,1/2-z
loop_
_atom_site_type_symbol
_atom_site_label
_atom_site_fract_x
_atom_site_fract_y
_atom_site_fract_z
Si Si1 0.000485 0.750087 0.250000
Si Si2 0.416068 0.082686 0.083402
Si Si3 0.082686 0.416068 0.583402
Si Si4 0.000000 0.250641 0.500000
Si Si5 0.250398 0.249913 0.750000
Si Si6 0.082415 0.415965 0.333082
Si Si7 0.584035 0.917585 0.166918
O O1 0.871171 0.742342 0.250000
O O2 0.109829 0.890171 0.250000
O O3 0.019706 0.688532 0.207973
O O4 0.548100 0.096200 0.077538
O O5 0.427197 0.213598 0.089665
O O6 0.333738 0.022595 0.041603
O O7 0.355344 0.998367 0.124742
O O8 0.022595 0.333738 0.541603
O O9 0.998367 0.355344 0.624742
O O10 0.119138 0.238277 0.494008
O O11 0.331174 0.311468 0.792027
O O12 0.214467 0.428935 0.338131
O O13 0.094534 0.547267 0.326708
#
# Coordination Sequence:
#
# PCOD9581902 Si02
#       7
#     6  12  12  12   6  12  12
#     4  10  20  34  52  74 100 130 164 202 244 290
#     4  10  20  34  52  74 101 133 168 206 249 298
#     4  10  20  34  52  74 101 133 168 206 249 298
#     4  10  20  34  52  74 100 130 166 208 254 302
#     4  10  20  34  52  74 100 130 164 202 244 290
#     4  10  20  34  53  76 102 132 166 205 248 294
#     4  10  20  34  53  76 102 132 166 205 248 294
#
# _framework density 16.528126
#
# number of rings (size 3 to 8) (size 9 to 14) (size 15 to 20)
#    0.000    2.000    0.000    4.000    0.000    0.000 
#    0.000    1.667    0.000   26.000    0.000    0.000 
#    0.000    0.000    0.000    0.000    0.000    0.000 
#
# Total GULP energy -402010.009780 kJ/mol
# GULP energy per Si atom -5583.472358 kJ/mol
# Density = 1.649051 g / cm^3
# Si number density = 16.528126 Si / 1000 Ang^3
#
#
#
# Elastic Constant Matrix: (Units=GPa)
#
#
# Indices 1 2 3 4 5 6 
#
# 1 149.2801 110.0797 112.0464 0.0000 0.0000 0.0000
# 2 110.0797 149.2801 112.0464 0.0000 0.0000 0.0000
# 3 112.0464 112.0464 156.6425 0.0000 0.0000 0.0000
# 4 0.0000 0.0000 0.0000 26.5289 0.0000 0.0000
# 5 0.0000 0.0000 0.0000 0.0000 26.5289 0.0000
# 6 0.0000 0.0000 0.0000 0.0000 0.0000 19.6002
#
#
#
# Elastic Compliance Matrix: (Units=1/GPa)
#
#
# Indices 1 2 3 4 5 6 
#
# 1 0.017802 -0.007708 -0.007220 0.000000 0.000000 0.000000
# 2 -0.007708 0.017802 -0.007220 0.000000 0.000000 0.000000
# 3 -0.007220 -0.007220 0.016714 0.000000 0.000000 0.000000
# 4 0.000000 0.000000 0.000000 0.037695 0.000000 0.000000
# 5 0.000000 0.000000 0.000000 0.000000 0.037695 0.000000
# 6 0.000000 0.000000 0.000000 0.000000 0.000000 0.051020
#
#
# Mechanical properties :
#
#
# Convention : Reuss Voigt Hill
#
# Bulk Modulus (GPa) = 124.68323 124.83863 124.76093
# Shear Modulus (GPa) = 22.15351 22.60029 22.37690
#
# Velocity S-wave (km/s) = 3.66505 3.70183 3.68349
# Velocity P-wave (km/s) = 9.67010 9.69362 9.68187
#
# Compressibility (1/GPa) = 0.00802032
#
# Stress axis : x y z
#
# Youngs Moduli (GPa) = 56.17309 56.17309 59.83178
#
# Poissons Ratio (x) = 0.43297 0.43201
# Poissons Ratio (y) = 0.43297 0.43201
# Poissons Ratio (z) = 0.40559 0.40559
#
# Static dielectric constant tensor:
#      x y z
#    x 1.523840 0.000000 0.000000 
#    y 0.000000 1.523840 0.000000 
#    z 0.000000 0.000000 1.529510 
# 
# From -- ./inp_files/4513.got.cif
#   From: 2010.05.17/outbox.cif.g08.bks.cpg/sg176_3_cif.got.tgz:4513.got - 2010.06.03 11:36:45.
