data_PCOD9581973
_publ_section_title
;
Structure prediction by ZEFSAII (Michael W. Deem and Ramdas Pophale) SiO2 
 PCOD9581973
Probable space group: P 63/M
;
_chemical_formula_sum "Si O2"
_cell_formula_units_Z 42
_cell_length_a 8.344466
_cell_length_b 8.344466
_cell_length_c 28.414795
_cell_angle_alpha 90.000000
_cell_angle_beta 90.000000
_cell_angle_gamma 120.000000
_cell_volume 1713.453243
_symmetry_space_group_name_H-M "P 63/M"
_symmetry_group_IT_number 176
_symmetry_cell_setting 'hexagonal'
loop_
_space_group_symop_operation_xyz
x,y,z
x-y,x,1/2+z
-y,x-y,z
-x,-y,1/2+z
-x+y,-x,z
y,-x+y,1/2+z
-x,-y,-z
-x+y,-x,1/2-z
y,-x+y,-z
x,y,1/2-z
x-y,x,-z
-y,x-y,1/2-z
loop_
_atom_site_type_symbol
_atom_site_label
_atom_site_fract_x
_atom_site_fract_y
_atom_site_fract_z
Si Si1 0.456335 0.134230 0.750000
Si Si2 0.338663 0.036030 0.104845
Si Si3 0.703788 0.050004 0.481750
Si Si4 0.332122 0.343587 0.355626
O O1 0.656966 0.151896 0.750000
O O2 0.380267 0.062168 0.801365
O O3 0.807481 0.626785 0.060800
O O4 0.138915 0.866735 0.119381
O O5 0.388935 0.187872 0.144885
O O6 0.482724 0.962412 0.112219
O O7 0.851219 0.163123 0.523267
O O8 0.500000 0.000000 0.500000
#
# Coordination Sequence:
#
# PCOD9581973 Si02
#       4
#     6  12  12  12
#     4  10  20  46  80 118 166 218 274 336 428 502
#     4  12  26  48  79 120 164 216 282 346 425 508
#     4  12  27  51  82 119 161 218 277 354 425 505
#     4  12  25  47  79 120 164 221 273 351 418 510
#
# _framework density 24.511901999999999
#
# number of rings (size 3 to 8) (size 9 to 14) (size 15 to 20)
#    0.286    0.000    2.857    6.000    0.000    2.286 
#    0.000    5.714    0.000    0.000    0.000    0.000 
#    0.000    0.000    0.000    0.000    0.000    0.000 
#
# Total GULP energy -233830.891168 kJ/mol
# GULP energy per Si atom -5567.402171 kJ/mol
# Density = 2.445611 g / cm^3
# Si number density = 24.511902 Si / 1000 Ang^3
#
#
#
# Elastic Constant Matrix: (Units=GPa)
#
#
# Indices 1 2 3 4 5 6 
#
# 1 143.7853 31.1759 54.8012 0.0000 0.0000 0.0000
# 2 31.1759 143.7853 54.8012 0.0000 0.0000 0.0000
# 3 54.8012 54.8012 223.0999 0.0000 0.0000 0.0000
# 4 0.0000 0.0000 0.0000 -4.9344 0.0000 0.0000
# 5 0.0000 0.0000 0.0000 0.0000 -4.9344 0.0000
# 6 0.0000 0.0000 0.0000 0.0000 0.0000 56.3047
#
#
#
# Elastic Compliance Matrix: (Units=1/GPa)
#
#
# Indices 1 2 3 4 5 6 
#
# 1 0.007818 -0.001063 -0.001659 0.000000 0.000000 0.000000
# 2 -0.001063 0.007818 -0.001659 0.000000 0.000000 0.000000
# 3 -0.001659 -0.001659 0.005297 0.000000 0.000000 0.000000
# 4 0.000000 0.000000 0.000000 -0.202659 0.000000 0.000000
# 5 0.000000 0.000000 0.000000 0.000000 -0.202659 0.000000
# 6 0.000000 0.000000 0.000000 0.000000 0.000000 0.017761
#
#
# Mechanical properties :
#
#
# Convention : Reuss Voigt Hill
#
# Bulk Modulus (GPa) = 82.16691 88.02527 85.09609
# Shear Modulus (GPa) = -14.13205 33.94666 9.90730
#
# Velocity S-wave (km/s) = -2.40373 3.72547 2.01261
# Velocity P-wave (km/s) = 5.08823 7.38205 6.33975
#
# Compressibility (1/GPa) = 0.01217035
#
# Stress axis : x y z
#
# Youngs Moduli (GPa) = 127.91625 127.91625 188.77034
#
# Poissons Ratio (x) = 0.13593 0.31322
# Poissons Ratio (y) = 0.13593 0.31322
# Poissons Ratio (z) = 0.21225 0.21225
#
# Static dielectric constant tensor:
#      x y z
#    x 1.983740 0.000000 0.000000 
#    y 0.000000 1.983740 0.000000 
#    z 0.000000 0.000000 2.134260 
# 
# From -- ./inp_files/4420.got.cif
#   From: 2010.05.17/outbox.cif.g08.bks.cpg/sg176_3_cif.got.tgz:4420.got - 2010.06.03 11:36:45.
