data_PCOD9581545
_publ_section_title
;
Structure prediction by ZEFSAII (Michael W. Deem and Ramdas Pophale) SiO2 
 PCOD9581545
Probable space group: P 6/M
;
_chemical_formula_sum "Si O2"
_cell_formula_units_Z 84
_cell_length_a 18.896866
_cell_length_b 18.896866
_cell_length_c 14.794360
_cell_angle_alpha 90.000000
_cell_angle_beta 90.000000
_cell_angle_gamma 120.000000
_cell_volume 4575.160995
_symmetry_space_group_name_H-M "P 6/M"
_symmetry_group_IT_number 175
_symmetry_cell_setting 'hexagonal'
loop_
_space_group_symop_operation_xyz
x,y,z
x-y,x,z
-y,x-y,z
-x,-y,z
-x+y,-x,z
y,-x+y,z
-x,-y,-z
-x+y,-x,-z
y,-x+y,-z
x,y,-z
x-y,x,-z
-y,x-y,-z
loop_
_atom_site_type_symbol
_atom_site_label
_atom_site_fract_x
_atom_site_fract_y
_atom_site_fract_z
Si Si1 0.878992 0.069008 0.892576
Si Si2 0.468869 0.902638 0.603076
Si Si3 0.405306 0.068874 0.250000
Si Si4 0.809984 0.878992 0.392576
Si Si5 0.324941 0.170863 0.750000
Si Si6 0.566231 0.468869 0.896924
Si Si7 0.531949 0.656020 0.250000
O O1 0.830750 0.103508 0.836221
O O2 0.975005 0.125771 0.870837
O O3 0.868761 0.074132 0.000000
O O4 0.459952 0.874191 0.500000
O O5 0.537014 0.896092 0.661760
O O6 0.386236 0.862541 0.662153
O O7 0.500000 0.000000 0.601161
O O8 0.334997 0.091481 0.250000
O O9 0.462986 0.103908 0.161760
O O10 0.370705 0.972027 0.250000
O O11 0.874229 0.849234 0.370837
O O12 0.794629 0.868761 0.500000
O O13 0.727242 0.830750 0.336221
O O14 0.416109 0.247143 0.750000
O O15 0.500000 0.500000 0.898839
O O16 0.523695 0.386236 0.837847
O O17 0.585761 0.459952 0.000000
#
# Coordination Sequence:
#
# PCOD9581545 Si02
#       7
#    12  12  12  12  12  12  12
#     4  10  21  36  52  70  98 144 197 238 272 315
#     4   8  15  31  54  72  88 117 155 194 235 285
#     4   9  18  31  48  74 102 128 162 197 238 301
#     4  10  21  36  52  70  98 144 197 238 272 315
#     4  12  22  32  49  78 112 136 162 216 279 316
#     4   8  15  31  54  72  88 117 155 194 235 285
#     4   9  18  31  48  74 102 128 162 197 238 301
#
# _framework density 18.360009000000002
#
# number of rings (size 3 to 8) (size 9 to 14) (size 15 to 20)
#    0.000    2.571    0.000    4.571    0.000    3.429 
#    0.000    7.143    0.000    4.571    0.000    0.000 
#    0.000    0.000    0.000    0.000    0.000    0.000 
#
# Total GULP energy -468449.148982 kJ/mol
# GULP energy per Si atom -5576.775583 kJ/mol
# Density = 1.831822 g / cm^3
# Si number density = 18.360009 Si / 1000 Ang^3
#
#
#
# Elastic Constant Matrix: (Units=GPa)
#
#
# Indices 1 2 3 4 5 6 
#
# 1 41.2427 -9.9116 17.0505 0.0000 0.0000 0.0000
# 2 -9.9116 41.2427 17.0505 0.0000 0.0000 0.0000
# 3 17.0505 17.0505 118.8283 0.0000 0.0000 0.0000
# 4 0.0000 0.0000 0.0000 4.7434 0.0000 0.0000
# 5 0.0000 0.0000 0.0000 0.0000 4.7434 0.0000
# 6 0.0000 0.0000 0.0000 0.0000 0.0000 25.5771
#
#
#
# Elastic Compliance Matrix: (Units=1/GPa)
#
#
# Indices 1 2 3 4 5 6 
#
# 1 0.028687 0.009138 -0.005427 0.000000 0.000000 0.000000
# 2 0.009138 0.028687 -0.005427 0.000000 0.000000 0.000000
# 3 -0.005427 -0.005427 0.009973 0.000000 0.000000 0.000000
# 4 0.000000 0.000000 0.000000 0.210821 0.000000 0.000000
# 5 0.000000 0.000000 0.000000 0.000000 0.210821 0.000000
# 6 0.000000 0.000000 0.000000 0.000000 0.000000 0.039097
#
#
# Mechanical properties :
#
#
# Convention : Reuss Voigt Hill
#
# Bulk Modulus (GPa) = 15.64646 27.74364 21.69505
# Shear Modulus (GPa) = 9.04446 18.82105 13.93276
#
# Velocity S-wave (km/s) = 2.22191 3.20521 2.75774
# Velocity P-wave (km/s) = 3.88883 5.37043 4.68853
#
# Compressibility (1/GPa) = 0.06391222
#
# Stress axis : x y z
#
# Youngs Moduli (GPa) = 34.85957 34.85957 100.27038
#
# Poissons Ratio (x) = -0.31854 0.54420
# Poissons Ratio (y) = -0.31854 0.54420
# Poissons Ratio (z) = 0.18920 0.18920
#
# Static dielectric constant tensor:
#      x y z
#    x 1.640880 0.000000 0.000000 
#    y 0.000000 1.640880 0.000000 
#    z 0.000000 0.000000 1.633030 
# 
# From -- ./inp_files/2630.got.cif
#   From: 2010.05.17/outbox.cif.g08.bks.cpg/sg175_2_cif.got.tgz:2630.got - 2010.05.20 11:23:22.
