data_PCOD9581238
_publ_section_title
;
Structure prediction by ZEFSAII (Michael W. Deem and Ramdas Pophale) SiO2 
 PCOD9581238
Probable space group: P 6/M
;
_chemical_formula_sum "Si O2"
_cell_formula_units_Z 58
_cell_length_a 14.241762
_cell_length_b 14.241762
_cell_length_c 16.410092
_cell_angle_alpha 90.000000
_cell_angle_beta 90.000000
_cell_angle_gamma 120.000000
_cell_volume 2882.498535
_symmetry_space_group_name_H-M "P 6/M"
_symmetry_group_IT_number 175
_symmetry_cell_setting 'hexagonal'
loop_
_space_group_symop_operation_xyz
x,y,z
x-y,x,z
-y,x-y,z
-x,-y,z
-x+y,-x,z
y,-x+y,z
-x,-y,-z
-x+y,-x,-z
y,-x+y,-z
x,y,-z
x-y,x,-z
-y,x-y,-z
loop_
_atom_site_type_symbol
_atom_site_label
_atom_site_fract_x
_atom_site_fract_y
_atom_site_fract_z
Si Si1 0.189125 0.940216 0.265145
Si Si2 0.357854 0.557994 0.000000
Si Si3 0.596461 0.475762 0.818356
Si Si4 0.739245 0.212811 0.285728
Si Si5 0.193188 0.947913 0.084865
Si Si6 0.666668 0.333334 0.596368
O O1 0.253053 0.891460 0.312915
O O2 0.229931 0.934916 0.172949
O O3 0.060578 0.852831 0.275612
O O4 0.443427 0.687224 0.000000
O O5 0.370931 0.513039 0.913762
O O6 0.500000 0.500000 0.809434
O O7 0.546791 0.355411 0.779530
O O8 0.700831 0.548568 0.762371
O O9 0.720335 0.267990 0.363780
O O10 0.066658 0.859321 0.083785
O O11 0.242679 0.936073 0.000000
O O12 0.666667 0.333334 0.500000
#
# Coordination Sequence:
#
# PCOD9581238 Si02
#       6
#    12   6  12  12  12   4
#     4  10  19  32  51  78 115 159 200 233 267 317
#     4  10  17  34  52  70 112 148 200 254 287 324
#     4  11  20  34  55  77 107 155 194 239 297 337
#     4  10  20  37  58  85 116 140 179 235 285 349
#     4   8  13  22  36  57  89 135 190 241 273 290
#     4   9  21  42  72  97 110 127 162 219 306 372
#
# _framework density 20.121433
#
# number of rings (size 3 to 8) (size 9 to 14) (size 15 to 20)
#    0.207    2.069    2.069    2.379    0.000    2.483 
#    3.724    0.000    0.000   22.345    0.000    0.000 
#    0.000    1.655    0.000    0.000    0.000    0.000 
#
# Total GULP energy -323287.052851 kJ/mol
# GULP energy per Si atom -5573.914704 kJ/mol
# Density = 2.007564 g / cm^3
# Si number density = 20.121433 Si / 1000 Ang^3
#
#
#
# Elastic Constant Matrix: (Units=GPa)
#
#
# Indices 1 2 3 4 5 6 
#
# 1 73.5617 -6.5424 24.2393 0.0000 0.0000 -0.0001
# 2 -6.5424 73.5621 24.2395 0.0000 0.0000 0.0000
# 3 24.2393 24.2395 111.8791 0.0000 0.0000 -0.0001
# 4 0.0000 0.0000 0.0000 9.9093 0.0000 0.0000
# 5 0.0000 0.0000 0.0000 0.0000 9.9091 0.0000
# 6 -0.0001 0.0000 -0.0001 0.0000 0.0000 40.0521
#
#
#
# Elastic Compliance Matrix: (Units=1/GPa)
#
#
# Indices 1 2 3 4 5 6 
#
# 1 0.015089 0.002605 -0.003834 0.000000 0.000000 0.000000
# 2 0.002605 0.015089 -0.003834 0.000000 0.000000 0.000000
# 3 -0.003834 -0.003834 0.010599 0.000000 0.000000 0.000000
# 4 0.000000 0.000000 0.000000 0.100916 0.000000 0.000000
# 5 0.000000 0.000000 0.000000 0.000000 0.100918 0.000000
# 6 0.000000 0.000000 0.000000 0.000000 0.000000 0.024967
#
#
# Mechanical properties :
#
#
# Convention : Reuss Voigt Hill
#
# Bulk Modulus (GPa) = 32.62294 38.09728 35.36011
# Shear Modulus (GPa) = 17.36597 26.44518 21.90557
#
# Velocity S-wave (km/s) = 2.94097 3.62923 3.30308
# Velocity P-wave (km/s) = 5.27074 6.04455 5.67086
#
# Compressibility (1/GPa) = 0.03065327
#
# Stress axis : x y z
#
# Youngs Moduli (GPa) = 66.27382 66.27411 94.34543
#
# Poissons Ratio (x) = -0.17265 0.36168
# Poissons Ratio (y) = -0.17265 0.36168
# Poissons Ratio (z) = 0.25406 0.25406
#
# Static dielectric constant tensor:
#      x y z
#    x 1.757480 0.000000 0.000000 
#    y 0.000000 1.757480 0.000000 
#    z 0.000000 0.000000 1.704900 
# 
# From -- ./inp_files/2417.got.cif
#   From: 2010.05.17/outbox.cif.g08.bks.cpg/sg175_2_cif.got.tgz:2417.got - 2010.05.20 11:23:22.
