data_PCOD9581895
_publ_section_title
;
Structure prediction by ZEFSAII (Michael W. Deem and Ramdas Pophale) SiO2 
 PCOD9581895
Probable space group: P 63/M
;
_chemical_formula_sum "Si O2"
_cell_formula_units_Z 72
_cell_length_a 12.715670
_cell_length_b 12.715670
_cell_length_c 32.244221
_cell_angle_alpha 90.000000
_cell_angle_beta 90.000000
_cell_angle_gamma 120.000000
_cell_volume 4515.033924
_symmetry_space_group_name_H-M "P 63/M"
_symmetry_group_IT_number 176
_symmetry_cell_setting 'hexagonal'
loop_
_space_group_symop_operation_xyz
x,y,z
x-y,x,1/2+z
-y,x-y,z
-x,-y,1/2+z
-x+y,-x,z
y,-x+y,1/2+z
-x,-y,-z
-x+y,-x,1/2-z
y,-x+y,-z
x,y,1/2-z
x-y,x,-z
-y,x-y,1/2-z
loop_
_atom_site_type_symbol
_atom_site_label
_atom_site_fract_x
_atom_site_fract_y
_atom_site_fract_z
Si Si1 0.333479 0.916755 0.829989
Si Si2 0.249827 0.249451 0.250000
Si Si3 0.252031 0.000032 0.409091
Si Si4 0.416724 0.083245 0.329989
Si Si5 0.000000 0.250429 0.000000
Si Si6 0.748001 0.000032 0.090909
Si Si7 0.249827 0.000376 0.250000
O O1 0.460169 0.920338 0.827010
O O2 0.221860 0.778140 0.830118
O O3 0.322178 0.978540 0.872027
O O4 0.310983 0.980870 0.790725
O O5 0.127862 0.255725 0.250000
O O6 0.219540 0.109770 0.250000
O O7 0.306191 0.002637 0.454997
O O8 0.126015 0.873985 0.404137
O O9 0.343638 0.021460 0.372027
O O10 0.226964 0.113482 0.407548
O O11 0.330113 0.019130 0.290725
O O12 0.118329 0.236658 0.001406
O O13 0.002637 0.306191 0.954997
#
# Coordination Sequence:
#
# PCOD9581895 Si02
#       7
#    12   6  12  12  12  12   6
#     4  10  20  33  49  68  92 124 160 194 224 259
#     4  10  20  34  54  78 100 118 140 180 234 286
#     4   9  16  27  46  71  97 122 150 190 239 287
#     4  10  20  33  49  68  92 124 160 194 224 259
#     4   8  13  22  39  66  96 122 148 182 232 288
#     4   9  16  27  46  71  97 122 150 190 239 287
#     4  10  20  34  54  78 100 118 140 180 234 286
#
# _framework density 15.946724
#
# number of rings (size 3 to 8) (size 9 to 14) (size 15 to 20)
#    0.000    2.667    0.000    2.500    0.000    2.667 
#    0.000    5.833    0.000    9.333    0.000    0.000 
#    0.000    0.000    0.000    0.000    0.000    0.000 
#
# Total GULP energy -400970.795916 kJ/mol
# GULP energy per Si atom -5569.038832 kJ/mol
# Density = 1.591043 g / cm^3
# Si number density = 15.946724 Si / 1000 Ang^3
#
#
#
# Elastic Constant Matrix: (Units=GPa)
#
#
# Indices 1 2 3 4 5 6 
#
# 1 85.5138 58.8324 71.2745 0.0000 0.0000 0.0000
# 2 58.8324 85.5138 71.2745 0.0000 0.0000 0.0000
# 3 71.2745 71.2745 188.7093 0.0000 0.0000 0.0000
# 4 0.0000 0.0000 0.0000 8.3496 0.0000 0.0000
# 5 0.0000 0.0000 0.0000 0.0000 8.3496 0.0000
# 6 0.0000 0.0000 0.0000 0.0000 0.0000 13.3407
#
#
#
# Elastic Compliance Matrix: (Units=1/GPa)
#
#
# Indices 1 2 3 4 5 6 
#
# 1 0.024264 -0.013215 -0.004173 0.000000 0.000000 0.000000
# 2 -0.013215 0.024264 -0.004173 0.000000 0.000000 0.000000
# 3 -0.004173 -0.004173 0.008451 0.000000 0.000000 0.000000
# 4 0.000000 0.000000 0.000000 0.119766 0.000000 0.000000
# 5 0.000000 0.000000 0.000000 0.000000 0.119766 0.000000
# 6 0.000000 0.000000 0.000000 0.000000 0.000000 0.074959
#
#
# Mechanical properties :
#
#
# Convention : Reuss Voigt Hill
#
# Bulk Modulus (GPa) = 72.16630 84.72218 78.44424
# Shear Modulus (GPa) = 11.92712 16.56502 14.24607
#
# Velocity S-wave (km/s) = 2.73781 3.22650 2.99215
# Velocity P-wave (km/s) = 7.43956 8.19292 7.82531
#
# Compressibility (1/GPa) = 0.01385688
#
# Stress axis : x y z
#
# Youngs Moduli (GPa) = 41.21307 41.21307 118.32232
#
# Poissons Ratio (x) = 0.54464 0.49377
# Poissons Ratio (y) = 0.54464 0.49377
# Poissons Ratio (z) = 0.17199 0.17199
#
# Static dielectric constant tensor:
#      x y z
#    x 1.494130 0.000000 0.000000 
#    y 0.000000 1.494130 0.000000 
#    z 0.000000 0.000000 1.583520 
# 
# From -- ./inp_files/4518.got.cif
#   From: 2010.05.17/outbox.cif.g08.bks.cpg/sg176_3_cif.got.tgz:4518.got - 2010.06.03 11:36:45.
