data_PCOD9581001
_publ_section_title
;
Structure prediction by ZEFSAII (Michael W. Deem and Ramdas Pophale) SiO2 
 PCOD9581001
Probable space group: P 64
;
_chemical_formula_sum "Si O2"
_cell_formula_units_Z 45
_cell_length_a 11.565371
_cell_length_b 11.565371
_cell_length_c 16.909398
_cell_angle_alpha 90.000000
_cell_angle_beta 90.000000
_cell_angle_gamma 120.000000
_cell_volume 1958.745067
_symmetry_space_group_name_H-M "P 64"
_symmetry_group_IT_number 172
_symmetry_cell_setting 'hexagonal'
loop_
_space_group_symop_operation_xyz
x,y,z
x-y,x,2/3+z
-y,x-y,1/3+z
-x,-y,z
-x+y,-x,2/3+z
y,-x+y,1/3+z
loop_
_atom_site_type_symbol
_atom_site_label
_atom_site_fract_x
_atom_site_fract_y
_atom_site_fract_z
Si Si1 0.198195 0.928946 0.027210
Si Si2 0.341567 0.942734 0.282813
Si Si3 0.000000 0.000000 0.102162
Si Si4 0.268242 0.118709 0.529878
Si Si5 0.645502 0.132894 0.757872
Si Si6 0.777083 0.495702 0.456842
Si Si7 0.153554 0.381983 0.926689
Si Si8 0.187312 0.736539 0.421361
O O1 0.183602 0.794724 0.063502
O O2 0.074640 0.946501 0.047902
O O3 0.321080 0.045146 0.073802
O O4 0.214309 0.940173 0.933942
O O5 0.287262 0.852071 0.204262
O O6 0.281788 0.847792 0.358691
O O7 0.500000 0.000000 0.281975
O O8 0.316425 0.069261 0.282061
O O9 0.094108 0.124640 0.156573
O O10 0.370030 0.221927 0.466224
O O11 0.284458 0.002652 0.573377
O O12 0.614171 0.237984 0.800396
O O13 0.687510 0.163478 0.665825
O O14 0.500000 0.000000 0.764888
O O15 0.833339 0.410192 0.413626
O O16 0.216965 0.453422 0.843787
#
# Coordination Sequence:
#
# PCOD9581001 Si02
#       8
#     6   6   3   6   6   6   6   6
#     4  12  27  45  74 110 152 197 262 323 394 474
#     4  12  25  48  77 112 154 199 265 325 393 485
#     4  12  24  48  70 114 144 206 254 334 396 466
#     4  12  27  45  78 109 151 204 259 317 406 476
#     4  12  30  49  76 115 164 207 265 334 408 481
#     4  12  26  51  73 111 154 206 252 333 392 476
#     4  12  25  52  74 113 157 206 265 329 398 494
#     4  12  27  44  81 110 147 204 257 319 393 469
#
# _framework density 22.973894000000001
#
# number of rings (size 3 to 8) (size 9 to 14) (size 15 to 20)
#    0.000    0.000    4.000    4.800    9.333    1.600 
#    0.000    0.000    0.000    0.000    0.000    0.000 
#    0.000    0.000    0.000    0.000    0.000    0.000 
#
# Total GULP energy -251701.674500 kJ/mol
# GULP energy per Si atom -5593.370544 kJ/mol
# Density = 2.292160 g / cm^3
# Si number density = 22.973894 Si / 1000 Ang^3
#
#
#
# Elastic Constant Matrix: (Units=GPa)
#
#
# Indices 1 2 3 4 5 6 
#
# 1 79.0509 39.3563 31.4555 0.0000 0.0000 0.0000
# 2 39.3563 79.0509 31.4555 0.0000 0.0000 0.0000
# 3 31.4555 31.4555 134.1906 0.0000 0.0000 0.0000
# 4 0.0000 0.0000 0.0000 34.5381 0.0000 0.0000
# 5 0.0000 0.0000 0.0000 0.0000 34.5381 0.0000
# 6 0.0000 0.0000 0.0000 0.0000 0.0000 19.8473
#
#
#
# Elastic Compliance Matrix: (Units=1/GPa)
#
#
# Indices 1 2 3 4 5 6 
#
# 1 0.017420 -0.007773 -0.002261 0.000000 0.000000 0.000000
# 2 -0.007773 0.017420 -0.002261 0.000000 0.000000 0.000000
# 3 -0.002261 -0.002261 0.008512 0.000000 0.000000 0.000000
# 4 0.000000 0.000000 0.000000 0.028954 0.000000 0.000000
# 5 0.000000 0.000000 0.000000 0.000000 0.028954 0.000000
# 6 0.000000 0.000000 0.000000 0.000000 0.000000 0.050385
#
#
# Mechanical properties :
#
#
# Convention : Reuss Voigt Hill
#
# Bulk Modulus (GPa) = 53.30279 55.20300 54.25289
# Shear Modulus (GPa) = 27.39915 30.45305 28.92610
#
# Velocity S-wave (km/s) = 3.45718 3.64476 3.55221
# Velocity P-wave (km/s) = 6.26003 6.46476 6.36322
#
# Compressibility (1/GPa) = 0.01876075
#
# Stress axis : x y z
#
# Youngs Moduli (GPa) = 57.40659 57.40659 117.47795
#
# Poissons Ratio (x) = 0.44620 0.26566
# Poissons Ratio (y) = 0.44620 0.26566
# Poissons Ratio (z) = 0.12981 0.12981
#
# Static dielectric constant tensor:
#      x y z
#    x 1.920140 0.000000 0.000000 
#    y 0.000000 1.920140 0.000000 
#    z 0.000000 0.000000 1.831750 
# 
# From -- ./inp_files/1723.got.cif
#   From: 2010.05.17/outbox.cif.g08.bks.cpg/sg172_1_cif.got.tgz:1723.got - 2010.05.20 11:19:57.
