data_PCOD9581143
_publ_section_title
;
Structure prediction by ZEFSAII (Michael W. Deem and Ramdas Pophale) SiO2 
 PCOD9581143
Probable space group: P -6
;
_chemical_formula_sum "Si O2"
_cell_formula_units_Z 45
_cell_length_a 14.592801
_cell_length_b 14.592801
_cell_length_c 12.716597
_cell_angle_alpha 90.000000
_cell_angle_beta 90.000000
_cell_angle_gamma 120.000000
_cell_volume 2345.194463
_symmetry_space_group_name_H-M "P -6"
_symmetry_group_IT_number 174
_symmetry_cell_setting 'hexagonal'
loop_
_space_group_symop_operation_xyz
x,y,z
-x+y,-x,-z
-y,x-y,z
x,y,-z
-x+y,-x,z
-y,x-y,-z
loop_
_atom_site_type_symbol
_atom_site_label
_atom_site_fract_x
_atom_site_fract_y
_atom_site_fract_z
Si Si1 0.956641 0.172831 0.874743
Si Si2 0.182286 0.230545 0.210491
Si Si3 0.190091 0.743669 0.124376
Si Si4 0.484109 0.590255 0.125937
Si Si5 0.595398 0.108921 0.787934
Si Si6 0.340297 0.361971 0.617204
Si Si7 0.462494 0.188641 0.877564
Si Si8 0.210719 0.666091 0.500000
O O1 0.907805 0.250331 0.863818
O O2 0.062558 0.203874 0.809764
O O3 0.865833 0.058841 0.834009
O O4 0.978107 0.169872 0.000000
O O5 0.254047 0.338444 0.146224
O O6 0.235339 0.271973 0.324536
O O7 0.292119 0.846198 0.168712
O O8 0.183236 0.636383 0.160571
O O9 0.201943 0.745362 0.000000
O O10 0.508517 0.500742 0.157985
O O11 0.489573 0.594406 0.000000
O O12 0.616703 0.060204 0.683275
O O13 0.544937 0.185318 0.795178
O O14 0.703100 0.165914 0.853981
O O15 0.346786 0.326422 0.500000
O O16 0.335055 0.470677 0.596410
O O17 0.493788 0.188087 0.000000
O O18 0.332802 0.764784 0.500000
#
# Coordination Sequence:
#
# PCOD9581143 Si02
#       8
#     6   6   6   6   6   6   6   3
#     4  11  23  38  62  99 136 175 224 272 341 426
#     4  12  22  42  64  92 132 180 225 284 342 408
#     4  10  19  32  52  86 129 171 214 266 340 430
#     4  10  19  32  52  86 129 171 214 266 340 430
#     4  12  22  42  64  92 132 180 225 284 342 408
#     4  10  24  46  69  96 133 172 236 294 353 416
#     4  11  23  38  62  99 136 175 224 272 341 426
#     4   8  20  44  72 100 132 172 228 302 372 420
#
# _framework density 19.188172999999999
#
# number of rings (size 3 to 8) (size 9 to 14) (size 15 to 20)
#    0.533    0.800    2.667    4.000    0.000    7.467 
#    0.000    1.333    0.000    0.000    0.000    0.000 
#    0.000    0.000    0.000    0.000    0.000    0.000 
#
# Total GULP energy -250633.727801 kJ/mol
# GULP energy per Si atom -5569.638396 kJ/mol
# Density = 1.914450 g / cm^3
# Si number density = 19.188173 Si / 1000 Ang^3
#
#
#
# Elastic Constant Matrix: (Units=GPa)
#
#
# Indices 1 2 3 4 5 6 
#
# 1 147.2215 -16.8078 40.5973 0.0000 0.0000 0.0000
# 2 -16.8078 147.2215 40.5973 0.0000 0.0000 0.0000
# 3 40.5973 40.5973 95.2424 0.0000 0.0000 0.0000
# 4 0.0000 0.0000 0.0000 25.9781 0.0000 0.0000
# 5 0.0000 0.0000 0.0000 0.0000 25.9781 0.0000
# 6 0.0000 0.0000 0.0000 0.0000 0.0000 82.0146
#
#
#
# Elastic Compliance Matrix: (Units=1/GPa)
#
#
# Indices 1 2 3 4 5 6 
#
# 1 0.008267 0.002171 -0.004449 0.000000 0.000000 0.000000
# 2 0.002171 0.008267 -0.004449 0.000000 0.000000 0.000000
# 3 -0.004449 -0.004449 0.014292 0.000000 0.000000 0.000000
# 4 0.000000 0.000000 0.000000 0.038494 0.000000 0.000000
# 5 0.000000 0.000000 0.000000 0.000000 0.038494 0.000000
# 6 0.000000 0.000000 0.000000 0.000000 0.000000 0.012193
#
#
# Mechanical properties :
#
#
# Convention : Reuss Voigt Hill
#
# Bulk Modulus (GPa) = 57.56528 57.60656 57.58592
# Shear Modulus (GPa) = 35.90574 48.48075 42.19325
#
# Velocity S-wave (km/s) = 4.33048 5.03198 4.69435
# Velocity P-wave (km/s) = 7.42089 7.99050 7.71096
#
# Compressibility (1/GPa) = 0.01737158
#
# Stress axis : x y z
#
# Youngs Moduli (GPa) = 120.95981 120.95981 69.96682
#
# Poissons Ratio (x) = -0.26257 0.31130
# Poissons Ratio (y) = -0.26257 0.31130
# Poissons Ratio (z) = 0.53817 0.53817
#
# Static dielectric constant tensor:
#      x y z
#    x 1.727870 0.000000 0.000000 
#    y 0.000000 1.727870 0.000000 
#    z 0.000000 0.000000 1.703380 
# 
# From -- ./inp_files/815.got.cif
#   From: 2010.05.17/outbox.cif.g08.bks.cpg/sg174_cif.got.tgz:815.got - 2010.05.20 11:22:48.
