data_PCOD9581584
_publ_section_title
;
Structure prediction by ZEFSAII (Michael W. Deem and Ramdas Pophale) SiO2 
 PCOD9581584
Probable space group: P 6/M
;
_chemical_formula_sum "Si O2"
_cell_formula_units_Z 52
_cell_length_a 14.733041
_cell_length_b 14.733041
_cell_length_c 13.562224
_cell_angle_alpha 90.000000
_cell_angle_beta 90.000000
_cell_angle_gamma 120.000000
_cell_volume 2549.449065
_symmetry_space_group_name_H-M "P 6/M"
_symmetry_group_IT_number 175
_symmetry_cell_setting 'hexagonal'
loop_
_space_group_symop_operation_xyz
x,y,z
x-y,x,z
-y,x-y,z
-x,-y,z
-x+y,-x,z
y,-x+y,z
-x,-y,-z
-x+y,-x,-z
y,-x+y,-z
x,y,-z
x-y,x,-z
-y,x-y,-z
loop_
_atom_site_type_symbol
_atom_site_label
_atom_site_fract_x
_atom_site_fract_y
_atom_site_fract_z
Si Si1 0.226081 0.172193 0.881981
Si Si2 0.816569 0.554324 0.801863
Si Si3 0.604825 0.110540 0.617243
Si Si4 0.520586 0.117458 0.116719
Si Si5 0.333334 0.666668 0.616150
O O1 0.141780 0.201001 0.843530
O O2 0.344966 0.251421 0.856879
O O3 0.216267 0.167177 0.000000
O O4 0.860665 0.561808 0.690924
O O5 0.705059 0.546216 0.823568
O O6 0.810510 0.452261 0.852106
O O7 0.628010 0.112302 0.500000
O O8 0.592248 0.211942 0.641308
O O9 0.500000 0.000000 0.636765
O O10 0.500000 0.000000 0.136771
O O11 0.504100 0.124604 0.000000
O O12 0.333334 0.666668 0.500000
#
# Coordination Sequence:
#
# PCOD9581584 Si02
#       5
#    12  12  12  12   4
#     4  10  21  38  60  85 114 150 195 247 300 355
#     4  12  22  36  59  86 118 158 202 247 300 363
#     4  10  22  40  62  89 122 161 207 257 307 362
#     4  11  23  37  55  85 125 164 202 247 306 376
#     4   9  18  36  60  84 115 155 196 243 300 360
#
# _framework density 20.396564000000001
#
# number of rings (size 3 to 8) (size 9 to 14) (size 15 to 20)
#    0.000    1.385    0.000    6.231    0.000    6.462 
#    0.000    0.000    0.000    0.692    0.000    0.000 
#    0.000    1.846    0.000    0.000    0.000    0.000 
#
# Total GULP energy -290064.362806 kJ/mol
# GULP energy per Si atom -5578.160823 kJ/mol
# Density = 2.035014 g / cm^3
# Si number density = 20.396564 Si / 1000 Ang^3
#
#
#
# Elastic Constant Matrix: (Units=GPa)
#
#
# Indices 1 2 3 4 5 6 
#
# 1 106.8672 36.3350 24.3016 0.0000 0.0000 0.0001
# 2 36.3350 106.8681 24.3016 0.0000 0.0000 -0.0002
# 3 24.3016 24.3016 119.0497 0.0000 0.0000 -0.0001
# 4 0.0000 0.0000 0.0000 13.4405 0.0000 0.0000
# 5 0.0000 0.0000 0.0000 0.0000 13.4404 0.0000
# 6 0.0001 -0.0002 -0.0001 0.0000 0.0000 35.2661
#
#
#
# Elastic Compliance Matrix: (Units=1/GPa)
#
#
# Indices 1 2 3 4 5 6 
#
# 1 0.010840 -0.003337 -0.001532 0.000000 0.000000 0.000000
# 2 -0.003337 0.010840 -0.001532 0.000000 0.000000 0.000000
# 3 -0.001532 -0.001532 0.009025 0.000000 0.000000 0.000000
# 4 0.000000 0.000000 0.000000 0.074402 0.000000 0.000000
# 5 0.000000 0.000000 0.000000 0.000000 0.074402 0.000000
# 6 0.000000 0.000000 0.000000 0.000000 0.000000 0.028356
#
#
# Mechanical properties :
#
#
# Convention : Reuss Voigt Hill
#
# Bulk Modulus (GPa) = 55.85124 55.85126 55.85125
# Shear Modulus (GPa) = 22.06186 28.95252 25.50719
#
# Velocity S-wave (km/s) = 3.29241 3.77169 3.54017
# Velocity P-wave (km/s) = 6.47266 6.81246 6.64473
#
# Compressibility (1/GPa) = 0.01790471
#
# Stress axis : x y z
#
# Youngs Moduli (GPa) = 92.24725 92.24810 110.80165
#
# Poissons Ratio (x) = 0.30787 0.16970
# Poissons Ratio (y) = 0.30787 0.16970
# Poissons Ratio (z) = 0.14128 0.14128
#
# Static dielectric constant tensor:
#      x y z
#    x 1.767700 0.000000 0.000000 
#    y 0.000000 1.767700 0.000000 
#    z 0.000000 0.000000 1.751500 
# 
# From -- ./inp_files/2301.got.cif
#   From: 2010.05.17/outbox.cif.g08.bks.cpg/sg175_2_cif.got.tgz:2301.got - 2010.05.20 11:23:22.
