data_PCOD9581045
_publ_section_title
;
Structure prediction by ZEFSAII (Michael W. Deem and Ramdas Pophale) SiO2 
 PCOD9581045
Probable space group: P 63
;
_chemical_formula_sum "Si O2"
_cell_formula_units_Z 48
_cell_length_a 17.478687
_cell_length_b 17.478687
_cell_length_c 8.391466
_cell_angle_alpha 90.000000
_cell_angle_beta 90.000000
_cell_angle_gamma 120.000000
_cell_volume 2220.169241
_symmetry_space_group_name_H-M "P 63"
_symmetry_group_IT_number 173
_symmetry_cell_setting 'hexagonal'
loop_
_space_group_symop_operation_xyz
x,y,z
x-y,x,1/2+z
-y,x-y,z
-x,-y,1/2+z
-x+y,-x,z
y,-x+y,1/2+z
loop_
_atom_site_type_symbol
_atom_site_label
_atom_site_fract_x
_atom_site_fract_y
_atom_site_fract_z
Si Si1 0.103281 0.564019 0.252470
Si Si2 0.241837 0.368687 0.715906
Si Si3 0.680563 0.095505 0.156926
Si Si4 0.811761 0.935654 0.899122
Si Si5 0.125155 0.192740 0.270786
Si Si6 0.306815 0.353615 0.388781
Si Si7 0.360636 0.775776 0.516832
Si Si8 0.053122 0.599490 0.929164
O O1 0.182991 0.560286 0.339807
O O2 0.103749 0.650615 0.323196
O O3 0.013015 0.480366 0.315837
O O4 0.098029 0.569116 0.063438
O O5 0.170682 0.389132 0.633614
O O6 0.185576 0.282832 0.822291
O O7 0.294487 0.351892 0.576579
O O8 0.316252 0.440096 0.831851
O O9 0.675459 0.050949 0.325588
O O10 0.626712 0.147181 0.134298
O O11 0.635769 0.014530 0.030823
O O12 0.855119 0.886254 0.806827
O O13 0.867895 0.040501 0.874258
O O14 0.806379 0.912292 0.084561
O O15 0.212105 0.284114 0.316240
O O16 0.265090 0.689274 0.539096
#
# Coordination Sequence:
#
# PCOD9581045 Si02
#       8
#     6   6   6   6   6   6   6   6
#     4  10  20  42  66  96 131 170 225 282 345 427
#     4  12  24  41  65  99 135 184 225 291 347 412
#     4  10  22  43  66 100 138 175 235 284 343 431
#     4  12  25  42  65  89 138 174 237 280 349 396
#     4  12  25  44  63  97 131 185 230 287 339 407
#     4  11  23  39  65  95 134 173 225 279 337 410
#     4   9  20  40  70 103 132 179 217 277 359 428
#     4  10  23  41  68  97 133 178 228 286 353 413
#
# _framework density 21.619975
#
# number of rings (size 3 to 8) (size 9 to 14) (size 15 to 20)
#    0.250    1.000    1.250    5.500    1.750    2.000 
#    0.000    2.500    0.000    0.000    0.000    0.000 
#    0.000    0.000    0.000    0.000    0.000    0.000 
#
# Total GULP energy -268169.222022 kJ/mol
# GULP energy per Si atom -5586.858792 kJ/mol
# Density = 2.157077 g / cm^3
# Si number density = 21.619975 Si / 1000 Ang^3
#
#
#
# Elastic Constant Matrix: (Units=GPa)
#
#
# Indices 1 2 3 4 5 6 
#
# 1 74.8521 9.9911 6.4244 0.0000 0.0000 0.0000
# 2 9.9911 74.8521 6.4244 0.0000 0.0000 0.0000
# 3 6.4244 6.4244 83.5894 0.0000 0.0000 0.0000
# 4 0.0000 0.0000 0.0000 31.0749 0.0000 0.0000
# 5 0.0000 0.0000 0.0000 0.0000 31.0749 0.0000
# 6 0.0000 0.0000 0.0000 0.0000 0.0000 32.4305
#
#
#
# Elastic Compliance Matrix: (Units=1/GPa)
#
#
# Indices 1 2 3 4 5 6 
#
# 1 0.013671 -0.001746 -0.000917 0.000000 0.000000 0.000000
# 2 -0.001746 0.013671 -0.000917 0.000000 0.000000 0.000000
# 3 -0.000917 -0.000917 0.012104 0.000000 0.000000 0.000000
# 4 0.000000 0.000000 0.000000 0.032180 0.000000 0.000000
# 5 0.000000 0.000000 0.000000 0.000000 0.032180 0.000000
# 6 0.000000 0.000000 0.000000 0.000000 0.000000 0.030835
#
#
# Mechanical properties :
#
#
# Convention : Reuss Voigt Hill
#
# Bulk Modulus (GPa) = 30.97080 30.99705 30.98393
# Shear Modulus (GPa) = 32.77312 32.94631 32.85971
#
# Velocity S-wave (km/s) = 3.89764 3.90793 3.90279
# Velocity P-wave (km/s) = 5.88317 5.89329 5.88823
#
# Compressibility (1/GPa) = 0.03228848
#
# Stress axis : x y z
#
# Youngs Moduli (GPa) = 73.14536 73.14536 82.61647
#
# Poissons Ratio (x) = 0.12772 0.07572
# Poissons Ratio (y) = 0.12772 0.07572
# Poissons Ratio (z) = 0.06704 0.06704
#
# Static dielectric constant tensor:
#      x y z
#    x 1.807130 0.000000 0.000000 
#    y 0.000000 1.807130 0.000000 
#    z 0.000000 0.000000 1.771340 
# 
# From -- ./inp_files/664.got.cif
#   From: 2010.05.17/outbox.cif.g08.bks.cpg/sg173_cif.got.tgz:664.got - 2010.05.20 11:21:53.
