data_PCOD9581257
_publ_section_title
;
Structure prediction by ZEFSAII (Michael W. Deem and Ramdas Pophale) SiO2 
 PCOD9581257
Probable space group: P 6/M
;
_chemical_formula_sum "Si O2"
_cell_formula_units_Z 60
_cell_length_a 17.499799
_cell_length_b 17.499799
_cell_length_c 10.406159
_cell_angle_alpha 90.000000
_cell_angle_beta 90.000000
_cell_angle_gamma 120.000000
_cell_volume 2759.861004
_symmetry_space_group_name_H-M "P 6/M"
_symmetry_group_IT_number 175
_symmetry_cell_setting 'hexagonal'
loop_
_space_group_symop_operation_xyz
x,y,z
x-y,x,z
-y,x-y,z
-x,-y,z
-x+y,-x,z
y,-x+y,z
-x,-y,-z
-x+y,-x,-z
y,-x+y,-z
x,y,-z
x-y,x,-z
-y,x-y,-z
loop_
_atom_site_type_symbol
_atom_site_label
_atom_site_fract_x
_atom_site_fract_y
_atom_site_fract_z
Si Si1 0.705623 0.014878 0.218853
Si Si2 0.632580 0.524300 0.500000
Si Si3 0.664536 0.169164 0.500000
Si Si4 0.520615 0.843390 0.792477
Si Si5 0.488713 0.660144 0.216674
Si Si6 0.962061 0.684478 0.500000
Si Si7 0.198407 0.162047 0.000000
O O1 0.619065 0.923095 0.177406
O O2 0.744664 0.015293 0.361223
O O3 0.784634 0.043369 0.120845
O O4 0.671228 0.085475 0.224744
O O5 0.536229 0.439689 0.500000
O O6 0.675212 0.521996 0.635649
O O7 0.639428 0.617388 0.500000
O O8 0.667874 0.209613 0.361765
O O9 0.735272 0.135763 0.500000
O O10 0.501838 0.749472 0.845587
O O11 0.436498 0.853352 0.832219
O O12 0.172766 0.060599 0.000000
#
# Coordination Sequence:
#
# PCOD9581257 Si02
#       7
#    12   6   6  12  12   6   6
#     4  10  21  39  64  91 122 160 204 250 299 356
#     4   8  14  23  41  71 114 162 209 253 299 349
#     4   8  14  23  41  71 114 162 209 253 299 349
#     4  10  18  30  49  80 120 165 210 256 303 354
#     4  10  18  30  49  80 120 165 210 256 303 354
#     4   8  15  30  56  90 121 152 194 248 302 350
#     4  12  27  50  75  98 120 150 190 238 291 356
#
# _framework density 21.740224000000001
#
# number of rings (size 3 to 8) (size 9 to 14) (size 15 to 20)
#    0.000    2.400    0.000    3.200    0.000    4.800 
#    0.000    7.000    0.000    0.000    0.000    4.200 
#    0.000    0.000    0.000    0.000    0.000    0.000 
#
# Total GULP energy -334050.420531 kJ/mol
# GULP energy per Si atom -5567.507009 kJ/mol
# Density = 2.169074 g / cm^3
# Si number density = 21.740224 Si / 1000 Ang^3
#
#
#
# Elastic Constant Matrix: (Units=GPa)
#
#
# Indices 1 2 3 4 5 6 
#
# 1 67.0818 -3.9692 8.2079 0.0000 0.0000 0.0000
# 2 -3.9692 67.0818 8.2079 0.0000 0.0000 0.0000
# 3 8.2079 8.2079 92.4072 0.0000 0.0000 0.0000
# 4 0.0000 0.0000 0.0000 7.3635 0.0000 0.0000
# 5 0.0000 0.0000 0.0000 0.0000 7.3635 0.0000
# 6 0.0000 0.0000 0.0000 0.0000 0.0000 35.5255
#
#
#
# Elastic Compliance Matrix: (Units=1/GPa)
#
#
# Indices 1 2 3 4 5 6 
#
# 1 0.015147 0.001073 -0.001441 0.000000 0.000000 0.000000
# 2 0.001073 0.015147 -0.001441 0.000000 0.000000 0.000000
# 3 -0.001441 -0.001441 0.011078 0.000000 0.000000 0.000000
# 4 0.000000 0.000000 0.000000 0.135805 0.000000 0.000000
# 5 0.000000 0.000000 0.000000 0.000000 0.135805 0.000000
# 6 0.000000 0.000000 0.000000 0.000000 0.000000 0.028149
#
#
# Mechanical properties :
#
#
# Convention : Reuss Voigt Hill
#
# Bulk Modulus (GPa) = 26.48741 27.94045 27.21393
# Shear Modulus (GPa) = 13.99259 24.32546 19.15903
#
# Velocity S-wave (km/s) = 2.53973 3.34865 2.97184
# Velocity P-wave (km/s) = 4.56184 5.27552 4.93161
#
# Compressibility (1/GPa) = 0.03775379
#
# Stress axis : x y z
#
# Youngs Moduli (GPa) = 66.02009 66.02009 90.27234
#
# Poissons Ratio (x) = -0.07081 0.13005
# Poissons Ratio (y) = -0.07081 0.13005
# Poissons Ratio (z) = 0.09511 0.09511
#
# Static dielectric constant tensor:
#      x y z
#    x 1.838570 0.000000 0.000000 
#    y 0.000000 1.838570 0.000000 
#    z 0.000000 0.000000 1.890480 
# 
# From -- ./inp_files/1883.got.cif
#   From: 2010.05.17/outbox.cif.g08.bks.cpg/sg175_1_cif.got.tgz:1883.got - 2010.05.20 11:23:22.
