data_PCOD9581416
_publ_section_title
;
Structure prediction by ZEFSAII (Michael W. Deem and Ramdas Pophale) SiO2 
 PCOD9581416
Probable space group: P 6/M
;
_chemical_formula_sum "Si O2"
_cell_formula_units_Z 78
_cell_length_a 22.593628
_cell_length_b 22.593628
_cell_length_c 9.767134
_cell_angle_alpha 90.000000
_cell_angle_beta 90.000000
_cell_angle_gamma 120.000000
_cell_volume 4317.871619
_symmetry_space_group_name_H-M "P 6/M"
_symmetry_group_IT_number 175
_symmetry_cell_setting 'hexagonal'
loop_
_space_group_symop_operation_xyz
x,y,z
x-y,x,z
-y,x-y,z
-x,-y,z
-x+y,-x,z
y,-x+y,z
-x,-y,-z
-x+y,-x,-z
y,-x+y,-z
x,y,-z
x-y,x,-z
-y,x-y,-z
loop_
_atom_site_type_symbol
_atom_site_label
_atom_site_fract_x
_atom_site_fract_y
_atom_site_fract_z
Si Si1 0.650324 0.464115 0.666594
Si Si2 0.523788 0.316550 0.335396
Si Si3 0.014905 0.146337 0.500000
Si Si4 0.798830 0.710812 0.845451
Si Si5 0.345243 0.415058 0.833033
Si Si6 0.254358 0.198827 0.733845
Si Si7 0.668503 0.063857 0.338809
O O1 0.649432 0.475016 0.500000
O O2 0.724280 0.475405 0.708314
O O3 0.592765 0.386391 0.697248
O O4 0.636392 0.515288 0.756079
O O5 0.520515 0.312441 0.500000
O O6 0.457896 0.321289 0.292803
O O7 0.076929 0.132146 0.500000
O O8 0.022330 0.193160 0.627268
O O9 0.734158 0.639902 0.796176
O O10 0.771142 0.764580 0.842006
O O11 0.870336 0.734438 0.771313
O O12 0.812324 0.699562 0.000000
O O13 0.387977 0.383812 0.761461
O O14 0.351609 0.419360 0.000000
O O15 0.325276 0.259337 0.674504
O O16 0.647247 0.051516 0.500000
#
# Coordination Sequence:
#
# PCOD9581416 Si02
#       7
#    12  12   6  12  12  12  12
#     4  10  19  37  60  85 115 152 190 233 281 342
#     4   9  19  34  58  88 115 146 190 234 283 331
#     4  12  23  38  54  80 114 147 185 235 291 341
#     4  10  21  36  54  76 106 141 181 230 281 341
#     4  10  22  38  56  82 114 149 188 233 289 340
#     4  11  20  34  56  79 105 139 185 229 282 338
#     4  10  20  35  56  85 112 143 185 236 281 339
#
# _framework density 18.064457000000001
#
# number of rings (size 3 to 8) (size 9 to 14) (size 15 to 20)
#    0.000    1.846    2.308    2.231    0.000    2.462 
#    1.385    5.385    0.000    0.000    0.000    2.154 
#    0.000    0.000    0.000    0.000    0.000    0.000 
#
# Total GULP energy -434671.316775 kJ/mol
# GULP energy per Si atom -5572.709189 kJ/mol
# Density = 1.802334 g / cm^3
# Si number density = 18.064457 Si / 1000 Ang^3
#
#
#
# Elastic Constant Matrix: (Units=GPa)
#
#
# Indices 1 2 3 4 5 6 
#
# 1 106.2836 46.0910 24.6458 0.0000 0.0000 0.0000
# 2 46.0910 106.2836 24.6458 0.0000 0.0000 0.0000
# 3 24.6458 24.6458 49.0170 0.0000 0.0000 0.0000
# 4 0.0000 0.0000 0.0000 18.1865 0.0000 0.0000
# 5 0.0000 0.0000 0.0000 0.0000 18.1865 0.0000
# 6 0.0000 0.0000 0.0000 0.0000 0.0000 30.0963
#
#
#
# Elastic Compliance Matrix: (Units=1/GPa)
#
#
# Indices 1 2 3 4 5 6 
#
# 1 0.012225 -0.004388 -0.003941 0.000000 0.000000 0.000000
# 2 -0.004388 0.012225 -0.003941 0.000000 0.000000 0.000000
# 3 -0.003941 -0.003941 0.024364 0.000000 0.000000 0.000000
# 4 0.000000 0.000000 0.000000 0.054986 0.000000 0.000000
# 5 0.000000 0.000000 0.000000 0.000000 0.054986 0.000000
# 6 0.000000 0.000000 0.000000 0.000000 0.000000 0.033227
#
#
# Mechanical properties :
#
#
# Convention : Reuss Voigt Hill
#
# Bulk Modulus (GPa) = 41.19283 50.26106 45.72694
# Shear Modulus (GPa) = 22.25744 24.37397 23.31571
#
# Velocity S-wave (km/s) = 3.51395 3.67724 3.59652
# Velocity P-wave (km/s) = 6.27029 6.77591 6.52800
#
# Compressibility (1/GPa) = 0.02427607
#
# Stress axis : x y z
#
# Youngs Moduli (GPa) = 81.79663 81.79663 41.04433
#
# Poissons Ratio (x) = 0.35891 0.16174
# Poissons Ratio (y) = 0.35891 0.16174
# Poissons Ratio (z) = 0.32234 0.32234
#
# Static dielectric constant tensor:
#      x y z
#    x 1.618770 0.000000 0.000000 
#    y 0.000000 1.618770 0.000000 
#    z 0.000000 0.000000 1.614480 
# 
# From -- ./inp_files/1372.got.cif
#   From: 2010.05.17/outbox.cif.g08.bks.cpg/sg175_1_cif.got.tgz:1372.got - 2010.05.20 11:23:22.
