data_PCOD9581292
_publ_section_title
;
Structure prediction by ZEFSAII (Michael W. Deem and Ramdas Pophale) SiO2 
 PCOD9581292
Probable space group: P 6/M
;
_chemical_formula_sum "Si O2"
_cell_formula_units_Z 58
_cell_length_a 18.949302
_cell_length_b 18.949302
_cell_length_c 12.654140
_cell_angle_alpha 90.000000
_cell_angle_beta 90.000000
_cell_angle_gamma 120.000000
_cell_volume 3935.044983
_symmetry_space_group_name_H-M "P 6/M"
_symmetry_group_IT_number 175
_symmetry_cell_setting 'hexagonal'
loop_
_space_group_symop_operation_xyz
x,y,z
x-y,x,z
-y,x-y,z
-x,-y,z
-x+y,-x,z
y,-x+y,z
-x,-y,-z
-x+y,-x,-z
y,-x+y,-z
x,y,-z
x-y,x,-z
-y,x-y,-z
loop_
_atom_site_type_symbol
_atom_site_label
_atom_site_fract_x
_atom_site_fract_y
_atom_site_fract_z
Si Si1 0.092536 0.343442 0.372498
Si Si2 0.952857 0.813838 0.000000
Si Si3 0.591877 0.561702 0.371493
Si Si4 0.210263 0.726971 0.371459
Si Si5 0.333334 0.666668 0.628880
Si Si6 0.047732 0.188409 0.766678
O O1 0.090450 0.334908 0.500000
O O2 0.031508 0.376379 0.342922
O O3 0.184171 0.410988 0.340761
O O4 0.065808 0.257788 0.318024
O O5 0.889965 0.846633 0.000000
O O6 0.942719 0.773820 0.885222
O O7 0.500000 0.500000 0.335339
O O8 0.590207 0.558745 0.500000
O O9 0.655925 0.534343 0.336662
O O10 0.210562 0.726331 0.500000
O O11 0.280181 0.707400 0.337368
O O12 0.333334 0.666668 0.500000
O O13 0.112936 0.157353 0.756447
#
# Coordination Sequence:
#
# PCOD9581292 Si02
#       6
#    12   6  12  12   4  12
#     4  10  19  29  41  60  88 118 142 167 206 257
#     4   8  15  28  46  64  79 100 136 182 222 246
#     4   9  16  26  39  55  78 110 144 173 203 243
#     4   9  16  25  37  54  77 106 139 172 205 243
#     4   9  15  24  39  57  78 106 140 178 213 243
#     4  10  19  31  46  63  84 111 144 179 211 244
#
# _framework density 14.739348
#
# number of rings (size 3 to 8) (size 9 to 14) (size 15 to 20)
#    0.000    2.690    0.000    2.793    0.000    9.103 
#    0.000    0.000    0.000    1.241    0.000    0.724 
#    0.000    4.966    0.000    0.103    0.000    0.000 
#
# Total GULP energy -322879.237249 kJ/mol
# GULP energy per Si atom -5566.883401 kJ/mol
# Density = 1.470580 g / cm^3
# Si number density = 14.739348 Si / 1000 Ang^3
#
#
#
# Elastic Constant Matrix: (Units=GPa)
#
#
# Indices 1 2 3 4 5 6 
#
# 1 114.4895 49.9490 30.0911 0.0000 0.0000 -0.0005
# 2 49.9490 114.4856 30.0911 0.0000 0.0000 -0.0005
# 3 30.0911 30.0911 31.7869 0.0000 0.0000 0.0000
# 4 0.0000 0.0000 0.0000 6.4985 -0.0001 0.0000
# 5 0.0000 0.0000 0.0000 -0.0001 6.4982 0.0000
# 6 -0.0005 -0.0005 0.0000 0.0000 0.0000 32.2698
#
#
#
# Elastic Compliance Matrix: (Units=1/GPa)
#
#
# Indices 1 2 3 4 5 6 
#
# 1 0.012400 -0.003095 -0.008809 0.000000 0.000000 0.000000
# 2 -0.003095 0.012400 -0.008809 0.000000 0.000000 0.000000
# 3 -0.008809 -0.008809 0.048137 0.000000 0.000000 0.000000
# 4 0.000000 0.000000 0.000000 0.153882 0.000003 0.000000
# 5 0.000000 0.000000 0.000000 0.000003 0.153889 0.000000
# 6 0.000000 0.000000 0.000000 0.000000 0.000000 0.030989
#
#
# Mechanical properties :
#
#
# Convention : Reuss Voigt Hill
#
# Bulk Modulus (GPa) = 31.73351 53.44716 42.59033
# Shear Modulus (GPa) = 10.78455 19.09536 14.93996
#
# Velocity S-wave (km/s) = 2.70790 3.60326 3.18718
# Velocity P-wave (km/s) = 5.59942 7.32472 6.51940
#
# Compressibility (1/GPa) = 0.03151243
#
# Stress axis : x y z
#
# Youngs Moduli (GPa) = 80.64711 80.64338 20.77386
#
# Poissons Ratio (x) = 0.24956 0.18299
# Poissons Ratio (y) = 0.24957 0.18300
# Poissons Ratio (z) = 0.71039 0.71040
#
# Static dielectric constant tensor:
#      x y z
#    x 1.483300 0.000000 0.000000 
#    y 0.000000 1.483300 0.000000 
#    z 0.000000 0.000000 1.480370 
# 
# From -- ./inp_files/2458.got.cif
#   From: 2010.05.17/outbox.cif.g08.bks.cpg/sg175_2_cif.got.tgz:2458.got - 2010.05.20 11:23:22.
