data_PCOD9581928
_publ_section_title
;
Structure prediction by ZEFSAII (Michael W. Deem and Ramdas Pophale) SiO2 
 PCOD9581928
Probable space group: P 63/M
;
_chemical_formula_sum "Si O2"
_cell_formula_units_Z 52
_cell_length_a 19.116479
_cell_length_b 19.116479
_cell_length_c 7.868145
_cell_angle_alpha 90.000000
_cell_angle_beta 90.000000
_cell_angle_gamma 120.000000
_cell_volume 2490.111504
_symmetry_space_group_name_H-M "P 63/M"
_symmetry_group_IT_number 176
_symmetry_cell_setting 'hexagonal'
loop_
_space_group_symop_operation_xyz
x,y,z
x-y,x,1/2+z
-y,x-y,z
-x,-y,1/2+z
-x+y,-x,z
y,-x+y,1/2+z
-x,-y,-z
-x+y,-x,1/2-z
y,-x+y,-z
x,y,1/2-z
x-y,x,-z
-y,x-y,1/2-z
loop_
_atom_site_type_symbol
_atom_site_label
_atom_site_fract_x
_atom_site_fract_y
_atom_site_fract_z
Si Si1 0.434686 0.025746 0.545062
Si Si2 0.864036 0.037735 0.447741
Si Si3 0.795359 0.282376 0.954111
Si Si4 0.745189 0.100652 0.455353
Si Si5 0.666667 0.333334 0.958597
O O1 0.430315 0.027416 0.750000
O O2 0.345468 0.960534 0.483195
O O3 0.500000 0.000000 0.500000
O O4 0.462043 0.115561 0.481022
O O5 0.843882 0.016228 0.250000
O O6 0.806740 0.071201 0.514503
O O7 0.956674 0.107558 0.462296
O O8 0.797401 0.290412 0.750000
O O9 0.727504 0.302804 0.015719
O O10 0.773123 0.191694 0.993892
O O11 0.745034 0.098447 0.250000
O O12 0.666667 0.333334 0.750000
#
# Coordination Sequence:
#
# PCOD9581928 Si02
#       5
#    12  12  12  12   4
#     4  10  21  37  57  83 113 146 185 230 278 330
#     4  11  23  40  61  85 114 148 186 229 276 329
#     4  10  20  36  58  81 109 146 188 230 275 330
#     4  10  22  38  56  82 115 147 184 230 279 329
#     4   9  18  33  55  83 109 141 187 233 277 330
#
# _framework density 20.882598999999999
#
# number of rings (size 3 to 8) (size 9 to 14) (size 15 to 20)
#    0.000    1.846    0.000    3.692    0.000    7.385 
#    0.000    1.154    0.000    0.000    0.000    0.000 
#    0.000    0.000    0.000    0.000    0.000    0.000 
#
# Total GULP energy -290726.098196 kJ/mol
# GULP energy per Si atom -5590.886504 kJ/mol
# Density = 2.083507 g / cm^3
# Si number density = 20.882599 Si / 1000 Ang^3
#
#
#
# Elastic Constant Matrix: (Units=GPa)
#
#
# Indices 1 2 3 4 5 6 
#
# 1 197.4063 104.2389 -4.1544 0.0000 0.0000 0.0000
# 2 104.2389 197.4092 -4.1545 0.0000 0.0000 0.0000
# 3 -4.1544 -4.1545 20.6526 0.0000 0.0000 0.0000
# 4 0.0000 0.0000 0.0000 23.6974 0.0000 0.0000
# 5 0.0000 0.0000 0.0000 0.0000 23.6974 0.0000
# 6 0.0000 0.0000 0.0000 0.0000 0.0000 46.5839
#
#
#
# Elastic Compliance Matrix: (Units=1/GPa)
#
#
# Indices 1 2 3 4 5 6 
#
# 1 0.007033 -0.003700 0.000671 0.000000 0.000000 0.000000
# 2 -0.003700 0.007033 0.000671 0.000000 0.000000 0.000000
# 3 0.000671 0.000671 0.048690 0.000000 0.000000 0.000000
# 4 0.000000 0.000000 0.000000 0.042199 0.000000 0.000000
# 5 0.000000 0.000000 0.000000 0.000000 0.042199 0.000000
# 6 0.000000 0.000000 0.000000 0.000000 0.000000 0.021467
#
#
# Mechanical properties :
#
#
# Convention : Reuss Voigt Hill
#
# Bulk Modulus (GPa) = 17.22968 67.48091 42.35529
# Shear Modulus (GPa) = 25.94915 40.09826 33.02371
#
# Velocity S-wave (km/s) = 3.52891 4.38673 3.98099
# Velocity P-wave (km/s) = 4.98727 7.61856 6.43876
#
# Compressibility (1/GPa) = 0.05803940
#
# Stress axis : x y z
#
# Youngs Moduli (GPa) = 142.17753 142.17963 20.53816
#
# Poissons Ratio (x) = 0.52604 -0.01377
# Poissons Ratio (y) = 0.52603 -0.01377
# Poissons Ratio (z) = -0.09534 -0.09534
#
# Static dielectric constant tensor:
#      x y z
#    x 1.707860 0.000000 0.000000 
#    y 0.000000 1.707860 0.000000 
#    z 0.000000 0.000000 1.771540 
# 
# From -- ./inp_files/679.got.cif
#   From: 2010.05.17/outbox.cif.g08.bks.cpg/sg176_1_cif.got.tgz:679.got - 2010.06.03 11:36:45.
