data_PCOD9581368
_publ_section_title
;
Structure prediction by ZEFSAII (Michael W. Deem and Ramdas Pophale) SiO2 
 PCOD9581368
Probable space group: P 6/M
;
_chemical_formula_sum "Si O2"
_cell_formula_units_Z 64
_cell_length_a 16.989494
_cell_length_b 16.989494
_cell_length_c 15.669448
_cell_angle_alpha 90.000000
_cell_angle_beta 90.000000
_cell_angle_gamma 120.000000
_cell_volume 3916.924659
_symmetry_space_group_name_H-M "P 6/M"
_symmetry_group_IT_number 175
_symmetry_cell_setting 'hexagonal'
loop_
_space_group_symop_operation_xyz
x,y,z
x-y,x,z
-y,x-y,z
-x,-y,z
-x+y,-x,z
y,-x+y,z
-x,-y,-z
-x+y,-x,-z
y,-x+y,-z
x,y,-z
x-y,x,-z
-y,x-y,-z
loop_
_atom_site_type_symbol
_atom_site_label
_atom_site_fract_x
_atom_site_fract_y
_atom_site_fract_z
Si Si1 0.627711 0.147439 0.900408
Si Si2 0.215274 0.116334 0.000000
Si Si3 0.333335 0.666667 0.101992
Si Si4 0.194889 0.020741 0.602394
Si Si5 0.649893 0.802687 0.840596
Si Si6 0.500000 0.500000 0.233807
Si Si7 0.692290 0.663195 0.733627
O O1 0.614011 0.230219 0.873662
O O2 0.732557 0.177018 0.886435
O O3 0.569080 0.073154 0.832507
O O4 0.603930 0.122620 0.000000
O O5 0.150389 0.158794 0.000000
O O6 0.276833 0.150355 0.915384
O O7 0.333334 0.666668 0.000000
O O8 0.204358 0.021675 0.500000
O O9 0.105436 0.924942 0.625988
O O10 0.283045 0.029976 0.649274
O O11 0.674389 0.737279 0.783935
O O12 0.644626 0.881468 0.787672
O O13 0.403702 0.431553 0.280592
#
# Coordination Sequence:
#
# PCOD9581368 Si02
#       7
#    12   6   4  12  12   6  12
#     4  10  19  33  49  71  98 140 185 239 281 320
#     4  12  23  36  48  74 108 152 196 227 270 332
#     4   9  18  30  45  66  93 117 169 227 292 315
#     4  10  20  36  62  94 123 149 181 226 284 352
#     4  11  21  33  54  72 108 146 185 233 280 333
#     4  10  23  34  51  74 104 140 192 234 277 323
#     4  11  21  37  54  81 109 144 189 234 286 343
#
# _framework density 16.33935
#
# number of rings (size 3 to 8) (size 9 to 14) (size 15 to 20)
#    0.000    1.500    4.688    1.688    0.000    0.750 
#    1.688    0.469    0.000    0.000    0.000    0.000 
#    0.000    0.000    0.000    0.000    0.000    0.000 
#
# Total GULP energy -356347.416341 kJ/mol
# GULP energy per Si atom -5567.928380 kJ/mol
# Density = 1.630216 g / cm^3
# Si number density = 16.339350 Si / 1000 Ang^3
#
#
#
# Elastic Constant Matrix: (Units=GPa)
#
#
# Indices 1 2 3 4 5 6 
#
# 1 111.0102 42.4113 30.3264 0.0000 0.0000 0.0014
# 2 42.4113 111.0121 30.3272 0.0000 0.0000 -0.0036
# 3 30.3264 30.3272 42.6122 0.0000 0.0000 -0.0002
# 4 0.0000 0.0000 0.0000 25.1541 -0.0001 0.0000
# 5 0.0000 0.0000 0.0000 -0.0001 25.1540 0.0000
# 6 0.0014 -0.0036 -0.0002 0.0000 0.0000 34.3011
#
#
#
# Elastic Compliance Matrix: (Units=1/GPa)
#
#
# Indices 1 2 3 4 5 6 
#
# 1 0.011824 -0.002754 -0.006455 0.000000 0.000000 -0.000001
# 2 -0.002754 0.011824 -0.006455 0.000000 0.000000 0.000001
# 3 -0.006455 -0.006455 0.032655 0.000000 0.000000 0.000000
# 4 0.000000 0.000000 0.000000 0.039755 0.000000 0.000000
# 5 0.000000 0.000000 0.000000 0.000000 0.039755 0.000000
# 6 -0.000001 0.000001 0.000000 0.000000 0.000000 0.029154
#
#
# Mechanical properties :
#
#
# Convention : Reuss Voigt Hill
#
# Bulk Modulus (GPa) = 40.03967 52.30715 46.17341
# Shear Modulus (GPa) = 24.43574 27.69315 26.06445
#
# Velocity S-wave (km/s) = 3.87138 4.12135 3.99832
# Velocity P-wave (km/s) = 6.67396 7.39796 7.04527
#
# Compressibility (1/GPa) = 0.02497523
#
# Stress axis : x y z
#
# Youngs Moduli (GPa) = 84.57653 84.57729 30.62290
#
# Poissons Ratio (x) = 0.23290 0.19767
# Poissons Ratio (y) = 0.23290 0.19767
# Poissons Ratio (z) = 0.54593 0.54595
#
# Static dielectric constant tensor:
#      x y z
#    x 1.551350 0.000000 0.000000 
#    y 0.000000 1.551350 0.000000 
#    z 0.000000 0.000000 1.520040 
# 
# From -- ./inp_files/2856.got.cif
#   From: 2010.05.17/outbox.cif.g08.bks.cpg/sg175_2_cif.got.tgz:2856.got - 2010.05.20 11:23:22.
