data_PCOD9581939
_publ_section_title
;
Structure prediction by ZEFSAII (Michael W. Deem and Ramdas Pophale) SiO2 
 PCOD9581939
Probable space group: P 63/M
;
_chemical_formula_sum "Si O2"
_cell_formula_units_Z 84
_cell_length_a 17.331653
_cell_length_b 17.331653
_cell_length_c 14.361940
_cell_angle_alpha 90.000000
_cell_angle_beta 90.000000
_cell_angle_gamma 120.000000
_cell_volume 3736.144893
_symmetry_space_group_name_H-M "P 63/M"
_symmetry_group_IT_number 176
_symmetry_cell_setting 'hexagonal'
loop_
_space_group_symop_operation_xyz
x,y,z
x-y,x,1/2+z
-y,x-y,z
-x,-y,1/2+z
-x+y,-x,z
y,-x+y,1/2+z
-x,-y,-z
-x+y,-x,1/2-z
y,-x+y,-z
x,y,1/2-z
x-y,x,-z
-y,x-y,1/2-z
loop_
_atom_site_type_symbol
_atom_site_label
_atom_site_fract_x
_atom_site_fract_y
_atom_site_fract_z
Si Si1 0.185065 0.453951 0.563122
Si Si2 0.633764 0.916574 0.856815
Si Si3 0.652462 0.580055 0.644212
Si Si4 0.063503 0.531401 0.862889
Si Si5 0.202588 0.933851 0.035691
Si Si6 0.699323 0.442755 0.905339
Si Si7 0.802076 0.775667 0.638768
O O1 0.214424 0.403513 0.636259
O O2 0.133830 0.502302 0.602401
O O3 0.127006 0.374276 0.489672
O O4 0.274320 0.528565 0.511736
O O5 0.653157 0.945944 0.750000
O O6 0.552643 0.929317 0.893995
O O7 0.720707 0.975815 0.917633
O O8 0.634092 0.590119 0.750000
O O9 0.553720 0.523988 0.603929
O O10 0.706662 0.528421 0.640673
O O11 0.714164 0.680586 0.614278
O O12 0.072287 0.541588 0.750000
O O13 0.121764 0.883351 0.108266
O O14 0.165866 0.954282 0.939666
O O15 0.601124 0.360751 0.881776
O O16 0.803388 0.794421 0.750000
#
# Coordination Sequence:
#
# PCOD9581939 Si02
#       7
#    12  12  12  12  12  12  12
#     4  12  22  40  63  90 131 175 228 285 334 417
#     4  11  25  42  64  98 134 176 233 287 342 411
#     4  10  20  37  58  87 124 172 229 283 340 395
#     4  10  23  40  63  91 129 179 229 283 344 407
#     4  12  23  43  69 102 136 176 230 282 351 412
#     4  10  23  36  52  83 122 171 229 275 340 405
#     4  11  24  44  70 105 143 178 228 289 342 408
#
# _framework density 22.483067999999999
#
# number of rings (size 3 to 8) (size 9 to 14) (size 15 to 20)
#    0.286    0.857    4.286    1.714    2.000    1.714 
#    0.857    0.000    0.000    0.286    0.000    0.000 
#    0.000    0.000    0.000    0.000    0.000    0.000 
#
# Total GULP energy -468294.463736 kJ/mol
# GULP energy per Si atom -5574.934092 kJ/mol
# Density = 2.243190 g / cm^3
# Si number density = 22.483068 Si / 1000 Ang^3
#
#
#
# Elastic Constant Matrix: (Units=GPa)
#
#
# Indices 1 2 3 4 5 6 
#
# 1 73.7572 16.9789 18.9638 0.0000 0.0000 0.0000
# 2 16.9789 73.7572 18.9638 0.0000 0.0000 0.0000
# 3 18.9638 18.9638 83.0556 0.0000 0.0000 0.0000
# 4 0.0000 0.0000 0.0000 22.7414 0.0000 0.0000
# 5 0.0000 0.0000 0.0000 0.0000 22.7414 0.0000
# 6 0.0000 0.0000 0.0000 0.0000 0.0000 28.3892
#
#
#
# Elastic Compliance Matrix: (Units=1/GPa)
#
#
# Indices 1 2 3 4 5 6 
#
# 1 0.014898 -0.002714 -0.002782 0.000000 0.000000 0.000000
# 2 -0.002714 0.014898 -0.002782 0.000000 0.000000 0.000000
# 3 -0.002782 -0.002782 0.013310 0.000000 0.000000 0.000000
# 4 0.000000 0.000000 0.000000 0.043973 0.000000 0.000000
# 5 0.000000 0.000000 0.000000 0.000000 0.043973 0.000000
# 6 0.000000 0.000000 0.000000 0.000000 0.000000 0.035225
#
#
# Mechanical properties :
#
#
# Convention : Reuss Voigt Hill
#
# Bulk Modulus (GPa) = 37.66403 37.82035 37.74219
# Shear Modulus (GPa) = 26.08475 26.48530 26.28503
#
# Velocity S-wave (km/s) = 3.40986 3.43594 3.42292
# Velocity P-wave (km/s) = 5.68255 5.70957 5.69607
#
# Compressibility (1/GPa) = 0.02655053
#
# Stress axis : x y z
#
# Youngs Moduli (GPa) = 67.12275 67.12275 75.12875
#
# Poissons Ratio (x) = 0.18219 0.20900
# Poissons Ratio (y) = 0.18219 0.20900
# Poissons Ratio (z) = 0.18673 0.18673
#
# Static dielectric constant tensor:
#      x y z
#    x 1.866780 0.000000 0.000000 
#    y 0.000000 1.866780 0.000000 
#    z 0.000000 0.000000 1.879360 
# 
# From -- ./inp_files/2948.got.cif
#   From: 2010.05.17/outbox.cif.g08.bks.cpg/sg176_2_cif.got.tgz:2948.got - 2010.06.03 11:36:45.
