data_PCOD9581799
_publ_section_title
;
Structure prediction by ZEFSAII (Michael W. Deem and Ramdas Pophale) SiO2 
 PCOD9581799
Probable space group: P 63/M
;
_chemical_formula_sum "Si O2"
_cell_formula_units_Z 72
_cell_length_a 24.543829
_cell_length_b 24.543829
_cell_length_c 9.106199
_cell_angle_alpha 90.000000
_cell_angle_beta 90.000000
_cell_angle_gamma 120.000000
_cell_volume 4750.643067
_symmetry_space_group_name_H-M "P 63/M"
_symmetry_group_IT_number 176
_symmetry_cell_setting 'hexagonal'
loop_
_space_group_symop_operation_xyz
x,y,z
x-y,x,1/2+z
-y,x-y,z
-x,-y,1/2+z
-x+y,-x,z
y,-x+y,1/2+z
-x,-y,-z
-x+y,-x,1/2-z
y,-x+y,-z
x,y,1/2-z
x-y,x,-z
-y,x-y,1/2-z
loop_
_atom_site_type_symbol
_atom_site_label
_atom_site_fract_x
_atom_site_fract_y
_atom_site_fract_z
Si Si1 0.628427 0.482701 0.424054
Si Si2 0.189186 0.381147 0.922764
Si Si3 0.698703 0.633053 0.422313
Si Si4 0.065243 0.376042 0.922648
Si Si5 0.486203 0.745604 0.423106
Si Si6 0.512287 0.376685 0.574598
O O1 0.621044 0.472768 0.250000
O O2 0.659812 0.557639 0.451547
O O3 0.676791 0.461559 0.486397
O O4 0.562346 0.442626 0.504999
O O5 0.202900 0.402817 0.750000
O O6 0.228077 0.345571 0.948565
O O7 0.114885 0.351122 0.942177
O O8 0.219775 0.440609 0.030534
O O9 0.690737 0.641653 0.250000
O O10 0.671186 0.668058 0.516103
O O11 0.062541 0.386938 0.750000
O O12 0.094607 0.443241 0.004730
O O13 0.478674 0.752005 0.250000
O O14 0.463350 0.672997 0.456753
O O15 0.508186 0.380615 0.750000
#
# Coordination Sequence:
#
# PCOD9581799 Si02
#       6
#    12  12  12  12  12  12
#     4  10  20  33  48  64  86 116 149 188 234 282
#     4   8  16  31  48  65  89 118 145 176 213 258
#     4   9  18  32  48  67  91 119 149 182 222 268
#     4  10  19  31  49  71  92 118 152 186 221 268
#     4   9  17  30  47  64  81 106 141 182 228 275
#     4  10  20  33  48  65  87 115 147 190 238 280
#
# _framework density 15.155843000000001
#
# number of rings (size 3 to 8) (size 9 to 14) (size 15 to 20)
#    0.000    2.667    0.000    3.000    0.000    6.667 
#    1.000    0.000    0.000    0.000    0.000    0.000 
#    0.000    0.000    0.000    0.500    0.000    6.000 
#
# Total GULP energy -400912.714653 kJ/mol
# GULP energy per Si atom -5568.232148 kJ/mol
# Density = 1.512135 g / cm^3
# Si number density = 15.155843 Si / 1000 Ang^3
#
#
#
# Elastic Constant Matrix: (Units=GPa)
#
#
# Indices 1 2 3 4 5 6 
#
# 1 65.4117 43.2220 44.5958 0.0000 0.0000 0.0000
# 2 43.2220 65.4117 44.5958 0.0000 0.0000 0.0000
# 3 44.5958 44.5958 60.5464 0.0000 0.0000 0.0000
# 4 0.0000 0.0000 0.0000 21.4227 0.0000 0.0000
# 5 0.0000 0.0000 0.0000 0.0000 21.4227 0.0000
# 6 0.0000 0.0000 0.0000 0.0000 0.0000 11.0949
#
#
#
# Elastic Compliance Matrix: (Units=1/GPa)
#
#
# Indices 1 2 3 4 5 6 
#
# 1 0.034177 -0.010889 -0.017153 0.000000 0.000000 0.000000
# 2 -0.010889 0.034177 -0.017153 0.000000 0.000000 0.000000
# 3 -0.017153 -0.017153 0.041785 0.000000 0.000000 0.000000
# 4 0.000000 0.000000 0.000000 0.046680 0.000000 0.000000
# 5 0.000000 0.000000 0.000000 0.000000 0.046680 0.000000
# 6 0.000000 0.000000 0.000000 0.000000 0.000000 0.090132
#
#
# Mechanical properties :
#
#
# Convention : Reuss Voigt Hill
#
# Bulk Modulus (GPa) = 50.63578 50.68854 50.66216
# Shear Modulus (GPa) = 12.80066 14.71845 13.75956
#
# Velocity S-wave (km/s) = 2.90936 3.11969 3.01636
# Velocity P-wave (km/s) = 6.69092 6.81866 6.75509
#
# Compressibility (1/GPa) = 0.01974888
#
# Stress axis : x y z
#
# Youngs Moduli (GPa) = 29.25914 29.25914 23.93193
#
# Poissons Ratio (x) = 0.31859 0.41052
# Poissons Ratio (y) = 0.31859 0.41052
# Poissons Ratio (z) = 0.50190 0.50190
#
# Static dielectric constant tensor:
#      x y z
#    x 1.509630 0.000000 0.000000 
#    y 0.000000 1.509630 0.000000 
#    z 0.000000 0.000000 1.503250 
# 
# From -- ./inp_files/1148.got.cif
#   From: 2010.05.17/outbox.cif.g08.bks.cpg/sg176_1_cif.got.tgz:1148.got - 2010.06.03 11:36:45.
