data_PCOD9581409
_publ_section_title
;
Structure prediction by ZEFSAII (Michael W. Deem and Ramdas Pophale) SiO2 
 PCOD9581409
Probable space group: P 6/M
;
_chemical_formula_sum "Si O2"
_cell_formula_units_Z 54
_cell_length_a 10.407380
_cell_length_b 10.407380
_cell_length_c 25.958978
_cell_angle_alpha 90.000000
_cell_angle_beta 90.000000
_cell_angle_gamma 120.000000
_cell_volume 2435.011666
_symmetry_space_group_name_H-M "P 6/M"
_symmetry_group_IT_number 175
_symmetry_cell_setting 'hexagonal'
loop_
_space_group_symop_operation_xyz
x,y,z
x-y,x,z
-y,x-y,z
-x,-y,z
-x+y,-x,z
y,-x+y,z
-x,-y,-z
-x+y,-x,-z
y,-x+y,-z
x,y,-z
x-y,x,-z
-y,x-y,-z
loop_
_atom_site_type_symbol
_atom_site_label
_atom_site_fract_x
_atom_site_fract_y
_atom_site_fract_z
Si Si1 0.255880 0.347035 0.886776
Si Si2 0.078707 0.340317 0.500000
Si Si3 0.073079 0.336482 0.389186
Si Si4 0.907940 0.249550 0.000000
Si Si5 0.000000 0.500000 0.191471
Si Si6 0.503122 0.338236 0.284130
O O1 0.289052 0.209234 0.881886
O O2 0.362363 0.466814 0.845059
O O3 0.304659 0.416242 0.944415
O O4 0.198541 0.285187 0.500000
O O5 0.096117 0.417591 0.444688
O O6 0.194870 0.284853 0.387908
O O7 0.096057 0.429692 0.338086
O O8 0.074359 0.278970 0.000000
O O9 0.916294 0.555869 0.230283
O O10 0.525212 0.197015 0.283829
#
# Coordination Sequence:
#
# PCOD9581409 Si02
#       6
#    12   6  12   6   6  12
#     4  10  21  38  63  93 123 157 197 249 302 362
#     4   8  15  28  52  84 118 147 180 230 294 356
#     4  10  19  35  59  89 118 149 189 240 296 351
#     4   8  15  31  56  88 124 156 189 233 302 368
#     4  12  22  39  60  87 118 154 208 250 298 350
#     4  10  23  39  57  77 108 157 198 237 289 352
#
# _framework density 22.176485
#
# number of rings (size 3 to 8) (size 9 to 14) (size 15 to 20)
#    0.444    1.778    0.000    3.333    0.000    4.000 
#    1.333    1.111    0.000    7.333    0.000    0.000 
#    0.000    0.000    0.000    0.000    0.000    0.000 
#
# Total GULP energy -300948.632672 kJ/mol
# GULP energy per Si atom -5573.122827 kJ/mol
# Density = 2.212601 g / cm^3
# Si number density = 22.176485 Si / 1000 Ang^3
#
#
#
# Elastic Constant Matrix: (Units=GPa)
#
#
# Indices 1 2 3 4 5 6 
#
# 1 41.5882 -1.2422 41.6447 0.0000 0.0000 0.0000
# 2 -1.2422 41.5882 41.6447 0.0000 0.0000 0.0000
# 3 41.6447 41.6447 238.5757 0.0000 0.0000 0.0000
# 4 0.0000 0.0000 0.0000 27.9905 0.0000 0.0000
# 5 0.0000 0.0000 0.0000 0.0000 27.9905 0.0000
# 6 0.0000 0.0000 0.0000 0.0000 0.0000 21.4152
#
#
#
# Elastic Compliance Matrix: (Units=1/GPa)
#
#
# Indices 1 2 3 4 5 6 
#
# 1 0.031048 0.007700 -0.006764 0.000000 0.000000 0.000000
# 2 0.007700 0.031048 -0.006764 0.000000 0.000000 0.000000
# 3 -0.006764 -0.006764 0.006553 0.000000 0.000000 0.000000
# 4 0.000000 0.000000 0.000000 0.035726 0.000000 0.000000
# 5 0.000000 0.000000 0.000000 0.000000 0.035726 0.000000
# 6 0.000000 0.000000 0.000000 0.000000 0.000000 0.046696
#
#
# Mechanical properties :
#
#
# Convention : Reuss Voigt Hill
#
# Bulk Modulus (GPa) = 17.54544 53.98295 35.76419
# Shear Modulus (GPa) = 22.99374 31.45958 27.22666
#
# Velocity S-wave (km/s) = 3.22351 3.77052 3.50769
# Velocity P-wave (km/s) = 4.66729 6.58415 5.70678
#
# Compressibility (1/GPa) = 0.05699488
#
# Stress axis : x y z
#
# Youngs Moduli (GPa) = 32.20797 32.20797 152.60529
#
# Poissons Ratio (x) = -0.24801 1.03219
# Poissons Ratio (y) = -0.24801 1.03219
# Poissons Ratio (z) = 0.21785 0.21785
#
# Static dielectric constant tensor:
#      x y z
#    x 1.838590 0.000000 0.000000 
#    y 0.000000 1.838590 0.000000 
#    z 0.000000 0.000000 1.880540 
# 
# From -- ./inp_files/3081.got.cif
#   From: 2010.05.17/outbox.cif.g08.bks.cpg/sg175_2_cif.got.tgz:3081.got - 2010.05.20 11:23:22.
