data_PCOD9581391
_publ_section_title
;
Structure prediction by ZEFSAII (Michael W. Deem and Ramdas Pophale) SiO2 
 PCOD9581391
Probable space group: P 6/M
;
_chemical_formula_sum "Si O2"
_cell_formula_units_Z 78
_cell_length_a 24.529279
_cell_length_b 24.529279
_cell_length_c 7.907482
_cell_angle_alpha 90.000000
_cell_angle_beta 90.000000
_cell_angle_gamma 120.000000
_cell_volume 4120.390808
_symmetry_space_group_name_H-M "P 6/M"
_symmetry_group_IT_number 175
_symmetry_cell_setting 'hexagonal'
loop_
_space_group_symop_operation_xyz
x,y,z
x-y,x,z
-y,x-y,z
-x,-y,z
-x+y,-x,z
y,-x+y,z
-x,-y,-z
-x+y,-x,-z
y,-x+y,-z
x,y,-z
x-y,x,-z
-y,x-y,-z
loop_
_atom_site_type_symbol
_atom_site_label
_atom_site_fract_x
_atom_site_fract_y
_atom_site_fract_z
Si Si1 0.561641 0.657678 0.304811
Si Si2 0.007663 0.689475 0.190641
Si Si3 0.929160 0.460576 0.197987
Si Si4 0.170831 0.919084 0.199793
Si Si5 0.800788 0.188232 0.703963
Si Si6 0.439323 0.118191 0.691071
Si Si7 0.944416 0.847709 0.500000
O O1 0.579571 0.657024 0.500000
O O2 0.614428 0.654267 0.194184
O O3 0.492167 0.600542 0.277024
O O4 0.574334 0.726563 0.266638
O O5 0.970313 0.725729 0.238556
O O6 0.062996 0.696532 0.307913
O O7 0.031504 0.708948 0.000000
O O8 0.902908 0.387199 0.223197
O O9 0.000000 0.500000 0.270558
O O10 0.932453 0.473630 0.000000
O O11 0.169249 0.852539 0.223990
O O12 0.126509 0.928521 0.333918
O O13 0.158758 0.925447 0.000000
O O14 0.810794 0.191169 0.500000
O O15 0.827314 0.258119 0.772585
O O16 0.462650 0.134618 0.500000
O O17 0.899992 0.880111 0.500000
#
# Coordination Sequence:
#
# PCOD9581391 Si02
#       7
#    12  12  12  12  12  12   6
#     4  10  19  34  56  77 110 156 201 238 292 357
#     4  10  20  33  52  86 123 154 188 238 297 360
#     4  11  22  35  51  78 118 157 196 242 291 348
#     4  10  23  41  68  98 126 161 202 249 315 381
#     4   9  20  38  59  89 125 158 196 255 311 363
#     4  11  22  33  56  86 120 156 198 244 301 360
#     4  12  29  50  72  92 124 161 213 259 309 361
#
# _framework density 18.930243000000001
#
# number of rings (size 3 to 8) (size 9 to 14) (size 15 to 20)
#    0.000    1.692    2.308    1.923    4.308    3.077 
#    0.000    0.000    0.000    1.538    0.000    2.154 
#    0.000    0.000    0.000    0.000    0.000    0.000 
#
# Total GULP energy -434875.750989 kJ/mol
# GULP energy per Si atom -5575.330141 kJ/mol
# Density = 1.888716 g / cm^3
# Si number density = 18.930243 Si / 1000 Ang^3
#
#
#
# Elastic Constant Matrix: (Units=GPa)
#
#
# Indices 1 2 3 4 5 6 
#
# 1 94.7676 52.6986 31.3752 0.0000 0.0000 0.0000
# 2 52.6986 94.7676 31.3752 0.0000 0.0000 0.0000
# 3 31.3752 31.3752 58.9351 0.0000 0.0000 0.0000
# 4 0.0000 0.0000 0.0000 63.1655 0.0000 0.0000
# 5 0.0000 0.0000 0.0000 0.0000 63.1655 0.0000
# 6 0.0000 0.0000 0.0000 0.0000 0.0000 21.0345
#
#
#
# Elastic Compliance Matrix: (Units=1/GPa)
#
#
# Indices 1 2 3 4 5 6 
#
# 1 0.016269 -0.007502 -0.004667 0.000000 0.000000 0.000000
# 2 -0.007502 0.016269 -0.004667 0.000000 0.000000 0.000000
# 3 -0.004667 -0.004667 0.021937 0.000000 0.000000 0.000000
# 4 0.000000 0.000000 0.000000 0.015831 0.000000 0.000000
# 5 0.000000 0.000000 0.000000 0.000000 0.015831 0.000000
# 6 0.000000 0.000000 0.000000 0.000000 0.000000 0.047541
#
#
# Mechanical properties :
#
#
# Convention : Reuss Voigt Hill
#
# Bulk Modulus (GPa) = 48.07167 53.26316 50.66741
# Shear Modulus (GPa) = 28.68849 38.34119 33.51484
#
# Velocity S-wave (km/s) = 3.89715 4.50532 4.21222
# Velocity P-wave (km/s) = 6.76015 7.43381 7.10497
#
# Compressibility (1/GPa) = 0.02080227
#
# Stress axis : x y z
#
# Youngs Moduli (GPa) = 61.46705 61.46705 45.58417
#
# Poissons Ratio (x) = 0.46110 0.21276
# Poissons Ratio (y) = 0.46110 0.21276
# Poissons Ratio (z) = 0.28689 0.28689
#
# Static dielectric constant tensor:
#      x y z
#    x 1.688440 0.000000 0.000000 
#    y 0.000000 1.688440 0.000000 
#    z 0.000000 0.000000 1.672010 
# 
# From -- ./inp_files/1365.got.cif
#   From: 2010.05.17/outbox.cif.g08.bks.cpg/sg175_1_cif.got.tgz:1365.got - 2010.05.20 11:23:22.
