data_PCOD9581090
_publ_section_title
;
Structure prediction by ZEFSAII (Michael W. Deem and Ramdas Pophale) SiO2 
 PCOD9581090
Probable space group: P 63
;
_chemical_formula_sum "Si O2"
_cell_formula_units_Z 42
_cell_length_a 8.494878
_cell_length_b 8.494878
_cell_length_c 31.419841
_cell_angle_alpha 90.000000
_cell_angle_beta 90.000000
_cell_angle_gamma 120.000000
_cell_volume 1963.581388
_symmetry_space_group_name_H-M "P 63"
_symmetry_group_IT_number 173
_symmetry_cell_setting 'hexagonal'
loop_
_space_group_symop_operation_xyz
x,y,z
x-y,x,1/2+z
-y,x-y,z
-x,-y,1/2+z
-x+y,-x,z
y,-x+y,1/2+z
loop_
_atom_site_type_symbol
_atom_site_label
_atom_site_fract_x
_atom_site_fract_y
_atom_site_fract_z
Si Si1 0.648641 0.671472 0.903040
Si Si2 0.339441 0.301406 0.935372
Si Si3 0.240007 0.104628 0.022034
Si Si4 0.684707 0.021845 0.771261
Si Si5 0.651052 0.673907 0.805891
Si Si6 0.697348 0.142790 0.675843
Si Si7 0.552970 0.850776 0.607771
O O1 0.483184 0.511839 0.928861
O O2 0.810101 0.625251 0.900588
O O3 0.601369 0.686862 0.854568
O O4 0.720128 0.863323 0.926622
O O5 0.345462 0.202965 0.978874
O O6 0.372437 0.123200 0.059950
O O7 0.108721 0.193568 0.024495
O O8 0.617715 0.811758 0.778199
O O9 0.529256 0.057734 0.789127
O O10 0.867260 0.141770 0.798119
O O11 0.714816 0.073779 0.721896
O O12 0.845230 0.356844 0.673103
O O13 0.692058 0.006824 0.639418
O O14 0.362184 0.847385 0.614407
#
# Coordination Sequence:
#
# PCOD9581090 Si02
#       7
#     6   6   6   6   6   6   6
#     4  12  24  42  68 100 141 185 242 288 353 414
#     4  12  25  45  69 103 138 189 235 295 356 433
#     4  10  23  46  70  97 137 176 222 286 361 422
#     4  12  25  45  68 102 144 189 241 292 356 425
#     4  12  24  42  67 100 141 190 236 297 345 414
#     4  10  23  46  72  97 140 185 231 281 364 418
#     4  10  26  40  72 105 133 168 231 289 349 432
#
# _framework density 21.389486000000002
#
# number of rings (size 3 to 8) (size 9 to 14) (size 15 to 20)
#    0.857    0.000    2.857    4.286    6.000    0.000 
#    0.000    0.000    3.143    0.000    0.000    0.000 
#    0.000    0.000    0.000    0.000    0.000    0.000 
#
# Total GULP energy -234124.144091 kJ/mol
# GULP energy per Si atom -5574.384383 kJ/mol
# Density = 2.134080 g / cm^3
# Si number density = 21.389486 Si / 1000 Ang^3
#
#
#
# Elastic Constant Matrix: (Units=GPa)
#
#
# Indices 1 2 3 4 5 6 
#
# 1 52.6295 17.3472 28.8078 0.0000 0.0000 0.0000
# 2 17.3472 52.6295 28.8078 0.0000 0.0000 0.0000
# 3 28.8078 28.8078 147.2361 0.0000 0.0000 0.0000
# 4 0.0000 0.0000 0.0000 11.2474 0.0000 0.0000
# 5 0.0000 0.0000 0.0000 0.0000 11.2474 0.0000
# 6 0.0000 0.0000 0.0000 0.0000 0.0000 17.6411
#
#
#
# Elastic Compliance Matrix: (Units=1/GPa)
#
#
# Indices 1 2 3 4 5 6 
#
# 1 0.022689 -0.005654 -0.003333 0.000000 0.000000 0.000000
# 2 -0.005654 0.022689 -0.003333 0.000000 0.000000 0.000000
# 3 -0.003333 -0.003333 0.008096 0.000000 0.000000 0.000000
# 4 0.000000 0.000000 0.000000 0.088910 0.000000 0.000000
# 5 0.000000 0.000000 0.000000 0.000000 0.088910 0.000000
# 6 0.000000 0.000000 0.000000 0.000000 0.000000 0.056686
#
#
# Mechanical properties :
#
#
# Convention : Reuss Voigt Hill
#
# Bulk Modulus (GPa) = 34.68182 44.71343 39.69763
# Shear Modulus (GPa) = 15.51689 19.86266 17.68977
#
# Velocity S-wave (km/s) = 2.69633 3.05063 2.87893
# Velocity P-wave (km/s) = 5.09345 5.77566 5.44525
#
# Compressibility (1/GPa) = 0.02883355
#
# Stress axis : x y z
#
# Youngs Moduli (GPa) = 44.07468 44.07468 123.51699
#
# Poissons Ratio (x) = 0.24920 0.41168
# Poissons Ratio (y) = 0.24920 0.41168
# Poissons Ratio (z) = 0.14690 0.14690
#
# Static dielectric constant tensor:
#      x y z
#    x 1.793250 0.000000 0.000000 
#    y 0.000000 1.793250 0.000000 
#    z 0.000000 0.000000 1.769390 
# 
# From -- ./inp_files/1519.got.cif
#   From: 2010.05.17/outbox.cif.g08.bks.cpg/sg173_cif.got.tgz:1519.got - 2010.05.20 11:21:53.
