data_PCOD9581335
_publ_section_title
;
Structure prediction by ZEFSAII (Michael W. Deem and Ramdas Pophale) SiO2 
 PCOD9581335
Probable space group: P 6/M
;
_chemical_formula_sum "Si O2"
_cell_formula_units_Z 54
_cell_length_a 10.140187
_cell_length_b 10.140187
_cell_length_c 26.401286
_cell_angle_alpha 90.000000
_cell_angle_beta 90.000000
_cell_angle_gamma 120.000000
_cell_volume 2350.973001
_symmetry_space_group_name_H-M "P 6/M"
_symmetry_group_IT_number 175
_symmetry_cell_setting 'hexagonal'
loop_
_space_group_symop_operation_xyz
x,y,z
x-y,x,z
-y,x-y,z
-x,-y,z
-x+y,-x,z
y,-x+y,z
-x,-y,-z
-x+y,-x,-z
y,-x+y,-z
x,y,-z
x-y,x,-z
-y,x-y,-z
loop_
_atom_site_type_symbol
_atom_site_label
_atom_site_fract_x
_atom_site_fract_y
_atom_site_fract_z
Si Si1 0.162698 0.498064 0.323437
Si Si2 0.082425 0.346521 0.783638
Si Si3 0.356110 0.090476 0.500000
Si Si4 0.500000 0.500000 0.415396
Si Si5 0.901166 0.644165 0.000000
Si Si6 0.645319 0.740954 0.108196
O O1 0.330458 0.521712 0.324129
O O2 0.101092 0.432049 0.268584
O O3 0.084565 0.440726 0.377296
O O4 0.203828 0.289718 0.783472
O O5 0.112645 0.434756 0.837507
O O6 0.299804 0.213937 0.500000
O O7 0.461267 0.102928 0.451975
O O8 0.784427 0.709345 0.000000
O O9 0.879073 0.561227 0.945868
O O10 0.786528 0.708980 0.108081
#
# Coordination Sequence:
#
# PCOD9581335 Si02
#       6
#    12  12   6   6   6  12
#     4  10  22  37  60  85 112 149 197 250 281 327
#     4  10  19  32  50  78 114 153 192 239 301 362
#     4  11  25  44  70 104 137 167 196 242 298 355
#     4  11  22  44  68  96 126 163 208 238 286 341
#     4   8  11  16  28  52  86 130 178 227 280 342
#     4   8  13  20  34  58  94 136 181 229 285 351
#
# _framework density 22.969214000000001
#
# number of rings (size 3 to 8) (size 9 to 14) (size 15 to 20)
#    0.444    2.000    0.000    3.333    0.000    3.556 
#    5.333    0.000    0.000    2.667    0.000    1.556 
#    0.000    9.778    0.000    0.000    0.000    0.000 
#
# Total GULP energy -300681.689381 kJ/mol
# GULP energy per Si atom -5568.179433 kJ/mol
# Density = 2.291693 g / cm^3
# Si number density = 22.969214 Si / 1000 Ang^3
#
#
#
# Elastic Constant Matrix: (Units=GPa)
#
#
# Indices 1 2 3 4 5 6 
#
# 1 45.6871 -2.8570 37.2170 0.0000 0.0000 0.0000
# 2 -2.8570 45.6871 37.2170 0.0000 0.0000 0.0000
# 3 37.2170 37.2170 272.6384 0.0000 0.0000 0.0000
# 4 0.0000 0.0000 0.0000 78.4875 0.0000 0.0000
# 5 0.0000 0.0000 0.0000 0.0000 78.4875 0.0000
# 6 0.0000 0.0000 0.0000 0.0000 0.0000 24.2721
#
#
#
# Elastic Compliance Matrix: (Units=1/GPa)
#
#
# Indices 1 2 3 4 5 6 
#
# 1 0.025605 0.005005 -0.004178 0.000000 0.000000 0.000000
# 2 0.005005 0.025605 -0.004178 0.000000 0.000000 0.000000
# 3 -0.004178 -0.004178 0.004809 0.000000 0.000000 0.000000
# 4 0.000000 0.000000 0.000000 0.012741 0.000000 0.000000
# 5 0.000000 0.000000 0.000000 0.000000 0.012741 0.000000
# 6 0.000000 0.000000 0.000000 0.000000 0.000000 0.041200
#
#
# Mechanical properties :
#
#
# Convention : Reuss Voigt Hill
#
# Bulk Modulus (GPa) = 20.27811 56.35188 38.31499
# Shear Modulus (GPa) = 34.28380 55.74513 45.01447
#
# Velocity S-wave (km/s) = 3.86761 4.93175 4.43174
# Velocity P-wave (km/s) = 5.36582 7.55093 6.55014
#
# Compressibility (1/GPa) = 0.04931425
#
# Stress axis : x y z
#
# Youngs Moduli (GPa) = 39.05526 39.05526 207.95941
#
# Poissons Ratio (x) = -0.19547 0.86894
# Poissons Ratio (y) = -0.19547 0.86894
# Poissons Ratio (z) = 0.16319 0.16319
#
# Static dielectric constant tensor:
#      x y z
#    x 1.904460 0.000000 0.000000 
#    y 0.000000 1.904460 0.000000 
#    z 0.000000 0.000000 1.949090 
# 
# From -- ./inp_files/3218.got.cif
#   From: 2010.05.17/outbox.cif.g08.bks.cpg/sg175_2_cif.got.tgz:3218.got - 2010.05.20 11:23:22.
