data_PCOD9581173
_publ_section_title
;
Structure prediction by ZEFSAII (Michael W. Deem and Ramdas Pophale) SiO2 
 PCOD9581173
Probable space group: P -6
;
_chemical_formula_sum "Si O2"
_cell_formula_units_Z 35
_cell_length_a 9.693131
_cell_length_b 9.693131
_cell_length_c 18.509229
_cell_angle_alpha 90.000000
_cell_angle_beta 90.000000
_cell_angle_gamma 120.000000
_cell_volume 1506.076821
_symmetry_space_group_name_H-M "P -6"
_symmetry_group_IT_number 174
_symmetry_cell_setting 'hexagonal'
loop_
_space_group_symop_operation_xyz
x,y,z
-x+y,-x,-z
-y,x-y,z
x,y,-z
-x+y,-x,z
-y,x-y,-z
loop_
_atom_site_type_symbol
_atom_site_label
_atom_site_fract_x
_atom_site_fract_y
_atom_site_fract_z
Si Si1 0.555714 0.593000 0.075933
Si Si2 0.033228 0.434222 0.229725
Si Si3 0.292260 0.221666 0.078019
Si Si4 0.298259 0.231630 0.235903
Si Si5 0.333333 0.666666 0.584433
Si Si6 0.166778 0.815964 0.643514
Si Si7 0.806667 0.839377 0.500000
O O1 0.534656 0.655365 0.152284
O O2 0.438180 0.403099 0.077266
O O3 0.739230 0.635143 0.076667
O O4 0.528363 0.655178 0.000000
O O5 0.884230 0.255153 0.234615
O O6 0.973677 0.559780 0.236978
O O7 0.142432 0.435271 0.292640
O O8 0.211401 0.200927 0.156957
O O9 0.205664 0.197073 0.000000
O O10 0.204684 0.220707 0.309845
O O11 0.333334 0.666668 0.500000
O O12 0.173158 0.668158 0.607609
O O13 0.218475 0.938173 0.576639
O O14 0.970663 0.836649 0.500000
#
# Coordination Sequence:
#
# PCOD9581173 Si02
#       7
#     6   6   6   6   2   6   3
#     4   8  13  23  42  71 106 145 189 234 281 327
#     4  10  20  34  56  84 116 152 191 241 287 337
#     4   8  13  23  42  71 106 145 189 234 281 327
#     4  10  20  34  56  84 116 152 191 241 287 337
#     4  12  24  42  66  87 106 158 190 231 270 354
#     4  12  22  40  61  86 117 147 192 225 291 348
#     4  10  24  42  64  90 110 142 176 232 286 342
#
# _framework density 23.239184000000002
#
# number of rings (size 3 to 8) (size 9 to 14) (size 15 to 20)
#    0.171    2.057    2.571    1.714    0.000    4.114 
#    1.029    0.857    0.000    0.000    0.000    0.000 
#    0.000    0.000    0.000    0.000    0.000    0.000 
#
# Total GULP energy -195031.213784 kJ/mol
# GULP energy per Si atom -5572.320394 kJ/mol
# Density = 2.318629 g / cm^3
# Si number density = 23.239184 Si / 1000 Ang^3
#
#
#
# Elastic Constant Matrix: (Units=GPa)
#
#
# Indices 1 2 3 4 5 6 
#
# 1 58.4200 -2.6092 18.5030 0.0000 0.0000 0.0000
# 2 -2.6092 58.4200 18.5030 0.0000 0.0000 0.0000
# 3 18.5030 18.5030 227.2646 0.0000 0.0000 -0.0001
# 4 0.0000 0.0000 0.0000 -32.0737 -0.0001 0.0000
# 5 0.0000 0.0000 0.0000 -0.0001 -32.0736 0.0000
# 6 0.0000 0.0000 -0.0001 0.0000 0.0000 30.5146
#
#
#
# Elastic Compliance Matrix: (Units=1/GPa)
#
#
# Indices 1 2 3 4 5 6 
#
# 1 0.017663 0.001277 -0.001542 0.000000 0.000000 0.000000
# 2 0.001277 0.017663 -0.001542 0.000000 0.000000 0.000000
# 3 -0.001542 -0.001542 0.004651 0.000000 0.000000 0.000000
# 4 0.000000 0.000000 0.000000 -0.031178 0.000000 0.000000
# 5 0.000000 0.000000 0.000000 0.000000 -0.031178 0.000000
# 6 0.000000 0.000000 0.000000 0.000000 0.000000 0.032771
#
#
# Mechanical properties :
#
#
# Convention : Reuss Voigt Hill
#
# Bulk Modulus (GPa) = 27.50016 45.87757 36.68886
# Shear Modulus (GPa) = 191.37740 13.92066 102.64903
#
# Velocity S-wave (km/s) = 9.08460 2.45014 6.65331
# Velocity P-wave (km/s) = 11.04079 5.27149 8.65123
#
# Compressibility (1/GPa) = 0.03636342
#
# Stress axis : x y z
#
# Youngs Moduli (GPa) = 56.61593 56.61594 214.99600
#
# Poissons Ratio (x) = -0.07231 0.33153
# Poissons Ratio (y) = -0.07231 0.33153
# Poissons Ratio (z) = 0.08730 0.08730
#
# Static dielectric constant tensor:
#      x y z
#    x 1.900460 0.000000 0.000000 
#    y 0.000000 1.900460 0.000000 
#    z 0.000000 0.000000 1.991870 
# 
# From -- ./inp_files/897.got.cif
#   From: 2010.05.17/outbox.cif.g08.bks.cpg/sg174_cif.got.tgz:897.got - 2010.05.20 11:22:48.
