data_PCOD9581859
_publ_section_title
;
Structure prediction by ZEFSAII (Michael W. Deem and Ramdas Pophale) SiO2 
 PCOD9581859
Probable space group: P 63/M
;
_chemical_formula_sum "Si O2"
_cell_formula_units_Z 70
_cell_length_a 15.308742
_cell_length_b 15.308742
_cell_length_c 16.295696
_cell_angle_alpha 90.000000
_cell_angle_beta 90.000000
_cell_angle_gamma 120.000000
_cell_volume 3307.368256
_symmetry_space_group_name_H-M "P 63/M"
_symmetry_group_IT_number 176
_symmetry_cell_setting 'hexagonal'
loop_
_space_group_symop_operation_xyz
x,y,z
x-y,x,1/2+z
-y,x-y,z
-x,-y,1/2+z
-x+y,-x,z
y,-x+y,1/2+z
-x,-y,-z
-x+y,-x,1/2-z
y,-x+y,-z
x,y,1/2-z
x-y,x,-z
-y,x-y,1/2-z
loop_
_atom_site_type_symbol
_atom_site_label
_atom_site_fract_x
_atom_site_fract_y
_atom_site_fract_z
Si Si1 0.777904 0.904177 0.849135
Si Si2 0.246425 0.903266 0.153623
Si Si3 0.000000 0.000000 0.849374
Si Si4 0.587060 0.718098 0.897618
Si Si5 0.740738 0.463080 0.250000
Si Si6 0.491022 0.588096 0.454661
Si Si7 0.569579 0.898683 0.347215
O O1 0.759703 0.876412 0.750000
O O2 0.692144 0.821166 0.906591
O O3 0.782433 0.010697 0.858561
O O4 0.886549 0.921527 0.873126
O O5 0.264784 0.900858 0.250000
O O6 0.348698 0.932224 0.106406
O O7 0.159781 0.789666 0.131536
O O8 0.000000 0.000000 0.750000
O O9 0.529692 0.744337 0.829184
O O10 0.620041 0.638469 0.865180
O O11 0.512682 0.669289 0.974251
O O12 0.620569 0.396526 0.250000
O O13 0.500000 0.500000 0.500000
O O14 0.388871 0.531145 0.402112
O O15 0.546506 0.885743 0.250000
#
# Coordination Sequence:
#
# PCOD9581859 Si02
#       7
#    12  12   4  12   6  12  12
#     4  10  19  35  63  97 134 173 213 262 318 399
#     4  10  22  40  65  97 126 169 220 265 325 397
#     4   9  18  33  60 103 137 172 217 260 310 387
#     4  11  21  39  63  93 132 172 212 268 332 389
#     4  10  24  40  58  92 126 168 218 266 320 386
#     4  10  24  40  62  92 124 170 215 272 325 379
#     4  10  20  40  66  91 127 172 218 272 323 391
#
# _framework density 21.164864000000001
#
# number of rings (size 3 to 8) (size 9 to 14) (size 15 to 20)
#    0.171    1.714    1.714    1.543    0.000    9.600 
#    1.029    0.000    0.000    1.029    0.000    0.000 
#    0.000    0.000    0.000    0.000    0.000    0.000 
#
# Total GULP energy -390733.497857 kJ/mol
# GULP energy per Si atom -5581.907112 kJ/mol
# Density = 2.111669 g / cm^3
# Si number density = 21.164864 Si / 1000 Ang^3
#
#
#
# Elastic Constant Matrix: (Units=GPa)
#
#
# Indices 1 2 3 4 5 6 
#
# 1 52.3083 -9.6876 13.3743 0.0000 0.0000 0.0000
# 2 -9.6876 52.3083 13.3743 0.0000 0.0000 0.0000
# 3 13.3743 13.3743 45.9633 0.0000 0.0000 0.0000
# 4 0.0000 0.0000 0.0000 10.9005 0.0000 0.0000
# 5 0.0000 0.0000 0.0000 0.0000 10.9005 0.0000
# 6 0.0000 0.0000 0.0000 0.0000 0.0000 30.9980
#
#
#
# Elastic Compliance Matrix: (Units=1/GPa)
#
#
# Indices 1 2 3 4 5 6 
#
# 1 0.022417 0.006287 -0.008352 0.000000 0.000000 0.000000
# 2 0.006287 0.022417 -0.008352 0.000000 0.000000 0.000000
# 3 -0.008352 -0.008352 0.026617 0.000000 0.000000 0.000000
# 4 0.000000 0.000000 0.000000 0.091739 0.000000 0.000000
# 5 0.000000 0.000000 0.000000 0.000000 0.091739 0.000000
# 6 0.000000 0.000000 0.000000 0.000000 0.000000 0.032260
#
#
# Mechanical properties :
#
#
# Convention : Reuss Voigt Hill
#
# Bulk Modulus (GPa) = 19.75622 20.52243 20.13933
# Shear Modulus (GPa) = 15.38948 19.46107 17.42528
#
# Velocity S-wave (km/s) = 2.69945 3.03561 2.87245
# Velocity P-wave (km/s) = 4.36701 4.69085 4.53182
#
# Compressibility (1/GPa) = 0.05061696
#
# Stress axis : x y z
#
# Youngs Moduli (GPa) = 44.60818 44.60818 37.56962
#
# Poissons Ratio (x) = -0.28047 0.31380
# Poissons Ratio (y) = -0.28047 0.31380
# Poissons Ratio (z) = 0.37259 0.37259
#
# Static dielectric constant tensor:
#      x y z
#    x 1.878930 0.000000 0.000000 
#    y 0.000000 1.878930 0.000000 
#    z 0.000000 0.000000 1.782610 
# 
# From -- ./inp_files/3396.got.cif
#   From: 2010.05.17/outbox.cif.g08.bks.cpg/sg176_2_cif.got.tgz:3396.got - 2010.06.03 11:36:45.
