data_PCOD9581185
_publ_section_title
;
Structure prediction by ZEFSAII (Michael W. Deem and Ramdas Pophale) SiO2 
 PCOD9581185
Probable space group: P -6
;
_chemical_formula_sum "Si O2"
_cell_formula_units_Z 30
_cell_length_a 8.502942
_cell_length_b 8.502942
_cell_length_c 24.418218
_cell_angle_alpha 90.000000
_cell_angle_beta 90.000000
_cell_angle_gamma 120.000000
_cell_volume 1528.913910
_symmetry_space_group_name_H-M "P -6"
_symmetry_group_IT_number 174
_symmetry_cell_setting 'hexagonal'
loop_
_space_group_symop_operation_xyz
x,y,z
-x+y,-x,-z
-y,x-y,z
x,y,-z
-x+y,-x,z
-y,x-y,-z
loop_
_atom_site_type_symbol
_atom_site_label
_atom_site_fract_x
_atom_site_fract_y
_atom_site_fract_z
Si Si1 0.785417 0.983884 0.893307
Si Si2 0.008965 0.669814 0.334519
Si Si3 0.221973 0.031594 0.500000
Si Si4 0.549068 0.864432 0.000000
Si Si5 0.675423 0.663715 0.619073
Si Si6 0.317313 0.452360 0.787774
O O1 0.674834 0.967145 0.838655
O O2 0.838635 0.824014 0.894236
O O3 0.664932 0.959329 0.946241
O O4 0.803190 0.607510 0.348512
O O5 0.057596 0.528796 0.362519
O O6 0.135206 0.864036 0.362051
O O7 0.050312 0.684514 0.270269
O O8 0.329696 0.043564 0.554698
O O9 0.025241 0.844442 0.500000
O O10 0.349350 0.843128 0.000000
O O11 0.495533 0.652868 0.790329
#
# Coordination Sequence:
#
# PCOD9581185 Si02
#       6
#     6   6   3   3   6   6
#     4  10  22  35  62  98 125 166 220 275 318 388
#     4  12  24  43  64 101 127 181 213 288 330 423
#     4  10  20  42  66  96 122 170 214 276 338 428
#     4  10  20  38  66  88 128 180 212 258 336 400
#     4  12  24  42  68  92 134 166 224 270 353 400
#     4  10  21  40  63  90 130 169 223 262 331 404
#
# _framework density 19.621773000000001
#
# number of rings (size 3 to 8) (size 9 to 14) (size 15 to 20)
#    1.200    0.000    4.000    3.000    2.800    1.600 
#    0.000    0.000    0.000   11.200    0.000    0.000 
#    0.000    0.000    0.000    0.000    0.000    0.000 
#
# Total GULP energy -167367.201575 kJ/mol
# GULP energy per Si atom -5578.906719 kJ/mol
# Density = 1.957711 g / cm^3
# Si number density = 19.621773 Si / 1000 Ang^3
#
#
#
# Elastic Constant Matrix: (Units=GPa)
#
#
# Indices 1 2 3 4 5 6 
#
# 1 53.5195 -9.9289 25.9795 0.0000 0.0000 0.0000
# 2 -9.9289 53.5195 25.9795 0.0000 0.0000 0.0000
# 3 25.9795 25.9795 153.7868 0.0000 0.0000 0.0000
# 4 0.0000 0.0000 0.0000 -157.1280 0.0000 0.0000
# 5 0.0000 0.0000 0.0000 0.0000 -157.1280 0.0000
# 6 0.0000 0.0000 0.0000 0.0000 0.0000 31.7242
#
#
#
# Elastic Compliance Matrix: (Units=1/GPa)
#
#
# Indices 1 2 3 4 5 6 
#
# 1 0.022243 0.006482 -0.004853 0.000000 0.000000 0.000000
# 2 0.006482 0.022243 -0.004853 0.000000 0.000000 0.000000
# 3 -0.004853 -0.004853 0.008142 0.000000 0.000000 0.000000
# 4 0.000000 0.000000 0.000000 -0.006364 0.000000 0.000000
# 5 0.000000 0.000000 0.000000 0.000000 -0.006364 0.000000
# 6 0.000000 0.000000 0.000000 0.000000 0.000000 0.031522
#
#
# Mechanical properties :
#
#
# Convention : Reuss Voigt Hill
#
# Bulk Modulus (GPa) = 21.65363 38.32063 29.98713
# Shear Modulus (GPa) = 53.61300 -41.91997 5.84651
#
# Velocity S-wave (km/s) = 5.23283 -4.62714 1.72803
# Velocity P-wave (km/s) = 6.89707 2.99585 4.39286
#
# Compressibility (1/GPa) = 0.04618163
#
# Stress axis : x y z
#
# Youngs Moduli (GPa) = 44.95822 44.95822 122.81981
#
# Poissons Ratio (x) = -0.29142 0.59599
# Poissons Ratio (y) = -0.29142 0.59599
# Poissons Ratio (z) = 0.21816 0.21816
#
# Static dielectric constant tensor:
#      x y z
#    x 1.712740 0.000000 0.000000 
#    y 0.000000 1.712740 0.000000 
#    z 0.000000 0.000000 1.639700 
# 
# From -- ./inp_files/1078.got.cif
#   From: 2010.05.17/outbox.cif.g08.bks.cpg/sg174_cif.got.tgz:1078.got - 2010.05.20 11:22:48.
