data_PCOD9581790
_publ_section_title
;
Structure prediction by ZEFSAII (Michael W. Deem and Ramdas Pophale) SiO2 
 PCOD9581790
Probable space group: P 63/M
;
_chemical_formula_sum "Si O2"
_cell_formula_units_Z 84
_cell_length_a 19.475330
_cell_length_b 19.475330
_cell_length_c 14.375589
_cell_angle_alpha 90.000000
_cell_angle_beta 90.000000
_cell_angle_gamma 120.000000
_cell_volume 4721.999427
_symmetry_space_group_name_H-M "P 63/M"
_symmetry_group_IT_number 176
_symmetry_cell_setting 'hexagonal'
loop_
_space_group_symop_operation_xyz
x,y,z
x-y,x,1/2+z
-y,x-y,z
-x,-y,1/2+z
-x+y,-x,z
y,-x+y,1/2+z
-x,-y,-z
-x+y,-x,1/2-z
y,-x+y,-z
x,y,1/2-z
x-y,x,-z
-y,x-y,1/2-z
loop_
_atom_site_type_symbol
_atom_site_label
_atom_site_fract_x
_atom_site_fract_y
_atom_site_fract_z
Si Si1 0.270641 0.991465 0.358034
Si Si2 0.182620 0.133668 0.505996
Si Si3 0.828533 0.143709 0.355686
Si Si4 0.491937 0.277384 0.422869
Si Si5 0.444622 0.371034 0.538461
Si Si6 0.527046 0.007163 0.357614
Si Si7 0.376961 0.555130 0.646781
O O1 0.267168 0.971071 0.250000
O O2 0.183460 0.955865 0.402386
O O3 0.321816 0.961730 0.413549
O O4 0.310291 0.086462 0.365922
O O5 0.110860 0.150791 0.486589
O O6 0.250154 0.169116 0.425989
O O7 0.821217 0.115542 0.250000
O O8 0.762323 0.167905 0.375498
O O9 0.480165 0.314188 0.516635
O O10 0.561310 0.352216 0.368161
O O11 0.519914 0.213249 0.426689
O O12 0.437160 0.406812 0.438157
O O13 0.505677 0.444576 0.601551
O O14 0.545047 0.996563 0.250000
O O15 0.515425 0.084010 0.357526
O O16 0.340818 0.541047 0.750000
#
# Coordination Sequence:
#
# PCOD9581790 Si02
#       7
#    12  12  12  12  12  12  12
#     4  10  20  36  58  85 117 156 193 236 292 356
#     4  10  21  38  59  87 120 160 202 245 290 347
#     4  10  20  35  58  85 117 151 190 241 297 345
#     4  11  20  32  50  81 114 147 182 230 290 355
#     4  10  19  33  52  81 109 145 186 238 284 348
#     4   9  19  34  53  77 108 146 188 236 293 350
#     4  10  19  30  48  75 110 145 176 224 289 354
#
# _framework density 17.789075
#
# number of rings (size 3 to 8) (size 9 to 14) (size 15 to 20)
#    0.000    2.000    1.429    3.000    0.000    4.000 
#    0.000    0.000    0.000    1.714    0.000   12.000 
#    0.000    0.000    0.000    0.000    0.000    0.000 
#
# Total GULP energy -468295.825873 kJ/mol
# GULP energy per Si atom -5574.950308 kJ/mol
# Density = 1.774859 g / cm^3
# Si number density = 17.789075 Si / 1000 Ang^3
#
#
#
# Elastic Constant Matrix: (Units=GPa)
#
#
# Indices 1 2 3 4 5 6 
#
# 1 79.8921 43.4705 49.2258 0.0000 0.0000 0.0000
# 2 43.4705 79.8921 49.2258 0.0000 0.0000 0.0000
# 3 49.2258 49.2258 114.5985 0.0000 0.0000 0.0000
# 4 0.0000 0.0000 0.0000 23.8007 0.0000 0.0000
# 5 0.0000 0.0000 0.0000 0.0000 23.8007 0.0000
# 6 0.0000 0.0000 0.0000 0.0000 0.0000 18.2108
#
#
#
# Elastic Compliance Matrix: (Units=1/GPa)
#
#
# Indices 1 2 3 4 5 6 
#
# 1 0.019895 -0.007561 -0.005298 0.000000 0.000000 0.000000
# 2 -0.007561 0.019895 -0.005298 0.000000 0.000000 0.000000
# 3 -0.005298 -0.005298 0.013278 0.000000 0.000000 0.000000
# 4 0.000000 0.000000 0.000000 0.042016 0.000000 0.000000
# 5 0.000000 0.000000 0.000000 0.000000 0.042016 0.000000
# 6 0.000000 0.000000 0.000000 0.000000 0.000000 0.054912
#
#
# Mechanical properties :
#
#
# Convention : Reuss Voigt Hill
#
# Bulk Modulus (GPa) = 59.68794 62.02520 60.85657
# Shear Modulus (GPa) = 21.37557 21.99315 21.68436
#
# Velocity S-wave (km/s) = 3.47019 3.51996 3.49516
# Velocity P-wave (km/s) = 7.04856 7.17376 7.11144
#
# Compressibility (1/GPa) = 0.01675380
#
# Stress axis : x y z
#
# Youngs Moduli (GPa) = 50.26285 50.26285 75.31310
#
# Poissons Ratio (x) = 0.38003 0.39903
# Poissons Ratio (y) = 0.38003 0.39903
# Poissons Ratio (z) = 0.26631 0.26631
#
# Static dielectric constant tensor:
#      x y z
#    x 1.624460 0.000000 0.000000 
#    y 0.000000 1.624460 0.000000 
#    z 0.000000 0.000000 1.614670 
# 
# From -- ./inp_files/2946.got.cif
#   From: 2010.05.17/outbox.cif.g08.bks.cpg/sg176_2_cif.got.tgz:2946.got - 2010.06.03 11:36:45.
