data_PCOD9581380
_publ_section_title
;
Structure prediction by ZEFSAII (Michael W. Deem and Ramdas Pophale) SiO2 
 PCOD9581380
Probable space group: P 6/M
;
_chemical_formula_sum "Si O2"
_cell_formula_units_Z 60
_cell_length_a 20.663433
_cell_length_b 20.663433
_cell_length_c 7.991156
_cell_angle_alpha 90.000000
_cell_angle_beta 90.000000
_cell_angle_gamma 120.000000
_cell_volume 2954.916365
_symmetry_space_group_name_H-M "P 6/M"
_symmetry_group_IT_number 175
_symmetry_cell_setting 'hexagonal'
loop_
_space_group_symop_operation_xyz
x,y,z
x-y,x,z
-y,x-y,z
-x,-y,z
-x+y,-x,z
y,-x+y,z
-x,-y,-z
-x+y,-x,-z
y,-x+y,-z
x,y,-z
x-y,x,-z
-y,x-y,-z
loop_
_atom_site_type_symbol
_atom_site_label
_atom_site_fract_x
_atom_site_fract_y
_atom_site_fract_z
Si Si1 0.651684 0.566409 0.308526
Si Si2 0.677885 0.855135 0.301265
Si Si3 0.471404 0.832362 0.000000
Si Si4 0.308161 0.930712 0.185100
Si Si5 0.960436 0.123615 0.704568
Si Si6 0.688985 0.196096 0.000000
O O1 0.638094 0.538233 0.500000
O O2 0.740816 0.609246 0.272990
O O3 0.626801 0.629300 0.293556
O O4 0.619456 0.504868 0.163355
O O5 0.685521 0.852230 0.500000
O O6 0.669893 0.778284 0.236723
O O7 0.752192 0.928302 0.239042
O O8 0.492322 0.766374 0.000000
O O9 0.382285 0.793809 0.000000
O O10 0.317729 0.964699 0.000000
O O11 0.317771 0.858123 0.155248
O O12 0.964356 0.125619 0.500000
O O13 0.041443 0.143039 0.760299
#
# Coordination Sequence:
#
# PCOD9581380 Si02
#       6
#    12  12   6  12  12   6
#     4  11  22  38  66  95 130 172 207 261 315 373
#     4  10  19  33  54  85 123 163 214 263 311 371
#     4  12  22  49  67  96 129 161 216 250 317 387
#     4  10  20  37  59  93 123 163 208 257 317 364
#     4   9  16  26  42  69 110 159 211 265 314 362
#     4  10  24  41  73  90 125 173 196 266 313 373
#
# _framework density 20.305143000000001
#
# number of rings (size 3 to 8) (size 9 to 14) (size 15 to 20)
#    0.600    1.200    3.000    2.200    0.000    5.600 
#    0.000    4.000    0.000    0.000    0.000    0.000 
#    0.000    3.200    0.000    0.000    0.000    0.000 
#
# Total GULP energy -334432.374449 kJ/mol
# GULP energy per Si atom -5573.872907 kJ/mol
# Density = 2.025893 g / cm^3
# Si number density = 20.305143 Si / 1000 Ang^3
#
#
#
# Elastic Constant Matrix: (Units=GPa)
#
#
# Indices 1 2 3 4 5 6 
#
# 1 60.6886 0.6606 26.4807 0.0000 0.0000 0.0000
# 2 0.6606 60.6886 26.4807 0.0000 0.0000 0.0000
# 3 26.4807 26.4807 43.4346 0.0000 0.0000 0.0000
# 4 0.0000 0.0000 0.0000 10.4421 0.0000 0.0000
# 5 0.0000 0.0000 0.0000 0.0000 10.4421 0.0000
# 6 0.0000 0.0000 0.0000 0.0000 0.0000 30.0140
#
#
#
# Elastic Compliance Matrix: (Units=1/GPa)
#
#
# Indices 1 2 3 4 5 6 
#
# 1 0.025535 0.008876 -0.020979 0.000000 0.000000 0.000000
# 2 0.008876 0.025535 -0.020979 0.000000 0.000000 0.000000
# 3 -0.020979 -0.020979 0.048604 0.000000 0.000000 0.000000
# 4 0.000000 0.000000 0.000000 0.095766 0.000000 0.000000
# 5 0.000000 0.000000 0.000000 0.000000 0.095766 0.000000
# 6 0.000000 0.000000 0.000000 0.000000 0.000000 0.033318
#
#
# Mechanical properties :
#
#
# Convention : Reuss Voigt Hill
#
# Bulk Modulus (GPa) = 29.84288 30.22842 30.03565
# Shear Modulus (GPa) = 12.44214 17.59228 15.01721
#
# Velocity S-wave (km/s) = 2.47808 2.94665 2.72247
# Velocity P-wave (km/s) = 4.78717 5.14747 4.97058
#
# Compressibility (1/GPa) = 0.03350883
#
# Stress axis : x y z
#
# Youngs Moduli (GPa) = 39.16179 39.16179 20.57435
#
# Poissons Ratio (x) = -0.34761 0.43164
# Poissons Ratio (y) = -0.34761 0.43164
# Poissons Ratio (z) = 0.82159 0.82159
#
# Static dielectric constant tensor:
#      x y z
#    x 1.725190 0.000000 0.000000 
#    y 0.000000 1.725190 0.000000 
#    z 0.000000 0.000000 1.725610 
# 
# From -- ./inp_files/937.got.cif
#   From: 2010.05.17/outbox.cif.g08.bks.cpg/sg175_1_cif.got.tgz:937.got - 2010.05.20 11:23:22.
