data_PCOD9581920
_publ_section_title
;
Structure prediction by ZEFSAII (Michael W. Deem and Ramdas Pophale) SiO2 
 PCOD9581920
Probable space group: P 63/M
;
_chemical_formula_sum "Si O2"
_cell_formula_units_Z 78
_cell_length_a 22.736428
_cell_length_b 22.736428
_cell_length_c 7.571621
_cell_angle_alpha 90.000000
_cell_angle_beta 90.000000
_cell_angle_gamma 120.000000
_cell_volume 3389.721132
_symmetry_space_group_name_H-M "P 63/M"
_symmetry_group_IT_number 176
_symmetry_cell_setting 'hexagonal'
loop_
_space_group_symop_operation_xyz
x,y,z
x-y,x,1/2+z
-y,x-y,z
-x,-y,1/2+z
-x+y,-x,z
y,-x+y,1/2+z
-x,-y,-z
-x+y,-x,1/2-z
y,-x+y,-z
x,y,1/2-z
x-y,x,-z
-y,x-y,1/2-z
loop_
_atom_site_type_symbol
_atom_site_label
_atom_site_fract_x
_atom_site_fract_y
_atom_site_fract_z
Si Si1 0.249800 0.307631 0.052531
Si Si2 0.493619 0.354110 0.463225
Si Si3 0.425090 0.202971 0.046544
Si Si4 0.473423 0.845524 0.040203
Si Si5 0.022831 0.222129 0.250000
Si Si6 0.842299 0.900910 0.543093
Si Si7 0.406930 0.417040 0.459655
O O1 0.238275 0.278739 0.250000
O O2 0.331197 0.353582 0.021893
O O3 0.224716 0.362603 0.041683
O O4 0.222960 0.251140 0.904245
O O5 0.488461 0.350505 0.250000
O O6 0.449736 0.277257 0.529445
O O7 0.573204 0.395455 0.507222
O O8 0.459748 0.396964 0.534188
O O9 0.405078 0.201189 0.250000
O O10 0.491409 0.194152 0.039062
O O11 0.484563 0.846677 0.250000
O O12 0.518152 0.922799 0.968282
O O13 0.070854 0.216557 0.407093
O O14 0.877285 0.979587 0.488488
O O15 0.824448 0.896376 0.750000
O O16 0.420649 0.428784 0.250000
#
# Coordination Sequence:
#
# PCOD9581920 Si02
#       7
#    12  12  12  12   6  12  12
#     4  10  21  42  63  90 128 180 219 260 321 390
#     4  10  20  36  59  91 117 152 206 263 316 378
#     4  10  20  38  61  84 121 166 215 259 319 397
#     4  10  20  35  58  84 119 157 197 258 328 386
#     4  12  24  42  66  96 136 174 218 264 332 380
#     4  12  24  46  72 102 135 174 221 275 333 397
#     4   8  17  36  60  86 120 157 206 263 316 371
#
# _framework density 23.010743000000002
#
# number of rings (size 3 to 8) (size 9 to 14) (size 15 to 20)
#    0.000    1.846    2.308    2.923    0.000    1.231 
#    5.077    0.000    0.000    0.000    0.000    0.000 
#    0.000    0.000    0.000    0.000    0.000    0.000 
#
# Total GULP energy -434538.491804 kJ/mol
# GULP energy per Si atom -5571.006305 kJ/mol
# Density = 2.295837 g / cm^3
# Si number density = 23.010743 Si / 1000 Ang^3
#
#
#
# Elastic Constant Matrix: (Units=GPa)
#
#
# Indices 1 2 3 4 5 6 
#
# 1 23.5938 15.7948 9.2139 0.0000 0.0000 0.0000
# 2 15.7948 23.5938 9.2139 0.0000 0.0000 0.0000
# 3 9.2139 9.2139 145.7454 0.0000 0.0000 0.0000
# 4 0.0000 0.0000 0.0000 17.9539 0.0000 0.0000
# 5 0.0000 0.0000 0.0000 0.0000 17.9539 0.0000
# 6 0.0000 0.0000 0.0000 0.0000 0.0000 3.8995
#
#
#
# Elastic Compliance Matrix: (Units=1/GPa)
#
#
# Indices 1 2 3 4 5 6 
#
# 1 0.077191 -0.051030 -0.001654 0.000000 0.000000 0.000000
# 2 -0.051030 0.077191 -0.001654 0.000000 0.000000 0.000000
# 3 -0.001654 -0.001654 0.007070 0.000000 0.000000 0.000000
# 4 0.000000 0.000000 0.000000 0.055698 0.000000 0.000000
# 5 0.000000 0.000000 0.000000 0.000000 0.055698 0.000000
# 6 0.000000 0.000000 0.000000 0.000000 0.000000 0.256442
#
#
# Mechanical properties :
#
#
# Convention : Reuss Voigt Hill
#
# Bulk Modulus (GPa) = 18.94715 29.04202 23.99458
# Shear Modulus (GPa) = 7.62707 18.54217 13.08462
#
# Velocity S-wave (km/s) = 1.82257 2.84175 2.38719
# Velocity P-wave (km/s) = 3.56103 4.83899 4.24834
#
# Compressibility (1/GPa) = 0.05277840
#
# Stress axis : x y z
#
# Youngs Moduli (GPa) = 12.95480 12.95480 141.43470
#
# Poissons Ratio (x) = 0.66108 0.23392
# Poissons Ratio (y) = 0.66108 0.23392
# Poissons Ratio (z) = 0.02143 0.02143
#
# Static dielectric constant tensor:
#      x y z
#    x 1.880380 0.000000 0.000000 
#    y 0.000000 1.880380 0.000000 
#    z 0.000000 0.000000 1.849790 
# 
# From -- ./inp_files/1309.got.cif
#   From: 2010.05.17/outbox.cif.g08.bks.cpg/sg176_1_cif.got.tgz:1309.got - 2010.06.03 11:36:45.
