data_PCOD9581826
_publ_section_title
;
Structure prediction by ZEFSAII (Michael W. Deem and Ramdas Pophale) SiO2 
 PCOD9581826
Probable space group: P 63/M
;
_chemical_formula_sum "Si O2"
_cell_formula_units_Z 66
_cell_length_a 22.873262
_cell_length_b 22.873262
_cell_length_c 5.704477
_cell_angle_alpha 90.000000
_cell_angle_beta 90.000000
_cell_angle_gamma 120.000000
_cell_volume 2584.655552
_symmetry_space_group_name_H-M "P 63/M"
_symmetry_group_IT_number 176
_symmetry_cell_setting 'hexagonal'
loop_
_space_group_symop_operation_xyz
x,y,z
x-y,x,1/2+z
-y,x-y,z
-x,-y,1/2+z
-x+y,-x,z
y,-x+y,1/2+z
-x,-y,-z
-x+y,-x,1/2-z
y,-x+y,-z
x,y,1/2-z
x-y,x,-z
-y,x-y,1/2-z
loop_
_atom_site_type_symbol
_atom_site_label
_atom_site_fract_x
_atom_site_fract_y
_atom_site_fract_z
Si Si1 0.781058 0.250082 0.498701
Si Si2 0.822376 0.956382 0.250000
Si Si3 0.982428 0.283610 0.250000
Si Si4 0.643089 0.785695 0.250000
Si Si5 0.052540 0.472265 0.999833
Si Si6 0.686206 0.941673 0.250000
Si Si7 0.626814 0.210467 0.000312
Si Si8 0.840190 0.838720 0.250000
O O1 0.815532 0.282493 0.750000
O O2 0.765543 0.173258 0.528497
O O3 0.707078 0.241068 0.497183
O O4 0.815980 0.278364 0.250000
O O5 0.768437 0.983137 0.250000
O O6 0.797538 0.876969 0.250000
O O7 0.857972 0.980038 0.501551
O O8 0.955656 0.293233 0.500851
O O9 0.960488 0.203418 0.250000
O O10 0.063204 0.318435 0.250000
O O11 0.674463 0.866211 0.250000
O O12 0.043187 0.435870 0.250000
O O13 0.129199 0.535402 0.001372
O O14 0.044331 0.436704 0.750000
O O15 0.000000 0.500000 0.000000
O O16 0.610181 0.230521 0.750000
O O17 0.608270 0.229246 0.250000
#
# Coordination Sequence:
#
# PCOD9581826 Si02
#       8
#    12   6   6   6  12   6  12   6
#     4   8  16  24  38  54  64  92 106 124 149 170
#     4  10  19  33  48  64  76  90 102 113 131 152
#     4  10  22  32  45  63  76  88 101 120 141 170
#     4  10  20  32  48  56  82  88 106 118 152 184
#     4   8  12  16  24  36  54  80 102 132 162 176
#     4  10  22  32  45  63  76  88 101 120 141 170
#     4   8  12  20  28  42  62  76 110 132 146 179
#     4  10  19  33  48  64  76  90 102 113 131 152
#
# _framework density 25.535318
#
# number of rings (size 3 to 8) (size 9 to 14) (size 15 to 20)
#    0.545    2.545    0.909    0.545    2.545    0.000 
#    0.000    0.000    0.000    3.636    0.000    0.000 
#    0.000    0.000    0.000    0.000    0.000    0.000 
#
# Total GULP energy -367407.132171 kJ/mol
# GULP energy per Si atom -5566.774730 kJ/mol
# Density = 2.547720 g / cm^3
# Si number density = 25.535318 Si / 1000 Ang^3
#
#
#
# Elastic Constant Matrix: (Units=GPa)
#
#
# Indices 1 2 3 4 5 6 
#
# 1 67.1221 15.8723 33.2801 0.0000 0.0000 0.0000
# 2 15.8723 67.1221 33.2801 0.0000 0.0000 0.0000
# 3 33.2801 33.2801 353.1066 0.0000 0.0000 0.0000
# 4 0.0000 0.0000 0.0000 78.5914 0.0000 0.0000
# 5 0.0000 0.0000 0.0000 0.0000 78.5914 0.0000
# 6 0.0000 0.0000 0.0000 0.0000 0.0000 25.6249
#
#
#
# Elastic Compliance Matrix: (Units=1/GPa)
#
#
# Indices 1 2 3 4 5 6 
#
# 1 0.016273 -0.003239 -0.001228 0.000000 0.000000 0.000000
# 2 -0.003239 0.016273 -0.001228 0.000000 0.000000 0.000000
# 3 -0.001228 -0.001228 0.003064 0.000000 0.000000 0.000000
# 4 0.000000 0.000000 0.000000 0.012724 0.000000 0.000000
# 5 0.000000 0.000000 0.000000 0.000000 0.012724 0.000000
# 6 0.000000 0.000000 0.000000 0.000000 0.000000 0.039025
#
#
# Mechanical properties :
#
#
# Convention : Reuss Voigt Hill
#
# Bulk Modulus (GPa) = 41.29136 72.46842 56.87989
# Shear Modulus (GPa) = 41.82443 63.55609 52.69026
#
# Velocity S-wave (km/s) = 4.05149 4.99435 4.54742
# Velocity P-wave (km/s) = 6.17183 7.85489 7.06367
#
# Compressibility (1/GPa) = 0.02421814
#
# Stress axis : x y z
#
# Youngs Moduli (GPa) = 61.45054 61.45054 326.41639
#
# Poissons Ratio (x) = 0.19904 0.40099
# Poissons Ratio (y) = 0.19904 0.40099
# Poissons Ratio (z) = 0.07549 0.07549
#
# Static dielectric constant tensor:
#      x y z
#    x 2.000570 0.000000 0.000000 
#    y 0.000000 2.000570 0.000000 
#    z 0.000000 0.000000 2.121250 
# 
# From -- ./inp_files/197.got.cif
#   From: 2010.05.17/outbox.cif.g08.bks.cpg/sg176_1_cif.got.tgz:197.got - 2010.06.03 11:36:45.
