data_PCOD9581201
_publ_section_title
;
Structure prediction by ZEFSAII (Michael W. Deem and Ramdas Pophale) SiO2 
 PCOD9581201
Probable space group: P -6
;
_chemical_formula_sum "Si O2"
_cell_formula_units_Z 30
_cell_length_a 8.555989
_cell_length_b 8.555989
_cell_length_c 24.707160
_cell_angle_alpha 90.000000
_cell_angle_beta 90.000000
_cell_angle_gamma 120.000000
_cell_volume 1566.368333
_symmetry_space_group_name_H-M "P -6"
_symmetry_group_IT_number 174
_symmetry_cell_setting 'hexagonal'
loop_
_space_group_symop_operation_xyz
x,y,z
-x+y,-x,-z
-y,x-y,z
x,y,-z
-x+y,-x,z
-y,x-y,-z
loop_
_atom_site_type_symbol
_atom_site_label
_atom_site_fract_x
_atom_site_fract_y
_atom_site_fract_z
Si Si1 0.661432 0.664357 0.325429
Si Si2 0.797283 0.005563 0.162510
Si Si3 0.997111 0.667410 0.279638
Si Si4 0.789127 0.798287 0.438916
Si Si5 0.685544 0.137716 0.938501
O O1 0.802988 0.607339 0.304833
O O2 0.469043 0.528182 0.300628
O O3 0.667205 0.679308 0.390255
O O4 0.727711 0.862903 0.302088
O O5 0.691759 0.010297 0.215134
O O6 0.708675 0.022264 0.107622
O O7 0.005472 0.170978 0.164679
O O8 0.724892 0.736990 0.500000
O O9 0.835948 0.007343 0.433512
O O10 0.841977 0.349504 0.932816
O O11 0.692014 0.080289 0.000000
#
# Coordination Sequence:
#
# PCOD9581201 Si02
#       5
#     6   6   6   6   6
#     4  12  22  41  59  89 123 163 203 256 320 379
#     4  10  21  36  56  86 117 159 209 261 300 352
#     4  12  24  39  60  88 128 162 208 260 315 377
#     4   8  15  33  64  88 111 154 197 252 320 375
#     4   8  18  35  57  85 117 152 197 251 309 371
#
# _framework density 19.152581999999999
#
# number of rings (size 3 to 8) (size 9 to 14) (size 15 to 20)
#    1.200    0.800    4.000    1.200    2.800    0.800 
#    0.000    2.000    0.000    0.800    0.000    0.000 
#    0.000    0.000    0.000    0.000    0.000    0.000 
#
# Total GULP energy -167100.675982 kJ/mol
# GULP energy per Si atom -5570.022533 kJ/mol
# Density = 1.910899 g / cm^3
# Si number density = 19.152582 Si / 1000 Ang^3
#
#
#
# Elastic Constant Matrix: (Units=GPa)
#
#
# Indices 1 2 3 4 5 6 
#
# 1 41.3369 2.0397 32.9994 0.0000 0.0000 0.0000
# 2 2.0397 41.3369 32.9994 0.0000 0.0000 0.0000
# 3 32.9994 32.9994 196.6987 0.0000 0.0000 0.0000
# 4 0.0000 0.0000 0.0000 12.6195 0.0000 0.0000
# 5 0.0000 0.0000 0.0000 0.0000 12.6195 0.0000
# 6 0.0000 0.0000 0.0000 0.0000 0.0000 19.6486
#
#
#
# Elastic Compliance Matrix: (Units=1/GPa)
#
#
# Indices 1 2 3 4 5 6 
#
# 1 0.028201 0.002754 -0.005193 0.000000 0.000000 0.000000
# 2 0.002754 0.028201 -0.005193 0.000000 0.000000 0.000000
# 3 -0.005193 -0.005193 0.006826 0.000000 0.000000 0.000000
# 4 0.000000 0.000000 0.000000 0.079242 0.000000 0.000000
# 5 0.000000 0.000000 0.000000 0.000000 0.079242 0.000000
# 6 0.000000 0.000000 0.000000 0.000000 0.000000 0.050894
#
#
# Mechanical properties :
#
#
# Convention : Reuss Voigt Hill
#
# Bulk Modulus (GPa) = 20.84869 46.16106 33.50488
# Shear Modulus (GPa) = 16.45488 23.06645 19.76066
#
# Velocity S-wave (km/s) = 2.93430 3.47414 3.21557
# Velocity P-wave (km/s) = 4.73174 6.34405 5.59626
#
# Compressibility (1/GPa) = 0.04796464
#
# Stress axis : x y z
#
# Youngs Moduli (GPa) = 35.45919 35.45919 146.48896
#
# Poissons Ratio (x) = -0.09767 0.76077
# Poissons Ratio (y) = -0.09767 0.76077
# Poissons Ratio (z) = 0.18415 0.18415
#
# Static dielectric constant tensor:
#      x y z
#    x 1.708140 0.000000 0.000000 
#    y 0.000000 1.708140 0.000000 
#    z 0.000000 0.000000 1.651230 
# 
# From -- ./inp_files/1069.got.cif
#   From: 2010.05.17/outbox.cif.g08.bks.cpg/sg174_cif.got.tgz:1069.got - 2010.05.20 11:22:48.
