data_PCOD9581631
_publ_section_title
;
Structure prediction by ZEFSAII (Michael W. Deem and Ramdas Pophale) SiO2 
 PCOD9581631
Probable space group: P 6/M
;
_chemical_formula_sum "Si O2"
_cell_formula_units_Z 72
_cell_length_a 14.181977
_cell_length_b 14.181977
_cell_length_c 19.342162
_cell_angle_alpha 90.000000
_cell_angle_beta 90.000000
_cell_angle_gamma 120.000000
_cell_volume 3369.063538
_symmetry_space_group_name_H-M "P 6/M"
_symmetry_group_IT_number 175
_symmetry_cell_setting 'hexagonal'
loop_
_space_group_symop_operation_xyz
x,y,z
x-y,x,z
-y,x-y,z
-x,-y,z
-x+y,-x,z
y,-x+y,z
-x,-y,-z
-x+y,-x,-z
y,-x+y,-z
x,y,-z
x-y,x,-z
-y,x-y,-z
loop_
_atom_site_type_symbol
_atom_site_label
_atom_site_fract_x
_atom_site_fract_y
_atom_site_fract_z
Si Si1 0.838559 0.364995 0.577725
Si Si2 0.685724 0.063094 0.427309
Si Si3 0.742908 0.852451 0.917001
Si Si4 0.086165 0.250856 0.309064
Si Si5 0.578073 0.770530 0.803706
Si Si6 0.414064 0.542567 0.731589
O O1 0.786037 0.321933 0.500000
O O2 0.881702 0.493215 0.571295
O O3 0.807030 0.355791 0.659650
O O4 0.936703 0.339621 0.579671
O O5 0.744405 0.080124 0.500000
O O6 0.768484 0.109896 0.365996
O O7 0.820088 0.801488 0.898051
O O8 0.623615 0.787709 0.881281
O O9 0.732334 0.845744 0.000000
O O10 0.161402 0.199214 0.317359
O O11 0.111196 0.313084 0.237603
O O12 0.482735 0.654308 0.774831
O O13 0.541359 0.856517 0.779807
O O14 0.500000 0.500000 0.714890
#
# Coordination Sequence:
#
# PCOD9581631 Si02
#       6
#    12  12  12  12  12  12
#     4   9  16  33  60  85 111 154 211 273 328 383
#     4   9  17  33  57  82 109 154 214 268 322 384
#     4  10  21  41  70 104 140 179 225 274 324 392
#     4  12  24  39  57  87 126 173 220 271 337 415
#     4  12  25  41  64  96 127 168 222 277 345 417
#     4  12  22  40  63  89 127 166 207 274 343 399
#
# _framework density 21.370925
#
# number of rings (size 3 to 8) (size 9 to 14) (size 15 to 20)
#    0.000    1.333    3.333    5.667    0.000    1.333 
#    0.000    4.167    0.000    4.000    0.000    0.000 
#    0.000    0.000    0.000    0.000    0.000    0.000 
#
# Total GULP energy -401665.904996 kJ/mol
# GULP energy per Si atom -5578.693125 kJ/mol
# Density = 2.132228 g / cm^3
# Si number density = 21.370925 Si / 1000 Ang^3
#
#
#
# Elastic Constant Matrix: (Units=GPa)
#
#
# Indices 1 2 3 4 5 6 
#
# 1 87.2595 52.4722 36.7071 0.0000 0.0000 0.0000
# 2 52.4722 87.2595 36.7071 0.0000 0.0000 0.0000
# 3 36.7071 36.7071 95.6647 0.0000 0.0000 0.0000
# 4 0.0000 0.0000 0.0000 15.7861 0.0000 0.0000
# 5 0.0000 0.0000 0.0000 0.0000 15.7861 0.0000
# 6 0.0000 0.0000 0.0000 0.0000 0.0000 17.3937
#
#
#
# Elastic Compliance Matrix: (Units=1/GPa)
#
#
# Indices 1 2 3 4 5 6 
#
# 1 0.018855 -0.009891 -0.003439 0.000000 0.000000 0.000000
# 2 -0.009891 0.018855 -0.003439 0.000000 0.000000 0.000000
# 3 -0.003439 -0.003439 0.013093 0.000000 0.000000 0.000000
# 4 0.000000 0.000000 0.000000 0.063347 0.000000 0.000000
# 5 0.000000 0.000000 0.000000 0.000000 0.063347 0.000000
# 6 0.000000 0.000000 0.000000 0.000000 0.000000 0.057492
#
#
# Mechanical properties :
#
#
# Convention : Reuss Voigt Hill
#
# Bulk Modulus (GPa) = 57.92981 57.99515 57.96248
# Shear Modulus (GPa) = 18.22939 19.41300 18.82119
#
# Velocity S-wave (km/s) = 2.92378 3.01721 2.97086
# Velocity P-wave (km/s) = 6.20997 6.27171 6.24092
#
# Compressibility (1/GPa) = 0.01726227
#
# Stress axis : x y z
#
# Youngs Moduli (GPa) = 53.03677 53.03677 76.37906
#
# Poissons Ratio (x) = 0.52460 0.26270
# Poissons Ratio (y) = 0.52460 0.26270
# Poissons Ratio (z) = 0.18241 0.18241
#
# Static dielectric constant tensor:
#      x y z
#    x 1.797370 0.000000 0.000000 
#    y 0.000000 1.797370 0.000000 
#    z 0.000000 0.000000 1.830710 
# 
# From -- ./inp_files/2869.got.cif
#   From: 2010.05.17/outbox.cif.g08.bks.cpg/sg175_2_cif.got.tgz:2869.got - 2010.05.20 11:23:22.
