data_PCOD9581103
_publ_section_title
;
Structure prediction by ZEFSAII (Michael W. Deem and Ramdas Pophale) SiO2 
 PCOD9581103
Probable space group: P 63
;
_chemical_formula_sum "Si O2"
_cell_formula_units_Z 34
_cell_length_a 14.593481
_cell_length_b 14.593481
_cell_length_c 8.458562
_cell_angle_alpha 90.000000
_cell_angle_beta 90.000000
_cell_angle_gamma 120.000000
_cell_volume 1560.073151
_symmetry_space_group_name_H-M "P 63"
_symmetry_group_IT_number 173
_symmetry_cell_setting 'hexagonal'
loop_
_space_group_symop_operation_xyz
x,y,z
x-y,x,1/2+z
-y,x-y,z
-x,-y,1/2+z
-x+y,-x,z
y,-x+y,1/2+z
loop_
_atom_site_type_symbol
_atom_site_label
_atom_site_fract_x
_atom_site_fract_y
_atom_site_fract_z
Si Si1 0.197185 0.249391 0.908370
Si Si2 0.666668 0.333335 0.390321
Si Si3 0.410183 0.514309 0.405073
Si Si4 0.666666 0.333333 0.768945
Si Si5 0.398136 0.369815 0.116063
Si Si6 0.804004 0.260006 0.206400
Si Si7 0.042626 0.136229 0.151020
O O1 0.227730 0.347230 0.794191
O O2 0.197672 0.156726 0.805000
O O3 0.283463 0.293432 0.045423
O O4 0.084009 0.205796 0.994690
O O5 0.666668 0.333334 0.579288
O O6 0.762123 0.319566 0.320583
O O7 0.396143 0.609534 0.334142
O O8 0.390739 0.433143 0.264805
O O9 0.525685 0.553595 0.478538
O O10 0.328889 0.468397 0.551607
O O11 0.450319 0.299398 0.159887
O O12 0.110360 0.075777 0.150827
#
# Coordination Sequence:
#
# PCOD9581103 Si02
#       7
#     6   2   6   2   6   6   6
#     4  12  26  44  73 111 144 198 255 311 374 448
#     4  12  25  50  76 111 142 206 244 306 400 446
#     4  12  26  52  72 116 151 200 247 316 391 446
#     4  12  25  47  85  99 157 203 247 300 400 467
#     4  12  28  44  78 108 149 195 254 318 370 469
#     4  12  26  48  76 105 155 192 250 317 372 466
#     4  10  24  47  74 100 150 198 251 312 371 444
#
# _framework density 21.793852000000001
#
# number of rings (size 3 to 8) (size 9 to 14) (size 15 to 20)
#    0.353    0.000    3.529    4.235    7.412    1.412 
#    0.000    0.000    0.000    0.000    0.000    0.000 
#    0.000    0.000    0.000    0.000    0.000    0.000 
#
# Total GULP energy -190142.975009 kJ/mol
# GULP energy per Si atom -5592.440441 kJ/mol
# Density = 2.174425 g / cm^3
# Si number density = 21.793852 Si / 1000 Ang^3
#
#
#
# Elastic Constant Matrix: (Units=GPa)
#
#
# Indices 1 2 3 4 5 6 
#
# 1 88.9256 45.4791 68.1236 0.0000 0.0000 -0.0002
# 2 45.4791 88.9255 68.1237 0.0000 0.0000 -0.0002
# 3 68.1236 68.1237 180.4971 0.0000 0.0000 -0.0002
# 4 0.0000 0.0000 0.0000 46.1371 -0.0004 0.0000
# 5 0.0000 0.0000 0.0000 -0.0004 46.1368 0.0000
# 6 -0.0002 -0.0002 -0.0002 0.0000 0.0000 21.7231
#
#
#
# Elastic Compliance Matrix: (Units=1/GPa)
#
#
# Indices 1 2 3 4 5 6 
#
# 1 0.017534 -0.005483 -0.004548 0.000000 0.000000 0.000000
# 2 -0.005483 0.017534 -0.004548 0.000000 0.000000 0.000000
# 3 -0.004548 -0.004548 0.008973 0.000000 0.000000 0.000000
# 4 0.000000 0.000000 0.000000 0.021675 0.000000 0.000000
# 5 0.000000 0.000000 0.000000 0.000000 0.021675 0.000000
# 6 0.000000 0.000000 0.000000 0.000000 0.000000 0.046034
#
#
# Mechanical properties :
#
#
# Convention : Reuss Voigt Hill
#
# Bulk Modulus (GPa) = 67.19473 80.20012 73.69742
# Shear Modulus (GPa) = 29.84289 34.57418 32.20854
#
# Velocity S-wave (km/s) = 3.70446 3.98731 3.84848
# Velocity P-wave (km/s) = 7.01400 7.62086 7.32372
#
# Compressibility (1/GPa) = 0.01488212
#
# Stress axis : x y z
#
# Youngs Moduli (GPa) = 57.03270 57.03249 111.43956
#
# Poissons Ratio (x) = 0.31271 0.50685
# Poissons Ratio (y) = 0.31271 0.50686
# Poissons Ratio (z) = 0.25940 0.25940
#
# Static dielectric constant tensor:
#      x y z
#    x 1.806340 0.000000 0.000000 
#    y 0.000000 1.806340 0.000000 
#    z 0.000000 0.000000 1.791940 
# 
# From -- ./inp_files/572.got.cif
#   From: 2010.05.17/outbox.cif.g08.bks.cpg/sg173_cif.got.tgz:572.got - 2010.05.20 11:21:53.
