data_PCOD9581037
_publ_section_title
;
Structure prediction by ZEFSAII (Michael W. Deem and Ramdas Pophale) SiO2 
 PCOD9581037
Probable space group: P 63
;
_chemical_formula_sum "Si O2"
_cell_formula_units_Z 48
_cell_length_a 16.090455
_cell_length_b 16.090455
_cell_length_c 11.021115
_cell_angle_alpha 90.000000
_cell_angle_beta 90.000000
_cell_angle_gamma 120.000000
_cell_volume 2471.114198
_symmetry_space_group_name_H-M "P 63"
_symmetry_group_IT_number 173
_symmetry_cell_setting 'hexagonal'
loop_
_space_group_symop_operation_xyz
x,y,z
x-y,x,1/2+z
-y,x-y,z
-x,-y,1/2+z
-x+y,-x,z
y,-x+y,1/2+z
loop_
_atom_site_type_symbol
_atom_site_label
_atom_site_fract_x
_atom_site_fract_y
_atom_site_fract_z
Si Si1 0.549223 0.745883 0.392500
Si Si2 0.080172 0.729748 0.750186
Si Si3 0.893385 0.618461 0.634957
Si Si4 0.434370 0.873134 0.736845
Si Si5 0.906119 0.634021 0.147588
Si Si6 0.350853 0.088458 0.526306
Si Si7 0.547862 0.141809 0.968558
Si Si8 0.088264 0.542541 0.997663
O O1 0.601123 0.755473 0.267179
O O2 0.600378 0.734315 0.511423
O O3 0.451144 0.643676 0.389900
O O4 0.527702 0.830537 0.419444
O O5 0.079124 0.628140 0.747158
O O6 0.181871 0.821526 0.716998
O O7 0.055817 0.738549 0.888616
O O8 0.999498 0.708888 0.651565
O O9 0.830668 0.640687 0.544455
O O10 0.893495 0.522890 0.590732
O O11 0.370833 0.922377 0.707640
O O12 0.421629 0.818970 0.607947
O O13 0.408426 0.844907 0.877732
O O14 0.009378 0.726106 0.124401
O O15 0.457537 0.101537 0.539915
O O16 0.503233 0.026417 0.966825
#
# Coordination Sequence:
#
# PCOD9581037 Si02
#       8
#     6   6   6   6   6   6   6   6
#     4  11  22  35  58  90 121 160 211 254 296 365
#     4  11  21  43  61  89 129 158 205 264 305 370
#     4  12  24  40  62  90 126 163 207 257 315 365
#     4  10  20  35  62  84 117 165 206 243 299 366
#     4  11  20  40  62  90 118 162 204 253 310 365
#     4  11  24  41  62  91 123 164 210 253 307 370
#     4  11  21  36  60  85 122 167 204 248 303 353
#     4  11  22  40  59  87 126 169 203 254 309 354
#
# _framework density 19.424437000000001
#
# number of rings (size 3 to 8) (size 9 to 14) (size 15 to 20)
#    0.000    1.000    6.250    1.750    3.500    0.000 
#    3.750    0.000    0.000    0.500    0.000    0.000 
#    0.000    0.000    0.000    0.000    0.000    0.000 
#
# Total GULP energy -267357.617284 kJ/mol
# GULP energy per Si atom -5569.950360 kJ/mol
# Density = 1.938023 g / cm^3
# Si number density = 19.424437 Si / 1000 Ang^3
#
#
#
# Elastic Constant Matrix: (Units=GPa)
#
#
# Indices 1 2 3 4 5 6 
#
# 1 59.2269 34.3759 14.5999 0.0000 0.0000 0.0000
# 2 34.3759 59.2269 14.5999 0.0000 0.0000 0.0000
# 3 14.5999 14.5999 64.4497 0.0000 0.0000 0.0000
# 4 0.0000 0.0000 0.0000 21.7011 0.0000 0.0000
# 5 0.0000 0.0000 0.0000 0.0000 21.7011 0.0000
# 6 0.0000 0.0000 0.0000 0.0000 0.0000 12.4255
#
#
#
# Elastic Compliance Matrix: (Units=1/GPa)
#
#
# Indices 1 2 3 4 5 6 
#
# 1 0.025868 -0.014372 -0.002604 0.000000 0.000000 0.000000
# 2 -0.014372 0.025868 -0.002604 0.000000 0.000000 0.000000
# 3 -0.002604 -0.002604 0.016696 0.000000 0.000000 0.000000
# 4 0.000000 0.000000 0.000000 0.046081 0.000000 0.000000
# 5 0.000000 0.000000 0.000000 0.000000 0.046081 0.000000
# 6 0.000000 0.000000 0.000000 0.000000 0.000000 0.080480
#
#
# Mechanical properties :
#
#
# Convention : Reuss Voigt Hill
#
# Bulk Modulus (GPa) = 34.16374 34.45054 34.30714
# Shear Modulus (GPa) = 17.24197 19.12072 18.18135
#
# Velocity S-wave (km/s) = 2.98257 3.14086 3.06274
# Velocity P-wave (km/s) = 5.43021 5.56125 5.49612
#
# Compressibility (1/GPa) = 0.02927080
#
# Stress axis : x y z
#
# Youngs Moduli (GPa) = 38.65804 38.65804 59.89514
#
# Poissons Ratio (x) = 0.55559 0.15598
# Poissons Ratio (y) = 0.55559 0.15598
# Poissons Ratio (z) = 0.10067 0.10067
#
# Static dielectric constant tensor:
#      x y z
#    x 1.694660 0.000000 0.000000 
#    y 0.000000 1.694660 0.000000 
#    z 0.000000 0.000000 1.734790 
# 
# From -- ./inp_files/937.got.cif
#   From: 2010.05.17/outbox.cif.g08.bks.cpg/sg173_cif.got.tgz:937.got - 2010.05.20 11:21:53.
