data_PCOD9581235
_publ_section_title
;
Structure prediction by ZEFSAII (Michael W. Deem and Ramdas Pophale) SiO2 
 PCOD9581235
Probable space group: P 6/M
;
_chemical_formula_sum "Si O2"
_cell_formula_units_Z 72
_cell_length_a 23.544237
_cell_length_b 23.544237
_cell_length_c 7.451978
_cell_angle_alpha 90.000000
_cell_angle_beta 90.000000
_cell_angle_gamma 120.000000
_cell_volume 3577.432411
_symmetry_space_group_name_H-M "P 6/M"
_symmetry_group_IT_number 175
_symmetry_cell_setting 'hexagonal'
loop_
_space_group_symop_operation_xyz
x,y,z
x-y,x,z
-y,x-y,z
-x,-y,z
-x+y,-x,z
y,-x+y,z
-x,-y,-z
-x+y,-x,-z
y,-x+y,-z
x,y,-z
x-y,x,-z
-y,x-y,-z
loop_
_atom_site_type_symbol
_atom_site_label
_atom_site_fract_x
_atom_site_fract_y
_atom_site_fract_z
Si Si1 0.442921 0.216281 0.283680
Si Si2 0.624846 0.497746 0.719411
Si Si3 0.378113 0.995223 0.716488
Si Si4 0.995727 0.244695 0.788027
Si Si5 0.504642 0.362601 0.719427
Si Si6 0.140298 0.287637 0.786349
O O1 0.444674 0.216333 0.500000
O O2 0.473546 0.172766 0.219856
O O3 0.487604 0.290769 0.222046
O O4 0.366447 0.185966 0.237734
O O5 0.624852 0.496697 0.500000
O O6 0.605941 0.551852 0.774662
O O7 0.572225 0.424945 0.778571
O O8 0.377874 0.994710 0.500000
O O9 0.369255 0.926561 0.777202
O O10 0.317973 0.005558 0.769612
O O11 0.926999 0.185324 0.714916
O O12 0.065942 0.257782 0.714978
O O13 0.996009 0.232360 0.000000
O O14 0.505503 0.363221 0.500000
O O15 0.134617 0.276469 0.000000
#
# Coordination Sequence:
#
# PCOD9581235 Si02
#       6
#    12  12  12  12  12  12
#     4  10  18  30  50  72  95 127 167 207 243 282
#     4   9  17  28  43  68  98 127 158 196 241 283
#     4  10  17  28  50  72  95 125 158 198 240 285
#     4  10  20  33  51  74 100 128 155 192 244 296
#     4   9  17  28  43  68  98 127 158 196 241 283
#     4  10  20  34  52  73 100 128 156 194 243 295
#
# _framework density 20.126166000000001
#
# number of rings (size 3 to 8) (size 9 to 14) (size 15 to 20)
#    0.000    2.333    3.333    0.500    0.000    2.000 
#    1.000    0.000    0.000    5.333    0.000    2.333 
#    0.000    0.000    0.000    3.000    0.000    3.333 
#
# Total GULP energy -401916.200234 kJ/mol
# GULP energy per Si atom -5582.169448 kJ/mol
# Density = 2.008036 g / cm^3
# Si number density = 20.126166 Si / 1000 Ang^3
#
#
#
# Elastic Constant Matrix: (Units=GPa)
#
#
# Indices 1 2 3 4 5 6 
#
# 1 89.2319 23.3925 -1.0204 0.0000 0.0000 0.0000
# 2 23.3925 89.2319 -1.0204 0.0000 0.0000 0.0000
# 3 -1.0204 -1.0204 60.7948 0.0000 0.0000 0.0000
# 4 0.0000 0.0000 0.0000 9.5943 0.0000 0.0000
# 5 0.0000 0.0000 0.0000 0.0000 9.5943 0.0000
# 6 0.0000 0.0000 0.0000 0.0000 0.0000 32.9197
#
#
#
# Elastic Compliance Matrix: (Units=1/GPa)
#
#
# Indices 1 2 3 4 5 6 
#
# 1 0.012035 -0.003153 0.000149 0.000000 0.000000 0.000000
# 2 -0.003153 0.012035 0.000149 0.000000 0.000000 0.000000
# 3 0.000149 0.000149 0.016454 0.000000 0.000000 0.000000
# 4 0.000000 0.000000 0.000000 0.104228 0.000000 0.000000
# 5 0.000000 0.000000 0.000000 0.000000 0.104228 0.000000
# 6 0.000000 0.000000 0.000000 0.000000 0.000000 0.030377
#
#
# Mechanical properties :
#
#
# Convention : Reuss Voigt Hill
#
# Bulk Modulus (GPa) = 28.72439 31.32911 30.02675
# Shear Modulus (GPa) = 16.85360 24.94879 20.90119
#
# Velocity S-wave (km/s) = 2.89692 3.52464 3.22609
# Velocity P-wave (km/s) = 5.04903 5.67136 5.36922
#
# Compressibility (1/GPa) = 0.03481362
#
# Stress axis : x y z
#
# Youngs Moduli (GPa) = 83.09011 83.09011 60.77632
#
# Poissons Ratio (x) = 0.26201 -0.00906
# Poissons Ratio (y) = 0.26201 -0.00906
# Poissons Ratio (z) = -0.01239 -0.01239
#
# Static dielectric constant tensor:
#      x y z
#    x 1.694510 0.000000 0.000000 
#    y 0.000000 1.694510 0.000000 
#    z 0.000000 0.000000 1.782220 
# 
# From -- ./inp_files/1147.got.cif
#   From: 2010.05.17/outbox.cif.g08.bks.cpg/sg175_1_cif.got.tgz:1147.got - 2010.05.20 11:23:22.
