data_PCOD9581868
_publ_section_title
;
Structure prediction by ZEFSAII (Michael W. Deem and Ramdas Pophale) SiO2 
 PCOD9581868
Probable space group: P 63/M
;
_chemical_formula_sum "Si O2"
_cell_formula_units_Z 60
_cell_length_a 13.954715
_cell_length_b 13.954715
_cell_length_c 15.389874
_cell_angle_alpha 90.000000
_cell_angle_beta 90.000000
_cell_angle_gamma 120.000000
_cell_volume 2595.419949
_symmetry_space_group_name_H-M "P 63/M"
_symmetry_group_IT_number 176
_symmetry_cell_setting 'hexagonal'
loop_
_space_group_symop_operation_xyz
x,y,z
x-y,x,1/2+z
-y,x-y,z
-x,-y,1/2+z
-x+y,-x,z
y,-x+y,1/2+z
-x,-y,-z
-x+y,-x,1/2-z
y,-x+y,-z
x,y,1/2-z
x-y,x,-z
-y,x-y,1/2-z
loop_
_atom_site_type_symbol
_atom_site_label
_atom_site_fract_x
_atom_site_fract_y
_atom_site_fract_z
Si Si1 0.479075 0.102861 0.650065
Si Si2 0.808945 0.382502 0.026916
Si Si3 0.614664 0.916200 0.657967
Si Si4 0.316702 0.179993 0.604020
Si Si5 0.306821 0.243975 0.404360
O O1 0.512152 0.103206 0.750000
O O2 0.563646 0.145869 0.570692
O O3 0.426859 0.183369 0.638967
O O4 0.372576 0.986322 0.621242
O O5 0.743412 0.448198 0.043058
O O6 0.900399 0.373165 0.083391
O O7 0.556593 0.900403 0.750000
O O8 0.658631 0.830178 0.649689
O O9 0.727001 0.032178 0.653205
O O10 0.312911 0.211682 0.503732
O O11 0.232142 0.046665 0.611688
#
# Coordination Sequence:
#
# PCOD9581868 Si02
#       5
#    12  12  12  12  12
#     4  10  20  38  61  89 124 159 206 256 309 378
#     4  10  24  42  64  91 118 162 210 265 317 378
#     4  12  22  40  64  90 130 168 205 262 314 358
#     4  10  19  36  62  89 123 168 205 247 313 377
#     4  10  19  36  62  89 123 168 205 247 313 377
#
# _framework density 23.117647000000002
#
# number of rings (size 3 to 8) (size 9 to 14) (size 15 to 20)
#    1.600    0.000    6.000    1.200    0.000    1.600 
#    1.200    5.000    0.000    4.800    0.000    0.000 
#    0.000    0.000    0.000    0.000    0.000    0.000 
#
# Total GULP energy -334174.076051 kJ/mol
# GULP energy per Si atom -5569.567934 kJ/mol
# Density = 2.306503 g / cm^3
# Si number density = 23.117647 Si / 1000 Ang^3
#
#
#
# Elastic Constant Matrix: (Units=GPa)
#
#
# Indices 1 2 3 4 5 6 
#
# 1 105.1007 35.1117 15.1420 0.0000 0.0000 0.0000
# 2 35.1117 105.1007 15.1420 0.0000 0.0000 0.0000
# 3 15.1420 15.1420 146.4497 0.0000 0.0000 0.0000
# 4 0.0000 0.0000 0.0000 -54.8222 0.0000 0.0000
# 5 0.0000 0.0000 0.0000 0.0000 -54.8222 0.0000
# 6 0.0000 0.0000 0.0000 0.0000 0.0000 34.9945
#
#
#
# Elastic Compliance Matrix: (Units=1/GPa)
#
#
# Indices 1 2 3 4 5 6 
#
# 1 0.010791 -0.003497 -0.000754 0.000000 0.000000 0.000000
# 2 -0.003497 0.010791 -0.000754 0.000000 0.000000 0.000000
# 3 -0.000754 -0.000754 0.006984 0.000000 0.000000 0.000000
# 4 0.000000 0.000000 0.000000 -0.018241 0.000000 0.000000
# 5 0.000000 0.000000 0.000000 0.000000 -0.018241 0.000000
# 6 0.000000 0.000000 0.000000 0.000000 0.000000 0.028576
#
#
# Mechanical properties :
#
#
# Convention : Reuss Voigt Hill
#
# Bulk Modulus (GPa) = 53.88765 54.16030 54.02397
# Shear Modulus (GPa) = 135.65874 4.48706 70.07290
#
# Velocity S-wave (km/s) = 7.66872 1.39470 5.51155
# Velocity P-wave (km/s) = 10.08827 5.10613 7.99518
#
# Compressibility (1/GPa) = 0.01855713
#
# Stress axis : x y z
#
# Youngs Moduli (GPa) = 92.66599 92.66599 143.17926
#
# Poissons Ratio (x) = 0.32401 0.10799
# Poissons Ratio (y) = 0.32401 0.10799
# Poissons Ratio (z) = 0.06989 0.06989
#
# Static dielectric constant tensor:
#      x y z
#    x 1.890110 0.000000 0.000000 
#    y 0.000000 1.890110 0.000000 
#    z 0.000000 0.000000 1.890120 
# 
# From -- ./inp_files/2748.got.cif
#   From: 2010.05.17/outbox.cif.g08.bks.cpg/sg176_2_cif.got.tgz:2748.got - 2010.06.03 11:36:45.
