data_PCOD9581791
_publ_section_title
;
Structure prediction by ZEFSAII (Michael W. Deem and Ramdas Pophale) SiO2 
 PCOD9581791
Probable space group: P 63/M
;
_chemical_formula_sum "Si O2"
_cell_formula_units_Z 72
_cell_length_a 21.938396
_cell_length_b 21.938396
_cell_length_c 7.486772
_cell_angle_alpha 90.000000
_cell_angle_beta 90.000000
_cell_angle_gamma 120.000000
_cell_volume 3120.577567
_symmetry_space_group_name_H-M "P 63/M"
_symmetry_group_IT_number 176
_symmetry_cell_setting 'hexagonal'
loop_
_space_group_symop_operation_xyz
x,y,z
x-y,x,1/2+z
-y,x-y,z
-x,-y,1/2+z
-x+y,-x,z
y,-x+y,1/2+z
-x,-y,-z
-x+y,-x,1/2-z
y,-x+y,-z
x,y,1/2-z
x-y,x,-z
-y,x-y,1/2-z
loop_
_atom_site_type_symbol
_atom_site_label
_atom_site_fract_x
_atom_site_fract_y
_atom_site_fract_z
Si Si1 0.876424 0.686923 0.546994
Si Si2 0.250872 0.779683 0.467670
Si Si3 0.929394 0.838214 0.956799
Si Si4 0.997719 0.661634 0.454564
Si Si5 0.121091 0.645002 0.468354
Si Si6 0.897886 0.499849 0.533208
O O1 0.850840 0.683127 0.750000
O O2 0.824817 0.609982 0.467713
O O3 0.887575 0.759091 0.465333
O O4 0.952079 0.690571 0.548034
O O5 0.250828 0.781848 0.250000
O O6 0.200931 0.699432 0.520429
O O7 0.332368 0.821820 0.518150
O O8 0.941634 0.829118 0.750000
O O9 0.885211 0.878081 0.965444
O O10 0.005987 0.685814 0.250000
O O11 0.953154 0.576398 0.461052
O O12 0.072255 0.676690 0.527964
O O13 0.117295 0.642724 0.250000
O O14 0.094767 0.565777 0.528223
O O15 0.903832 0.504117 0.750000
#
# Coordination Sequence:
#
# PCOD9581791 Si02
#       6
#    12  12  12  12  12  12
#     4   9  20  37  57  79 109 145 176 217 272 323
#     4   8  15  30  49  71 103 136 170 214 263 313
#     4  11  24  41  62  86 114 149 188 229 275 328
#     4  10  19  30  51  77 104 135 173 219 265 317
#     4   9  17  28  48  77 102 132 172 214 263 313
#     4   9  17  32  50  70 102 137 170 214 263 317
#
# _framework density 23.072652999999999
#
# number of rings (size 3 to 8) (size 9 to 14) (size 15 to 20)
#    0.000    2.667    0.000    2.667    2.333    1.333 
#    1.000    0.833    0.000    5.000    0.000    0.000 
#    0.000    0.000    0.000    0.000    0.000    0.000 
#
# Total GULP energy -401897.461650 kJ/mol
# GULP energy per Si atom -5581.909190 kJ/mol
# Density = 2.302014 g / cm^3
# Si number density = 23.072653 Si / 1000 Ang^3
#
#
#
# Elastic Constant Matrix: (Units=GPa)
#
#
# Indices 1 2 3 4 5 6 
#
# 1 42.9582 -9.0371 -2.3442 0.0000 0.0000 0.0000
# 2 -9.0371 42.9582 -2.3442 0.0000 0.0000 0.0000
# 3 -2.3442 -2.3442 66.9718 0.0000 0.0000 0.0000
# 4 0.0000 0.0000 0.0000 4.9130 0.0000 0.0000
# 5 0.0000 0.0000 0.0000 0.0000 4.9130 0.0000
# 6 0.0000 0.0000 0.0000 0.0000 0.0000 25.9976
#
#
#
# Elastic Compliance Matrix: (Units=1/GPa)
#
#
# Indices 1 2 3 4 5 6 
#
# 1 0.024428 0.005195 0.001037 0.000000 0.000000 0.000000
# 2 0.005195 0.024428 0.001037 0.000000 0.000000 0.000000
# 3 0.001037 0.001037 0.015004 0.000000 0.000000 0.000000
# 4 0.000000 0.000000 0.000000 0.203543 0.000000 0.000000
# 5 0.000000 0.000000 0.000000 0.000000 0.203543 0.000000
# 6 0.000000 0.000000 0.000000 0.000000 0.000000 0.038465
#
#
# Mechanical properties :
#
#
# Convention : Reuss Voigt Hill
#
# Bulk Modulus (GPa) = 12.75529 13.93747 13.34638
# Shear Modulus (GPa) = 9.59683 18.27229 13.93456
#
# Velocity S-wave (km/s) = 2.04167 2.81721 2.46019
# Velocity P-wave (km/s) = 3.33140 4.07873 3.72386
#
# Compressibility (1/GPa) = 0.07839886
#
# Stress axis : x y z
#
# Youngs Moduli (GPa) = 40.93662 40.93662 66.64782
#
# Poissons Ratio (x) = -0.21269 -0.06911
# Poissons Ratio (y) = -0.21269 -0.06911
# Poissons Ratio (z) = -0.04245 -0.04245
#
# Static dielectric constant tensor:
#      x y z
#    x 1.848710 0.000000 0.000000 
#    y 0.000000 1.848710 0.000000 
#    z 0.000000 0.000000 1.896430 
# 
# From -- ./inp_files/1221.got.cif
#   From: 2010.05.17/outbox.cif.g08.bks.cpg/sg176_1_cif.got.tgz:1221.got - 2010.06.03 11:36:45.
