data_PCOD9581403
_publ_section_title
;
Structure prediction by ZEFSAII (Michael W. Deem and Ramdas Pophale) SiO2 
 PCOD9581403
Probable space group: P 6/M
;
_chemical_formula_sum "Si O2"
_cell_formula_units_Z 60
_cell_length_a 10.916531
_cell_length_b 10.916531
_cell_length_c 26.620148
_cell_angle_alpha 90.000000
_cell_angle_beta 90.000000
_cell_angle_gamma 120.000000
_cell_volume 2747.327303
_symmetry_space_group_name_H-M "P 6/M"
_symmetry_group_IT_number 175
_symmetry_cell_setting 'hexagonal'
loop_
_space_group_symop_operation_xyz
x,y,z
x-y,x,z
-y,x-y,z
-x,-y,z
-x+y,-x,z
y,-x+y,z
-x,-y,-z
-x+y,-x,-z
y,-x+y,-z
x,y,-z
x-y,x,-z
-y,x-y,-z
loop_
_atom_site_type_symbol
_atom_site_label
_atom_site_fract_x
_atom_site_fract_y
_atom_site_fract_z
Si Si1 0.290098 0.997322 0.799612
Si Si2 0.168669 0.508872 0.598019
Si Si3 0.039758 0.311703 0.309300
Si Si4 0.744463 0.066867 0.500000
Si Si5 0.964547 0.274749 0.908831
Si Si6 0.836128 0.350584 0.000000
O O1 0.274305 0.135265 0.799550
O O2 0.363394 0.017836 0.853605
O O3 0.342857 0.975504 0.745750
O O4 0.328806 0.533607 0.597921
O O5 0.084251 0.425998 0.647014
O O6 0.094133 0.420029 0.548672
O O7 0.166488 0.275430 0.313392
O O8 0.910817 0.186073 0.500000
O O9 0.112315 0.276007 0.913333
O O10 0.920111 0.348058 0.951351
O O11 0.790230 0.469773 0.000000
#
# Coordination Sequence:
#
# PCOD9581403 Si02
#       6
#    12  12  12   6  12   6
#     4   8  15  28  52  85 115 146 183 240 316 375
#     4  10  24  42  59  91 123 177 222 257 301 366
#     4  10  19  34  60  90 121 155 203 263 325 378
#     4  12  25  42  66  96 131 164 208 272 338 394
#     4  10  19  34  60  91 121 149 195 258 324 377
#     4  10  24  40  54  82 120 176 216 250 294 374
#
# _framework density 21.839406
#
# number of rings (size 3 to 8) (size 9 to 14) (size 15 to 20)
#    0.600    1.600    0.000    3.100    0.000    8.800 
#    0.000    3.000    0.000   36.000    0.000    0.000 
#    0.000    0.000    0.000    0.000    0.000    0.000 
#
# Total GULP energy -334393.022064 kJ/mol
# GULP energy per Si atom -5573.217034 kJ/mol
# Density = 2.178970 g / cm^3
# Si number density = 21.839406 Si / 1000 Ang^3
#
#
#
# Elastic Constant Matrix: (Units=GPa)
#
#
# Indices 1 2 3 4 5 6 
#
# 1 179.0613 -5.9300 73.7487 0.0000 0.0000 0.0000
# 2 -5.9300 179.0613 73.7487 0.0000 0.0000 0.0000
# 3 73.7487 73.7487 242.1700 0.0000 0.0000 0.0000
# 4 0.0000 0.0000 0.0000 -349.1277 0.0000 0.0000
# 5 0.0000 0.0000 0.0000 0.0000 -349.1277 0.0000
# 6 0.0000 0.0000 0.0000 0.0000 0.0000 92.4956
#
#
#
# Elastic Compliance Matrix: (Units=1/GPa)
#
#
# Indices 1 2 3 4 5 6 
#
# 1 0.006603 0.001197 -0.002375 0.000000 0.000000 0.000000
# 2 0.001197 0.006603 -0.002375 0.000000 0.000000 0.000000
# 3 -0.002375 -0.002375 0.005576 0.000000 0.000000 0.000000
# 4 0.000000 0.000000 0.000000 -0.002864 0.000000 0.000000
# 5 0.000000 0.000000 0.000000 0.000000 -0.002864 0.000000
# 6 0.000000 0.000000 0.000000 0.000000 0.000000 0.010811
#
#
# Mechanical properties :
#
#
# Convention : Reuss Voigt Hill
#
# Bulk Modulus (GPa) = 85.65928 98.15863 91.90895
# Shear Modulus (GPa) = 143.42157 -90.57026 26.42566
#
# Velocity S-wave (km/s) = 8.11256 -6.44679 3.48228
# Velocity P-wave (km/s) = 11.27204 3.22048 7.63830
#
# Compressibility (1/GPa) = 0.01167416
#
# Stress axis : x y z
#
# Youngs Moduli (GPa) = 151.45605 151.45605 179.34048
#
# Poissons Ratio (x) = -0.18128 0.42597
# Poissons Ratio (y) = -0.18128 0.42597
# Poissons Ratio (z) = 0.35974 0.35974
#
# Static dielectric constant tensor:
#      x y z
#    x 1.798620 0.000000 0.000000 
#    y 0.000000 1.798620 0.000000 
#    z 0.000000 0.000000 1.863670 
# 
# From -- ./inp_files/3351.got.cif
#   From: 2010.05.17/outbox.cif.g08.bks.cpg/sg175_2_cif.got.tgz:3351.got - 2010.05.20 11:23:22.
