data_PCOD9581663
_publ_section_title
;
Structure prediction by ZEFSAII (Michael W. Deem and Ramdas Pophale) SiO2 
 PCOD9581663
Probable space group: P 6/M
;
_chemical_formula_sum "Si O2"
_cell_formula_units_Z 30
_cell_length_a 11.028487
_cell_length_b 11.028487
_cell_length_c 13.233562
_cell_angle_alpha 90.000000
_cell_angle_beta 90.000000
_cell_angle_gamma 120.000000
_cell_volume 1393.924525
_symmetry_space_group_name_H-M "P 6/M"
_symmetry_group_IT_number 175
_symmetry_cell_setting 'hexagonal'
loop_
_space_group_symop_operation_xyz
x,y,z
x-y,x,z
-y,x-y,z
-x,-y,z
-x+y,-x,z
y,-x+y,z
-x,-y,-z
-x+y,-x,-z
y,-x+y,-z
x,y,-z
x-y,x,-z
-y,x-y,-z
loop_
_atom_site_type_symbol
_atom_site_label
_atom_site_fract_x
_atom_site_fract_y
_atom_site_fract_z
Si Si1 0.682176 0.500476 0.386138
Si Si2 0.752048 0.682953 0.191181
Si Si3 0.173841 0.665440 0.000000
O O1 0.543893 0.346471 0.376961
O O2 0.687145 0.552758 0.500000
O O3 0.698014 0.602372 0.297125
O O4 0.730434 0.815034 0.183697
O O5 0.674755 0.575158 0.100215
O O6 0.202999 0.536530 0.000000
#
# Coordination Sequence:
#
# PCOD9581663 Si02
#       3
#    12  12   6
#     4   8  18  39  63  93 119 148 200 258 312 346
#     4  12  25  40  60  87 125 167 199 233 285 359
#     4  10  24  44  64  96 114 140 196 258 312 348
#
# _framework density 21.521967
#
# number of rings (size 3 to 8) (size 9 to 14) (size 15 to 20)
#    1.200    0.800    0.000    4.000    0.000    9.600 
#    0.000    6.000    0.000    2.400    0.000    0.000 
#    0.000    0.000    0.000    0.000    0.000    0.000 
#
# Total GULP energy -167737.214492 kJ/mol
# GULP energy per Si atom -5591.240483 kJ/mol
# Density = 2.147298 g / cm^3
# Si number density = 21.521967 Si / 1000 Ang^3
#
#
#
# Elastic Constant Matrix: (Units=GPa)
#
#
# Indices 1 2 3 4 5 6 
#
# 1 91.2116 23.2654 50.1851 0.0000 0.0000 0.0000
# 2 23.2654 91.2116 50.1851 0.0000 0.0000 0.0000
# 3 50.1851 50.1851 148.3248 0.0000 0.0000 0.0000
# 4 0.0000 0.0000 0.0000 1.9353 0.0000 0.0000
# 5 0.0000 0.0000 0.0000 0.0000 1.9353 0.0000
# 6 0.0000 0.0000 0.0000 0.0000 0.0000 33.9731
#
#
#
# Elastic Compliance Matrix: (Units=1/GPa)
#
#
# Indices 1 2 3 4 5 6 
#
# 1 0.013569 -0.001149 -0.004202 0.000000 0.000000 0.000000
# 2 -0.001149 0.013569 -0.004202 0.000000 0.000000 0.000000
# 3 -0.004202 -0.004202 0.009586 0.000000 0.000000 0.000000
# 4 0.000000 0.000000 0.000000 0.516709 0.000000 0.000000
# 5 0.000000 0.000000 0.000000 0.000000 0.516709 0.000000
# 6 0.000000 0.000000 0.000000 0.000000 0.000000 0.029435
#
#
# Mechanical properties :
#
#
# Convention : Reuss Voigt Hill
#
# Bulk Modulus (GPa) = 56.76554 64.22437 60.49496
# Shear Modulus (GPa) = 4.44620 21.37624 12.91122
#
# Velocity S-wave (km/s) = 1.43888 3.15497 2.45196
# Velocity P-wave (km/s) = 5.40309 6.57099 6.01545
#
# Compressibility (1/GPa) = 0.01761632
#
# Stress axis : x y z
#
# Youngs Moduli (GPa) = 73.69943 73.69943 104.32388
#
# Poissons Ratio (x) = 0.08467 0.43839
# Poissons Ratio (y) = 0.08467 0.43839
# Poissons Ratio (z) = 0.30970 0.30970
#
# Static dielectric constant tensor:
#      x y z
#    x 1.785820 0.000000 0.000000 
#    y 0.000000 1.785820 0.000000 
#    z 0.000000 0.000000 1.719910 
# 
# From -- ./inp_files/2188.got.cif
#   From: 2010.05.17/outbox.cif.g08.bks.cpg/sg175_2_cif.got.tgz:2188.got - 2010.05.20 11:23:22.
