data_PCOD9581328
_publ_section_title
;
Structure prediction by ZEFSAII (Michael W. Deem and Ramdas Pophale) SiO2 
 PCOD9581328
Probable space group: P 6/M
;
_chemical_formula_sum "Si O2"
_cell_formula_units_Z 96
_cell_length_a 23.993345
_cell_length_b 23.993345
_cell_length_c 7.298906
_cell_angle_alpha 90.000000
_cell_angle_beta 90.000000
_cell_angle_gamma 120.000000
_cell_volume 3638.898985
_symmetry_space_group_name_H-M "P 6/M"
_symmetry_group_IT_number 175
_symmetry_cell_setting 'hexagonal'
loop_
_space_group_symop_operation_xyz
x,y,z
x-y,x,z
-y,x-y,z
-x,-y,z
-x+y,-x,z
y,-x+y,z
-x,-y,-z
-x+y,-x,-z
y,-x+y,-z
x,y,-z
x-y,x,-z
-y,x-y,-z
loop_
_atom_site_type_symbol
_atom_site_label
_atom_site_fract_x
_atom_site_fract_y
_atom_site_fract_z
Si Si1 0.124648 0.377193 0.796848
Si Si2 0.558603 0.362098 0.222300
Si Si3 0.675449 0.891391 0.780547
Si Si4 0.564996 0.920232 0.222336
Si Si5 0.062302 0.458700 0.223378
Si Si6 0.975728 0.753520 0.711752
Si Si7 0.533168 0.226653 0.777754
Si Si8 0.949567 0.856848 0.276582
O O1 0.173356 0.355694 0.714306
O O2 0.100821 0.422680 0.713214
O O3 0.055975 0.312660 0.814578
O O4 0.150830 0.403645 0.000000
O O5 0.529922 0.409341 0.273528
O O6 0.633510 0.397661 0.272302
O O7 0.525548 0.287172 0.283127
O O8 0.555591 0.360404 0.000000
O O9 0.631982 0.923028 0.729829
O O10 0.745918 0.947579 0.723019
O O11 0.675991 0.887342 0.000000
O O12 0.515858 0.846669 0.282167
O O13 0.567941 0.987193 0.283464
O O14 0.558865 0.919905 0.000000
O O15 0.058186 0.457239 0.000000
O O16 0.960083 0.737572 0.500000
O O17 0.938265 0.788615 0.782697
O O18 0.528633 0.225800 0.000000
O O19 0.904798 0.883219 0.215554
O O20 0.948694 0.856055 0.500000
#
# Coordination Sequence:
#
# PCOD9581328 Si02
#       8
#    12  12  12  12  12  12  12  12
#     4  10  19  32  50  69  93 128 169 207 245 298
#     4   9  16  25  38  59  90 128 165 201 247 303
#     4  10  19  32  50  69  93 128 169 207 245 298
#     4   9  16  27  43  63  89 121 163 207 245 291
#     4   9  16  27  43  63  89 121 163 207 245 291
#     4  11  21  32  47  70  99 125 154 201 256 309
#     4   9  16  25  38  59  90 128 165 201 247 303
#     4   9  17  29  44  61  82 109 141 178 224 279
#
# _framework density 26.381606999999999
#
# number of rings (size 3 to 8) (size 9 to 14) (size 15 to 20)
#    0.000    2.500    1.250    2.250    0.000    6.500 
#    0.000    2.500    0.000    0.000    0.000    0.000 
#    0.000    8.000    0.000    0.500    0.000    5.000 
#
# Total GULP energy -535557.390215 kJ/mol
# GULP energy per Si atom -5578.722815 kJ/mol
# Density = 2.632156 g / cm^3
# Si number density = 26.381607 Si / 1000 Ang^3
#
#
#
# Elastic Constant Matrix: (Units=GPa)
#
#
# Indices 1 2 3 4 5 6 
#
# 1 127.4622 33.2209 -3.6540 0.0000 0.0000 0.0000
# 2 33.2209 127.4622 -3.6540 0.0000 0.0000 0.0000
# 3 -3.6540 -3.6540 108.7032 0.0000 0.0000 0.0000
# 4 0.0000 0.0000 0.0000 -7.8330 0.0000 0.0000
# 5 0.0000 0.0000 0.0000 0.0000 -7.8330 0.0000
# 6 0.0000 0.0000 0.0000 0.0000 0.0000 47.1206
#
#
#
# Elastic Compliance Matrix: (Units=1/GPa)
#
#
# Indices 1 2 3 4 5 6 
#
# 1 0.008422 -0.002189 0.000210 0.000000 0.000000 0.000000
# 2 -0.002189 0.008422 0.000210 0.000000 0.000000 0.000000
# 3 0.000210 0.000210 0.009213 0.000000 0.000000 0.000000
# 4 0.000000 0.000000 0.000000 -0.127664 0.000000 0.000000
# 5 0.000000 0.000000 0.000000 0.000000 -0.127664 0.000000
# 6 0.000000 0.000000 0.000000 0.000000 0.000000 0.021222
#
#
# Mechanical properties :
#
#
# Convention : Reuss Voigt Hill
#
# Bulk Modulus (GPa) = 44.41004 46.16149 45.28576
# Shear Modulus (GPa) = -25.38033 28.80521 1.71244
#
# Velocity S-wave (km/s) = -3.10505 3.30793 0.80654
# Velocity P-wave (km/s) = 2.00378 5.66793 4.25091
#
# Compressibility (1/GPa) = 0.02251743
#
# Stress axis : x y z
#
# Youngs Moduli (GPa) = 118.73649 118.73649 108.53702
#
# Poissons Ratio (x) = 0.25992 -0.02274
# Poissons Ratio (y) = 0.25992 -0.02274
# Poissons Ratio (z) = -0.02488 -0.02488
#
# Static dielectric constant tensor:
#      x y z
#    x 2.075450 0.000000 0.000000 
#    y 0.000000 2.075450 0.000000 
#    z 0.000000 0.000000 2.010680 
# 
# From -- ./inp_files/2164.got.cif
#   From: 2010.05.17/outbox.cif.g08.bks.cpg/sg175_2_cif.got.tgz:2164.got - 2010.05.20 11:23:22.
