data_PCOD9581153
_publ_section_title
;
Structure prediction by ZEFSAII (Michael W. Deem and Ramdas Pophale) SiO2 
 PCOD9581153
Probable space group: P -6
;
_chemical_formula_sum "Si O2"
_cell_formula_units_Z 32
_cell_length_a 14.817262
_cell_length_b 14.817262
_cell_length_c 7.670558
_cell_angle_alpha 90.000000
_cell_angle_beta 90.000000
_cell_angle_gamma 120.000000
_cell_volume 1458.456600
_symmetry_space_group_name_H-M "P -6"
_symmetry_group_IT_number 174
_symmetry_cell_setting 'hexagonal'
loop_
_space_group_symop_operation_xyz
x,y,z
-x+y,-x,-z
-y,x-y,z
x,y,-z
-x+y,-x,z
-y,x-y,-z
loop_
_atom_site_type_symbol
_atom_site_label
_atom_site_fract_x
_atom_site_fract_y
_atom_site_fract_z
Si Si1 0.000000 0.000000 0.714727
Si Si2 0.003998 0.209351 0.705337
Si Si3 0.119417 0.626910 0.200202
Si Si4 0.740533 0.569621 0.788898
Si Si5 0.510811 0.404024 0.786780
Si Si6 0.558865 0.710912 0.300591
O O1 0.892925 0.897375 0.773215
O O2 0.000000 0.000000 0.500000
O O3 0.027106 0.212469 0.500000
O O4 0.088196 0.324125 0.775546
O O5 0.894100 0.205554 0.727925
O O6 0.206521 0.725892 0.298731
O O7 0.135671 0.527526 0.205586
O O8 0.003553 0.583921 0.270218
O O9 0.125058 0.660046 0.000000
O O10 0.621081 0.499994 0.729299
O O11 0.801904 0.510734 0.733898
O O12 0.740298 0.571901 0.000000
O O13 0.512393 0.407025 0.000000
O O14 0.562959 0.679707 0.500000
#
# Coordination Sequence:
#
# PCOD9581153 Si02
#       6
#     2   6   6   6   6   6
#     4   9  21  42  61  80 112 156 202 239 286 348
#     4  10  22  40  62  85 114 155 198 241 291 343
#     4  11  22  38  59  87 117 153 192 235 291 349
#     4  10  19  37  61  87 119 152 189 234 286 347
#     4   9  19  34  58  88 116 149 186 228 286 346
#     4  11  23  39  59  87 118 153 193 241 294 347
#
# _framework density 21.940999999999999
#
# number of rings (size 3 to 8) (size 9 to 14) (size 15 to 20)
#    0.000    1.875    1.875    1.875    2.625    2.250 
#    0.000    2.812    0.000    0.000    0.000    0.000 
#    0.000    0.000    0.000    0.000    0.000    0.000 
#
# Total GULP energy -178777.602402 kJ/mol
# GULP energy per Si atom -5586.800075 kJ/mol
# Density = 2.189106 g / cm^3
# Si number density = 21.941000 Si / 1000 Ang^3
#
#
#
# Elastic Constant Matrix: (Units=GPa)
#
#
# Indices 1 2 3 4 5 6 
#
# 1 110.8822 27.8759 -5.4101 0.0000 0.0000 0.0000
# 2 27.8759 110.8822 -5.4101 0.0000 0.0000 0.0000
# 3 -5.4101 -5.4101 41.3026 0.0000 0.0000 0.0000
# 4 0.0000 0.0000 0.0000 -11.5319 0.0000 0.0000
# 5 0.0000 0.0000 0.0000 0.0000 -11.5319 0.0000
# 6 0.0000 0.0000 0.0000 0.0000 0.0000 41.5031
#
#
#
# Elastic Compliance Matrix: (Units=1/GPa)
#
#
# Indices 1 2 3 4 5 6 
#
# 1 0.009664 -0.002383 0.000954 0.000000 0.000000 0.000000
# 2 -0.002383 0.009664 0.000954 0.000000 0.000000 0.000000
# 3 0.000954 0.000954 0.024461 0.000000 0.000000 0.000000
# 4 0.000000 0.000000 0.000000 -0.086716 0.000000 0.000000
# 5 0.000000 0.000000 0.000000 0.000000 -0.086716 0.000000
# 6 0.000000 0.000000 0.000000 0.000000 0.000000 0.024095
#
#
# Mechanical properties :
#
#
# Convention : Reuss Voigt Hill
#
# Bulk Modulus (GPa) = 23.34338 33.01982 28.18160
# Shear Modulus (GPa) = -55.36043 20.08863 -17.63590
#
# Velocity S-wave (km/s) = -5.02855 3.02913 -2.83819
# Velocity P-wave (km/s) = 4.80133 5.22649 1.46004
#
# Compressibility (1/GPa) = 0.04283870
#
# Stress axis : x y z
#
# Youngs Moduli (GPa) = 103.47447 103.47447 40.88068
#
# Poissons Ratio (x) = 0.24659 -0.03899
# Poissons Ratio (y) = 0.24659 -0.03899
# Poissons Ratio (z) = -0.09869 -0.09869
#
# Static dielectric constant tensor:
#      x y z
#    x 1.774890 0.000000 0.000000 
#    y 0.000000 1.774890 0.000000 
#    z 0.000000 0.000000 1.827020 
# 
# From -- ./inp_files/312.got.cif
#   From: 2010.05.17/outbox.cif.g08.bks.cpg/sg174_cif.got.tgz:312.got - 2010.05.20 11:22:48.
