data_PCOD9581705
_publ_section_title
;
Structure prediction by ZEFSAII (Michael W. Deem and Ramdas Pophale) SiO2 
 PCOD9581705
Probable space group: P 6/M
;
_chemical_formula_sum "Si O2"
_cell_formula_units_Z 34
_cell_length_a 15.154243
_cell_length_b 15.154243
_cell_length_c 7.418341
_cell_angle_alpha 90.000000
_cell_angle_beta 90.000000
_cell_angle_gamma 120.000000
_cell_volume 1475.386884
_symmetry_space_group_name_H-M "P 6/M"
_symmetry_group_IT_number 175
_symmetry_cell_setting 'hexagonal'
loop_
_space_group_symop_operation_xyz
x,y,z
x-y,x,z
-y,x-y,z
-x,-y,z
-x+y,-x,z
y,-x+y,z
-x,-y,-z
-x+y,-x,-z
y,-x+y,-z
x,y,-z
x-y,x,-z
-y,x-y,-z
loop_
_atom_site_type_symbol
_atom_site_label
_atom_site_fract_x
_atom_site_fract_y
_atom_site_fract_z
Si Si1 0.666668 0.333334 0.711260
Si Si2 0.936120 0.321088 0.781366
Si Si3 0.874025 0.486294 0.208420
Si Si4 0.162257 0.242704 0.500000
O O1 0.666667 0.333334 0.500000
O O2 0.686649 0.244964 0.776461
O O3 0.893920 0.397102 0.720298
O O4 0.901596 0.218694 0.671435
O O5 0.054802 0.399597 0.728562
O O6 0.922800 0.303680 0.000000
O O7 0.899881 0.491661 0.000000
O O8 0.193511 0.153745 0.500000
#
# Coordination Sequence:
#
# PCOD9581705 Si02
#       4
#     4  12  12   6
#     4  12  25  29  55  99 145 176 208 246 304 374
#     4   9  22  43  69  94 125 171 217 258 310 378
#     4   9  20  39  59  92 137 175 210 253 301 363
#     4  12  29  47  70  92 122 156 212 277 339 386
#
# _framework density 23.044802000000001
#
# number of rings (size 3 to 8) (size 9 to 14) (size 15 to 20)
#    0.000    2.118    0.000    3.353    9.882    2.824 
#    0.000    0.000    0.000    2.118    0.000    0.000 
#    0.000    0.000    0.000    0.000    0.000    0.000 
#
# Total GULP energy -189592.518845 kJ/mol
# GULP energy per Si atom -5576.250554 kJ/mol
# Density = 2.299235 g / cm^3
# Si number density = 23.044802 Si / 1000 Ang^3
#
#
#
# Elastic Constant Matrix: (Units=GPa)
#
#
# Indices 1 2 3 4 5 6 
#
# 1 89.0051 12.3380 14.5095 0.0000 0.0000 -0.0001
# 2 12.3380 89.0103 14.5096 0.0000 0.0000 0.0000
# 3 14.5095 14.5096 112.7614 0.0000 0.0000 -0.0003
# 4 0.0000 0.0000 0.0000 -54.0468 0.0178 0.0000
# 5 0.0000 0.0000 0.0000 0.0178 -54.0399 0.0000
# 6 -0.0001 0.0000 -0.0003 0.0000 0.0000 38.3365
#
#
#
# Elastic Compliance Matrix: (Units=1/GPa)
#
#
# Indices 1 2 3 4 5 6 
#
# 1 0.011644 -0.001399 -0.001318 0.000000 0.000000 0.000000
# 2 -0.001399 0.011643 -0.001318 0.000000 0.000000 0.000000
# 3 -0.001318 -0.001318 0.009208 0.000000 0.000000 0.000000
# 4 0.000000 0.000000 0.000000 -0.018502 -0.000006 0.000000
# 5 0.000000 0.000000 0.000000 -0.000006 -0.018505 0.000000
# 6 0.000000 0.000000 0.000000 0.000000 0.000000 0.026085
#
#
# Mechanical properties :
#
#
# Convention : Reuss Voigt Hill
#
# Bulk Modulus (GPa) = 40.94339 41.49898 41.22119
# Shear Modulus (GPa) = 132.32710 2.67794 67.50252
#
# Velocity S-wave (km/s) = 7.58593 1.07916 5.41807
# Velocity P-wave (km/s) = 9.72285 4.42717 7.55426
#
# Compressibility (1/GPa) = 0.02442397
#
# Stress axis : x y z
#
# Youngs Moduli (GPa) = 85.87989 85.88503 108.60675
#
# Poissons Ratio (x) = 0.12017 0.14317
# Poissons Ratio (y) = 0.12016 0.14316
# Poissons Ratio (z) = 0.11321 0.11321
#
# Static dielectric constant tensor:
#      x y z
#    x 1.921430 0.000000 0.000000 
#    y 0.000000 1.921410 0.000000 
#    z 0.000000 0.000000 1.861310 
# 
# From -- ./inp_files/354.got.cif
#   From: 2010.05.17/outbox.cif.g08.bks.cpg/sg175_1_cif.got.tgz:354.got - 2010.05.20 11:23:22.
