data_PCOD9581401
_publ_section_title
;
Structure prediction by ZEFSAII (Michael W. Deem and Ramdas Pophale) SiO2 
 PCOD9581401
Probable space group: P 6/M
;
_chemical_formula_sum "Si O2"
_cell_formula_units_Z 46
_cell_length_a 18.163406
_cell_length_b 18.163406
_cell_length_c 8.979640
_cell_angle_alpha 90.000000
_cell_angle_beta 90.000000
_cell_angle_gamma 120.000000
_cell_volume 2565.571597
_symmetry_space_group_name_H-M "P 6/M"
_symmetry_group_IT_number 175
_symmetry_cell_setting 'hexagonal'
loop_
_space_group_symop_operation_xyz
x,y,z
x-y,x,z
-y,x-y,z
-x,-y,z
-x+y,-x,z
y,-x+y,z
-x,-y,-z
-x+y,-x,-z
y,-x+y,-z
x,y,-z
x-y,x,-z
-y,x-y,-z
loop_
_atom_site_type_symbol
_atom_site_label
_atom_site_fract_x
_atom_site_fract_y
_atom_site_fract_z
Si Si1 0.555559 0.600508 0.322648
Si Si2 0.333334 0.666668 0.677358
Si Si3 0.101895 0.743813 0.331497
Si Si4 0.860142 0.803846 0.500000
Si Si5 0.510074 0.730905 0.824096
O O1 0.500000 0.500000 0.293845
O O2 0.550005 0.614464 0.500000
O O3 0.653837 0.631893 0.288079
O O4 0.523443 0.654403 0.232215
O O5 0.333334 0.666668 0.500000
O O6 0.428105 0.722471 0.740723
O O7 0.128163 0.731442 0.500000
O O8 0.074362 0.814206 0.360844
O O9 0.180772 0.772460 0.224186
O O10 0.837995 0.878311 0.500000
O O11 0.496840 0.726647 0.000000
#
# Coordination Sequence:
#
# PCOD9581401 Si02
#       5
#    12   4  12   6  12
#     4  10  20  36  59  85 114 159 205 242 286 347
#     4  12  25  41  61  81 115 167 211 243 283 341
#     4   9  20  36  59  82 115 156 198 246 285 355
#     4  10  19  34  59  88 116 146 192 248 296 348
#     4  12  24  38  58  87 123 152 193 249 303 355
#
# _framework density 17.929728000000001
#
# number of rings (size 3 to 8) (size 9 to 14) (size 15 to 20)
#    0.783    0.783    0.000    6.391    0.000    3.652 
#    0.000    0.000    0.000    0.000    0.000    0.000 
#    0.000    4.174    0.000    0.000    0.000    0.000 
#
# Total GULP energy -256799.313024 kJ/mol
# GULP energy per Si atom -5582.593761 kJ/mol
# Density = 1.788892 g / cm^3
# Si number density = 17.929728 Si / 1000 Ang^3
#
#
#
# Elastic Constant Matrix: (Units=GPa)
#
#
# Indices 1 2 3 4 5 6 
#
# 1 108.8271 42.8662 33.1948 0.0000 0.0000 0.0011
# 2 42.8662 108.8279 33.1950 0.0000 0.0000 0.0009
# 3 33.1948 33.1950 82.2982 0.0000 0.0000 0.0008
# 4 0.0000 0.0000 0.0000 2.9825 0.0012 0.0000
# 5 0.0000 0.0000 0.0000 0.0012 2.9817 0.0000
# 6 0.0011 0.0009 0.0008 0.0000 0.0000 32.9808
#
#
#
# Elastic Compliance Matrix: (Units=1/GPa)
#
#
# Indices 1 2 3 4 5 6 
#
# 1 0.011583 -0.003577 -0.003229 0.000000 0.000000 0.000000
# 2 -0.003577 0.011583 -0.003229 0.000000 0.000000 0.000000
# 3 -0.003229 -0.003229 0.014756 0.000000 0.000000 0.000000
# 4 0.000000 0.000000 0.000000 0.335290 -0.000136 0.000000
# 5 0.000000 0.000000 0.000000 -0.000136 0.335376 0.000000
# 6 0.000000 0.000000 0.000000 0.000000 0.000000 0.030321
#
#
# Mechanical properties :
#
#
# Convention : Reuss Voigt Hill
#
# Bulk Modulus (GPa) = 56.02033 57.60725 56.81379
# Shear Modulus (GPa) = 6.53655 20.50215 13.51935
#
# Velocity S-wave (km/s) = 1.91143 3.38520 2.74892
# Velocity P-wave (km/s) = 6.01528 6.89047 6.46770
#
# Compressibility (1/GPa) = 0.01785066
#
# Stress axis : x y z
#
# Youngs Moduli (GPa) = 86.33376 86.33431 67.77022
#
# Poissons Ratio (x) = 0.30886 0.21883
# Poissons Ratio (y) = 0.30886 0.21883
# Poissons Ratio (z) = 0.27877 0.27877
#
# Static dielectric constant tensor:
#      x y z
#    x 1.607270 0.000000 0.000000 
#    y 0.000000 1.607270 0.000000 
#    z 0.000000 0.000000 1.597040 
# 
# From -- ./inp_files/557.got.cif
#   From: 2010.05.17/outbox.cif.g08.bks.cpg/sg175_1_cif.got.tgz:557.got - 2010.05.20 11:23:22.
