data_PCOD9581052
_publ_section_title
;
Structure prediction by ZEFSAII (Michael W. Deem and Ramdas Pophale) SiO2 
 PCOD9581052
Probable space group: P 63
;
_chemical_formula_sum "Si O2"
_cell_formula_units_Z 30
_cell_length_a 8.593245
_cell_length_b 8.593245
_cell_length_c 24.712867
_cell_angle_alpha 90.000000
_cell_angle_beta 90.000000
_cell_angle_gamma 120.000000
_cell_volume 1580.404114
_symmetry_space_group_name_H-M "P 63"
_symmetry_group_IT_number 173
_symmetry_cell_setting 'hexagonal'
loop_
_space_group_symop_operation_xyz
x,y,z
x-y,x,1/2+z
-y,x-y,z
-x,-y,1/2+z
-x+y,-x,z
y,-x+y,1/2+z
loop_
_atom_site_type_symbol
_atom_site_label
_atom_site_fract_x
_atom_site_fract_y
_atom_site_fract_z
Si Si1 0.802635 0.014934 0.586250
Si Si2 0.994553 0.661843 0.472256
Si Si3 0.787383 0.803075 0.208380
Si Si4 0.329542 0.995684 0.426763
Si Si5 0.327684 0.868522 0.308670
O O1 0.688707 0.021790 0.536894
O O2 0.741992 0.020386 0.647179
O O3 0.012029 0.173023 0.581258
O O4 0.806406 0.610636 0.444777
O O5 0.136407 0.860849 0.452004
O O6 0.057030 0.526377 0.451645
O O7 0.651091 0.689200 0.254969
O O8 0.986436 0.826722 0.213529
O O9 0.323271 0.968346 0.362530
O O10 0.163018 0.661124 0.309774
#
# Coordination Sequence:
#
# PCOD9581052 Si02
#       5
#     6   6   6   6   6
#     4   8  15  36  60  86 117 153 200 249 297 369
#     4  12  22  41  61  89 123 163 205 256 321 359
#     4   8  18  34  62  85 107 157 211 238 290 370
#     4  12  24  39  61  90 121 166 206 257 308 379
#     4  10  21  38  52  84 126 151 196 252 304 355
#
# _framework density 18.982486999999999
#
# number of rings (size 3 to 8) (size 9 to 14) (size 15 to 20)
#    1.200    0.800    4.000    1.200    2.800    0.000 
#    3.600    0.000    0.000    0.800    0.000    0.000 
#    0.000    0.000    0.000    0.000    0.000    0.000 
#
# Total GULP energy -167102.199239 kJ/mol
# GULP energy per Si atom -5570.073308 kJ/mol
# Density = 1.893928 g / cm^3
# Si number density = 18.982487 Si / 1000 Ang^3
#
#
#
# Elastic Constant Matrix: (Units=GPa)
#
#
# Indices 1 2 3 4 5 6 
#
# 1 30.9241 2.2519 29.0568 0.0000 0.0000 0.0000
# 2 2.2519 30.9241 29.0568 0.0000 0.0000 0.0000
# 3 29.0568 29.0568 199.5067 0.0000 0.0000 0.0000
# 4 0.0000 0.0000 0.0000 13.4031 0.0000 0.0000
# 5 0.0000 0.0000 0.0000 0.0000 13.4031 0.0000
# 6 0.0000 0.0000 0.0000 0.0000 0.0000 14.3361
#
#
#
# Elastic Compliance Matrix: (Units=1/GPa)
#
#
# Indices 1 2 3 4 5 6 
#
# 1 0.037671 0.002794 -0.005894 0.000000 0.000000 0.000000
# 2 0.002794 0.037671 -0.005894 0.000000 0.000000 0.000000
# 3 -0.005894 -0.005894 0.006729 0.000000 0.000000 0.000000
# 4 0.000000 0.000000 0.000000 0.074610 0.000000 0.000000
# 5 0.000000 0.000000 0.000000 0.000000 0.074610 0.000000
# 6 0.000000 0.000000 0.000000 0.000000 0.000000 0.069754
#
#
# Mechanical properties :
#
#
# Convention : Reuss Voigt Hill
#
# Bulk Modulus (GPa) = 15.60389 42.45397 29.02893
# Shear Modulus (GPa) = 14.68891 21.62775 18.15833
#
# Velocity S-wave (km/s) = 2.78477 3.37909 3.09622
# Velocity P-wave (km/s) = 4.31021 6.13496 5.30168
#
# Compressibility (1/GPa) = 0.06408660
#
# Stress axis : x y z
#
# Youngs Moduli (GPa) = 26.54527 26.54527 148.60863
#
# Poissons Ratio (x) = -0.07418 0.87584
# Poissons Ratio (y) = -0.07418 0.87584
# Poissons Ratio (z) = 0.15645 0.15645
#
# Static dielectric constant tensor:
#      x y z
#    x 1.658860 0.000000 0.000000 
#    y 0.000000 1.658860 0.000000 
#    z 0.000000 0.000000 1.640300 
# 
# From -- ./inp_files/1423.got.cif
#   From: 2010.05.17/outbox.cif.g08.bks.cpg/sg173_cif.got.tgz:1423.got - 2010.05.20 11:21:53.
