data_PCOD9581891
_publ_section_title
;
Structure prediction by ZEFSAII (Michael W. Deem and Ramdas Pophale) SiO2 
 PCOD9581891
Probable space group: P 63/M
;
_chemical_formula_sum "Si O2"
_cell_formula_units_Z 72
_cell_length_a 23.372052
_cell_length_b 23.372052
_cell_length_c 7.593656
_cell_angle_alpha 90.000000
_cell_angle_beta 90.000000
_cell_angle_gamma 120.000000
_cell_volume 3592.321841
_symmetry_space_group_name_H-M "P 63/M"
_symmetry_group_IT_number 176
_symmetry_cell_setting 'hexagonal'
loop_
_space_group_symop_operation_xyz
x,y,z
x-y,x,1/2+z
-y,x-y,z
-x,-y,1/2+z
-x+y,-x,z
y,-x+y,1/2+z
-x,-y,-z
-x+y,-x,1/2-z
y,-x+y,-z
x,y,1/2-z
x-y,x,-z
-y,x-y,1/2-z
loop_
_atom_site_type_symbol
_atom_site_label
_atom_site_fract_x
_atom_site_fract_y
_atom_site_fract_z
Si Si1 0.880362 0.270771 0.952994
Si Si2 0.608306 0.070792 0.546545
Si Si3 0.676639 0.708127 0.034954
Si Si4 0.590877 0.508369 0.966284
Si Si5 0.959110 0.099704 0.442283
Si Si6 0.149764 0.865855 0.462310
O O1 0.858715 0.263661 0.750000
O O2 0.875734 0.332983 0.025206
O O3 0.847720 0.197884 0.032036
O O4 0.958496 0.294631 0.960043
O O5 0.621708 0.091166 0.750000
O O6 0.674824 0.075047 0.475994
O O7 0.565411 0.102294 0.474364
O O8 0.556605 0.991886 0.534205
O O9 0.677509 0.703756 0.250000
O O10 0.716574 0.784363 0.982573
O O11 0.589752 0.510210 0.750000
O O12 0.989360 0.123553 0.250000
O O13 0.916287 0.133935 0.486331
O O14 0.021705 0.114738 0.558184
O O15 0.150593 0.863317 0.250000
#
# Coordination Sequence:
#
# PCOD9581891 Si02
#       6
#    12  12  12  12  12  12
#     4   9  17  28  42  60  84 112 142 177 216 262
#     4   8  13  22  37  57  80 105 133 163 198 240
#     4   9  17  28  42  60  84 112 142 177 216 262
#     4   8  13  22  37  57  80 105 133 163 198 240
#     4  12  25  41  58  74  91 114 150 196 246 294
#     4  10  20  33  47  66  92 120 151 186 230 284
#
# _framework density 20.042748
#
# number of rings (size 3 to 8) (size 9 to 14) (size 15 to 20)
#    0.000    2.667    0.000    2.667    0.000    4.000 
#    0.000    0.000    0.000    0.000    0.000    0.000 
#    1.667    0.000    5.000    0.000    0.000    0.000 
#
# Total GULP energy -401040.912401 kJ/mol
# GULP energy per Si atom -5570.012672 kJ/mol
# Density = 1.999713 g / cm^3
# Si number density = 20.042748 Si / 1000 Ang^3
#
#
#
# Elastic Constant Matrix: (Units=GPa)
#
#
# Indices 1 2 3 4 5 6 
#
# 1 48.9435 -10.1909 -5.7425 0.0000 0.0000 0.0000
# 2 -10.1909 48.9435 -5.7425 0.0000 0.0000 0.0000
# 3 -5.7425 -5.7425 54.8703 0.0000 0.0000 0.0000
# 4 0.0000 0.0000 0.0000 -7.6819 0.0000 0.0000
# 5 0.0000 0.0000 0.0000 0.0000 -7.6819 0.0000
# 6 0.0000 0.0000 0.0000 0.0000 0.0000 29.5672
#
#
#
# Elastic Compliance Matrix: (Units=1/GPa)
#
#
# Indices 1 2 3 4 5 6 
#
# 1 0.021771 0.004860 0.002787 0.000000 0.000000 0.000000
# 2 0.004860 0.021771 0.002787 0.000000 0.000000 0.000000
# 3 0.002787 0.002787 0.018808 0.000000 0.000000 0.000000
# 4 0.000000 0.000000 0.000000 -0.130176 0.000000 0.000000
# 5 0.000000 0.000000 0.000000 0.000000 -0.130176 0.000000
# 6 0.000000 0.000000 0.000000 0.000000 0.000000 0.033821
#
#
# Mechanical properties :
#
#
# Convention : Reuss Voigt Hill
#
# Bulk Modulus (GPa) = 12.01668 12.15619 12.08644
# Shear Modulus (GPa) = -31.78426 14.46956 -8.65735
#
# Velocity S-wave (km/s) = -3.98656 2.68980 -2.08058
# Velocity P-wave (km/s) = 3.89637 3.96548 0.52121
#
# Compressibility (1/GPa) = 0.08321764
#
# Stress axis : x y z
#
# Youngs Moduli (GPa) = 45.93342 45.93342 53.16839
#
# Poissons Ratio (x) = -0.22324 -0.14818
# Poissons Ratio (y) = -0.22324 -0.14818
# Poissons Ratio (z) = -0.12802 -0.12802
#
# Static dielectric constant tensor:
#      x y z
#    x 1.735990 0.000000 0.000000 
#    y 0.000000 1.735990 0.000000 
#    z 0.000000 0.000000 1.808410 
# 
# From -- ./inp_files/1206.got.cif
#   From: 2010.05.17/outbox.cif.g08.bks.cpg/sg176_1_cif.got.tgz:1206.got - 2010.06.03 11:36:45.
