data_PCOD9581611
_publ_section_title
;
Structure prediction by ZEFSAII (Michael W. Deem and Ramdas Pophale) SiO2 
 PCOD9581611
Probable space group: P 6/M
;
_chemical_formula_sum "Si O2"
_cell_formula_units_Z 42
_cell_length_a 11.032934
_cell_length_b 11.032934
_cell_length_c 19.346283
_cell_angle_alpha 90.000000
_cell_angle_beta 90.000000
_cell_angle_gamma 120.000000
_cell_volume 2039.436598
_symmetry_space_group_name_H-M "P 6/M"
_symmetry_group_IT_number 175
_symmetry_cell_setting 'hexagonal'
loop_
_space_group_symop_operation_xyz
x,y,z
x-y,x,z
-y,x-y,z
-x,-y,z
-x+y,-x,z
y,-x+y,z
-x,-y,-z
-x+y,-x,-z
y,-x+y,-z
x,y,-z
x-y,x,-z
-y,x-y,-z
loop_
_atom_site_type_symbol
_atom_site_label
_atom_site_fract_x
_atom_site_fract_y
_atom_site_fract_z
Si Si1 0.500000 0.500000 0.327262
Si Si2 0.257940 0.944913 0.077624
Si Si3 0.684262 0.932356 0.581973
Si Si4 0.483686 0.653109 0.201710
O O1 0.363594 0.447317 0.374765
O O2 0.532005 0.626806 0.275053
O O3 0.339501 0.915774 0.137441
O O4 0.095923 0.824524 0.083767
O O5 0.305690 0.934100 0.000000
O O6 0.653742 0.925272 0.500000
O O7 0.814620 0.088099 0.596347
O O8 0.469226 0.790864 0.198167
#
# Coordination Sequence:
#
# PCOD9581611 Si02
#       4
#     6  12  12  12
#     4  12  21  40  63  92 128 166 214 252 311 378
#     4  10  21  39  63  90 120 158 207 261 313 368
#     4  10  22  41  66  96 128 164 209 263 321 378
#     4  10  23  38  58  86 122 163 201 252 310 364
#
# _framework density 20.593921000000002
#
# number of rings (size 3 to 8) (size 9 to 14) (size 15 to 20)
#    0.571    1.143    0.000    4.429    0.000    3.429 
#    1.714    3.571    0.000    3.429    0.000    0.000 
#    0.000    0.000    0.000    0.000    0.000    0.000 
#
# Total GULP energy -234410.623950 kJ/mol
# GULP energy per Si atom -5581.205332 kJ/mol
# Density = 2.054705 g / cm^3
# Si number density = 20.593921 Si / 1000 Ang^3
#
#
#
# Elastic Constant Matrix: (Units=GPa)
#
#
# Indices 1 2 3 4 5 6 
#
# 1 72.9968 6.7243 60.4859 0.0000 0.0000 0.0000
# 2 6.7243 72.9968 60.4859 0.0000 0.0000 0.0000
# 3 60.4859 60.4859 137.5512 0.0000 0.0000 0.0000
# 4 0.0000 0.0000 0.0000 28.5021 0.0000 0.0000
# 5 0.0000 0.0000 0.0000 0.0000 28.5021 0.0000
# 6 0.0000 0.0000 0.0000 0.0000 0.0000 33.1362
#
#
#
# Elastic Compliance Matrix: (Units=1/GPa)
#
#
# Indices 1 2 3 4 5 6 
#
# 1 0.026394 0.011305 -0.016578 0.000000 0.000000 0.000000
# 2 0.011305 0.026394 -0.016578 0.000000 0.000000 0.000000
# 3 -0.016578 -0.016578 0.021849 0.000000 0.000000 0.000000
# 4 0.000000 0.000000 0.000000 0.035085 0.000000 0.000000
# 5 0.000000 0.000000 0.000000 0.000000 0.035085 0.000000
# 6 0.000000 0.000000 0.000000 0.000000 0.000000 0.030178
#
#
# Mechanical properties :
#
#
# Convention : Reuss Voigt Hill
#
# Bulk Modulus (GPa) = 32.32324 59.88186 46.10255
# Shear Modulus (GPa) = 21.83410 28.41801 25.12606
#
# Velocity S-wave (km/s) = 3.25964 3.71876 3.49674
# Velocity P-wave (km/s) = 5.46778 6.89779 6.22399
#
# Compressibility (1/GPa) = 0.03093749
#
# Stress axis : x y z
#
# Youngs Moduli (GPa) = 37.88706 37.88706 45.76764
#
# Poissons Ratio (x) = -0.42831 0.75872
# Poissons Ratio (y) = -0.42831 0.75872
# Poissons Ratio (z) = 0.62808 0.62808
#
# Static dielectric constant tensor:
#      x y z
#    x 1.747550 0.000000 0.000000 
#    y 0.000000 1.747550 0.000000 
#    z 0.000000 0.000000 1.725900 
# 
# From -- ./inp_files/2770.got.cif
#   From: 2010.05.17/outbox.cif.g08.bks.cpg/sg175_2_cif.got.tgz:2770.got - 2010.05.20 11:23:22.
