data_PCOD9581922
_publ_section_title
;
Structure prediction by ZEFSAII (Michael W. Deem and Ramdas Pophale) SiO2 
 PCOD9581922
Probable space group: P 63/M
;
_chemical_formula_sum "Si O2"
_cell_formula_units_Z 48
_cell_length_a 12.723804
_cell_length_b 12.723804
_cell_length_c 14.255914
_cell_angle_alpha 90.000000
_cell_angle_beta 90.000000
_cell_angle_gamma 120.000000
_cell_volume 1998.755351
_symmetry_space_group_name_H-M "P 63/M"
_symmetry_group_IT_number 176
_symmetry_cell_setting 'hexagonal'
loop_
_space_group_symop_operation_xyz
x,y,z
x-y,x,1/2+z
-y,x-y,z
-x,-y,1/2+z
-x+y,-x,z
y,-x+y,1/2+z
-x,-y,-z
-x+y,-x,1/2-z
y,-x+y,-z
x,y,1/2-z
x-y,x,-z
-y,x-y,1/2-z
loop_
_atom_site_type_symbol
_atom_site_label
_atom_site_fract_x
_atom_site_fract_y
_atom_site_fract_z
Si Si1 0.666668 0.333334 0.362697
Si Si2 0.333334 0.666668 0.136268
Si Si3 0.087767 0.664169 0.636003
Si Si4 0.529807 0.922621 0.135100
Si Si5 0.071080 0.265917 0.859004
Si Si6 0.000000 0.000000 0.389639
O O1 0.666667 0.333334 0.250000
O O2 0.787816 0.333202 0.388963
O O3 0.333334 0.666668 0.250000
O O4 0.458742 0.782573 0.106596
O O5 0.074706 0.660857 0.750000
O O6 0.107587 0.793262 0.601937
O O7 0.981497 0.533024 0.604975
O O8 0.533312 0.924621 0.250000
O O9 0.668848 0.998808 0.101593
O O10 0.090789 0.304356 0.750000
O O11 0.999102 0.120902 0.859980
O O12 0.000000 0.000000 0.500000
#
# Coordination Sequence:
#
# PCOD9581922 Si02
#       6
#     4   4  12  12  12   4
#     4   9  12  21  39  75 121 146 163 204 271 320
#     4   9  18  27  39  69 118 152 163 198 268 329
#     4   9  15  25  46  81 119 143 170 219 271 319
#     4   9  17  28  46  79 116 143 168 214 274 325
#     4  10  20  35  59  86 108 140 188 231 272 332
#     4  12  28  44  55  72 109 155 193 237 292 332
#
# _framework density 24.014946999999999
#
# number of rings (size 3 to 8) (size 9 to 14) (size 15 to 20)
#    0.000    2.500    2.500    0.750    3.500    0.000 
#    0.000    0.000    0.000    1.500    0.000    0.000 
#    0.000    0.000    0.000    0.000    0.000    0.000 
#
# Total GULP energy -268115.093037 kJ/mol
# GULP energy per Si atom -5585.731105 kJ/mol
# Density = 2.396029 g / cm^3
# Si number density = 24.014947 Si / 1000 Ang^3
#
#
#
# Elastic Constant Matrix: (Units=GPa)
#
#
# Indices 1 2 3 4 5 6 
#
# 1 126.8185 56.0956 -4.6570 0.0000 0.0000 0.0005
# 2 56.0956 126.8136 -4.6574 0.0000 0.0000 0.0006
# 3 -4.6570 -4.6574 82.5963 0.0000 0.0000 0.0002
# 4 0.0000 0.0000 0.0000 -17.5218 0.0000 0.0000
# 5 0.0000 0.0000 0.0000 0.0000 -17.5224 0.0000
# 6 0.0005 0.0006 0.0002 0.0000 0.0000 35.3590
#
#
#
# Elastic Compliance Matrix: (Units=1/GPa)
#
#
# Indices 1 2 3 4 5 6 
#
# 1 0.009811 -0.004329 0.000309 0.000000 0.000000 0.000000
# 2 -0.004329 0.009812 0.000309 0.000000 0.000000 0.000000
# 3 0.000309 0.000309 0.012142 0.000000 0.000000 0.000000
# 4 0.000000 0.000000 0.000000 -0.057072 0.000000 0.000000
# 5 0.000000 0.000000 0.000000 0.000000 -0.057070 0.000000
# 6 0.000000 0.000000 0.000000 0.000000 0.000000 0.028281
#
#
# Mechanical properties :
#
#
# Convention : Reuss Voigt Hill
#
# Bulk Modulus (GPa) = 41.07740 47.75452 44.41596
# Shear Modulus (GPa) = -129.66952 19.35943 -55.15504
#
# Velocity S-wave (km/s) = -7.35612 2.84234 -4.79759
# Velocity P-wave (km/s) = 7.41674 5.54079 3.48623
#
# Compressibility (1/GPa) = 0.02434428
#
# Stress axis : x y z
#
# Youngs Moduli (GPa) = 101.92296 101.91894 82.35915
#
# Poissons Ratio (x) = 0.44117 -0.02546
# Poissons Ratio (y) = 0.44119 -0.02547
# Poissons Ratio (z) = -0.03151 -0.03151
#
# Static dielectric constant tensor:
#      x y z
#    x 1.886770 0.000000 0.000000 
#    y 0.000000 1.886780 0.000000 
#    z 0.000000 0.000000 1.984740 
# 
# From -- ./inp_files/3676.got.cif
#   From: 2010.05.17/outbox.cif.g08.bks.cpg/sg176_2_cif.got.tgz:3676.got - 2010.06.03 11:36:45.
