data_PCOD9581938
_publ_section_title
;
Structure prediction by ZEFSAII (Michael W. Deem and Ramdas Pophale) SiO2 
 PCOD9581938
Probable space group: P 63/M
;
_chemical_formula_sum "Si O2"
_cell_formula_units_Z 52
_cell_length_a 18.741721
_cell_length_b 18.741721
_cell_length_c 8.487525
_cell_angle_alpha 90.000000
_cell_angle_beta 90.000000
_cell_angle_gamma 120.000000
_cell_volume 2581.847788
_symmetry_space_group_name_H-M "P 63/M"
_symmetry_group_IT_number 176
_symmetry_cell_setting 'hexagonal'
loop_
_space_group_symop_operation_xyz
x,y,z
x-y,x,1/2+z
-y,x-y,z
-x,-y,1/2+z
-x+y,-x,z
y,-x+y,1/2+z
-x,-y,-z
-x+y,-x,1/2-z
y,-x+y,-z
x,y,1/2-z
x-y,x,-z
-y,x-y,1/2-z
loop_
_atom_site_type_symbol
_atom_site_label
_atom_site_fract_x
_atom_site_fract_y
_atom_site_fract_z
Si Si1 0.333335 0.666668 0.563162
Si Si2 0.819509 0.476482 0.939138
Si Si3 0.933304 0.410295 0.939538
Si Si4 0.656051 0.702928 0.939482
Si Si5 0.857945 0.034758 0.937669
O O1 0.333334 0.666668 0.750000
O O2 0.302248 0.727193 0.498179
O O3 0.822661 0.484127 0.750000
O O4 0.854488 0.416027 0.989197
O O5 0.875771 0.567954 0.008684
O O6 0.932514 0.406992 0.750000
O O7 0.000000 0.500000 0.000000
O O8 0.965275 0.348631 0.991909
O O9 0.707766 0.046539 0.250000
O O10 0.734674 0.782505 0.009016
O O11 0.864727 0.040472 0.750000
O O12 0.944441 0.105038 0.009000
#
# Coordination Sequence:
#
# PCOD9581938 Si02
#       5
#     4  12  12  12  12
#     4  12  25  38  52  78 118 167 214 261 313 368
#     4  10  20  37  58  84 119 163 210 258 309 364
#     4   8  16  31  55  83 115 152 194 242 295 349
#     4  10  20  38  63  94 125 157 200 251 303 363
#     4  12  26  46  69  95 125 159 197 244 302 368
#
# _framework density 20.140616000000001
#
# number of rings (size 3 to 8) (size 9 to 14) (size 15 to 20)
#    0.000    1.846    0.000    4.385    0.000    3.692 
#    0.000    6.923    0.000    0.000    0.000    0.000 
#    0.000    0.000    0.000    0.000    0.000    0.000 
#
# Total GULP energy -289820.258772 kJ/mol
# GULP energy per Si atom -5573.466515 kJ/mol
# Density = 2.009477 g / cm^3
# Si number density = 20.140616 Si / 1000 Ang^3
#
#
#
# Elastic Constant Matrix: (Units=GPa)
#
#
# Indices 1 2 3 4 5 6 
#
# 1 134.4863 60.6413 12.9549 0.0000 0.0000 0.0009
# 2 60.6413 134.4810 12.9553 0.0000 0.0000 -0.0002
# 3 12.9549 12.9553 45.3972 0.0000 0.0000 0.0003
# 4 0.0000 0.0000 0.0000 27.8047 0.0000 0.0000
# 5 0.0000 0.0000 0.0000 0.0000 27.8051 0.0000
# 6 0.0009 -0.0002 0.0003 0.0000 0.0000 36.9196
#
#
#
# Elastic Compliance Matrix: (Units=1/GPa)
#
#
# Indices 1 2 3 4 5 6 
#
# 1 0.009434 -0.004108 -0.001520 0.000000 0.000000 0.000000
# 2 -0.004108 0.009435 -0.001520 0.000000 0.000000 0.000000
# 3 -0.001520 -0.001520 0.022895 0.000000 0.000000 0.000000
# 4 0.000000 0.000000 0.000000 0.035965 0.000000 0.000000
# 5 0.000000 0.000000 0.000000 0.000000 0.035965 0.000000
# 6 0.000000 0.000000 0.000000 0.000000 0.000000 0.027086
#
#
# Mechanical properties :
#
#
# Convention : Reuss Voigt Hill
#
# Bulk Modulus (GPa) = 36.40535 54.16306 45.28420
# Shear Modulus (GPa) = 30.44467 33.69343 32.06905
#
# Velocity S-wave (km/s) = 3.89216 4.09456 3.99464
# Velocity P-wave (km/s) = 6.18978 7.02173 6.61884
#
# Compressibility (1/GPa) = 0.02746849
#
# Stress axis : x y z
#
# Youngs Moduli (GPa) = 105.99545 105.99092 43.67689
#
# Poissons Ratio (x) = 0.43539 0.06639
# Poissons Ratio (y) = 0.43541 0.06640
# Poissons Ratio (z) = 0.16111 0.16113
#
# Static dielectric constant tensor:
#      x y z
#    x 1.759350 0.000000 0.000000 
#    y 0.000000 1.759370 0.000000 
#    z 0.000000 0.000000 1.686750 
# 
# From -- ./inp_files/668.got.cif
#   From: 2010.05.17/outbox.cif.g08.bks.cpg/sg176_1_cif.got.tgz:668.got - 2010.06.03 11:36:45.
