data_PCOD9581537
_publ_section_title
;
Structure prediction by ZEFSAII (Michael W. Deem and Ramdas Pophale) SiO2 
 PCOD9581537
Probable space group: P 6/M
;
_chemical_formula_sum "Si O2"
_cell_formula_units_Z 78
_cell_length_a 24.287983
_cell_length_b 24.287983
_cell_length_c 7.920617
_cell_angle_alpha 90.000000
_cell_angle_beta 90.000000
_cell_angle_gamma 120.000000
_cell_volume 4046.434788
_symmetry_space_group_name_H-M "P 6/M"
_symmetry_group_IT_number 175
_symmetry_cell_setting 'hexagonal'
loop_
_space_group_symop_operation_xyz
x,y,z
x-y,x,z
-y,x-y,z
-x,-y,z
-x+y,-x,z
y,-x+y,z
-x,-y,-z
-x+y,-x,-z
y,-x+y,-z
x,y,-z
x-y,x,-z
-y,x-y,-z
loop_
_atom_site_type_symbol
_atom_site_label
_atom_site_fract_x
_atom_site_fract_y
_atom_site_fract_z
Si Si1 0.442259 0.512931 0.301330
Si Si2 0.819749 0.458130 0.810073
Si Si3 0.368112 0.747463 0.500000
Si Si4 0.957950 0.215863 0.799789
Si Si5 0.598062 0.903580 0.301102
Si Si6 0.824807 0.101358 0.207022
Si Si7 0.229438 0.808872 0.796259
O O1 0.500000 0.500000 0.297374
O O2 0.432579 0.523924 0.500000
O O3 0.464868 0.576497 0.196037
O O4 0.375701 0.453603 0.239626
O O5 0.783133 0.403466 0.674258
O O6 0.820092 0.521697 0.750896
O O7 0.793453 0.442907 0.000000
O O8 0.293193 0.696043 0.500000
O O9 0.940584 0.271658 0.775617
O O10 0.897102 0.150493 0.735218
O O11 0.028448 0.237424 0.733187
O O12 0.960182 0.206854 0.000000
O O13 0.605993 0.916678 0.500000
O O14 0.572220 0.828944 0.270395
O O15 0.783846 0.134775 0.257046
O O16 0.825503 0.100588 0.000000
O O17 0.225530 0.806054 0.000000
#
# Coordination Sequence:
#
# PCOD9581537 Si02
#       7
#    12  12   6  12  12  12  12
#     4  10  23  41  58  80 116 156 194 241 300 359
#     4  11  24  40  63  89 115 151 200 245 297 359
#     4  10  26  44  63  84 118 152 194 246 304 355
#     4   9  17  32  53  77 107 142 180 224 271 328
#     4  10  21  34  55  80 108 144 187 228 284 343
#     4   8  15  30  52  77 106 141 180 223 274 327
#     4   9  20  36  55  82 109 142 188 235 284 343
#
# _framework density 19.276226999999999
#
# number of rings (size 3 to 8) (size 9 to 14) (size 15 to 20)
#    0.154    2.308    0.769    1.385    5.385    2.154 
#    0.000    3.077    0.000    0.308    0.000    2.154 
#    0.000    0.000    0.000    5.538    0.000    6.154 
#
# Total GULP energy -434845.133747 kJ/mol
# GULP energy per Si atom -5574.937612 kJ/mol
# Density = 1.923235 g / cm^3
# Si number density = 19.276227 Si / 1000 Ang^3
#
#
#
# Elastic Constant Matrix: (Units=GPa)
#
#
# Indices 1 2 3 4 5 6 
#
# 1 79.9464 35.8725 -7.2824 0.0000 0.0000 0.0000
# 2 35.8725 79.9464 -7.2824 0.0000 0.0000 0.0000
# 3 -7.2824 -7.2824 25.5162 0.0000 0.0000 0.0000
# 4 0.0000 0.0000 0.0000 -1.4622 0.0000 0.0000
# 5 0.0000 0.0000 0.0000 0.0000 -1.4622 0.0000
# 6 0.0000 0.0000 0.0000 0.0000 0.0000 22.0369
#
#
#
# Elastic Compliance Matrix: (Units=1/GPa)
#
#
# Indices 1 2 3 4 5 6 
#
# 1 0.015822 -0.006867 0.002556 0.000000 0.000000 0.000000
# 2 -0.006867 0.015822 0.002556 0.000000 0.000000 0.000000
# 3 0.002556 0.002556 0.040650 0.000000 0.000000 0.000000
# 4 0.000000 0.000000 0.000000 -0.683903 0.000000 0.000000
# 5 0.000000 0.000000 0.000000 0.000000 -0.683903 0.000000
# 6 0.000000 0.000000 0.000000 0.000000 0.000000 0.045378
#
#
# Mechanical properties :
#
#
# Convention : Reuss Voigt Hill
#
# Bulk Modulus (GPa) = 14.53812 25.33606 19.93709
# Shear Modulus (GPa) = -4.08599 14.76258 5.33830
#
# Velocity S-wave (km/s) = -1.45750 2.77039 1.66595
# Velocity P-wave (km/s) = 2.17393 4.83794 3.75044
#
# Compressibility (1/GPa) = 0.06878468
#
# Stress axis : x y z
#
# Youngs Moduli (GPa) = 63.20157 63.20157 24.60041
#
# Poissons Ratio (x) = 0.43399 -0.06288
# Poissons Ratio (y) = 0.43399 -0.06288
# Poissons Ratio (z) = -0.16154 -0.16154
#
# Static dielectric constant tensor:
#      x y z
#    x 1.675240 0.000000 0.000000 
#    y 0.000000 1.675240 0.000000 
#    z 0.000000 0.000000 1.691820 
# 
# From -- ./inp_files/1310.got.cif
#   From: 2010.05.17/outbox.cif.g08.bks.cpg/sg175_1_cif.got.tgz:1310.got - 2010.05.20 11:23:22.
