data_PCOD9581505
_publ_section_title
;
Structure prediction by ZEFSAII (Michael W. Deem and Ramdas Pophale) SiO2 
 PCOD9581505
Probable space group: P 6/M
;
_chemical_formula_sum "Si O2"
_cell_formula_units_Z 58
_cell_length_a 15.480700
_cell_length_b 15.480700
_cell_length_c 15.074817
_cell_angle_alpha 90.000000
_cell_angle_beta 90.000000
_cell_angle_gamma 120.000000
_cell_volume 3128.699621
_symmetry_space_group_name_H-M "P 6/M"
_symmetry_group_IT_number 175
_symmetry_cell_setting 'hexagonal'
loop_
_space_group_symop_operation_xyz
x,y,z
x-y,x,z
-y,x-y,z
-x,-y,z
-x+y,-x,z
y,-x+y,z
-x,-y,-z
-x+y,-x,-z
y,-x+y,-z
x,y,-z
x-y,x,-z
-y,x-y,-z
loop_
_atom_site_type_symbol
_atom_site_label
_atom_site_fract_x
_atom_site_fract_y
_atom_site_fract_z
Si Si1 0.586941 0.884008 0.665707
Si Si2 0.552736 0.219739 0.500000
Si Si3 0.815025 0.038967 0.899039
Si Si4 0.362945 0.276332 0.272258
Si Si5 0.333334 0.666668 0.896488
Si Si6 0.112331 0.557830 0.184229
O O1 0.509481 0.838626 0.585714
O O2 0.635170 0.816526 0.686034
O O3 0.527541 0.884949 0.753085
O O4 0.673687 0.997389 0.657624
O O5 0.665959 0.239954 0.500000
O O6 0.804341 0.930238 0.891749
O O7 0.755284 0.053751 0.818881
O O8 0.781277 0.046214 0.000000
O O9 0.474399 0.358657 0.244945
O O10 0.393467 0.782964 0.867248
O O11 0.333334 0.666668 0.000000
O O12 0.000000 0.500000 0.140701
#
# Coordination Sequence:
#
# PCOD9581505 Si02
#       6
#    12   6  12  12   4  12
#     4  11  22  41  62  92 124 165 208 260 328 386
#     4  10  24  40  70  97 122 161 207 272 314 388
#     4  10  20  36  60  94 130 168 218 272 323 379
#     4  11  21  37  64  88 127 171 204 262 322 390
#     4  12  24  39  66  88 122 169 216 273 315 384
#     4  10  23  41  61  85 122 163 207 259 324 391
#
# _framework density 18.538053000000001
#
# number of rings (size 3 to 8) (size 9 to 14) (size 15 to 20)
#    0.207    1.241    4.138    1.448    0.000    2.897 
#    0.000    8.793    0.000    0.000    0.000    0.000 
#    0.000    3.310    0.000    0.000    0.000    0.000 
#
# Total GULP energy -323445.873526 kJ/mol
# GULP energy per Si atom -5576.652992 kJ/mol
# Density = 1.849586 g / cm^3
# Si number density = 18.538053 Si / 1000 Ang^3
#
#
#
# Elastic Constant Matrix: (Units=GPa)
#
#
# Indices 1 2 3 4 5 6 
#
# 1 83.0343 82.5025 38.7706 0.0000 0.0000 -0.0023
# 2 82.5025 83.0404 38.7671 0.0000 0.0000 0.0037
# 3 38.7706 38.7671 42.2627 0.0000 0.0000 -0.0016
# 4 0.0000 0.0000 0.0000 55.2662 -0.0016 0.0000
# 5 0.0000 0.0000 0.0000 -0.0016 55.2715 0.0000
# 6 -0.0023 0.0037 -0.0016 0.0000 0.0000 0.2826
#
#
#
# Elastic Compliance Matrix: (Units=1/GPa)
#
#
# Indices 1 2 3 4 5 6 
#
# 1 0.940250 -0.929536 -0.009905 0.000000 0.000000 0.019637
# 2 -0.929536 0.940005 -0.009527 0.000000 0.000000 -0.019796
# 3 -0.009905 -0.009527 0.041487 0.000000 0.000000 0.000274
# 4 0.000000 0.000000 0.000000 0.018094 0.000001 0.000000
# 5 0.000000 0.000000 0.000000 0.000001 0.018093 0.000000
# 6 0.019637 -0.019796 0.000274 0.000000 0.000000 3.538983
#
#
# Mechanical properties :
#
#
# Convention : Reuss Voigt Hill
#
# Bulk Modulus (GPa) = 42.00571 58.71308 50.35939
# Shear Modulus (GPa) = 0.67542 25.38388 13.02965
#
# Velocity S-wave (km/s) = 0.60426 3.70440 2.65403
# Velocity P-wave (km/s) = 4.81614 7.07370 6.05113
#
# Compressibility (1/GPa) = 0.02380629
#
# Stress axis : x y z
#
# Youngs Moduli (GPa) = 1.06355 1.06382 24.10368
#
# Poissons Ratio (x) = 0.98886 0.23875
# Poissons Ratio (y) = 0.98860 0.22965
# Poissons Ratio (z) = 0.01053 0.01014
#
# Static dielectric constant tensor:
#      x y z
#    x 1.669340 0.000000 0.000000 
#    y 0.000000 1.669350 0.000000 
#    z 0.000000 0.000000 1.621020 
# 
# From -- ./inp_files/2414.got.cif
#   From: 2010.05.17/outbox.cif.g08.bks.cpg/sg175_2_cif.got.tgz:2414.got - 2010.05.20 11:23:22.
