data_PCOD9581914
_publ_section_title
;
Structure prediction by ZEFSAII (Michael W. Deem and Ramdas Pophale) SiO2 
 PCOD9581914
Probable space group: P 63/M
;
_chemical_formula_sum "Si O2"
_cell_formula_units_Z 84
_cell_length_a 18.124137
_cell_length_b 18.124137
_cell_length_c 13.356416
_cell_angle_alpha 90.000000
_cell_angle_beta 90.000000
_cell_angle_gamma 120.000000
_cell_volume 3799.576925
_symmetry_space_group_name_H-M "P 63/M"
_symmetry_group_IT_number 176
_symmetry_cell_setting 'hexagonal'
loop_
_space_group_symop_operation_xyz
x,y,z
x-y,x,1/2+z
-y,x-y,z
-x,-y,1/2+z
-x+y,-x,z
y,-x+y,1/2+z
-x,-y,-z
-x+y,-x,1/2-z
y,-x+y,-z
x,y,1/2-z
x-y,x,-z
-y,x-y,1/2-z
loop_
_atom_site_type_symbol
_atom_site_label
_atom_site_fract_x
_atom_site_fract_y
_atom_site_fract_z
Si Si1 0.273717 0.503077 0.428568
Si Si2 0.874476 0.468096 0.916329
Si Si3 0.088895 0.895421 0.012936
Si Si4 0.776181 0.103808 0.136847
Si Si5 0.250714 0.330875 0.133230
Si Si6 0.527352 0.069190 0.139653
Si Si7 0.774091 0.277675 0.356481
O O1 0.186827 0.494751 0.386984
O O2 0.368734 0.553377 0.384507
O O3 0.258145 0.407785 0.431722
O O4 0.284377 0.546225 0.537511
O O5 0.968853 0.508960 0.870165
O O6 0.896458 0.477974 0.036629
O O7 0.148398 0.882985 0.934443
O O8 0.082038 0.836903 0.107001
O O9 0.995493 0.861116 0.968078
O O10 0.794400 0.087822 0.250000
O O11 0.767727 0.186618 0.138669
O O12 0.691493 0.015842 0.107277
O O13 0.256079 0.353868 0.250000
O O14 0.570920 0.082340 0.250000
O O15 0.483959 0.128543 0.143089
O O16 0.736220 0.283009 0.250000
#
# Coordination Sequence:
#
# PCOD9581914 Si02
#       7
#    12  12  12  12  12  12  12
#     4  11  22  40  60  86 119 155 203 249 303 371
#     4  10  23  39  62  88 120 163 205 256 314 377
#     4  10  20  35  55  82 116 154 192 238 287 351
#     4   9  18  34  57  87 116 150 192 243 295 345
#     4  10  22  38  57  84 118 154 200 246 297 355
#     4   9  20  40  61  89 123 157 203 258 318 375
#     4   9  18  34  60  90 118 150 192 246 302 355
#
# _framework density 22.107724999999999
#
# number of rings (size 3 to 8) (size 9 to 14) (size 15 to 20)
#    0.000    2.286    1.429    0.429    0.000    6.857 
#    0.000    2.857    0.000    5.143    0.000    0.000 
#    0.000    0.000    0.000    0.000    0.000    0.000 
#
# Total GULP energy -468357.871155 kJ/mol
# GULP energy per Si atom -5575.688942 kJ/mol
# Density = 2.205741 g / cm^3
# Si number density = 22.107725 Si / 1000 Ang^3
#
#
#
# Elastic Constant Matrix: (Units=GPa)
#
#
# Indices 1 2 3 4 5 6 
#
# 1 109.9623 46.4950 12.4702 0.0000 0.0000 0.0000
# 2 46.4950 109.9623 12.4702 0.0000 0.0000 0.0000
# 3 12.4702 12.4702 69.3746 0.0000 0.0000 0.0000
# 4 0.0000 0.0000 0.0000 10.1807 0.0000 0.0000
# 5 0.0000 0.0000 0.0000 0.0000 10.1807 0.0000
# 6 0.0000 0.0000 0.0000 0.0000 0.0000 31.7336
#
#
#
# Elastic Compliance Matrix: (Units=1/GPa)
#
#
# Indices 1 2 3 4 5 6 
#
# 1 0.011168 -0.004588 -0.001183 0.000000 0.000000 0.000000
# 2 -0.004588 0.011168 -0.001183 0.000000 0.000000 0.000000
# 3 -0.001183 -0.001183 0.014840 0.000000 0.000000 0.000000
# 4 0.000000 0.000000 0.000000 0.098225 0.000000 0.000000
# 5 0.000000 0.000000 0.000000 0.000000 0.098225 0.000000
# 6 0.000000 0.000000 0.000000 0.000000 0.000000 0.031512
#
#
# Mechanical properties :
#
#
# Convention : Reuss Voigt Hill
#
# Bulk Modulus (GPa) = 42.97610 48.01885 45.49747
# Shear Modulus (GPa) = 17.43368 24.94327 21.18847
#
# Velocity S-wave (km/s) = 2.81121 3.36260 3.09919
# Velocity P-wave (km/s) = 5.47894 6.06990 5.78198
#
# Compressibility (1/GPa) = 0.02326875
#
# Stress axis : x y z
#
# Youngs Moduli (GPa) = 89.54069 89.54069 67.38673
#
# Poissons Ratio (x) = 0.41082 0.07970
# Poissons Ratio (y) = 0.41082 0.07970
# Poissons Ratio (z) = 0.10591 0.10591
#
# Static dielectric constant tensor:
#      x y z
#    x 1.824300 0.000000 0.000000 
#    y 0.000000 1.824300 0.000000 
#    z 0.000000 0.000000 1.871560 
# 
# From -- ./inp_files/2944.got.cif
#   From: 2010.05.17/outbox.cif.g08.bks.cpg/sg176_2_cif.got.tgz:2944.got - 2010.06.03 11:36:45.
