data_PCOD9581514
_publ_section_title
;
Structure prediction by ZEFSAII (Michael W. Deem and Ramdas Pophale) SiO2 
 PCOD9581514
Probable space group: P 6/M
;
_chemical_formula_sum "Si O2"
_cell_formula_units_Z 46
_cell_length_a 18.417848
_cell_length_b 18.417848
_cell_length_c 7.468663
_cell_angle_alpha 90.000000
_cell_angle_beta 90.000000
_cell_angle_gamma 120.000000
_cell_volume 2194.073966
_symmetry_space_group_name_H-M "P 6/M"
_symmetry_group_IT_number 175
_symmetry_cell_setting 'hexagonal'
loop_
_space_group_symop_operation_xyz
x,y,z
x-y,x,z
-y,x-y,z
-x,-y,z
-x+y,-x,z
y,-x+y,z
-x,-y,-z
-x+y,-x,-z
y,-x+y,-z
x,y,-z
x-y,x,-z
-y,x-y,-z
loop_
_atom_site_type_symbol
_atom_site_label
_atom_site_fract_x
_atom_site_fract_y
_atom_site_fract_z
Si Si1 0.553122 0.595176 0.217307
Si Si2 0.333335 0.666667 0.710822
Si Si3 0.080072 0.748735 0.216152
Si Si4 0.851242 0.809987 0.500000
Si Si5 0.521150 0.739361 0.789320
O O1 0.500000 0.500000 0.283462
O O2 0.651296 0.635547 0.255360
O O3 0.522601 0.658308 0.284592
O O4 0.544314 0.590584 0.000000
O O5 0.333334 0.666668 0.500000
O O6 0.428715 0.726050 0.770939
O O7 0.054467 0.806394 0.326982
O O8 0.172277 0.767991 0.276830
O O9 0.079588 0.760329 0.000000
O O10 0.837452 0.888982 0.500000
O O11 0.537803 0.741201 0.000000
#
# Coordination Sequence:
#
# PCOD9581514 Si02
#       5
#    12   4  12   6  12
#     4   9  17  33  59  90 121 159 209 259 310 372
#     4  12  25  35  52  87 133 173 211 258 301 365
#     4  10  22  42  69  97 126 167 217 268 322 383
#     4  12  27  46  69  96 130 166 208 264 330 400
#     4  10  20  37  60  83 118 165 210 257 313 370
#
# _framework density 20.965565999999999
#
# number of rings (size 3 to 8) (size 9 to 14) (size 15 to 20)
#    0.000    1.826    0.000    4.043    1.826    7.304 
#    2.348    0.652    0.000    1.565    0.000    0.000 
#    0.000    0.000    0.000    0.000    0.000    0.000 
#
# Total GULP energy -257139.441272 kJ/mol
# GULP energy per Si atom -5589.987854 kJ/mol
# Density = 2.091785 g / cm^3
# Si number density = 20.965566 Si / 1000 Ang^3
#
#
#
# Elastic Constant Matrix: (Units=GPa)
#
#
# Indices 1 2 3 4 5 6 
#
# 1 148.7828 32.3461 31.5416 0.0000 0.0000 0.0049
# 2 32.3461 148.7815 31.5436 0.0000 0.0000 0.0075
# 3 31.5416 31.5436 72.8730 0.0000 0.0000 0.0003
# 4 0.0000 0.0000 0.0000 -22.6681 -0.0028 0.0000
# 5 0.0000 0.0000 0.0000 -0.0028 -22.6737 0.0000
# 6 0.0049 0.0075 0.0003 0.0000 0.0000 58.2264
#
#
#
# Elastic Compliance Matrix: (Units=1/GPa)
#
#
# Indices 1 2 3 4 5 6 
#
# 1 0.007545 -0.001044 -0.002814 0.000000 0.000000 0.000000
# 2 -0.001044 0.007545 -0.002814 0.000000 0.000000 -0.000001
# 3 -0.002814 -0.002814 0.016158 0.000000 0.000000 0.000001
# 4 0.000000 0.000000 0.000000 -0.044115 0.000005 0.000000
# 5 0.000000 0.000000 0.000000 0.000005 -0.044104 0.000000
# 6 0.000000 -0.000001 0.000001 0.000000 0.000000 0.017174
#
#
# Mechanical properties :
#
#
# Convention : Reuss Voigt Hill
#
# Bulk Modulus (GPa) = 55.85088 62.36665 59.10877
# Shear Modulus (GPa) = -244.07822 20.91065 -111.58378
#
# Velocity S-wave (km/s) = -10.80145 3.16156 -7.30328
# Velocity P-wave (km/s) = 11.35186 6.56803 6.54697
#
# Compressibility (1/GPa) = 0.01790482
#
# Stress axis : x y z
#
# Youngs Moduli (GPa) = 132.54472 132.54173 61.88705
#
# Poissons Ratio (x) = 0.13833 0.17414
# Poissons Ratio (y) = 0.13834 0.17415
# Poissons Ratio (z) = 0.37295 0.37298
#
# Static dielectric constant tensor:
#      x y z
#    x 1.698050 0.000000 0.000000 
#    y 0.000000 1.698040 0.000000 
#    z 0.000000 0.000000 1.783800 
# 
# From -- ./inp_files/543.got.cif
#   From: 2010.05.17/outbox.cif.g08.bks.cpg/sg175_1_cif.got.tgz:543.got - 2010.05.20 11:23:22.
