data_PCOD9581170
_publ_section_title
;
Structure prediction by ZEFSAII (Michael W. Deem and Ramdas Pophale) SiO2 
 PCOD9581170
Probable space group: P -6
;
_chemical_formula_sum "Si O2"
_cell_formula_units_Z 44
_cell_length_a 11.820505
_cell_length_b 11.820505
_cell_length_c 19.702060
_cell_angle_alpha 90.000000
_cell_angle_beta 90.000000
_cell_angle_gamma 120.000000
_cell_volume 2384.044355
_symmetry_space_group_name_H-M "P -6"
_symmetry_group_IT_number 174
_symmetry_cell_setting 'hexagonal'
loop_
_space_group_symop_operation_xyz
x,y,z
-x+y,-x,-z
-y,x-y,z
x,y,-z
-x+y,-x,z
-y,x-y,-z
loop_
_atom_site_type_symbol
_atom_site_label
_atom_site_fract_x
_atom_site_fract_y
_atom_site_fract_z
Si Si1 0.002448 0.738547 0.215197
Si Si2 0.666695 0.063526 0.924863
Si Si3 0.261453 0.997551 0.784803
Si Si4 0.364761 0.182380 0.418741
Si Si5 0.596728 0.930962 0.352831
Si Si6 0.666668 0.333334 0.417790
Si Si7 0.396831 0.063526 0.075137
Si Si8 0.334234 0.930962 0.352830
O O1 0.109675 0.890325 0.222413
O O2 0.036314 0.664803 0.273067
O O3 0.009051 0.691666 0.139589
O O4 0.858224 0.716449 0.226114
O O5 0.533153 0.066306 0.919234
O O6 0.789379 0.210621 0.922167
O O7 0.670204 0.010625 0.000000
O O8 0.335197 0.963685 0.726934
O O9 0.308334 0.990949 0.860412
O O10 0.359096 0.179547 0.500000
O O11 0.308175 0.271422 0.390667
O O12 0.516880 0.258439 0.395865
O O13 0.308174 0.036753 0.390666
O O14 0.471806 0.943612 0.373240
O O15 0.571124 0.785562 0.364778
O O16 0.666667 0.333334 0.500000
O O17 0.340421 0.010625 0.000000
#
# Coordination Sequence:
#
# PCOD9581170 Si02
#       8
#     6   6   6   6   6   2   6   6
#     4  10  20  34  53  78 110 148 190 235 286 343
#     4   9  17  30  49  74 104 138 178 228 284 339
#     4  10  20  34  53  78 110 148 190 235 286 343
#     4  11  22  40  64  90 117 150 192 240 291 349
#     4  11  23  40  62  89 121 157 197 243 295 351
#     4   9  18  36  66  90 114 144 184 242 292 333
#     4   9  17  30  49  74 104 138 178 228 284 339
#     4  11  23  40  62  89 121 157 197 243 295 351
#
# _framework density 18.456030999999999
#
# number of rings (size 3 to 8) (size 9 to 14) (size 15 to 20)
#    0.000    1.909    2.727    1.636    0.000    2.182 
#    0.818    0.000    0.000    3.818    0.000    0.000 
#    0.000    0.000    0.000    0.000    0.000    0.000 
#
# Total GULP energy -245406.226028 kJ/mol
# GULP energy per Si atom -5577.414228 kJ/mol
# Density = 1.841402 g / cm^3
# Si number density = 18.456031 Si / 1000 Ang^3
#
#
#
# Elastic Constant Matrix: (Units=GPa)
#
#
# Indices 1 2 3 4 5 6 
#
# 1 64.0588 22.5368 19.6938 0.0000 0.0000 -0.0001
# 2 22.5368 64.0592 19.6938 0.0000 0.0000 0.0000
# 3 19.6938 19.6938 74.4241 0.0000 0.0000 0.0000
# 4 0.0000 0.0000 0.0000 21.1400 0.0000 0.0000
# 5 0.0000 0.0000 0.0000 0.0000 21.1399 0.0000
# 6 -0.0001 0.0000 0.0000 0.0000 0.0000 20.7610
#
#
#
# Elastic Compliance Matrix: (Units=1/GPa)
#
#
# Indices 1 2 3 4 5 6 
#
# 1 0.018606 -0.005478 -0.003474 0.000000 0.000000 0.000000
# 2 -0.005478 0.018606 -0.003474 0.000000 0.000000 0.000000
# 3 -0.003474 -0.003474 0.015275 0.000000 0.000000 0.000000
# 4 0.000000 0.000000 0.000000 0.047304 0.000000 0.000000
# 5 0.000000 0.000000 0.000000 0.000000 0.047304 0.000000
# 6 0.000000 0.000000 0.000000 0.000000 0.000000 0.048167
#
#
# Mechanical properties :
#
#
# Convention : Reuss Voigt Hill
#
# Bulk Modulus (GPa) = 36.18541 36.26567 36.22554
# Shear Modulus (GPa) = 21.80317 21.98266 21.89292
#
# Velocity S-wave (km/s) = 3.44082 3.45495 3.44789
# Velocity P-wave (km/s) = 5.95269 5.96724 5.95997
#
# Compressibility (1/GPa) = 0.02763545
#
# Stress axis : x y z
#
# Youngs Moduli (GPa) = 53.74666 53.74699 65.46647
#
# Poissons Ratio (x) = 0.29441 0.22742
# Poissons Ratio (y) = 0.29441 0.22742
# Poissons Ratio (z) = 0.18671 0.18671
#
# Static dielectric constant tensor:
#      x y z
#    x 1.609570 0.000000 0.000000 
#    y 0.000000 1.609570 0.000000 
#    z 0.000000 0.000000 1.652950 
# 
# From -- ./inp_files/1016.got.cif
#   From: 2010.05.17/outbox.cif.g08.bks.cpg/sg174_cif.got.tgz:1016.got - 2010.05.20 11:22:48.
