data_PCOD9581180
_publ_section_title
;
Structure prediction by ZEFSAII (Michael W. Deem and Ramdas Pophale) SiO2 
 PCOD9581180
Probable space group: P -6
;
_chemical_formula_sum "Si O2"
_cell_formula_units_Z 28
_cell_length_a 14.717641
_cell_length_b 14.717641
_cell_length_c 8.592779
_cell_angle_alpha 90.000000
_cell_angle_beta 90.000000
_cell_angle_gamma 120.000000
_cell_volume 1611.909609
_symmetry_space_group_name_H-M "P -6"
_symmetry_group_IT_number 174
_symmetry_cell_setting 'hexagonal'
loop_
_space_group_symop_operation_xyz
x,y,z
-x+y,-x,-z
-y,x-y,z
x,y,-z
-x+y,-x,z
-y,x-y,-z
loop_
_atom_site_type_symbol
_atom_site_label
_atom_site_fract_x
_atom_site_fract_y
_atom_site_fract_z
Si Si1 0.333333 0.666666 0.685511
Si Si2 0.271205 0.349601 0.186135
Si Si3 0.464281 0.574518 0.186476
Si Si4 0.679059 0.729908 0.686536
Si Si5 0.859334 0.094754 0.311783
Si Si6 0.000000 0.000000 0.311527
O O1 0.333334 0.666668 0.500000
O O2 0.226768 0.572892 0.752705
O O3 0.372040 0.459677 0.237084
O O4 0.159814 0.330755 0.252230
O O5 0.290000 0.255166 0.238108
O O6 0.264517 0.352537 0.000000
O O7 0.580064 0.622123 0.254947
O O8 0.469214 0.576918 0.000000
O O9 0.678609 0.735652 0.500000
O O10 0.787275 0.733992 0.733067
O O11 0.849453 0.091644 0.500000
O O12 0.911082 0.024909 0.262834
O O13 0.000000 0.000000 0.500000
#
# Coordination Sequence:
#
# PCOD9581180 Si02
#       6
#     2   6   6   6   6   2
#     4  12  22  32  55  84 112 152 193 228 274 341
#     4  11  23  36  55  82 114 151 186 228 283 337
#     4  11  23  38  54  79 118 153 186 235 284 334
#     4  11  22  36  58  84 111 149 190 232 283 337
#     4  10  20  36  56  80 113 148 185 227 274 332
#     4   9  15  30  52  77 112 147 172 218 274 321
#
# _framework density 17.370702000000001
#
# number of rings (size 3 to 8) (size 9 to 14) (size 15 to 20)
#    0.000    1.286    4.286    2.571    0.000    4.286 
#    0.000    0.000    0.000    0.857    0.000    0.000 
#    0.000    0.000    0.000    0.000    0.000    0.000 
#
# Total GULP energy -156254.257012 kJ/mol
# GULP energy per Si atom -5580.509179 kJ/mol
# Density = 1.733117 g / cm^3
# Si number density = 17.370702 Si / 1000 Ang^3
#
#
#
# Elastic Constant Matrix: (Units=GPa)
#
#
# Indices 1 2 3 4 5 6 
#
# 1 105.2295 43.9119 23.6332 0.0000 0.0000 -0.0001
# 2 43.9119 105.2297 23.6332 0.0000 0.0000 0.0000
# 3 23.6332 23.6332 35.8715 0.0000 0.0000 0.0000
# 4 0.0000 0.0000 0.0000 19.0831 0.0001 0.0000
# 5 0.0000 0.0000 0.0000 0.0001 19.0835 0.0000
# 6 -0.0001 0.0000 0.0000 0.0000 0.0000 30.6588
#
#
#
# Elastic Compliance Matrix: (Units=1/GPa)
#
#
# Indices 1 2 3 4 5 6 
#
# 1 0.012392 -0.003917 -0.005583 0.000000 0.000000 0.000000
# 2 -0.003917 0.012391 -0.005583 0.000000 0.000000 0.000000
# 3 -0.005583 -0.005583 0.035234 0.000000 0.000000 0.000000
# 4 0.000000 0.000000 0.000000 0.052402 0.000000 0.000000
# 5 0.000000 0.000000 0.000000 0.000000 0.052401 0.000000
# 6 0.000000 0.000000 0.000000 0.000000 0.000000 0.032617
#
#
# Mechanical properties :
#
#
# Convention : Reuss Voigt Hill
#
# Bulk Modulus (GPa) = 33.50073 47.63191 40.56632
# Shear Modulus (GPa) = 21.04776 24.10857 22.57817
#
# Velocity S-wave (km/s) = 3.48470 3.72948 3.60916
# Velocity P-wave (km/s) = 5.95974 6.78422 6.38530
#
# Compressibility (1/GPa) = 0.02985009
#
# Stress axis : x y z
#
# Youngs Moduli (GPa) = 80.70033 80.70055 28.38161
#
# Poissons Ratio (x) = 0.31610 0.15846
# Poissons Ratio (y) = 0.31610 0.15846
# Poissons Ratio (z) = 0.45057 0.45057
#
# Static dielectric constant tensor:
#      x y z
#    x 1.584100 0.000000 0.000000 
#    y 0.000000 1.584100 0.000000 
#    z 0.000000 0.000000 1.585990 
# 
# From -- ./inp_files/292.got.cif
#   From: 2010.05.17/outbox.cif.g08.bks.cpg/sg174_cif.got.tgz:292.got - 2010.05.20 11:22:48.
