data_PCOD9581433
_publ_section_title
;
Structure prediction by ZEFSAII (Michael W. Deem and Ramdas Pophale) SiO2 
 PCOD9581433
Probable space group: P 6/M
;
_chemical_formula_sum "Si O2"
_cell_formula_units_Z 40
_cell_length_a 19.581517
_cell_length_b 19.581517
_cell_length_c 8.678888
_cell_angle_alpha 90.000000
_cell_angle_beta 90.000000
_cell_angle_gamma 120.000000
_cell_volume 2881.956250
_symmetry_space_group_name_H-M "P 6/M"
_symmetry_group_IT_number 175
_symmetry_cell_setting 'hexagonal'
loop_
_space_group_symop_operation_xyz
x,y,z
x-y,x,z
-y,x-y,z
-x,-y,z
-x+y,-x,z
y,-x+y,z
-x,-y,-z
-x+y,-x,-z
y,-x+y,-z
x,y,-z
x-y,x,-z
-y,x-y,-z
loop_
_atom_site_type_symbol
_atom_site_label
_atom_site_fract_x
_atom_site_fract_y
_atom_site_fract_z
Si Si1 0.760003 0.250208 0.815425
Si Si2 0.616629 0.085120 0.815219
Si Si3 0.333335 0.666668 0.684522
Si Si4 0.379241 0.464390 0.683908
O O1 0.702614 0.158155 0.778584
O O2 0.716041 0.294396 0.747795
O O3 0.847060 0.295313 0.744916
O O4 0.764966 0.258871 0.000000
O O5 0.549068 0.101984 0.749842
O O6 0.597268 0.001860 0.744434
O O7 0.607741 0.078206 0.000000
O O8 0.333334 0.666668 0.500000
O O9 0.382185 0.468004 0.500000
#
# Coordination Sequence:
#
# PCOD9581433 Si02
#       4
#    12  12   4  12
#     4  11  21  33  48  63  86 118 151 185 224 269
#     4  10  20  33  48  62  85 116 149 184 223 270
#     4  12  22  29  43  66  88 110 148 195 229 260
#     4  11  21  31  46  65  89 113 144 188 227 265
#
# _framework density 13.879462
#
# number of rings (size 3 to 8) (size 9 to 14) (size 15 to 20)
#    0.000    1.200    3.000    7.200    0.000    3.600 
#    0.000    0.000    0.000    0.000    0.000    0.000 
#    0.000    0.000    0.000    0.900    0.000   17.400 
#
# Total GULP energy -223388.244998 kJ/mol
# GULP energy per Si atom -5584.706125 kJ/mol
# Density = 1.384787 g / cm^3
# Si number density = 13.879462 Si / 1000 Ang^3
#
#
#
# Elastic Constant Matrix: (Units=GPa)
#
#
# Indices 1 2 3 4 5 6 
#
# 1 95.2764 51.4973 45.0947 0.0000 0.0000 -0.0012
# 2 51.4973 95.2771 45.0932 0.0000 0.0000 0.0016
# 3 45.0947 45.0932 92.4349 0.0000 0.0000 -0.0003
# 4 0.0000 0.0000 0.0000 -258.4514 -0.2104 0.0000
# 5 0.0000 0.0000 0.0000 -0.2104 -258.8736 0.0000
# 6 -0.0012 0.0016 -0.0003 0.0000 0.0000 21.8906
#
#
#
# Elastic Compliance Matrix: (Units=1/GPa)
#
#
# Indices 1 2 3 4 5 6 
#
# 1 0.016286 -0.006556 -0.004747 0.000000 0.000000 0.000001
# 2 -0.006556 0.016286 -0.004746 0.000000 0.000000 -0.000002
# 3 -0.004747 -0.004746 0.015450 0.000000 0.000000 0.000000
# 4 0.000000 0.000000 0.000000 -0.003869 0.000003 0.000000
# 5 0.000000 0.000000 0.000000 0.000003 -0.003863 0.000000
# 6 0.000001 -0.000002 0.000000 0.000000 0.000000 0.045682
#
#
# Mechanical properties :
#
#
# Convention : Reuss Voigt Hill
#
# Bulk Modulus (GPa) = 62.80319 62.92875 62.86597
# Shear Modulus (GPa) = 40.52613 -89.66668 -24.57028
#
# Velocity S-wave (km/s) = 5.40944 -8.04637 -4.21201
# Velocity P-wave (km/s) = 9.18495 6.39434 4.66239
#
# Compressibility (1/GPa) = 0.01592276
#
# Stress axis : x y z
#
# Youngs Moduli (GPa) = 61.40223 61.40397 64.72614
#
# Poissons Ratio (x) = 0.40256 0.30725
# Poissons Ratio (y) = 0.40255 0.30721
# Poissons Ratio (z) = 0.29147 0.29145
#
# Static dielectric constant tensor:
#      x y z
#    x 1.413500 0.000290 0.000000 
#    y 0.000290 1.413130 0.000000 
#    z 0.000000 0.000000 1.459470 
# 
# From -- ./inp_files/424.got.cif
#   From: 2010.05.17/outbox.cif.g08.bks.cpg/sg175_1_cif.got.tgz:424.got - 2010.05.20 11:23:22.
