data_PCOD9581379
_publ_section_title
;
Structure prediction by ZEFSAII (Michael W. Deem and Ramdas Pophale) SiO2 
 PCOD9581379
Probable space group: P 6/M
;
_chemical_formula_sum "Si O2"
_cell_formula_units_Z 54
_cell_length_a 19.865997
_cell_length_b 19.865997
_cell_length_c 7.749057
_cell_angle_alpha 90.000000
_cell_angle_beta 90.000000
_cell_angle_gamma 120.000000
_cell_volume 2648.501470
_symmetry_space_group_name_H-M "P 6/M"
_symmetry_group_IT_number 175
_symmetry_cell_setting 'hexagonal'
loop_
_space_group_symop_operation_xyz
x,y,z
x-y,x,z
-y,x-y,z
-x,-y,z
-x+y,-x,z
y,-x+y,z
-x,-y,-z
-x+y,-x,-z
y,-x+y,-z
x,y,-z
x-y,x,-z
-y,x-y,-z
loop_
_atom_site_type_symbol
_atom_site_label
_atom_site_fract_x
_atom_site_fract_y
_atom_site_fract_z
Si Si1 0.183742 0.064229 0.500000
Si Si2 0.433432 0.124794 0.696213
Si Si3 0.325014 0.952026 0.797014
Si Si4 0.467853 0.556807 0.708558
Si Si5 0.700825 0.851013 0.803496
O O1 0.144919 0.118927 0.500000
O O2 0.239378 0.087974 0.667824
O O3 0.443454 0.154161 0.500000
O O4 0.515622 0.137536 0.765270
O O5 0.381721 0.151877 0.797380
O O6 0.378560 0.030909 0.695075
O O7 0.358935 0.894089 0.766290
O O8 0.235465 0.915223 0.749843
O O9 0.332292 0.971155 0.000000
O O10 0.500000 0.500000 0.769775
O O11 0.465983 0.555372 0.500000
O O12 0.730364 0.867281 0.000000
#
# Coordination Sequence:
#
# PCOD9581379 Si02
#       5
#     6  12  12  12  12
#     4  12  27  46  68  88 116 156 200 256 328 402
#     4  10  19  33  54  81 112 150 191 236 291 346
#     4  10  20  32  51  81 115 149 188 237 292 345
#     4   8  16  29  49  77 109 143 181 219 262 325
#     4  11  24  39  60  91 121 154 201 254 305 364
#
# _framework density 20.388888000000001
#
# number of rings (size 3 to 8) (size 9 to 14) (size 15 to 20)
#    0.000    2.000    1.111    4.111    3.111    7.556 
#    0.000    0.000    0.000    2.222    0.000    0.000 
#    0.000    0.000    0.000    0.000    0.000    0.000 
#
# Total GULP energy -301209.700308 kJ/mol
# GULP energy per Si atom -5577.957413 kJ/mol
# Density = 2.034248 g / cm^3
# Si number density = 20.388888 Si / 1000 Ang^3
#
#
#
# Elastic Constant Matrix: (Units=GPa)
#
#
# Indices 1 2 3 4 5 6 
#
# 1 59.8963 2.1339 11.5701 0.0000 0.0000 0.0000
# 2 2.1339 59.8963 11.5701 0.0000 0.0000 0.0000
# 3 11.5701 11.5701 51.9435 0.0000 0.0000 0.0000
# 4 0.0000 0.0000 0.0000 180.2398 0.0000 0.0000
# 5 0.0000 0.0000 0.0000 0.0000 180.2398 0.0000
# 6 0.0000 0.0000 0.0000 0.0000 0.0000 28.8812
#
#
#
# Elastic Compliance Matrix: (Units=1/GPa)
#
#
# Indices 1 2 3 4 5 6 
#
# 1 0.017447 0.000135 -0.003916 0.000000 0.000000 0.000000
# 2 0.000135 0.017447 -0.003916 0.000000 0.000000 0.000000
# 3 -0.003916 -0.003916 0.020996 0.000000 0.000000 0.000000
# 4 0.000000 0.000000 0.000000 0.005548 0.000000 0.000000
# 5 0.000000 0.000000 0.000000 0.000000 0.005548 0.000000
# 6 0.000000 0.000000 0.000000 0.000000 0.000000 0.034625
#
#
# Mechanical properties :
#
#
# Convention : Reuss Voigt Hill
#
# Bulk Modulus (GPa) = 24.69415 24.69824 24.69619
# Shear Modulus (GPa) = 38.31252 87.63628 62.97440
#
# Velocity S-wave (km/s) = 4.33955 6.56321 5.56360
# Velocity P-wave (km/s) = 6.10301 8.34111 7.30824
#
# Compressibility (1/GPa) = 0.04049542
#
# Stress axis : x y z
#
# Youngs Moduli (GPa) = 57.31569 57.31569 47.62726
#
# Poissons Ratio (x) = -0.00773 0.18652
# Poissons Ratio (y) = -0.00773 0.18652
# Poissons Ratio (z) = 0.22447 0.22447
#
# Static dielectric constant tensor:
#      x y z
#    x 1.765020 0.000000 0.000000 
#    y 0.000000 1.765020 0.000000 
#    z 0.000000 0.000000 1.734360 
# 
# From -- ./inp_files/784.got.cif
#   From: 2010.05.17/outbox.cif.g08.bks.cpg/sg175_1_cif.got.tgz:784.got - 2010.05.20 11:23:22.
