data_PCOD9581322
_publ_section_title
;
Structure prediction by ZEFSAII (Michael W. Deem and Ramdas Pophale) SiO2 
 PCOD9581322
Probable space group: P 6/M
;
_chemical_formula_sum "Si O2"
_cell_formula_units_Z 72
_cell_length_a 24.623645
_cell_length_b 24.623645
_cell_length_c 8.224873
_cell_angle_alpha 90.000000
_cell_angle_beta 90.000000
_cell_angle_gamma 120.000000
_cell_volume 4318.814144
_symmetry_space_group_name_H-M "P 6/M"
_symmetry_group_IT_number 175
_symmetry_cell_setting 'hexagonal'
loop_
_space_group_symop_operation_xyz
x,y,z
x-y,x,z
-y,x-y,z
-x,-y,z
-x+y,-x,z
y,-x+y,z
-x,-y,-z
-x+y,-x,-z
y,-x+y,-z
x,y,-z
x-y,x,-z
-y,x-y,-z
loop_
_atom_site_type_symbol
_atom_site_label
_atom_site_fract_x
_atom_site_fract_y
_atom_site_fract_z
Si Si1 0.519777 0.925596 0.692606
Si Si2 0.595869 0.066570 0.192787
Si Si3 0.735903 0.595206 0.306041
Si Si4 0.408322 0.262421 0.196272
Si Si5 0.192258 0.929228 0.198533
Si Si6 0.929484 0.191427 0.195468
O O1 0.508773 0.916425 0.500000
O O2 0.455275 0.912513 0.774115
O O3 0.549070 0.883776 0.752645
O O4 0.569366 0.998817 0.724660
O O5 0.665764 0.116234 0.248911
O O6 0.598313 0.057125 0.000000
O O7 0.733568 0.599784 0.500000
O O8 0.786015 0.573887 0.261736
O O9 0.762987 0.664985 0.235450
O O10 0.335855 0.237096 0.244094
O O11 0.409972 0.260164 0.000000
O O12 0.122515 0.877776 0.253674
O O13 0.219801 0.999935 0.257757
O O14 0.191650 0.930442 0.000000
O O15 0.931756 0.188144 0.000000
#
# Coordination Sequence:
#
# PCOD9581322 Si02
#       6
#    12  12  12  12  12  12
#     4  10  20  32  46  68  98 127 152 183 227 273
#     4  10  19  31  50  73  93 119 155 189 225 270
#     4  10  20  31  45  67  92 120 151 182 223 271
#     4   9  18  31  47  68  91 117 150 187 227 268
#     4   8  14  25  43  64  86 115 147 181 222 265
#     4   9  16  28  45  64  88 118 152 188 226 269
#
# _framework density 16.671243
#
# number of rings (size 3 to 8) (size 9 to 14) (size 15 to 20)
#    0.000    2.667    0.000    4.500    0.000    5.333 
#    0.000    5.000    0.000    1.000    0.000    2.333 
#    0.000    0.000    0.000    6.000    0.000    6.667 
#
# Total GULP energy -401364.303224 kJ/mol
# GULP energy per Si atom -5574.504211 kJ/mol
# Density = 1.663330 g / cm^3
# Si number density = 16.671243 Si / 1000 Ang^3
#
#
#
# Elastic Constant Matrix: (Units=GPa)
#
#
# Indices 1 2 3 4 5 6 
#
# 1 122.0833 73.0243 -3.7239 0.0000 0.0000 0.0000
# 2 73.0243 122.0833 -3.7239 0.0000 0.0000 0.0000
# 3 -3.7239 -3.7239 4.9809 0.0000 0.0000 0.0000
# 4 0.0000 0.0000 0.0000 4.9719 0.0000 0.0000
# 5 0.0000 0.0000 0.0000 0.0000 4.9719 0.0000
# 6 0.0000 0.0000 0.0000 0.0000 0.0000 24.5295
#
#
#
# Elastic Compliance Matrix: (Units=1/GPa)
#
#
# Indices 1 2 3 4 5 6 
#
# 1 0.012830 -0.007554 0.003944 0.000000 0.000000 0.000000
# 2 -0.007554 0.012830 0.003944 0.000000 0.000000 0.000000
# 3 0.003944 0.003944 0.206666 0.000000 0.000000 0.000000
# 4 0.000000 0.000000 0.000000 0.201131 0.000000 0.000000
# 5 0.000000 0.000000 0.000000 0.000000 0.201131 0.000000
# 6 0.000000 0.000000 0.000000 0.000000 0.000000 0.040767
#
#
# Mechanical properties :
#
#
# Convention : Reuss Voigt Hill
#
# Bulk Modulus (GPa) = 4.29192 42.25561 23.27377
# Shear Modulus (GPa) = 6.64585 19.13272 12.88928
#
# Velocity S-wave (km/s) = 1.99877 3.39137 2.78356
# Velocity P-wave (km/s) = 2.81190 6.38252 4.93170
#
# Compressibility (1/GPa) = 0.23299580
#
# Stress axis : x y z
#
# Youngs Moduli (GPa) = 77.94366 77.94366 4.83872
#
# Poissons Ratio (x) = 0.58877 -0.01909
# Poissons Ratio (y) = 0.58877 -0.01909
# Poissons Ratio (z) = -0.30745 -0.30745
#
# Static dielectric constant tensor:
#      x y z
#    x 1.558730 0.000000 0.000000 
#    y 0.000000 1.558730 0.000000 
#    z 0.000000 0.000000 1.583400 
# 
# From -- ./inp_files/1168.got.cif
#   From: 2010.05.17/outbox.cif.g08.bks.cpg/sg175_1_cif.got.tgz:1168.got - 2010.05.20 11:23:22.
