data_PCOD9581163
_publ_section_title
;
Structure prediction by ZEFSAII (Michael W. Deem and Ramdas Pophale) SiO2 
 PCOD9581163
Probable space group: P -6
;
_chemical_formula_sum "Si O2"
_cell_formula_units_Z 15
_cell_length_a 6.873952
_cell_length_b 6.873952
_cell_length_c 13.721859
_cell_angle_alpha 90.000000
_cell_angle_beta 90.000000
_cell_angle_gamma 120.000000
_cell_volume 561.508810
_symmetry_space_group_name_H-M "P -6"
_symmetry_group_IT_number 174
_symmetry_cell_setting 'hexagonal'
loop_
_space_group_symop_operation_xyz
x,y,z
-x+y,-x,-z
-y,x-y,z
x,y,-z
-x+y,-x,z
-y,x-y,-z
loop_
_atom_site_type_symbol
_atom_site_label
_atom_site_fract_x
_atom_site_fract_y
_atom_site_fract_z
Si Si1 0.118752 0.734892 0.500000
Si Si2 0.735982 0.120007 0.696881
Si Si3 0.615603 0.887385 0.105950
O O1 0.386287 0.896865 0.500000
O O2 0.000975 0.743847 0.598812
O O3 0.897453 0.387308 0.695904
O O4 0.746417 0.008282 0.797256
O O5 0.381601 0.894686 0.107689
O O6 0.722080 0.976286 0.000000
#
# Coordination Sequence:
#
# PCOD9581163 Si02
#       3
#     3   6   6
#     4  10  20  34  58  70  90 138 180 200 236 314
#     4  10  20  30  50  80 107 123 159 219 262 290
#     4   8  16  32  54  74  98 138 180 200 226 300
#
# _framework density 26.713736999999998
#
# number of rings (size 3 to 8) (size 9 to 14) (size 15 to 20)
#    2.000    0.800    0.000    3.600    0.000    1.600 
#    0.000    0.000    0.000   22.400    0.000    0.000 
#    0.000    0.000    0.000    0.000    0.000    0.000 
#
# Total GULP energy -83807.023405 kJ/mol
# GULP energy per Si atom -5587.134894 kJ/mol
# Density = 2.665294 g / cm^3
# Si number density = 26.713737 Si / 1000 Ang^3
#
#
#
# Elastic Constant Matrix: (Units=GPa)
#
#
# Indices 1 2 3 4 5 6 
#
# 1 112.4791 21.2558 63.3622 0.0000 0.0000 0.0000
# 2 21.2558 112.4791 63.3622 0.0000 0.0000 0.0000
# 3 63.3622 63.3622 330.2381 0.0000 0.0000 0.0000
# 4 0.0000 0.0000 0.0000 -13.6615 0.0000 0.0000
# 5 0.0000 0.0000 0.0000 0.0000 -13.6615 0.0000
# 6 0.0000 0.0000 0.0000 0.0000 0.0000 45.6117
#
#
#
# Elastic Compliance Matrix: (Units=1/GPa)
#
#
# Indices 1 2 3 4 5 6 
#
# 1 0.010051 -0.000912 -0.001753 0.000000 0.000000 0.000000
# 2 -0.000912 0.010051 -0.001753 0.000000 0.000000 0.000000
# 3 -0.001753 -0.001753 0.003701 0.000000 0.000000 0.000000
# 4 0.000000 0.000000 0.000000 -0.073198 0.000000 0.000000
# 5 0.000000 0.000000 0.000000 0.000000 -0.073198 0.000000
# 6 0.000000 0.000000 0.000000 0.000000 0.000000 0.021924
#
#
# Mechanical properties :
#
#
# Convention : Reuss Voigt Hill
#
# Bulk Modulus (GPa) = 66.82199 94.57295 80.69747
# Shear Modulus (GPa) = -57.57377 30.80549 -13.38414
#
# Velocity S-wave (km/s) = -4.64746 3.39952 -2.24078
# Velocity P-wave (km/s) = 1.93136 7.13360 4.85582
#
# Compressibility (1/GPa) = 0.01496513
#
# Stress axis : x y z
#
# Youngs Moduli (GPa) = 99.49674 99.49674 270.19743
#
# Poissons Ratio (x) = 0.09069 0.47379
# Poissons Ratio (y) = 0.09069 0.47379
# Poissons Ratio (z) = 0.17447 0.17447
#
# Static dielectric constant tensor:
#      x y z
#    x 2.064820 0.000000 0.000000 
#    y 0.000000 2.064820 0.000000 
#    z 0.000000 0.000000 1.995220 
# 
# From -- ./inp_files/597.got.cif
#   From: 2010.05.17/outbox.cif.g08.bks.cpg/sg174_cif.got.tgz:597.got - 2010.05.20 11:22:48.
