data_PCOD9581518
_publ_section_title
;
Structure prediction by ZEFSAII (Michael W. Deem and Ramdas Pophale) SiO2 
 PCOD9581518
Probable space group: P 6/M
;
_chemical_formula_sum "Si O2"
_cell_formula_units_Z 66
_cell_length_a 21.251955
_cell_length_b 21.251955
_cell_length_c 8.014605
_cell_angle_alpha 90.000000
_cell_angle_beta 90.000000
_cell_angle_gamma 120.000000
_cell_volume 3134.804994
_symmetry_space_group_name_H-M "P 6/M"
_symmetry_group_IT_number 175
_symmetry_cell_setting 'hexagonal'
loop_
_space_group_symop_operation_xyz
x,y,z
x-y,x,z
-y,x-y,z
-x,-y,z
-x+y,-x,z
y,-x+y,z
-x,-y,-z
-x+y,-x,-z
y,-x+y,-z
x,y,-z
x-y,x,-z
-y,x-y,-z
loop_
_atom_site_type_symbol
_atom_site_label
_atom_site_fract_x
_atom_site_fract_y
_atom_site_fract_z
Si Si1 0.258431 0.678978 0.000000
Si Si2 0.455442 0.320393 0.699702
Si Si3 0.394150 0.419248 0.305974
Si Si4 0.168863 0.612667 0.303023
Si Si5 0.312152 0.184969 0.301077
Si Si6 0.251973 0.288688 0.804898
O O1 0.261941 0.604232 0.000000
O O2 0.219342 0.674736 0.826961
O O3 0.441888 0.314810 0.500000
O O4 0.430888 0.376110 0.771433
O O5 0.542144 0.363819 0.711950
O O6 0.395472 0.240353 0.760930
O O7 0.415541 0.430340 0.500000
O O8 0.410497 0.497473 0.248591
O O9 0.308711 0.362923 0.288258
O O10 0.178993 0.634456 0.500000
O O11 0.312939 0.175984 0.500000
O O12 0.278559 0.105677 0.222407
O O13 0.267328 0.226157 0.261590
O O14 0.269509 0.298221 0.000000
#
# Coordination Sequence:
#
# PCOD9581518 Si02
#       6
#     6  12  12  12  12  12
#     4  10  26  44  51  72 106 140 192 250 294 338
#     4   8  16  33  57  86 115 143 186 239 290 349
#     4   9  18  34  57  85 117 149 187 235 293 358
#     4  10  20  38  63  83 107 152 198 243 301 359
#     4  10  20  38  61  85 117 157 199 236 285 349
#     4  11  22  36  56  88 125 155 189 240 297 343
#
# _framework density 21.053941999999999
#
# number of rings (size 3 to 8) (size 9 to 14) (size 15 to 20)
#    0.182    2.182    0.000    3.818    1.273    4.364 
#    8.182    4.545    0.000    0.364    0.000    2.545 
#    0.000    0.000    0.000    0.000    0.000    0.000 
#
# Total GULP energy -367841.656132 kJ/mol
# GULP energy per Si atom -5573.358426 kJ/mol
# Density = 2.100602 g / cm^3
# Si number density = 21.053942 Si / 1000 Ang^3
#
#
#
# Elastic Constant Matrix: (Units=GPa)
#
#
# Indices 1 2 3 4 5 6 
#
# 1 51.7705 16.4039 9.9370 0.0000 0.0000 0.0000
# 2 16.4039 51.7705 9.9370 0.0000 0.0000 0.0000
# 3 9.9370 9.9370 64.7883 0.0000 0.0000 0.0000
# 4 0.0000 0.0000 0.0000 79.8175 0.0000 0.0000
# 5 0.0000 0.0000 0.0000 0.0000 79.8175 0.0000
# 6 0.0000 0.0000 0.0000 0.0000 0.0000 17.6833
#
#
#
# Elastic Compliance Matrix: (Units=1/GPa)
#
#
# Indices 1 2 3 4 5 6 
#
# 1 0.021815 -0.006460 -0.002355 0.000000 0.000000 0.000000
# 2 -0.006460 0.021815 -0.002355 0.000000 0.000000 0.000000
# 3 -0.002355 -0.002355 0.016157 0.000000 0.000000 0.000000
# 4 0.000000 0.000000 0.000000 0.012529 0.000000 0.000000
# 5 0.000000 0.000000 0.000000 0.000000 0.012529 0.000000
# 6 0.000000 0.000000 0.000000 0.000000 0.000000 0.056550
#
#
# Mechanical properties :
#
#
# Convention : Reuss Voigt Hill
#
# Bulk Modulus (GPa) = 26.70467 26.76503 26.73485
# Shear Modulus (GPa) = 28.37398 44.26711 36.32055
#
# Velocity S-wave (km/s) = 3.67506 4.59034 4.15796
# Velocity P-wave (km/s) = 5.54252 6.39024 5.98142
#
# Compressibility (1/GPa) = 0.03744663
#
# Stress axis : x y z
#
# Youngs Moduli (GPa) = 45.84001 45.84001 61.89150
#
# Poissons Ratio (x) = 0.29614 0.14576
# Poissons Ratio (y) = 0.29614 0.14576
# Poissons Ratio (z) = 0.10796 0.10796
#
# Static dielectric constant tensor:
#      x y z
#    x 1.793580 0.000000 0.000000 
#    y 0.000000 1.793580 0.000000 
#    z 0.000000 0.000000 1.773100 
# 
# From -- ./inp_files/1020.got.cif
#   From: 2010.05.17/outbox.cif.g08.bks.cpg/sg175_1_cif.got.tgz:1020.got - 2010.05.20 11:23:22.
