data_PCOD9581934
_publ_section_title
;
Structure prediction by ZEFSAII (Michael W. Deem and Ramdas Pophale) SiO2 
 PCOD9581934
Probable space group: P 63/M
;
_chemical_formula_sum "Si O2"
_cell_formula_units_Z 54
_cell_length_a 18.737585
_cell_length_b 18.737585
_cell_length_c 8.385853
_cell_angle_alpha 90.000000
_cell_angle_beta 90.000000
_cell_angle_gamma 120.000000
_cell_volume 2549.794082
_symmetry_space_group_name_H-M "P 63/M"
_symmetry_group_IT_number 176
_symmetry_cell_setting 'hexagonal'
loop_
_space_group_symop_operation_xyz
x,y,z
x-y,x,1/2+z
-y,x-y,z
-x,-y,1/2+z
-x+y,-x,z
y,-x+y,1/2+z
-x,-y,-z
-x+y,-x,1/2-z
y,-x+y,-z
x,y,1/2-z
x-y,x,-z
-y,x-y,1/2-z
loop_
_atom_site_type_symbol
_atom_site_label
_atom_site_fract_x
_atom_site_fract_y
_atom_site_fract_z
Si Si1 0.163460 0.997223 0.053051
Si Si2 0.839927 0.503282 0.997601
Si Si3 0.215782 0.810927 0.250000
Si Si4 0.022549 0.437399 0.750000
Si Si5 0.165532 0.618104 0.250000
Si Si6 0.439792 0.719543 0.750000
Si Si7 0.972469 0.247992 0.750000
O O1 0.176814 0.998007 0.250000
O O2 0.159809 0.078008 0.999580
O O3 0.227555 0.998634 0.919476
O O4 0.858954 0.582019 0.893916
O O5 0.809904 0.419784 0.897976
O O6 0.918341 0.519365 0.099812
O O7 0.762642 0.493334 0.098955
O O8 0.199055 0.715653 0.250000
O O9 0.127654 0.803126 0.250000
O O10 0.934492 0.431258 0.750000
O O11 0.001692 0.343694 0.750000
O O12 0.380066 0.755720 0.750000
#
# Coordination Sequence:
#
# PCOD9581934 Si02
#       7
#    12  12   6   6   6   6   6
#     4  12  24  42  68  96 126 166 211 263 318 378
#     4  10  20  36  61  82 116 162 194 251 309 364
#     4  10  23  38  58  90 123 152 208 253 306 373
#     4  10  23  39  59  85 123 155 210 248 300 375
#     4  10  20  39  57  85 115 159 203 250 303 369
#     4   9  18  31  53  86 116 142 195 245 303 360
#     4  11  26  43  63  92 133 164 210 262 306 381
#
# _framework density 21.178182
#
# number of rings (size 3 to 8) (size 9 to 14) (size 15 to 20)
#    0.222    1.333    2.222    2.222    3.111    0.000 
#    9.333    0.000    9.778    0.000    0.000    0.000 
#    0.000    0.000    0.000    0.000    0.000    0.000 
#
# Total GULP energy -300654.140779 kJ/mol
# GULP energy per Si atom -5567.669274 kJ/mol
# Density = 2.112998 g / cm^3
# Si number density = 21.178182 Si / 1000 Ang^3
#
#
#
# Elastic Constant Matrix: (Units=GPa)
#
#
# Indices 1 2 3 4 5 6 
#
# 1 53.8803 -15.8752 16.8748 0.0000 0.0000 0.0000
# 2 -15.8752 53.8803 16.8748 0.0000 0.0000 0.0000
# 3 16.8748 16.8748 152.1203 0.0000 0.0000 0.0000
# 4 0.0000 0.0000 0.0000 9.1696 0.0000 0.0000
# 5 0.0000 0.0000 0.0000 0.0000 9.1696 0.0000
# 6 0.0000 0.0000 0.0000 0.0000 0.0000 34.8777
#
#
#
# Elastic Compliance Matrix: (Units=1/GPa)
#
#
# Indices 1 2 3 4 5 6 
#
# 1 0.021762 0.007426 -0.003238 0.000000 0.000000 0.000000
# 2 0.007426 0.021762 -0.003238 0.000000 0.000000 0.000000
# 3 -0.003238 -0.003238 0.007292 0.000000 0.000000 0.000000
# 4 0.000000 0.000000 0.000000 0.109056 0.000000 0.000000
# 5 0.000000 0.000000 0.000000 0.000000 0.109056 0.000000
# 6 0.000000 0.000000 0.000000 0.000000 0.000000 0.028672
#
#
# Mechanical properties :
#
#
# Convention : Reuss Voigt Hill
#
# Bulk Modulus (GPa) = 18.96962 32.84777 25.90869
# Shear Modulus (GPa) = 15.96065 26.77715 21.36890
#
# Velocity S-wave (km/s) = 2.74822 3.55966 3.17993
# Velocity P-wave (km/s) = 4.36428 5.69551 5.07374
#
# Compressibility (1/GPa) = 0.05271586
#
# Stress axis : x y z
#
# Youngs Moduli (GPa) = 45.95245 45.95245 137.13499
#
# Poissons Ratio (x) = -0.34124 0.44401
# Poissons Ratio (y) = -0.34124 0.44401
# Poissons Ratio (z) = 0.14878 0.14878
#
# Static dielectric constant tensor:
#      x y z
#    x 1.726900 0.000000 0.000000 
#    y 0.000000 1.726900 0.000000 
#    z 0.000000 0.000000 1.868430 
# 
# From -- ./inp_files/898.got.cif
#   From: 2010.05.17/outbox.cif.g08.bks.cpg/sg176_1_cif.got.tgz:898.got - 2010.06.03 11:36:45.
