data_PCOD9581248
_publ_section_title
;
Structure prediction by ZEFSAII (Michael W. Deem and Ramdas Pophale) SiO2 
 PCOD9581248
Probable space group: P 6/M
;
_chemical_formula_sum "Si O2"
_cell_formula_units_Z 72
_cell_length_a 23.923017
_cell_length_b 23.923017
_cell_length_c 7.312137
_cell_angle_alpha 90.000000
_cell_angle_beta 90.000000
_cell_angle_gamma 120.000000
_cell_volume 3624.155715
_symmetry_space_group_name_H-M "P 6/M"
_symmetry_group_IT_number 175
_symmetry_cell_setting 'hexagonal'
loop_
_space_group_symop_operation_xyz
x,y,z
x-y,x,z
-y,x-y,z
-x,-y,z
-x+y,-x,z
y,-x+y,z
-x,-y,-z
-x+y,-x,-z
y,-x+y,-z
x,y,-z
x-y,x,-z
-y,x-y,-z
loop_
_atom_site_type_symbol
_atom_site_label
_atom_site_fract_x
_atom_site_fract_y
_atom_site_fract_z
Si Si1 0.524998 0.925156 0.277806
Si Si2 0.385873 0.256915 0.276405
Si Si3 0.743085 0.614127 0.276405
Si Si4 0.400157 0.925156 0.722194
Si Si5 0.127837 0.127837 0.220105
Si Si6 0.000000 0.259555 0.714827
O O1 0.524547 0.924709 0.500000
O O2 0.555534 0.882020 0.219583
O O3 0.453111 0.906221 0.218392
O O4 0.571981 0.000000 0.224619
O O5 0.385239 0.255587 0.500000
O O6 0.390186 0.195093 0.216218
O O7 0.444466 0.326486 0.219583
O O8 0.319548 0.253377 0.214229
O O9 0.744413 0.614761 0.500000
O O10 0.746623 0.680452 0.214229
O O11 0.400161 0.924709 0.500000
O O12 0.064638 0.129277 0.285653
O O13 0.193062 0.193062 0.265798
O O14 0.124030 0.124030 0.000000
O O15 0.000000 0.273207 0.500000
#
# Coordination Sequence:
#
# PCOD9581248 Si02
#       6
#    12  12  12  12  12  12
#     4   8  12  19  31  46  67  96 129 162 192 228
#     4   9  15  22  34  54  80 105 128 162 209 252
#     4   9  15  22  34  54  80 105 128 162 209 252
#     4   8  12  19  31  46  67  96 129 162 192 228
#     4  10  21  36  50  61  77 107 145 178 208 248
#     4  10  18  29  44  65  88 108 133 170 216 258
#
# _framework density 19.866695
#
# number of rings (size 3 to 8) (size 9 to 14) (size 15 to 20)
#    0.000    3.000    1.667    2.167    0.000    2.667 
#    0.000    0.000    0.000    1.667    0.000    4.667 
#    0.000    2.667    0.000    0.000    0.000    0.000 
#
# Total GULP energy -401880.694874 kJ/mol
# GULP energy per Si atom -5581.676318 kJ/mol
# Density = 1.982148 g / cm^3
# Si number density = 19.866695 Si / 1000 Ang^3
#
#
#
# Elastic Constant Matrix: (Units=GPa)
#
#
# Indices 1 2 3 4 5 6 
#
# 1 197.5842 133.9232 2.2437 0.0000 0.0000 0.0000
# 2 133.9232 197.5842 2.2437 0.0000 0.0000 0.0000
# 3 2.2437 2.2437 78.4106 0.0000 0.0000 0.0000
# 4 0.0000 0.0000 0.0000 5.8231 0.0000 0.0000
# 5 0.0000 0.0000 0.0000 0.0000 5.8231 0.0000
# 6 0.0000 0.0000 0.0000 0.0000 0.0000 31.8305
#
#
#
# Elastic Compliance Matrix: (Units=1/GPa)
#
#
# Indices 1 2 3 4 5 6 
#
# 1 0.009363 -0.006345 -0.000086 0.000000 0.000000 0.000000
# 2 -0.006345 0.009363 -0.000086 0.000000 0.000000 0.000000
# 3 -0.000086 -0.000086 0.012758 0.000000 0.000000 0.000000
# 4 0.000000 0.000000 0.000000 0.171730 0.000000 0.000000
# 5 0.000000 0.000000 0.000000 0.000000 0.171730 0.000000
# 6 0.000000 0.000000 0.000000 0.000000 0.000000 0.031416
#
#
# Mechanical properties :
#
#
# Convention : Reuss Voigt Hill
#
# Bulk Modulus (GPa) = 54.20552 83.37780 68.79166
# Shear Modulus (GPa) = 11.74960 31.03988 21.39474
#
# Velocity S-wave (km/s) = 2.43455 3.95702 3.28520
# Velocity P-wave (km/s) = 5.93688 7.93329 7.00656
#
# Compressibility (1/GPa) = 0.01844831
#
# Stress axis : x y z
#
# Youngs Moduli (GPa) = 106.80396 106.80396 78.38018
#
# Poissons Ratio (x) = 0.67770 0.00677
# Poissons Ratio (y) = 0.67770 0.00677
# Poissons Ratio (z) = 0.00922 0.00922
#
# Static dielectric constant tensor:
#      x y z
#    x 1.670300 0.000000 0.000000 
#    y 0.000000 1.670300 0.000000 
#    z 0.000000 0.000000 1.758660 
# 
# From -- ./inp_files/1206.got.cif
#   From: 2010.05.17/outbox.cif.g08.bks.cpg/sg175_1_cif.got.tgz:1206.got - 2010.05.20 11:23:22.
