data_PCOD9581706
_publ_section_title
;
Structure prediction by ZEFSAII (Michael W. Deem and Ramdas Pophale) SiO2 
 PCOD9581706
Probable space group: P 6/M
;
_chemical_formula_sum "Si O2"
_cell_formula_units_Z 40
_cell_length_a 15.743141
_cell_length_b 15.743141
_cell_length_c 7.465190
_cell_angle_alpha 90.000000
_cell_angle_beta 90.000000
_cell_angle_gamma 120.000000
_cell_volume 1602.338499
_symmetry_space_group_name_H-M "P 6/M"
_symmetry_group_IT_number 175
_symmetry_cell_setting 'hexagonal'
loop_
_space_group_symop_operation_xyz
x,y,z
x-y,x,z
-y,x-y,z
-x,-y,z
-x+y,-x,z
y,-x+y,z
-x,-y,-z
-x+y,-x,-z
y,-x+y,-z
x,y,-z
x-y,x,-z
-y,x-y,-z
loop_
_atom_site_type_symbol
_atom_site_label
_atom_site_fract_x
_atom_site_fract_y
_atom_site_fract_z
Si Si1 0.380947 0.868358 0.710690
Si Si2 0.666668 0.333334 0.209333
Si Si3 0.776161 0.920079 0.719044
Si Si4 0.063143 0.662048 0.281272
O O1 0.394889 0.886815 0.500000
O O2 0.313311 0.752725 0.730166
O O3 0.487430 0.892947 0.783850
O O4 0.352331 0.947842 0.772165
O O5 0.666667 0.333334 0.000000
O O6 0.774837 0.917236 0.500000
O O7 0.849269 0.032447 0.774440
O O8 0.667495 0.894263 0.778346
O O9 0.071017 0.666944 0.500000
#
# Coordination Sequence:
#
# PCOD9581706 Si02
#       4
#    12   4  12  12
#     4   9  18  34  54  76 102 136 177 221 263 304
#     4  12  25  35  49  78 112 143 175 210 262 320
#     4   9  16  24  38  65 105 139 160 197 258 321
#     4   8  16  30  50  76  99 129 177 221 262 309
#
# _framework density 24.963512999999999
#
# number of rings (size 3 to 8) (size 9 to 14) (size 15 to 20)
#    0.000    3.000    0.000    3.000    4.200    1.200 
#    0.000    3.000    0.000    0.000    0.000    0.000 
#    0.000    0.000    0.000    2.700    0.000    3.000 
#
# Total GULP energy -223293.068124 kJ/mol
# GULP energy per Si atom -5582.326703 kJ/mol
# Density = 2.490669 g / cm^3
# Si number density = 24.963513 Si / 1000 Ang^3
#
#
#
# Elastic Constant Matrix: (Units=GPa)
#
#
# Indices 1 2 3 4 5 6 
#
# 1 64.7876 -4.2160 -5.3364 0.0000 0.0000 -0.0018
# 2 -4.2160 64.7908 -5.3382 0.0000 0.0000 -0.0009
# 3 -5.3364 -5.3382 64.6743 0.0000 0.0000 0.0005
# 4 0.0000 0.0000 0.0000 -55.9371 -0.0014 0.0000
# 5 0.0000 0.0000 0.0000 -0.0014 -55.9301 0.0000
# 6 -0.0018 -0.0009 0.0005 0.0000 0.0000 34.5067
#
#
#
# Elastic Compliance Matrix: (Units=1/GPa)
#
#
# Indices 1 2 3 4 5 6 
#
# 1 0.015622 0.001130 0.001382 0.000000 0.000000 0.000001
# 2 0.001130 0.015622 0.001383 0.000000 0.000000 0.000000
# 3 0.001382 0.001383 0.015690 0.000000 0.000000 0.000000
# 4 0.000000 0.000000 0.000000 -0.017877 0.000000 0.000000
# 5 0.000000 0.000000 0.000000 0.000000 -0.017879 0.000000
# 6 0.000001 0.000000 0.000000 0.000000 0.000000 0.028980
#
#
# Mechanical properties :
#
#
# Convention : Reuss Voigt Hill
#
# Bulk Modulus (GPa) = 18.27300 18.27461 18.27381
# Shear Modulus (GPa) = 98.79741 -1.52923 48.63409
#
# Velocity S-wave (km/s) = 6.29783 -0.78353 4.41864
# Velocity P-wave (km/s) = 7.76011 2.55301 5.77655
#
# Compressibility (1/GPa) = 0.05472554
#
# Stress axis : x y z
#
# Youngs Moduli (GPa) = 64.01030 64.01322 63.73369
#
# Poissons Ratio (x) = -0.07237 -0.08810
# Poissons Ratio (y) = -0.07236 -0.08812
# Poissons Ratio (z) = -0.08848 -0.08851
#
# Static dielectric constant tensor:
#      x y z
#    x 2.072010 0.000060 0.000000 
#    y 0.000060 2.072020 0.000000 
#    z 0.000000 0.000000 1.956060 
# 
# From -- ./inp_files/416.got.cif
#   From: 2010.05.17/outbox.cif.g08.bks.cpg/sg175_1_cif.got.tgz:416.got - 2010.05.20 11:23:22.
