data_PCOD9581318
_publ_section_title
;
Structure prediction by ZEFSAII (Michael W. Deem and Ramdas Pophale) SiO2 
 PCOD9581318
Probable space group: P 6/M
;
_chemical_formula_sum "Si O2"
_cell_formula_units_Z 72
_cell_length_a 24.452242
_cell_length_b 24.452242
_cell_length_c 9.066266
_cell_angle_alpha 90.000000
_cell_angle_beta 90.000000
_cell_angle_gamma 120.000000
_cell_volume 4694.576918
_symmetry_space_group_name_H-M "P 6/M"
_symmetry_group_IT_number 175
_symmetry_cell_setting 'hexagonal'
loop_
_space_group_symop_operation_xyz
x,y,z
x-y,x,z
-y,x-y,z
-x,-y,z
-x+y,-x,z
y,-x+y,z
-x,-y,-z
-x+y,-x,-z
y,-x+y,-z
x,y,-z
x-y,x,-z
-y,x-y,-z
loop_
_atom_site_type_symbol
_atom_site_label
_atom_site_fract_x
_atom_site_fract_y
_atom_site_fract_z
Si Si1 0.366490 0.851547 0.824378
Si Si2 0.934233 0.303704 0.322620
Si Si3 0.743833 0.261078 0.331641
Si Si4 0.702306 0.069148 0.175485
Si Si5 0.364071 0.185130 0.668522
Si Si6 0.505865 0.138978 0.175706
O O1 0.323414 0.786079 0.739532
O O2 0.341239 0.899513 0.788284
O O3 0.439911 0.878267 0.792467
O O4 0.357041 0.839171 0.000000
O O5 0.934384 0.307929 0.500000
O O6 0.885300 0.230451 0.283075
O O7 0.905695 0.345310 0.255085
O O8 0.003302 0.328512 0.258979
O O9 0.738961 0.278188 0.500000
O O10 0.779282 0.219896 0.333973
O O11 0.789955 0.321455 0.234849
O O12 0.772645 0.119613 0.229049
O O13 0.700329 0.060202 0.000000
O O14 0.343043 0.184404 0.500000
O O15 0.495707 0.136705 0.000000
#
# Coordination Sequence:
#
# PCOD9581318 Si02
#       6
#    12  12  12  12  12  12
#     4   9  19  33  47  64  87 118 152 192 241 290
#     4  10  20  33  49  70  95 123 155 188 230 280
#     4   9  17  30  47  64  82 108 145 187 234 286
#     4  10  19  31  49  71  93 119 154 190 228 276
#     4   8  16  31  48  65  88 117 146 180 220 266
#     4  10  19  32  48  64  87 117 152 195 241 288
#
# _framework density 15.336846
#
# number of rings (size 3 to 8) (size 9 to 14) (size 15 to 20)
#    0.000    2.667    0.000    3.000    0.000    7.333 
#    1.000    3.333    0.000    0.000    0.000    0.000 
#    0.000    0.000    0.000    0.500    0.000    9.667 
#
# Total GULP energy -401232.651387 kJ/mol
# GULP energy per Si atom -5572.675714 kJ/mol
# Density = 1.530194 g / cm^3
# Si number density = 15.336846 Si / 1000 Ang^3
#
#
#
# Elastic Constant Matrix: (Units=GPa)
#
#
# Indices 1 2 3 4 5 6 
#
# 1 77.5167 52.6771 46.6193 0.0000 0.0000 0.0000
# 2 52.6771 77.5167 46.6193 0.0000 0.0000 0.0000
# 3 46.6193 46.6193 63.7013 0.0000 0.0000 0.0000
# 4 0.0000 0.0000 0.0000 23.6718 0.0000 0.0000
# 5 0.0000 0.0000 0.0000 0.0000 23.6718 0.0000
# 6 0.0000 0.0000 0.0000 0.0000 0.0000 12.4198
#
#
#
# Elastic Compliance Matrix: (Units=1/GPa)
#
#
# Indices 1 2 3 4 5 6 
#
# 1 0.028199 -0.012059 -0.011812 0.000000 0.000000 0.000000
# 2 -0.012059 0.028199 -0.011812 0.000000 0.000000 0.000000
# 3 -0.011812 -0.011812 0.032987 0.000000 0.000000 0.000000
# 4 0.000000 0.000000 0.000000 0.042244 0.000000 0.000000
# 5 0.000000 0.000000 0.000000 0.000000 0.042244 0.000000
# 6 0.000000 0.000000 0.000000 0.000000 0.000000 0.080516
#
#
# Mechanical properties :
#
#
# Convention : Reuss Voigt Hill
#
# Bulk Modulus (GPa) = 55.49553 56.72959 56.11256
# Shear Modulus (GPa) = 15.07100 16.80728 15.93914
#
# Velocity S-wave (km/s) = 3.13815 3.31399 3.22727
# Velocity P-wave (km/s) = 7.02806 7.19116 7.11008
#
# Compressibility (1/GPa) = 0.01801947
#
# Stress axis : x y z
#
# Youngs Moduli (GPa) = 35.46214 35.46214 30.31475
#
# Poissons Ratio (x) = 0.42764 0.35808
# Poissons Ratio (y) = 0.42764 0.35808
# Poissons Ratio (z) = 0.41888 0.41888
#
# Static dielectric constant tensor:
#      x y z
#    x 1.504460 0.000000 0.000000 
#    y 0.000000 1.504460 0.000000 
#    z 0.000000 0.000000 1.515770 
# 
# From -- ./inp_files/1163.got.cif
#   From: 2010.05.17/outbox.cif.g08.bks.cpg/sg175_1_cif.got.tgz:1163.got - 2010.05.20 11:23:22.
