data_PCOD9581744
_publ_section_title
;
Structure prediction by ZEFSAII (Michael W. Deem and Ramdas Pophale) SiO2 
 PCOD9581744
Probable space group: P 63/M
;
_chemical_formula_sum "Si O2"
_cell_formula_units_Z 60
_cell_length_a 14.701492
_cell_length_b 14.701492
_cell_length_c 13.908467
_cell_angle_alpha 90.000000
_cell_angle_beta 90.000000
_cell_angle_gamma 120.000000
_cell_volume 2603.350962
_symmetry_space_group_name_H-M "P 63/M"
_symmetry_group_IT_number 176
_symmetry_cell_setting 'hexagonal'
loop_
_space_group_symop_operation_xyz
x,y,z
x-y,x,1/2+z
-y,x-y,z
-x,-y,1/2+z
-x+y,-x,z
y,-x+y,1/2+z
-x,-y,-z
-x+y,-x,1/2-z
y,-x+y,-z
x,y,1/2-z
x-y,x,-z
-y,x-y,1/2-z
loop_
_atom_site_type_symbol
_atom_site_label
_atom_site_fract_x
_atom_site_fract_y
_atom_site_fract_z
Si Si1 0.472247 0.108497 0.861244
Si Si2 0.209754 0.645809 0.633456
Si Si3 0.402668 0.384866 0.634366
Si Si4 0.159946 0.330312 0.044406
Si Si5 0.043447 0.282875 0.860248
O O1 0.485592 0.144004 0.750000
O O2 0.567934 0.093388 0.889831
O O3 0.439900 0.178673 0.923533
O O4 0.364356 0.994530 0.863060
O O5 0.245252 0.560726 0.607186
O O6 0.204005 0.645150 0.750000
O O7 0.097763 0.625276 0.601041
O O8 0.393357 0.374684 0.750000
O O9 0.333536 0.273495 0.585603
O O10 0.183232 0.246380 0.097824
O O11 0.137240 0.309574 0.932150
O O12 0.064696 0.270029 0.750000
#
# Coordination Sequence:
#
# PCOD9581744 Si02
#       5
#    12  12  12  12  12
#     4   8  18  36  59  92 134 176 227 290 334 393
#     4   7  13  27  46  82 136 180 219 264 316 395
#     4  10  17  32  61  93 137 191 230 278 343 399
#     4  10  20  39  65  95 130 179 233 284 349 422
#     4   9  20  42  65  92 134 171 220 292 348 412
#
# _framework density 23.047219999999999
#
# number of rings (size 3 to 8) (size 9 to 14) (size 15 to 20)
#    1.600    1.600    0.000    1.200    0.000    0.800 
#    4.800    3.000    0.000    1.600    0.000    0.000 
#    0.000    0.000    0.000    0.000    0.000    0.000 
#
# Total GULP energy -334840.016069 kJ/mol
# GULP energy per Si atom -5580.666934 kJ/mol
# Density = 2.299476 g / cm^3
# Si number density = 23.047220 Si / 1000 Ang^3
#
#
#
# Elastic Constant Matrix: (Units=GPa)
#
#
# Indices 1 2 3 4 5 6 
#
# 1 104.1282 53.1248 54.8667 0.0000 0.0000 0.0000
# 2 53.1248 104.1282 54.8667 0.0000 0.0000 0.0000
# 3 54.8667 54.8667 146.3588 0.0000 0.0000 0.0000
# 4 0.0000 0.0000 0.0000 33.3829 0.0000 0.0000
# 5 0.0000 0.0000 0.0000 0.0000 33.3829 0.0000
# 6 0.0000 0.0000 0.0000 0.0000 0.0000 25.5017
#
#
#
# Elastic Compliance Matrix: (Units=1/GPa)
#
#
# Indices 1 2 3 4 5 6 
#
# 1 0.014109 -0.005497 -0.003228 0.000000 0.000000 0.000000
# 2 -0.005497 0.014109 -0.003228 0.000000 0.000000 0.000000
# 3 -0.003228 -0.003228 0.009253 0.000000 0.000000 0.000000
# 4 0.000000 0.000000 0.000000 0.029955 0.000000 0.000000
# 5 0.000000 0.000000 0.000000 0.000000 0.029955 0.000000
# 6 0.000000 0.000000 0.000000 0.000000 0.000000 0.039213
#
#
# Mechanical properties :
#
#
# Convention : Reuss Voigt Hill
#
# Bulk Modulus (GPa) = 73.72829 75.59240 74.66034
# Shear Modulus (GPa) = 30.29842 31.23731 30.76787
#
# Velocity S-wave (km/s) = 3.62971 3.68552 3.65772
# Velocity P-wave (km/s) = 7.04457 7.14009 7.09249
#
# Compressibility (1/GPa) = 0.01356331
#
# Stress axis : x y z
#
# Youngs Moduli (GPa) = 70.87530 70.87530 108.07210
#
# Poissons Ratio (x) = 0.38962 0.34891
# Poissons Ratio (y) = 0.38962 0.34891
# Poissons Ratio (z) = 0.22882 0.22882
#
# Static dielectric constant tensor:
#      x y z
#    x 1.870900 0.000000 0.000000 
#    y 0.000000 1.870900 0.000000 
#    z 0.000000 0.000000 1.915300 
# 
# From -- ./inp_files/2637.got.cif
#   From: 2010.05.17/outbox.cif.g08.bks.cpg/sg176_2_cif.got.tgz:2637.got - 2010.06.03 11:36:45.
