data_PCOD9581504
_publ_section_title
;
Structure prediction by ZEFSAII (Michael W. Deem and Ramdas Pophale) SiO2 
 PCOD9581504
Probable space group: P 6/M
;
_chemical_formula_sum "Si O2"
_cell_formula_units_Z 66
_cell_length_a 20.989219
_cell_length_b 20.989219
_cell_length_c 7.775365
_cell_angle_alpha 90.000000
_cell_angle_beta 90.000000
_cell_angle_gamma 120.000000
_cell_volume 2966.497420
_symmetry_space_group_name_H-M "P 6/M"
_symmetry_group_IT_number 175
_symmetry_cell_setting 'hexagonal'
loop_
_space_group_symop_operation_xyz
x,y,z
x-y,x,z
-y,x-y,z
-x,-y,z
-x+y,-x,z
y,-x+y,z
-x,-y,-z
-x+y,-x,-z
y,-x+y,-z
x,y,-z
x-y,x,-z
-y,x-y,-z
loop_
_atom_site_type_symbol
_atom_site_label
_atom_site_fract_x
_atom_site_fract_y
_atom_site_fract_z
Si Si1 0.825576 0.118813 0.699223
Si Si2 0.775110 0.535906 0.705619
Si Si3 0.513244 0.611170 0.300656
Si Si4 0.113079 0.635583 0.799999
Si Si5 0.002523 0.674997 0.804581
Si Si6 0.908423 0.820737 0.000000
O O1 0.850378 0.133663 0.500000
O O2 0.797061 0.174844 0.758561
O O3 0.749305 0.040348 0.708609
O O4 0.882648 0.116124 0.832699
O O5 0.769118 0.536444 0.500000
O O6 0.820516 0.495208 0.747510
O O7 0.694278 0.496152 0.781432
O O8 0.536732 0.621757 0.500000
O O9 0.442731 0.531839 0.279905
O O10 0.586093 0.632749 0.194880
O O11 0.075096 0.680314 0.724019
O O12 0.093932 0.623204 0.000000
O O13 0.015106 0.703602 0.000000
O O14 0.870140 0.871640 0.000000
#
# Coordination Sequence:
#
# PCOD9581504 Si02
#       6
#    12  12  12  12  12   6
#     4  10  23  43  71 104 135 174 219 273 338 397
#     4   9  21  39  59  86 122 165 219 274 326 388
#     4  10  21  38  55  80 120 168 211 262 326 384
#     4  11  23  34  57  89 121 163 214 267 324 391
#     4  10  20  36  60  92 131 163 207 265 328 391
#     4  12  29  50  76 104 141 181 219 267 325 405
#
# _framework density 22.248460999999999
#
# number of rings (size 3 to 8) (size 9 to 14) (size 15 to 20)
#    0.000    1.818    0.909    3.364    3.818    7.273 
#    1.091    0.000    0.000    1.091    0.000    0.000 
#    0.000    0.000    0.000    0.000    0.000    0.000 
#
# Total GULP energy -368501.677272 kJ/mol
# GULP energy per Si atom -5583.358747 kJ/mol
# Density = 2.219782 g / cm^3
# Si number density = 22.248461 Si / 1000 Ang^3
#
#
#
# Elastic Constant Matrix: (Units=GPa)
#
#
# Indices 1 2 3 4 5 6 
#
# 1 63.4751 16.8958 17.5770 0.0000 0.0000 0.0000
# 2 16.8958 63.4751 17.5770 0.0000 0.0000 0.0000
# 3 17.5770 17.5770 75.3209 0.0000 0.0000 0.0000
# 4 0.0000 0.0000 0.0000 35.3903 0.0000 0.0000
# 5 0.0000 0.0000 0.0000 0.0000 35.3903 0.0000
# 6 0.0000 0.0000 0.0000 0.0000 0.0000 23.2896
#
#
#
# Elastic Compliance Matrix: (Units=1/GPa)
#
#
# Indices 1 2 3 4 5 6 
#
# 1 0.017663 -0.003806 -0.003234 0.000000 0.000000 0.000000
# 2 -0.003806 0.017663 -0.003234 0.000000 0.000000 0.000000
# 3 -0.003234 -0.003234 0.014786 0.000000 0.000000 0.000000
# 4 0.000000 0.000000 0.000000 0.028256 0.000000 0.000000
# 5 0.000000 0.000000 0.000000 0.000000 0.028256 0.000000
# 6 0.000000 0.000000 0.000000 0.000000 0.000000 0.042938
#
#
# Mechanical properties :
#
#
# Convention : Reuss Voigt Hill
#
# Bulk Modulus (GPa) = 33.82420 34.04120 33.93270
# Shear Modulus (GPa) = 27.78351 28.82880 28.30615
#
# Velocity S-wave (km/s) = 3.53765 3.60358 3.57077
# Velocity P-wave (km/s) = 5.65000 5.71385 5.68202
#
# Compressibility (1/GPa) = 0.02956463
#
# Stress axis : x y z
#
# Youngs Moduli (GPa) = 56.61638 56.61638 67.63280
#
# Poissons Ratio (x) = 0.21548 0.21870
# Poissons Ratio (y) = 0.21548 0.21870
# Poissons Ratio (z) = 0.18308 0.18308
#
# Static dielectric constant tensor:
#      x y z
#    x 1.862030 0.000000 0.000000 
#    y 0.000000 1.862030 0.000000 
#    z 0.000000 0.000000 1.802930 
# 
# From -- ./inp_files/1017.got.cif
#   From: 2010.05.17/outbox.cif.g08.bks.cpg/sg175_1_cif.got.tgz:1017.got - 2010.05.20 11:23:22.
