data_PCOD9581599
_publ_section_title
;
Structure prediction by ZEFSAII (Michael W. Deem and Ramdas Pophale) SiO2 
 PCOD9581599
Probable space group: P 6/M
;
_chemical_formula_sum "Si O2"
_cell_formula_units_Z 42
_cell_length_a 10.579586
_cell_length_b 10.579586
_cell_length_c 20.050763
_cell_angle_alpha 90.000000
_cell_angle_beta 90.000000
_cell_angle_gamma 120.000000
_cell_volume 1943.564160
_symmetry_space_group_name_H-M "P 6/M"
_symmetry_group_IT_number 175
_symmetry_cell_setting 'hexagonal'
loop_
_space_group_symop_operation_xyz
x,y,z
x-y,x,z
-y,x-y,z
-x,-y,z
-x+y,-x,z
y,-x+y,z
-x,-y,-z
-x+y,-x,-z
y,-x+y,-z
x,y,-z
x-y,x,-z
-y,x-y,-z
loop_
_atom_site_type_symbol
_atom_site_label
_atom_site_fract_x
_atom_site_fract_y
_atom_site_fract_z
Si Si1 0.255669 0.339964 0.646909
Si Si2 0.500000 0.500000 0.746975
Si Si3 0.494428 0.660572 0.867732
Si Si4 0.084933 0.750706 0.500000
Si Si5 0.735556 0.061220 0.000000
O O1 0.285621 0.202694 0.653494
O O2 0.361701 0.459158 0.700166
O O3 0.303899 0.406937 0.572069
O O4 0.547483 0.636173 0.797108
O O5 0.472159 0.799543 0.869805
O O6 0.580376 0.667477 0.933511
O O7 0.922432 0.724668 0.500000
O O8 0.904003 0.184929 0.000000
#
# Coordination Sequence:
#
# PCOD9581599 Si02
#       5
#    12   6  12   6   6
#     4  10  21  38  62  91 124 167 215 271 324 382
#     4  12  22  38  60  94 134 164 208 260 320 378
#     4  10  23  41  64  91 120 164 207 248 301 371
#     4   8  15  31  56  86 120 160 213 265 322 380
#     4  12  25  44  68  97 126 158 202 258 314 364
#
# _framework density 21.609784000000001
#
# number of rings (size 3 to 8) (size 9 to 14) (size 15 to 20)
#    0.571    1.143    0.000    4.857    0.000    4.571 
#    1.714    0.000    0.000    3.429    0.000    0.000 
#    0.000    0.000    0.000    0.000    0.000    0.000 
#
# Total GULP energy -234257.007423 kJ/mol
# GULP energy per Si atom -5577.547796 kJ/mol
# Density = 2.156060 g / cm^3
# Si number density = 21.609784 Si / 1000 Ang^3
#
#
#
# Elastic Constant Matrix: (Units=GPa)
#
#
# Indices 1 2 3 4 5 6 
#
# 1 54.2685 14.2947 50.0215 0.0000 0.0000 0.0000
# 2 14.2947 54.2685 50.0215 0.0000 0.0000 0.0000
# 3 50.0215 50.0215 204.8012 0.0000 0.0000 0.0000
# 4 0.0000 0.0000 0.0000 12.0938 0.0000 0.0000
# 5 0.0000 0.0000 0.0000 0.0000 12.0938 0.0000
# 6 0.0000 0.0000 0.0000 0.0000 0.0000 19.9869
#
#
#
# Elastic Compliance Matrix: (Units=1/GPa)
#
#
# Indices 1 2 3 4 5 6 
#
# 1 0.023839 -0.001178 -0.005535 0.000000 0.000000 0.000000
# 2 -0.001178 0.023839 -0.005535 0.000000 0.000000 0.000000
# 3 -0.005535 -0.005535 0.007587 0.000000 0.000000 0.000000
# 4 0.000000 0.000000 0.000000 0.082687 0.000000 0.000000
# 5 0.000000 0.000000 0.000000 0.000000 0.082687 0.000000
# 6 0.000000 0.000000 0.000000 0.000000 0.000000 0.050033
#
#
# Mechanical properties :
#
#
# Convention : Reuss Voigt Hill
#
# Bulk Modulus (GPa) = 32.49976 60.22372 46.36174
# Shear Modulus (GPa) = 16.37079 22.10160 19.23619
#
# Velocity S-wave (km/s) = 2.75537 3.20153 2.98679
# Velocity P-wave (km/s) = 5.01944 6.44947 5.77886
#
# Compressibility (1/GPa) = 0.03076946
#
# Stress axis : x y z
#
# Youngs Moduli (GPa) = 41.94841 41.94841 131.81304
#
# Poissons Ratio (x) = 0.04940 0.72957
# Poissons Ratio (y) = 0.04940 0.72957
# Poissons Ratio (z) = 0.23218 0.23218
#
# Static dielectric constant tensor:
#      x y z
#    x 1.795100 0.000000 0.000000 
#    y 0.000000 1.795100 0.000000 
#    z 0.000000 0.000000 1.811890 
# 
# From -- ./inp_files/2757.got.cif
#   From: 2010.05.17/outbox.cif.g08.bks.cpg/sg175_2_cif.got.tgz:2757.got - 2010.05.20 11:23:22.
