data_PCOD9581980
_publ_section_title
;
Structure prediction by ZEFSAII (Michael W. Deem and Ramdas Pophale) SiO2 
 PCOD9581980
Probable space group: P 63/M
;
_chemical_formula_sum "Si O2"
_cell_formula_units_Z 84
_cell_length_a 17.264878
_cell_length_b 17.264878
_cell_length_c 13.594233
_cell_angle_alpha 90.000000
_cell_angle_beta 90.000000
_cell_angle_gamma 120.000000
_cell_volume 3509.234324
_symmetry_space_group_name_H-M "P 63/M"
_symmetry_group_IT_number 176
_symmetry_cell_setting 'hexagonal'
loop_
_space_group_symop_operation_xyz
x,y,z
x-y,x,1/2+z
-y,x-y,z
-x,-y,1/2+z
-x+y,-x,z
y,-x+y,1/2+z
-x,-y,-z
-x+y,-x,1/2-z
y,-x+y,-z
x,y,1/2-z
x-y,x,-z
-y,x-y,1/2-z
loop_
_atom_site_type_symbol
_atom_site_label
_atom_site_fract_x
_atom_site_fract_y
_atom_site_fract_z
Si Si1 0.584859 0.221594 0.101796
Si Si2 0.369192 0.253282 0.135420
Si Si3 0.455032 0.964579 0.860131
Si Si4 0.768494 0.782494 0.137191
Si Si5 0.057528 0.798317 0.424922
Si Si6 0.254214 0.449278 0.467081
Si Si7 0.557602 0.649086 0.366343
O O1 0.690762 0.266775 0.123745
O O2 0.537781 0.125322 0.148969
O O3 0.540854 0.198302 0.993489
O O4 0.387021 0.248501 0.250000
O O5 0.427010 0.356396 0.097770
O O6 0.266389 0.226539 0.119963
O O7 0.400330 0.197612 0.068564
O O8 0.449771 0.995613 0.750000
O O9 0.548150 0.037961 0.905717
O O10 0.795540 0.775032 0.250000
O O11 0.768724 0.876282 0.126483
O O12 0.665506 0.702875 0.122333
O O13 0.815306 0.773479 0.038857
O O14 0.110505 0.742361 0.415303
O O15 0.187435 0.472438 0.411018
O O16 0.541676 0.642395 0.250000
#
# Coordination Sequence:
#
# PCOD9581980 Si02
#       7
#    12  12  12  12  12  12  12
#     4  10  21  35  52  82 120 164 205 248 310 368
#     4  11  22  38  58  91 124 156 207 262 307 363
#     4  10  21  37  58  85 120 164 211 259 311 366
#     4  10  21  39  63  93 128 164 203 251 309 371
#     4  11  21  40  62  94 125 161 208 252 314 368
#     4  11  22  38  61  89 120 164 205 256 309 368
#     4   9  19  37  59  85 118 159 211 259 309 366
#
# _framework density 23.936844000000001
#
# number of rings (size 3 to 8) (size 9 to 14) (size 15 to 20)
#    0.286    1.429    4.286    1.286    0.000    4.000 
#    0.000    0.000    0.000    1.143    0.000    0.000 
#    0.000    0.000    0.000    0.000    0.000    0.000 
#
# Total GULP energy -468531.185406 kJ/mol
# GULP energy per Si atom -5577.752207 kJ/mol
# Density = 2.388236 g / cm^3
# Si number density = 23.936844 Si / 1000 Ang^3
#
#
#
# Elastic Constant Matrix: (Units=GPa)
#
#
# Indices 1 2 3 4 5 6 
#
# 1 77.8788 17.0129 12.4749 0.0000 0.0000 0.0000
# 2 17.0129 77.8788 12.4749 0.0000 0.0000 0.0000
# 3 12.4749 12.4749 73.0684 0.0000 0.0000 0.0000
# 4 0.0000 0.0000 0.0000 20.0343 0.0000 0.0000
# 5 0.0000 0.0000 0.0000 0.0000 20.0343 0.0000
# 6 0.0000 0.0000 0.0000 0.0000 0.0000 30.4330
#
#
#
# Elastic Compliance Matrix: (Units=1/GPa)
#
#
# Indices 1 2 3 4 5 6 
#
# 1 0.013732 -0.002698 -0.001884 0.000000 0.000000 0.000000
# 2 -0.002698 0.013732 -0.001884 0.000000 0.000000 0.000000
# 3 -0.001884 -0.001884 0.014329 0.000000 0.000000 0.000000
# 4 0.000000 0.000000 0.000000 0.049914 0.000000 0.000000
# 5 0.000000 0.000000 0.000000 0.000000 0.049914 0.000000
# 6 0.000000 0.000000 0.000000 0.000000 0.000000 0.032859
#
#
# Mechanical properties :
#
#
# Convention : Reuss Voigt Hill
#
# Bulk Modulus (GPa) = 34.64857 34.75018 34.69937
# Shear Modulus (GPa) = 25.37664 26.55786 25.96725
#
# Velocity S-wave (km/s) = 3.25953 3.33452 3.29724
# Velocity P-wave (km/s) = 5.35466 5.41981 5.38734
#
# Compressibility (1/GPa) = 0.02886122
#
# Stress axis : x y z
#
# Youngs Moduli (GPa) = 72.82479 72.82479 69.78835
#
# Poissons Ratio (x) = 0.19648 0.13146
# Poissons Ratio (y) = 0.19648 0.13146
# Poissons Ratio (z) = 0.13718 0.13718
#
# Static dielectric constant tensor:
#      x y z
#    x 1.923840 0.000000 0.000000 
#    y 0.000000 1.923840 0.000000 
#    z 0.000000 0.000000 1.940000 
# 
# From -- ./inp_files/2917.got.cif
#   From: 2010.05.17/outbox.cif.g08.bks.cpg/sg176_2_cif.got.tgz:2917.got - 2010.06.03 11:36:45.
