data_PCOD9581131
_publ_section_title
;
Structure prediction by ZEFSAII (Michael W. Deem and Ramdas Pophale) SiO2 
 PCOD9581131
Probable space group: P -6
;
_chemical_formula_sum "Si O2"
_cell_formula_units_Z 32
_cell_length_a 17.115353
_cell_length_b 17.115353
_cell_length_c 7.678729
_cell_angle_alpha 90.000000
_cell_angle_beta 90.000000
_cell_angle_gamma 120.000000
_cell_volume 1948.012296
_symmetry_space_group_name_H-M "P -6"
_symmetry_group_IT_number 174
_symmetry_cell_setting 'hexagonal'
loop_
_space_group_symop_operation_xyz
x,y,z
-x+y,-x,-z
-y,x-y,z
x,y,-z
-x+y,-x,z
-y,x-y,-z
loop_
_atom_site_type_symbol
_atom_site_label
_atom_site_fract_x
_atom_site_fract_y
_atom_site_fract_z
Si Si1 0.720733 0.620648 0.790809
Si Si2 0.561175 0.438827 0.794629
Si Si3 0.000974 0.822831 0.709507
Si Si4 0.666668 0.333335 0.291052
Si Si5 0.720739 0.100095 0.790809
Si Si6 0.000980 0.178145 0.290493
O O1 0.627162 0.538642 0.721942
O O2 0.805938 0.611885 0.724641
O O3 0.744153 0.721904 0.752568
O O4 0.899648 0.449825 0.000000
O O5 0.615375 0.384640 0.774635
O O6 0.461362 0.372831 0.721940
O O7 0.719906 0.611321 0.000000
O O8 0.001304 0.829220 0.500000
O O9 0.977743 0.721900 0.752570
O O10 0.916240 0.832484 0.773897
O O11 0.095589 0.904406 0.774157
O O12 0.666667 0.333334 0.500000
O O13 0.719913 0.108597 0.000000
O O14 0.001310 0.172085 0.500000
#
# Coordination Sequence:
#
# PCOD9581131 Si02
#       6
#     6   6   6   2   6   6
#     4   9  17  28  44  62  82 112 147 178 209 247
#     4  10  18  32  46  58  86 124 150 172 214 261
#     4   9  17  29  44  61  85 115 144 174 212 255
#     4  12  22  26  40  66  88 116 154 186 208 239
#     4   9  17  28  44  62  82 112 147 178 209 247
#     4   9  17  29  44  61  85 115 144 174 212 255
#
# _framework density 16.427001000000001
#
# number of rings (size 3 to 8) (size 9 to 14) (size 15 to 20)
#    0.000    2.625    1.875    0.938    0.000    3.750 
#    0.000    0.000    0.000    2.250    0.000    0.000 
#    1.875    0.000    1.125    0.000    1.500    0.000 
#
# Total GULP energy -178353.622904 kJ/mol
# GULP energy per Si atom -5573.550716 kJ/mol
# Density = 1.638961 g / cm^3
# Si number density = 16.427001 Si / 1000 Ang^3
#
#
#
# Elastic Constant Matrix: (Units=GPa)
#
#
# Indices 1 2 3 4 5 6 
#
# 1 129.8713 85.7742 0.1679 0.0000 0.0000 -0.0009
# 2 85.7742 129.8725 0.1667 0.0000 0.0000 0.0006
# 3 0.1679 0.1667 28.4628 0.0000 0.0000 0.0002
# 4 0.0000 0.0000 0.0000 26.1675 -0.0002 0.0000
# 5 0.0000 0.0000 0.0000 -0.0002 26.1665 0.0000
# 6 -0.0009 0.0006 0.0002 0.0000 0.0000 22.0448
#
#
#
# Elastic Compliance Matrix: (Units=1/GPa)
#
#
# Indices 1 2 3 4 5 6 
#
# 1 0.013657 -0.009020 -0.000028 0.000000 0.000000 0.000001
# 2 -0.009020 0.013657 -0.000027 0.000000 0.000000 -0.000001
# 3 -0.000028 -0.000027 0.035134 0.000000 0.000000 0.000000
# 4 0.000000 0.000000 0.000000 0.038215 0.000000 0.000000
# 5 0.000000 0.000000 0.000000 0.000000 0.038217 0.000000
# 6 0.000001 -0.000001 0.000000 0.000000 0.000000 0.045362
#
#
# Mechanical properties :
#
#
# Convention : Reuss Voigt Hill
#
# Bulk Modulus (GPa) = 22.57366 51.15824 36.86595
# Shear Modulus (GPa) = 23.02476 28.34896 25.68686
#
# Velocity S-wave (km/s) = 3.74791 4.15873 3.95865
# Velocity P-wave (km/s) = 5.70094 7.36684 6.58677
#
# Compressibility (1/GPa) = 0.04429942
#
# Stress axis : x y z
#
# Youngs Moduli (GPa) = 73.22164 73.22230 28.46254
#
# Poissons Ratio (x) = 0.66045 0.00079
# Poissons Ratio (y) = 0.66045 0.00076
# Poissons Ratio (z) = 0.00203 0.00196
#
# Static dielectric constant tensor:
#      x y z
#    x 1.557480 0.000000 0.000000 
#    y 0.000000 1.557480 0.000000 
#    z 0.000000 0.000000 1.608270 
# 
# From -- ./inp_files/344.got.cif
#   From: 2010.05.17/outbox.cif.g08.bks.cpg/sg174_cif.got.tgz:344.got - 2010.05.20 11:22:48.
