data_PCOD9581739
_publ_section_title
;
Structure prediction by ZEFSAII (Michael W. Deem and Ramdas Pophale) SiO2 
 PCOD9581739
Probable space group: P 63/M
;
_chemical_formula_sum "Si O2"
_cell_formula_units_Z 66
_cell_length_a 13.749150
_cell_length_b 13.749150
_cell_length_c 24.181026
_cell_angle_alpha 90.000000
_cell_angle_beta 90.000000
_cell_angle_gamma 120.000000
_cell_volume 3958.740697
_symmetry_space_group_name_H-M "P 63/M"
_symmetry_group_IT_number 176
_symmetry_cell_setting 'hexagonal'
loop_
_space_group_symop_operation_xyz
x,y,z
x-y,x,1/2+z
-y,x-y,z
-x,-y,1/2+z
-x+y,-x,z
y,-x+y,1/2+z
-x,-y,-z
-x+y,-x,1/2-z
y,-x+y,-z
x,y,1/2-z
x-y,x,-z
-y,x-y,1/2-z
loop_
_atom_site_type_symbol
_atom_site_label
_atom_site_fract_x
_atom_site_fract_y
_atom_site_fract_z
Si Si1 0.666667 0.333334 0.432711
Si Si2 0.674865 0.660709 0.520691
Si Si3 0.855918 0.738676 0.076466
Si Si4 0.333334 0.666668 0.068109
Si Si5 0.000000 0.000000 0.567156
Si Si6 0.577394 0.095668 0.564512
Si Si7 0.803563 0.355909 0.250000
Si Si8 0.464355 0.120030 0.370598
O O1 0.666668 0.333334 0.499808
O O2 0.556423 0.225415 0.407141
O O3 0.705855 0.754377 0.566743
O O4 0.781016 0.705689 0.479889
O O5 0.627536 0.535296 0.542780
O O6 0.567486 0.643606 0.485333
O O7 0.915301 0.871937 0.085309
O O8 0.766814 0.656364 0.121031
O O9 0.436573 0.654170 0.088489
O O10 0.000000 0.000000 0.500000
O O11 0.542702 0.991226 0.604401
O O12 0.761538 0.446579 0.250000
O O13 0.863769 0.363368 0.307082
#
# Coordination Sequence:
#
# PCOD9581739 Si02
#       8
#     4  12  12   4   4  12   6  12
#     4  12  18  34  58  87 121 142 171 222 295 356
#     4  10  17  29  44  75 105 149 183 220 270 330
#     4  11  20  31  53  75 116 152 191 227 271 328
#     4  12  21  33  46  74 121 162 186 201 244 344
#     4  12  21  36  48  79 113 169 204 225 249 319
#     4  10  21  30  47  75 113 150 186 221 270 333
#     4  10  20  38  64  86 108 130 172 242 298 348
#     4  11  21  35  57  86 110 140 179 240 298 332
#
# _framework density 16.671968
#
# number of rings (size 3 to 8) (size 9 to 14) (size 15 to 20)
#    0.182    1.091    3.636    6.545    0.000    1.455 
#    0.000    0.000    0.000    2.182    0.000    0.000 
#    0.000    0.000    0.000    0.000    0.000    0.000 
#
# Total GULP energy -368251.513821 kJ/mol
# GULP energy per Si atom -5579.568391 kJ/mol
# Density = 1.663402 g / cm^3
# Si number density = 16.671968 Si / 1000 Ang^3
#
#
#
# Elastic Constant Matrix: (Units=GPa)
#
#
# Indices 1 2 3 4 5 6 
#
# 1 87.8191 40.7755 18.0071 0.0000 0.0000 -0.0004
# 2 40.7755 87.8184 18.0074 0.0000 0.0000 -0.0004
# 3 18.0071 18.0074 53.7233 0.0000 0.0000 0.0002
# 4 0.0000 0.0000 0.0000 10.6202 0.0001 0.0000
# 5 0.0000 0.0000 0.0000 0.0001 10.6206 0.0000
# 6 -0.0004 -0.0004 0.0002 0.0000 0.0000 23.5215
#
#
#
# Elastic Compliance Matrix: (Units=1/GPa)
#
#
# Indices 1 2 3 4 5 6 
#
# 1 0.014919 -0.006337 -0.002876 0.000000 0.000000 0.000000
# 2 -0.006337 0.014920 -0.002877 0.000000 0.000000 0.000000
# 3 -0.002876 -0.002877 0.020542 0.000000 0.000000 0.000000
# 4 0.000000 0.000000 0.000000 0.094160 0.000000 0.000000
# 5 0.000000 0.000000 0.000000 0.000000 0.094157 0.000000
# 6 0.000000 0.000000 0.000000 0.000000 0.000000 0.042514
#
#
# Mechanical properties :
#
#
# Convention : Reuss Voigt Hill
#
# Bulk Modulus (GPa) = 38.16787 42.54897 40.35842
# Shear Modulus (GPa) = 15.91714 19.12386 17.52050
#
# Velocity S-wave (km/s) = 3.09321 3.39051 3.24527
# Velocity P-wave (km/s) = 5.97498 6.39563 6.18888
#
# Compressibility (1/GPa) = 0.02620005
#
# Stress axis : x y z
#
# Youngs Moduli (GPa) = 67.02663 67.02596 48.68011
#
# Poissons Ratio (x) = 0.42478 0.14003
# Poissons Ratio (y) = 0.42478 0.14004
# Poissons Ratio (z) = 0.19280 0.19281
#
# Static dielectric constant tensor:
#      x y z
#    x 1.586210 0.000000 0.000000 
#    y 0.000000 1.586210 0.000000 
#    z 0.000000 0.000000 1.524540 
# 
# From -- ./inp_files/4071.got.cif
#   From: 2010.05.17/outbox.cif.g08.bks.cpg/sg176_3_cif.got.tgz:4071.got - 2010.06.03 11:36:45.
