data_PCOD9581889
_publ_section_title
;
Structure prediction by ZEFSAII (Michael W. Deem and Ramdas Pophale) SiO2 
 PCOD9581889
Probable space group: P 63/M
;
_chemical_formula_sum "Si O2"
_cell_formula_units_Z 64
_cell_length_a 16.373372
_cell_length_b 16.373372
_cell_length_c 18.046052
_cell_angle_alpha 90.000000
_cell_angle_beta 90.000000
_cell_angle_gamma 120.000000
_cell_volume 4189.759498
_symmetry_space_group_name_H-M "P 63/M"
_symmetry_group_IT_number 176
_symmetry_cell_setting 'hexagonal'
loop_
_space_group_symop_operation_xyz
x,y,z
x-y,x,1/2+z
-y,x-y,z
-x,-y,1/2+z
-x+y,-x,z
y,-x+y,1/2+z
-x,-y,-z
-x+y,-x,1/2-z
y,-x+y,-z
x,y,1/2-z
x-y,x,-z
-y,x-y,1/2-z
loop_
_atom_site_type_symbol
_atom_site_label
_atom_site_fract_x
_atom_site_fract_y
_atom_site_fract_z
Si Si1 0.959382 0.375625 0.564728
Si Si2 0.464584 0.244187 0.915900
Si Si3 0.025290 0.429503 0.101463
Si Si4 0.666667 0.333333 0.660967
Si Si5 0.308996 0.825093 0.586490
Si Si6 0.166546 0.649054 0.832993
O O1 0.869166 0.277082 0.586047
O O2 0.939568 0.459533 0.589154
O O3 0.973648 0.382077 0.476038
O O4 0.064048 0.407307 0.594549
O O5 0.415890 0.301884 0.885405
O O6 0.718897 0.438789 0.871569
O O7 0.485574 0.278320 0.001956
O O8 0.944430 0.389002 0.162165
O O9 0.666667 0.333334 0.750000
O O10 0.398388 0.814751 0.610588
O O11 0.225245 0.755764 0.639657
O O12 0.193510 0.638382 0.750000
#
# Coordination Sequence:
#
# PCOD9581889 Si02
#       6
#    12  12  12   4  12  12
#     4   9  17  31  49  73  88 120 164 204 231 275
#     4  11  18  35  53  63  98 126 166 207 231 282
#     4   9  18  30  47  71  91 123 162 193 240 281
#     4  12  24  30  42  69  91 131 169 192 240 279
#     4  10  20  32  52  72  94 128 171 191 246 285
#     4  11  20  32  47  72 105 130 159 199 243 289
#
# _framework density 15.27534
#
# number of rings (size 3 to 8) (size 9 to 14) (size 15 to 20)
#    0.000    1.875    3.750    3.188    0.000    0.750 
#    0.000    0.938    0.000    0.000    0.000    0.000 
#    1.875    3.375    0.000    0.000    0.000    0.000 
#
# Total GULP energy -356751.960037 kJ/mol
# GULP energy per Si atom -5574.249376 kJ/mol
# Density = 1.524057 g / cm^3
# Si number density = 15.275340 Si / 1000 Ang^3
#
#
#
# Elastic Constant Matrix: (Units=GPa)
#
#
# Indices 1 2 3 4 5 6 
#
# 1 82.3428 37.9098 23.0574 0.0000 0.0000 0.0000
# 2 37.9098 82.3428 23.0572 0.0000 0.0000 -0.0001
# 3 23.0574 23.0572 41.0719 0.0000 0.0000 -0.0001
# 4 0.0000 0.0000 0.0000 2.4688 -0.0001 0.0000
# 5 0.0000 0.0000 0.0000 -0.0001 2.4688 0.0000
# 6 0.0000 -0.0001 -0.0001 0.0000 0.0000 22.2167
#
#
#
# Elastic Compliance Matrix: (Units=1/GPa)
#
#
# Indices 1 2 3 4 5 6 
#
# 1 0.016552 -0.005954 -0.005949 0.000000 0.000000 0.000000
# 2 -0.005954 0.016552 -0.005949 0.000000 0.000000 0.000000
# 3 -0.005949 -0.005949 0.031027 0.000000 0.000000 0.000000
# 4 0.000000 0.000000 0.000000 0.405061 0.000011 0.000000
# 5 0.000000 0.000000 0.000000 0.000011 0.405057 0.000000
# 6 0.000000 0.000000 0.000000 0.000000 0.000000 0.045011
#
#
# Mechanical properties :
#
#
# Convention : Reuss Voigt Hill
#
# Bulk Modulus (GPa) = 35.18039 41.53405 38.35722
# Shear Modulus (GPa) = 5.18436 13.54638 9.36537
#
# Velocity S-wave (km/s) = 1.84426 2.98117 2.47878
# Velocity P-wave (km/s) = 5.25508 6.25293 5.77560
#
# Compressibility (1/GPa) = 0.02842493
#
# Stress axis : x y z
#
# Youngs Moduli (GPa) = 60.41739 60.41748 32.22983
#
# Poissons Ratio (x) = 0.35974 0.19174
# Poissons Ratio (y) = 0.35974 0.19174
# Poissons Ratio (z) = 0.35944 0.35943
#
# Static dielectric constant tensor:
#      x y z
#    x 1.517140 0.000000 0.000000 
#    y 0.000000 1.517140 0.000000 
#    z 0.000000 0.000000 1.517210 
# 
# From -- ./inp_files/3309.got.cif
#   From: 2010.05.17/outbox.cif.g08.bks.cpg/sg176_2_cif.got.tgz:3309.got - 2010.06.03 11:36:45.
