data_PCOD9581095
_publ_section_title
;
Structure prediction by ZEFSAII (Michael W. Deem and Ramdas Pophale) SiO2 
 PCOD9581095
Probable space group: P 63
;
_chemical_formula_sum "Si O2"
_cell_formula_units_Z 42
_cell_length_a 11.566541
_cell_length_b 11.566541
_cell_length_c 17.912241
_cell_angle_alpha 90.000000
_cell_angle_beta 90.000000
_cell_angle_gamma 120.000000
_cell_volume 2075.331886
_symmetry_space_group_name_H-M "P 63"
_symmetry_group_IT_number 173
_symmetry_cell_setting 'hexagonal'
loop_
_space_group_symop_operation_xyz
x,y,z
x-y,x,1/2+z
-y,x-y,z
-x,-y,1/2+z
-x+y,-x,z
y,-x+y,1/2+z
loop_
_atom_site_type_symbol
_atom_site_label
_atom_site_fract_x
_atom_site_fract_y
_atom_site_fract_z
Si Si1 0.384500 0.088708 0.051530
Si Si2 0.660087 0.482704 0.635536
Si Si3 0.024610 0.283217 0.370301
Si Si4 0.615500 0.911292 0.719542
Si Si5 0.975390 0.716783 0.400770
Si Si6 0.374674 0.948399 0.517142
Si Si7 0.374674 0.948399 0.753929
O O1 0.343348 0.042285 0.135536
O O2 0.379699 0.224448 0.042267
O O3 0.533301 0.115160 0.036713
O O4 0.299857 0.985870 0.986737
O O5 0.540813 0.326931 0.635536
O O6 0.645421 0.559064 0.563955
O O7 0.645421 0.559064 0.707116
O O8 0.014130 0.313987 0.284334
O O9 0.149095 0.261799 0.382258
O O10 0.033106 0.392688 0.429263
O O11 0.887295 0.149095 0.388814
O O12 0.466699 0.884841 0.734358
O O13 0.620300 0.775552 0.728805
O O14 0.966895 0.607313 0.341808
#
# Coordination Sequence:
#
# PCOD9581095 Si02
#       7
#     6   6   6   6   6   6   6
#     4  11  21  39  65  91 124 165 218 274 320 384
#     4  10  24  38  62  96 136 168 202 270 322 388
#     4  10  24  41  63  88 127 170 215 268 329 395
#     4  11  21  39  65  91 124 165 218 274 320 384
#     4  10  24  41  63  88 127 170 215 268 329 395
#     4  11  22  41  64  95 128 172 218 266 333 379
#     4  11  22  41  64  95 128 172 218 266 333 379
#
# _framework density 20.237725999999999
#
# number of rings (size 3 to 8) (size 9 to 14) (size 15 to 20)
#    0.286    1.143    2.857    1.714    4.000    0.000 
#    0.000    0.000    0.000    0.000    0.000    0.000 
#    0.000    0.000    0.000    0.000    0.000    0.000 
#
# Total GULP energy -234450.979805 kJ/mol
# GULP energy per Si atom -5582.166186 kJ/mol
# Density = 2.019166 g / cm^3
# Si number density = 20.237726 Si / 1000 Ang^3
#
#
#
# Elastic Constant Matrix: (Units=GPa)
#
#
# Indices 1 2 3 4 5 6 
#
# 1 -52.7836 109.0712 46.8202 0.0000 0.0000 0.0000
# 2 109.0712 -52.7836 46.8202 0.0000 0.0000 0.0000
# 3 46.8202 46.8202 200.8584 0.0000 0.0000 0.0000
# 4 0.0000 0.0000 0.0000 -45.1555 0.0000 0.0000
# 5 0.0000 0.0000 0.0000 0.0000 -45.1555 0.0000
# 6 0.0000 0.0000 0.0000 0.0000 0.0000 -80.9274
#
#
#
# Elastic Compliance Matrix: (Units=1/GPa)
#
#
# Indices 1 2 3 4 5 6 
#
# 1 0.011420 0.017599 -0.006764 0.000000 0.000000 0.000000
# 2 0.017599 0.011420 -0.006764 0.000000 0.000000 0.000000
# 3 -0.006764 -0.006764 0.008132 0.000000 0.000000 0.000000
# 4 0.000000 0.000000 0.000000 -0.022146 0.000000 0.000000
# 5 0.000000 0.000000 0.000000 0.000000 -0.022146 0.000000
# 6 0.000000 0.000000 0.000000 0.000000 0.000000 -0.012357
#
#
# Mechanical properties :
#
#
# Convention : Reuss Voigt Hill
#
# Bulk Modulus (GPa) = 25.56699 55.63494 40.60096
# Shear Modulus (GPa) = -240.64407 -41.40905 -141.02656
#
# Velocity S-wave (km/s) = -10.91635 -4.52833 -8.35681
# Velocity P-wave (km/s) = 12.09249 0.45760 8.54456
#
# Compressibility (1/GPa) = 0.03911293
#
# Stress axis : x y z
#
# Youngs Moduli (GPa) = 87.56288 87.56288 122.96821
#
# Poissons Ratio (x) = -1.54100 0.83180
# Poissons Ratio (y) = -1.54100 0.83180
# Poissons Ratio (z) = 0.59231 0.59231
#
# Static dielectric constant tensor:
#      x y z
#    x 1.702640 0.000000 0.000000 
#    y 0.000000 1.702640 0.000000 
#    z 0.000000 0.000000 1.736360 
# 
# From -- ./inp_files/1292.got.cif
#   From: 2010.05.17/outbox.cif.g08.bks.cpg/sg173_cif.got.tgz:1292.got - 2010.05.20 11:21:53.
