data_PCOD9581923
_publ_section_title
;
Structure prediction by ZEFSAII (Michael W. Deem and Ramdas Pophale) SiO2 
 PCOD9581923
Probable space group: P 63/M
;
_chemical_formula_sum "Si O2"
_cell_formula_units_Z 84
_cell_length_a 18.021841
_cell_length_b 18.021841
_cell_length_c 14.843360
_cell_angle_alpha 90.000000
_cell_angle_beta 90.000000
_cell_angle_gamma 120.000000
_cell_volume 4175.044991
_symmetry_space_group_name_H-M "P 63/M"
_symmetry_group_IT_number 176
_symmetry_cell_setting 'hexagonal'
loop_
_space_group_symop_operation_xyz
x,y,z
x-y,x,1/2+z
-y,x-y,z
-x,-y,1/2+z
-x+y,-x,z
y,-x+y,1/2+z
-x,-y,-z
-x+y,-x,1/2-z
y,-x+y,-z
x,y,1/2-z
x-y,x,-z
-y,x-y,1/2-z
loop_
_atom_site_type_symbol
_atom_site_label
_atom_site_fract_x
_atom_site_fract_y
_atom_site_fract_z
Si Si1 0.275392 0.419174 0.350468
Si Si2 0.467752 0.899472 0.014448
Si Si3 0.566501 0.908212 0.643618
Si Si4 0.030035 0.908917 0.250000
Si Si5 0.705863 0.875966 0.577934
Si Si6 0.115065 0.443960 0.143941
Si Si7 0.024758 0.837623 0.750000
Si Si8 0.233368 0.016360 0.900244
O O1 0.302047 0.456964 0.250000
O O2 0.350443 0.471782 0.422208
O O3 0.183700 0.412544 0.370822
O O4 0.258569 0.323174 0.350841
O O5 0.380383 0.862621 0.070357
O O6 0.479435 0.876453 0.912411
O O7 0.500000 0.000000 0.000000
O O8 0.554896 0.891696 0.750000
O O9 0.613525 0.863400 0.595323
O O10 0.633174 0.011983 0.633112
O O11 0.006370 0.852934 0.341868
O O12 0.929364 0.909398 0.250000
O O13 0.134713 0.924655 0.250000
O O14 0.758808 0.932264 0.663891
O O15 0.752822 0.930118 0.490301
O O16 0.710608 0.790335 0.576635
O O17 0.124176 0.471106 0.250000
#
# Coordination Sequence:
#
# PCOD9581923 Si02
#       8
#    12  12  12   6  12  12   6  12
#     4  11  22  37  63  92 121 156 195 255 313 368
#     4  10  21  40  62  89 124 160 195 243 305 371
#     4  10  20  35  60  88 121 166 209 250 298 360
#     4  10  21  36  50  76 109 155 211 263 317 359
#     4  11  22  34  53  82 118 163 208 261 302 364
#     4   9  21  38  62  94 122 153 197 248 315 378
#     4  10  21  34  52  70 109 159 209 267 311 363
#     4  11  23  35  55  86 119 157 209 256 308 354
#
# _framework density 20.119543
#
# number of rings (size 3 to 8) (size 9 to 14) (size 15 to 20)
#    0.000    1.714    2.857    1.429    4.000    0.571 
#    0.857    0.000    0.000    5.429    0.000    0.000 
#    0.000    0.000    0.000    0.000    0.000    0.000 
#
# Total GULP energy -467611.697815 kJ/mol
# GULP energy per Si atom -5566.805926 kJ/mol
# Density = 2.007375 g / cm^3
# Si number density = 20.119543 Si / 1000 Ang^3
#
#
#
# Elastic Constant Matrix: (Units=GPa)
#
#
# Indices 1 2 3 4 5 6 
#
# 1 73.6488 21.2363 34.8815 0.0000 0.0000 0.0000
# 2 21.2363 73.6488 34.8815 0.0000 0.0000 0.0000
# 3 34.8815 34.8815 126.7279 0.0000 0.0000 0.0000
# 4 0.0000 0.0000 0.0000 48.5366 0.0000 0.0000
# 5 0.0000 0.0000 0.0000 0.0000 48.5366 0.0000
# 6 0.0000 0.0000 0.0000 0.0000 0.0000 26.2063
#
#
#
# Elastic Compliance Matrix: (Units=1/GPa)
#
#
# Indices 1 2 3 4 5 6 
#
# 1 0.016146 -0.002933 -0.003637 0.000000 0.000000 0.000000
# 2 -0.002933 0.016146 -0.003637 0.000000 0.000000 0.000000
# 3 -0.003637 -0.003637 0.009893 0.000000 0.000000 0.000000
# 4 0.000000 0.000000 0.000000 0.020603 0.000000 0.000000
# 5 0.000000 0.000000 0.000000 0.000000 0.020603 0.000000
# 6 0.000000 0.000000 0.000000 0.000000 0.000000 0.038159
#
#
# Mechanical properties :
#
#
# Convention : Reuss Voigt Hill
#
# Bulk Modulus (GPa) = 45.93135 50.66935 48.30035
# Shear Modulus (GPa) = 33.50729 36.85765 35.18247
#
# Velocity S-wave (km/s) = 4.08537 4.28475 4.18625
# Velocity P-wave (km/s) = 6.71807 7.05107 6.88658
#
# Compressibility (1/GPa) = 0.02177162
#
# Stress axis : x y z
#
# Youngs Moduli (GPa) = 61.93402 61.93402 101.08163
#
# Poissons Ratio (x) = 0.18166 0.36762
# Poissons Ratio (y) = 0.18166 0.36762
# Poissons Ratio (z) = 0.22524 0.22524
#
# Static dielectric constant tensor:
#      x y z
#    x 1.757360 0.000000 0.000000 
#    y 0.000000 1.757360 0.000000 
#    z 0.000000 0.000000 1.744210 
# 
# From -- ./inp_files/2951.got.cif
#   From: 2010.05.17/outbox.cif.g08.bks.cpg/sg176_2_cif.got.tgz:2951.got - 2010.06.03 11:36:45.
