data_PCOD9581146
_publ_section_title
;
Structure prediction by ZEFSAII (Michael W. Deem and Ramdas Pophale) SiO2 
 PCOD9581146
Probable space group: P -6
;
_chemical_formula_sum "Si O2"
_cell_formula_units_Z 28
_cell_length_a 14.237570
_cell_length_b 14.237570
_cell_length_c 8.000266
_cell_angle_alpha 90.000000
_cell_angle_beta 90.000000
_cell_angle_gamma 120.000000
_cell_volume 1404.451685
_symmetry_space_group_name_H-M "P -6"
_symmetry_group_IT_number 174
_symmetry_cell_setting 'hexagonal'
loop_
_space_group_symop_operation_xyz
x,y,z
-x+y,-x,-z
-y,x-y,z
x,y,-z
-x+y,-x,z
-y,x-y,-z
loop_
_atom_site_type_symbol
_atom_site_label
_atom_site_fract_x
_atom_site_fract_y
_atom_site_fract_z
Si Si1 0.333334 0.666667 0.795448
Si Si2 0.795601 0.228119 0.307433
Si Si3 0.909340 0.466403 0.193548
Si Si4 0.544267 0.662274 0.795507
Si Si5 0.788495 0.786138 0.798512
Si Si6 0.000000 0.000000 0.794737
O O1 0.449259 0.683981 0.741507
O O2 0.333334 0.666668 0.000000
O O3 0.817278 0.260696 0.500000
O O4 0.825552 0.337605 0.207460
O O5 0.671021 0.138894 0.284359
O O6 0.878623 0.189415 0.249629
O O7 0.023041 0.480516 0.256269
O O8 0.923277 0.499081 0.000000
O O9 0.666253 0.747895 0.739840
O O10 0.545758 0.662463 0.000000
O O11 0.884449 0.901223 0.739014
O O12 0.786952 0.790310 0.000000
O O13 0.000000 0.000000 0.000000
#
# Coordination Sequence:
#
# PCOD9581146 Si02
#       6
#     2   6   6   6   6   2
#     4   9  15  27  48  78 106 131 163 207 256 308
#     4  11  21  33  50  76 107 141 176 217 267 325
#     4  10  19  33  51  74 104 140 177 218 261 309
#     4   8  16  28  46  72 104 132 162 205 257 306
#     4   9  18  34  52  76 105 137 176 223 270 314
#     4   9  18  33  58  80 100 135 184 230 265 312
#
# _framework density 19.936606000000001
#
# number of rings (size 3 to 8) (size 9 to 14) (size 15 to 20)
#    0.000    2.571    0.000    4.286    0.000    1.714 
#    0.000    7.500    0.000    0.000    0.000   21.000 
#    0.000    0.000    0.000    0.000    0.000    0.000 
#
# Total GULP energy -156240.454635 kJ/mol
# GULP energy per Si atom -5580.016237 kJ/mol
# Density = 1.989123 g / cm^3
# Si number density = 19.936606 Si / 1000 Ang^3
#
#
#
# Elastic Constant Matrix: (Units=GPa)
#
#
# Indices 1 2 3 4 5 6 
#
# 1 132.3859 100.2236 0.5886 0.0000 0.0000 0.0002
# 2 100.2236 132.3851 0.5886 0.0000 0.0000 0.0002
# 3 0.5886 0.5886 20.9430 0.0000 0.0000 0.0000
# 4 0.0000 0.0000 0.0000 -9.5571 0.0001 0.0000
# 5 0.0000 0.0000 0.0000 0.0001 -9.5572 0.0000
# 6 0.0002 0.0002 0.0000 0.0000 0.0000 16.0807
#
#
#
# Elastic Compliance Matrix: (Units=1/GPa)
#
#
# Indices 1 2 3 4 5 6 
#
# 1 0.017696 -0.013397 -0.000121 0.000000 0.000000 0.000000
# 2 -0.013397 0.017696 -0.000121 0.000000 0.000000 0.000000
# 3 -0.000121 -0.000121 0.047755 0.000000 0.000000 0.000000
# 4 0.000000 0.000000 0.000000 -0.104634 -0.000001 0.000000
# 5 0.000000 0.000000 0.000000 -0.000001 -0.104634 0.000000
# 6 0.000000 0.000000 0.000000 0.000000 0.000000 0.062186
#
#
# Mechanical properties :
#
#
# Convention : Reuss Voigt Hill
#
# Bulk Modulus (GPa) = 17.89825 54.27950 36.08887
# Shear Modulus (GPa) = -277.26655 11.68083 -132.79286
#
# Velocity S-wave (km/s) = -11.80576 2.42316 -8.17020
# Velocity P-wave (km/s) = 13.29803 5.92571 8.41794
#
# Compressibility (1/GPa) = 0.05587140
#
# Stress axis : x y z
#
# Youngs Moduli (GPa) = 56.50953 56.50918 20.94004
#
# Poissons Ratio (x) = 0.75703 0.00253
# Poissons Ratio (y) = 0.75703 0.00253
# Poissons Ratio (z) = 0.00683 0.00683
#
# Static dielectric constant tensor:
#      x y z
#    x 1.689160 0.000000 0.000000 
#    y 0.000000 1.689160 0.000000 
#    z 0.000000 0.000000 1.682740 
# 
# From -- ./inp_files/288.got.cif
#   From: 2010.05.17/outbox.cif.g08.bks.cpg/sg174_cif.got.tgz:288.got - 2010.05.20 11:22:48.
