data_PCOD9581664
_publ_section_title
;
Structure prediction by ZEFSAII (Michael W. Deem and Ramdas Pophale) SiO2 
 PCOD9581664
Probable space group: P 6/M
;
_chemical_formula_sum "Si O2"
_cell_formula_units_Z 42
_cell_length_a 10.979470
_cell_length_b 10.979470
_cell_length_c 18.530804
_cell_angle_alpha 90.000000
_cell_angle_beta 90.000000
_cell_angle_gamma 120.000000
_cell_volume 1934.584247
_symmetry_space_group_name_H-M "P 6/M"
_symmetry_group_IT_number 175
_symmetry_cell_setting 'hexagonal'
loop_
_space_group_symop_operation_xyz
x,y,z
x-y,x,z
-y,x-y,z
-x,-y,z
-x+y,-x,z
y,-x+y,z
-x,-y,-z
-x+y,-x,-z
y,-x+y,-z
x,y,-z
x-y,x,-z
-y,x-y,-z
loop_
_atom_site_type_symbol
_atom_site_label
_atom_site_fract_x
_atom_site_fract_y
_atom_site_fract_z
Si Si1 0.668618 0.174591 0.360316
Si Si2 0.072462 0.319124 0.778068
Si Si3 0.502015 0.683998 0.918969
Si Si4 0.680523 0.748722 0.500000
O O1 0.798797 0.336059 0.362384
O O2 0.676418 0.104890 0.286530
O O3 0.681156 0.096178 0.429523
O O4 0.187610 0.270051 0.772113
O O5 0.097797 0.397403 0.854410
O O6 0.455894 0.803849 0.912946
O O7 0.556225 0.689841 0.000000
O O8 0.814766 0.728338 0.500000
#
# Coordination Sequence:
#
# PCOD9581664 Si02
#       4
#    12  12  12   6
#     4  10  24  44  64  98 118 152 205 261 315 347
#     4  12  25  40  60  87 125 167 203 244 297 368
#     4   8  18  39  63  93 119 148 200 258 314 356
#     4  12  25  42  66  94 131 170 200 236 288 364
#
# _framework density 21.710090000000001
#
# number of rings (size 3 to 8) (size 9 to 14) (size 15 to 20)
#    1.143    0.571    0.000    4.714    0.000   10.286 
#    0.000    5.714    0.000    1.714    0.000    0.000 
#    0.000    0.000    0.000    0.000    0.000    0.000 
#
# Total GULP energy -234961.668957 kJ/mol
# GULP energy per Si atom -5594.325451 kJ/mol
# Density = 2.166068 g / cm^3
# Si number density = 21.710090 Si / 1000 Ang^3
#
#
#
# Elastic Constant Matrix: (Units=GPa)
#
#
# Indices 1 2 3 4 5 6 
#
# 1 95.9792 21.8532 45.8974 0.0000 0.0000 0.0000
# 2 21.8532 95.9792 45.8974 0.0000 0.0000 0.0000
# 3 45.8974 45.8974 153.0984 0.0000 0.0000 0.0000
# 4 0.0000 0.0000 0.0000 4.8299 0.0000 0.0000
# 5 0.0000 0.0000 0.0000 0.0000 4.8299 0.0000
# 6 0.0000 0.0000 0.0000 0.0000 0.0000 37.0630
#
#
#
# Elastic Compliance Matrix: (Units=1/GPa)
#
#
# Indices 1 2 3 4 5 6 
#
# 1 0.012282 -0.001209 -0.003319 0.000000 0.000000 0.000000
# 2 -0.001209 0.012282 -0.003319 0.000000 0.000000 0.000000
# 3 -0.003319 -0.003319 0.008522 0.000000 0.000000 0.000000
# 4 0.000000 0.000000 0.000000 0.207045 0.000000 0.000000
# 5 0.000000 0.000000 0.000000 0.000000 0.207045 0.000000
# 6 0.000000 0.000000 0.000000 0.000000 0.000000 0.026981
#
#
# Mechanical properties :
#
#
# Convention : Reuss Voigt Hill
#
# Bulk Modulus (GPa) = 57.50639 63.59478 60.55059
# Shear Modulus (GPa) = 10.08778 24.77179 17.42978
#
# Velocity S-wave (km/s) = 2.15793 3.38157 2.83652
# Velocity P-wave (km/s) = 5.72317 6.67855 6.21923
#
# Compressibility (1/GPa) = 0.01738937
#
# Stress axis : x y z
#
# Youngs Moduli (GPa) = 81.42286 81.42286 117.34292
#
# Poissons Ratio (x) = 0.09844 0.38951
# Poissons Ratio (y) = 0.09844 0.38951
# Poissons Ratio (z) = 0.27028 0.27028
#
# Static dielectric constant tensor:
#      x y z
#    x 1.792850 0.000000 0.000000 
#    y 0.000000 1.792850 0.000000 
#    z 0.000000 0.000000 1.722060 
# 
# From -- ./inp_files/2749.got.cif
#   From: 2010.05.17/outbox.cif.g08.bks.cpg/sg175_2_cif.got.tgz:2749.got - 2010.05.20 11:23:22.
