data_PCOD9581762
_publ_section_title
;
Structure prediction by ZEFSAII (Michael W. Deem and Ramdas Pophale) SiO2 
 PCOD9581762
Probable space group: P 63/M
;
_chemical_formula_sum "Si O2"
_cell_formula_units_Z 34
_cell_length_a 8.478951
_cell_length_b 8.478951
_cell_length_c 29.076385
_cell_angle_alpha 90.000000
_cell_angle_beta 90.000000
_cell_angle_gamma 120.000000
_cell_volume 1810.319766
_symmetry_space_group_name_H-M "P 63/M"
_symmetry_group_IT_number 176
_symmetry_cell_setting 'hexagonal'
loop_
_space_group_symop_operation_xyz
x,y,z
x-y,x,1/2+z
-y,x-y,z
-x,-y,1/2+z
-x+y,-x,z
y,-x+y,1/2+z
-x,-y,-z
-x+y,-x,1/2-z
y,-x+y,-z
x,y,1/2-z
x-y,x,-z
-y,x-y,1/2-z
loop_
_atom_site_type_symbol
_atom_site_label
_atom_site_fract_x
_atom_site_fract_y
_atom_site_fract_z
Si Si1 0.372616 0.378473 0.847648
Si Si2 0.000000 0.000000 0.445488
Si Si3 0.701575 0.697021 0.617723
Si Si4 0.521888 0.425543 0.750000
O O1 0.496662 0.528764 0.885731
O O2 0.385106 0.198731 0.857337
O O3 0.446050 0.456514 0.797181
O O4 0.162632 0.317236 0.852381
O O5 0.010441 0.826612 0.424992
O O6 0.000000 0.000000 0.500000
O O7 0.471584 0.212792 0.750000
#
# Coordination Sequence:
#
# PCOD9581762 Si02
#       4
#    12   4  12   6
#     4  11  20  36  56  85 114 161 189 245 289 343
#     4   9  21  42  66  91 116 151 198 255 312 381
#     4  10  21  37  59  84 121 152 198 242 306 354
#     4  10  18  32  56  80 116 150 204 232 282 346
#
# _framework density 18.781210999999999
#
# number of rings (size 3 to 8) (size 9 to 14) (size 15 to 20)
#    0.353    1.412    3.529    2.118    0.000    2.824 
#    0.000    7.059    0.000    0.000    0.000    0.000 
#    0.000    0.000    0.000    0.000    0.000    0.000 
#
# Total GULP energy -189377.757876 kJ/mol
# GULP energy per Si atom -5569.934055 kJ/mol
# Density = 1.873846 g / cm^3
# Si number density = 18.781211 Si / 1000 Ang^3
#
#
#
# Elastic Constant Matrix: (Units=GPa)
#
#
# Indices 1 2 3 4 5 6 
#
# 1 71.7560 -5.5300 27.9757 0.0000 0.0000 0.0000
# 2 -5.5300 71.7560 27.9757 0.0000 0.0000 0.0000
# 3 27.9757 27.9757 121.6705 0.0000 0.0000 0.0000
# 4 0.0000 0.0000 0.0000 15.3355 0.0000 0.0000
# 5 0.0000 0.0000 0.0000 0.0000 15.3355 0.0000
# 6 0.0000 0.0000 0.0000 0.0000 0.0000 38.6430
#
#
#
# Elastic Compliance Matrix: (Units=1/GPa)
#
#
# Indices 1 2 3 4 5 6 
#
# 1 0.015840 0.002901 -0.004309 0.000000 0.000000 0.000000
# 2 0.002901 0.015840 -0.004309 0.000000 0.000000 0.000000
# 3 -0.004309 -0.004309 0.010200 0.000000 0.000000 0.000000
# 4 0.000000 0.000000 0.000000 0.065208 0.000000 0.000000
# 5 0.000000 0.000000 0.000000 0.000000 0.065208 0.000000
# 6 0.000000 0.000000 0.000000 0.000000 0.000000 0.025878
#
#
# Mechanical properties :
#
#
# Convention : Reuss Voigt Hill
#
# Bulk Modulus (GPa) = 32.84598 40.66947 36.75772
# Shear Modulus (GPa) = 22.75241 28.18019 25.46630
#
# Velocity S-wave (km/s) = 3.48436 3.87776 3.68631
# Velocity P-wave (km/s) = 5.80641 6.46148 6.14268
#
# Compressibility (1/GPa) = 0.03044513
#
# Stress axis : x y z
#
# Youngs Moduli (GPa) = 63.13294 63.13294 98.03511
#
# Poissons Ratio (x) = -0.18313 0.42243
# Poissons Ratio (y) = -0.18313 0.42243
# Poissons Ratio (z) = 0.27204 0.27204
#
# Static dielectric constant tensor:
#      x y z
#    x 1.690860 0.000000 0.000000 
#    y 0.000000 1.690860 0.000000 
#    z 0.000000 0.000000 1.611880 
# 
# From -- ./inp_files/4179.got.cif
#   From: 2010.05.17/outbox.cif.g08.bks.cpg/sg176_3_cif.got.tgz:4179.got - 2010.06.03 11:36:45.
