data_PCOD9581220
_publ_section_title
;
Structure prediction by ZEFSAII (Michael W. Deem and Ramdas Pophale) SiO2 
 PCOD9581220
Probable space group: P -6
;
_chemical_formula_sum "Si O2"
_cell_formula_units_Z 32
_cell_length_a 14.448083
_cell_length_b 14.448083
_cell_length_c 8.797868
_cell_angle_alpha 90.000000
_cell_angle_beta 90.000000
_cell_angle_gamma 120.000000
_cell_volume 1590.481160
_symmetry_space_group_name_H-M "P -6"
_symmetry_group_IT_number 174
_symmetry_cell_setting 'hexagonal'
loop_
_space_group_symop_operation_xyz
x,y,z
-x+y,-x,-z
-y,x-y,z
x,y,-z
-x+y,-x,z
-y,x-y,-z
loop_
_atom_site_type_symbol
_atom_site_label
_atom_site_fract_x
_atom_site_fract_y
_atom_site_fract_z
Si Si1 0.444761 0.540229 0.682212
Si Si2 0.298609 0.153529 0.679780
Si Si3 0.734768 0.263043 0.178971
Si Si4 0.333334 0.666668 0.182590
Si Si5 0.667991 0.940732 0.820323
Si Si6 0.665699 0.737527 0.682585
O O1 0.433448 0.535316 0.500000
O O2 0.383454 0.597494 0.753197
O O3 0.384541 0.421363 0.747837
O O4 0.568886 0.619076 0.720290
O O5 0.283929 0.158632 0.500000
O O6 0.424440 0.213417 0.719596
O O7 0.250691 0.216770 0.766998
O O8 0.252369 0.030521 0.724645
O O9 0.781689 0.389924 0.205263
O O10 0.748572 0.247339 0.000000
O O11 0.333334 0.666668 0.000000
O O12 0.648629 0.827455 0.760460
O O13 0.658038 0.938526 0.000000
O O14 0.663316 0.749708 0.500000
#
# Coordination Sequence:
#
# PCOD9581220 Si02
#       6
#     6   6   6   2   6   6
#     4  11  22  39  66  98 135 172 211 264 319 384
#     4  11  24  42  65  93 126 169 221 269 319 383
#     4   8  18  36  57  88 128 166 204 252 310 368
#     4  12  22  35  58  99 136 170 211 255 322 395
#     4  12  26  43  66  97 131 171 216 268 327 388
#     4  10  24  45  68  95 126 168 219 270 323 382
#
# _framework density 20.119699000000001
#
# number of rings (size 3 to 8) (size 9 to 14) (size 15 to 20)
#    0.375    1.125    1.875    3.375    2.625    3.000 
#    1.125    0.000    0.000    0.000    0.000    0.000 
#    0.000    0.000    0.000    0.000    0.000    0.000 
#
# Total GULP energy -178827.773039 kJ/mol
# GULP energy per Si atom -5588.367907 kJ/mol
# Density = 2.007391 g / cm^3
# Si number density = 20.119699 Si / 1000 Ang^3
#
#
#
# Elastic Constant Matrix: (Units=GPa)
#
#
# Indices 1 2 3 4 5 6 
#
# 1 84.4242 29.6500 38.2671 0.0000 0.0000 -0.0001
# 2 29.6500 84.4247 38.2676 0.0000 0.0000 0.0001
# 3 38.2671 38.2676 63.7449 0.0000 0.0000 -0.0001
# 4 0.0000 0.0000 0.0000 -109.6958 -0.0156 0.0000
# 5 0.0000 0.0000 0.0000 -0.0156 -109.6768 0.0000
# 6 -0.0001 0.0001 -0.0001 0.0000 0.0000 27.3876
#
#
#
# Elastic Compliance Matrix: (Units=1/GPa)
#
#
# Indices 1 2 3 4 5 6 
#
# 1 0.016467 -0.001789 -0.008811 0.000000 0.000000 0.000000
# 2 -0.001789 0.016467 -0.008812 0.000000 0.000000 0.000000
# 3 -0.008811 -0.008812 0.026267 0.000000 0.000000 0.000000
# 4 0.000000 0.000000 0.000000 -0.009116 0.000001 0.000000
# 5 0.000000 0.000000 0.000000 0.000001 -0.009118 0.000000
# 6 0.000000 0.000000 0.000000 0.000000 0.000000 0.036513
#
#
# Mechanical properties :
#
#
# Convention : Reuss Voigt Hill
#
# Bulk Modulus (GPa) = 49.07498 49.44034 49.25766
# Shear Modulus (GPa) = 40.61817 -29.96971 5.32423
#
# Velocity S-wave (km/s) = 4.49801 -3.86368 1.62850
# Velocity P-wave (km/s) = 7.17081 2.17311 5.29825
#
# Compressibility (1/GPa) = 0.02037698
#
# Stress axis : x y z
#
# Youngs Moduli (GPa) = 60.72630 60.72621 38.07067
#
# Poissons Ratio (x) = 0.10866 0.33546
# Poissons Ratio (y) = 0.10866 0.33546
# Poissons Ratio (z) = 0.53508 0.53509
#
# Static dielectric constant tensor:
#      x y z
#    x 1.715530 0.000000 0.000000 
#    y 0.000000 1.715530 0.000000 
#    z 0.000000 0.000000 1.667830 
# 
# From -- ./inp_files/321.got.cif
#   From: 2010.05.17/outbox.cif.g08.bks.cpg/sg174_cif.got.tgz:321.got - 2010.05.20 11:22:48.
