data_PCOD9581196
_publ_section_title
;
Structure prediction by ZEFSAII (Michael W. Deem and Ramdas Pophale) SiO2 
 PCOD9581196
Probable space group: P -6
;
_chemical_formula_sum "Si O2"
_cell_formula_units_Z 24
_cell_length_a 8.595921
_cell_length_b 8.595921
_cell_length_c 19.047898
_cell_angle_alpha 90.000000
_cell_angle_beta 90.000000
_cell_angle_gamma 120.000000
_cell_volume 1218.884402
_symmetry_space_group_name_H-M "P -6"
_symmetry_group_IT_number 174
_symmetry_cell_setting 'hexagonal'
loop_
_space_group_symop_operation_xyz
x,y,z
-x+y,-x,-z
-y,x-y,z
x,y,-z
-x+y,-x,z
-y,x-y,-z
loop_
_atom_site_type_symbol
_atom_site_label
_atom_site_fract_x
_atom_site_fract_y
_atom_site_fract_z
Si Si1 0.701750 0.554256 0.500000
Si Si2 0.335518 0.343562 0.710761
Si Si3 0.876143 0.533004 0.000000
Si Si4 0.331088 0.011129 0.652412
Si Si5 0.346698 0.469119 0.868111
O O1 0.846678 0.485291 0.500000
O O2 0.715032 0.661079 0.429807
O O3 0.191387 0.383625 0.673876
O O4 0.527896 0.471714 0.676039
O O5 0.347538 0.388718 0.792767
O O6 0.280665 0.140365 0.694982
O O7 0.676278 0.505157 0.000000
O O8 0.991327 0.629429 0.931348
O O9 0.506386 0.678312 0.872697
#
# Coordination Sequence:
#
# PCOD9581196 Si02
#       5
#     3   6   3   6   6
#     4  10  20  42  66  96 130 184 222 286 362 408
#     4  12  24  43  66 105 129 189 225 293 336 420
#     4  10  24  36  62 106 126 170 226 270 332 404
#     4  12  24  42  68  96 140 172 240 282 352 414
#     4  10  21  42  67  91 136 179 220 269 344 405
#
# _framework density 19.690138000000001
#
# number of rings (size 3 to 8) (size 9 to 14) (size 15 to 20)
#    1.000    0.000    5.000    2.250    3.500    2.000 
#    0.000    0.000    0.000    4.000    0.000    0.000 
#    0.000    0.000    0.000    0.000    0.000    0.000 
#
# Total GULP energy -133974.716443 kJ/mol
# GULP energy per Si atom -5582.279852 kJ/mol
# Density = 1.964532 g / cm^3
# Si number density = 19.690138 Si / 1000 Ang^3
#
#
#
# Elastic Constant Matrix: (Units=GPa)
#
#
# Indices 1 2 3 4 5 6 
#
# 1 61.6219 -4.8056 37.9015 0.0000 0.0000 0.0000
# 2 -4.8056 61.6219 37.9015 0.0000 0.0000 0.0000
# 3 37.9015 37.9015 160.5889 0.0000 0.0000 0.0000
# 4 0.0000 0.0000 0.0000 4.8633 0.0000 0.0000
# 5 0.0000 0.0000 0.0000 0.0000 4.8633 0.0000
# 6 0.0000 0.0000 0.0000 0.0000 0.0000 33.2138
#
#
#
# Elastic Compliance Matrix: (Units=1/GPa)
#
#
# Indices 1 2 3 4 5 6 
#
# 1 0.020372 0.005318 -0.006063 0.000000 0.000000 0.000000
# 2 0.005318 0.020372 -0.006063 0.000000 0.000000 0.000000
# 3 -0.006063 -0.006063 0.009089 0.000000 0.000000 0.000000
# 4 0.000000 0.000000 0.000000 0.205621 0.000000 0.000000
# 5 0.000000 0.000000 0.000000 0.000000 0.205621 0.000000
# 6 0.000000 0.000000 0.000000 0.000000 0.000000 0.030108
#
#
# Mechanical properties :
#
#
# Convention : Reuss Voigt Hill
#
# Bulk Modulus (GPa) = 27.61196 47.31416 37.46306
# Shear Modulus (GPa) = 9.67357 22.77710 16.22533
#
# Velocity S-wave (km/s) = 2.21891 3.40483 2.87371
# Velocity P-wave (km/s) = 4.54075 6.28798 5.48439
#
# Compressibility (1/GPa) = 0.03621619
#
# Stress axis : x y z
#
# Youngs Moduli (GPa) = 49.08693 49.08693 110.02157
#
# Poissons Ratio (x) = -0.26105 0.66709
# Poissons Ratio (y) = -0.26105 0.66709
# Poissons Ratio (z) = 0.29763 0.29763
#
# Static dielectric constant tensor:
#      x y z
#    x 1.682650 0.000000 0.000000 
#    y 0.000000 1.682650 0.000000 
#    z 0.000000 0.000000 1.646020 
# 
# From -- ./inp_files/1036.got.cif
#   From: 2010.05.17/outbox.cif.g08.bks.cpg/sg174_cif.got.tgz:1036.got - 2010.05.20 11:22:48.
