data_PCOD9581042
_publ_section_title
;
Structure prediction by ZEFSAII (Michael W. Deem and Ramdas Pophale) SiO2 
 PCOD9581042
Probable space group: P 63
;
_chemical_formula_sum "Si O2"
_cell_formula_units_Z 36
_cell_length_a 17.679754
_cell_length_b 17.679754
_cell_length_c 7.799141
_cell_angle_alpha 90.000000
_cell_angle_beta 90.000000
_cell_angle_gamma 120.000000
_cell_volume 2111.202247
_symmetry_space_group_name_H-M "P 63"
_symmetry_group_IT_number 173
_symmetry_cell_setting 'hexagonal'
loop_
_space_group_symop_operation_xyz
x,y,z
x-y,x,1/2+z
-y,x-y,z
-x,-y,1/2+z
-x+y,-x,z
y,-x+y,1/2+z
loop_
_atom_site_type_symbol
_atom_site_label
_atom_site_fract_x
_atom_site_fract_y
_atom_site_fract_z
Si Si1 0.990845 0.408086 0.309490
Si Si2 0.834932 0.009201 0.540844
Si Si3 0.731310 0.097341 0.037195
Si Si4 0.905871 0.274811 0.998586
Si Si5 0.402651 0.432989 0.194451
Si Si6 0.837369 0.008580 0.941175
O O1 0.940320 0.340916 0.158504
O O2 0.941347 0.385953 0.494213
O O3 0.075503 0.400899 0.362822
O O4 0.016315 0.504862 0.253802
O O5 0.836410 0.028302 0.741580
O O6 0.908156 0.097759 0.456125
O O7 0.735856 0.967877 0.476660
O O8 0.860660 0.934149 0.512243
O O9 0.810270 0.194697 0.039958
O O10 0.657841 0.063228 0.184208
O O11 0.772864 0.033963 0.036556
O O12 0.910838 0.327833 0.828159
#
# Coordination Sequence:
#
# PCOD9581042 Si02
#       6
#     6   6   6   6   6   6
#     4  10  20  40  59  90 111 151 195 233 309 362
#     4  11  23  34  51  74 112 159 191 236 271 313
#     4   9  23  35  56  91 110 150 199 234 290 338
#     4  11  21  38  58  85 122 148 193 251 275 346
#     4  10  21  38  63  85 116 149 192 240 302 363
#     4  11  22  35  49  75 113 153 200 228 271 324
#
# _framework density 17.051894999999998
#
# number of rings (size 3 to 8) (size 9 to 14) (size 15 to 20)
#    1.000    0.667    3.333    1.333    9.333    0.000 
#    3.000    0.000    0.000    5.333    0.000    0.000 
#    0.000    0.000    0.000    0.000    0.000    0.000 
#
# Total GULP energy -200572.101164 kJ/mol
# GULP energy per Si atom -5571.447255 kJ/mol
# Density = 1.701308 g / cm^3
# Si number density = 17.051895 Si / 1000 Ang^3
#
#
#
# Elastic Constant Matrix: (Units=GPa)
#
#
# Indices 1 2 3 4 5 6 
#
# 1 65.3641 48.2996 -2.2956 0.0000 0.0000 0.0000
# 2 48.2996 65.3641 -2.2956 0.0000 0.0000 0.0000
# 3 -2.2956 -2.2956 49.9909 0.0000 0.0000 0.0000
# 4 0.0000 0.0000 0.0000 23.7763 0.0000 0.0000
# 5 0.0000 0.0000 0.0000 0.0000 23.7763 0.0000
# 6 0.0000 0.0000 0.0000 0.0000 0.0000 8.5323
#
#
#
# Elastic Compliance Matrix: (Units=1/GPa)
#
#
# Indices 1 2 3 4 5 6 
#
# 1 0.033708 -0.024893 0.000405 0.000000 0.000000 0.000000
# 2 -0.024893 0.033708 0.000405 0.000000 0.000000 0.000000
# 3 0.000405 0.000405 0.020041 0.000000 0.000000 0.000000
# 4 0.000000 0.000000 0.000000 0.042059 0.000000 0.000000
# 5 0.000000 0.000000 0.000000 0.000000 0.042059 0.000000
# 6 0.000000 0.000000 0.000000 0.000000 0.000000 0.117202
#
#
# Mechanical properties :
#
#
# Convention : Reuss Voigt Hill
#
# Bulk Modulus (GPa) = 25.45287 29.79287 27.62287
# Shear Modulus (GPa) = 14.28410 20.35104 17.31757
#
# Velocity S-wave (km/s) = 2.89742 3.45842 3.19027
# Velocity P-wave (km/s) = 5.11395 5.78424 5.45939
#
# Compressibility (1/GPa) = 0.03928830
#
# Stress axis : x y z
#
# Youngs Moduli (GPa) = 29.66684 29.66684 49.89817
#
# Poissons Ratio (x) = 0.73851 -0.02020
# Poissons Ratio (y) = 0.73851 -0.02020
# Poissons Ratio (z) = -0.01201 -0.01201
#
# Static dielectric constant tensor:
#      x y z
#    x 1.571030 0.000000 0.000000 
#    y 0.000000 1.571030 0.000000 
#    z 0.000000 0.000000 1.598980 
# 
# From -- ./inp_files/576.got.cif
#   From: 2010.05.17/outbox.cif.g08.bks.cpg/sg173_cif.got.tgz:576.got - 2010.05.20 11:21:53.
