data_PCOD9581812
_publ_section_title
;
Structure prediction by ZEFSAII (Michael W. Deem and Ramdas Pophale) SiO2 
 PCOD9581812
Probable space group: P 63/M
;
_chemical_formula_sum "Si O2"
_cell_formula_units_Z 72
_cell_length_a 22.825806
_cell_length_b 22.825806
_cell_length_c 8.937291
_cell_angle_alpha 90.000000
_cell_angle_beta 90.000000
_cell_angle_gamma 120.000000
_cell_volume 4032.633691
_symmetry_space_group_name_H-M "P 63/M"
_symmetry_group_IT_number 176
_symmetry_cell_setting 'hexagonal'
loop_
_space_group_symop_operation_xyz
x,y,z
x-y,x,1/2+z
-y,x-y,z
-x,-y,1/2+z
-x+y,-x,z
y,-x+y,1/2+z
-x,-y,-z
-x+y,-x,1/2-z
y,-x+y,-z
x,y,1/2-z
x-y,x,-z
-y,x-y,1/2-z
loop_
_atom_site_type_symbol
_atom_site_label
_atom_site_fract_x
_atom_site_fract_y
_atom_site_fract_z
Si Si1 0.094355 0.503004 0.920778
Si Si2 0.605688 0.538421 0.579010
Si Si3 0.287376 0.134316 0.571766
Si Si4 0.148188 0.091523 0.070182
Si Si5 0.041807 0.710601 0.923817
Si Si6 0.603146 0.720652 0.425061
O O1 0.113398 0.523819 0.750000
O O2 0.013377 0.449073 0.923524
O O3 0.103640 0.565787 0.018831
O O4 0.128692 0.461542 0.983249
O O5 0.628196 0.542326 0.750000
O O6 0.666717 0.591030 0.476188
O O7 0.276752 0.135684 0.750000
O O8 0.225723 0.132932 0.483694
O O9 0.292863 0.069629 0.524731
O O10 0.358376 0.200869 0.532008
O O11 0.142710 0.092303 0.250000
O O12 0.104596 0.120330 0.991536
O O13 0.055848 0.730217 0.750000
O O14 0.961501 0.660896 0.940315
O O15 0.584831 0.713966 0.250000
#
# Coordination Sequence:
#
# PCOD9581812 Si02
#       6
#    12  12  12  12  12  12
#     4   9  16  26  44  69  95 123 156 191 229 277
#     4   9  16  27  44  67  96 127 157 190 231 280
#     4  11  22  36  53  75 103 136 173 213 264 323
#     4  12  25  42  61  80 101 129 171 225 283 340
#     4  10  19  32  49  70  98 132 169 209 253 301
#     4   9  19  33  48  67  96 131 165 203 248 301
#
# _framework density 17.854337999999998
#
# number of rings (size 3 to 8) (size 9 to 14) (size 15 to 20)
#    0.000    2.000    0.000    4.667    0.000    7.333 
#    0.000    0.000    0.000    0.000    0.000    0.000 
#    1.667    0.000    3.000    0.000    3.000    0.000 
#
# Total GULP energy -401848.345221 kJ/mol
# GULP energy per Si atom -5581.227017 kJ/mol
# Density = 1.781370 g / cm^3
# Si number density = 17.854338 Si / 1000 Ang^3
#
#
#
# Elastic Constant Matrix: (Units=GPa)
#
#
# Indices 1 2 3 4 5 6 
#
# 1 28.8555 -6.2841 5.5531 0.0000 0.0000 0.0000
# 2 -6.2841 28.8555 5.5531 0.0000 0.0000 0.0000
# 3 5.5531 5.5531 70.3524 0.0000 0.0000 0.0000
# 4 0.0000 0.0000 0.0000 24.6958 0.0000 0.0000
# 5 0.0000 0.0000 0.0000 0.0000 24.6958 0.0000
# 6 0.0000 0.0000 0.0000 0.0000 0.0000 17.5698
#
#
#
# Elastic Compliance Matrix: (Units=1/GPa)
#
#
# Indices 1 2 3 4 5 6 
#
# 1 0.037276 0.008818 -0.003638 0.000000 0.000000 0.000000
# 2 0.008818 0.037276 -0.003638 0.000000 0.000000 0.000000
# 3 -0.003638 -0.003638 0.014789 0.000000 0.000000 0.000000
# 4 0.000000 0.000000 0.000000 0.040493 0.000000 0.000000
# 5 0.000000 0.000000 0.000000 0.000000 0.040493 0.000000
# 6 0.000000 0.000000 0.000000 0.000000 0.000000 0.056916
#
#
# Mechanical properties :
#
#
# Convention : Reuss Voigt Hill
#
# Bulk Modulus (GPa) = 10.81978 15.30085 13.06032
# Shear Modulus (GPa) = 19.61040 21.60838 20.60939
#
# Velocity S-wave (km/s) = 3.31774 3.48265 3.40120
# Velocity P-wave (km/s) = 4.55519 4.97597 4.77022
#
# Compressibility (1/GPa) = 0.09242331
#
# Stress axis : x y z
#
# Youngs Moduli (GPa) = 26.82691 26.82691 67.62000
#
# Poissons Ratio (x) = -0.23656 0.24602
# Poissons Ratio (y) = -0.23656 0.24602
# Poissons Ratio (z) = 0.09761 0.09761
#
# Static dielectric constant tensor:
#      x y z
#    x 1.617180 0.000000 0.000000 
#    y 0.000000 1.617180 0.000000 
#    z 0.000000 0.000000 1.597860 
# 
# From -- ./inp_files/1140.got.cif
#   From: 2010.05.17/outbox.cif.g08.bks.cpg/sg176_1_cif.got.tgz:1140.got - 2010.06.03 11:36:45.
