data_PCOD9581752
_publ_section_title
;
Structure prediction by ZEFSAII (Michael W. Deem and Ramdas Pophale) SiO2 
 PCOD9581752
Probable space group: P 63/M
;
_chemical_formula_sum "Si O2"
_cell_formula_units_Z 60
_cell_length_a 17.203351
_cell_length_b 17.203351
_cell_length_c 13.208063
_cell_angle_alpha 90.000000
_cell_angle_beta 90.000000
_cell_angle_gamma 120.000000
_cell_volume 3385.289889
_symmetry_space_group_name_H-M "P 63/M"
_symmetry_group_IT_number 176
_symmetry_cell_setting 'hexagonal'
loop_
_space_group_symop_operation_xyz
x,y,z
x-y,x,1/2+z
-y,x-y,z
-x,-y,1/2+z
-x+y,-x,z
y,-x+y,1/2+z
-x,-y,-z
-x+y,-x,1/2-z
y,-x+y,-z
x,y,1/2-z
x-y,x,-z
-y,x-y,1/2-z
loop_
_atom_site_type_symbol
_atom_site_label
_atom_site_fract_x
_atom_site_fract_y
_atom_site_fract_z
Si Si1 0.419082 0.556633 0.559760
Si Si2 0.590879 0.546474 0.868471
Si Si3 0.704814 0.751362 0.872687
Si Si4 0.249179 0.776676 0.869358
Si Si5 0.009233 0.102949 0.626971
O O1 0.408940 0.525701 0.443722
O O2 0.496557 0.543316 0.611723
O O3 0.454650 0.661542 0.573583
O O4 0.323957 0.496094 0.612310
O O5 0.600504 0.533453 0.750000
O O6 0.667448 0.647387 0.900093
O O7 0.707264 0.753275 0.750000
O O8 0.626858 0.773416 0.902569
O O9 0.803555 0.824270 0.909186
O O10 0.271248 0.790850 0.750000
O O11 0.008030 0.087967 0.400020
O O12 0.009257 0.107194 0.750000
#
# Coordination Sequence:
#
# PCOD9581752 Si02
#       5
#    12  12  12  12  12
#     4  10  19  32  53  79 101 133 172 217 270 317
#     4   9  18  33  53  74 105 142 172 207 263 330
#     4   8  14  26  46  71  97 131 170 212 257 299
#     4  10  18  29  50  78 103 125 168 223 265 305
#     4   7  11  20  40  67  94 126 167 211 246 283
#
# _framework density 17.723741
#
# number of rings (size 3 to 8) (size 9 to 14) (size 15 to 20)
#    0.400    2.800    0.000    3.400    0.000    0.000 
#    0.000    1.000   13.200    0.000    0.000    1.400 
#    0.000    0.000    0.000    0.000    0.000    2.200 
#
# Total GULP energy -334028.618366 kJ/mol
# GULP energy per Si atom -5567.143639 kJ/mol
# Density = 1.768340 g / cm^3
# Si number density = 17.723741 Si / 1000 Ang^3
#
#
#
# Elastic Constant Matrix: (Units=GPa)
#
#
# Indices 1 2 3 4 5 6 
#
# 1 78.5537 46.2928 39.8018 0.0000 0.0000 0.0000
# 2 46.2928 78.5537 39.8018 0.0000 0.0000 0.0000
# 3 39.8018 39.8018 66.7239 0.0000 0.0000 0.0000
# 4 0.0000 0.0000 0.0000 19.5321 0.0000 0.0000
# 5 0.0000 0.0000 0.0000 0.0000 19.5321 0.0000
# 6 0.0000 0.0000 0.0000 0.0000 0.0000 16.1304
#
#
#
# Elastic Compliance Matrix: (Units=1/GPa)
#
#
# Indices 1 2 3 4 5 6 
#
# 1 0.021962 -0.009036 -0.007711 0.000000 0.000000 0.000000
# 2 -0.009036 0.021962 -0.007711 0.000000 0.000000 0.000000
# 3 -0.007711 -0.007711 0.024186 0.000000 0.000000 0.000000
# 4 0.000000 0.000000 0.000000 0.051198 0.000000 0.000000
# 5 0.000000 0.000000 0.000000 0.000000 0.051198 0.000000
# 6 0.000000 0.000000 0.000000 0.000000 0.000000 0.061995
#
#
# Mechanical properties :
#
#
# Convention : Reuss Voigt Hill
#
# Bulk Modulus (GPa) = 52.09438 52.84715 52.47077
# Shear Modulus (GPa) = 17.37242 17.56791 17.47016
#
# Velocity S-wave (km/s) = 3.13418 3.15176 3.14298
# Velocity P-wave (km/s) = 6.52332 6.56709 6.54524
#
# Compressibility (1/GPa) = 0.01919593
#
# Stress axis : x y z
#
# Youngs Moduli (GPa) = 45.53366 45.53366 41.34583
#
# Poissons Ratio (x) = 0.41142 0.31881
# Poissons Ratio (y) = 0.41142 0.31881
# Poissons Ratio (z) = 0.35110 0.35110
#
# Static dielectric constant tensor:
#      x y z
#    x 1.614090 0.000000 0.000000 
#    y 0.000000 1.614090 0.000000 
#    z 0.000000 0.000000 1.630130 
# 
# From -- ./inp_files/1865.got.cif
#   From: 2010.05.17/outbox.cif.g08.bks.cpg/sg176_1_cif.got.tgz:1865.got - 2010.06.03 11:36:45.
