data_PCOD9581530
_publ_section_title
;
Structure prediction by ZEFSAII (Michael W. Deem and Ramdas Pophale) SiO2 
 PCOD9581530
Probable space group: P 6/M
;
_chemical_formula_sum "Si O2"
_cell_formula_units_Z 54
_cell_length_a 17.443186
_cell_length_b 17.443186
_cell_length_c 11.366862
_cell_angle_alpha 90.000000
_cell_angle_beta 90.000000
_cell_angle_gamma 120.000000
_cell_volume 2995.179418
_symmetry_space_group_name_H-M "P 6/M"
_symmetry_group_IT_number 175
_symmetry_cell_setting 'hexagonal'
loop_
_space_group_symop_operation_xyz
x,y,z
x-y,x,z
-y,x-y,z
-x,-y,z
-x+y,-x,z
y,-x+y,z
-x,-y,-z
-x+y,-x,-z
y,-x+y,-z
x,y,-z
x-y,x,-z
-y,x-y,-z
loop_
_atom_site_type_symbol
_atom_site_label
_atom_site_fract_x
_atom_site_fract_y
_atom_site_fract_z
Si Si1 0.034803 0.191241 0.143098
Si Si2 0.658087 0.007837 0.140082
Si Si3 0.515357 0.809345 0.862503
Si Si4 0.589989 0.371662 0.500000
Si Si5 0.477256 0.627677 0.246474
O O1 0.112932 0.174189 0.182228
O O2 0.045457 0.285475 0.174778
O O3 0.034582 0.189512 0.000000
O O4 0.615777 0.056325 0.211248
O O5 0.604561 0.902394 0.157587
O O6 0.653970 0.023609 0.000000
O O7 0.505883 0.728265 0.787084
O O8 0.435771 0.826859 0.830072
O O9 0.511899 0.786537 0.000000
O O10 0.573310 0.270819 0.500000
O O11 0.551078 0.388180 0.382135
#
# Coordination Sequence:
#
# PCOD9581530 Si02
#       5
#    12  12  12   6  12
#     4   9  16  28  47  73 107 147 183 212 254 317
#     4  10  21  34  50  80 117 143 171 226 286 329
#     4  11  21  34  55  82 110 141 180 223 271 334
#     4  10  20  42  57  77 101 138 185 241 266 304
#     4  12  21  37  57  76 104 144 185 221 272 325
#
# _framework density 18.028970999999999
#
# number of rings (size 3 to 8) (size 9 to 14) (size 15 to 20)
#    0.222    1.333    2.222    4.667    0.000    6.222 
#    0.000    3.333    0.000    0.000    0.000    0.000 
#    0.000    0.000    0.000    4.889    0.000    1.778 
#
# Total GULP energy -301539.708074 kJ/mol
# GULP energy per Si atom -5584.068668 kJ/mol
# Density = 1.798794 g / cm^3
# Si number density = 18.028971 Si / 1000 Ang^3
#
#
#
# Elastic Constant Matrix: (Units=GPa)
#
#
# Indices 1 2 3 4 5 6 
#
# 1 47.7723 -9.2426 -3.3066 0.0000 0.0000 0.0000
# 2 -9.2426 47.7723 -3.3066 0.0000 0.0000 0.0000
# 3 -3.3066 -3.3066 23.6032 0.0000 0.0000 0.0000
# 4 0.0000 0.0000 0.0000 12.6353 0.0000 0.0000
# 5 0.0000 0.0000 0.0000 0.0000 12.6353 0.0000
# 6 0.0000 0.0000 0.0000 0.0000 0.0000 28.5074
#
#
#
# Elastic Compliance Matrix: (Units=1/GPa)
#
#
# Indices 1 2 3 4 5 6 
#
# 1 0.022066 0.004527 0.003726 0.000000 0.000000 0.000000
# 2 0.004527 0.022066 0.003726 0.000000 0.000000 0.000000
# 3 0.003726 0.003726 0.043411 0.000000 0.000000 0.000000
# 4 0.000000 0.000000 0.000000 0.079143 0.000000 0.000000
# 5 0.000000 0.000000 0.000000 0.000000 0.079143 0.000000
# 6 0.000000 0.000000 0.000000 0.000000 0.000000 0.035079
#
#
# Mechanical properties :
#
#
# Convention : Reuss Voigt Hill
#
# Bulk Modulus (GPa) = 8.96861 9.71512 9.34187
# Shear Modulus (GPa) = 16.99991 19.75585 18.37788
#
# Velocity S-wave (km/s) = 3.07403 3.31385 3.19619
# Velocity P-wave (km/s) = 4.19344 4.47688 4.33748
#
# Compressibility (1/GPa) = 0.11150002
#
# Stress axis : x y z
#
# Youngs Moduli (GPa) = 45.31782 45.31782 23.03563
#
# Poissons Ratio (x) = -0.20516 -0.08582
# Poissons Ratio (y) = -0.20516 -0.08582
# Poissons Ratio (z) = -0.16883 -0.16883
#
# Static dielectric constant tensor:
#      x y z
#    x 1.633130 0.000000 0.000000 
#    y 0.000000 1.633130 0.000000 
#    z 0.000000 0.000000 1.572580 
# 
# From -- ./inp_files/1745.got.cif
#   From: 2010.05.17/outbox.cif.g08.bks.cpg/sg175_1_cif.got.tgz:1745.got - 2010.05.20 11:23:22.
