data_PCOD9581851
_publ_section_title
;
Structure prediction by ZEFSAII (Michael W. Deem and Ramdas Pophale) SiO2 
 PCOD9581851
Probable space group: P 63/M
;
_chemical_formula_sum "Si O2"
_cell_formula_units_Z 72
_cell_length_a 22.914212
_cell_length_b 22.914212
_cell_length_c 9.130849
_cell_angle_alpha 90.000000
_cell_angle_beta 90.000000
_cell_angle_gamma 120.000000
_cell_volume 4151.945519
_symmetry_space_group_name_H-M "P 63/M"
_symmetry_group_IT_number 176
_symmetry_cell_setting 'hexagonal'
loop_
_space_group_symop_operation_xyz
x,y,z
x-y,x,1/2+z
-y,x-y,z
-x,-y,1/2+z
-x+y,-x,z
y,-x+y,1/2+z
-x,-y,-z
-x+y,-x,1/2-z
y,-x+y,-z
x,y,1/2-z
x-y,x,-z
-y,x-y,1/2-z
loop_
_atom_site_type_symbol
_atom_site_label
_atom_site_fract_x
_atom_site_fract_y
_atom_site_fract_z
Si Si1 0.847570 0.355234 0.922067
Si Si2 0.997249 0.748958 0.426318
Si Si3 0.711967 0.863849 0.926200
Si Si4 0.229951 0.784425 0.575205
Si Si5 0.626626 0.125108 0.575095
Si Si6 0.386662 0.386594 0.077984
O O1 0.828921 0.340314 0.750000
O O2 0.848586 0.423786 0.961984
O O3 0.923475 0.368928 0.937377
O O4 0.800149 0.291383 0.019427
O O5 0.003826 0.755013 0.250000
O O6 0.926633 0.743909 0.467547
O O7 0.993428 0.678143 0.464952
O O8 0.063355 0.809079 0.499559
O O9 0.716122 0.871415 0.750000
O O10 0.632486 0.821729 0.965501
O O11 0.237434 0.789346 0.750000
O O12 0.301326 0.830704 0.499691
O O13 0.633079 0.126510 0.750000
O O14 0.598907 0.049768 0.516543
O O15 0.400554 0.381718 0.250000
#
# Coordination Sequence:
#
# PCOD9581851 Si02
#       6
#    12  12  12  12  12  12
#     4  10  22  39  57  81 112 148 190 236 286 343
#     4  10  20  36  59  86 119 153 183 230 286 336
#     4  10  21  37  57  87 119 147 187 232 277 339
#     4  11  22  38  59  82 111 148 192 244 292 341
#     4  11  23  37  56  82 113 150 192 235 284 340
#     4  10  19  35  58  84 116 148 182 230 287 339
#
# _framework density 17.341266999999998
#
# number of rings (size 3 to 8) (size 9 to 14) (size 15 to 20)
#    0.000    1.667    3.333    1.500    0.000    4.000 
#    1.000    0.000    0.000    0.333    0.000    0.000 
#    0.000    0.000    0.000    0.000    0.000    0.000 
#
# Total GULP energy -402153.880336 kJ/mol
# GULP energy per Si atom -5585.470560 kJ/mol
# Density = 1.730180 g / cm^3
# Si number density = 17.341267 Si / 1000 Ang^3
#
#
#
# Elastic Constant Matrix: (Units=GPa)
#
#
# Indices 1 2 3 4 5 6 
#
# 1 74.8627 16.5896 24.6953 0.0000 0.0000 0.0000
# 2 16.5896 74.8627 24.6953 0.0000 0.0000 0.0000
# 3 24.6953 24.6953 28.2077 0.0000 0.0000 0.0000
# 4 0.0000 0.0000 0.0000 32.1138 0.0000 0.0000
# 5 0.0000 0.0000 0.0000 0.0000 32.1138 0.0000
# 6 0.0000 0.0000 0.0000 0.0000 0.0000 29.1366
#
#
#
# Elastic Compliance Matrix: (Units=1/GPa)
#
#
# Indices 1 2 3 4 5 6 
#
# 1 0.018951 0.001791 -0.018159 0.000000 0.000000 0.000000
# 2 0.001791 0.018951 -0.018159 0.000000 0.000000 0.000000
# 3 -0.018159 -0.018159 0.067247 0.000000 0.000000 0.000000
# 4 0.000000 0.000000 0.000000 0.031139 0.000000 0.000000
# 5 0.000000 0.000000 0.000000 0.000000 0.031139 0.000000
# 6 0.000000 0.000000 0.000000 0.000000 0.000000 0.034321
#
#
# Mechanical properties :
#
#
# Convention : Reuss Voigt Hill
#
# Bulk Modulus (GPa) = 27.70503 34.43260 31.06881
# Shear Modulus (GPa) = 17.67812 26.13636 21.90724
#
# Velocity S-wave (km/s) = 3.19631 3.88645 3.55815
# Velocity P-wave (km/s) = 5.44361 6.32758 5.90217
#
# Compressibility (1/GPa) = 0.03609453
#
# Stress axis : x y z
#
# Youngs Moduli (GPa) = 52.76716 52.76716 14.87053
#
# Poissons Ratio (x) = -0.09449 0.27003
# Poissons Ratio (y) = -0.09449 0.27003
# Poissons Ratio (z) = 0.95820 0.95820
#
# Static dielectric constant tensor:
#      x y z
#    x 1.573860 0.000000 0.000000 
#    y 0.000000 1.573860 0.000000 
#    z 0.000000 0.000000 1.577340 
# 
# From -- ./inp_files/1188.got.cif
#   From: 2010.05.17/outbox.cif.g08.bks.cpg/sg176_1_cif.got.tgz:1188.got - 2010.06.03 11:36:45.
