data_PCOD9581057
_publ_section_title
;
Structure prediction by ZEFSAII (Michael W. Deem and Ramdas Pophale) SiO2 
 PCOD9581057
Probable space group: P 63
;
_chemical_formula_sum "Si O2"
_cell_formula_units_Z 48
_cell_length_a 17.712069
_cell_length_b 17.712069
_cell_length_c 8.594048
_cell_angle_alpha 90.000000
_cell_angle_beta 90.000000
_cell_angle_gamma 120.000000
_cell_volume 2334.893077
_symmetry_space_group_name_H-M "P 63"
_symmetry_group_IT_number 173
_symmetry_cell_setting 'hexagonal'
loop_
_space_group_symop_operation_xyz
x,y,z
x-y,x,1/2+z
-y,x-y,z
-x,-y,1/2+z
-x+y,-x,z
y,-x+y,1/2+z
loop_
_atom_site_type_symbol
_atom_site_label
_atom_site_fract_x
_atom_site_fract_y
_atom_site_fract_z
Si Si1 0.813017 0.945768 0.270330
Si Si2 0.807941 0.620271 0.768920
Si Si3 0.945768 0.132751 0.402802
Si Si4 0.931864 0.561424 0.269247
Si Si5 0.119573 0.627750 0.405638
Si Si6 0.561424 0.629560 0.403886
Si Si7 0.187669 0.807941 0.904212
Si Si8 0.880427 0.372250 0.267495
O O1 0.710563 0.899656 0.310417
O O2 0.840978 0.874003 0.308213
O O3 0.874002 0.033025 0.364919
O O4 0.823741 0.966387 0.086566
O O5 0.713378 0.539079 0.804600
O O6 0.879459 0.610140 0.864563
O O7 0.828520 0.624989 0.586566
O O8 0.899656 0.189094 0.362715
O O9 0.879458 0.610140 0.308569
O O10 0.873156 0.457714 0.301004
O O11 0.018514 0.596346 0.370750
O O12 0.956234 0.571534 0.086566
O O13 0.126844 0.542286 0.372128
O O14 0.139569 0.650677 0.586566
O O15 0.596346 0.577832 0.302383
O O16 0.174299 0.713378 0.868533
#
# Coordination Sequence:
#
# PCOD9581057 Si02
#       8
#     6   6   6   6   6   6   6   6
#     4  11  24  40  59  85 118 156 196 241 291 344
#     4  11  23  38  60  89 117 152 197 243 292 350
#     4  11  24  40  59  85 118 156 196 241 291 344
#     4  10  21  38  60  85 115 152 191 237 291 348
#     4  10  21  38  60  85 115 152 191 237 291 348
#     4  10  21  38  60  85 115 152 191 237 291 348
#     4  11  23  38  60  89 117 152 197 243 292 350
#     4  10  21  38  60  85 115 152 191 237 291 348
#
# _framework density 20.557686
#
# number of rings (size 3 to 8) (size 9 to 14) (size 15 to 20)
#    0.000    1.500    0.000    4.750    0.000   11.000 
#    1.500    0.000    0.000    0.000    0.000    0.000 
#    0.000    0.000    0.000    0.000    0.000    0.000 
#
# Total GULP energy -268361.785870 kJ/mol
# GULP energy per Si atom -5590.870539 kJ/mol
# Density = 2.051090 g / cm^3
# Si number density = 20.557686 Si / 1000 Ang^3
#
#
#
# Elastic Constant Matrix: (Units=GPa)
#
#
# Indices 1 2 3 4 5 6 
#
# 1 37.4068 -11.6098 3.2235 0.0000 0.0000 0.0000
# 2 -11.6098 37.4068 3.2235 0.0000 0.0000 0.0000
# 3 3.2235 3.2235 21.1450 0.0000 0.0000 0.0000
# 4 0.0000 0.0000 0.0000 29.0800 0.0000 0.0000
# 5 0.0000 0.0000 0.0000 0.0000 29.0800 0.0000
# 6 0.0000 0.0000 0.0000 0.0000 0.0000 24.5083
#
#
#
# Elastic Compliance Matrix: (Units=1/GPa)
#
#
# Indices 1 2 3 4 5 6 
#
# 1 0.030350 0.009949 -0.006144 0.000000 0.000000 0.000000
# 2 0.009949 0.030350 -0.006144 0.000000 0.000000 0.000000
# 3 -0.006144 -0.006144 0.049166 0.000000 0.000000 0.000000
# 4 0.000000 0.000000 0.000000 0.034388 0.000000 0.000000
# 5 0.000000 0.000000 0.000000 0.000000 0.034388 0.000000
# 6 0.000000 0.000000 0.000000 0.000000 0.000000 0.040803
#
#
# Mechanical properties :
#
#
# Convention : Reuss Voigt Hill
#
# Bulk Modulus (GPa) = 9.50656 9.51477 9.51066
# Shear Modulus (GPa) = 19.29131 23.27508 21.28319
#
# Velocity S-wave (km/s) = 3.06665 3.36844 3.22109
# Velocity P-wave (km/s) = 4.14409 4.44600 4.29770
#
# Compressibility (1/GPa) = 0.10519057
#
# Stress axis : x y z
#
# Youngs Moduli (GPa) = 32.94849 32.94849 20.33945
#
# Poissons Ratio (x) = -0.32781 0.12496
# Poissons Ratio (y) = -0.32781 0.12496
# Poissons Ratio (z) = 0.20242 0.20242
#
# Static dielectric constant tensor:
#      x y z
#    x 1.722030 0.000000 0.000000 
#    y 0.000000 1.722030 0.000000 
#    z 0.000000 0.000000 1.676420 
# 
# From -- ./inp_files/674.got.cif
#   From: 2010.05.17/outbox.cif.g08.bks.cpg/sg173_cif.got.tgz:674.got - 2010.05.20 11:21:53.
