data_PCOD9581578
_publ_section_title
;
Structure prediction by ZEFSAII (Michael W. Deem and Ramdas Pophale) SiO2 
 PCOD9581578
Probable space group: P 6/M
;
_chemical_formula_sum "Si O2"
_cell_formula_units_Z 84
_cell_length_a 16.523425
_cell_length_b 16.523425
_cell_length_c 17.710514
_cell_angle_alpha 90.000000
_cell_angle_beta 90.000000
_cell_angle_gamma 120.000000
_cell_volume 4187.568694
_symmetry_space_group_name_H-M "P 6/M"
_symmetry_group_IT_number 175
_symmetry_cell_setting 'hexagonal'
loop_
_space_group_symop_operation_xyz
x,y,z
x-y,x,z
-y,x-y,z
-x,-y,z
-x+y,-x,z
y,-x+y,z
-x,-y,-z
-x+y,-x,-z
y,-x+y,-z
x,y,-z
x-y,x,-z
-y,x-y,-z
loop_
_atom_site_type_symbol
_atom_site_label
_atom_site_fract_x
_atom_site_fract_y
_atom_site_fract_z
Si Si1 0.712166 0.540891 0.914324
Si Si2 0.551998 0.112756 0.414210
Si Si3 0.951999 0.788364 0.915729
Si Si4 0.325972 0.331355 0.181539
Si Si5 0.713418 0.632276 0.650259
Si Si6 0.879350 0.499539 0.912774
Si Si7 0.739075 0.120950 0.588597
O O1 0.727581 0.623220 0.860340
O O2 0.787472 0.508538 0.905742
O O3 0.607782 0.456400 0.901609
O O4 0.717953 0.573921 0.000000
O O5 0.557094 0.147798 0.500000
O O6 0.479176 0.127849 0.365639
O O7 0.656556 0.143018 0.387651
O O8 0.500000 0.000000 0.418059
O O9 0.877361 0.822115 0.910744
O O10 0.945838 0.719110 0.850244
O O11 0.941829 0.745202 0.000000
O O12 0.312439 0.343282 0.268691
O O13 0.430895 0.383820 0.148087
O O14 0.683534 0.692153 0.596318
O O15 0.817925 0.651889 0.635567
O O16 0.914652 0.525157 0.000000
O O17 0.758994 0.145833 0.500000
#
# Coordination Sequence:
#
# PCOD9581578 Si02
#       7
#    12  12  12  12  12  12  12
#     4  10  21  38  59  83 113 161 212 257 299 361
#     4   8  16  36  63  87 116 153 199 251 301 359
#     4  10  21  38  61  85 114 157 210 263 314 367
#     4  12  24  35  55  87 126 161 192 253 306 369
#     4  11  24  38  62  97 129 167 205 253 317 375
#     4  10  21  38  60  83 115 161 215 259 306 359
#     4  10  21  41  68  92 124 164 209 256 305 378
#
# _framework density 20.059373000000001
#
# number of rings (size 3 to 8) (size 9 to 14) (size 15 to 20)
#    0.000    1.857    0.000    5.143    4.000    8.571 
#    0.857    0.000    0.000    0.286    0.000    1.000 
#    0.000    0.000    0.000    0.000    0.000    0.000 
#
# Total GULP energy -468994.168059 kJ/mol
# GULP energy per Si atom -5583.263905 kJ/mol
# Density = 2.001372 g / cm^3
# Si number density = 20.059373 Si / 1000 Ang^3
#
#
#
# Elastic Constant Matrix: (Units=GPa)
#
#
# Indices 1 2 3 4 5 6 
#
# 1 96.5425 25.9052 29.3253 0.0000 0.0000 0.0000
# 2 25.9052 96.5425 29.3253 0.0000 0.0000 0.0000
# 3 29.3253 29.3253 81.6954 0.0000 0.0000 0.0000
# 4 0.0000 0.0000 0.0000 41.0199 0.0000 0.0000
# 5 0.0000 0.0000 0.0000 0.0000 41.0199 0.0000
# 6 0.0000 0.0000 0.0000 0.0000 0.0000 35.3186
#
#
#
# Elastic Compliance Matrix: (Units=1/GPa)
#
#
# Indices 1 2 3 4 5 6 
#
# 1 0.012010 -0.002147 -0.003540 0.000000 0.000000 0.000000
# 2 -0.002147 0.012010 -0.003540 0.000000 0.000000 0.000000
# 3 -0.003540 -0.003540 0.014782 0.000000 0.000000 0.000000
# 4 0.000000 0.000000 0.000000 0.024378 0.000000 0.000000
# 5 0.000000 0.000000 0.000000 0.000000 0.024378 0.000000
# 6 0.000000 0.000000 0.000000 0.000000 0.000000 0.028314
#
#
# Mechanical properties :
#
#
# Convention : Reuss Voigt Hill
#
# Bulk Modulus (GPa) = 49.14915 49.32132 49.23523
# Shear Modulus (GPa) = 35.43353 36.15332 35.79342
#
# Velocity S-wave (km/s) = 4.20745 4.24997 4.22877
# Velocity P-wave (km/s) = 6.93964 6.98026 6.95998
#
# Compressibility (1/GPa) = 0.02034623
#
# Stress axis : x y z
#
# Youngs Moduli (GPa) = 83.26640 83.26640 67.64908
#
# Poissons Ratio (x) = 0.17879 0.23949
# Poissons Ratio (y) = 0.17879 0.23949
# Poissons Ratio (z) = 0.29478 0.29478
#
# Static dielectric constant tensor:
#      x y z
#    x 1.730740 0.000000 0.000000 
#    y 0.000000 1.730740 0.000000 
#    z 0.000000 0.000000 1.778950 
# 
# From -- ./inp_files/2643.got.cif
#   From: 2010.05.17/outbox.cif.g08.bks.cpg/sg175_2_cif.got.tgz:2643.got - 2010.05.20 11:23:22.
