data_PCOD9581998
_publ_section_title
;
Structure prediction by ZEFSAII (Michael W. Deem and Ramdas Pophale) SiO2 
 PCOD9581998
Probable space group: P 63/M
;
_chemical_formula_sum "Si O2"
_cell_formula_units_Z 66
_cell_length_a 19.954771
_cell_length_b 19.954771
_cell_length_c 8.477782
_cell_angle_alpha 90.000000
_cell_angle_beta 90.000000
_cell_angle_gamma 120.000000
_cell_volume 2923.522044
_symmetry_space_group_name_H-M "P 63/M"
_symmetry_group_IT_number 176
_symmetry_cell_setting 'hexagonal'
loop_
_space_group_symop_operation_xyz
x,y,z
x-y,x,1/2+z
-y,x-y,z
-x,-y,1/2+z
-x+y,-x,z
y,-x+y,1/2+z
-x,-y,-z
-x+y,-x,1/2-z
y,-x+y,-z
x,y,1/2-z
x-y,x,-z
-y,x-y,1/2-z
loop_
_atom_site_type_symbol
_atom_site_label
_atom_site_fract_x
_atom_site_fract_y
_atom_site_fract_z
Si Si1 0.629655 0.236402 0.750000
Si Si2 0.191360 0.772492 0.938542
Si Si3 0.969912 0.269294 0.438040
Si Si4 0.157938 0.597943 0.929479
Si Si5 0.077672 0.429176 0.933206
Si Si6 0.839385 0.868422 0.063103
O O1 0.718492 0.300285 0.750000
O O2 0.611092 0.198057 0.581792
O O3 0.193262 0.782530 0.750000
O O4 0.117268 0.775416 0.004930
O O5 0.167449 0.682082 0.955922
O O6 0.275516 0.841452 0.989426
O O7 0.964292 0.257945 0.250000
O O8 0.023060 0.234660 0.494348
O O9 0.009488 0.360083 0.472055
O O10 0.189479 0.601021 0.750000
O O11 0.082248 0.512386 0.934329
O O12 0.066346 0.404958 0.750000
O O13 0.833174 0.880766 0.250000
O O14 0.853825 0.942982 0.966737
#
# Coordination Sequence:
#
# PCOD9581998 Si02
#       6
#     6  12  12  12  12  12
#     4  10  22  34  54  90 124 152 198 254 306 376
#     4   9  19  39  61  84 119 160 202 248 306 376
#     4  10  22  39  61  87 121 165 204 249 305 364
#     4  10  21  39  62  89 122 166 202 255 320 373
#     4  10  21  38  62  89 117 158 207 254 306 372
#     4  11  23  40  64  94 127 164 205 251 307 364
#
# _framework density 22.575509
#
# number of rings (size 3 to 8) (size 9 to 14) (size 15 to 20)
#    0.182    1.818    0.000    2.909    1.273    5.818 
#    4.364    0.000    0.000    0.000    0.000    0.000 
#    0.000    0.000    0.000    0.000    0.000    0.000 
#
# Total GULP energy -367433.379102 kJ/mol
# GULP energy per Si atom -5567.172411 kJ/mol
# Density = 2.252413 g / cm^3
# Si number density = 22.575509 Si / 1000 Ang^3
#
#
#
# Elastic Constant Matrix: (Units=GPa)
#
#
# Indices 1 2 3 4 5 6 
#
# 1 50.6681 -8.5617 17.4722 0.0000 0.0000 0.0000
# 2 -8.5617 50.6681 17.4722 0.0000 0.0000 0.0000
# 3 17.4722 17.4722 40.9762 0.0000 0.0000 0.0000
# 4 0.0000 0.0000 0.0000 19.2465 0.0000 0.0000
# 5 0.0000 0.0000 0.0000 0.0000 19.2465 0.0000
# 6 0.0000 0.0000 0.0000 0.0000 0.0000 29.6149
#
#
#
# Elastic Compliance Matrix: (Units=1/GPa)
#
#
# Indices 1 2 3 4 5 6 
#
# 1 0.026820 0.009936 -0.015673 0.000000 0.000000 0.000000
# 2 0.009936 0.026820 -0.015673 0.000000 0.000000 0.000000
# 3 -0.015673 -0.015673 0.037770 0.000000 0.000000 0.000000
# 4 0.000000 0.000000 0.000000 0.051957 0.000000 0.000000
# 5 0.000000 0.000000 0.000000 0.000000 0.051957 0.000000
# 6 0.000000 0.000000 0.000000 0.000000 0.000000 0.033767
#
#
# Mechanical properties :
#
#
# Convention : Reuss Voigt Hill
#
# Bulk Modulus (GPa) = 20.57973 21.67529 21.12751
# Shear Modulus (GPa) = 17.35467 21.35026 19.35246
#
# Velocity S-wave (km/s) = 2.77562 3.07860 2.93103
# Velocity P-wave (km/s) = 4.40543 4.71796 4.56437
#
# Compressibility (1/GPa) = 0.04859151
#
# Stress axis : x y z
#
# Youngs Moduli (GPa) = 37.28579 37.28579 26.47595
#
# Poissons Ratio (x) = -0.37049 0.41495
# Poissons Ratio (y) = -0.37049 0.41495
# Poissons Ratio (z) = 0.58437 0.58437
#
# Static dielectric constant tensor:
#      x y z
#    x 1.874290 0.000000 0.000000 
#    y 0.000000 1.874290 0.000000 
#    z 0.000000 0.000000 1.700790 
# 
# From -- ./inp_files/965.got.cif
#   From: 2010.05.17/outbox.cif.g08.bks.cpg/sg176_1_cif.got.tgz:965.got - 2010.06.03 11:36:45.
