data_PCOD9581715
_publ_section_title
;
Structure prediction by ZEFSAII (Michael W. Deem and Ramdas Pophale) SiO2 
 PCOD9581715
Probable space group: P 6/M
;
_chemical_formula_sum "Si O2"
_cell_formula_units_Z 60
_cell_length_a 15.000000
_cell_length_b 15.000000
_cell_length_c 15.000000
_cell_angle_alpha 90.000000
_cell_angle_beta 90.000000
_cell_angle_gamma 120.000000
_cell_volume 2922.835738
_symmetry_space_group_name_H-M "P 6/M"
_symmetry_group_IT_number 175
_symmetry_cell_setting 'hexagonal'
loop_
_space_group_symop_operation_xyz
x,y,z
x-y,x,z
-y,x-y,z
-x,-y,z
-x+y,-x,z
y,-x+y,z
-x,-y,-z
-x+y,-x,-z
y,-x+y,-z
x,y,-z
x-y,x,-z
-y,x-y,-z
loop_
_atom_site_type_symbol
_atom_site_label
_atom_site_fract_x
_atom_site_fract_y
_atom_site_fract_z
Si Si1 0.335303 0.877913 0.898217
Si Si2 0.161683 0.236211 0.295041
Si Si3 0.550812 0.796612 0.391194
Si Si4 0.090218 0.760458 0.898362
Si Si5 0.416559 0.879322 0.295677
O O1 0.211891 0.795008 0.894040
O O2 0.387983 0.860849 0.810546
O O3 0.353041 0.995155 0.890428
O O4 0.369982 0.870407 0.000000
O O5 0.194066 0.151788 0.314038
O O6 0.224308 0.339122 0.353975
O O7 0.184266 0.263102 0.189310
O O8 0.543311 0.795565 0.500000
O O9 0.466756 0.816994 0.341076
O O10 0.532719 0.688404 0.351000
O O11 0.077792 0.792033 0.000000
O O12 0.500000 0.000000 0.305453
#
# Coordination Sequence:
#
# PCOD9581715 Si02
#       5
#    12  12  12  12  12
#     4  10  21  39  68 104 146 190 231 279 341 417
#     4  12  24  42  67 102 141 185 229 283 346 416
#     4  12  27  48  72 100 135 178 235 300 360 419
#     4  10  18  34  64 100 140 187 230 273 334 404
#     4  12  26  46  74 105 138 181 231 289 353 421
#
# _framework density 20.528009999999998
#
# number of rings (size 3 to 8) (size 9 to 14) (size 15 to 20)
#    0.000    0.800    4.000    3.600    0.000    4.400 
#    0.000    2.000    0.000    2.400    0.000    0.000 
#    0.000    0.000    0.000    0.000    0.000    0.000 
#
# Total GULP energy -335382.943034 kJ/mol
# GULP energy per Si atom -5589.715717 kJ/mol
# Density = 2.048129 g / cm^3
# Si number density = 20.528010 Si / 1000 Ang^3
#
#
#
# Elastic Constant Matrix: (Units=GPa)
#
#
# Indices 1 2 3 4 5 6 
#
# 1 82.6203 9.6427 58.1219 0.0000 0.0000 0.0000
# 2 9.6427 82.6203 58.1219 0.0000 0.0000 0.0000
# 3 58.1219 58.1219 187.3911 0.0000 0.0000 0.0000
# 4 0.0000 0.0000 0.0000 32.9285 0.0000 0.0000
# 5 0.0000 0.0000 0.0000 0.0000 32.9285 0.0000
# 6 0.0000 0.0000 0.0000 0.0000 0.0000 36.4888
#
#
#
# Elastic Compliance Matrix: (Units=1/GPa)
#
#
# Indices 1 2 3 4 5 6 
#
# 1 0.015747 0.002044 -0.005518 0.000000 0.000000 0.000000
# 2 0.002044 0.015747 -0.005518 0.000000 0.000000 0.000000
# 3 -0.005518 -0.005518 0.008759 0.000000 0.000000 0.000000
# 4 0.000000 0.000000 0.000000 0.030369 0.000000 0.000000
# 5 0.000000 0.000000 0.000000 0.000000 0.030369 0.000000
# 6 0.000000 0.000000 0.000000 0.000000 0.000000 0.027406
#
#
# Mechanical properties :
#
#
# Convention : Reuss Voigt Hill
#
# Bulk Modulus (GPa) = 44.90564 67.15609 56.03087
# Shear Modulus (GPa) = 32.50893 35.58550 34.04722
#
# Velocity S-wave (km/s) = 3.98381 4.16806 4.07698
# Velocity P-wave (km/s) = 6.56383 7.47991 7.03679
#
# Compressibility (1/GPa) = 0.02226892
#
# Stress axis : x y z
#
# Youngs Moduli (GPa) = 63.50465 63.50465 114.16226
#
# Poissons Ratio (x) = -0.12981 0.62996
# Poissons Ratio (y) = -0.12981 0.62996
# Poissons Ratio (z) = 0.35043 0.35043
#
# Static dielectric constant tensor:
#      x y z
#    x 1.750420 0.000000 0.000000 
#    y 0.000000 1.750420 0.000000 
#    z 0.000000 0.000000 1.713210 
# 
# From -- ./inp_files/2376.got.cif
#   From: 2010.05.17/outbox.ucp.g08.bks.cvg/sg175_2_cif.got.tgz:2376.got - 2010.06.11 15:18:44.
