data_PCOD9581555
_publ_section_title
;
Structure prediction by ZEFSAII (Michael W. Deem and Ramdas Pophale) SiO2 
 PCOD9581555
Probable space group: P 6/M
;
_chemical_formula_sum "Si O2"
_cell_formula_units_Z 66
_cell_length_a 21.048278
_cell_length_b 21.048278
_cell_length_c 7.960719
_cell_angle_alpha 90.000000
_cell_angle_beta 90.000000
_cell_angle_gamma 120.000000
_cell_volume 3054.330777
_symmetry_space_group_name_H-M "P 6/M"
_symmetry_group_IT_number 175
_symmetry_cell_setting 'hexagonal'
loop_
_space_group_symop_operation_xyz
x,y,z
x-y,x,z
-y,x-y,z
-x,-y,z
-x+y,-x,z
y,-x+y,z
-x,-y,-z
-x+y,-x,-z
y,-x+y,-z
x,y,-z
x-y,x,-z
-y,x-y,-z
loop_
_atom_site_type_symbol
_atom_site_label
_atom_site_fract_x
_atom_site_fract_y
_atom_site_fract_z
Si Si1 0.473288 0.823736 0.810233
Si Si2 0.861824 0.834445 0.000000
Si Si3 0.405314 0.028503 0.690219
Si Si4 0.219637 0.279752 0.699976
Si Si5 0.779034 0.195955 0.689283
Si Si6 0.881744 0.505447 0.808734
O O1 0.535573 0.909617 0.808877
O O2 0.512909 0.790286 0.702080
O O3 0.401355 0.824744 0.747860
O O4 0.461523 0.793693 0.000000
O O5 0.854069 0.907197 0.000000
O O6 0.821887 0.785180 0.833501
O O7 0.421534 0.057586 0.500000
O O8 0.324587 0.016803 0.727627
O O9 0.409043 0.955377 0.703629
O O10 0.206106 0.259034 0.500000
O O11 0.198057 0.343234 0.730614
O O12 0.758953 0.167508 0.500000
O O13 0.710096 0.149555 0.804793
O O14 0.899067 0.496984 0.000000
#
# Coordination Sequence:
#
# PCOD9581555 Si02
#       6
#    12   6  12  12  12  12
#     4  10  21  38  55  82 120 164 204 252 313 376
#     4  12  29  48  74 102 133 177 211 257 313 399
#     4  10  21  36  59  91 126 158 202 259 313 375
#     4   9  23  43  67 102 133 166 212 269 328 382
#     4  10  22  39  60  87 122 162 215 271 317 378
#     4  11  23  35  58  89 121 162 210 260 312 378
#
# _framework density 21.608663
#
# number of rings (size 3 to 8) (size 9 to 14) (size 15 to 20)
#    0.000    1.818    0.000    3.909   10.182    5.818 
#    1.091    0.000    0.000    1.091    0.000    0.000 
#    0.000    0.000    0.000    0.000    0.000    0.000 
#
# Total GULP energy -368319.645758 kJ/mol
# GULP energy per Si atom -5580.600693 kJ/mol
# Density = 2.155948 g / cm^3
# Si number density = 21.608663 Si / 1000 Ang^3
#
#
#
# Elastic Constant Matrix: (Units=GPa)
#
#
# Indices 1 2 3 4 5 6 
#
# 1 60.1234 15.4624 32.8428 0.0000 0.0000 0.0000
# 2 15.4624 60.1234 32.8428 0.0000 0.0000 0.0000
# 3 32.8428 32.8428 82.1730 0.0000 0.0000 0.0000
# 4 0.0000 0.0000 0.0000 13.9794 0.0000 0.0000
# 5 0.0000 0.0000 0.0000 0.0000 13.9794 0.0000
# 6 0.0000 0.0000 0.0000 0.0000 0.0000 22.3305
#
#
#
# Elastic Compliance Matrix: (Units=1/GPa)
#
#
# Indices 1 2 3 4 5 6 
#
# 1 0.021331 -0.001060 -0.008102 0.000000 0.000000 0.000000
# 2 -0.001060 0.021331 -0.008102 0.000000 0.000000 0.000000
# 3 -0.008102 -0.008102 0.018646 0.000000 0.000000 0.000000
# 4 0.000000 0.000000 0.000000 0.071534 0.000000 0.000000
# 5 0.000000 0.000000 0.000000 0.000000 0.071534 0.000000
# 6 0.000000 0.000000 0.000000 0.000000 0.000000 0.044782
#
#
# Mechanical properties :
#
#
# Convention : Reuss Voigt Hill
#
# Bulk Modulus (GPa) = 37.34146 40.52398 38.93272
# Shear Modulus (GPa) = 17.08757 18.14264 17.61511
#
# Velocity S-wave (km/s) = 2.81512 2.90073 2.85825
# Velocity P-wave (km/s) = 5.28061 5.47844 5.38043
#
# Compressibility (1/GPa) = 0.02677989
#
# Stress axis : x y z
#
# Youngs Moduli (GPa) = 46.88068 46.88068 53.63189
#
# Poissons Ratio (x) = 0.04970 0.43451
# Poissons Ratio (y) = 0.04970 0.43451
# Poissons Ratio (z) = 0.37981 0.37981
#
# Static dielectric constant tensor:
#      x y z
#    x 1.812810 0.000000 0.000000 
#    y 0.000000 1.812810 0.000000 
#    z 0.000000 0.000000 1.732640 
# 
# From -- ./inp_files/974.got.cif
#   From: 2010.05.17/outbox.cif.g08.bks.cpg/sg175_1_cif.got.tgz:974.got - 2010.05.20 11:23:22.
