data_PCOD9581023
_publ_section_title
;
Structure prediction by ZEFSAII (Michael W. Deem and Ramdas Pophale) SiO2 
 PCOD9581023
Probable space group: P 63
;
_chemical_formula_sum "Si O2"
_cell_formula_units_Z 42
_cell_length_a 20.460823
_cell_length_b 20.460823
_cell_length_c 5.310061
_cell_angle_alpha 90.000000
_cell_angle_beta 90.000000
_cell_angle_gamma 120.000000
_cell_volume 1925.202153
_symmetry_space_group_name_H-M "P 63"
_symmetry_group_IT_number 173
_symmetry_cell_setting 'hexagonal'
loop_
_space_group_symop_operation_xyz
x,y,z
x-y,x,1/2+z
-y,x-y,z
-x,-y,1/2+z
-x+y,-x,z
y,-x+y,1/2+z
loop_
_atom_site_type_symbol
_atom_site_label
_atom_site_fract_x
_atom_site_fract_y
_atom_site_fract_z
Si Si1 0.537741 0.052050 0.206940
Si Si2 0.107194 0.820703 0.008817
Si Si3 0.316011 0.911735 0.439946
Si Si4 0.040881 0.269274 0.751387
Si Si5 0.955070 0.299607 0.123332
Si Si6 0.227268 0.764315 0.130856
Si Si7 0.501765 0.184604 0.122019
O O1 0.531527 0.128114 0.201718
O O2 0.508934 0.003124 0.466643
O O3 0.626093 0.085774 0.144795
O O4 0.155818 0.780218 0.090946
O O5 0.035802 0.805135 0.176025
O O6 0.165393 0.905901 0.944033
O O7 0.063786 0.777805 0.755142
O O8 0.238751 0.907786 0.540858
O O9 0.291849 0.844588 0.239854
O O10 0.360032 0.993978 0.312713
O O11 0.004833 0.314528 0.882121
O O12 0.876283 0.291244 0.073873
O O13 0.221775 0.704393 0.345130
O O14 0.234244 0.732805 0.858182
#
# Coordination Sequence:
#
# PCOD9581023 Si02
#       7
#     6   6   6   6   6   6   6
#     4  12  25  39  63  96 137 175 217 271 342 398
#     4  10  22  33  57  86 128 165 209 260 326 386
#     4  11  23  37  61  92 128 172 220 262 326 407
#     4  11  21  37  58  91 131 170 212 269 329 393
#     4  10  19  35  57  85 129 162 203 260 317 390
#     4  11  22  38  61  87 126 174 215 262 323 388
#     4  11  22  39  57  91 129 170 208 266 327 390
#
# _framework density 21.815888999999999
#
# number of rings (size 3 to 8) (size 9 to 14) (size 15 to 20)
#    0.000    1.143    4.286    3.429    2.000    0.000 
#    0.000    0.000    0.000    0.571    0.000    4.000 
#   14.286    0.000    0.000    0.000    0.000    0.000 
#
# Total GULP energy -233873.219109 kJ/mol
# GULP energy per Si atom -5568.409979 kJ/mol
# Density = 2.176623 g / cm^3
# Si number density = 21.815889 Si / 1000 Ang^3
#
#
#
# Elastic Constant Matrix: (Units=GPa)
#
#
# Indices 1 2 3 4 5 6 
#
# 1 48.9077 9.3307 21.2738 0.0000 0.0000 0.0000
# 2 9.3307 48.9077 21.2738 0.0000 0.0000 0.0000
# 3 21.2738 21.2738 96.3869 0.0000 0.0000 0.0000
# 4 0.0000 0.0000 0.0000 28.1580 0.0000 0.0000
# 5 0.0000 0.0000 0.0000 0.0000 28.1580 0.0000
# 6 0.0000 0.0000 0.0000 0.0000 0.0000 19.7885
#
#
#
# Elastic Compliance Matrix: (Units=1/GPa)
#
#
# Indices 1 2 3 4 5 6 
#
# 1 0.022869 -0.002398 -0.004518 0.000000 0.000000 0.000000
# 2 -0.002398 0.022869 -0.004518 0.000000 0.000000 0.000000
# 3 -0.004518 -0.004518 0.012369 0.000000 0.000000 0.000000
# 4 0.000000 0.000000 0.000000 0.035514 0.000000 0.000000
# 5 0.000000 0.000000 0.000000 0.000000 0.035514 0.000000
# 6 0.000000 0.000000 0.000000 0.000000 0.000000 0.050534
#
#
# Mechanical properties :
#
#
# Convention : Reuss Voigt Hill
#
# Bulk Modulus (GPa) = 28.37725 33.10653 30.74189
# Shear Modulus (GPa) = 23.33332 24.70918 24.02125
#
# Velocity S-wave (km/s) = 3.27395 3.36910 3.32187
# Velocity P-wave (km/s) = 5.22758 5.50843 5.36984
#
# Compressibility (1/GPa) = 0.03523950
#
# Stress axis : x y z
#
# Youngs Moduli (GPa) = 43.72636 43.72636 80.84479
#
# Poissons Ratio (x) = 0.10484 0.36529
# Poissons Ratio (y) = 0.10484 0.36529
# Poissons Ratio (z) = 0.19757 0.19757
#
# Static dielectric constant tensor:
#      x y z
#    x 1.845090 0.000000 0.000000 
#    y 0.000000 1.845090 0.000000 
#    z 0.000000 0.000000 1.948000 
# 
# From -- ./inp_files/164.got.cif
#   From: 2010.05.17/outbox.cif.g08.bks.cpg/sg173_cif.got.tgz:164.got - 2010.05.20 11:21:53.
