data_PCOD9581691
_publ_section_title
;
Structure prediction by ZEFSAII (Michael W. Deem and Ramdas Pophale) SiO2 
 PCOD9581691
Probable space group: P 6/M
;
_chemical_formula_sum "Si O2"
_cell_formula_units_Z 60
_cell_length_a 14.417578
_cell_length_b 14.417578
_cell_length_c 14.749833
_cell_angle_alpha 90.000000
_cell_angle_beta 90.000000
_cell_angle_gamma 120.000000
_cell_volume 2655.231271
_symmetry_space_group_name_H-M "P 6/M"
_symmetry_group_IT_number 175
_symmetry_cell_setting 'hexagonal'
loop_
_space_group_symop_operation_xyz
x,y,z
x-y,x,z
-y,x-y,z
-x,-y,z
-x+y,-x,z
y,-x+y,z
-x,-y,-z
-x+y,-x,-z
y,-x+y,-z
x,y,-z
x-y,x,-z
-y,x-y,-z
loop_
_atom_site_type_symbol
_atom_site_label
_atom_site_fract_x
_atom_site_fract_y
_atom_site_fract_z
Si Si1 0.423825 0.569497 0.727221
Si Si2 0.363471 0.302934 0.828671
Si Si3 0.163300 0.916398 0.340374
Si Si4 0.774690 0.248873 0.397071
Si Si5 0.708582 0.537346 0.100235
O O1 0.541910 0.606891 0.766134
O O2 0.345470 0.473681 0.658788
O O3 0.451236 0.670859 0.663029
O O4 0.353318 0.544441 0.818293
O O5 0.284787 0.206101 0.762664
O O6 0.311251 0.362948 0.880212
O O7 0.419632 0.254003 0.890561
O O8 0.215725 0.857467 0.394467
O O9 0.038036 0.840326 0.358537
O O10 0.770206 0.278996 0.500000
O O11 0.668949 0.493796 0.000000
#
# Coordination Sequence:
#
# PCOD9581691 Si02
#       5
#    12  12  12  12  12
#     4  11  22  43  65 100 133 175 224 274 338 406
#     4  11  23  42  68  97 135 180 230 281 338 406
#     4  11  22  43  72 102 139 182 227 288 351 415
#     4  11  24  44  73 103 137 179 231 292 349 409
#     4  12  25  43  68  99 141 184 227 281 343 413
#
# _framework density 22.596903000000001
#
# number of rings (size 3 to 8) (size 9 to 14) (size 15 to 20)
#    0.000    0.800    6.000    2.400    0.000    4.800 
#    0.000    0.000    0.000   10.800    0.000    2.800 
#    0.000    0.000    0.000    0.000    0.000    0.000 
#
# Total GULP energy -334983.391107 kJ/mol
# GULP energy per Si atom -5583.056518 kJ/mol
# Density = 2.254547 g / cm^3
# Si number density = 22.596903 Si / 1000 Ang^3
#
#
#
# Elastic Constant Matrix: (Units=GPa)
#
#
# Indices 1 2 3 4 5 6 
#
# 1 118.0137 37.6851 41.3729 0.0000 0.0000 0.0000
# 2 37.6851 118.0137 41.3729 0.0000 0.0000 0.0000
# 3 41.3729 41.3729 183.4361 0.0000 0.0000 0.0000
# 4 0.0000 0.0000 0.0000 15.2168 0.0000 0.0000
# 5 0.0000 0.0000 0.0000 0.0000 15.2168 0.0000
# 6 0.0000 0.0000 0.0000 0.0000 0.0000 40.1643
#
#
#
# Elastic Compliance Matrix: (Units=1/GPa)
#
#
# Indices 1 2 3 4 5 6 
#
# 1 0.009873 -0.002576 -0.001646 0.000000 0.000000 0.000000
# 2 -0.002576 0.009873 -0.001646 0.000000 0.000000 0.000000
# 3 -0.001646 -0.001646 0.006194 0.000000 0.000000 0.000000
# 4 0.000000 0.000000 0.000000 0.065717 0.000000 0.000000
# 5 0.000000 0.000000 0.000000 0.000000 0.065717 0.000000
# 6 0.000000 0.000000 0.000000 0.000000 0.000000 0.024898
#
#
# Mechanical properties :
#
#
# Convention : Reuss Voigt Hill
#
# Bulk Modulus (GPa) = 70.39707 73.36947 71.88327
# Shear Modulus (GPa) = 25.15832 34.05510 29.60671
#
# Velocity S-wave (km/s) = 3.34031 3.88631 3.62361
# Velocity P-wave (km/s) = 6.78955 7.25791 7.02763
#
# Compressibility (1/GPa) = 0.01420514
#
# Stress axis : x y z
#
# Youngs Moduli (GPa) = 101.28522 101.28522 161.44860
#
# Poissons Ratio (x) = 0.26089 0.26572
# Poissons Ratio (y) = 0.26089 0.26572
# Poissons Ratio (z) = 0.16670 0.16670
#
# Static dielectric constant tensor:
#      x y z
#    x 1.903950 0.000000 0.000000 
#    y 0.000000 1.903950 0.000000 
#    z 0.000000 0.000000 1.808380 
# 
# From -- ./inp_files/2384.got.cif
#   From: 2010.05.17/outbox.cif.g08.bks.cpg/sg175_2_cif.got.tgz:2384.got - 2010.05.20 11:23:22.
