data_PCOD9581988
_publ_section_title
;
Structure prediction by ZEFSAII (Michael W. Deem and Ramdas Pophale) SiO2 
 PCOD9581988
Probable space group: P 63/M
;
_chemical_formula_sum "Si O2"
_cell_formula_units_Z 36
_cell_length_a 15.516409
_cell_length_b 15.516409
_cell_length_c 8.354458
_cell_angle_alpha 90.000000
_cell_angle_beta 90.000000
_cell_angle_gamma 120.000000
_cell_volume 1741.932609
_symmetry_space_group_name_H-M "P 63/M"
_symmetry_group_IT_number 176
_symmetry_cell_setting 'hexagonal'
loop_
_space_group_symop_operation_xyz
x,y,z
x-y,x,1/2+z
-y,x-y,z
-x,-y,1/2+z
-x+y,-x,z
y,-x+y,1/2+z
-x,-y,-z
-x+y,-x,1/2-z
y,-x+y,-z
x,y,1/2-z
x-y,x,-z
-y,x-y,1/2-z
loop_
_atom_site_type_symbol
_atom_site_label
_atom_site_fract_x
_atom_site_fract_y
_atom_site_fract_z
Si Si1 0.562740 0.796890 0.055983
Si Si2 0.215797 0.069556 0.435790
Si Si3 0.539392 0.428249 0.557309
O O1 0.570357 0.800388 0.250000
O O2 0.528040 0.684996 0.000980
O O3 0.478276 0.823466 0.009896
O O4 0.669235 0.876369 0.987005
O O5 0.206097 0.041232 0.250000
O O6 0.178018 0.147725 0.465382
O O7 0.500000 0.500000 0.500000
O O8 0.536751 0.425006 0.750000
#
# Coordination Sequence:
#
# PCOD9581988 Si02
#       3
#    12  12  12
#     4  10  21  39  61  88 121 160 200 242 294 352
#     4  12  25  42  63  89 120 156 197 246 299 357
#     4  10  21  37  59  85 117 154 195 240 289 343
#
# _framework density 20.666701
#
# number of rings (size 3 to 8) (size 9 to 14) (size 15 to 20)
#    0.000    1.333    0.000    6.000    0.000   10.667 
#    0.000    0.000    0.000    4.000    0.000    0.000 
#    0.000    0.000    0.000    0.000    0.000    0.000 
#
# Total GULP energy -201418.037598 kJ/mol
# GULP energy per Si atom -5594.945489 kJ/mol
# Density = 2.061966 g / cm^3
# Si number density = 20.666701 Si / 1000 Ang^3
#
#
#
# Elastic Constant Matrix: (Units=GPa)
#
#
# Indices 1 2 3 4 5 6 
#
# 1 52.6707 -33.3231 -0.2880 0.0000 0.0000 0.0000
# 2 -33.3231 52.6707 -0.2880 0.0000 0.0000 0.0000
# 3 -0.2880 -0.2880 18.8586 0.0000 0.0000 0.0000
# 4 0.0000 0.0000 0.0000 10.4207 0.0000 0.0000
# 5 0.0000 0.0000 0.0000 0.0000 10.4207 0.0000
# 6 0.0000 0.0000 0.0000 0.0000 0.0000 42.9969
#
#
#
# Elastic Compliance Matrix: (Units=1/GPa)
#
#
# Indices 1 2 3 4 5 6 
#
# 1 0.031669 0.020040 0.000790 0.000000 0.000000 0.000000
# 2 0.020040 0.031669 0.000790 0.000000 0.000000 0.000000
# 3 0.000790 0.000790 0.053050 0.000000 0.000000 0.000000
# 4 0.000000 0.000000 0.000000 0.095962 0.000000 0.000000
# 5 0.000000 0.000000 0.000000 0.000000 0.095962 0.000000
# 6 0.000000 0.000000 0.000000 0.000000 0.000000 0.023257
#
#
# Mechanical properties :
#
#
# Convention : Reuss Voigt Hill
#
# Bulk Modulus (GPa) = 6.26458 6.26688 6.26573
# Shear Modulus (GPa) = 14.63954 23.30761 18.97358
#
# Velocity S-wave (km/s) = 2.66440 3.36190 3.03326
# Velocity P-wave (km/s) = 3.53598 4.25544 3.91228
#
# Compressibility (1/GPa) = 0.15962770
#
# Stress axis : x y z
#
# Youngs Moduli (GPa) = 31.57651 31.57651 18.85005
#
# Poissons Ratio (x) = -0.63280 -0.01488
# Poissons Ratio (y) = -0.63280 -0.01488
# Poissons Ratio (z) = -0.02493 -0.02493
#
# Static dielectric constant tensor:
#      x y z
#    x 1.715500 0.000000 0.000000 
#    y 0.000000 1.715500 0.000000 
#    z 0.000000 0.000000 1.716150 
# 
# From -- ./inp_files/348.got.cif
#   From: 2010.05.17/outbox.cif.g08.bks.cpg/sg176_1_cif.got.tgz:348.got - 2010.06.03 11:36:45.
