data_PCOD9581224
_publ_section_title
;
Structure prediction by ZEFSAII (Michael W. Deem and Ramdas Pophale) SiO2 
 PCOD9581224
Probable space group: P -6
;
_chemical_formula_sum "Si O2"
_cell_formula_units_Z 32
_cell_length_a 14.697313
_cell_length_b 14.697313
_cell_length_c 8.647543
_cell_angle_alpha 90.000000
_cell_angle_beta 90.000000
_cell_angle_gamma 120.000000
_cell_volume 1617.704704
_symmetry_space_group_name_H-M "P -6"
_symmetry_group_IT_number 174
_symmetry_cell_setting 'hexagonal'
loop_
_space_group_symop_operation_xyz
x,y,z
-x+y,-x,-z
-y,x-y,z
x,y,-z
-x+y,-x,z
-y,x-y,-z
loop_
_atom_site_type_symbol
_atom_site_label
_atom_site_fract_x
_atom_site_fract_y
_atom_site_fract_z
Si Si1 0.666668 0.544504 0.686193
Si Si2 0.152150 0.211419 0.320300
Si Si3 0.834260 0.766554 0.182612
Si Si4 0.099885 0.500927 0.817387
Si Si5 0.666668 0.333334 0.311845
Si Si6 0.181185 0.725938 0.320299
O O1 0.666669 0.547394 0.500000
O O2 0.767282 0.649983 0.748081
O O3 0.566053 0.549367 0.748078
O O4 0.666670 0.439043 0.736420
O O5 0.141313 0.178511 0.500000
O O6 0.184683 0.141369 0.220156
O O7 0.239780 0.333333 0.310150
O O8 0.043644 0.200583 0.262271
O O9 0.815870 0.763047 0.000000
O O10 0.148649 0.623352 0.779840
O O11 0.176393 0.466083 0.737734
O O12 0.096376 0.482538 0.000000
O O13 0.666667 0.333334 0.500000
O O14 0.192024 0.703869 0.500000
#
# Coordination Sequence:
#
# PCOD9581224 Si02
#       6
#     6   6   6   6   2   6
#     4  11  23  45  70  97 130 175 227 274 324 393
#     4  11  24  43  68  95 127 173 222 266 318 393
#     4  12  25  42  66  99 137 172 211 273 336 392
#     4  12  25  42  66  99 137 172 211 273 336 392
#     4   9  24  45  70  95 124 171 229 278 316 375
#     4  11  24  43  68  95 127 173 222 266 318 393
#
# _framework density 19.781113999999999
#
# number of rings (size 3 to 8) (size 9 to 14) (size 15 to 20)
#    0.000    0.750    1.875    5.812    2.625    2.250 
#    0.000    2.812    0.000    0.000    0.000    0.000 
#    0.000    0.000    0.000    0.000    0.000    0.000 
#
# Total GULP energy -179095.495248 kJ/mol
# GULP energy per Si atom -5596.734226 kJ/mol
# Density = 1.973609 g / cm^3
# Si number density = 19.781114 Si / 1000 Ang^3
#
#
#
# Elastic Constant Matrix: (Units=GPa)
#
#
# Indices 1 2 3 4 5 6 
#
# 1 96.6672 30.0813 -4.5529 0.0000 0.0000 0.0000
# 2 30.0813 96.6664 -4.5530 0.0000 0.0000 -0.0003
# 3 -4.5529 -4.5530 65.5065 0.0000 0.0000 0.0000
# 4 0.0000 0.0000 0.0000 140.8500 -0.0008 0.0000
# 5 0.0000 0.0000 0.0000 -0.0008 140.8495 0.0000
# 6 0.0000 -0.0003 0.0000 0.0000 0.0000 33.2925
#
#
#
# Elastic Compliance Matrix: (Units=1/GPa)
#
#
# Indices 1 2 3 4 5 6 
#
# 1 0.011474 -0.003545 0.000551 0.000000 0.000000 0.000000
# 2 -0.003545 0.011474 0.000551 0.000000 0.000000 0.000000
# 3 0.000551 0.000551 0.015342 0.000000 0.000000 0.000000
# 4 0.000000 0.000000 0.000000 0.007100 0.000000 0.000000
# 5 0.000000 0.000000 0.000000 0.000000 0.007100 0.000000
# 6 0.000000 0.000000 0.000000 0.000000 0.000000 0.030037
#
#
# Mechanical properties :
#
#
# Convention : Reuss Voigt Hill
#
# Bulk Modulus (GPa) = 29.93541 33.42120 31.67831
# Shear Modulus (GPa) = 50.73783 78.85605 64.79694
#
# Velocity S-wave (km/s) = 5.07004 6.32067 5.72958
# Velocity P-wave (km/s) = 7.03135 8.37854 7.73434
#
# Compressibility (1/GPa) = 0.03340525
#
# Stress axis : x y z
#
# Youngs Moduli (GPa) = 87.15567 87.15496 65.17938
#
# Poissons Ratio (x) = 0.30892 -0.03592
# Poissons Ratio (y) = 0.30892 -0.03592
# Poissons Ratio (z) = -0.04803 -0.04803
#
# Static dielectric constant tensor:
#      x y z
#    x 1.669830 0.000000 0.000000 
#    y 0.000000 1.669830 0.000000 
#    z 0.000000 0.000000 1.663730 
# 
# From -- ./inp_files/357.got.cif
#   From: 2010.05.17/outbox.cif.g08.bks.cpg/sg174_cif.got.tgz:357.got - 2010.05.20 11:22:48.
