data_PCOD9581457
_publ_section_title
;
Structure prediction by ZEFSAII (Michael W. Deem and Ramdas Pophale) SiO2 
 PCOD9581457
Probable space group: P 6/M
;
_chemical_formula_sum "Si O2"
_cell_formula_units_Z 78
_cell_length_a 24.039203
_cell_length_b 24.039203
_cell_length_c 8.623144
_cell_angle_alpha 90.000000
_cell_angle_beta 90.000000
_cell_angle_gamma 120.000000
_cell_volume 4315.552458
_symmetry_space_group_name_H-M "P 6/M"
_symmetry_group_IT_number 175
_symmetry_cell_setting 'hexagonal'
loop_
_space_group_symop_operation_xyz
x,y,z
x-y,x,z
-y,x-y,z
-x,-y,z
-x+y,-x,z
y,-x+y,z
-x,-y,-z
-x+y,-x,-z
y,-x+y,-z
x,y,-z
x-y,x,-z
-y,x-y,-z
loop_
_atom_site_type_symbol
_atom_site_label
_atom_site_fract_x
_atom_site_fract_y
_atom_site_fract_z
Si Si1 0.635977 0.153159 0.324506
Si Si2 0.045900 0.675723 0.316283
Si Si3 0.379220 0.289047 0.821387
Si Si4 0.828325 0.206384 0.321245
Si Si5 0.496931 0.931726 0.818435
Si Si6 0.712014 0.466911 0.326198
Si Si7 0.737815 0.330375 0.000000
O O1 0.641685 0.133915 0.500000
O O2 0.667156 0.122472 0.213502
O O3 0.561921 0.121246 0.281095
O O4 0.680587 0.229984 0.320804
O O5 0.054269 0.671050 0.500000
O O6 0.099180 0.747401 0.267442
O O7 0.059822 0.624404 0.231945
O O8 0.973812 0.657446 0.279185
O O9 0.361625 0.217293 0.777978
O O10 0.367382 0.295244 0.000000
O O11 0.827303 0.186782 0.500000
O O12 0.796124 0.251869 0.321121
O O13 0.500000 0.000000 0.794995
O O14 0.484919 0.915234 0.000000
O O15 0.681405 0.446604 0.500000
O O16 0.675176 0.441771 0.163264
O O17 0.728441 0.392030 0.000000
#
# Coordination Sequence:
#
# PCOD9581457 Si02
#       7
#    12  12  12  12  12  12   6
#     4  10  20  34  54  74  95 132 171 211 273 331
#     4  11  22  37  57  80 109 141 181 226 267 328
#     4  11  21  34  55  81 110 140 171 214 271 327
#     4   9  21  39  58  81 103 139 182 216 271 327
#     4  11  22  33  48  77 109 134 168 219 274 323
#     4   9  20  39  58  74  97 129 172 223 273 335
#     4  10  24  38  52  76  91 125 175 214 280 338
#
# _framework density 18.074162999999999
#
# number of rings (size 3 to 8) (size 9 to 14) (size 15 to 20)
#    0.154    1.692    1.538    3.692    5.385    3.692 
#    0.000    3.077    0.000    0.000    0.000    0.000 
#    0.000    0.000    0.000    0.462    0.000    8.923 
#
# Total GULP energy -435916.757070 kJ/mol
# GULP energy per Si atom -5588.676373 kJ/mol
# Density = 1.803303 g / cm^3
# Si number density = 18.074163 Si / 1000 Ang^3
#
#
#
# Elastic Constant Matrix: (Units=GPa)
#
#
# Indices 1 2 3 4 5 6 
#
# 1 54.1653 11.6852 13.0206 0.0000 0.0000 0.0000
# 2 11.6852 54.1653 13.0206 0.0000 0.0000 0.0000
# 3 13.0206 13.0206 76.9340 0.0000 0.0000 0.0000
# 4 0.0000 0.0000 0.0000 14.6223 0.0000 0.0000
# 5 0.0000 0.0000 0.0000 0.0000 14.6223 0.0000
# 6 0.0000 0.0000 0.0000 0.0000 0.0000 21.2400
#
#
#
# Elastic Compliance Matrix: (Units=1/GPa)
#
#
# Indices 1 2 3 4 5 6 
#
# 1 0.019908 -0.003633 -0.002754 0.000000 0.000000 0.000000
# 2 -0.003633 0.019908 -0.002754 0.000000 0.000000 0.000000
# 3 -0.002754 -0.002754 0.013931 0.000000 0.000000 0.000000
# 4 0.000000 0.000000 0.000000 0.068389 0.000000 0.000000
# 5 0.000000 0.000000 0.000000 0.000000 0.068389 0.000000
# 6 0.000000 0.000000 0.000000 0.000000 0.000000 0.047081
#
#
# Mechanical properties :
#
#
# Convention : Reuss Voigt Hill
#
# Bulk Modulus (GPa) = 28.19842 28.96862 28.58352
# Shear Modulus (GPa) = 18.67702 19.93280 19.30491
#
# Velocity S-wave (km/s) = 3.21807 3.32450 3.27172
# Velocity P-wave (km/s) = 5.42617 5.54967 5.48827
#
# Compressibility (1/GPa) = 0.03546298
#
# Stress axis : x y z
#
# Youngs Moduli (GPa) = 50.23150 50.23150 71.78487
#
# Poissons Ratio (x) = 0.18247 0.19773
# Poissons Ratio (y) = 0.18247 0.19773
# Poissons Ratio (z) = 0.13836 0.13836
#
# Static dielectric constant tensor:
#      x y z
#    x 1.630840 0.000000 0.000000 
#    y 0.000000 1.630840 0.000000 
#    z 0.000000 0.000000 1.626980 
# 
# From -- ./inp_files/1359.got.cif
#   From: 2010.05.17/outbox.cif.g08.bks.cpg/sg175_1_cif.got.tgz:1359.got - 2010.05.20 11:23:22.
