data_PCOD9581634
_publ_section_title
;
Structure prediction by ZEFSAII (Michael W. Deem and Ramdas Pophale) SiO2 
 PCOD9581634
Probable space group: P 6/M
;
_chemical_formula_sum "Si O2"
_cell_formula_units_Z 76
_cell_length_a 16.410752
_cell_length_b 16.410752
_cell_length_c 13.402034
_cell_angle_alpha 90.000000
_cell_angle_beta 90.000000
_cell_angle_gamma 120.000000
_cell_volume 3125.779308
_symmetry_space_group_name_H-M "P 6/M"
_symmetry_group_IT_number 175
_symmetry_cell_setting 'hexagonal'
loop_
_space_group_symop_operation_xyz
x,y,z
x-y,x,z
-y,x-y,z
-x,-y,z
-x+y,-x,z
y,-x+y,z
-x,-y,-z
-x+y,-x,-z
y,-x+y,-z
x,y,-z
x-y,x,-z
-y,x-y,-z
loop_
_atom_site_type_symbol
_atom_site_label
_atom_site_fract_x
_atom_site_fract_y
_atom_site_fract_z
Si Si1 0.853142 0.325341 0.827152
Si Si2 0.815495 0.014333 0.318375
Si Si3 0.317598 0.471791 0.612268
Si Si4 0.513344 0.654846 0.820966
Si Si5 0.301260 0.899615 0.608726
Si Si6 0.719965 0.723493 0.892206
Si Si7 0.666668 0.333334 0.382467
O O1 0.900004 0.342549 0.716030
O O2 0.866529 0.425269 0.859247
O O3 0.742460 0.247959 0.824737
O O4 0.905102 0.279604 0.885610
O O5 0.738219 0.029052 0.377997
O O6 0.788548 0.014652 0.201875
O O7 0.917315 0.104269 0.339607
O O8 0.351704 0.470101 0.500000
O O9 0.204637 0.414357 0.607670
O O10 0.345011 0.578614 0.640753
O O11 0.539111 0.644922 0.705872
O O12 0.609688 0.688904 0.879696
O O13 0.346951 0.910956 0.500000
O O14 0.754912 0.768622 0.000000
O O15 0.666667 0.333334 0.500000
#
# Coordination Sequence:
#
# PCOD9581634 Si02
#       7
#    12  12  12  12  12  12   4
#     4  11  21  37  62  94 130 169 217 268 320 375
#     4  11  24  44  70  98 124 155 202 263 327 388
#     4   9  16  28  50  84 126 169 210 252 298 350
#     4  10  22  38  61  94 129 170 219 269 319 374
#     4   9  19  36  58  89 131 173 208 243 292 358
#     4  11  25  46  67  87 120 165 208 257 329 410
#     4   9  15  24  48  87 130 179 229 270 303 336
#
# _framework density 24.313938
#
# number of rings (size 3 to 8) (size 9 to 14) (size 15 to 20)
#    0.000    1.895    0.000    5.684    0.000    6.316 
#    0.000    4.737    0.000    8.526    0.000    0.000 
#    0.000    0.000    0.000    0.000    0.000    0.000 
#
# Total GULP energy -424885.838385 kJ/mol
# GULP energy per Si atom -5590.603137 kJ/mol
# Density = 2.425860 g / cm^3
# Si number density = 24.313938 Si / 1000 Ang^3
#
#
#
# Elastic Constant Matrix: (Units=GPa)
#
#
# Indices 1 2 3 4 5 6 
#
# 1 101.6319 15.6053 -19.0238 0.0000 0.0000 -0.0002
# 2 15.6053 101.6306 -19.0235 0.0000 0.0000 0.0002
# 3 -19.0238 -19.0235 77.2444 0.0000 0.0000 -0.0001
# 4 0.0000 0.0000 0.0000 9.1541 0.0001 0.0000
# 5 0.0000 0.0000 0.0000 0.0001 9.1545 0.0000
# 6 -0.0002 0.0002 -0.0001 0.0000 0.0000 43.0125
#
#
#
# Elastic Compliance Matrix: (Units=1/GPa)
#
#
# Indices 1 2 3 4 5 6 
#
# 1 0.010448 -0.001177 0.002283 0.000000 0.000000 0.000000
# 2 -0.001177 0.010448 0.002283 0.000000 0.000000 0.000000
# 3 0.002283 0.002283 0.014071 0.000000 0.000000 0.000000
# 4 0.000000 0.000000 0.000000 0.109240 -0.000001 0.000000
# 5 0.000000 0.000000 0.000000 -0.000001 0.109236 0.000000
# 6 0.000000 0.000000 0.000000 0.000000 0.000000 0.023249
#
#
# Mechanical properties :
#
#
# Convention : Reuss Voigt Hill
#
# Bulk Modulus (GPa) = 23.95513 26.18033 25.06773
# Shear Modulus (GPa) = 17.61634 32.46082 25.03858
#
# Velocity S-wave (km/s) = 2.69464 3.65783 3.21254
# Velocity P-wave (km/s) = 4.42213 5.35076 4.90845
#
# Compressibility (1/GPa) = 0.04174471
#
# Stress axis : x y z
#
# Youngs Moduli (GPa) = 95.71666 95.71553 71.07060
#
# Poissons Ratio (x) = 0.11264 -0.16227
# Poissons Ratio (y) = 0.11264 -0.16227
# Poissons Ratio (z) = -0.21854 -0.21854
#
# Static dielectric constant tensor:
#      x y z
#    x 1.752830 -0.000010 0.000000 
#    y -0.000010 1.752800 0.000000 
#    z 0.000000 0.000000 1.960520 
# 
# From -- ./inp_files/2561.got.cif
#   From: 2010.05.17/outbox.cif.g08.bks.cpg/sg175_2_cif.got.tgz:2561.got - 2010.05.20 11:23:22.
