data_PCOD9581269
_publ_section_title
;
Structure prediction by ZEFSAII (Michael W. Deem and Ramdas Pophale) SiO2 
 PCOD9581269
Probable space group: P 6/M
;
_chemical_formula_sum "Si O2"
_cell_formula_units_Z 72
_cell_length_a 24.420248
_cell_length_b 24.420248
_cell_length_c 8.533671
_cell_angle_alpha 90.000000
_cell_angle_beta 90.000000
_cell_angle_gamma 120.000000
_cell_volume 4407.239658
_symmetry_space_group_name_H-M "P 6/M"
_symmetry_group_IT_number 175
_symmetry_cell_setting 'hexagonal'
loop_
_space_group_symop_operation_xyz
x,y,z
x-y,x,z
-y,x-y,z
-x,-y,z
-x+y,-x,z
y,-x+y,z
-x,-y,-z
-x+y,-x,-z
y,-x+y,-z
x,y,-z
x-y,x,-z
-y,x-y,-z
loop_
_atom_site_type_symbol
_atom_site_label
_atom_site_fract_x
_atom_site_fract_y
_atom_site_fract_z
Si Si1 0.141638 0.404218 0.190207
Si Si2 0.261866 0.070985 0.686910
Si Si3 0.931414 0.741690 0.811494
Si Si4 0.734577 0.596601 0.188449
Si Si5 0.405785 0.926519 0.188013
Si Si6 0.067557 0.595154 0.685894
O O1 0.094097 0.331496 0.236475
O O2 0.211764 0.420414 0.237910
O O3 0.117036 0.450791 0.243132
O O4 0.141307 0.404987 0.000000
O O5 0.266055 0.074916 0.500000
O O6 0.243140 0.121233 0.752177
O O7 0.331241 0.092605 0.757045
O O8 0.214126 0.000081 0.741096
O O9 0.934165 0.744670 0.000000
O O10 0.666168 0.551916 0.259803
O O11 0.730510 0.594564 0.000000
O O12 0.456128 0.910189 0.262348
O O13 0.429653 0.999105 0.233902
O O14 0.408374 0.922644 0.000000
O O15 0.059045 0.592190 0.500000
#
# Coordination Sequence:
#
# PCOD9581269 Si02
#       6
#    12  12  12  12  12  12
#     4   8  17  31  51  74  95 121 163 206 240 284
#     4  11  21  33  50  77 106 132 164 210 256 294
#     4  10  19  34  53  74 101 137 171 202 243 301
#     4  10  19  34  52  72  98 132 168 204 246 301
#     4  10  18  32  52  73  96 129 165 202 247 297
#     4  11  21  32  46  72 103 131 162 202 247 295
#
# _framework density 16.336756000000001
#
# number of rings (size 3 to 8) (size 9 to 14) (size 15 to 20)
#    0.000    2.000    0.000    7.500    0.000    1.333 
#    0.000    9.167    0.000    1.000    0.000    4.667 
#    0.000    0.000    0.000    0.000    0.000    0.000 
#
# Total GULP energy -401888.657078 kJ/mol
# GULP energy per Si atom -5581.786904 kJ/mol
# Density = 1.629957 g / cm^3
# Si number density = 16.336756 Si / 1000 Ang^3
#
#
#
# Elastic Constant Matrix: (Units=GPa)
#
#
# Indices 1 2 3 4 5 6 
#
# 1 108.8518 67.2441 6.8907 0.0000 0.0000 0.0000
# 2 67.2441 108.8518 6.8907 0.0000 0.0000 0.0000
# 3 6.8907 6.8907 47.8481 0.0000 0.0000 0.0000
# 4 0.0000 0.0000 0.0000 7.2959 0.0000 0.0000
# 5 0.0000 0.0000 0.0000 0.0000 7.2959 0.0000
# 6 0.0000 0.0000 0.0000 0.0000 0.0000 20.8039
#
#
#
# Elastic Compliance Matrix: (Units=1/GPa)
#
#
# Indices 1 2 3 4 5 6 
#
# 1 0.014889 -0.009145 -0.000827 0.000000 0.000000 0.000000
# 2 -0.009145 0.014889 -0.000827 0.000000 0.000000 0.000000
# 3 -0.000827 -0.000827 0.021138 0.000000 0.000000 0.000000
# 4 0.000000 0.000000 0.000000 0.137063 0.000000 0.000000
# 5 0.000000 0.000000 0.000000 0.000000 0.137063 0.000000
# 6 0.000000 0.000000 0.000000 0.000000 0.000000 0.048068
#
#
# Mechanical properties :
#
#
# Convention : Reuss Voigt Hill
#
# Bulk Modulus (GPa) = 34.11094 47.51140 40.81117
# Shear Modulus (GPa) = 12.36153 19.38088 15.87120
#
# Velocity S-wave (km/s) = 2.75375 3.44806 3.12028
# Velocity P-wave (km/s) = 5.57100 6.70804 6.16579
#
# Compressibility (1/GPa) = 0.02931610
#
# Stress axis : x y z
#
# Youngs Moduli (GPa) = 67.16488 67.16488 47.30883
#
# Poissons Ratio (x) = 0.61424 0.03913
# Poissons Ratio (y) = 0.61424 0.03913
# Poissons Ratio (z) = 0.05555 0.05555
#
# Static dielectric constant tensor:
#      x y z
#    x 1.536160 0.000000 0.000000 
#    y 0.000000 1.536160 0.000000 
#    z 0.000000 0.000000 1.546870 
# 
# From -- ./inp_files/1215.got.cif
#   From: 2010.05.17/outbox.cif.g08.bks.cpg/sg175_1_cif.got.tgz:1215.got - 2010.05.20 11:23:22.
