data_PCOD9581121
_publ_section_title
;
Structure prediction by ZEFSAII (Michael W. Deem and Ramdas Pophale) SiO2 
 PCOD9581121
Probable space group: P 63
;
_chemical_formula_sum "Si O2"
_cell_formula_units_Z 42
_cell_length_a 21.000000
_cell_length_b 21.000000
_cell_length_c 6.000000
_cell_angle_alpha 90.000000
_cell_angle_beta 90.000000
_cell_angle_gamma 120.000000
_cell_volume 2291.503218
_symmetry_space_group_name_H-M "P 63"
_symmetry_group_IT_number 173
_symmetry_cell_setting 'hexagonal'
loop_
_space_group_symop_operation_xyz
x,y,z
x-y,x,1/2+z
-y,x-y,z
-x,-y,1/2+z
-x+y,-x,z
y,-x+y,1/2+z
loop_
_atom_site_type_symbol
_atom_site_label
_atom_site_fract_x
_atom_site_fract_y
_atom_site_fract_z
Si Si1 0.187974 0.633262 0.170050
Si Si2 0.496157 0.739901 0.876462
Si Si3 0.522988 0.058649 0.344981
Si Si4 0.386883 0.382581 0.585478
Si Si5 0.735017 0.581606 0.982512
Si Si6 0.533372 0.369998 0.025859
Si Si7 0.861690 0.601081 0.756344
O O1 0.180132 0.691366 0.323184
O O2 0.208068 0.585516 0.325537
O O3 0.243571 0.681420 0.984825
O O4 0.111319 0.579248 0.049359
O O5 0.549172 0.807121 0.716667
O O6 0.455403 0.667346 0.736274
O O7 0.548037 0.732527 0.054445
O O8 0.580346 0.031188 0.398727
O O9 0.551115 0.101873 0.110759
O O10 0.437465 0.007537 0.293078
O O11 0.316551 0.385191 0.510351
O O12 0.357540 0.299283 0.657146
O O13 0.813668 0.632116 0.866636
O O14 0.451489 0.315713 0.947260
#
# Coordination Sequence:
#
# PCOD9581121 Si02
#       7
#     6   6   6   6   6   6   6
#     4  11  19  36  54  78 103 133 178 231 292 342
#     4  10  20  38  54  71 108 138 168 230 288 346
#     4  12  22  34  56  89 102 132 184 250 286 328
#     4  12  20  36  56  84 106 130 180 238 280 336
#     4  10  22  36  54  76 105 138 168 223 286 341
#     4  11  19  36  54  78 103 133 178 231 292 342
#     4  10  22  36  54  76 105 138 168 223 286 341
#
# _framework density 18.328579999999999
#
# number of rings (size 3 to 8) (size 9 to 14) (size 15 to 20)
#    0.000    1.143    5.714    1.714    0.000    0.000 
#    0.000    0.000    0.000   93.143    0.000    0.000 
#    0.000    0.000    0.000    0.000    0.000    0.000 
#
# Total GULP energy -233922.185760 kJ/mol
# GULP energy per Si atom -5569.575851 kJ/mol
# Density = 1.828686 g / cm^3
# Si number density = 18.328580 Si / 1000 Ang^3
#
#
#
# Elastic Constant Matrix: (Units=GPa)
#
#
# Indices 1 2 3 4 5 6 
#
# 1 48.2689 27.5833 17.0285 0.0000 0.0000 0.0000
# 2 27.5833 48.2689 17.0285 0.0000 0.0000 0.0000
# 3 17.0285 17.0285 65.6560 0.0000 0.0000 0.0000
# 4 0.0000 0.0000 0.0000 16.3520 0.0000 0.0000
# 5 0.0000 0.0000 0.0000 0.0000 16.3520 0.0000
# 6 0.0000 0.0000 0.0000 0.0000 0.0000 10.3428
#
#
#
# Elastic Compliance Matrix: (Units=1/GPa)
#
#
# Indices 1 2 3 4 5 6 
#
# 1 0.031632 -0.016711 -0.003870 0.000000 0.000000 0.000000
# 2 -0.016711 0.031632 -0.003870 0.000000 0.000000 0.000000
# 3 -0.003870 -0.003870 0.017238 0.000000 0.000000 0.000000
# 4 0.000000 0.000000 0.000000 0.061155 0.000000 0.000000
# 5 0.000000 0.000000 0.000000 0.000000 0.061155 0.000000
# 6 0.000000 0.000000 0.000000 0.000000 0.000000 0.096686
#
#
# Mechanical properties :
#
#
# Convention : Reuss Voigt Hill
#
# Bulk Modulus (GPa) = 31.64477 31.71937 31.68207
# Shear Modulus (GPa) = 13.93019 15.31290 14.62155
#
# Velocity S-wave (km/s) = 2.75985 2.89358 2.82750
# Velocity P-wave (km/s) = 5.24008 5.33922 5.28988
#
# Compressibility (1/GPa) = 0.03160080
#
# Stress axis : x y z
#
# Youngs Moduli (GPa) = 31.61357 31.61357 58.01028
#
# Poissons Ratio (x) = 0.52829 0.22450
# Poissons Ratio (y) = 0.52829 0.22450
# Poissons Ratio (z) = 0.12234 0.12234
#
# Static dielectric constant tensor:
#      x y z
#    x 1.697350 0.000000 0.000000 
#    y 0.000000 1.697350 0.000000 
#    z 0.000000 0.000000 1.744430 
# 
# From -- ./inp_files/165.got.cif
#   From: 2010.05.17/outbox.ucp.g08.bks.cvg/sg173_cif.got.tgz:165.got - 2010.06.11 15:18:35.
