data_PCOD9581675
_publ_section_title
;
Structure prediction by ZEFSAII (Michael W. Deem and Ramdas Pophale) SiO2 
 PCOD9581675
Probable space group: P 6/M
;
_chemical_formula_sum "Si O2"
_cell_formula_units_Z 66
_cell_length_a 21.151295
_cell_length_b 21.151295
_cell_length_c 10.163877
_cell_angle_alpha 90.000000
_cell_angle_beta 90.000000
_cell_angle_gamma 120.000000
_cell_volume 3937.893417
_symmetry_space_group_name_H-M "P 6/M"
_symmetry_group_IT_number 175
_symmetry_cell_setting 'hexagonal'
loop_
_space_group_symop_operation_xyz
x,y,z
x-y,x,z
-y,x-y,z
-x,-y,z
-x+y,-x,z
y,-x+y,z
-x,-y,-z
-x+y,-x,-z
y,-x+y,-z
x,y,-z
x-y,x,-z
-y,x-y,-z
loop_
_atom_site_type_symbol
_atom_site_label
_atom_site_fract_x
_atom_site_fract_y
_atom_site_fract_z
Si Si1 0.704659 0.145481 0.342295
Si Si2 0.923838 0.197281 0.246800
Si Si3 0.084213 0.546283 0.659890
Si Si4 0.952153 0.122851 0.500000
Si Si5 0.149216 0.711181 0.657707
Si Si6 0.078393 0.307885 0.853801
O O1 0.706931 0.133004 0.500000
O O2 0.623359 0.126376 0.306548
O O3 0.766720 0.228832 0.313713
O O4 0.727831 0.095829 0.259006
O O5 0.937637 0.159711 0.373122
O O6 0.899303 0.255252 0.290663
O O7 0.855663 0.135531 0.167485
O O8 0.997796 0.240864 0.166472
O O9 0.083398 0.548460 0.500000
O O10 0.122366 0.629740 0.707043
O O11 0.000000 0.500000 0.703252
O O12 0.035977 0.140851 0.500000
O O13 0.142069 0.707375 0.500000
O O14 0.087085 0.339324 0.000000
#
# Coordination Sequence:
#
# PCOD9581675 Si02
#       6
#    12  12  12   6  12  12
#     4   9  19  33  53  78 105 142 183 222 272 328
#     4  11  21  34  57  79 108 142 182 221 278 325
#     4   9  16  28  46  75 109 137 167 216 277 321
#     4  12  23  38  58  88 111 145 183 229 271 325
#     4   9  17  29  50  80 108 134 177 224 267 323
#     4  11  23  37  54  77 109 142 182 229 276 327
#
# _framework density 16.76023
#
# number of rings (size 3 to 8) (size 9 to 14) (size 15 to 20)
#    0.000    2.000    2.727    1.727    2.545    1.455 
#    1.091    0.000    0.000    9.273    0.000    2.545 
#    0.000    0.000    0.000    0.000    0.000    0.000 
#
# Total GULP energy -368054.801367 kJ/mol
# GULP energy per Si atom -5576.587899 kJ/mol
# Density = 1.672208 g / cm^3
# Si number density = 16.760230 Si / 1000 Ang^3
#
#
#
# Elastic Constant Matrix: (Units=GPa)
#
#
# Indices 1 2 3 4 5 6 
#
# 1 130.1512 84.3437 28.8040 0.0000 0.0000 0.0000
# 2 84.3437 130.1512 28.8040 0.0000 0.0000 0.0000
# 3 28.8040 28.8040 48.1861 0.0000 0.0000 0.0000
# 4 0.0000 0.0000 0.0000 0.1010 0.0000 0.0000
# 5 0.0000 0.0000 0.0000 0.0000 0.1010 0.0000
# 6 0.0000 0.0000 0.0000 0.0000 0.0000 22.9038
#
#
#
# Elastic Compliance Matrix: (Units=1/GPa)
#
#
# Indices 1 2 3 4 5 6 
#
# 1 0.013692 -0.008138 -0.003320 0.000000 0.000000 0.000000
# 2 -0.008138 0.013692 -0.003320 0.000000 0.000000 0.000000
# 3 -0.003320 -0.003320 0.024722 0.000000 0.000000 0.000000
# 4 0.000000 0.000000 0.000000 9.896356 0.000001 0.000000
# 5 0.000000 0.000000 0.000000 0.000001 9.896353 0.000000
# 6 0.000000 0.000000 0.000000 0.000000 0.000000 0.043661
#
#
# Mechanical properties :
#
#
# Convention : Reuss Voigt Hill
#
# Bulk Modulus (GPa) = 44.34595 65.82132 55.08364
# Shear Modulus (GPa) = 0.25093 15.72364 7.98728
#
# Velocity S-wave (km/s) = 0.38736 3.06625 2.18540
# Velocity P-wave (km/s) = 5.16880 7.20371 6.26937
#
# Compressibility (1/GPa) = 0.02254997
#
# Stress axis : x y z
#
# Youngs Moduli (GPa) = 73.03483 73.03483 40.45006
#
# Poissons Ratio (x) = 0.59438 0.13429
# Poissons Ratio (y) = 0.59438 0.13429
# Poissons Ratio (z) = 0.24246 0.24246
#
# Static dielectric constant tensor:
#      x y z
#    x 1.558170 0.000000 0.000000 
#    y 0.000000 1.558170 0.000000 
#    z 0.000000 0.000000 1.547090 
# 
# From -- ./inp_files/993.got.cif
#   From: 2010.05.17/outbox.cif.g08.bks.cpg/sg175_1_cif.got.tgz:993.got - 2010.05.20 11:23:22.
