data_PCOD9581062
_publ_section_title
;
Structure prediction by ZEFSAII (Michael W. Deem and Ramdas Pophale) SiO2 
 PCOD9581062
Probable space group: P 63
;
_chemical_formula_sum "Si O2"
_cell_formula_units_Z 34
_cell_length_a 14.474739
_cell_length_b 14.474739
_cell_length_c 8.981348
_cell_angle_alpha 90.000000
_cell_angle_beta 90.000000
_cell_angle_gamma 120.000000
_cell_volume 1629.647366
_symmetry_space_group_name_H-M "P 63"
_symmetry_group_IT_number 173
_symmetry_cell_setting 'hexagonal'
loop_
_space_group_symop_operation_xyz
x,y,z
x-y,x,1/2+z
-y,x-y,z
-x,-y,1/2+z
-x+y,-x,z
y,-x+y,1/2+z
loop_
_atom_site_type_symbol
_atom_site_label
_atom_site_fract_x
_atom_site_fract_y
_atom_site_fract_z
Si Si1 0.092545 0.515235 0.526580
Si Si2 0.666667 0.333333 0.001721
Si Si3 0.666668 0.333334 0.364885
Si Si4 0.954542 0.791119 0.408448
Si Si5 0.270608 0.827834 0.811099
Si Si6 0.050017 0.205806 0.244416
Si Si7 0.365996 0.397478 0.755335
O O1 0.208699 0.601119 0.459945
O O2 0.121189 0.456038 0.658054
O O3 0.036865 0.571130 0.613127
O O4 0.015118 0.440465 0.399164
O O5 0.666668 0.333334 0.183195
O O6 0.554889 0.327402 0.401295
O O7 0.911796 0.665781 0.390367
O O8 0.888992 0.825802 0.300288
O O9 0.932940 0.815407 0.574685
O O10 0.076120 0.859851 0.356725
O O11 0.153599 0.727513 0.777426
O O12 0.039137 0.310245 0.239501
#
# Coordination Sequence:
#
# PCOD9581062 Si02
#       7
#     6   2   2   6   6   6   6
#     4  11  22  44  68 100 138 185 238 284 358 431
#     4   9  18  42  72  84 136 198 210 282 370 411
#     4   9  15  39  66  97 120 186 228 265 354 429
#     4  11  25  43  68  97 142 181 234 290 353 426
#     4  10  21  40  69  95 136 187 222 286 356 420
#     4  11  26  44  69 102 138 188 232 290 360 422
#     4  11  25  40  72 103 134 183 238 285 351 425
#
# _framework density 20.863409999999998
#
# number of rings (size 3 to 8) (size 9 to 14) (size 15 to 20)
#    0.000    1.412    5.294    1.412   12.353    0.000 
#    0.000    0.000    0.000    0.000    0.000    0.000 
#    0.000    0.000    0.000    0.000    0.000    0.000 
#
# Total GULP energy -189929.325523 kJ/mol
# GULP energy per Si atom -5586.156633 kJ/mol
# Density = 2.081592 g / cm^3
# Si number density = 20.863410 Si / 1000 Ang^3
#
#
#
# Elastic Constant Matrix: (Units=GPa)
#
#
# Indices 1 2 3 4 5 6 
#
# 1 97.7516 31.3591 13.7012 0.0000 0.0000 0.0002
# 2 31.3591 97.7519 13.7012 0.0000 0.0000 0.0004
# 3 13.7012 13.7012 40.5751 0.0000 0.0000 0.0000
# 4 0.0000 0.0000 0.0000 23.0905 0.0000 0.0000
# 5 0.0000 0.0000 0.0000 0.0000 23.0904 0.0000
# 6 0.0002 0.0004 0.0000 0.0000 0.0000 33.1965
#
#
#
# Elastic Compliance Matrix: (Units=1/GPa)
#
#
# Indices 1 2 3 4 5 6 
#
# 1 0.011703 -0.003359 -0.002817 0.000000 0.000000 0.000000
# 2 -0.003359 0.011703 -0.002817 0.000000 0.000000 0.000000
# 3 -0.002817 -0.002817 0.026548 0.000000 0.000000 0.000000
# 4 0.000000 0.000000 0.000000 0.043308 0.000000 0.000000
# 5 0.000000 0.000000 0.000000 0.000000 0.043308 0.000000
# 6 0.000000 0.000000 0.000000 0.000000 0.000000 0.030124
#
#
# Mechanical properties :
#
#
# Convention : Reuss Voigt Hill
#
# Bulk Modulus (GPa) = 31.28367 39.28907 35.28637
# Shear Modulus (GPa) = 25.59691 27.69662 26.64676
#
# Velocity S-wave (km/s) = 3.50649 3.64747 3.57767
# Velocity P-wave (km/s) = 5.60544 6.05072 5.83233
#
# Compressibility (1/GPa) = 0.03196556
#
# Stress axis : x y z
#
# Youngs Moduli (GPa) = 85.45119 85.45153 37.66719
#
# Poissons Ratio (x) = 0.28706 0.10612
# Poissons Ratio (y) = 0.28706 0.10612
# Poissons Ratio (z) = 0.24074 0.24074
#
# Static dielectric constant tensor:
#      x y z
#    x 1.774840 0.000000 0.000000 
#    y 0.000000 1.774840 0.000000 
#    z 0.000000 0.000000 1.715230 
# 
# From -- ./inp_files/562.got.cif
#   From: 2010.05.17/outbox.cif.g08.bks.cpg/sg173_cif.got.tgz:562.got - 2010.05.20 11:21:53.
