data_PCOD9581742
_publ_section_title
;
Structure prediction by ZEFSAII (Michael W. Deem and Ramdas Pophale) SiO2 
 PCOD9581742
Probable space group: P 63/M
;
_chemical_formula_sum "Si O2"
_cell_formula_units_Z 66
_cell_length_a 11.117929
_cell_length_b 11.117929
_cell_length_c 28.692261
_cell_angle_alpha 90.000000
_cell_angle_beta 90.000000
_cell_angle_gamma 120.000000
_cell_volume 3071.448212
_symmetry_space_group_name_H-M "P 63/M"
_symmetry_group_IT_number 176
_symmetry_cell_setting 'hexagonal'
loop_
_space_group_symop_operation_xyz
x,y,z
x-y,x,1/2+z
-y,x-y,z
-x,-y,1/2+z
-x+y,-x,z
y,-x+y,1/2+z
-x,-y,-z
-x+y,-x,1/2-z
y,-x+y,-z
x,y,1/2-z
x-y,x,-z
-y,x-y,1/2-z
loop_
_atom_site_type_symbol
_atom_site_label
_atom_site_fract_x
_atom_site_fract_y
_atom_site_fract_z
Si Si1 0.688285 0.736631 0.680980
Si Si2 0.943520 0.696707 0.424255
Si Si3 0.747233 0.047522 0.696834
Si Si4 0.378285 0.841431 0.750000
Si Si5 0.316264 0.257812 0.911326
Si Si6 0.657327 0.171562 0.994053
O O1 0.643554 0.707046 0.627764
O O2 0.823324 0.727503 0.694089
O O3 0.551415 0.623066 0.707021
O O4 0.731193 0.894848 0.693870
O O5 0.816285 0.727616 0.424874
O O6 0.915202 0.586431 0.464233
O O7 0.096230 0.831885 0.423579
O O8 0.696955 0.059115 0.750000
O O9 0.700818 0.059226 0.643274
O O10 0.226450 0.700044 0.750000
O O11 0.445531 0.342864 0.945287
O O12 0.792026 0.327042 0.997360
#
# Coordination Sequence:
#
# PCOD9581742 Si02
#       6
#    12  12  12   6  12  12
#     4  10  19  34  56  92 118 148 189 235 299 346
#     4  10  21  36  62  91 118 146 182 236 311 354
#     4  10  17  31  60  84 121 144 185 235 295 356
#     4  10  22  34  48  70 124 164 188 240 272 316
#     4  10  21  36  59  93 119 145 181 248 293 354
#     4  10  24  42  58  78 111 156 209 234 277 339
#
# _framework density 21.488236000000001
#
# number of rings (size 3 to 8) (size 9 to 14) (size 15 to 20)
#    0.545    1.455    1.818    1.818    0.000    7.273 
#    0.000    7.273    0.000    0.000    0.000    0.000 
#    7.273    0.000    0.000    0.000    0.000    0.000 
#
# Total GULP energy -367503.011552 kJ/mol
# GULP energy per Si atom -5568.227448 kJ/mol
# Density = 2.143933 g / cm^3
# Si number density = 21.488236 Si / 1000 Ang^3
#
#
#
# Elastic Constant Matrix: (Units=GPa)
#
#
# Indices 1 2 3 4 5 6 
#
# 1 63.6118 8.5380 41.6264 0.0000 0.0000 0.0000
# 2 8.5380 63.6118 41.6264 0.0000 0.0000 0.0000
# 3 41.6264 41.6264 170.4642 0.0000 0.0000 0.0000
# 4 0.0000 0.0000 0.0000 -54.3516 0.0000 0.0000
# 5 0.0000 0.0000 0.0000 0.0000 -54.3516 0.0000
# 6 0.0000 0.0000 0.0000 0.0000 0.0000 27.5369
#
#
#
# Elastic Compliance Matrix: (Units=1/GPa)
#
#
# Indices 1 2 3 4 5 6 
#
# 1 0.018728 0.000570 -0.004712 0.000000 0.000000 0.000000
# 2 0.000570 0.018728 -0.004712 0.000000 0.000000 0.000000
# 3 -0.004712 -0.004712 0.008168 0.000000 0.000000 0.000000
# 4 0.000000 0.000000 0.000000 -0.018399 0.000000 0.000000
# 5 0.000000 0.000000 0.000000 0.000000 -0.018399 0.000000
# 6 0.000000 0.000000 0.000000 0.000000 0.000000 0.036315
#
#
# Mechanical properties :
#
#
# Convention : Reuss Voigt Hill
#
# Bulk Modulus (GPa) = 35.82491 53.47435 44.64963
# Shear Modulus (GPa) = 69.29618 -2.50677 33.39471
#
# Velocity S-wave (km/s) = 5.68493 -1.08125 3.94647
# Velocity P-wave (km/s) = 7.73300 4.83535 6.44903
#
# Compressibility (1/GPa) = 0.02791354
#
# Stress axis : x y z
#
# Youngs Moduli (GPa) = 53.39737 53.39737 122.43212
#
# Poissons Ratio (x) = -0.03044 0.57694
# Poissons Ratio (y) = -0.03044 0.57694
# Poissons Ratio (z) = 0.25163 0.25163
#
# Static dielectric constant tensor:
#      x y z
#    x 1.791420 0.000000 0.000000 
#    y 0.000000 1.791420 0.000000 
#    z 0.000000 0.000000 1.815300 
# 
# From -- ./inp_files/4482.got.cif
#   From: 2010.05.17/outbox.cif.g08.bks.cpg/sg176_3_cif.got.tgz:4482.got - 2010.06.03 11:36:45.
