data_PCOD9581217
_publ_section_title
;
Structure prediction by ZEFSAII (Michael W. Deem and Ramdas Pophale) SiO2 
 PCOD9581217
Probable space group: P -6
;
_chemical_formula_sum "Si O2"
_cell_formula_units_Z 20
_cell_length_a 8.350445
_cell_length_b 8.350445
_cell_length_c 16.246009
_cell_angle_alpha 90.000000
_cell_angle_beta 90.000000
_cell_angle_gamma 120.000000
_cell_volume 981.062241
_symmetry_space_group_name_H-M "P -6"
_symmetry_group_IT_number 174
_symmetry_cell_setting 'hexagonal'
loop_
_space_group_symop_operation_xyz
x,y,z
-x+y,-x,-z
-y,x-y,z
x,y,-z
-x+y,-x,z
-y,x-y,-z
loop_
_atom_site_type_symbol
_atom_site_label
_atom_site_fract_x
_atom_site_fract_y
_atom_site_fract_z
Si Si1 0.302622 0.957118 0.408331
Si Si2 0.767620 0.195613 0.839330
Si Si3 0.347736 0.305723 0.657049
Si Si4 0.000000 0.000000 0.098170
O O1 0.259375 0.873484 0.500000
O O2 0.150989 0.840022 0.339923
O O3 0.316946 0.153895 0.409558
O O4 0.496452 0.991659 0.376425
O O5 0.865508 0.416654 0.860871
O O6 0.750136 0.154717 0.741559
O O7 0.874876 0.092494 0.873491
O O8 0.000000 0.000000 0.000000
#
# Coordination Sequence:
#
# PCOD9581217 Si02
#       4
#     6   6   6   2
#     4  12  23  37  58  89 131 179 239 309 362 413
#     4  10  23  49  75 108 147 194 244 304 363 449
#     4  12  23  42  62  90 131 184 242 291 366 434
#     4  12  27  48  81 117 151 191 235 300 387 462
#
# _framework density 20.386066
#
# number of rings (size 3 to 8) (size 9 to 14) (size 15 to 20)
#    0.600    0.000    3.000    6.300    0.000    1.200 
#    1.800    0.000    0.000    0.000    0.000    0.000 
#    0.000    0.000    0.000    0.000    0.000    0.000 
#
# Total GULP energy -111401.890304 kJ/mol
# GULP energy per Si atom -5570.094515 kJ/mol
# Density = 2.033967 g / cm^3
# Si number density = 20.386066 Si / 1000 Ang^3
#
#
#
# Elastic Constant Matrix: (Units=GPa)
#
#
# Indices 1 2 3 4 5 6 
#
# 1 144.6674 64.1123 27.3317 0.0000 0.0000 0.0000
# 2 64.1123 144.6674 27.3317 0.0000 0.0000 0.0000
# 3 27.3317 27.3317 84.8997 0.0000 0.0000 0.0000
# 4 0.0000 0.0000 0.0000 19.2163 0.0000 0.0000
# 5 0.0000 0.0000 0.0000 0.0000 19.2163 0.0000
# 6 0.0000 0.0000 0.0000 0.0000 0.0000 40.2776
#
#
#
# Elastic Compliance Matrix: (Units=1/GPa)
#
#
# Indices 1 2 3 4 5 6 
#
# 1 0.008822 -0.003592 -0.001684 0.000000 0.000000 0.000000
# 2 -0.003592 0.008822 -0.001684 0.000000 0.000000 0.000000
# 3 -0.001684 -0.001684 0.012863 0.000000 0.000000 0.000000
# 4 0.000000 0.000000 0.000000 0.052039 0.000000 0.000000
# 5 0.000000 0.000000 0.000000 0.000000 0.052039 0.000000
# 6 0.000000 0.000000 0.000000 0.000000 0.000000 0.024828
#
#
# Mechanical properties :
#
#
# Convention : Reuss Voigt Hill
#
# Bulk Modulus (GPa) = 60.28284 67.97622 64.12953
# Shear Modulus (GPa) = 27.95459 32.77264 30.36362
#
# Velocity S-wave (km/s) = 3.70707 4.01384 3.86350
# Velocity P-wave (km/s) = 6.92517 7.40932 7.17133
#
# Compressibility (1/GPa) = 0.01658847
#
# Stress axis : x y z
#
# Youngs Moduli (GPa) = 113.34995 113.34995 77.74364
#
# Poissons Ratio (x) = 0.40711 0.13091
# Poissons Ratio (y) = 0.40711 0.13091
# Poissons Ratio (z) = 0.19087 0.19087
#
# Static dielectric constant tensor:
#      x y z
#    x 1.821010 0.000000 0.000000 
#    y 0.000000 1.821010 0.000000 
#    z 0.000000 0.000000 1.687390 
# 
# From -- ./inp_files/970.got.cif
#   From: 2010.05.17/outbox.cif.g08.bks.cpg/sg174_cif.got.tgz:970.got - 2010.05.20 11:22:48.
