data_PCOD9581287
_publ_section_title
;
Structure prediction by ZEFSAII (Michael W. Deem and Ramdas Pophale) SiO2 
 PCOD9581287
Probable space group: P 6/M
;
_chemical_formula_sum "Si O2"
_cell_formula_units_Z 30
_cell_length_a 13.932167
_cell_length_b 13.932167
_cell_length_c 11.178542
_cell_angle_alpha 90.000000
_cell_angle_beta 90.000000
_cell_angle_gamma 120.000000
_cell_volume 1879.114041
_symmetry_space_group_name_H-M "P 6/M"
_symmetry_group_IT_number 175
_symmetry_cell_setting 'hexagonal'
loop_
_space_group_symop_operation_xyz
x,y,z
x-y,x,z
-y,x-y,z
-x,-y,z
-x+y,-x,z
y,-x+y,z
-x,-y,-z
-x+y,-x,-z
y,-x+y,-z
x,y,-z
x-y,x,-z
-y,x-y,-z
loop_
_atom_site_type_symbol
_atom_site_label
_atom_site_fract_x
_atom_site_fract_y
_atom_site_fract_z
Si Si1 0.124523 0.665522 0.261383
Si Si2 0.330764 0.882047 0.357497
Si Si3 0.796067 0.338674 0.000000
O O1 0.214642 0.784701 0.310162
O O2 0.146628 0.572942 0.322453
O O3 0.141678 0.659150 0.120097
O O4 0.000036 0.631155 0.296270
O O5 0.329385 0.893039 0.500000
O O6 0.767934 0.438867 0.000000
#
# Coordination Sequence:
#
# PCOD9581287 Si02
#       3
#    12  12   6
#     4  11  21  34  54  76 107 141 177 219 264 317
#     4  11  21  35  53  79 107 142 177 220 269 318
#     4  10  18  35  53  75 110 142 175 215 266 320
#
# _framework density 15.964969999999999
#
# number of rings (size 3 to 8) (size 9 to 14) (size 15 to 20)
#    0.400    0.800    4.000    5.600    0.000    4.800 
#    0.000    0.000    0.000    0.800    0.000    2.800 
#    0.000    3.200    0.000    0.000    0.000    0.000 
#
# Total GULP energy -167519.363725 kJ/mol
# GULP energy per Si atom -5583.978791 kJ/mol
# Density = 1.592863 g / cm^3
# Si number density = 15.964970 Si / 1000 Ang^3
#
#
#
# Elastic Constant Matrix: (Units=GPa)
#
#
# Indices 1 2 3 4 5 6 
#
# 1 111.0036 77.0984 64.7905 0.0000 0.0000 0.0000
# 2 77.0984 111.0036 64.7905 0.0000 0.0000 0.0000
# 3 64.7905 64.7905 190.9528 0.0000 0.0000 0.0000
# 4 0.0000 0.0000 0.0000 18.6409 0.0000 0.0000
# 5 0.0000 0.0000 0.0000 0.0000 18.6409 0.0000
# 6 0.0000 0.0000 0.0000 0.0000 0.0000 16.9526
#
#
#
# Elastic Compliance Matrix: (Units=1/GPa)
#
#
# Indices 1 2 3 4 5 6 
#
# 1 0.018216 -0.011278 -0.002354 0.000000 0.000000 0.000000
# 2 -0.011278 0.018216 -0.002354 0.000000 0.000000 0.000000
# 3 -0.002354 -0.002354 0.006834 0.000000 0.000000 0.000000
# 4 0.000000 0.000000 0.000000 0.053645 0.000000 0.000000
# 5 0.000000 0.000000 0.000000 0.000000 0.053645 0.000000
# 6 0.000000 0.000000 0.000000 0.000000 0.000000 0.058988
#
#
# Mechanical properties :
#
#
# Convention : Reuss Voigt Hill
#
# Bulk Modulus (GPa) = 88.54230 91.81320 90.17775
# Shear Modulus (GPa) = 20.38468 24.59891 22.49180
#
# Velocity S-wave (km/s) = 3.57716 3.92957 3.75750
# Velocity P-wave (km/s) = 8.52304 8.84436 8.68519
#
# Compressibility (1/GPa) = 0.01129404
#
# Stress axis : x y z
#
# Youngs Moduli (GPa) = 54.89687 54.89687 146.31942
#
# Poissons Ratio (x) = 0.61913 0.34444
# Poissons Ratio (y) = 0.61913 0.34444
# Poissons Ratio (z) = 0.12923 0.12923
#
# Static dielectric constant tensor:
#      x y z
#    x 1.520760 0.000000 0.000000 
#    y 0.000000 1.520760 0.000000 
#    z 0.000000 0.000000 1.529760 
# 
# From -- ./inp_files/327.got.cif
#   From: 2010.05.17/outbox.cif.g08.bks.cpg/sg175_1_cif.got.tgz:327.got - 2010.05.20 11:23:22.
