data_PCOD9581485
_publ_section_title
;
Structure prediction by ZEFSAII (Michael W. Deem and Ramdas Pophale) SiO2 
 PCOD9581485
Probable space group: P 6/M
;
_chemical_formula_sum "Si O2"
_cell_formula_units_Z 74
_cell_length_a 13.779394
_cell_length_b 13.779394
_cell_length_c 26.042304
_cell_angle_alpha 90.000000
_cell_angle_beta 90.000000
_cell_angle_gamma 120.000000
_cell_volume 4282.232789
_symmetry_space_group_name_H-M "P 6/M"
_symmetry_group_IT_number 175
_symmetry_cell_setting 'hexagonal'
loop_
_space_group_symop_operation_xyz
x,y,z
x-y,x,z
-y,x-y,z
-x,-y,z
-x+y,-x,z
y,-x+y,z
-x,-y,-z
-x+y,-x,-z
y,-x+y,-z
x,y,-z
x-y,x,-z
-y,x-y,-z
loop_
_atom_site_type_symbol
_atom_site_label
_atom_site_fract_x
_atom_site_fract_y
_atom_site_fract_z
Si Si1 0.973803 0.215687 0.753072
Si Si2 0.666667 0.333334 0.438915
Si Si3 0.624337 0.606353 0.666458
Si Si4 0.243733 0.034098 0.125087
Si Si5 0.803962 0.577511 0.600742
Si Si6 0.333334 0.666668 0.937723
Si Si7 0.137720 0.870515 0.500000
Si Si8 0.369844 0.462104 0.939200
O O1 0.967051 0.232574 0.813939
O O2 0.091720 0.221267 0.741530
O O3 0.967987 0.309922 0.719489
O O4 0.666667 0.333334 0.500000
O O5 0.690464 0.237886 0.418781
O O6 0.500000 0.500000 0.672967
O O7 0.703333 0.576902 0.632163
O O8 0.615386 0.704299 0.636789
O O9 0.219616 0.134693 0.113920
O O10 0.350148 0.054627 0.092486
O O11 0.834082 0.656477 0.551005
O O12 0.348053 0.562152 0.921920
O O13 0.333334 0.666668 0.000000
O O14 0.003997 0.810254 0.500000
O O15 0.500000 0.500000 0.933375
O O16 0.342575 0.442257 0.000000
#
# Coordination Sequence:
#
# PCOD9581485 Si02
#       8
#    12   4  12  12  12   4   6  12
#     4  10  21  39  63  89 115 150 195 245 296 354
#     4  12  24  39  63  94 119 157 204 237 280 353
#     4  12  24  39  62  87 118 155 194 239 291 345
#     4  10  21  37  58  85 118 153 195 246 300 357
#     4  12  24  39  61  88 119 154 192 238 286 346
#     4   9  18  33  54  82 116 157 204 249 294 352
#     4  12  25  40  60  88 120 151 188 234 294 342
#     4  10  20  35  57  84 117 158 202 248 300 359
#
# _framework density 17.280705000000001
#
# number of rings (size 3 to 8) (size 9 to 14) (size 15 to 20)
#    0.000    1.135    5.676    1.378    0.000    3.892 
#    0.000    2.432    0.000    0.973    0.000    0.000 
#    0.000    0.000    0.000    0.000    0.000    0.000 
#
# Total GULP energy -413322.780827 kJ/mol
# GULP energy per Si atom -5585.442984 kJ/mol
# Density = 1.724137 g / cm^3
# Si number density = 17.280705 Si / 1000 Ang^3
#
#
#
# Elastic Constant Matrix: (Units=GPa)
#
#
# Indices 1 2 3 4 5 6 
#
# 1 124.0793 55.0311 67.5683 0.0000 0.0000 0.0009
# 2 55.0311 124.0790 67.5681 0.0000 0.0000 0.0012
# 3 67.5683 67.5681 74.3240 0.0000 0.0000 0.0002
# 4 0.0000 0.0000 0.0000 33.8667 0.0001 0.0000
# 5 0.0000 0.0000 0.0000 0.0001 33.8666 0.0000
# 6 0.0009 0.0012 0.0002 0.0000 0.0000 34.5242
#
#
#
# Elastic Compliance Matrix: (Units=1/GPa)
#
#
# Indices 1 2 3 4 5 6 
#
# 1 0.016129 0.001646 -0.016160 0.000000 0.000000 0.000000
# 2 0.001646 0.016129 -0.016160 0.000000 0.000000 -0.000001
# 3 -0.016160 -0.016160 0.042836 0.000000 0.000000 0.000001
# 4 0.000000 0.000000 0.000000 0.029528 0.000000 0.000000
# 5 0.000000 0.000000 0.000000 0.000000 0.029528 0.000000
# 6 0.000000 -0.000001 0.000001 0.000000 0.000000 0.028965
#
#
# Mechanical properties :
#
#
# Convention : Reuss Voigt Hill
#
# Bulk Modulus (GPa) = 72.73611 78.09080 75.41345
# Shear Modulus (GPa) = 21.82993 29.27248 25.55121
#
# Velocity S-wave (km/s) = 3.55809 4.12022 3.84943
# Velocity P-wave (km/s) = 7.68520 8.24152 7.96821
#
# Compressibility (1/GPa) = 0.01374833
#
# Stress axis : x y z
#
# Youngs Moduli (GPa) = 61.99990 62.00003 23.34475
#
# Poissons Ratio (x) = -0.10208 0.37724
# Poissons Ratio (y) = -0.10207 0.37724
# Poissons Ratio (z) = 1.00190 1.00190
#
# Static dielectric constant tensor:
#      x y z
#    x 1.567210 0.000000 0.000000 
#    y 0.000000 1.567200 0.000000 
#    z 0.000000 0.000000 1.567860 
# 
# From -- ./inp_files/3397.got.cif
#   From: 2010.05.17/outbox.cif.g08.bks.cpg/sg175_2_cif.got.tgz:3397.got - 2010.05.20 11:23:22.
