data_PCOD9581202
_publ_section_title
;
Structure prediction by ZEFSAII (Michael W. Deem and Ramdas Pophale) SiO2 
 PCOD9581202
Probable space group: P -6
;
_chemical_formula_sum "Si O2"
_cell_formula_units_Z 28
_cell_length_a 14.158510
_cell_length_b 14.158510
_cell_length_c 8.562776
_cell_angle_alpha 90.000000
_cell_angle_beta 90.000000
_cell_angle_gamma 120.000000
_cell_volume 1486.552729
_symmetry_space_group_name_H-M "P -6"
_symmetry_group_IT_number 174
_symmetry_cell_setting 'hexagonal'
loop_
_space_group_symop_operation_xyz
x,y,z
-x+y,-x,-z
-y,x-y,z
x,y,-z
-x+y,-x,z
-y,x-y,-z
loop_
_atom_site_type_symbol
_atom_site_label
_atom_site_fract_x
_atom_site_fract_y
_atom_site_fract_z
Si Si1 0.790852 0.207922 0.811986
Si Si2 0.918376 0.461105 0.188345
Si Si3 0.333335 0.666668 0.815133
Si Si4 0.539744 0.665887 0.313203
Si Si5 0.000000 0.000000 0.691013
Si Si6 0.787280 0.788098 0.311868
O O1 0.667035 0.129562 0.759982
O O2 0.832301 0.334595 0.774020
O O3 0.879986 0.182853 0.740101
O O4 0.793772 0.200836 0.000000
O O5 0.032621 0.487492 0.262228
O O6 0.930398 0.468770 0.000000
O O7 0.241091 0.549160 0.754600
O O8 0.333334 0.666668 0.000000
O O9 0.537800 0.670939 0.500000
O O10 0.663899 0.746857 0.257151
O O11 0.880774 0.906147 0.742432
O O12 0.000000 0.000000 0.500000
O O13 0.785029 0.789287 0.500000
#
# Coordination Sequence:
#
# PCOD9581202 Si02
#       6
#     6   6   2   6   2   6
#     4   9  17  30  50  76 108 143 181 222 264 311
#     4   9  17  31  51  77 109 147 185 223 269 318
#     4  12  25  41  61  81 103 137 175 213 265 329
#     4  10  21  37  55  79 109 139 175 221 267 316
#     4   9  18  36  58  77 100 135 172 206 253 312
#     4   9  19  35  55  78 105 137 174 215 262 314
#
# _framework density 18.835525000000001
#
# number of rings (size 3 to 8) (size 9 to 14) (size 15 to 20)
#    0.000    2.571    0.000    1.714    0.000    5.143 
#    0.000    3.214    0.000    2.571    0.000    0.000 
#    0.000    0.000    0.000    0.000    0.000    0.000 
#
# Total GULP energy -156230.145312 kJ/mol
# GULP energy per Si atom -5579.648047 kJ/mol
# Density = 1.879265 g / cm^3
# Si number density = 18.835525 Si / 1000 Ang^3
#
#
#
# Elastic Constant Matrix: (Units=GPa)
#
#
# Indices 1 2 3 4 5 6 
#
# 1 106.5984 70.9510 20.4728 0.0000 0.0000 -0.0002
# 2 70.9510 106.5960 20.4720 0.0000 0.0000 -0.0001
# 3 20.4728 20.4720 20.9297 0.0000 0.0000 0.0000
# 4 0.0000 0.0000 0.0000 25.6927 -0.0001 0.0000
# 5 0.0000 0.0000 0.0000 -0.0001 25.6930 0.0000
# 6 -0.0002 -0.0001 0.0000 0.0000 0.0000 17.8224
#
#
#
# Elastic Compliance Matrix: (Units=1/GPa)
#
#
# Indices 1 2 3 4 5 6 
#
# 1 0.017663 -0.010390 -0.007114 0.000000 0.000000 0.000000
# 2 -0.010390 0.017663 -0.007113 0.000000 0.000000 0.000000
# 3 -0.007114 -0.007113 0.061696 0.000000 0.000000 0.000000
# 4 0.000000 0.000000 0.000000 0.038922 0.000000 0.000000
# 5 0.000000 0.000000 0.000000 0.000000 0.038921 0.000000
# 6 0.000000 0.000000 0.000000 0.000000 0.000000 0.056109
#
#
# Mechanical properties :
#
#
# Convention : Reuss Voigt Hill
#
# Bulk Modulus (GPa) = 20.92666 50.87953 35.90310
# Shear Modulus (GPa) = 16.88395 21.99016 19.43705
#
# Velocity S-wave (km/s) = 2.99722 3.42055 3.21586
# Velocity P-wave (km/s) = 4.80751 6.53234 5.73513
#
# Compressibility (1/GPa) = 0.04778592
#
# Stress axis : x y z
#
# Youngs Moduli (GPa) = 56.61520 56.61468 16.20851
#
# Poissons Ratio (x) = 0.58825 0.11531
# Poissons Ratio (y) = 0.58825 0.11530
# Poissons Ratio (z) = 0.40278 0.40273
#
# Static dielectric constant tensor:
#      x y z
#    x 1.642530 0.000000 0.000000 
#    y 0.000000 1.642540 0.000000 
#    z 0.000000 0.000000 1.642300 
# 
# From -- ./inp_files/298.got.cif
#   From: 2010.05.17/outbox.cif.g08.bks.cpg/sg174_cif.got.tgz:298.got - 2010.05.20 11:22:48.
