data_PCOD9581821
_publ_section_title
;
Structure prediction by ZEFSAII (Michael W. Deem and Ramdas Pophale) SiO2 
 PCOD9581821
Probable space group: P 63/M
;
_chemical_formula_sum "Si O2"
_cell_formula_units_Z 72
_cell_length_a 23.514275
_cell_length_b 23.514275
_cell_length_c 8.205387
_cell_angle_alpha 90.000000
_cell_angle_beta 90.000000
_cell_angle_gamma 120.000000
_cell_volume 3929.098230
_symmetry_space_group_name_H-M "P 63/M"
_symmetry_group_IT_number 176
_symmetry_cell_setting 'hexagonal'
loop_
_space_group_symop_operation_xyz
x,y,z
x-y,x,1/2+z
-y,x-y,z
-x,-y,1/2+z
-x+y,-x,z
y,-x+y,1/2+z
-x,-y,-z
-x+y,-x,1/2-z
y,-x+y,-z
x,y,1/2-z
x-y,x,-z
-y,x-y,1/2-z
loop_
_atom_site_type_symbol
_atom_site_label
_atom_site_fract_x
_atom_site_fract_y
_atom_site_fract_z
Si Si1 0.485040 0.403571 0.555490
Si Si2 0.397636 0.466846 0.553664
Si Si3 0.743696 0.749296 0.552969
Si Si4 0.262904 0.870911 0.553542
Si Si5 0.376015 0.125936 0.446488
Si Si6 0.862718 0.888403 0.940704
O O1 0.484117 0.404263 0.750000
O O2 0.435583 0.428914 0.494510
O O3 0.557033 0.457796 0.497077
O O4 0.456365 0.329627 0.496778
O O5 0.396289 0.463827 0.750000
O O6 0.322827 0.429677 0.494158
O O7 0.743695 0.747710 0.750000
O O8 0.671992 0.733880 0.495853
O O9 0.760730 0.695091 0.491653
O O10 0.797927 0.822554 0.502749
O O11 0.260203 0.871099 0.750000
O O12 0.195863 0.808152 0.493954
O O13 0.379827 0.129356 0.250000
O O14 0.854862 0.899097 0.750000
O O15 0.876115 0.952649 0.037185
#
# Coordination Sequence:
#
# PCOD9581821 Si02
#       6
#    12  12  12  12  12  12
#     4  10  19  32  53  80 107 137 173 216 263 311
#     4   9  18  33  53  78 106 138 175 216 262 310
#     4  10  21  35  52  77 107 139 175 218 271 320
#     4  10  20  34  53  78 110 143 176 218 263 313
#     4  10  20  35  55  79 109 145 181 219 263 314
#     4  11  23  39  56  75  98 132 177 226 276 326
#
# _framework density 18.324815999999998
#
# number of rings (size 3 to 8) (size 9 to 14) (size 15 to 20)
#    0.000    2.000    1.667    2.167    0.000    4.667 
#    0.000    0.000    0.000    0.667    0.000    2.333 
#    0.000    0.000    0.000    0.000    0.000    0.000 
#
# Total GULP energy -402012.174090 kJ/mol
# GULP energy per Si atom -5583.502418 kJ/mol
# Density = 1.828311 g / cm^3
# Si number density = 18.324816 Si / 1000 Ang^3
#
#
#
# Elastic Constant Matrix: (Units=GPa)
#
#
# Indices 1 2 3 4 5 6 
#
# 1 45.2135 -8.1499 -2.4309 0.0000 0.0000 0.0000
# 2 -8.1499 45.2135 -2.4309 0.0000 0.0000 0.0000
# 3 -2.4309 -2.4309 5.4260 0.0000 0.0000 0.0000
# 4 0.0000 0.0000 0.0000 17.7085 0.0000 0.0000
# 5 0.0000 0.0000 0.0000 0.0000 17.7085 0.0000
# 6 0.0000 0.0000 0.0000 0.0000 0.0000 26.6817
#
#
#
# Elastic Compliance Matrix: (Units=1/GPa)
#
#
# Indices 1 2 3 4 5 6 
#
# 1 0.023702 0.004963 0.012842 0.000000 0.000000 0.000000
# 2 0.004963 0.023702 0.012842 0.000000 0.000000 0.000000
# 3 0.012842 0.012842 0.195804 0.000000 0.000000 0.000000
# 4 0.000000 0.000000 0.000000 0.056470 0.000000 0.000000
# 5 0.000000 0.000000 0.000000 0.000000 0.056470 0.000000
# 6 0.000000 0.000000 0.000000 0.000000 0.000000 0.037479
#
#
# Mechanical properties :
#
#
# Convention : Reuss Voigt Hill
#
# Bulk Modulus (GPa) = 3.28403 7.75884 5.52143
# Shear Modulus (GPa) = 11.52514 19.67740 15.60127
#
# Velocity S-wave (km/s) = 2.51058 3.28046 2.92100
# Velocity P-wave (km/s) = 3.19375 4.31182 3.79420
#
# Compressibility (1/GPa) = 0.30450400
#
# Stress axis : x y z
#
# Youngs Moduli (GPa) = 42.18991 42.18991 5.10714
#
# Poissons Ratio (x) = -0.20938 -0.06559
# Poissons Ratio (y) = -0.20938 -0.06559
# Poissons Ratio (z) = -0.54181 -0.54181
#
# Static dielectric constant tensor:
#      x y z
#    x 1.622740 0.000000 0.000000 
#    y 0.000000 1.622740 0.000000 
#    z 0.000000 0.000000 1.634080 
# 
# From -- ./inp_files/1158.got.cif
#   From: 2010.05.17/outbox.cif.g08.bks.cpg/sg176_1_cif.got.tgz:1158.got - 2010.06.03 11:36:45.
