data_PCOD9581365
_publ_section_title
;
Structure prediction by ZEFSAII (Michael W. Deem and Ramdas Pophale) SiO2 
 PCOD9581365
Probable space group: P 6/M
;
_chemical_formula_sum "Si O2"
_cell_formula_units_Z 48
_cell_length_a 16.047415
_cell_length_b 16.047415
_cell_length_c 10.516823
_cell_angle_alpha 90.000000
_cell_angle_beta 90.000000
_cell_angle_gamma 120.000000
_cell_volume 2345.445600
_symmetry_space_group_name_H-M "P 6/M"
_symmetry_group_IT_number 175
_symmetry_cell_setting 'hexagonal'
loop_
_space_group_symop_operation_xyz
x,y,z
x-y,x,z
-y,x-y,z
-x,-y,z
-x+y,-x,z
y,-x+y,z
-x,-y,-z
-x+y,-x,-z
y,-x+y,-z
x,y,-z
x-y,x,-z
-y,x-y,-z
loop_
_atom_site_type_symbol
_atom_site_label
_atom_site_fract_x
_atom_site_fract_y
_atom_site_fract_z
Si Si1 0.883806 0.438329 0.146035
Si Si2 0.612562 0.719323 0.283563
Si Si3 0.419688 0.113007 0.361542
Si Si4 0.054141 0.205567 0.149339
O O1 0.857460 0.507513 0.226051
O O2 0.862552 0.349992 0.237961
O O3 0.000000 0.500000 0.136883
O O4 0.846947 0.415783 0.000000
O O5 0.617192 0.809841 0.356397
O O6 0.655532 0.657499 0.350771
O O7 0.685820 0.768088 0.167714
O O8 0.468372 0.125767 0.500000
O O9 0.133898 0.184028 0.205249
O O10 0.049608 0.187651 0.000000
#
# Coordination Sequence:
#
# PCOD9581365 Si02
#       4
#    12  12  12  12
#     4   9  21  40  63  89 117 154 204 263 319 372
#     4  11  21  39  64  92 126 166 214 257 311 377
#     4  11  24  41  65  93 128 171 213 259 309 373
#     4  10  19  32  55  89 130 173 216 260 309 365
#
# _framework density 20.465195000000001
#
# number of rings (size 3 to 8) (size 9 to 14) (size 15 to 20)
#    0.000    1.750    2.500    1.750    0.000    9.500 
#    1.500    0.000    0.000    0.000    0.000    3.500 
#    0.000    0.000    0.000    0.000    0.000    0.000 
#
# Total GULP energy -267206.870872 kJ/mol
# GULP energy per Si atom -5566.809810 kJ/mol
# Density = 2.041861 g / cm^3
# Si number density = 20.465195 Si / 1000 Ang^3
#
#
#
# Elastic Constant Matrix: (Units=GPa)
#
#
# Indices 1 2 3 4 5 6 
#
# 1 79.8068 34.0382 29.3786 0.0000 0.0000 0.0000
# 2 34.0382 79.8068 29.3786 0.0000 0.0000 0.0000
# 3 29.3786 29.3786 115.3583 0.0000 0.0000 0.0000
# 4 0.0000 0.0000 0.0000 5.0929 0.0000 0.0000
# 5 0.0000 0.0000 0.0000 0.0000 5.0929 0.0000
# 6 0.0000 0.0000 0.0000 0.0000 0.0000 22.8843
#
#
#
# Elastic Compliance Matrix: (Units=1/GPa)
#
#
# Indices 1 2 3 4 5 6 
#
# 1 0.015981 -0.005868 -0.002576 0.000000 0.000000 0.000000
# 2 -0.005868 0.015981 -0.002576 0.000000 0.000000 0.000000
# 3 -0.002576 -0.002576 0.009980 0.000000 0.000000 0.000000
# 4 0.000000 0.000000 0.000000 0.196350 0.000000 0.000000
# 5 0.000000 0.000000 0.000000 0.000000 0.196350 0.000000
# 6 0.000000 0.000000 0.000000 0.000000 0.000000 0.043698
#
#
# Mechanical properties :
#
#
# Convention : Reuss Voigt Hill
#
# Bulk Modulus (GPa) = 50.23960 51.17362 50.70661
# Shear Modulus (GPa) = 9.86165 18.75913 14.31039
#
# Velocity S-wave (km/s) = 2.19755 3.03088 2.64721
# Velocity P-wave (km/s) = 5.57145 6.10801 5.84589
#
# Compressibility (1/GPa) = 0.01990462
#
# Stress axis : x y z
#
# Youngs Moduli (GPa) = 62.57391 62.57391 100.19555
#
# Poissons Ratio (x) = 0.36718 0.25806
# Poissons Ratio (y) = 0.36718 0.25806
# Poissons Ratio (z) = 0.16116 0.16116
#
# Static dielectric constant tensor:
#      x y z
#    x 1.750500 0.000000 0.000000 
#    y 0.000000 1.750500 0.000000 
#    z 0.000000 0.000000 1.716750 
# 
# From -- ./inp_files/522.got.cif
#   From: 2010.05.17/outbox.cif.g08.bks.cpg/sg175_1_cif.got.tgz:522.got - 2010.05.20 11:23:22.
