data_PCOD9581596
_publ_section_title
;
Structure prediction by ZEFSAII (Michael W. Deem and Ramdas Pophale) SiO2 
 PCOD9581596
Probable space group: P 6/M
;
_chemical_formula_sum "Si O2"
_cell_formula_units_Z 30
_cell_length_a 10.990259
_cell_length_b 10.990259
_cell_length_c 13.207340
_cell_angle_alpha 90.000000
_cell_angle_beta 90.000000
_cell_angle_gamma 120.000000
_cell_volume 1381.534849
_symmetry_space_group_name_H-M "P 6/M"
_symmetry_group_IT_number 175
_symmetry_cell_setting 'hexagonal'
loop_
_space_group_symop_operation_xyz
x,y,z
x-y,x,z
-y,x-y,z
-x,-y,z
-x+y,-x,z
y,-x+y,z
-x,-y,-z
-x+y,-x,-z
y,-x+y,-z
x,y,-z
x-y,x,-z
-y,x-y,-z
loop_
_atom_site_type_symbol
_atom_site_label
_atom_site_fract_x
_atom_site_fract_y
_atom_site_fract_z
Si Si1 0.747042 0.681839 0.500000
Si Si2 0.333778 0.507633 0.694029
Si Si3 0.247523 0.320075 0.885494
O O1 0.728268 0.816859 0.500000
O O2 0.678931 0.586175 0.598725
O O3 0.463585 0.665853 0.689432
O O4 0.327412 0.433428 0.798971
O O5 0.269951 0.187140 0.874452
O O6 0.290851 0.376222 0.000000
#
# Coordination Sequence:
#
# PCOD9581596 Si02
#       3
#     6  12  12
#     4  12  25  42  66  92 119 152 194 248 302 352
#     4  10  24  42  59  90 121 160 201 239 291 357
#     4  10  21  38  62  90 121 158 200 250 302 350
#
# _framework density 21.714977999999999
#
# number of rings (size 3 to 8) (size 9 to 14) (size 15 to 20)
#    0.800    0.800    0.000    4.200    0.000   11.200 
#    0.000    8.000    0.000    0.000    0.000    0.000 
#    0.000    0.000    0.000    0.000    0.000    0.000 
#
# Total GULP energy -167864.316582 kJ/mol
# GULP energy per Si atom -5595.477219 kJ/mol
# Density = 2.166555 g / cm^3
# Si number density = 21.714978 Si / 1000 Ang^3
#
#
#
# Elastic Constant Matrix: (Units=GPa)
#
#
# Indices 1 2 3 4 5 6 
#
# 1 99.4098 14.0735 52.5089 0.0000 0.0000 0.0000
# 2 14.0735 99.4098 52.5089 0.0000 0.0000 0.0000
# 3 52.5089 52.5089 154.4305 0.0000 0.0000 0.0000
# 4 0.0000 0.0000 0.0000 1.2279 0.0000 0.0000
# 5 0.0000 0.0000 0.0000 0.0000 1.2279 0.0000
# 6 0.0000 0.0000 0.0000 0.0000 0.0000 42.6681
#
#
#
# Elastic Compliance Matrix: (Units=1/GPa)
#
#
# Indices 1 2 3 4 5 6 
#
# 1 0.012288 0.000570 -0.004372 0.000000 0.000000 0.000000
# 2 0.000570 0.012288 -0.004372 0.000000 0.000000 0.000000
# 3 -0.004372 -0.004372 0.009448 0.000000 0.000000 0.000000
# 4 0.000000 0.000000 0.000000 0.814386 0.000000 0.000000
# 5 0.000000 0.000000 0.000000 0.000000 0.814386 0.000000
# 6 0.000000 0.000000 0.000000 0.000000 0.000000 0.023437
#
#
# Mechanical properties :
#
#
# Convention : Reuss Voigt Hill
#
# Bulk Modulus (GPa) = 56.57286 65.71474 61.14380
# Shear Modulus (GPa) = 2.92659 24.63538 13.78098
#
# Velocity S-wave (km/s) = 1.16218 3.37187 2.52192
# Velocity P-wave (km/s) = 5.28298 6.74444 6.05794
#
# Compressibility (1/GPa) = 0.01767632
#
# Stress axis : x y z
#
# Youngs Moduli (GPa) = 81.38064 81.38064 105.83858
#
# Poissons Ratio (x) = -0.04635 0.46270
# Poissons Ratio (y) = -0.04635 0.46270
# Poissons Ratio (z) = 0.35578 0.35578
#
# Static dielectric constant tensor:
#      x y z
#    x 1.778830 0.000000 0.000000 
#    y 0.000000 1.778830 0.000000 
#    z 0.000000 0.000000 1.737710 
# 
# From -- ./inp_files/2190.got.cif
#   From: 2010.05.17/outbox.cif.g08.bks.cpg/sg175_2_cif.got.tgz:2190.got - 2010.05.20 11:23:22.
