data_PCOD9581411
_publ_section_title
;
Structure prediction by ZEFSAII (Michael W. Deem and Ramdas Pophale) SiO2 
 PCOD9581411
Probable space group: P 6/M
;
_chemical_formula_sum "Si O2"
_cell_formula_units_Z 72
_cell_length_a 15.006709
_cell_length_b 15.006709
_cell_length_c 16.740459
_cell_angle_alpha 90.000000
_cell_angle_beta 90.000000
_cell_angle_gamma 120.000000
_cell_volume 3264.892719
_symmetry_space_group_name_H-M "P 6/M"
_symmetry_group_IT_number 175
_symmetry_cell_setting 'hexagonal'
loop_
_space_group_symop_operation_xyz
x,y,z
x-y,x,z
-y,x-y,z
-x,-y,z
-x+y,-x,z
y,-x+y,z
-x,-y,-z
-x+y,-x,-z
y,-x+y,-z
x,y,-z
x-y,x,-z
-y,x-y,-z
loop_
_atom_site_type_symbol
_atom_site_label
_atom_site_fract_x
_atom_site_fract_y
_atom_site_fract_z
Si Si1 0.891373 0.328021 0.086953
Si Si2 0.830686 0.063497 0.710232
Si Si3 0.842010 0.379368 0.411006
Si Si4 0.435292 0.876322 0.757927
Si Si5 0.735404 0.109929 0.854096
Si Si6 0.673653 0.047502 0.585064
O O1 0.866762 0.375350 0.163923
O O2 0.813070 0.206591 0.093848
O O3 0.009945 0.358255 0.098541
O O4 0.879240 0.365845 0.000000
O O5 0.800796 0.075445 0.799714
O O6 0.755921 0.082145 0.653401
O O7 0.948281 0.143679 0.695061
O O8 0.790388 0.339757 0.500000
O O9 0.809529 0.370640 0.317227
O O10 0.890096 0.502635 0.416387
O O11 0.929692 0.347449 0.408317
O O12 0.327434 0.857569 0.792475
O O13 0.500000 0.000000 0.734794
O O14 0.726601 0.061964 0.500000
#
# Coordination Sequence:
#
# PCOD9581411 Si02
#       6
#    12  12  12  12  12  12
#     4  11  24  41  64  92 128 170 215 271 334 400
#     4  12  24  40  60  85 126 177 232 286 337 384
#     4   9  15  29  59  95 123 150 194 255 318 388
#     4  10  19  35  63  91 122 157 197 258 325 393
#     4  11  22  40  64  91 124 165 218 270 327 393
#     4   9  17  32  57  87 118 156 207 263 323 389
#
# _framework density 22.052792
#
# number of rings (size 3 to 8) (size 9 to 14) (size 15 to 20)
#    0.000    1.667    5.000    2.667    0.000    4.333 
#    1.000    0.000    0.000    2.000    0.000    2.333 
#    1.667    0.000    1.000    0.000    0.000    0.000 
#
# Total GULP energy -401695.929797 kJ/mol
# GULP energy per Si atom -5579.110136 kJ/mol
# Density = 2.200260 g / cm^3
# Si number density = 22.052792 Si / 1000 Ang^3
#
#
#
# Elastic Constant Matrix: (Units=GPa)
#
#
# Indices 1 2 3 4 5 6 
#
# 1 61.0202 27.9809 29.5863 0.0000 0.0000 0.0000
# 2 27.9809 61.0202 29.5863 0.0000 0.0000 0.0000
# 3 29.5863 29.5863 185.1556 0.0000 0.0000 0.0000
# 4 0.0000 0.0000 0.0000 -17.2744 0.0000 0.0000
# 5 0.0000 0.0000 0.0000 0.0000 -17.2744 0.0000
# 6 0.0000 0.0000 0.0000 0.0000 0.0000 16.5197
#
#
#
# Elastic Compliance Matrix: (Units=1/GPa)
#
#
# Indices 1 2 3 4 5 6 
#
# 1 0.021419 -0.008848 -0.002009 0.000000 0.000000 0.000000
# 2 -0.008848 0.021419 -0.002009 0.000000 0.000000 0.000000
# 3 -0.002009 -0.002009 0.006043 0.000000 0.000000 0.000000
# 4 0.000000 0.000000 0.000000 -0.057889 0.000000 0.000000
# 5 0.000000 0.000000 0.000000 0.000000 -0.057889 0.000000
# 6 0.000000 0.000000 0.000000 0.000000 0.000000 0.060534
#
#
# Mechanical properties :
#
#
# Convention : Reuss Voigt Hill
#
# Bulk Modulus (GPa) = 43.19580 53.50032 48.34806
# Shear Modulus (GPa) = 184.60777 11.06367 97.83572
#
# Velocity S-wave (km/s) = 9.15934 2.24227 6.66788
# Velocity P-wave (km/s) = 11.46682 5.56925 9.01400
#
# Compressibility (1/GPa) = 0.02315040
#
# Stress axis : x y z
#
# Youngs Moduli (GPa) = 46.68715 46.68715 165.48509
#
# Poissons Ratio (x) = 0.41308 0.33243
# Poissons Ratio (y) = 0.41308 0.33243
# Poissons Ratio (z) = 0.09379 0.09379
#
# Static dielectric constant tensor:
#      x y z
#    x 1.808250 0.000000 0.000000 
#    y 0.000000 1.808250 0.000000 
#    z 0.000000 0.000000 1.869490 
# 
# From -- ./inp_files/2876.got.cif
#   From: 2010.05.17/outbox.cif.g08.bks.cpg/sg175_2_cif.got.tgz:2876.got - 2010.05.20 11:23:22.
