data_PCOD9581258
_publ_section_title
;
Structure prediction by ZEFSAII (Michael W. Deem and Ramdas Pophale) SiO2 
 PCOD9581258
Probable space group: P 6/M
;
_chemical_formula_sum "Si O2"
_cell_formula_units_Z 64
_cell_length_a 14.449684
_cell_length_b 14.449684
_cell_length_c 18.159380
_cell_angle_alpha 90.000000
_cell_angle_beta 90.000000
_cell_angle_gamma 120.000000
_cell_volume 3283.585639
_symmetry_space_group_name_H-M "P 6/M"
_symmetry_group_IT_number 175
_symmetry_cell_setting 'hexagonal'
loop_
_space_group_symop_operation_xyz
x,y,z
x-y,x,z
-y,x-y,z
-x,-y,z
-x+y,-x,z
y,-x+y,z
-x,-y,-z
-x+y,-x,-z
y,-x+y,-z
x,y,-z
x-y,x,-z
-y,x-y,-z
loop_
_atom_site_type_symbol
_atom_site_label
_atom_site_fract_x
_atom_site_fract_y
_atom_site_fract_z
Si Si1 0.942931 0.689641 0.916600
Si Si2 0.531479 0.823985 0.920587
Si Si3 0.830050 0.072835 0.250316
Si Si4 0.875703 0.415277 0.779857
Si Si5 0.666668 0.333334 0.587416
Si Si6 0.465845 0.246141 0.310193
O O1 0.833994 0.575826 0.916129
O O2 0.929113 0.735826 0.838551
O O3 0.056369 0.694166 0.914073
O O4 0.940517 0.734055 0.000000
O O5 0.459263 0.820413 0.855339
O O6 0.482808 0.815892 0.000000
O O7 0.769369 0.117591 0.301616
O O8 0.953162 0.153682 0.265672
O O9 0.812794 0.466750 0.743098
O O10 0.858215 0.318565 0.726341
O O11 0.000000 0.500000 0.789319
O O12 0.666667 0.333334 0.500000
O O13 0.734510 0.455564 0.619172
#
# Coordination Sequence:
#
# PCOD9581258 Si02
#       6
#    12  12  12  12   4  12
#     4  10  18  30  50  74 107 156 209 267 320 353
#     4  10  20  33  50  72 106 151 204 261 317 366
#     4  12  22  36  57  86 120 163 210 257 302 351
#     4  11  21  35  56  81 109 153 199 239 298 363
#     4   9  21  42  72 105 127 149 184 225 279 354
#     4  10  21  38  61  89 124 153 184 238 294 350
#
# _framework density 19.490887000000001
#
# number of rings (size 3 to 8) (size 9 to 14) (size 15 to 20)
#    0.000    1.500    3.750    2.812    0.000    0.375 
#    0.000    1.875    0.000   21.375    0.000    0.000 
#    0.000    1.500    0.000    0.000    0.000    0.000 
#
# Total GULP energy -356821.905995 kJ/mol
# GULP energy per Si atom -5575.342281 kJ/mol
# Density = 1.944653 g / cm^3
# Si number density = 19.490887 Si / 1000 Ang^3
#
#
#
# Elastic Constant Matrix: (Units=GPa)
#
#
# Indices 1 2 3 4 5 6 
#
# 1 63.1287 17.9427 24.7510 0.0000 0.0000 -0.0001
# 2 17.9427 63.1291 24.7511 0.0000 0.0000 0.0001
# 3 24.7510 24.7511 95.7051 0.0000 0.0000 -0.0001
# 4 0.0000 0.0000 0.0000 14.4063 0.0000 0.0000
# 5 0.0000 0.0000 0.0000 0.0000 14.4059 0.0000
# 6 -0.0001 0.0001 -0.0001 0.0000 0.0000 22.5933
#
#
#
# Elastic Compliance Matrix: (Units=1/GPa)
#
#
# Indices 1 2 3 4 5 6 
#
# 1 0.018389 -0.003741 -0.003788 0.000000 0.000000 0.000000
# 2 -0.003741 0.018389 -0.003788 0.000000 0.000000 0.000000
# 3 -0.003788 -0.003788 0.012408 0.000000 0.000000 0.000000
# 4 0.000000 0.000000 0.000000 0.069414 0.000000 0.000000
# 5 0.000000 0.000000 0.000000 0.000000 0.069416 0.000000
# 6 0.000000 0.000000 0.000000 0.000000 0.000000 0.044261
#
#
# Mechanical properties :
#
#
# Convention : Reuss Voigt Hill
#
# Bulk Modulus (GPa) = 37.66328 39.65028 38.65678
# Shear Modulus (GPa) = 18.95638 20.58231 19.76935
#
# Velocity S-wave (km/s) = 3.12200 3.25314 3.18824
# Velocity P-wave (km/s) = 5.68870 5.87347 5.78182
#
# Compressibility (1/GPa) = 0.02655106
#
# Stress axis : x y z
#
# Youngs Moduli (GPa) = 54.37951 54.37975 80.59218
#
# Poissons Ratio (x) = 0.20346 0.30530
# Poissons Ratio (y) = 0.20345 0.30530
# Poissons Ratio (z) = 0.20600 0.20600
#
# Static dielectric constant tensor:
#      x y z
#    x 1.738340 0.000000 0.000000 
#    y 0.000000 1.738340 0.000000 
#    z 0.000000 0.000000 1.681180 
# 
# From -- ./inp_files/2819.got.cif
#   From: 2010.05.17/outbox.cif.g08.bks.cpg/sg175_2_cif.got.tgz:2819.got - 2010.05.20 11:23:22.
