data_PCOD9581654
_publ_section_title
;
Structure prediction by ZEFSAII (Michael W. Deem and Ramdas Pophale) SiO2 
 PCOD9581654
Probable space group: P 6/M
;
_chemical_formula_sum "Si O2"
_cell_formula_units_Z 60
_cell_length_a 15.301414
_cell_length_b 15.301414
_cell_length_c 12.794025
_cell_angle_alpha 90.000000
_cell_angle_beta 90.000000
_cell_angle_gamma 120.000000
_cell_volume 2594.185085
_symmetry_space_group_name_H-M "P 6/M"
_symmetry_group_IT_number 175
_symmetry_cell_setting 'hexagonal'
loop_
_space_group_symop_operation_xyz
x,y,z
x-y,x,z
-y,x-y,z
-x,-y,z
-x+y,-x,z
y,-x+y,z
-x,-y,-z
-x+y,-x,-z
y,-x+y,-z
x,y,-z
x-y,x,-z
-y,x-y,-z
loop_
_atom_site_type_symbol
_atom_site_label
_atom_site_fract_x
_atom_site_fract_y
_atom_site_fract_z
Si Si1 0.585815 0.648755 0.383585
Si Si2 0.480028 0.587717 0.840752
Si Si3 0.739264 0.539597 0.162075
Si Si4 0.262997 0.434240 0.387102
Si Si5 0.161221 0.228972 0.126361
O O1 0.538300 0.613683 0.500000
O O2 0.511089 0.600212 0.284672
O O3 0.627602 0.768790 0.382685
O O4 0.675905 0.624622 0.377376
O O5 0.500000 0.500000 0.876923
O O6 0.366458 0.544024 0.880904
O O7 0.541640 0.702711 0.877340
O O8 0.717082 0.502659 0.283027
O O9 0.762361 0.654499 0.157163
O O10 0.289741 0.486413 0.500000
O O11 0.195760 0.149154 0.160994
O O12 0.160262 0.227001 0.000000
#
# Coordination Sequence:
#
# PCOD9581654 Si02
#       5
#    12  12  12  12  12
#     4   9  18  32  52  77 111 157 207 251 293 340
#     4  11  21  35  54  82 113 161 194 239 288 340
#     4  11  22  37  57  86 123 157 203 244 290 345
#     4   9  18  32  51  80 113 155 205 249 292 347
#     4  10  22  42  69  96 119 144 183 241 307 370
#
# _framework density 23.128651999999999
#
# number of rings (size 3 to 8) (size 9 to 14) (size 15 to 20)
#    0.000    2.000    2.000    1.800    2.800    2.000 
#    0.000    1.000    0.000    6.400    0.000    2.800 
#    0.000    0.000    0.000    0.000    0.000    0.000 
#
# Total GULP energy -334074.690211 kJ/mol
# GULP energy per Si atom -5567.911504 kJ/mol
# Density = 2.307601 g / cm^3
# Si number density = 23.128652 Si / 1000 Ang^3
#
#
#
# Elastic Constant Matrix: (Units=GPa)
#
#
# Indices 1 2 3 4 5 6 
#
# 1 102.1408 27.4844 10.5591 0.0000 0.0000 0.0000
# 2 27.4844 102.1408 10.5591 0.0000 0.0000 0.0000
# 3 10.5591 10.5591 121.6881 0.0000 0.0000 0.0000
# 4 0.0000 0.0000 0.0000 -30.3394 0.0000 0.0000
# 5 0.0000 0.0000 0.0000 0.0000 -30.3394 0.0000
# 6 0.0000 0.0000 0.0000 0.0000 0.0000 37.3282
#
#
#
# Elastic Compliance Matrix: (Units=1/GPa)
#
#
# Indices 1 2 3 4 5 6 
#
# 1 0.010610 -0.002785 -0.000679 0.000000 0.000000 0.000000
# 2 -0.002785 0.010610 -0.000679 0.000000 0.000000 0.000000
# 3 -0.000679 -0.000679 0.008336 0.000000 0.000000 0.000000
# 4 0.000000 0.000000 0.000000 -0.032960 0.000000 0.000000
# 5 0.000000 0.000000 0.000000 0.000000 -0.032960 0.000000
# 6 0.000000 0.000000 0.000000 0.000000 0.000000 0.026789
#
#
# Mechanical properties :
#
#
# Convention : Reuss Voigt Hill
#
# Bulk Modulus (GPa) = 47.01478 47.01940 47.01709
# Shear Modulus (GPa) = 862.13591 13.82101 437.97846
#
# Velocity S-wave (km/s) = 19.32785 2.44718 13.77597
# Velocity P-wave (km/s) = 22.76971 5.32527 16.53508
#
# Compressibility (1/GPa) = 0.02126991
#
# Stress axis : x y z
#
# Youngs Moduli (GPa) = 94.25128 94.25128 119.96787
#
# Poissons Ratio (x) = 0.26247 0.08146
# Poissons Ratio (y) = 0.26247 0.08146
# Poissons Ratio (z) = 0.06400 0.06400
#
# Static dielectric constant tensor:
#      x y z
#    x 1.872510 0.000000 0.000000 
#    y 0.000000 1.872510 0.000000 
#    z 0.000000 0.000000 1.992680 
# 
# From -- ./inp_files/2391.got.cif
#   From: 2010.05.17/outbox.cif.g08.bks.cpg/sg175_2_cif.got.tgz:2391.got - 2010.05.20 11:23:22.
