data_PCOD9581487
_publ_section_title
;
Structure prediction by ZEFSAII (Michael W. Deem and Ramdas Pophale) SiO2 
 PCOD9581487
Probable space group: P 6/M
;
_chemical_formula_sum "Si O2"
_cell_formula_units_Z 66
_cell_length_a 20.458928
_cell_length_b 20.458928
_cell_length_c 9.968801
_cell_angle_alpha 90.000000
_cell_angle_beta 90.000000
_cell_angle_gamma 120.000000
_cell_volume 3613.593582
_symmetry_space_group_name_H-M "P 6/M"
_symmetry_group_IT_number 175
_symmetry_cell_setting 'hexagonal'
loop_
_space_group_symop_operation_xyz
x,y,z
x-y,x,z
-y,x-y,z
-x,-y,z
-x+y,-x,z
y,-x+y,z
-x,-y,-z
-x+y,-x,-z
y,-x+y,-z
x,y,-z
x-y,x,-z
-y,x-y,-z
loop_
_atom_site_type_symbol
_atom_site_label
_atom_site_fract_x
_atom_site_fract_y
_atom_site_fract_z
Si Si1 0.239263 0.305460 0.651019
Si Si2 0.809620 0.094938 0.233881
Si Si3 0.520969 0.434254 0.655411
Si Si4 0.169658 0.459414 0.158638
Si Si5 0.176888 0.098334 0.000000
Si Si6 0.825781 0.299896 0.658619
O O1 0.264160 0.305225 0.500000
O O2 0.254210 0.245739 0.727166
O O3 0.153178 0.288404 0.654315
O O4 0.286140 0.391633 0.700852
O O5 0.760189 0.129153 0.174694
O O6 0.868785 0.099365 0.126410
O O7 0.500000 0.500000 0.677990
O O8 0.498223 0.407758 0.500000
O O9 0.483797 0.367438 0.762945
O O10 0.611138 0.469137 0.665610
O O11 0.247596 0.491384 0.244092
O O12 0.180399 0.479082 0.000000
O O13 0.121334 0.131056 0.000000
O O14 0.808042 0.277031 0.500000
#
# Coordination Sequence:
#
# PCOD9581487 Si02
#       6
#    12  12  12  12   6  12
#     4  10  20  35  58  84 111 144 193 249 298 348
#     4  11  21  36  56  82 115 152 192 237 297 357
#     4  10  21  40  64  90 121 159 204 252 305 365
#     4  11  23  37  59  90 122 157 198 246 302 359
#     4  12  23  40  60  80 113 163 207 237 283 359
#     4   9  20  39  61  86 115 155 200 245 299 360
#
# _framework density 18.264368999999999
#
# number of rings (size 3 to 8) (size 9 to 14) (size 15 to 20)
#    0.000    1.636    2.727    2.273    0.000    4.727 
#    1.091    0.000    0.000    0.000    0.000    2.545 
#    0.000    0.000    0.000    0.000    0.000    0.000 
#
# Total GULP energy -368029.165696 kJ/mol
# GULP energy per Si atom -5576.199480 kJ/mol
# Density = 1.822280 g / cm^3
# Si number density = 18.264369 Si / 1000 Ang^3
#
#
#
# Elastic Constant Matrix: (Units=GPa)
#
#
# Indices 1 2 3 4 5 6 
#
# 1 79.8244 29.9548 41.6160 0.0000 0.0000 0.0000
# 2 29.9548 79.8244 41.6160 0.0000 0.0000 0.0000
# 3 41.6160 41.6160 97.0500 0.0000 0.0000 0.0000
# 4 0.0000 0.0000 0.0000 29.8070 0.0000 0.0000
# 5 0.0000 0.0000 0.0000 0.0000 29.8070 0.0000
# 6 0.0000 0.0000 0.0000 0.0000 0.0000 24.9348
#
#
#
# Elastic Compliance Matrix: (Units=1/GPa)
#
#
# Indices 1 2 3 4 5 6 
#
# 1 0.016775 -0.003277 -0.005788 0.000000 0.000000 0.000000
# 2 -0.003277 0.016775 -0.005788 0.000000 0.000000 0.000000
# 3 -0.005788 -0.005788 0.015268 0.000000 0.000000 0.000000
# 4 0.000000 0.000000 0.000000 0.033549 0.000000 0.000000
# 5 0.000000 0.000000 0.000000 0.000000 0.033549 0.000000
# 6 0.000000 0.000000 0.000000 0.000000 0.000000 0.040105
#
#
# Mechanical properties :
#
#
# Convention : Reuss Voigt Hill
#
# Bulk Modulus (GPa) = 52.32527 53.67471 52.99999
# Shear Modulus (GPa) = 26.02853 26.47722 26.25288
#
# Velocity S-wave (km/s) = 3.77914 3.81158 3.79540
# Velocity P-wave (km/s) = 6.91040 6.98730 6.94895
#
# Compressibility (1/GPa) = 0.01911123
#
# Stress axis : x y z
#
# Youngs Moduli (GPa) = 59.61310 59.61310 65.49772
#
# Poissons Ratio (x) = 0.19538 0.37909
# Poissons Ratio (y) = 0.19538 0.37909
# Poissons Ratio (z) = 0.34503 0.34503
#
# Static dielectric constant tensor:
#      x y z
#    x 1.620260 0.000000 0.000000 
#    y 0.000000 1.620260 0.000000 
#    z 0.000000 0.000000 1.629610 
# 
# From -- ./inp_files/991.got.cif
#   From: 2010.05.17/outbox.cif.g08.bks.cpg/sg175_1_cif.got.tgz:991.got - 2010.05.20 11:23:22.
