data_PCOD9581464
_publ_section_title
;
Structure prediction by ZEFSAII (Michael W. Deem and Ramdas Pophale) SiO2 
 PCOD9581464
Probable space group: P 6/M
;
_chemical_formula_sum "Si O2"
_cell_formula_units_Z 66
_cell_length_a 17.975657
_cell_length_b 17.975657
_cell_length_c 13.416605
_cell_angle_alpha 90.000000
_cell_angle_beta 90.000000
_cell_angle_gamma 120.000000
_cell_volume 3754.419619
_symmetry_space_group_name_H-M "P 6/M"
_symmetry_group_IT_number 175
_symmetry_cell_setting 'hexagonal'
loop_
_space_group_symop_operation_xyz
x,y,z
x-y,x,z
-y,x-y,z
-x,-y,z
-x+y,-x,z
y,-x+y,z
-x,-y,-z
-x+y,-x,-z
y,-x+y,-z
x,y,-z
x-y,x,-z
-y,x-y,-z
loop_
_atom_site_type_symbol
_atom_site_label
_atom_site_fract_x
_atom_site_fract_y
_atom_site_fract_z
Si Si1 0.487840 0.834813 0.119997
Si Si2 0.817120 0.974032 0.878459
Si Si3 0.682619 0.169832 0.802050
Si Si4 0.665419 0.662761 0.880768
Si Si5 0.226808 0.645882 0.500000
Si Si6 0.092519 0.517341 0.386023
O O1 0.398534 0.828195 0.149039
O O2 0.502016 0.764105 0.176420
O O3 0.565732 0.928876 0.148149
O O4 0.490110 0.822869 0.000000
O O5 0.830249 0.895904 0.846833
O O6 0.728656 0.967309 0.844407
O O7 0.816382 0.972787 0.000000
O O8 0.653715 0.138377 0.689055
O O9 0.692621 0.093840 0.850188
O O10 0.668618 0.664595 0.000000
O O11 0.265122 0.579636 0.500000
O O12 0.163312 0.618149 0.405912
O O13 0.077653 0.481657 0.500000
O O14 0.000000 0.500000 0.349965
#
# Coordination Sequence:
#
# PCOD9581464 Si02
#       6
#    12  12  12  12   6  12
#     4  11  23  35  51  74 102 136 177 224 259 305
#     4   9  16  27  46  70  96 126 163 207 252 300
#     4  12  23  35  55  75 101 138 181 219 268 318
#     4  10  20  35  50  69 101 139 173 208 260 320
#     4   8  17  30  56  80 106 132 168 226 275 323
#     4   9  20  36  53  76 107 137 171 218 274 329
#
# _framework density 17.579281000000002
#
# number of rings (size 3 to 8) (size 9 to 14) (size 15 to 20)
#    0.727    1.273    0.000    4.909    2.545    5.091 
#    0.000    0.000    0.000    0.000    0.000    0.000 
#    0.000    0.000    0.000    0.000    0.000    6.545 
#
# Total GULP energy -367612.815027 kJ/mol
# GULP energy per Si atom -5569.891137 kJ/mol
# Density = 1.753927 g / cm^3
# Si number density = 17.579281 Si / 1000 Ang^3
#
#
#
# Elastic Constant Matrix: (Units=GPa)
#
#
# Indices 1 2 3 4 5 6 
#
# 1 21.2931 14.6834 8.3045 0.0000 0.0000 0.0000
# 2 14.6834 21.2931 8.3045 0.0000 0.0000 0.0000
# 3 8.3045 8.3045 49.6468 0.0000 0.0000 0.0000
# 4 0.0000 0.0000 0.0000 11.0947 0.0000 0.0000
# 5 0.0000 0.0000 0.0000 0.0000 11.0947 0.0000
# 6 0.0000 0.0000 0.0000 0.0000 0.0000 3.3049
#
#
#
# Elastic Compliance Matrix: (Units=1/GPa)
#
#
# Indices 1 2 3 4 5 6 
#
# 1 0.090707 -0.060585 -0.005039 0.000000 0.000000 0.000000
# 2 -0.060585 0.090707 -0.005039 0.000000 0.000000 0.000000
# 3 -0.005039 -0.005039 0.021828 0.000000 0.000000 0.000000
# 4 0.000000 0.000000 0.000000 0.090133 0.000000 0.000000
# 5 0.000000 0.000000 0.000000 0.000000 0.090133 0.000000
# 6 0.000000 0.000000 0.000000 0.000000 0.000000 0.302585
#
#
# Mechanical properties :
#
#
# Convention : Reuss Voigt Hill
#
# Bulk Modulus (GPa) = 16.15045 17.20197 16.67621
# Shear Modulus (GPa) = 5.89582 9.16156 7.52869
#
# Velocity S-wave (km/s) = 1.83334 2.28536 2.07172
# Velocity P-wave (km/s) = 3.69982 4.09517 3.90251
#
# Compressibility (1/GPa) = 0.06191778
#
# Stress axis : x y z
#
# Youngs Moduli (GPa) = 11.02447 11.02447 45.81291
#
# Poissons Ratio (x) = 0.66792 0.23083
# Poissons Ratio (y) = 0.66792 0.23083
# Poissons Ratio (z) = 0.05555 0.05555
#
# Static dielectric constant tensor:
#      x y z
#    x 1.603460 0.000000 0.000000 
#    y 0.000000 1.603460 0.000000 
#    z 0.000000 0.000000 1.640900 
# 
# From -- ./inp_files/2492.got.cif
#   From: 2010.05.17/outbox.cif.g08.bks.cpg/sg175_2_cif.got.tgz:2492.got - 2010.05.20 11:23:22.
