data_PCOD9581510
_publ_section_title
;
Structure prediction by ZEFSAII (Michael W. Deem and Ramdas Pophale) SiO2 
 PCOD9581510
Probable space group: P 6/M
;
_chemical_formula_sum "Si O2"
_cell_formula_units_Z 70
_cell_length_a 14.512197
_cell_length_b 14.512197
_cell_length_c 18.810267
_cell_angle_alpha 90.000000
_cell_angle_beta 90.000000
_cell_angle_gamma 120.000000
_cell_volume 3430.772516
_symmetry_space_group_name_H-M "P 6/M"
_symmetry_group_IT_number 175
_symmetry_cell_setting 'hexagonal'
loop_
_space_group_symop_operation_xyz
x,y,z
x-y,x,z
-y,x-y,z
-x,-y,z
-x+y,-x,z
y,-x+y,z
-x,-y,-z
-x+y,-x,-z
y,-x+y,-z
x,y,-z
x-y,x,-z
-y,x-y,-z
loop_
_atom_site_type_symbol
_atom_site_label
_atom_site_fract_x
_atom_site_fract_y
_atom_site_fract_z
Si Si1 0.147825 0.230668 0.083441
Si Si2 0.221907 0.537200 0.500000
Si Si3 0.333334 0.666668 0.911722
Si Si4 0.193736 0.221746 0.414811
Si Si5 0.408231 0.386145 0.780080
Si Si6 0.426623 0.378482 0.386480
Si Si7 0.564060 0.804917 0.843337
O O1 0.194077 0.161030 0.115464
O O2 0.221970 0.354029 0.094111
O O3 0.136333 0.210192 0.000000
O O4 0.347063 0.575484 0.500000
O O5 0.156597 0.469556 0.431597
O O6 0.446732 0.750740 0.876483
O O7 0.333334 0.666668 0.000000
O O8 0.084981 0.211605 0.386815
O O9 0.181779 0.210729 0.500000
O O10 0.302181 0.330264 0.401366
O O11 0.500000 0.500000 0.809257
O O12 0.435046 0.376220 0.698252
O O13 0.412599 0.288096 0.817234
O O14 0.304373 0.401149 0.787549
O O15 0.500000 0.500000 0.409845
#
# Coordination Sequence:
#
# PCOD9581510 Si02
#       7
#    12   6   4  12  12  12  12
#     4  10  20  36  63  97 133 173 217 274 344 411
#     4  10  25  42  70 100 137 173 232 295 358 401
#     4  12  27  45  75 105 135 181 236 295 351 417
#     4  10  22  38  62  89 127 170 218 279 340 400
#     4  11  26  44  67  97 134 194 224 285 344 421
#     4  11  25  41  66  97 135 171 231 276 356 412
#     4  12  23  46  66  96 142 176 237 281 346 415
#
# _framework density 20.403568
#
# number of rings (size 3 to 8) (size 9 to 14) (size 15 to 20)
#    0.171    1.029    4.286    1.114    4.800    2.743 
#    0.000    0.857    0.000    0.000    0.000    0.000 
#    0.000    0.000    0.000    0.000    0.000    0.000 
#
# Total GULP energy -389991.322642 kJ/mol
# GULP energy per Si atom -5571.304609 kJ/mol
# Density = 2.035713 g / cm^3
# Si number density = 20.403568 Si / 1000 Ang^3
#
#
#
# Elastic Constant Matrix: (Units=GPa)
#
#
# Indices 1 2 3 4 5 6 
#
# 1 92.4883 51.8210 15.1187 0.0000 0.0000 0.0000
# 2 51.8210 92.4874 15.1191 0.0000 0.0000 0.0007
# 3 15.1187 15.1191 60.0367 0.0000 0.0000 0.0000
# 4 0.0000 0.0000 0.0000 4.9217 0.0000 0.0000
# 5 0.0000 0.0000 0.0000 0.0000 4.9217 0.0000
# 6 0.0000 0.0007 0.0000 0.0000 0.0000 20.3338
#
#
#
# Elastic Compliance Matrix: (Units=1/GPa)
#
#
# Indices 1 2 3 4 5 6 
#
# 1 0.015953 -0.008637 -0.001842 0.000000 0.000000 0.000000
# 2 -0.008637 0.015953 -0.001842 0.000000 0.000000 -0.000001
# 3 -0.001842 -0.001842 0.017584 0.000000 0.000000 0.000000
# 4 0.000000 0.000000 0.000000 0.203183 -0.000002 0.000000
# 5 0.000000 0.000000 0.000000 -0.000002 0.203180 0.000000
# 6 0.000000 -0.000001 0.000000 0.000000 0.000000 0.049179
#
#
# Mechanical properties :
#
#
# Convention : Reuss Voigt Hill
#
# Bulk Modulus (GPa) = 40.24716 45.45888 42.85302
# Shear Modulus (GPa) = 9.29440 16.89901 13.09671
#
# Velocity S-wave (km/s) = 2.13663 2.88103 2.53629
# Velocity P-wave (km/s) = 5.08481 5.77887 5.44292
#
# Compressibility (1/GPa) = 0.02484648
#
# Stress axis : x y z
#
# Youngs Moduli (GPa) = 62.68520 62.68437 56.86874
#
# Poissons Ratio (x) = 0.54142 0.10476
# Poissons Ratio (y) = 0.54143 0.10477
# Poissons Ratio (z) = 0.11548 0.11549
#
# Static dielectric constant tensor:
#      x y z
#    x 1.758500 0.000000 0.000000 
#    y 0.000000 1.758500 0.000000 
#    z 0.000000 0.000000 1.726100 
# 
# From -- ./inp_files/2894.got.cif
#   From: 2010.05.17/outbox.cif.g08.bks.cpg/sg175_2_cif.got.tgz:2894.got - 2010.05.20 11:23:22.
