data_PCOD9581674
_publ_section_title
;
Structure prediction by ZEFSAII (Michael W. Deem and Ramdas Pophale) SiO2 
 PCOD9581674
Probable space group: P 6/M
;
_chemical_formula_sum "Si O2"
_cell_formula_units_Z 78
_cell_length_a 22.960293
_cell_length_b 22.960293
_cell_length_c 10.139982
_cell_angle_alpha 90.000000
_cell_angle_beta 90.000000
_cell_angle_gamma 120.000000
_cell_volume 4629.378256
_symmetry_space_group_name_H-M "P 6/M"
_symmetry_group_IT_number 175
_symmetry_cell_setting 'hexagonal'
loop_
_space_group_symop_operation_xyz
x,y,z
x-y,x,z
-y,x-y,z
-x,-y,z
-x+y,-x,z
y,-x+y,z
-x,-y,-z
-x+y,-x,-z
y,-x+y,-z
x,y,-z
x-y,x,-z
-y,x-y,-z
loop_
_atom_site_type_symbol
_atom_site_label
_atom_site_fract_x
_atom_site_fract_y
_atom_site_fract_z
Si Si1 0.661420 0.464285 0.660010
Si Si2 0.529374 0.328658 0.338712
Si Si3 0.041438 0.156522 0.500000
Si Si4 0.792726 0.714926 0.853928
Si Si5 0.314449 0.390476 0.658097
Si Si6 0.250845 0.184371 0.753786
Si Si7 0.689812 0.077557 0.657981
O O1 0.660955 0.461599 0.500000
O O2 0.729878 0.466592 0.702784
O O3 0.594769 0.397332 0.704964
O O4 0.663277 0.533388 0.694010
O O5 0.529256 0.329058 0.500000
O O6 0.459767 0.323477 0.294444
O O7 0.094973 0.130322 0.500000
O O8 0.053766 0.203582 0.627119
O O9 0.750966 0.660827 0.740479
O O10 0.778564 0.776010 0.833389
O O11 0.871019 0.742215 0.834074
O O12 0.770703 0.685721 0.000000
O O13 0.300445 0.381623 0.500000
O O14 0.370138 0.368794 0.687082
O O15 0.325577 0.241330 0.710079
O O16 0.695456 0.083137 0.500000
#
# Coordination Sequence:
#
# PCOD9581674 Si02
#       7
#    12  12   6  12  12  12  12
#     4   9  16  27  42  68 102 140 174 210 266 327
#     4   9  16  25  40  65 103 139 170 210 263 323
#     4  12  23  38  58  86 108 143 181 225 263 317
#     4  11  23  37  53  76 105 137 174 219 268 318
#     4   9  19  32  51  75 101 133 173 217 266 321
#     4  11  21  34  56  76 105 136 177 216 266 317
#     4   9  17  28  46  75 102 130 169 215 266 315
#
# _framework density 16.848915000000002
#
# number of rings (size 3 to 8) (size 9 to 14) (size 15 to 20)
#    0.000    2.154    2.308    1.769    2.154    3.077 
#    0.000    3.077    0.000    0.000    0.000   15.077 
#    0.000    0.000    0.000    0.000    0.000    0.000 
#
# Total GULP energy -434901.394814 kJ/mol
# GULP energy per Si atom -5575.658908 kJ/mol
# Density = 1.681057 g / cm^3
# Si number density = 16.848915 Si / 1000 Ang^3
#
#
#
# Elastic Constant Matrix: (Units=GPa)
#
#
# Indices 1 2 3 4 5 6 
#
# 1 144.0204 97.6353 24.6438 0.0000 0.0000 0.0000
# 2 97.6353 144.0204 24.6438 0.0000 0.0000 0.0000
# 3 24.6438 24.6438 35.7444 0.0000 0.0000 0.0000
# 4 0.0000 0.0000 0.0000 0.5486 0.0000 0.0000
# 5 0.0000 0.0000 0.0000 0.0000 0.5486 0.0000
# 6 0.0000 0.0000 0.0000 0.0000 0.0000 23.1925
#
#
#
# Elastic Compliance Matrix: (Units=1/GPa)
#
#
# Indices 1 2 3 4 5 6 
#
# 1 0.013187 -0.008372 -0.003320 0.000000 0.000000 0.000000
# 2 -0.008372 0.013187 -0.003320 0.000000 0.000000 0.000000
# 3 -0.003320 -0.003320 0.032554 0.000000 0.000000 0.000000
# 4 0.000000 0.000000 0.000000 1.822701 0.000000 0.000000
# 5 0.000000 0.000000 0.000000 0.000000 1.822701 0.000000
# 6 0.000000 0.000000 0.000000 0.000000 0.000000 0.043117
#
#
# Mechanical properties :
#
#
# Convention : Reuss Voigt Hill
#
# Bulk Modulus (GPa) = 34.59584 68.62567 51.61075
# Shear Modulus (GPa) = 1.32027 16.64878 8.98453
#
# Velocity S-wave (km/s) = 0.88617 3.14685 2.31171
# Velocity P-wave (km/s) = 4.65023 7.34997 6.15007
#
# Compressibility (1/GPa) = 0.02890521
#
# Stress axis : x y z
#
# Youngs Moduli (GPa) = 75.83257 75.83257 30.71813
#
# Poissons Ratio (x) = 0.63485 0.10198
# Poissons Ratio (y) = 0.63485 0.10198
# Poissons Ratio (z) = 0.25175 0.25175
#
# Static dielectric constant tensor:
#      x y z
#    x 1.563030 0.000000 0.000000 
#    y 0.000000 1.563030 0.000000 
#    z 0.000000 0.000000 1.543620 
# 
# From -- ./inp_files/1371.got.cif
#   From: 2010.05.17/outbox.cif.g08.bks.cpg/sg175_1_cif.got.tgz:1371.got - 2010.05.20 11:23:22.
