data_PCOD9581486
_publ_section_title
;
Structure prediction by ZEFSAII (Michael W. Deem and Ramdas Pophale) SiO2 
 PCOD9581486
Probable space group: P 6/M
;
_chemical_formula_sum "Si O2"
_cell_formula_units_Z 84
_cell_length_a 13.238712
_cell_length_b 13.238712
_cell_length_c 24.870544
_cell_angle_alpha 90.000000
_cell_angle_beta 90.000000
_cell_angle_gamma 120.000000
_cell_volume 3774.916811
_symmetry_space_group_name_H-M "P 6/M"
_symmetry_group_IT_number 175
_symmetry_cell_setting 'hexagonal'
loop_
_space_group_symop_operation_xyz
x,y,z
x-y,x,z
-y,x-y,z
-x,-y,z
-x+y,-x,z
y,-x+y,z
-x,-y,-z
-x+y,-x,-z
y,-x+y,-z
x,y,-z
x-y,x,-z
-y,x-y,-z
loop_
_atom_site_type_symbol
_atom_site_label
_atom_site_fract_x
_atom_site_fract_y
_atom_site_fract_z
Si Si1 0.404604 0.537535 0.286297
Si Si2 0.401508 0.233010 0.330612
Si Si3 0.868356 0.475440 0.175195
Si Si4 0.079707 0.256357 0.063975
Si Si5 0.918683 0.726196 0.779322
Si Si6 0.726771 0.819085 0.440388
Si Si7 0.612358 0.129594 0.059638
O O1 0.500000 0.500000 0.278608
O O2 0.299908 0.434259 0.317586
O O3 0.472322 0.655014 0.319685
O O4 0.386645 0.569064 0.225632
O O5 0.311172 0.217025 0.283615
O O6 0.357130 0.232636 0.389632
O O7 0.881414 0.602321 0.190167
O O8 0.817126 0.423953 0.116590
O O9 0.000000 0.500000 0.169622
O O10 0.173154 0.223328 0.086165
O O11 0.117477 0.390689 0.067288
O O12 0.073583 0.234728 0.000000
O O13 0.825927 0.771606 0.789315
O O14 0.826256 0.784383 0.436764
O O15 0.671755 0.782512 0.500000
O O16 0.500000 0.000000 0.056845
O O17 0.617262 0.180389 0.000000
#
# Coordination Sequence:
#
# PCOD9581486 Si02
#       7
#    12  12  12  12  12  12  12
#     4  10  20  36  58  84 112 147 196 252 309 368
#     4  11  21  37  60  87 119 160 211 266 320 376
#     4   9  19  36  55  76 106 146 193 244 301 363
#     4   9  17  30  51  81 116 154 193 233 285 357
#     4  11  22  36  58  89 126 163 201 253 316 383
#     4  10  20  35  57  88 128 173 217 261 316 387
#     4   9  18  34  56  78 102 141 194 247 296 352
#
# _framework density 22.252147000000001
#
# number of rings (size 3 to 8) (size 9 to 14) (size 15 to 20)
#    0.000    2.143    0.000    5.000    0.000    2.286 
#    0.000    3.571    0.000    5.429    0.000    4.000 
#    0.000    0.000    0.000    0.000    0.000    0.000 
#
# Total GULP energy -468669.102726 kJ/mol
# GULP energy per Si atom -5579.394080 kJ/mol
# Density = 2.220150 g / cm^3
# Si number density = 22.252147 Si / 1000 Ang^3
#
#
#
# Elastic Constant Matrix: (Units=GPa)
#
#
# Indices 1 2 3 4 5 6 
#
# 1 69.1536 -12.2305 13.8577 0.0000 0.0000 0.0000
# 2 -12.2305 69.1536 13.8577 0.0000 0.0000 0.0000
# 3 13.8577 13.8577 202.1233 0.0000 0.0000 0.0000
# 4 0.0000 0.0000 0.0000 118.9329 0.0000 0.0000
# 5 0.0000 0.0000 0.0000 0.0000 118.9329 0.0000
# 6 0.0000 0.0000 0.0000 0.0000 0.0000 40.6921
#
#
#
# Elastic Compliance Matrix: (Units=1/GPa)
#
#
# Indices 1 2 3 4 5 6 
#
# 1 0.015231 0.002943 -0.001246 0.000000 0.000000 0.000000
# 2 0.002943 0.015231 -0.001246 0.000000 0.000000 0.000000
# 3 -0.001246 -0.001246 0.005118 0.000000 0.000000 0.000000
# 4 0.000000 0.000000 0.000000 0.008408 0.000000 0.000000
# 5 0.000000 0.000000 0.000000 0.000000 0.008408 0.000000
# 6 0.000000 0.000000 0.000000 0.000000 0.000000 0.024575
#
#
# Mechanical properties :
#
#
# Convention : Reuss Voigt Hill
#
# Bulk Modulus (GPa) = 27.41028 41.26671 34.33850
# Shear Modulus (GPa) = 56.67059 77.37462 67.02260
#
# Velocity S-wave (km/s) = 5.05201 5.90316 5.49409
# Velocity P-wave (km/s) = 6.80993 8.06525 7.46403
#
# Compressibility (1/GPa) = 0.03648266
#
# Stress axis : x y z
#
# Youngs Moduli (GPa) = 65.65634 65.65634 195.37613
#
# Poissons Ratio (x) = -0.19325 0.24345
# Poissons Ratio (y) = -0.19325 0.24345
# Poissons Ratio (z) = 0.08181 0.08181
#
# Static dielectric constant tensor:
#      x y z
#    x 2.061820 0.000000 0.000000 
#    y 0.000000 2.061820 0.000000 
#    z 0.000000 0.000000 1.848440 
# 
# From -- ./inp_files/3250.got.cif
#   From: 2010.05.17/outbox.cif.g08.bks.cpg/sg175_2_cif.got.tgz:3250.got - 2010.05.20 11:23:22.
