data_PCOD9581817
_publ_section_title
;
Structure prediction by ZEFSAII (Michael W. Deem and Ramdas Pophale) SiO2 
 PCOD9581817
Probable space group: P 63/M
;
_chemical_formula_sum "Si O2"
_cell_formula_units_Z 66
_cell_length_a 17.449943
_cell_length_b 17.449943
_cell_length_c 13.572924
_cell_angle_alpha 90.000000
_cell_angle_beta 90.000000
_cell_angle_gamma 120.000000
_cell_volume 3579.250336
_symmetry_space_group_name_H-M "P 63/M"
_symmetry_group_IT_number 176
_symmetry_cell_setting 'hexagonal'
loop_
_space_group_symop_operation_xyz
x,y,z
x-y,x,1/2+z
-y,x-y,z
-x,-y,1/2+z
-x+y,-x,z
y,-x+y,1/2+z
-x,-y,-z
-x+y,-x,1/2-z
y,-x+y,-z
x,y,1/2-z
x-y,x,-z
-y,x-y,1/2-z
loop_
_atom_site_type_symbol
_atom_site_label
_atom_site_fract_x
_atom_site_fract_y
_atom_site_fract_z
Si Si1 0.449106 0.936362 0.134970
Si Si2 0.637539 0.792874 0.866556
Si Si3 0.301943 0.317880 0.864577
Si Si4 0.487984 0.604576 0.932107
Si Si5 0.383204 0.602819 0.750000
Si Si6 0.801746 0.843545 0.992367
O O1 0.448950 0.911431 0.250000
O O2 0.382557 0.975945 0.126274
O O3 0.545511 0.014127 0.101349
O O4 0.417376 0.868689 0.043329
O O5 0.627596 0.777151 0.750000
O O6 0.632708 0.880504 0.892522
O O7 0.562427 0.706391 0.920361
O O8 0.736214 0.817053 0.899062
O O9 0.282725 0.294531 0.750000
O O10 0.260972 0.228134 0.926475
O O11 0.413462 0.578470 0.849287
O O12 0.428982 0.709502 0.750000
O O13 0.886763 0.831258 0.979850
#
# Coordination Sequence:
#
# PCOD9581817 Si02
#       6
#    12  12  12  12   6  12
#     4  10  20  34  56  84 117 153 184 230 284 346
#     4  10  19  32  52  78 109 141 180 236 283 332
#     4   9  19  32  53  76 106 144 182 224 282 334
#     4  11  20  34  56  85 117 147 190 234 286 339
#     4  10  24  36  58  92 114 148 194 244 292 330
#     4  10  20  35  51  75 101 142 184 232 283 338
#
# _framework density 18.439616999999998
#
# number of rings (size 3 to 8) (size 9 to 14) (size 15 to 20)
#    0.182    1.818    3.636    0.182    2.545    0.727 
#    0.000    0.000    0.000    3.273    0.000    0.000 
#    0.000    0.000    0.000    0.000    0.000    0.000 
#
# Total GULP energy -367853.421494 kJ/mol
# GULP energy per Si atom -5573.536689 kJ/mol
# Density = 1.839765 g / cm^3
# Si number density = 18.439617 Si / 1000 Ang^3
#
#
#
# Elastic Constant Matrix: (Units=GPa)
#
#
# Indices 1 2 3 4 5 6 
#
# 1 47.0519 2.2682 16.9700 0.0000 0.0000 0.0000
# 2 2.2682 47.0519 16.9700 0.0000 0.0000 0.0000
# 3 16.9700 16.9700 124.7601 0.0000 0.0000 0.0000
# 4 0.0000 0.0000 0.0000 13.4469 0.0000 0.0000
# 5 0.0000 0.0000 0.0000 0.0000 13.4469 0.0000
# 6 0.0000 0.0000 0.0000 0.0000 0.0000 22.3918
#
#
#
# Elastic Compliance Matrix: (Units=1/GPa)
#
#
# Indices 1 2 3 4 5 6 
#
# 1 0.022350 0.000020 -0.003043 0.000000 0.000000 0.000000
# 2 0.000020 0.022350 -0.003043 0.000000 0.000000 0.000000
# 3 -0.003043 -0.003043 0.008843 0.000000 0.000000 0.000000
# 4 0.000000 0.000000 0.000000 0.074367 0.000000 0.000000
# 5 0.000000 0.000000 0.000000 0.000000 0.074367 0.000000
# 6 0.000000 0.000000 0.000000 0.000000 0.000000 0.044659
#
#
# Mechanical properties :
#
#
# Convention : Reuss Voigt Hill
#
# Bulk Modulus (GPa) = 24.14799 32.36451 28.25625
# Shear Modulus (GPa) = 18.32377 22.03416 20.17896
#
# Velocity S-wave (km/s) = 3.15575 3.46053 3.31165
# Velocity P-wave (km/s) = 5.13833 5.79282 5.47537
#
# Compressibility (1/GPa) = 0.04141131
#
# Stress axis : x y z
#
# Youngs Moduli (GPa) = 44.74361 44.74361 113.08205
#
# Poissons Ratio (x) = -0.00089 0.34408
# Poissons Ratio (y) = -0.00089 0.34408
# Poissons Ratio (z) = 0.13614 0.13614
#
# Static dielectric constant tensor:
#      x y z
#    x 1.649430 0.000000 0.000000 
#    y 0.000000 1.649430 0.000000 
#    z 0.000000 0.000000 1.696770 
# 
# From -- ./inp_files/2802.got.cif
#   From: 2010.05.17/outbox.cif.g08.bks.cpg/sg176_2_cif.got.tgz:2802.got - 2010.06.03 11:36:45.
