data_PCOD9581327
_publ_section_title
;
Structure prediction by ZEFSAII (Michael W. Deem and Ramdas Pophale) SiO2 
 PCOD9581327
Probable space group: P 6/M
;
_chemical_formula_sum "Si O2"
_cell_formula_units_Z 72
_cell_length_a 24.282264
_cell_length_b 24.282264
_cell_length_c 8.736219
_cell_angle_alpha 90.000000
_cell_angle_beta 90.000000
_cell_angle_gamma 120.000000
_cell_volume 4461.002813
_symmetry_space_group_name_H-M "P 6/M"
_symmetry_group_IT_number 175
_symmetry_cell_setting 'hexagonal'
loop_
_space_group_symop_operation_xyz
x,y,z
x-y,x,z
-y,x-y,z
-x,-y,z
-x+y,-x,z
y,-x+y,z
-x,-y,-z
-x+y,-x,-z
y,-x+y,-z
x,y,-z
x-y,x,-z
-y,x-y,-z
loop_
_atom_site_type_symbol
_atom_site_label
_atom_site_fract_x
_atom_site_fract_y
_atom_site_fract_z
Si Si1 0.366747 0.289051 0.682449
Si Si2 0.851856 0.918898 0.814945
Si Si3 0.481899 0.401946 0.817847
Si Si4 0.351278 0.063506 0.184270
Si Si5 0.711006 0.858309 0.316918
Si Si6 0.926427 0.402250 0.817559
O O1 0.363341 0.294700 0.500000
O O2 0.439098 0.334903 0.736735
O O3 0.323490 0.314014 0.761576
O O4 0.336654 0.215319 0.722498
O O5 0.893487 0.886619 0.769210
O O6 0.781173 0.881710 0.747795
O O7 0.847720 0.916596 0.000000
O O8 0.552573 0.452540 0.758371
O O9 0.442104 0.439025 0.798951
O O10 0.484439 0.392125 0.000000
O O11 0.316891 0.099499 0.249447
O O12 0.424836 0.092757 0.238860
O O13 0.351174 0.064871 0.000000
O O14 0.714963 0.864390 0.500000
O O15 0.914734 0.397463 0.000000
#
# Coordination Sequence:
#
# PCOD9581327 Si02
#       6
#    12  12  12  12  12  12
#     4  10  20  32  45  65  96 127 154 188 231 279
#     4  10  21  37  56  74  90 113 154 209 263 313
#     4   8  13  25  45  66  90 118 147 175 209 256
#     4  10  19  32  50  68  89 120 158 194 231 279
#     4  11  23  35  46  65  96 128 157 194 241 293
#     4   7  12  24  43  67  91 114 141 178 217 252
#
# _framework density 16.139869000000001
#
# number of rings (size 3 to 8) (size 9 to 14) (size 15 to 20)
#    0.000    2.667    0.000    4.667    0.000    6.667 
#    0.000    7.500    0.000    1.000    0.000    0.000 
#    1.667    0.000    1.000    0.000    1.333    0.000 
#
# Total GULP energy -400987.208514 kJ/mol
# GULP energy per Si atom -5569.266785 kJ/mol
# Density = 1.610313 g / cm^3
# Si number density = 16.139869 Si / 1000 Ang^3
#
#
#
# Elastic Constant Matrix: (Units=GPa)
#
#
# Indices 1 2 3 4 5 6 
#
# 1 9.2015 -36.2517 3.5817 0.0000 0.0000 0.0000
# 2 -36.2517 9.2015 3.5817 0.0000 0.0000 0.0000
# 3 3.5817 3.5817 16.1417 0.0000 0.0000 0.0000
# 4 0.0000 0.0000 0.0000 -5.8713 0.0000 0.0000
# 5 0.0000 0.0000 0.0000 0.0000 -5.8713 0.0000
# 6 0.0000 0.0000 0.0000 0.0000 0.0000 22.7266
#
#
#
# Elastic Compliance Matrix: (Units=1/GPa)
#
#
# Indices 1 2 3 4 5 6 
#
# 1 -0.006458 -0.028459 0.007748 0.000000 0.000000 0.000000
# 2 -0.028459 -0.006458 0.007748 0.000000 0.000000 0.000000
# 3 0.007748 0.007748 0.058513 0.000000 0.000000 0.000000
# 4 0.000000 0.000000 0.000000 -0.170320 0.000000 0.000000
# 5 0.000000 0.000000 0.000000 0.000000 -0.170320 0.000000
# 6 0.000000 0.000000 0.000000 0.000000 0.000000 0.044001
#
#
# Mechanical properties :
#
#
# Convention : Reuss Voigt Hill
#
# Bulk Modulus (GPa) = 50.83845 -2.62577 24.10634
# Shear Modulus (GPa) = -22.87716 6.43902 -8.21907
#
# Velocity S-wave (km/s) = -3.76896 1.99954 -2.25908
# Velocity P-wave (km/s) = 3.55344 1.92366 2.85722
#
# Compressibility (1/GPa) = 0.01967015
#
# Stress axis : x y z
#
# Youngs Moduli (GPa) = -154.84664 -154.84664 17.09023
#
# Poissons Ratio (x) = -4.40672 -0.13241
# Poissons Ratio (y) = -4.40672 -0.13241
# Poissons Ratio (z) = 1.19969 1.19969
#
# Static dielectric constant tensor:
#      x y z
#    x 1.551520 0.000000 0.000000 
#    y 0.000000 1.551520 0.000000 
#    z 0.000000 0.000000 1.540940 
# 
# From -- ./inp_files/1201.got.cif
#   From: 2010.05.17/outbox.cif.g08.bks.cpg/sg175_1_cif.got.tgz:1201.got - 2010.05.20 11:23:22.
