data_PCOD9581266
_publ_section_title
;
Structure prediction by ZEFSAII (Michael W. Deem and Ramdas Pophale) SiO2 
 PCOD9581266
Probable space group: P 6/M
;
_chemical_formula_sum "Si O2"
_cell_formula_units_Z 78
_cell_length_a 24.517300
_cell_length_b 24.517300
_cell_length_c 7.984900
_cell_angle_alpha 90.000000
_cell_angle_beta 90.000000
_cell_angle_gamma 120.000000
_cell_volume 4156.668552
_symmetry_space_group_name_H-M "P 6/M"
_symmetry_group_IT_number 175
_symmetry_cell_setting 'hexagonal'
loop_
_space_group_symop_operation_xyz
x,y,z
x-y,x,z
-y,x-y,z
-x,-y,z
-x+y,-x,z
y,-x+y,z
-x,-y,-z
-x+y,-x,-z
y,-x+y,-z
x,y,-z
x-y,x,-z
-y,x-y,-z
loop_
_atom_site_type_symbol
_atom_site_label
_atom_site_fract_x
_atom_site_fract_y
_atom_site_fract_z
Si Si1 0.508701 0.440344 0.295826
Si Si2 0.051025 0.379044 0.306720
Si Si3 0.353693 0.529491 0.808554
Si Si4 0.736051 0.331200 0.500000
Si Si5 0.208548 0.952589 0.696076
Si Si6 0.087578 0.704449 0.198520
Si Si7 0.170776 0.262962 0.196367
O O1 0.500000 0.500000 0.251115
O O2 0.511577 0.439374 0.500000
O O3 0.448571 0.374531 0.236527
O O4 0.573720 0.450806 0.222564
O O5 0.071840 0.388537 0.500000
O O6 0.975120 0.344337 0.295208
O O7 0.064971 0.325533 0.234389
O O8 0.333095 0.561130 0.667260
O O9 0.313327 0.454412 0.783269
O O10 0.345653 0.544359 0.000000
O O11 0.726791 0.392000 0.500000
O O12 0.223191 0.966464 0.500000
O O13 0.138806 0.894623 0.716775
O O14 0.219744 0.017413 0.775712
O O15 0.106713 0.774557 0.253349
O O16 0.071008 0.699237 0.000000
O O17 0.160013 0.265560 0.000000
#
# Coordination Sequence:
#
# PCOD9581266 Si02
#       7
#    12  12  12   6  12  12  12
#     4  10  18  31  55  86 124 161 194 237 293 359
#     4   9  18  31  51  81 119 157 188 231 285 349
#     4  11  22  39  64  90 114 150 199 246 307 370
#     4  10  26  50  65  78 104 150 202 260 314 355
#     4  10  20  36  55  84 116 153 197 240 289 343
#     4   9  19  33  53  83 117 148 185 232 287 352
#     4  10  20  37  58  82 117 158 193 234 288 346
#
# _framework density 18.765028999999998
#
# number of rings (size 3 to 8) (size 9 to 14) (size 15 to 20)
#    0.154    2.000    2.308    0.923    1.077    2.769 
#    2.769    0.000    0.000    0.308    0.000    2.154 
#    0.000    0.000    0.000    0.000    0.000    0.000 
#
# Total GULP energy -434992.458679 kJ/mol
# GULP energy per Si atom -5576.826393 kJ/mol
# Density = 1.872232 g / cm^3
# Si number density = 18.765029 Si / 1000 Ang^3
#
#
#
# Elastic Constant Matrix: (Units=GPa)
#
#
# Indices 1 2 3 4 5 6 
#
# 1 71.3141 31.2175 13.5735 0.0000 0.0000 0.0000
# 2 31.2175 71.3141 13.5735 0.0000 0.0000 0.0000
# 3 13.5735 13.5735 45.0074 0.0000 0.0000 0.0000
# 4 0.0000 0.0000 0.0000 11.5599 0.0000 0.0000
# 5 0.0000 0.0000 0.0000 0.0000 11.5599 0.0000
# 6 0.0000 0.0000 0.0000 0.0000 0.0000 20.0483
#
#
#
# Elastic Compliance Matrix: (Units=1/GPa)
#
#
# Indices 1 2 3 4 5 6 
#
# 1 0.017770 -0.007170 -0.003197 0.000000 0.000000 0.000000
# 2 -0.007170 0.017770 -0.003197 0.000000 0.000000 0.000000
# 3 -0.003197 -0.003197 0.024147 0.000000 0.000000 0.000000
# 4 0.000000 0.000000 0.000000 0.086506 0.000000 0.000000
# 5 0.000000 0.000000 0.000000 0.000000 0.086506 0.000000
# 6 0.000000 0.000000 0.000000 0.000000 0.000000 0.049880
#
#
# Mechanical properties :
#
#
# Convention : Reuss Voigt Hill
#
# Bulk Modulus (GPa) = 30.71337 33.81827 32.26582
# Shear Modulus (GPa) = 15.59784 17.25169 16.42477
#
# Velocity S-wave (km/s) = 2.88621 3.03537 2.96173
# Velocity P-wave (km/s) = 5.24498 5.50870 5.37846
#
# Compressibility (1/GPa) = 0.03255911
#
# Stress axis : x y z
#
# Youngs Moduli (GPa) = 56.27583 56.27583 41.41357
#
# Poissons Ratio (x) = 0.40351 0.13238
# Poissons Ratio (y) = 0.40351 0.13238
# Poissons Ratio (z) = 0.17989 0.17989
#
# Static dielectric constant tensor:
#      x y z
#    x 1.644040 0.000000 0.000000 
#    y 0.000000 1.644040 0.000000 
#    z 0.000000 0.000000 1.659820 
# 
# From -- ./inp_files/1349.got.cif
#   From: 2010.05.17/outbox.cif.g08.bks.cpg/sg175_1_cif.got.tgz:1349.got - 2010.05.20 11:23:22.
