data_PCOD9581130
_publ_section_title
;
Structure prediction by ZEFSAII (Michael W. Deem and Ramdas Pophale) SiO2 
 PCOD9581130
Probable space group: P -6
;
_chemical_formula_sum "Si O2"
_cell_formula_units_Z 28
_cell_length_a 12.797547
_cell_length_b 12.797547
_cell_length_c 7.182260
_cell_angle_alpha 90.000000
_cell_angle_beta 90.000000
_cell_angle_gamma 120.000000
_cell_volume 1018.697454
_symmetry_space_group_name_H-M "P -6"
_symmetry_group_IT_number 174
_symmetry_cell_setting 'hexagonal'
loop_
_space_group_symop_operation_xyz
x,y,z
-x+y,-x,-z
-y,x-y,z
x,y,-z
-x+y,-x,z
-y,x-y,-z
loop_
_atom_site_type_symbol
_atom_site_label
_atom_site_fract_x
_atom_site_fract_y
_atom_site_fract_z
Si Si1 0.333334 0.666668 0.226078
Si Si2 0.000000 0.000000 0.278096
Si Si3 0.607885 0.182221 0.775415
Si Si4 0.580206 0.714654 0.227243
Si Si5 0.655737 0.985143 0.772948
Si Si6 0.917992 0.183937 0.787360
O O1 0.440494 0.642913 0.282504
O O2 0.333334 0.666668 0.000000
O O3 0.120053 0.001319 0.211236
O O4 0.000000 0.000000 0.500000
O O5 0.746391 0.284774 0.721692
O O6 0.581896 0.052056 0.715165
O O7 0.601950 0.177308 0.000000
O O8 0.682973 0.686349 0.291953
O O9 0.619376 0.851515 0.283628
O O10 0.582545 0.709017 0.000000
O O11 0.791514 0.080395 0.710471
O O12 0.651369 0.979611 0.000000
O O13 0.890863 0.201234 0.000000
#
# Coordination Sequence:
#
# PCOD9581130 Si02
#       6
#     2   2   6   6   6   6
#     4   9  18  30  39  66 109 137 172 210 253 299
#     4  12  22  32  49  75 103 125 154 216 274 308
#     4   7  12  21  31  51  88 120 148 191 240 282
#     4   9  17  27  42  64  97 138 166 201 246 296
#     4   9  15  23  41  62  84 124 165 192 236 296
#     4  10  18  31  50  72  99 130 165 200 249 311
#
# _framework density 27.486077999999999
#
# number of rings (size 3 to 8) (size 9 to 14) (size 15 to 20)
#    0.429    2.571    2.143    0.643    0.000    1.714 
#    0.000    8.571    0.000    0.000    0.000    1.500 
#    0.000    0.000    0.000    0.000    0.000    0.000 
#
# Total GULP energy -156460.129509 kJ/mol
# GULP energy per Si atom -5587.861768 kJ/mol
# Density = 2.742352 g / cm^3
# Si number density = 27.486078 Si / 1000 Ang^3
#
#
#
# Elastic Constant Matrix: (Units=GPa)
#
#
# Indices 1 2 3 4 5 6 
#
# 1 118.1675 11.6809 -7.0198 0.0000 0.0000 -0.0006
# 2 11.6809 118.1698 -7.0197 0.0000 0.0000 -0.0013
# 3 -7.0198 -7.0197 146.0604 0.0000 0.0000 -0.0001
# 4 0.0000 0.0000 0.0000 264.7179 -0.0657 0.0000
# 5 0.0000 0.0000 0.0000 -0.0657 264.8121 0.0000
# 6 -0.0006 -0.0013 -0.0001 0.0000 0.0000 53.2442
#
#
#
# Elastic Compliance Matrix: (Units=1/GPa)
#
#
# Indices 1 2 3 4 5 6 
#
# 1 0.008566 -0.000825 0.000372 0.000000 0.000000 0.000000
# 2 -0.000825 0.008566 0.000372 0.000000 0.000000 0.000000
# 3 0.000372 0.000372 0.006882 0.000000 0.000000 0.000000
# 4 0.000000 0.000000 0.000000 0.003778 0.000001 0.000000
# 5 0.000000 0.000000 0.000000 0.000001 0.003776 0.000000
# 6 0.000000 0.000000 0.000000 0.000000 0.000000 0.018781
#
#
# Mechanical properties :
#
#
# Convention : Reuss Voigt Hill
#
# Bulk Modulus (GPa) = 41.92280 41.96451 41.94366
# Shear Modulus (GPa) = 85.52581 142.20527 113.86554
#
# Velocity S-wave (km/s) = 5.58423 7.20066 6.44333
# Velocity P-wave (km/s) = 7.54080 9.18876 8.40527
#
# Compressibility (1/GPa) = 0.02385337
#
# Stress axis : x y z
#
# Youngs Moduli (GPa) = 116.73808 116.74042 145.30144
#
# Poissons Ratio (x) = 0.09627 -0.05406
# Poissons Ratio (y) = 0.09627 -0.05406
# Poissons Ratio (z) = -0.04343 -0.04343
#
# Static dielectric constant tensor:
#      x y z
#    x 2.133870 0.000000 0.000000 
#    y 0.000000 2.133870 0.000000 
#    z 0.000000 0.000000 2.134230 
# 
# From -- ./inp_files/277.got.cif
#   From: 2010.05.17/outbox.cif.g08.bks.cpg/sg174_cif.got.tgz:277.got - 2010.05.20 11:22:48.
