data_PCOD9581900
_publ_section_title
;
Structure prediction by ZEFSAII (Michael W. Deem and Ramdas Pophale) SiO2 
 PCOD9581900
Probable space group: P 63/M
;
_chemical_formula_sum "Si O2"
_cell_formula_units_Z 78
_cell_length_a 21.502686
_cell_length_b 21.502686
_cell_length_c 7.493657
_cell_angle_alpha 90.000000
_cell_angle_beta 90.000000
_cell_angle_gamma 120.000000
_cell_volume 3000.612184
_symmetry_space_group_name_H-M "P 63/M"
_symmetry_group_IT_number 176
_symmetry_cell_setting 'hexagonal'
loop_
_space_group_symop_operation_xyz
x,y,z
x-y,x,1/2+z
-y,x-y,z
-x,-y,1/2+z
-x+y,-x,z
y,-x+y,1/2+z
-x,-y,-z
-x+y,-x,1/2-z
y,-x+y,-z
x,y,1/2-z
x-y,x,-z
-y,x-y,1/2-z
loop_
_atom_site_type_symbol
_atom_site_label
_atom_site_fract_x
_atom_site_fract_y
_atom_site_fract_z
Si Si1 0.714647 0.793021 0.548049
Si Si2 0.057515 0.402142 0.750000
Si Si3 0.264705 0.754289 0.464602
Si Si4 0.575048 0.965602 0.544537
Si Si5 0.011139 0.865033 0.048380
Si Si6 0.231528 0.360482 0.543751
Si Si7 0.168668 0.591680 0.465030
O O1 0.739331 0.821137 0.750000
O O2 0.643824 0.717779 0.592257
O O3 0.785741 0.796291 0.471914
O O4 0.693163 0.847662 0.460627
O O5 0.028305 0.434784 0.592549
O O6 0.264662 0.762037 0.250000
O O7 0.203300 0.767088 0.541402
O O8 0.237335 0.670795 0.500178
O O9 0.343990 0.809036 0.533824
O O10 0.593681 0.987937 0.750000
O O11 0.620988 0.929033 0.465955
O O12 0.493597 0.900321 0.536519
O O13 0.038128 0.872683 0.250000
O O14 0.935812 0.864426 0.045969
O O15 0.233427 0.342639 0.750000
O O16 0.159985 0.583947 0.250000
#
# Coordination Sequence:
#
# PCOD9581900 Si02
#       7
#    12   6  12  12  12  12  12
#     4   8  20  37  60  80 108 147 187 232 297 331
#     4  10  20  40  60  82 116 150 186 242 296 340
#     4   9  17  28  50  79 116 155 192 236 288 353
#     4  10  20  33  59  85 114 149 197 240 295 349
#     4  11  23  41  61  88 118 153 191 230 284 356
#     4   9  18  34  52  79 112 148 185 241 296 338
#     4   9  16  30  48  82 117 157 195 238 296 350
#
# _framework density 25.994696999999999
#
# number of rings (size 3 to 8) (size 9 to 14) (size 15 to 20)
#    0.462    2.154    0.769    0.923    3.231    1.846 
#    0.000    3.077    0.000    2.769    0.000    0.000 
#    0.000    0.000    0.000    0.000    0.000    0.000 
#
# Total GULP energy -434290.817113 kJ/mol
# GULP energy per Si atom -5567.830989 kJ/mol
# Density = 2.593553 g / cm^3
# Si number density = 25.994697 Si / 1000 Ang^3
#
#
#
# Elastic Constant Matrix: (Units=GPa)
#
#
# Indices 1 2 3 4 5 6 
#
# 1 91.0490 10.2520 9.9194 0.0000 0.0000 0.0000
# 2 10.2520 91.0490 9.9194 0.0000 0.0000 0.0000
# 3 9.9194 9.9194 111.8997 0.0000 0.0000 0.0000
# 4 0.0000 0.0000 0.0000 -61.1333 0.0000 0.0000
# 5 0.0000 0.0000 0.0000 0.0000 -61.1333 0.0000
# 6 0.0000 0.0000 0.0000 0.0000 0.0000 40.3985
#
#
#
# Elastic Compliance Matrix: (Units=1/GPa)
#
#
# Indices 1 2 3 4 5 6 
#
# 1 0.011211 -0.001165 -0.000891 0.000000 0.000000 0.000000
# 2 -0.001165 0.011211 -0.000891 0.000000 0.000000 0.000000
# 3 -0.000891 -0.000891 0.009094 0.000000 0.000000 0.000000
# 4 0.000000 0.000000 0.000000 -0.016358 0.000000 0.000000
# 5 0.000000 0.000000 0.000000 0.000000 -0.016358 0.000000
# 6 0.000000 0.000000 0.000000 0.000000 0.000000 0.024753
#
#
# Mechanical properties :
#
#
# Convention : Reuss Voigt Hill
#
# Bulk Modulus (GPa) = 39.02550 39.35327 39.18939
# Shear Modulus (GPa) = 131.61554 1.22017 66.41785
#
# Velocity S-wave (km/s) = 7.12331 0.68586 5.06024
# Velocity P-wave (km/s) = 9.09401 3.97480 7.01783
#
# Compressibility (1/GPa) = 0.02562427
#
# Stress axis : x y z
#
# Youngs Moduli (GPa) = 89.19539 89.19539 109.95707
#
# Poissons Ratio (x) = 0.10395 0.09792
# Poissons Ratio (y) = 0.10395 0.09792
# Poissons Ratio (z) = 0.07943 0.07943
#
# Static dielectric constant tensor:
#      x y z
#    x 2.144490 0.000000 0.000000 
#    y 0.000000 2.144490 0.000000 
#    z 0.000000 0.000000 1.981900 
# 
# From -- ./inp_files/1301.got.cif
#   From: 2010.05.17/outbox.cif.g08.bks.cpg/sg176_1_cif.got.tgz:1301.got - 2010.06.03 11:36:45.
