data_PCOD9581722
_publ_section_title
;
Structure prediction by ZEFSAII (Michael W. Deem and Ramdas Pophale) SiO2 
 PCOD9581722
Probable space group: P 6/M
;
_chemical_formula_sum "Si O2"
_cell_formula_units_Z 72
_cell_length_a 24.000000
_cell_length_b 24.000000
_cell_length_c 9.000000
_cell_angle_alpha 90.000000
_cell_angle_beta 90.000000
_cell_angle_gamma 120.000000
_cell_volume 4489.475693
_symmetry_space_group_name_H-M "P 6/M"
_symmetry_group_IT_number 175
_symmetry_cell_setting 'hexagonal'
loop_
_space_group_symop_operation_xyz
x,y,z
x-y,x,z
-y,x-y,z
-x,-y,z
-x+y,-x,z
y,-x+y,z
-x,-y,-z
-x+y,-x,-z
y,-x+y,-z
x,y,-z
x-y,x,-z
-y,x-y,-z
loop_
_atom_site_type_symbol
_atom_site_label
_atom_site_fract_x
_atom_site_fract_y
_atom_site_fract_z
Si Si1 0.149533 0.299647 0.679617
Si Si2 0.383466 0.379380 0.820342
Si Si3 0.742917 0.999684 0.679517
Si Si4 0.445217 0.225624 0.180733
Si Si5 0.865691 0.373057 0.821655
Si Si6 0.133144 0.502023 0.318892
O O1 0.153558 0.307879 0.500000
O O2 0.192273 0.263877 0.715590
O O3 0.184835 0.371201 0.755723
O O4 0.070965 0.263441 0.715390
O O5 0.318157 0.317975 0.756891
O O6 0.382630 0.445752 0.790955
O O7 0.445233 0.381181 0.743234
O O8 0.386293 0.373063 0.000000
O O9 0.736510 0.999740 0.500000
O O10 0.482779 0.185573 0.213039
O O11 0.482376 0.297639 0.252927
O O12 0.442500 0.230295 0.000000
O O13 0.856827 0.428742 0.739575
O O14 0.861725 0.381197 0.000000
O O15 0.134341 0.501480 0.500000
#
# Coordination Sequence:
#
# PCOD9581722 Si02
#       6
#    12  12  12  12  12  12
#     4  10  20  35  57  86 120 155 193 238 290 344
#     4  11  21  36  59  86 115 147 187 235 287 342
#     4  10  20  34  56  86 120 156 192 237 290 345
#     4  11  22  39  61  83 111 149 193 241 291 341
#     4  10  23  41  59  82 111 149 192 236 288 339
#     4  12  25  39  57  84 115 150 190 233 289 344
#
# _framework density 16.037507000000002
#
# number of rings (size 3 to 8) (size 9 to 14) (size 15 to 20)
#    0.000    1.333    3.333    3.000    0.000    4.667 
#    1.000    0.000    0.000    0.333    0.000    2.333 
#    0.000    0.000    0.000    3.000    0.000    3.333 
#
# Total GULP energy -401394.233288 kJ/mol
# GULP energy per Si atom -5574.919907 kJ/mol
# Density = 1.600101 g / cm^3
# Si number density = 16.037507 Si / 1000 Ang^3
#
#
#
# Elastic Constant Matrix: (Units=GPa)
#
#
# Indices 1 2 3 4 5 6 
#
# 1 161.2979 78.6639 49.7717 0.0000 0.0000 0.0000
# 2 78.6639 161.2979 49.7717 0.0000 0.0000 0.0000
# 3 49.7717 49.7717 89.1508 0.0000 0.0000 0.0000
# 4 0.0000 0.0000 0.0000 32.9866 0.0000 0.0000
# 5 0.0000 0.0000 0.0000 0.0000 32.9866 0.0000
# 6 0.0000 0.0000 0.0000 0.0000 0.0000 41.3170
#
#
#
# Elastic Compliance Matrix: (Units=1/GPa)
#
#
# Indices 1 2 3 4 5 6 
#
# 1 0.008762 -0.003339 -0.003028 0.000000 0.000000 0.000000
# 2 -0.003339 0.008762 -0.003028 0.000000 0.000000 0.000000
# 3 -0.003028 -0.003028 0.014598 0.000000 0.000000 0.000000
# 4 0.000000 0.000000 0.000000 0.030315 0.000000 0.000000
# 5 0.000000 0.000000 0.000000 0.000000 0.030315 0.000000
# 6 0.000000 0.000000 0.000000 0.000000 0.000000 0.024203
#
#
# Mechanical properties :
#
#
# Convention : Reuss Voigt Hill
#
# Bulk Modulus (GPa) = 75.00047 85.35126 80.17586
# Shear Modulus (GPa) = 35.66585 37.02733 36.34659
#
# Velocity S-wave (km/s) = 4.72094 4.81021 4.76578
# Velocity P-wave (km/s) = 8.75121 9.17530 8.96576
#
# Compressibility (1/GPa) = 0.01333325
#
# Stress axis : x y z
#
# Youngs Moduli (GPa) = 114.12333 114.12333 68.50400
#
# Poissons Ratio (x) = 0.38107 0.20742
# Poissons Ratio (y) = 0.38107 0.20742
# Poissons Ratio (z) = 0.34554 0.34554
#
# Static dielectric constant tensor:
#      x y z
#    x 1.552400 0.000000 0.000000 
#    y 0.000000 1.552400 0.000000 
#    z 0.000000 0.000000 1.543200 
# 
# From -- ./inp_files/1209.got.cif
#   From: 2010.05.17/outbox.ucp.g08.bks.cvg/sg175_1_cif.got.tgz:1209.got - 2010.06.11 15:18:44.
