data_PCOD9581200
_publ_section_title
;
Structure prediction by ZEFSAII (Michael W. Deem and Ramdas Pophale) SiO2 
 PCOD9581200
Probable space group: P -6
;
_chemical_formula_sum "Si O2"
_cell_formula_units_Z 30
_cell_length_a 8.604598
_cell_length_b 8.604598
_cell_length_c 24.685380
_cell_angle_alpha 90.000000
_cell_angle_beta 90.000000
_cell_angle_gamma 120.000000
_cell_volume 1582.820328
_symmetry_space_group_name_H-M "P -6"
_symmetry_group_IT_number 174
_symmetry_cell_setting 'hexagonal'
loop_
_space_group_symop_operation_xyz
x,y,z
-x+y,-x,-z
-y,x-y,z
x,y,-z
-x+y,-x,z
-y,x-y,-z
loop_
_atom_site_type_symbol
_atom_site_label
_atom_site_fract_x
_atom_site_fract_y
_atom_site_fract_z
Si Si1 0.667738 0.996181 0.720413
Si Si2 0.327414 0.459348 0.161942
Si Si3 0.212013 0.014213 0.439025
Si Si4 0.339179 0.005082 0.674999
Si Si5 0.786769 0.981209 0.938376
O O1 0.647014 0.971126 0.784806
O O2 0.610467 0.804007 0.694396
O O3 0.531776 0.056393 0.697638
O O4 0.864624 0.140553 0.701119
O O5 0.497739 0.660920 0.163682
O O6 0.309864 0.351869 0.107539
O O7 0.277935 0.018637 0.500000
O O8 0.331929 0.019571 0.389702
O O9 0.160898 0.172282 0.433888
O O10 0.841768 0.825658 0.932577
O O11 0.723794 0.974803 0.000000
#
# Coordination Sequence:
#
# PCOD9581200 Si02
#       5
#     6   6   6   6   6
#     4  12  24  39  60  88 127 158 212 249 313 377
#     4  10  21  36  53  88 120 153 198 252 299 352
#     4   8  15  33  61  89 113 151 204 247 303 377
#     4  12  22  41  59  89 120 166 196 259 316 366
#     4   8  18  35  57  84 112 152 204 243 287 356
#
# _framework density 18.953510000000001
#
# number of rings (size 3 to 8) (size 9 to 14) (size 15 to 20)
#    1.200    0.800    4.000    1.200    2.800    0.800 
#    0.000    2.000    0.000    0.800    0.000    0.000 
#    0.000    0.000    0.000    0.000    0.000    0.000 
#
# Total GULP energy -167103.893385 kJ/mol
# GULP energy per Si atom -5570.129779 kJ/mol
# Density = 1.891037 g / cm^3
# Si number density = 18.953510 Si / 1000 Ang^3
#
#
#
# Elastic Constant Matrix: (Units=GPa)
#
#
# Indices 1 2 3 4 5 6 
#
# 1 34.3630 -1.3077 29.8122 0.0000 0.0000 0.0000
# 2 -1.3077 34.3630 29.8122 0.0000 0.0000 0.0000
# 3 29.8122 29.8122 192.6847 0.0000 0.0000 0.0000
# 4 0.0000 0.0000 0.0000 17.5116 0.0000 0.0000
# 5 0.0000 0.0000 0.0000 0.0000 17.5116 0.0000
# 6 0.0000 0.0000 0.0000 0.0000 0.0000 17.8354
#
#
#
# Elastic Compliance Matrix: (Units=1/GPa)
#
#
# Indices 1 2 3 4 5 6 
#
# 1 0.034999 0.006965 -0.006493 0.000000 0.000000 0.000000
# 2 0.006965 0.034999 -0.006493 0.000000 0.000000 0.000000
# 3 -0.006493 -0.006493 0.007199 0.000000 0.000000 0.000000
# 4 0.000000 0.000000 0.000000 0.057105 0.000000 0.000000
# 5 0.000000 0.000000 0.000000 0.000000 0.057105 0.000000
# 6 0.000000 0.000000 0.000000 0.000000 0.000000 0.056068
#
#
# Mechanical properties :
#
#
# Convention : Reuss Voigt Hill
#
# Bulk Modulus (GPa) = 15.34790 42.00493 28.67642
# Shear Modulus (GPa) = 17.77876 24.11132 20.94504
#
# Velocity S-wave (km/s) = 3.06603 3.57056 3.32787
# Velocity P-wave (km/s) = 4.54415 6.26169 5.47074
#
# Compressibility (1/GPa) = 0.06515547
#
# Stress axis : x y z
#
# Youngs Moduli (GPa) = 28.57238 28.57238 138.91015
#
# Poissons Ratio (x) = -0.19900 0.90189
# Poissons Ratio (y) = -0.19900 0.90189
# Poissons Ratio (z) = 0.18551 0.18551
#
# Static dielectric constant tensor:
#      x y z
#    x 1.653110 0.000000 0.000000 
#    y 0.000000 1.653110 0.000000 
#    z 0.000000 0.000000 1.637420 
# 
# From -- ./inp_files/1070.got.cif
#   From: 2010.05.17/outbox.cif.g08.bks.cpg/sg174_cif.got.tgz:1070.got - 2010.05.20 11:22:48.
