data_PCOD9581150
_publ_section_title
;
Structure prediction by ZEFSAII (Michael W. Deem and Ramdas Pophale) SiO2 
 PCOD9581150
Probable space group: P -6
;
_chemical_formula_sum "Si O2"
_cell_formula_units_Z 48
_cell_length_a 18.636493
_cell_length_b 18.636493
_cell_length_c 8.668099
_cell_angle_alpha 90.000000
_cell_angle_beta 90.000000
_cell_angle_gamma 120.000000
_cell_volume 2607.251197
_symmetry_space_group_name_H-M "P -6"
_symmetry_group_IT_number 174
_symmetry_cell_setting 'hexagonal'
loop_
_space_group_symop_operation_xyz
x,y,z
-x+y,-x,-z
-y,x-y,z
x,y,-z
-x+y,-x,z
-y,x-y,-z
loop_
_atom_site_type_symbol
_atom_site_label
_atom_site_fract_x
_atom_site_fract_y
_atom_site_fract_z
Si Si1 0.805120 0.769160 0.317168
Si Si2 0.427638 0.137678 0.315809
Si Si3 0.707573 0.138592 0.817865
Si Si4 0.247378 0.204564 0.316247
Si Si5 0.436217 0.859280 0.813192
Si Si6 0.524279 0.755390 0.187780
Si Si7 0.525390 0.044688 0.684445
Si Si8 0.716183 0.860693 0.816624
O O1 0.800921 0.783854 0.500000
O O2 0.750083 0.670585 0.289290
O O3 0.898713 0.791573 0.279116
O O4 0.768422 0.816241 0.222779
O O5 0.439169 0.152360 0.500000
O O6 0.455826 0.224809 0.234427
O O7 0.474484 0.089599 0.264619
O O8 0.746521 0.081648 0.769246
O O9 0.620075 0.101659 0.734005
O O10 0.695295 0.135027 0.000000
O O11 0.263101 0.212672 0.500000
O O12 0.190998 0.242320 0.267434
O O13 0.479312 0.806408 0.763048
O O14 0.340288 0.814817 0.761566
O O15 0.486576 0.953202 0.755038
O O16 0.436930 0.860405 0.000000
O O17 0.620537 0.802933 0.234615
O O18 0.522855 0.754025 0.000000
O O19 0.519482 0.036720 0.500000
O O20 0.715814 0.873581 0.000000
#
# Coordination Sequence:
#
# PCOD9581150 Si02
#       8
#     6   6   6   6   6   6   6   6
#     4   9  19  37  58  79 105 142 186 229 279 338
#     4   9  20  39  60  81 109 148 190 232 282 342
#     4  11  22  37  59  85 113 144 183 233 287 340
#     4  10  21  39  60  80 108 148 190 230 281 342
#     4  10  19  35  57  81 115 157 200 241 287 336
#     4   9  19  33  53  82 114 151 191 234 281 334
#     4  11  22  37  58  85 115 150 192 234 283 343
#     4  11  21  33  53  85 117 144 184 235 286 337
#
# _framework density 18.410193
#
# number of rings (size 3 to 8) (size 9 to 14) (size 15 to 20)
#    0.000    2.000    0.000    4.750    0.000    5.500 
#    1.500    1.875    0.000    0.000    0.000    0.000 
#    0.000    0.000    0.000    0.000    0.000    0.000 
#
# Total GULP energy -268074.714896 kJ/mol
# GULP energy per Si atom -5584.889894 kJ/mol
# Density = 1.836829 g / cm^3
# Si number density = 18.410193 Si / 1000 Ang^3
#
#
#
# Elastic Constant Matrix: (Units=GPa)
#
#
# Indices 1 2 3 4 5 6 
#
# 1 -56.0438 -98.0250 -14.5539 0.0000 0.0000 0.0000
# 2 -98.0250 -56.0438 -14.5539 0.0000 0.0000 0.0000
# 3 -14.5539 -14.5539 13.8013 0.0000 0.0000 0.0000
# 4 0.0000 0.0000 0.0000 26.9256 0.0000 0.0000
# 5 0.0000 0.0000 0.0000 0.0000 26.9256 0.0000
# 6 0.0000 0.0000 0.0000 0.0000 0.0000 20.9906
#
#
#
# Elastic Compliance Matrix: (Units=1/GPa)
#
#
# Indices 1 2 3 4 5 6 
#
# 1 0.009204 -0.014616 -0.005707 0.000000 0.000000 0.000000
# 2 -0.014616 0.009204 -0.005707 0.000000 0.000000 0.000000
# 3 -0.005707 -0.005707 0.060420 0.000000 0.000000 0.000000
# 4 0.000000 0.000000 0.000000 0.037139 0.000000 0.000000
# 5 0.000000 0.000000 0.000000 0.000000 0.037139 0.000000
# 6 0.000000 0.000000 0.000000 0.000000 0.000000 0.047640
#
#
# Mechanical properties :
#
#
# Convention : Reuss Voigt Hill
#
# Bulk Modulus (GPa) = 37.36204 -39.17243 -0.90519
# Shear Modulus (GPa) = 19.10361 16.89146 17.99754
#
# Velocity S-wave (km/s) = 3.22478 3.03232 3.13003
# Velocity P-wave (km/s) = 5.84840 3.01061 3.54542
#
# Compressibility (1/GPa) = 0.02676513
#
# Stress axis : x y z
#
# Youngs Moduli (GPa) = 108.64903 108.64903 16.55093
#
# Poissons Ratio (x) = 1.58804 0.09446
# Poissons Ratio (y) = 1.58804 0.09446
# Poissons Ratio (z) = 0.62011 0.62011
#
# Static dielectric constant tensor:
#      x y z
#    x 1.612960 0.000000 0.000000 
#    y 0.000000 1.612960 0.000000 
#    z 0.000000 0.000000 1.625370 
# 
# From -- ./inp_files/522.got.cif
#   From: 2010.05.17/outbox.cif.g08.bks.cpg/sg174_cif.got.tgz:522.got - 2010.05.20 11:22:48.
