data_PCOD9581213
_publ_section_title
;
Structure prediction by ZEFSAII (Michael W. Deem and Ramdas Pophale) SiO2 
 PCOD9581213
Probable space group: P -6
;
_chemical_formula_sum "Si O2"
_cell_formula_units_Z 34
_cell_length_a 8.153011
_cell_length_b 8.153011
_cell_length_c 29.155787
_cell_angle_alpha 90.000000
_cell_angle_beta 90.000000
_cell_angle_gamma 120.000000
_cell_volume 1678.384488
_symmetry_space_group_name_H-M "P -6"
_symmetry_group_IT_number 174
_symmetry_cell_setting 'hexagonal'
loop_
_space_group_symop_operation_xyz
x,y,z
-x+y,-x,-z
-y,x-y,z
x,y,-z
-x+y,-x,z
-y,x-y,-z
loop_
_atom_site_type_symbol
_atom_site_label
_atom_site_fract_x
_atom_site_fract_y
_atom_site_fract_z
Si Si1 0.639061 0.678396 0.380676
Si Si2 0.746706 0.855269 0.102444
Si Si3 0.333333 0.666666 0.554346
Si Si4 0.037444 0.335533 0.796945
Si Si5 0.968134 0.646115 0.759486
Si Si6 0.340616 0.297235 0.656804
Si Si7 0.333335 0.666667 0.054729
O O1 0.533051 0.697650 0.425171
O O2 0.795949 0.614754 0.381007
O O3 0.469634 0.519260 0.351434
O O4 0.742082 0.873742 0.352943
O O5 0.658663 0.778090 0.152970
O O6 0.555076 0.765022 0.071789
O O7 0.913852 0.797443 0.096908
O O8 0.333334 0.666668 0.500000
O O9 0.201396 0.390997 0.759648
O O10 0.946677 0.465865 0.786055
O O11 0.868734 0.126072 0.788413
O O12 0.884518 0.618534 0.708632
O O13 0.333334 0.666668 0.000000
#
# Coordination Sequence:
#
# PCOD9581213 Si02
#       7
#     6   6   2   6   6   6   2
#     4  10  22  37  61  84 127 161 207 259 335 394
#     4  10  23  49  72 100 149 188 230 303 368 433
#     4   9  21  45  69  91 110 151 210 276 339 420
#     4  12  23  39  57  92 125 183 227 272 325 385
#     4  12  22  34  57  84 131 172 235 269 300 390
#     4  11  20  36  53  89 124 175 208 263 320 373
#     4  12  27  48  81 112 134 184 243 300 387 459
#
# _framework density 20.257576
#
# number of rings (size 3 to 8) (size 9 to 14) (size 15 to 20)
#    0.353    0.706    1.765    6.353    0.000    0.706 
#    1.059    3.529    0.000    0.000    0.000    0.000 
#    0.000    0.000    0.000    0.000    0.000    0.000 
#
# Total GULP energy -189328.832757 kJ/mol
# GULP energy per Si atom -5568.495081 kJ/mol
# Density = 2.021147 g / cm^3
# Si number density = 20.257576 Si / 1000 Ang^3
#
#
#
# Elastic Constant Matrix: (Units=GPa)
#
#
# Indices 1 2 3 4 5 6 
#
# 1 99.9157 32.8221 39.0892 0.0000 0.0000 0.0001
# 2 32.8221 99.9155 39.0892 0.0000 0.0000 0.0000
# 3 39.0892 39.0892 134.7350 0.0000 0.0000 0.0000
# 4 0.0000 0.0000 0.0000 21.2174 0.0000 0.0000
# 5 0.0000 0.0000 0.0000 0.0000 21.2175 0.0000
# 6 0.0001 0.0000 0.0000 0.0000 0.0000 33.5468
#
#
#
# Elastic Compliance Matrix: (Units=1/GPa)
#
#
# Indices 1 2 3 4 5 6 
#
# 1 0.011995 -0.002909 -0.002636 0.000000 0.000000 0.000000
# 2 -0.002909 0.011995 -0.002636 0.000000 0.000000 0.000000
# 3 -0.002636 -0.002636 0.008952 0.000000 0.000000 0.000000
# 4 0.000000 0.000000 0.000000 0.047131 0.000000 0.000000
# 5 0.000000 0.000000 0.000000 0.000000 0.047131 0.000000
# 6 0.000000 0.000000 0.000000 0.000000 0.000000 0.029809
#
#
# Mechanical properties :
#
#
# Convention : Reuss Voigt Hill
#
# Bulk Modulus (GPa) = 60.31495 61.84081 61.07788
# Shear Modulus (GPa) = 27.94814 30.10072 29.02443
#
# Velocity S-wave (km/s) = 3.71838 3.85892 3.78930
# Velocity P-wave (km/s) = 6.94793 7.10271 7.02575
#
# Compressibility (1/GPa) = 0.01657964
#
# Stress axis : x y z
#
# Youngs Moduli (GPa) = 83.36540 83.36516 111.71275
#
# Poissons Ratio (x) = 0.24252 0.29448
# Poissons Ratio (y) = 0.24252 0.29448
# Poissons Ratio (z) = 0.21976 0.21976
#
# Static dielectric constant tensor:
#      x y z
#    x 1.800230 0.000000 0.000000 
#    y 0.000000 1.800230 0.000000 
#    z 0.000000 0.000000 1.673100 
# 
# From -- ./inp_files/1092.got.cif
#   From: 2010.05.17/outbox.cif.g08.bks.cpg/sg174_cif.got.tgz:1092.got - 2010.05.20 11:22:48.
