data_PCOD9581746
_publ_section_title
;
Structure prediction by ZEFSAII (Michael W. Deem and Ramdas Pophale) SiO2 
 PCOD9581746
Probable space group: P 63/M
;
_chemical_formula_sum "Si O2"
_cell_formula_units_Z 72
_cell_length_a 17.880643
_cell_length_b 17.880643
_cell_length_c 16.855628
_cell_angle_alpha 90.000000
_cell_angle_beta 90.000000
_cell_angle_gamma 120.000000
_cell_volume 4667.043342
_symmetry_space_group_name_H-M "P 63/M"
_symmetry_group_IT_number 176
_symmetry_cell_setting 'hexagonal'
loop_
_space_group_symop_operation_xyz
x,y,z
x-y,x,1/2+z
-y,x-y,z
-x,-y,1/2+z
-x+y,-x,z
y,-x+y,1/2+z
-x,-y,-z
-x+y,-x,1/2-z
y,-x+y,-z
x,y,1/2-z
x-y,x,-z
-y,x-y,1/2-z
loop_
_atom_site_type_symbol
_atom_site_label
_atom_site_fract_x
_atom_site_fract_y
_atom_site_fract_z
Si Si1 0.542601 0.186341 0.423247
Si Si2 0.175878 0.682196 0.342882
Si Si3 0.682196 0.175878 0.157118
Si Si4 0.366287 0.267440 0.482329
Si Si5 0.366287 0.098847 0.982329
Si Si6 0.813659 0.457399 0.576753
O O1 0.535185 0.261681 0.378212
O O2 0.583334 0.147092 0.363297
O O3 0.447937 0.124028 0.459181
O O4 0.606175 0.212351 0.500000
O O5 0.175019 0.696441 0.250000
O O6 0.118813 0.710113 0.394796
O O7 0.147092 0.583334 0.363297
O O8 0.273504 0.738319 0.378212
O O9 0.696441 0.175019 0.250000
O O10 0.710113 0.118813 0.105204
O O11 0.295654 0.295654 0.491556
O O12 0.336692 0.168346 0.500000
O O13 0.447937 0.323908 0.540819
#
# Coordination Sequence:
#
# PCOD9581746 Si02
#       6
#    12  12  12  12  12  12
#     4   9  17  28  43  63  93 131 165 186 209 250
#     4  10  18  27  43  68  97 127 159 194 223 247
#     4  10  18  27  43  68  97 127 159 194 223 247
#     4   9  19  34  50  65  85 116 151 186 231 285
#     4   9  19  34  50  65  85 116 151 186 231 285
#     4   9  17  28  43  63  93 131 165 186 209 250
#
# _framework density 15.427327
#
# number of rings (size 3 to 8) (size 9 to 14) (size 15 to 20)
#    0.000    2.667    0.000    4.667    0.000   10.667 
#    0.000    0.000    0.000   24.333    0.000    0.000 
#    0.000    0.000    0.000    1.000    0.000    0.000 
#
# Total GULP energy -400967.538722 kJ/mol
# GULP energy per Si atom -5568.993593 kJ/mol
# Density = 1.539221 g / cm^3
# Si number density = 15.427327 Si / 1000 Ang^3
#
#
#
# Elastic Constant Matrix: (Units=GPa)
#
#
# Indices 1 2 3 4 5 6 
#
# 1 81.3567 66.7898 35.3657 0.0000 0.0000 0.0000
# 2 66.7898 81.3567 35.3657 0.0000 0.0000 0.0000
# 3 35.3657 35.3657 99.3773 0.0000 0.0000 0.0000
# 4 0.0000 0.0000 0.0000 5.3220 0.0000 0.0000
# 5 0.0000 0.0000 0.0000 0.0000 5.3220 0.0000
# 6 0.0000 0.0000 0.0000 0.0000 0.0000 7.2835
#
#
#
# Elastic Compliance Matrix: (Units=1/GPa)
#
#
# Indices 1 2 3 4 5 6 
#
# 1 0.038390 -0.030258 -0.002894 0.000000 0.000000 0.000000
# 2 -0.030258 0.038390 -0.002894 0.000000 0.000000 0.000000
# 3 -0.002894 -0.002894 0.012122 0.000000 0.000000 0.000000
# 4 0.000000 0.000000 0.000000 0.187899 0.000000 0.000000
# 5 0.000000 0.000000 0.000000 0.000000 0.187899 0.000000
# 6 0.000000 0.000000 0.000000 0.000000 0.000000 0.137297
#
#
# Mechanical properties :
#
#
# Convention : Reuss Voigt Hill
#
# Bulk Modulus (GPa) = 59.48711 59.68145 59.58428
# Shear Modulus (GPa) = 7.35627 11.89015 9.62321
#
# Velocity S-wave (km/s) = 2.18602 2.77920 2.50026
# Velocity P-wave (km/s) = 6.70931 7.00486 6.85868
#
# Compressibility (1/GPa) = 0.01681036
#
# Stress axis : x y z
#
# Youngs Moduli (GPa) = 26.04841 26.04841 82.49225
#
# Poissons Ratio (x) = 0.78818 0.23872
# Poissons Ratio (y) = 0.78818 0.23872
# Poissons Ratio (z) = 0.07538 0.07538
#
# Static dielectric constant tensor:
#      x y z
#    x 1.519500 0.000000 0.000000 
#    y 0.000000 1.519500 0.000000 
#    z 0.000000 0.000000 1.535420 
# 
# From -- ./inp_files/3468.got.cif
#   From: 2010.05.17/outbox.cif.g08.bks.cpg/sg176_2_cif.got.tgz:3468.got - 2010.06.03 11:36:45.
