data_PCOD9581455
_publ_section_title
;
Structure prediction by ZEFSAII (Michael W. Deem and Ramdas Pophale) SiO2 
 PCOD9581455
Probable space group: P 6/M
;
_chemical_formula_sum "Si O2"
_cell_formula_units_Z 84
_cell_length_a 18.112526
_cell_length_b 18.112526
_cell_length_c 15.010406
_cell_angle_alpha 90.000000
_cell_angle_beta 90.000000
_cell_angle_gamma 120.000000
_cell_volume 4264.627614
_symmetry_space_group_name_H-M "P 6/M"
_symmetry_group_IT_number 175
_symmetry_cell_setting 'hexagonal'
loop_
_space_group_symop_operation_xyz
x,y,z
x-y,x,z
-y,x-y,z
-x,-y,z
-x+y,-x,z
y,-x+y,z
-x,-y,-z
-x+y,-x,-z
y,-x+y,-z
x,y,-z
x-y,x,-z
-y,x-y,-z
loop_
_atom_site_type_symbol
_atom_site_label
_atom_site_fract_x
_atom_site_fract_y
_atom_site_fract_z
Si Si1 0.929235 0.676682 0.204045
Si Si2 0.355617 0.835762 0.831784
Si Si3 0.338617 0.993857 0.605046
Si Si4 0.848390 0.472468 0.360879
Si Si5 0.315612 0.514633 0.096859
Si Si6 0.291740 0.478510 0.599228
Si Si7 0.682235 0.899776 0.894919
O O1 0.896776 0.581144 0.166353
O O2 0.953969 0.680216 0.309447
O O3 0.853259 0.692759 0.176363
O O4 0.006797 0.741475 0.143636
O O5 0.406452 0.859431 0.740033
O O6 0.276256 0.738936 0.835948
O O7 0.423612 0.839169 0.900099
O O8 0.309910 0.991169 0.500000
O O9 0.383529 0.935531 0.604255
O O10 0.405036 0.092821 0.629811
O O11 0.778654 0.503740 0.357077
O O12 0.816084 0.382060 0.406016
O O13 0.289009 0.417374 0.109789
O O14 0.281672 0.520388 0.000000
O O15 0.256234 0.451516 0.500000
O O16 0.699940 0.890753 0.000000
#
# Coordination Sequence:
#
# PCOD9581455 Si02
#       7
#    12  12  12  12  12  12  12
#     4  10  23  39  64  87 120 154 200 244 306 368
#     4  10  21  34  51  80 112 158 201 253 296 355
#     4  10  23  39  58  84 120 161 203 253 309 364
#     4  11  22  36  55  80 114 158 209 260 307 361
#     4  10  20  34  53  77 114 154 201 249 304 356
#     4  11  22  36  56  79 114 157 206 258 307 356
#     4  10  22  41  63  89 118 154 195 248 305 369
#
# _framework density 19.696912000000001
#
# number of rings (size 3 to 8) (size 9 to 14) (size 15 to 20)
#    0.000    1.714    0.000    4.000    8.000    3.429 
#    0.000    1.429    0.000    0.286    0.000    1.000 
#    0.000    0.000    0.000    1.286    0.000    0.286 
#
# Total GULP energy -467741.876474 kJ/mol
# GULP energy per Si atom -5568.355672 kJ/mol
# Density = 1.965208 g / cm^3
# Si number density = 19.696912 Si / 1000 Ang^3
#
#
#
# Elastic Constant Matrix: (Units=GPa)
#
#
# Indices 1 2 3 4 5 6 
#
# 1 53.5631 51.3538 21.0730 0.0000 0.0000 0.0000
# 2 51.3538 53.5631 21.0730 0.0000 0.0000 0.0000
# 3 21.0730 21.0730 76.6704 0.0000 0.0000 0.0000
# 4 0.0000 0.0000 0.0000 23.7462 0.0000 0.0000
# 5 0.0000 0.0000 0.0000 0.0000 23.7462 0.0000
# 6 0.0000 0.0000 0.0000 0.0000 0.0000 1.1047
#
#
#
# Elastic Compliance Matrix: (Units=1/GPa)
#
#
# Indices 1 2 3 4 5 6 
#
# 1 0.231667 -0.220953 -0.002945 0.000000 0.000000 0.000000
# 2 -0.220953 0.231667 -0.002945 0.000000 0.000000 0.000000
# 3 -0.002945 -0.002945 0.014662 0.000000 0.000000 0.000000
# 4 0.000000 0.000000 0.000000 0.042112 0.000000 0.000000
# 5 0.000000 0.000000 0.000000 0.000000 0.042112 0.000000
# 6 0.000000 0.000000 0.000000 0.000000 0.000000 0.905240
#
#
# Mechanical properties :
#
#
# Convention : Reuss Voigt Hill
#
# Bulk Modulus (GPa) = 41.13384 41.19957 41.16671
# Shear Modulus (GPa) = 2.59168 15.73922 9.16545
#
# Velocity S-wave (km/s) = 1.14832 2.82985 2.15948
# Velocity P-wave (km/s) = 4.76308 5.62491 5.21184
#
# Compressibility (1/GPa) = 0.02431088
#
# Stress axis : x y z
#
# Youngs Moduli (GPa) = 4.31654 4.31654 68.20521
#
# Poissons Ratio (x) = 0.95375 0.20085
# Poissons Ratio (y) = 0.95375 0.20085
# Poissons Ratio (z) = 0.01271 0.01271
#
# Static dielectric constant tensor:
#      x y z
#    x 1.711970 0.000000 0.000000 
#    y 0.000000 1.711970 0.000000 
#    z 0.000000 0.000000 1.732100 
# 
# From -- ./inp_files/2616.got.cif
#   From: 2010.05.17/outbox.cif.g08.bks.cpg/sg175_2_cif.got.tgz:2616.got - 2010.05.20 11:23:22.
