data_PCOD9581858
_publ_section_title
;
Structure prediction by ZEFSAII (Michael W. Deem and Ramdas Pophale) SiO2 
 PCOD9581858
Probable space group: P 63/M
;
_chemical_formula_sum "Si O2"
_cell_formula_units_Z 72
_cell_length_a 14.705477
_cell_length_b 14.705477
_cell_length_c 17.289753
_cell_angle_alpha 90.000000
_cell_angle_beta 90.000000
_cell_angle_gamma 120.000000
_cell_volume 3238.006030
_symmetry_space_group_name_H-M "P 63/M"
_symmetry_group_IT_number 176
_symmetry_cell_setting 'hexagonal'
loop_
_space_group_symop_operation_xyz
x,y,z
x-y,x,1/2+z
-y,x-y,z
-x,-y,1/2+z
-x+y,-x,z
y,-x+y,1/2+z
-x,-y,-z
-x+y,-x,1/2-z
y,-x+y,-z
x,y,1/2-z
x-y,x,-z
-y,x-y,1/2-z
loop_
_atom_site_type_symbol
_atom_site_label
_atom_site_fract_x
_atom_site_fract_y
_atom_site_fract_z
Si Si1 0.780027 0.876337 0.843612
Si Si2 0.204697 0.451630 0.161411
Si Si3 0.756094 0.860027 0.404947
Si Si4 0.910629 0.430905 0.841999
Si Si5 0.793827 0.200524 0.051385
Si Si6 0.546997 0.096233 0.441169
O O1 0.796449 0.891025 0.750000
O O2 0.824043 0.803095 0.876804
O O3 0.658854 0.820800 0.868996
O O4 0.835777 0.985345 0.892904
O O5 0.227884 0.484614 0.250000
O O6 0.115185 0.332219 0.155233
O O7 0.161536 0.522789 0.126763
O O8 0.310824 0.459940 0.128979
O O9 0.684891 0.830304 0.483884
O O10 0.906042 0.429119 0.750000
O O11 0.031122 0.503919 0.862450
O O12 0.671080 0.162901 0.046274
O O13 0.851015 0.326334 0.051215
O O14 0.500000 0.000000 0.500000
#
# Coordination Sequence:
#
# PCOD9581858 Si02
#       6
#    12  12  12  12  12  12
#     4  12  25  44  70 103 140 184 233 286 348 417
#     4  10  19  35  60  94 132 173 221 279 340 404
#     4  12  25  44  69  99 136 178 227 282 340 409
#     4  10  21  37  63  97 134 173 222 281 344 405
#     4  12  27  46  70 101 138 180 233 289 345 410
#     4  12  25  44  67  94 130 174 222 275 338 405
#
# _framework density 22.235906
#
# number of rings (size 3 to 8) (size 9 to 14) (size 15 to 20)
#    0.000    0.667    0.000    9.500    0.000    5.333 
#    0.000    5.000    0.000    2.000    0.000    0.000 
#    0.000    0.000    0.000    0.000    0.000    0.000 
#
# Total GULP energy -401828.730634 kJ/mol
# GULP energy per Si atom -5580.954592 kJ/mol
# Density = 2.218530 g / cm^3
# Si number density = 22.235906 Si / 1000 Ang^3
#
#
#
# Elastic Constant Matrix: (Units=GPa)
#
#
# Indices 1 2 3 4 5 6 
#
# 1 103.6280 -7.7613 19.9997 0.0000 0.0000 0.0000
# 2 -7.7613 103.6280 19.9997 0.0000 0.0000 0.0000
# 3 19.9997 19.9997 84.5730 0.0000 0.0000 0.0000
# 4 0.0000 0.0000 0.0000 18.1289 0.0000 0.0000
# 5 0.0000 0.0000 0.0000 0.0000 18.1289 0.0000
# 6 0.0000 0.0000 0.0000 0.0000 0.0000 55.6947
#
#
#
# Elastic Compliance Matrix: (Units=1/GPa)
#
#
# Indices 1 2 3 4 5 6 
#
# 1 0.010275 0.001298 -0.002737 0.000000 0.000000 0.000000
# 2 0.001298 0.010275 -0.002737 0.000000 0.000000 0.000000
# 3 -0.002737 -0.002737 0.013118 0.000000 0.000000 0.000000
# 4 0.000000 0.000000 0.000000 0.055160 0.000000 0.000000
# 5 0.000000 0.000000 0.000000 0.000000 0.055160 0.000000
# 6 0.000000 0.000000 0.000000 0.000000 0.000000 0.017955
#
#
# Mechanical properties :
#
#
# Convention : Reuss Voigt Hill
#
# Bulk Modulus (GPa) = 39.49843 39.58947 39.54395
# Shear Modulus (GPa) = 27.97427 35.69657 31.83542
#
# Velocity S-wave (km/s) = 3.55077 4.01104 3.78790
# Velocity P-wave (km/s) = 5.88324 6.26851 6.07893
#
# Compressibility (1/GPa) = 0.02531746
#
# Stress axis : x y z
#
# Youngs Moduli (GPa) = 97.32091 97.32091 76.22828
#
# Poissons Ratio (x) = -0.12630 0.20862
# Poissons Ratio (y) = -0.12630 0.20862
# Poissons Ratio (z) = 0.26635 0.26635
#
# Static dielectric constant tensor:
#      x y z
#    x 1.979260 0.000000 0.000000 
#    y 0.000000 1.979260 0.000000 
#    z 0.000000 0.000000 2.186710 
# 
# From -- ./inp_files/3393.got.cif
#   From: 2010.05.17/outbox.cif.g08.bks.cpg/sg176_2_cif.got.tgz:3393.got - 2010.06.03 11:36:45.
