data_PCOD9581049
_publ_section_title
;
Structure prediction by ZEFSAII (Michael W. Deem and Ramdas Pophale) SiO2 
 PCOD9581049
Probable space group: P 63
;
_chemical_formula_sum "Si O2"
_cell_formula_units_Z 42
_cell_length_a 8.940248
_cell_length_b 8.940248
_cell_length_c 30.737213
_cell_angle_alpha 90.000000
_cell_angle_beta 90.000000
_cell_angle_gamma 120.000000
_cell_volume 2127.620914
_symmetry_space_group_name_H-M "P 63"
_symmetry_group_IT_number 173
_symmetry_cell_setting 'hexagonal'
loop_
_space_group_symop_operation_xyz
x,y,z
x-y,x,1/2+z
-y,x-y,z
-x,-y,1/2+z
-x+y,-x,z
y,-x+y,1/2+z
loop_
_atom_site_type_symbol
_atom_site_label
_atom_site_fract_x
_atom_site_fract_y
_atom_site_fract_z
Si Si1 0.990204 0.327530 0.112430
Si Si2 0.462274 0.143533 0.207283
Si Si3 0.338744 0.011592 0.474599
Si Si4 0.337827 0.011172 0.836786
Si Si5 0.327572 0.337453 0.802179
Si Si6 0.673692 0.661897 0.940029
Si Si7 0.988964 0.326866 0.577848
O O1 0.177381 0.356207 0.101611
O O2 0.949043 0.313064 0.163652
O O3 0.845904 0.153000 0.089657
O O4 0.974976 0.487367 0.093900
O O5 0.654959 0.166493 0.207259
O O6 0.364322 0.051214 0.250967
O O7 0.352491 0.040539 0.526231
O O8 0.179839 0.823466 0.463604
O O9 0.307296 0.154809 0.451924
O O10 0.512561 0.024143 0.456422
O O11 0.355730 0.178620 0.812951
O O12 0.487825 0.975521 0.820747
O O13 0.154406 0.846658 0.824998
O O14 0.352440 0.040868 0.888398
#
# Coordination Sequence:
#
# PCOD9581049 Si02
#       7
#     6   6   6   6   6   6   6
#     4  12  25  43  72  98 139 172 224 282 331 411
#     4  10  20  46  72 100 130 174 222 266 350 400
#     4  12  25  43  67  95 137 180 229 279 334 400
#     4  12  24  44  66 103 132 182 224 279 341 392
#     4  12  25  43  72  98 139 172 224 282 331 411
#     4  12  25  43  67  95 137 180 229 279 334 400
#     4  12  24  44  66 103 132 182 224 279 341 392
#
# _framework density 19.740359999999999
#
# number of rings (size 3 to 8) (size 9 to 14) (size 15 to 20)
#    0.286    0.000    2.857    7.714    0.000    2.286 
#    0.000    0.000    0.000    0.000    0.000    0.000 
#    0.000    0.000    0.000    0.000    0.000    0.000 
#
# Total GULP energy -235151.931786 kJ/mol
# GULP energy per Si atom -5598.855519 kJ/mol
# Density = 1.969543 g / cm^3
# Si number density = 19.740360 Si / 1000 Ang^3
#
#
#
# Elastic Constant Matrix: (Units=GPa)
#
#
# Indices 1 2 3 4 5 6 
#
# 1 56.7938 -19.6072 23.7076 0.0000 0.0000 0.0000
# 2 -19.6072 56.7938 23.7076 0.0000 0.0000 0.0000
# 3 23.7076 23.7076 161.6285 0.0000 0.0000 0.0000
# 4 0.0000 0.0000 0.0000 13.7887 0.0000 0.0000
# 5 0.0000 0.0000 0.0000 0.0000 13.7887 0.0000
# 6 0.0000 0.0000 0.0000 0.0000 0.0000 38.2005
#
#
#
# Elastic Compliance Matrix: (Units=1/GPa)
#
#
# Indices 1 2 3 4 5 6 
#
# 1 0.023083 0.009994 -0.004852 0.000000 0.000000 0.000000
# 2 0.009994 0.023083 -0.004852 0.000000 0.000000 0.000000
# 3 -0.004852 -0.004852 0.007610 0.000000 0.000000 0.000000
# 4 0.000000 0.000000 0.000000 0.072523 0.000000 0.000000
# 5 0.000000 0.000000 0.000000 0.000000 0.072523 0.000000
# 6 0.000000 0.000000 0.000000 0.000000 0.000000 0.026178
#
#
# Mechanical properties :
#
#
# Convention : Reuss Voigt Hill
#
# Bulk Modulus (GPa) = 18.39635 36.75913 27.57774
# Shear Modulus (GPa) = 20.61526 29.64945 25.13236
#
# Velocity S-wave (km/s) = 3.23510 3.87973 3.57199
# Velocity P-wave (km/s) = 4.82637 6.22346 5.56890
#
# Compressibility (1/GPa) = 0.05435862
#
# Stress axis : x y z
#
# Youngs Moduli (GPa) = 43.32132 43.32132 131.39989
#
# Poissons Ratio (x) = -0.43297 0.63753
# Poissons Ratio (y) = -0.43297 0.63753
# Poissons Ratio (z) = 0.21019 0.21019
#
# Static dielectric constant tensor:
#      x y z
#    x 1.658540 0.000000 0.000000 
#    y 0.000000 1.658540 0.000000 
#    z 0.000000 0.000000 1.658840 
# 
# From -- ./inp_files/1513.got.cif
#   From: 2010.05.17/outbox.cif.g08.bks.cpg/sg173_cif.got.tgz:1513.got - 2010.05.20 11:21:53.
