data_PCOD9581657
_publ_section_title
;
Structure prediction by ZEFSAII (Michael W. Deem and Ramdas Pophale) SiO2 
 PCOD9581657
Probable space group: P 6/M
;
_chemical_formula_sum "Si O2"
_cell_formula_units_Z 84
_cell_length_a 17.200990
_cell_length_b 17.200990
_cell_length_c 15.395044
_cell_angle_alpha 90.000000
_cell_angle_beta 90.000000
_cell_angle_gamma 120.000000
_cell_volume 3944.740627
_symmetry_space_group_name_H-M "P 6/M"
_symmetry_group_IT_number 175
_symmetry_cell_setting 'hexagonal'
loop_
_space_group_symop_operation_xyz
x,y,z
x-y,x,z
-y,x-y,z
-x,-y,z
-x+y,-x,z
y,-x+y,z
-x,-y,-z
-x+y,-x,-z
y,-x+y,-z
x,y,-z
x-y,x,-z
-y,x-y,-z
loop_
_atom_site_type_symbol
_atom_site_label
_atom_site_fract_x
_atom_site_fract_y
_atom_site_fract_z
Si Si1 0.840961 0.378214 0.154285
Si Si2 0.146818 0.524263 0.334862
Si Si3 0.006706 0.676643 0.296598
Si Si4 0.358381 0.004206 0.900964
Si Si5 0.528277 0.820924 0.399909
Si Si6 0.799838 0.837393 0.400480
Si Si7 0.507057 0.713097 0.092509
O O1 0.845755 0.427628 0.242815
O O2 0.788343 0.411822 0.094310
O O3 0.781890 0.271401 0.162877
O O4 0.934175 0.399326 0.112519
O O5 0.055553 0.428710 0.322598
O O6 0.154116 0.602763 0.397547
O O7 0.226959 0.505323 0.360734
O O8 0.020644 0.694705 0.192829
O O9 0.101741 0.711650 0.344578
O O10 0.956200 0.725470 0.335346
O O11 0.321867 0.898406 0.897299
O O12 0.336316 0.021824 0.000000
O O13 0.555814 0.822033 0.500000
O O14 0.826382 0.939776 0.388764
O O15 0.767888 0.811417 0.500000
O O16 0.525611 0.760813 0.000000
#
# Coordination Sequence:
#
# PCOD9581657 Si02
#       7
#    12  12  12  12  12  12  12
#     4  12  23  42  63  93 131 176 226 288 347 410
#     4  12  26  45  66  95 134 177 234 290 348 413
#     4  12  25  43  69 101 137 185 229 284 347 421
#     4  11  25  44  66  96 137 180 229 286 349 413
#     4  12  27  46  68  95 132 181 234 289 349 419
#     4  10  22  43  75 112 146 178 220 280 349 420
#     4  11  23  38  62  93 125 172 227 282 345 408
#
# _framework density 21.294177000000001
#
# number of rings (size 3 to 8) (size 9 to 14) (size 15 to 20)
#    0.000    0.571    2.857    5.429    0.000    6.857 
#    0.000    0.000    0.000    0.000    0.000    0.000 
#    0.000    1.143    0.000    0.000    0.000    0.000 
#
# Total GULP energy -469039.341279 kJ/mol
# GULP energy per Si atom -5583.801682 kJ/mol
# Density = 2.124571 g / cm^3
# Si number density = 21.294177 Si / 1000 Ang^3
#
#
#
# Elastic Constant Matrix: (Units=GPa)
#
#
# Indices 1 2 3 4 5 6 
#
# 1 84.7979 10.9977 31.0340 0.0000 0.0000 0.0000
# 2 10.9977 84.7979 31.0340 0.0000 0.0000 0.0000
# 3 31.0340 31.0340 144.7671 0.0000 0.0000 0.0000
# 4 0.0000 0.0000 0.0000 24.1120 0.0000 0.0000
# 5 0.0000 0.0000 0.0000 0.0000 24.1120 0.0000
# 6 0.0000 0.0000 0.0000 0.0000 0.0000 36.9001
#
#
#
# Elastic Compliance Matrix: (Units=1/GPa)
#
#
# Indices 1 2 3 4 5 6 
#
# 1 0.012836 -0.000714 -0.002599 0.000000 0.000000 0.000000
# 2 -0.000714 0.012836 -0.002599 0.000000 0.000000 0.000000
# 3 -0.002599 -0.002599 0.008022 0.000000 0.000000 0.000000
# 4 0.000000 0.000000 0.000000 0.041473 0.000000 0.000000
# 5 0.000000 0.000000 0.000000 0.000000 0.041473 0.000000
# 6 0.000000 0.000000 0.000000 0.000000 0.000000 0.027100
#
#
# Mechanical properties :
#
#
# Convention : Reuss Voigt Hill
#
# Bulk Modulus (GPa) = 45.72022 51.16606 48.44314
# Shear Modulus (GPa) = 30.70230 33.11129 31.90680
#
# Velocity S-wave (km/s) = 3.80125 3.94756 3.87509
# Velocity P-wave (km/s) = 6.38618 6.69761 6.54375
#
# Compressibility (1/GPa) = 0.02187216
#
# Stress axis : x y z
#
# Youngs Moduli (GPa) = 77.90346 77.90346 124.65951
#
# Poissons Ratio (x) = 0.05560 0.32396
# Poissons Ratio (y) = 0.05560 0.32396
# Poissons Ratio (z) = 0.20245 0.20245
#
# Static dielectric constant tensor:
#      x y z
#    x 1.773200 0.000000 0.000000 
#    y 0.000000 1.773200 0.000000 
#    z 0.000000 0.000000 1.883670 
# 
# From -- ./inp_files/2639.got.cif
#   From: 2010.05.17/outbox.cif.g08.bks.cpg/sg175_2_cif.got.tgz:2639.got - 2010.05.20 11:23:22.
