data_PCOD9581375
_publ_section_title
;
Structure prediction by ZEFSAII (Michael W. Deem and Ramdas Pophale) SiO2 
 PCOD9581375
Probable space group: P 6/M
;
_chemical_formula_sum "Si O2"
_cell_formula_units_Z 66
_cell_length_a 21.851875
_cell_length_b 21.851875
_cell_length_c 7.886145
_cell_angle_alpha 90.000000
_cell_angle_beta 90.000000
_cell_angle_gamma 120.000000
_cell_volume 3261.165241
_symmetry_space_group_name_H-M "P 6/M"
_symmetry_group_IT_number 175
_symmetry_cell_setting 'hexagonal'
loop_
_space_group_symop_operation_xyz
x,y,z
x-y,x,z
-y,x-y,z
-x,-y,z
-x+y,-x,z
y,-x+y,z
-x,-y,-z
-x+y,-x,-z
y,-x+y,-z
x,y,-z
x-y,x,-z
-y,x-y,-z
loop_
_atom_site_type_symbol
_atom_site_label
_atom_site_fract_x
_atom_site_fract_y
_atom_site_fract_z
Si Si1 0.786726 0.482610 0.197660
Si Si2 0.708731 0.608377 0.296335
Si Si3 0.635493 0.776404 0.804750
Si Si4 0.983924 0.138746 0.000000
Si Si5 0.545319 0.181052 0.696657
Si Si6 0.758490 0.763418 0.692500
O O1 0.847189 0.560043 0.258504
O O2 0.712276 0.460026 0.286918
O O3 0.808091 0.423131 0.213495
O O4 0.775388 0.491804 0.000000
O O5 0.715536 0.602323 0.500000
O O6 0.780872 0.623466 0.209198
O O7 0.648510 0.530630 0.240670
O O8 0.707418 0.679890 0.267545
O O9 0.704823 0.793120 0.703285
O O10 0.647974 0.764612 0.000000
O O11 0.059185 0.141094 0.000000
O O12 0.981880 0.181220 0.166488
O O13 0.553681 0.169163 0.500000
O O14 0.785833 0.770012 0.500000
#
# Coordination Sequence:
#
# PCOD9581375 Si02
#       6
#    12  12  12   6  12  12
#     4  10  20  33  50  77 113 152 198 252 309 359
#     4   9  20  36  56  83 113 150 198 248 297 351
#     4  10  20  35  57  84 114 151 197 248 298 353
#     4  12  27  46  70 100 131 162 196 234 284 346
#     4  10  19  33  52  76 109 153 203 251 304 361
#     4  11  23  41  66  94 125 160 199 243 292 350
#
# _framework density 20.238166
#
# number of rings (size 3 to 8) (size 9 to 14) (size 15 to 20)
#    0.000    1.818    0.909    3.182    1.273    5.091 
#    0.000    0.909    0.000    6.545    0.000    0.000 
#    0.000    0.000    0.000    0.000    0.000    0.000 
#
# Total GULP energy -368251.739102 kJ/mol
# GULP energy per Si atom -5579.571805 kJ/mol
# Density = 2.019210 g / cm^3
# Si number density = 20.238166 Si / 1000 Ang^3
#
#
#
# Elastic Constant Matrix: (Units=GPa)
#
#
# Indices 1 2 3 4 5 6 
#
# 1 50.1797 -3.7288 12.3506 0.0000 0.0000 0.0000
# 2 -3.7288 50.1797 12.3506 0.0000 0.0000 0.0000
# 3 12.3506 12.3506 58.3212 0.0000 0.0000 0.0000
# 4 0.0000 0.0000 0.0000 14.6835 0.0000 0.0000
# 5 0.0000 0.0000 0.0000 0.0000 14.6835 0.0000
# 6 0.0000 0.0000 0.0000 0.0000 0.0000 26.9543
#
#
#
# Elastic Compliance Matrix: (Units=1/GPa)
#
#
# Indices 1 2 3 4 5 6 
#
# 1 0.021405 0.002855 -0.005138 0.000000 0.000000 0.000000
# 2 0.002855 0.021405 -0.005138 0.000000 0.000000 0.000000
# 3 -0.005138 -0.005138 0.019322 0.000000 0.000000 0.000000
# 4 0.000000 0.000000 0.000000 0.068104 0.000000 0.000000
# 5 0.000000 0.000000 0.000000 0.000000 0.068104 0.000000
# 6 0.000000 0.000000 0.000000 0.000000 0.000000 0.037100
#
#
# Mechanical properties :
#
#
# Convention : Reuss Voigt Hill
#
# Bulk Modulus (GPa) = 21.14503 22.29172 21.71837
# Shear Modulus (GPa) = 18.79390 20.44480 19.61935
#
# Velocity S-wave (km/s) = 3.05066 3.18183 3.11693
# Velocity P-wave (km/s) = 4.78325 4.95352 4.86913
#
# Compressibility (1/GPa) = 0.04729244
#
# Stress axis : x y z
#
# Youngs Moduli (GPa) = 46.71797 46.71797 51.75345
#
# Poissons Ratio (x) = -0.13338 0.26589
# Poissons Ratio (y) = -0.13338 0.26589
# Poissons Ratio (z) = 0.24002 0.24002
#
# Static dielectric constant tensor:
#      x y z
#    x 1.738000 0.000000 0.000000 
#    y 0.000000 1.738000 0.000000 
#    z 0.000000 0.000000 1.721390 
# 
# From -- ./inp_files/972.got.cif
#   From: 2010.05.17/outbox.cif.g08.bks.cpg/sg175_1_cif.got.tgz:972.got - 2010.05.20 11:23:22.
