data_PCOD9581459
_publ_section_title
;
Structure prediction by ZEFSAII (Michael W. Deem and Ramdas Pophale) SiO2 
 PCOD9581459
Probable space group: P 6/M
;
_chemical_formula_sum "Si O2"
_cell_formula_units_Z 52
_cell_length_a 13.774313
_cell_length_b 13.774313
_cell_length_c 17.823999
_cell_angle_alpha 90.000000
_cell_angle_beta 90.000000
_cell_angle_gamma 120.000000
_cell_volume 2928.705317
_symmetry_space_group_name_H-M "P 6/M"
_symmetry_group_IT_number 175
_symmetry_cell_setting 'hexagonal'
loop_
_space_group_symop_operation_xyz
x,y,z
x-y,x,z
-y,x-y,z
-x,-y,z
-x+y,-x,z
y,-x+y,z
-x,-y,-z
-x+y,-x,-z
y,-x+y,-z
x,y,-z
x-y,x,-z
-y,x-y,-z
loop_
_atom_site_type_symbol
_atom_site_label
_atom_site_fract_x
_atom_site_fract_y
_atom_site_fract_z
Si Si1 0.261963 0.156870 0.420598
Si Si2 0.789905 0.235736 0.695316
Si Si3 0.599351 0.620733 0.784878
Si Si4 0.666668 0.333334 0.594195
Si Si5 0.010709 0.235785 0.913583
O O1 0.174011 0.198189 0.418740
O O2 0.325735 0.195675 0.500000
O O3 0.342242 0.198569 0.351651
O O4 0.912178 0.321894 0.731103
O O5 0.750161 0.297103 0.634801
O O6 0.691727 0.149854 0.752081
O O7 0.500000 0.500000 0.808747
O O8 0.677030 0.692006 0.853365
O O9 0.666667 0.333334 0.500000
O O10 0.117771 0.220168 0.902944
O O11 0.012344 0.271667 0.000000
#
# Coordination Sequence:
#
# PCOD9581459 Si02
#       5
#    12  12  12   4  12
#     4  10  20  34  54  81 115 149 189 244 307 378
#     4  12  23  41  60  88 118 158 207 258 313 375
#     4  12  24  40  65  90 121 165 211 259 311 363
#     4  12  27  45  63  87 121 161 211 276 333 375
#     4  10  21  39  66 101 137 168 201 247 309 378
#
# _framework density 17.755284
#
# number of rings (size 3 to 8) (size 9 to 14) (size 15 to 20)
#    0.000    0.923    6.923    1.154    0.000    2.308 
#    0.000    1.154    0.000    0.000    0.000    0.000 
#    0.000    0.000    0.000    0.000    0.000    0.000 
#
# Total GULP energy -289502.722687 kJ/mol
# GULP energy per Si atom -5567.360052 kJ/mol
# Density = 1.771487 g / cm^3
# Si number density = 17.755284 Si / 1000 Ang^3
#
#
#
# Elastic Constant Matrix: (Units=GPa)
#
#
# Indices 1 2 3 4 5 6 
#
# 1 64.3199 -3.5784 36.1043 0.0000 0.0000 -0.0004
# 2 -3.5784 64.3190 36.1042 0.0000 0.0000 -0.0003
# 3 36.1043 36.1042 94.0638 0.0000 0.0000 -0.0003
# 4 0.0000 0.0000 0.0000 30.7543 -0.0002 0.0000
# 5 0.0000 0.0000 0.0000 -0.0002 30.7543 0.0000
# 6 -0.0004 -0.0003 -0.0003 0.0000 0.0000 33.9487
#
#
#
# Elastic Compliance Matrix: (Units=1/GPa)
#
#
# Indices 1 2 3 4 5 6 
#
# 1 0.022504 0.007776 -0.011622 0.000000 0.000000 0.000000
# 2 0.007776 0.022504 -0.011622 0.000000 0.000000 0.000000
# 3 -0.011622 -0.011622 0.019553 0.000000 0.000000 0.000000
# 4 0.000000 0.000000 0.000000 0.032516 0.000000 0.000000
# 5 0.000000 0.000000 0.000000 0.000000 0.032516 0.000000
# 6 0.000000 0.000000 0.000000 0.000000 0.000000 0.029456
#
#
# Mechanical properties :
#
#
# Convention : Reuss Voigt Hill
#
# Bulk Modulus (GPa) = 29.74100 39.99587 34.86843
# Shear Modulus (GPa) = 24.85172 29.36296 27.10734
#
# Velocity S-wave (km/s) = 3.74529 4.07106 3.91156
# Velocity P-wave (km/s) = 5.95733 6.68379 6.33099
#
# Compressibility (1/GPa) = 0.03362362
#
# Stress axis : x y z
#
# Youngs Moduli (GPa) = 44.43714 44.43649 51.14331
#
# Poissons Ratio (x) = -0.34553 0.59439
# Poissons Ratio (y) = -0.34554 0.59440
# Poissons Ratio (z) = 0.51645 0.51645
#
# Static dielectric constant tensor:
#      x y z
#    x 1.598590 0.000000 0.000000 
#    y 0.000000 1.598590 0.000000 
#    z 0.000000 0.000000 1.647330 
# 
# From -- ./inp_files/2293.got.cif
#   From: 2010.05.17/outbox.cif.g08.bks.cpg/sg175_2_cif.got.tgz:2293.got - 2010.05.20 11:23:22.
