data_PCOD9581874
_publ_section_title
;
Structure prediction by ZEFSAII (Michael W. Deem and Ramdas Pophale) SiO2 
 PCOD9581874
Probable space group: P 63/M
;
_chemical_formula_sum "Si O2"
_cell_formula_units_Z 84
_cell_length_a 18.103190
_cell_length_b 18.103190
_cell_length_c 13.388993
_cell_angle_alpha 90.000000
_cell_angle_beta 90.000000
_cell_angle_gamma 120.000000
_cell_volume 3800.045225
_symmetry_space_group_name_H-M "P 63/M"
_symmetry_group_IT_number 176
_symmetry_cell_setting 'hexagonal'
loop_
_space_group_symop_operation_xyz
x,y,z
x-y,x,1/2+z
-y,x-y,z
-x,-y,1/2+z
-x+y,-x,z
y,-x+y,1/2+z
-x,-y,-z
-x+y,-x,1/2-z
y,-x+y,-z
x,y,1/2-z
x-y,x,-z
-y,x-y,1/2-z
loop_
_atom_site_type_symbol
_atom_site_label
_atom_site_fract_x
_atom_site_fract_y
_atom_site_fract_z
Si Si1 0.978680 0.815997 0.129624
Si Si2 0.308222 0.000411 0.137970
Si Si3 0.886624 0.621442 0.366887
Si Si4 0.852957 0.872216 0.364637
Si Si5 0.706054 0.550941 0.461010
Si Si6 0.903043 0.478602 0.482936
Si Si7 0.465403 0.279386 0.865786
O O1 0.968212 0.806107 0.250000
O O2 0.076346 0.882036 0.102748
O O3 0.936654 0.719155 0.092052
O O4 0.935567 0.871526 0.094204
O O5 0.348040 0.025898 0.250000
O O6 0.373370 0.058060 0.053293
O O7 0.227320 0.012567 0.135160
O O8 0.273695 0.900209 0.129936
O O9 0.904127 0.626055 0.250000
O O10 0.785974 0.580482 0.387452
O O11 0.908468 0.554405 0.416178
O O12 0.876187 0.901399 0.250000
O O13 0.616483 0.466939 0.437904
O O14 0.742536 0.539094 0.566637
O O15 0.849244 0.477909 0.580647
O O16 0.000000 0.500000 0.500000
O O17 0.487255 0.276861 0.750000
#
# Coordination Sequence:
#
# PCOD9581874 Si02
#       7
#    12  12  12  12  12  12  12
#     4   9  16  29  51  90 143 186 231 277 329 409
#     4  10  19  37  66  96 130 179 226 278 350 422
#     4  10  22  40  65 101 140 184 234 297 366 430
#     4   9  16  27  51  89 132 184 228 268 326 397
#     4  11  22  42  70  95 137 177 233 296 357 433
#     4  11  24  43  69 100 134 177 236 302 364 429
#     4  10  24  45  69  99 134 178 228 286 366 441
#
# _framework density 22.105001000000001
#
# number of rings (size 3 to 8) (size 9 to 14) (size 15 to 20)
#    0.000    2.000    2.857    0.714    0.000    4.571 
#    6.857    1.429    0.000    0.000    0.000    1.000 
#    0.000    0.000    0.000    0.000    0.000    0.000 
#
# Total GULP energy -468465.001515 kJ/mol
# GULP energy per Si atom -5576.964304 kJ/mol
# Density = 2.205469 g / cm^3
# Si number density = 22.105001 Si / 1000 Ang^3
#
#
#
# Elastic Constant Matrix: (Units=GPa)
#
#
# Indices 1 2 3 4 5 6 
#
# 1 125.9370 60.2879 34.6550 0.0000 0.0000 0.0000
# 2 60.2879 125.9370 34.6550 0.0000 0.0000 0.0000
# 3 34.6550 34.6550 92.8748 0.0000 0.0000 0.0000
# 4 0.0000 0.0000 0.0000 18.0063 0.0000 0.0000
# 5 0.0000 0.0000 0.0000 0.0000 18.0063 0.0000
# 6 0.0000 0.0000 0.0000 0.0000 0.0000 32.8245
#
#
#
# Elastic Compliance Matrix: (Units=1/GPa)
#
#
# Indices 1 2 3 4 5 6 
#
# 1 0.010734 -0.004498 -0.002327 0.000000 0.000000 0.000000
# 2 -0.004498 0.010734 -0.002327 0.000000 0.000000 0.000000
# 3 -0.002327 -0.002327 0.012504 0.000000 0.000000 0.000000
# 4 0.000000 0.000000 0.000000 0.055536 0.000000 0.000000
# 5 0.000000 0.000000 0.000000 0.000000 0.055536 0.000000
# 6 0.000000 0.000000 0.000000 0.000000 0.000000 0.030465
#
#
# Mechanical properties :
#
#
# Convention : Reuss Voigt Hill
#
# Bulk Modulus (GPa) = 63.82422 67.10498 65.46460
# Shear Modulus (GPa) = 25.12111 28.11082 26.61596
#
# Velocity S-wave (km/s) = 3.37478 3.56995 3.47374
# Velocity P-wave (km/s) = 6.64239 6.88593 6.76526
#
# Compressibility (1/GPa) = 0.01566803
#
# Stress axis : x y z
#
# Youngs Moduli (GPa) = 93.16031 93.16031 79.97674
#
# Poissons Ratio (x) = 0.41907 0.18609
# Poissons Ratio (y) = 0.41907 0.18609
# Poissons Ratio (z) = 0.21677 0.21677
#
# Static dielectric constant tensor:
#      x y z
#    x 1.840960 0.000000 0.000000 
#    y 0.000000 1.840960 0.000000 
#    z 0.000000 0.000000 1.906560 
# 
# From -- ./inp_files/2938.got.cif
#   From: 2010.05.17/outbox.cif.g08.bks.cpg/sg176_2_cif.got.tgz:2938.got - 2010.06.03 11:36:45.
