data_PCOD9581987
_publ_section_title
;
Structure prediction by ZEFSAII (Michael W. Deem and Ramdas Pophale) SiO2 
 PCOD9581987
Probable space group: P 63/M
;
_chemical_formula_sum "Si O2"
_cell_formula_units_Z 52
_cell_length_a 19.669626
_cell_length_b 19.669626
_cell_length_c 8.799710
_cell_angle_alpha 90.000000
_cell_angle_beta 90.000000
_cell_angle_gamma 120.000000
_cell_volume 2948.432544
_symmetry_space_group_name_H-M "P 63/M"
_symmetry_group_IT_number 176
_symmetry_cell_setting 'hexagonal'
loop_
_space_group_symop_operation_xyz
x,y,z
x-y,x,1/2+z
-y,x-y,z
-x,-y,1/2+z
-x+y,-x,z
y,-x+y,1/2+z
-x,-y,-z
-x+y,-x,1/2-z
y,-x+y,-z
x,y,1/2-z
x-y,x,-z
-y,x-y,1/2-z
loop_
_atom_site_type_symbol
_atom_site_label
_atom_site_fract_x
_atom_site_fract_y
_atom_site_fract_z
Si Si1 0.172118 0.832408 0.069414
Si Si2 0.716554 0.004312 0.069790
Si Si3 0.666668 0.333334 0.568894
Si Si4 0.503719 0.214645 0.431098
Si Si5 0.413761 0.463548 0.431375
O O1 0.177376 0.822691 0.250000
O O2 0.079644 0.787396 0.030618
O O3 0.209174 0.786267 0.983928
O O4 0.218461 0.922576 0.022223
O O5 0.732627 0.018103 0.250000
O O6 0.630252 0.993204 0.041956
O O7 0.666667 0.333334 0.750000
O O8 0.578432 0.287823 0.505558
O O9 0.510182 0.218801 0.250000
O O10 0.499326 0.134975 0.491742
O O11 0.500000 0.500000 0.500000
O O12 0.416963 0.476348 0.250000
#
# Coordination Sequence:
#
# PCOD9581987 Si02
#       5
#    12  12   4  12  12
#     4  10  21  38  60  87 116 149 190 232 283 342
#     4   9  20  37  57  83 115 147 187 234 281 340
#     4  12  25  41  58  78 109 149 193 240 286 338
#     4  11  23  39  57  80 111 147 190 235 287 340
#     4  10  21  37  56  81 112 147 190 236 284 337
#
# _framework density 17.636489000000001
#
# number of rings (size 3 to 8) (size 9 to 14) (size 15 to 20)
#    0.000    1.846    0.000    5.538    3.231    5.538 
#    0.000    0.000    0.000    0.462    0.000    0.000 
#    0.000    0.000    0.000    0.000    0.000    0.000 
#
# Total GULP energy -290555.880761 kJ/mol
# GULP energy per Si atom -5587.613092 kJ/mol
# Density = 1.759635 g / cm^3
# Si number density = 17.636489 Si / 1000 Ang^3
#
#
#
# Elastic Constant Matrix: (Units=GPa)
#
#
# Indices 1 2 3 4 5 6 
#
# 1 78.3938 51.1537 55.7360 0.0000 0.0000 0.0002
# 2 51.1537 78.3968 55.7368 0.0000 0.0000 -0.0001
# 3 55.7360 55.7368 119.3751 0.0000 0.0000 0.0001
# 4 0.0000 0.0000 0.0000 32.0712 0.0001 0.0000
# 5 0.0000 0.0000 0.0000 0.0001 32.0709 0.0000
# 6 0.0002 -0.0001 0.0001 0.0000 0.0000 13.6208
#
#
#
# Elastic Compliance Matrix: (Units=1/GPa)
#
#
# Indices 1 2 3 4 5 6 
#
# 1 0.024806 -0.011903 -0.006024 0.000000 0.000000 0.000000
# 2 -0.011903 0.024805 -0.006024 0.000000 0.000000 0.000000
# 3 -0.006024 -0.006024 0.014003 0.000000 0.000000 0.000000
# 4 0.000000 0.000000 0.000000 0.031181 0.000000 0.000000
# 5 0.000000 0.000000 0.000000 0.000000 0.031181 0.000000
# 6 0.000000 0.000000 0.000000 0.000000 0.000000 0.073417
#
#
# Mechanical properties :
#
#
# Convention : Reuss Voigt Hill
#
# Bulk Modulus (GPa) = 63.65050 66.82428 65.23739
# Shear Modulus (GPa) = 19.79941 23.12186 21.46063
#
# Velocity S-wave (km/s) = 3.35422 3.62473 3.49210
# Velocity P-wave (km/s) = 7.15329 7.44918 7.30274
#
# Compressibility (1/GPa) = 0.01571080
#
# Stress axis : x y z
#
# Youngs Moduli (GPa) = 40.31240 40.31414 71.41580
#
# Poissons Ratio (x) = 0.47985 0.43024
# Poissons Ratio (y) = 0.47983 0.43022
# Poissons Ratio (z) = 0.24286 0.24286
#
# Static dielectric constant tensor:
#      x y z
#    x 1.585830 0.000000 0.000000 
#    y 0.000000 1.585830 0.000000 
#    z 0.000000 0.000000 1.587080 
# 
# From -- ./inp_files/683.got.cif
#   From: 2010.05.17/outbox.cif.g08.bks.cpg/sg176_1_cif.got.tgz:683.got - 2010.06.03 11:36:45.
