data_PCOD9581522
_publ_section_title
;
Structure prediction by ZEFSAII (Michael W. Deem and Ramdas Pophale) SiO2 
 PCOD9581522
Probable space group: P 6/M
;
_chemical_formula_sum "Si O2"
_cell_formula_units_Z 40
_cell_length_a 15.172121
_cell_length_b 15.172121
_cell_length_c 7.909144
_cell_angle_alpha 90.000000
_cell_angle_beta 90.000000
_cell_angle_gamma 120.000000
_cell_volume 1576.713222
_symmetry_space_group_name_H-M "P 6/M"
_symmetry_group_IT_number 175
_symmetry_cell_setting 'hexagonal'
loop_
_space_group_symop_operation_xyz
x,y,z
x-y,x,z
-y,x-y,z
-x,-y,z
-x+y,-x,z
y,-x+y,z
-x,-y,-z
-x+y,-x,-z
y,-x+y,-z
x,y,-z
x-y,x,-z
-y,x-y,-z
loop_
_atom_site_type_symbol
_atom_site_label
_atom_site_fract_x
_atom_site_fract_y
_atom_site_fract_z
Si Si1 0.867381 0.361762 0.692499
Si Si2 0.666668 0.333335 0.708075
Si Si3 0.423494 0.343492 0.191234
Si Si4 0.768095 0.852984 0.704321
O O1 0.868157 0.328783 0.500000
O O2 0.753382 0.308578 0.763342
O O3 0.892348 0.479550 0.692185
O O4 0.956493 0.359585 0.792650
O O5 0.666667 0.333334 0.500000
O O6 0.345912 0.227931 0.239715
O O7 0.460018 0.353961 0.000000
O O8 0.842672 0.811270 0.761174
O O9 0.768432 0.853314 0.500000
#
# Coordination Sequence:
#
# PCOD9581522 Si02
#       4
#    12   4  12  12
#     4  10  20  39  62  88 118 158 205 251 291 340
#     4   9  21  36  61  92 118 147 199 254 295 336
#     4  11  23  39  58  88 124 161 197 238 295 360
#     4  10  22  41  66  91 115 149 196 249 298 351
#
# _framework density 25.369233000000001
#
# number of rings (size 3 to 8) (size 9 to 14) (size 15 to 20)
#    0.000    1.800    0.000    5.700    4.200    2.400 
#    0.000    4.500    0.000    1.800    0.000    0.000 
#    0.000    0.000    0.000    0.000    0.000    0.000 
#
# Total GULP energy -223936.798916 kJ/mol
# GULP energy per Si atom -5598.419973 kJ/mol
# Density = 2.531149 g / cm^3
# Si number density = 25.369233 Si / 1000 Ang^3
#
#
#
# Elastic Constant Matrix: (Units=GPa)
#
#
# Indices 1 2 3 4 5 6 
#
# 1 112.7207 7.2972 -3.0021 0.0000 0.0000 -0.0002
# 2 7.2972 112.7229 -3.0018 0.0000 0.0000 -0.0008
# 3 -3.0021 -3.0018 82.5482 0.0000 0.0000 0.0000
# 4 0.0000 0.0000 0.0000 -21.7602 0.0012 0.0000
# 5 0.0000 0.0000 0.0000 0.0012 -21.7618 0.0000
# 6 -0.0002 -0.0008 0.0000 0.0000 0.0000 52.7122
#
#
#
# Elastic Compliance Matrix: (Units=1/GPa)
#
#
# Indices 1 2 3 4 5 6 
#
# 1 0.008916 -0.000569 0.000304 0.000000 0.000000 0.000000
# 2 -0.000569 0.008916 0.000304 0.000000 0.000000 0.000000
# 3 0.000304 0.000304 0.012136 0.000000 0.000000 0.000000
# 4 0.000000 0.000000 0.000000 -0.045956 -0.000002 0.000000
# 5 0.000000 0.000000 0.000000 -0.000002 -0.045952 0.000000
# 6 0.000000 0.000000 0.000000 0.000000 0.000000 0.018971
#
#
# Mechanical properties :
#
#
# Convention : Reuss Voigt Hill
#
# Bulk Modulus (GPa) = 33.28357 34.50868 33.89613
# Shear Modulus (GPa) = -151.38293 22.28462 -64.54916
#
# Velocity S-wave (km/s) = -7.73314 2.96702 -5.04966
# Velocity P-wave (km/s) = 8.16009 5.03683 4.53968
#
# Compressibility (1/GPa) = 0.03004485
#
# Stress axis : x y z
#
# Youngs Moduli (GPa) = 112.15269 112.15490 82.39800
#
# Poissons Ratio (x) = 0.06383 -0.02501
# Poissons Ratio (y) = 0.06383 -0.02501
# Poissons Ratio (z) = -0.03405 -0.03404
#
# Static dielectric constant tensor:
#      x y z
#    x 2.065300 0.000010 0.000000 
#    y 0.000010 2.065290 0.000000 
#    z 0.000000 0.000000 1.885690 
# 
# From -- ./inp_files/420.got.cif
#   From: 2010.05.17/outbox.cif.g08.bks.cpg/sg175_1_cif.got.tgz:420.got - 2010.05.20 11:23:22.
