data_PCOD9581989
_publ_section_title
;
Structure prediction by ZEFSAII (Michael W. Deem and Ramdas Pophale) SiO2 
 PCOD9581989
Probable space group: P 63/M
;
_chemical_formula_sum "Si O2"
_cell_formula_units_Z 66
_cell_length_a 21.510203
_cell_length_b 21.510203
_cell_length_c 7.685163
_cell_angle_alpha 90.000000
_cell_angle_beta 90.000000
_cell_angle_gamma 120.000000
_cell_volume 3079.446993
_symmetry_space_group_name_H-M "P 63/M"
_symmetry_group_IT_number 176
_symmetry_cell_setting 'hexagonal'
loop_
_space_group_symop_operation_xyz
x,y,z
x-y,x,1/2+z
-y,x-y,z
-x,-y,1/2+z
-x+y,-x,z
y,-x+y,1/2+z
-x,-y,-z
-x+y,-x,1/2-z
y,-x+y,-z
x,y,1/2-z
x-y,x,-z
-y,x-y,1/2-z
loop_
_atom_site_type_symbol
_atom_site_label
_atom_site_fract_x
_atom_site_fract_y
_atom_site_fract_z
Si Si1 0.432220 0.053276 0.549521
Si Si2 0.477497 0.257300 0.953563
Si Si3 0.692303 0.425283 0.250000
Si Si4 0.185717 0.875144 0.458961
Si Si5 0.288513 0.040690 0.541400
Si Si6 0.416044 0.906032 0.043836
O O1 0.439298 0.077078 0.750000
O O2 0.512327 0.091076 0.473677
O O3 0.366759 0.059109 0.470228
O O4 0.408045 0.969158 0.543379
O O5 0.479931 0.239611 0.750000
O O6 0.394481 0.222583 0.010581
O O7 0.510349 0.342754 0.966936
O O8 0.524639 0.238814 0.080470
O O9 0.614026 0.355128 0.250000
O O10 0.187246 0.875405 0.250000
O O11 0.230657 0.958170 0.509014
O O12 0.103011 0.830083 0.519473
O O13 0.295671 0.047248 0.750000
O O14 0.428422 0.924807 0.250000
#
# Coordination Sequence:
#
# PCOD9581989 Si02
#       6
#    12  12   6  12  12  12
#     4   9  17  29  49  78 114 151 193 245 302 361
#     4  10  21  39  66  87 120 167 211 270 326 372
#     4  10  26  44  58  88 122 162 228 266 304 380
#     4  10  22  39  61  93 126 159 209 257 316 391
#     4  10  21  37  59  87 123 162 199 256 319 378
#     4   9  17  29  50  82 114 151 196 246 305 362
#
# _framework density 21.432418999999999
#
# number of rings (size 3 to 8) (size 9 to 14) (size 15 to 20)
#    0.182    2.182    1.818    0.000    2.545    2.909 
#    0.000    3.636    0.000    0.364    0.000    0.000 
#    0.000    0.000    0.000    0.000    0.000    0.000 
#
# Total GULP energy -368432.164748 kJ/mol
# GULP energy per Si atom -5582.305526 kJ/mol
# Density = 2.138364 g / cm^3
# Si number density = 21.432419 Si / 1000 Ang^3
#
#
#
# Elastic Constant Matrix: (Units=GPa)
#
#
# Indices 1 2 3 4 5 6 
#
# 1 98.5738 54.0787 22.6429 0.0000 0.0000 0.0000
# 2 54.0787 98.5738 22.6429 0.0000 0.0000 0.0000
# 3 22.6429 22.6429 55.7109 0.0000 0.0000 0.0000
# 4 0.0000 0.0000 0.0000 7.0562 0.0000 0.0000
# 5 0.0000 0.0000 0.0000 0.0000 7.0562 0.0000
# 6 0.0000 0.0000 0.0000 0.0000 0.0000 22.2475
#
#
#
# Elastic Compliance Matrix: (Units=1/GPa)
#
#
# Indices 1 2 3 4 5 6 
#
# 1 0.014962 -0.007513 -0.003028 0.000000 0.000000 0.000000
# 2 -0.007513 0.014962 -0.003028 0.000000 0.000000 0.000000
# 3 -0.003028 -0.003028 0.020411 0.000000 0.000000 0.000000
# 4 0.000000 0.000000 0.000000 0.141718 0.000000 0.000000
# 5 0.000000 0.000000 0.000000 0.000000 0.141718 0.000000
# 6 0.000000 0.000000 0.000000 0.000000 0.000000 0.044949
#
#
# Mechanical properties :
#
#
# Convention : Reuss Voigt Hill
#
# Bulk Modulus (GPa) = 43.10600 50.17641 46.64120
# Shear Modulus (GPa) = 12.08932 17.50494 14.79713
#
# Velocity S-wave (km/s) = 2.37759 2.86099 2.63041
# Velocity P-wave (km/s) = 5.26245 5.86310 5.57088
#
# Compressibility (1/GPa) = 0.02319863
#
# Stress axis : x y z
#
# Youngs Moduli (GPa) = 66.83742 66.83742 48.99365
#
# Poissons Ratio (x) = 0.50213 0.14833
# Poissons Ratio (y) = 0.50213 0.14833
# Poissons Ratio (z) = 0.20235 0.20235
#
# Static dielectric constant tensor:
#      x y z
#    x 1.781310 0.000000 0.000000 
#    y 0.000000 1.781310 0.000000 
#    z 0.000000 0.000000 1.805520 
# 
# From -- ./inp_files/961.got.cif
#   From: 2010.05.17/outbox.cif.g08.bks.cpg/sg176_1_cif.got.tgz:961.got - 2010.06.03 11:36:45.
