data_PCOD9581956
_publ_section_title
;
Structure prediction by ZEFSAII (Michael W. Deem and Ramdas Pophale) SiO2 
 PCOD9581956
Probable space group: P 63/M
;
_chemical_formula_sum "Si O2"
_cell_formula_units_Z 76
_cell_length_a 17.584127
_cell_length_b 17.584127
_cell_length_c 14.624268
_cell_angle_alpha 90.000000
_cell_angle_beta 90.000000
_cell_angle_gamma 120.000000
_cell_volume 3916.033446
_symmetry_space_group_name_H-M "P 63/M"
_symmetry_group_IT_number 176
_symmetry_cell_setting 'hexagonal'
loop_
_space_group_symop_operation_xyz
x,y,z
x-y,x,1/2+z
-y,x-y,z
-x,-y,1/2+z
-x+y,-x,z
y,-x+y,1/2+z
-x,-y,-z
-x+y,-x,1/2-z
y,-x+y,-z
x,y,1/2-z
x-y,x,-z
-y,x-y,1/2-z
loop_
_atom_site_type_symbol
_atom_site_label
_atom_site_fract_x
_atom_site_fract_y
_atom_site_fract_z
Si Si1 0.805045 0.522716 0.143573
Si Si2 0.812659 0.937905 0.484235
Si Si3 0.919898 0.636483 0.649211
Si Si4 0.666667 0.333334 0.361807
Si Si5 0.089438 0.753194 0.141309
Si Si6 0.021818 0.424026 0.528272
Si Si7 0.891198 0.191037 0.349263
O O1 0.817574 0.510476 0.250000
O O2 0.726453 0.432408 0.106480
O O3 0.895112 0.545947 0.094782
O O4 0.778239 0.597813 0.140667
O O5 0.858714 0.882411 0.461339
O O6 0.761688 0.953520 0.402218
O O7 0.740851 0.879446 0.559141
O O8 0.915045 0.597260 0.750000
O O9 0.827923 0.634900 0.634790
O O10 0.944396 0.595724 0.565841
O O11 0.007003 0.733192 0.652062
O O12 0.666667 0.333334 0.250000
O O13 0.069587 0.732448 0.250000
O O14 0.054892 0.665403 0.078445
O O15 0.000000 0.500000 0.500000
O O16 0.872606 0.145124 0.250000
#
# Coordination Sequence:
#
# PCOD9581956 Si02
#       7
#    12  12  12   4  12  12  12
#     4  10  22  39  62  94 127 167 216 271 335 396
#     4  12  23  37  58  88 128 168 217 268 327 389
#     4  10  22  40  65  90 121 167 214 266 323 385
#     4   9  21  39  60  90 133 170 205 273 348 399
#     4  11  22  42  66  91 125 169 219 271 329 393
#     4  12  26  39  64  97 131 170 218 271 332 402
#     4  10  20  38  64  88 117 164 217 265 322 388
#
# _framework density 19.407392000000002
#
# number of rings (size 3 to 8) (size 9 to 14) (size 15 to 20)
#    0.000    1.263    3.158    2.526    2.211    3.158 
#    0.000    0.000    0.000    2.526    0.000    0.000 
#    0.000    0.000    0.000    0.000    0.000    0.000 
#
# Total GULP energy -423261.382394 kJ/mol
# GULP energy per Si atom -5569.228716 kJ/mol
# Density = 1.936322 g / cm^3
# Si number density = 19.407392 Si / 1000 Ang^3
#
#
#
# Elastic Constant Matrix: (Units=GPa)
#
#
# Indices 1 2 3 4 5 6 
#
# 1 95.2345 52.4463 49.1961 0.0000 0.0000 -0.0004
# 2 52.4463 95.2351 49.1960 0.0000 0.0000 -0.0004
# 3 49.1961 49.1960 117.8237 0.0000 0.0000 -0.0006
# 4 0.0000 0.0000 0.0000 18.3092 0.0000 0.0000
# 5 0.0000 0.0000 0.0000 0.0000 18.3095 0.0000
# 6 -0.0004 -0.0004 -0.0006 0.0000 0.0000 21.3938
#
#
#
# Elastic Compliance Matrix: (Units=1/GPa)
#
#
# Indices 1 2 3 4 5 6 
#
# 1 0.016376 -0.006995 -0.003917 0.000000 0.000000 0.000000
# 2 -0.006995 0.016376 -0.003917 0.000000 0.000000 0.000000
# 3 -0.003917 -0.003917 0.011758 0.000000 0.000000 0.000000
# 4 0.000000 0.000000 0.000000 0.054617 0.000000 0.000000
# 5 0.000000 0.000000 0.000000 0.000000 0.054617 0.000000
# 6 0.000000 0.000000 0.000000 0.000000 0.000000 0.046742
#
#
# Mechanical properties :
#
#
# Convention : Reuss Voigt Hill
#
# Bulk Modulus (GPa) = 67.32895 67.77446 67.55170
# Shear Modulus (GPa) = 21.26802 22.09949 21.68376
#
# Velocity S-wave (km/s) = 3.31399 3.37815 3.34622
# Velocity P-wave (km/s) = 7.02930 7.08616 7.05779
#
# Compressibility (1/GPa) = 0.01485245
#
# Stress axis : x y z
#
# Youngs Moduli (GPa) = 61.06519 61.06566 85.04702
#
# Poissons Ratio (x) = 0.42715 0.33313
# Poissons Ratio (y) = 0.42714 0.33312
# Poissons Ratio (z) = 0.23919 0.23919
#
# Static dielectric constant tensor:
#      x y z
#    x 1.716650 0.000000 0.000000 
#    y 0.000000 1.716650 0.000000 
#    z 0.000000 0.000000 1.714420 
# 
# From -- ./inp_files/2856.got.cif
#   From: 2010.05.17/outbox.cif.g08.bks.cpg/sg176_2_cif.got.tgz:2856.got - 2010.06.03 11:36:45.
