data_PCOD9581571
_publ_section_title
;
Structure prediction by ZEFSAII (Michael W. Deem and Ramdas Pophale) SiO2 
 PCOD9581571
Probable space group: P 6/M
;
_chemical_formula_sum "Si O2"
_cell_formula_units_Z 48
_cell_length_a 17.876057
_cell_length_b 17.876057
_cell_length_c 8.563661
_cell_angle_alpha 90.000000
_cell_angle_beta 90.000000
_cell_angle_gamma 120.000000
_cell_volume 2369.919314
_symmetry_space_group_name_H-M "P 6/M"
_symmetry_group_IT_number 175
_symmetry_cell_setting 'hexagonal'
loop_
_space_group_symop_operation_xyz
x,y,z
x-y,x,z
-y,x-y,z
-x,-y,z
-x+y,-x,z
y,-x+y,z
-x,-y,-z
-x+y,-x,-z
y,-x+y,-z
x,y,-z
x-y,x,-z
-y,x-y,-z
loop_
_atom_site_type_symbol
_atom_site_label
_atom_site_fract_x
_atom_site_fract_y
_atom_site_fract_z
Si Si1 0.132044 0.197403 0.811340
Si Si2 0.386227 0.502364 0.817732
Si Si3 0.371098 0.931727 0.315928
Si Si4 0.179364 0.794741 0.313976
O O1 0.162725 0.130071 0.763774
O O2 0.190379 0.292832 0.743424
O O3 0.135893 0.202663 0.000000
O O4 0.458657 0.583175 0.721322
O O5 0.405823 0.424775 0.781369
O O6 0.288499 0.463833 0.763619
O O7 0.396930 0.522905 0.000000
O O8 0.380749 0.953459 0.500000
O O9 0.270719 0.878848 0.275352
O O10 0.173928 0.783351 0.500000
#
# Coordination Sequence:
#
# PCOD9581571 Si02
#       4
#    12  12  12  12
#     4  10  21  37  58  85 119 158 199 245 294 344
#     4  11  22  37  60  86 114 147 186 235 288 342
#     4  10  21  39  61  83 113 151 190 233 283 342
#     4  11  23  38  58  85 115 152 194 237 285 344
#
# _framework density 20.253855999999999
#
# number of rings (size 3 to 8) (size 9 to 14) (size 15 to 20)
#    0.000    1.500    0.000    7.000    0.000   10.000 
#    1.500    0.000    0.000    1.500    0.000    0.000 
#    0.000    0.000    0.000    0.000    0.000    0.000 
#
# Total GULP energy -268378.118298 kJ/mol
# GULP energy per Si atom -5591.210798 kJ/mol
# Density = 2.020776 g / cm^3
# Si number density = 20.253856 Si / 1000 Ang^3
#
#
#
# Elastic Constant Matrix: (Units=GPa)
#
#
# Indices 1 2 3 4 5 6 
#
# 1 45.6820 -10.8521 -5.0566 0.0000 0.0000 0.0000
# 2 -10.8521 45.6820 -5.0566 0.0000 0.0000 0.0000
# 3 -5.0566 -5.0566 21.4366 0.0000 0.0000 0.0000
# 4 0.0000 0.0000 0.0000 32.4862 0.0000 0.0000
# 5 0.0000 0.0000 0.0000 0.0000 32.4862 0.0000
# 6 0.0000 0.0000 0.0000 0.0000 0.0000 28.2671
#
#
#
# Elastic Compliance Matrix: (Units=1/GPa)
#
#
# Indices 1 2 3 4 5 6 
#
# 1 0.024255 0.006567 0.007270 0.000000 0.000000 0.000000
# 2 0.006567 0.024255 0.007270 0.000000 0.000000 0.000000
# 3 0.007270 0.007270 0.050079 0.000000 0.000000 0.000000
# 4 0.000000 0.000000 0.000000 0.030782 0.000000 0.000000
# 5 0.000000 0.000000 0.000000 0.000000 0.030782 0.000000
# 6 0.000000 0.000000 0.000000 0.000000 0.000000 0.035377
#
#
# Mechanical properties :
#
#
# Convention : Reuss Voigt Hill
#
# Bulk Modulus (GPa) = 7.10202 7.87446 7.48824
# Shear Modulus (GPa) = 24.96871 27.56562 26.26716
#
# Velocity S-wave (km/s) = 3.51492 3.69318 3.60515
# Velocity P-wave (km/s) = 4.47068 4.69920 4.58636
#
# Compressibility (1/GPa) = 0.14080500
#
# Stress axis : x y z
#
# Youngs Moduli (GPa) = 41.22828 41.22828 19.96837
#
# Poissons Ratio (x) = -0.27074 -0.14518
# Poissons Ratio (y) = -0.27074 -0.14518
# Poissons Ratio (z) = -0.29975 -0.29975
#
# Static dielectric constant tensor:
#      x y z
#    x 1.720840 0.000000 0.000000 
#    y 0.000000 1.720840 0.000000 
#    z 0.000000 0.000000 1.677370 
# 
# From -- ./inp_files/518.got.cif
#   From: 2010.05.17/outbox.cif.g08.bks.cpg/sg175_1_cif.got.tgz:518.got - 2010.05.20 11:23:22.
