data_PCOD9581875
_publ_section_title
;
Structure prediction by ZEFSAII (Michael W. Deem and Ramdas Pophale) SiO2 
 PCOD9581875
Probable space group: P 63/M
;
_chemical_formula_sum "Si O2"
_cell_formula_units_Z 72
_cell_length_a 14.615178
_cell_length_b 14.615178
_cell_length_c 22.898882
_cell_angle_alpha 90.000000
_cell_angle_beta 90.000000
_cell_angle_gamma 120.000000
_cell_volume 4235.972470
_symmetry_space_group_name_H-M "P 63/M"
_symmetry_group_IT_number 176
_symmetry_cell_setting 'hexagonal'
loop_
_space_group_symop_operation_xyz
x,y,z
x-y,x,1/2+z
-y,x-y,z
-x,-y,1/2+z
-x+y,-x,z
y,-x+y,1/2+z
-x,-y,-z
-x+y,-x,1/2-z
y,-x+y,-z
x,y,1/2-z
x-y,x,-z
-y,x-y,1/2-z
loop_
_atom_site_type_symbol
_atom_site_label
_atom_site_fract_x
_atom_site_fract_y
_atom_site_fract_z
Si Si1 0.442791 0.649633 0.935256
Si Si2 0.916858 0.471120 0.750000
Si Si3 0.533033 0.004592 0.373099
Si Si4 0.209178 0.009004 0.519587
Si Si5 0.411652 0.192679 0.750000
Si Si6 0.916665 0.580951 0.544625
Si Si7 0.869717 0.222814 0.878548
O O1 0.438456 0.757303 0.931180
O O2 0.506884 0.628538 0.885741
O O3 0.494465 0.647659 0.996348
O O4 0.843025 0.343472 0.750000
O O5 0.848361 0.528944 0.750000
O O6 0.986372 0.499330 0.808282
O O7 0.442137 0.983011 0.419339
O O8 0.571432 0.920269 0.383484
O O9 0.296300 0.987426 0.489160
O O10 0.099801 0.899765 0.515061
O O11 0.248313 0.052716 0.584759
O O12 0.345459 0.147816 0.809730
O O13 0.840176 0.597828 0.588588
#
# Coordination Sequence:
#
# PCOD9581875 Si02
#       7
#    12   6  12  12   6  12  12
#     4  10  23  35  54  82 120 157 194 240 288 353
#     4  10  21  36  56  80 116 154 201 242 294 348
#     4  11  21  36  55  81 121 153 194 241 292 351
#     4  10  22  36  58  85 114 148 191 242 307 355
#     4  10  19  38  54  82 114 154 197 240 292 352
#     4  11  20  34  57  85 116 151 193 244 292 359
#     4  10  21  35  57  84 114 156 192 241 295 356
#
# _framework density 16.997278000000001
#
# number of rings (size 3 to 8) (size 9 to 14) (size 15 to 20)
#    0.333    1.333    3.333    1.833    4.667    0.000 
#    1.000    0.833    0.000    7.000    0.000    0.000 
#    0.000    0.000    0.000    0.000    0.000    0.000 
#
# Total GULP energy -401505.508194 kJ/mol
# GULP energy per Si atom -5576.465392 kJ/mol
# Density = 1.695859 g / cm^3
# Si number density = 16.997278 Si / 1000 Ang^3
#
#
#
# Elastic Constant Matrix: (Units=GPa)
#
#
# Indices 1 2 3 4 5 6 
#
# 1 67.6715 18.1650 42.9560 0.0000 0.0000 0.0000
# 2 18.1650 67.6715 42.9560 0.0000 0.0000 0.0000
# 3 42.9560 42.9560 129.6610 0.0000 0.0000 0.0000
# 4 0.0000 0.0000 0.0000 19.2321 0.0000 0.0000
# 5 0.0000 0.0000 0.0000 0.0000 19.2321 0.0000
# 6 0.0000 0.0000 0.0000 0.0000 0.0000 24.7533
#
#
#
# Elastic Compliance Matrix: (Units=1/GPa)
#
#
# Indices 1 2 3 4 5 6 
#
# 1 0.018814 -0.001385 -0.005774 0.000000 0.000000 0.000000
# 2 -0.001385 0.018814 -0.005774 0.000000 0.000000 0.000000
# 3 -0.005774 -0.005774 0.011538 0.000000 0.000000 0.000000
# 4 0.000000 0.000000 0.000000 0.051996 0.000000 0.000000
# 5 0.000000 0.000000 0.000000 0.000000 0.051996 0.000000
# 6 0.000000 0.000000 0.000000 0.000000 0.000000 0.040399
#
#
# Mechanical properties :
#
#
# Convention : Reuss Voigt Hill
#
# Bulk Modulus (GPa) = 42.91824 52.57313 47.74568
# Shear Modulus (GPa) = 22.00778 23.37196 22.68987
#
# Velocity S-wave (km/s) = 3.60221 3.71218 3.65761
# Velocity P-wave (km/s) = 6.52734 7.02646 6.78149
#
# Compressibility (1/GPa) = 0.02330012
#
# Stress axis : x y z
#
# Youngs Moduli (GPa) = 53.15083 53.15083 86.66719
#
# Poissons Ratio (x) = 0.07361 0.50044
# Poissons Ratio (y) = 0.07361 0.50044
# Poissons Ratio (z) = 0.30691 0.30691
#
# Static dielectric constant tensor:
#      x y z
#    x 1.574350 0.000000 0.000000 
#    y 0.000000 1.574350 0.000000 
#    z 0.000000 0.000000 1.566280 
# 
# From -- ./inp_files/3827.got.cif
#   From: 2010.05.17/outbox.cif.g08.bks.cpg/sg176_2_cif.got.tgz:3827.got - 2010.06.03 11:36:45.
