data_PCOD9581119
_publ_section_title
;
Structure prediction by ZEFSAII (Michael W. Deem and Ramdas Pophale) SiO2 
 PCOD9581119
Probable space group: P 63
;
_chemical_formula_sum "Si O2"
_cell_formula_units_Z 34
_cell_length_a 16.397317
_cell_length_b 16.397317
_cell_length_c 7.317192
_cell_angle_alpha 90.000000
_cell_angle_beta 90.000000
_cell_angle_gamma 120.000000
_cell_volume 1703.808059
_symmetry_space_group_name_H-M "P 63"
_symmetry_group_IT_number 173
_symmetry_cell_setting 'hexagonal'
loop_
_space_group_symop_operation_xyz
x,y,z
x-y,x,1/2+z
-y,x-y,z
-x,-y,1/2+z
-x+y,-x,z
y,-x+y,1/2+z
loop_
_atom_site_type_symbol
_atom_site_label
_atom_site_fract_x
_atom_site_fract_y
_atom_site_fract_z
Si Si1 0.432805 0.088653 0.564630
Si Si2 0.113419 0.423365 0.604820
Si Si3 0.189528 0.471447 0.210578
Si Si4 0.690637 0.536471 0.150582
Si Si5 0.666666 0.333333 0.640240
Si Si6 0.666668 0.333335 0.077645
Si Si7 0.041735 0.449117 0.984793
O O1 0.442144 0.172841 0.692882
O O2 0.446426 0.118950 0.355786
O O3 0.514188 0.059603 0.582903
O O4 0.333345 0.992938 0.577896
O O5 0.152740 0.479772 0.411340
O O6 0.196293 0.399915 0.631006
O O7 0.092978 0.467971 0.786534
O O8 0.241914 0.569704 0.096391
O O9 0.095528 0.406786 0.100555
O O10 0.671799 0.429764 0.137408
O O11 0.624732 0.555526 0.012711
O O12 0.666668 0.333334 0.859473
#
# Coordination Sequence:
#
# PCOD9581119 Si02
#       7
#     6   6   6   6   2   2   6
#     4  12  25  42  65  91 131 172 220 274 324 382
#     4  12  26  43  63  89 128 173 218 272 323 382
#     4  12  25  42  61  93 127 173 224 263 318 384
#     4  12  25  42  67  94 129 177 223 266 325 388
#     4  12  24  37  59  91 130 173 223 277 311 373
#     4  12  24  37  62  97 124 176 229 268 317 385
#     4  12  25  43  63  91 131 172 217 270 322 380
#
# _framework density 19.955300000000001
#
# number of rings (size 3 to 8) (size 9 to 14) (size 15 to 20)
#    0.000    0.000    7.059    4.235    0.000    0.000 
#    0.000    0.000    0.000    0.000    0.000    0.000 
#    1.765    0.706    0.000    0.000    0.000    0.000 
#
# Total GULP energy -189447.442058 kJ/mol
# GULP energy per Si atom -5571.983590 kJ/mol
# Density = 1.990988 g / cm^3
# Si number density = 19.955300 Si / 1000 Ang^3
#
#
#
# Elastic Constant Matrix: (Units=GPa)
#
#
# Indices 1 2 3 4 5 6 
#
# 1 124.7534 62.4110 34.7719 0.0000 0.0000 -0.0002
# 2 62.4110 124.7530 34.7719 0.0000 0.0000 -0.0002
# 3 34.7719 34.7719 96.7590 0.0000 0.0000 -0.0001
# 4 0.0000 0.0000 0.0000 34.6757 0.0000 0.0000
# 5 0.0000 0.0000 0.0000 0.0000 34.6753 0.0000
# 6 -0.0002 -0.0002 -0.0001 0.0000 0.0000 31.1712
#
#
#
# Elastic Compliance Matrix: (Units=1/GPa)
#
#
# Indices 1 2 3 4 5 6 
#
# 1 0.011103 -0.004937 -0.002216 0.000000 0.000000 0.000000
# 2 -0.004937 0.011103 -0.002216 0.000000 0.000000 0.000000
# 3 -0.002216 -0.002216 0.011928 0.000000 0.000000 0.000000
# 4 0.000000 0.000000 0.000000 0.028839 0.000000 0.000000
# 5 0.000000 0.000000 0.000000 0.000000 0.028839 0.000000
# 6 0.000000 0.000000 0.000000 0.000000 0.000000 0.032081
#
#
# Mechanical properties :
#
#
# Convention : Reuss Voigt Hill
#
# Bulk Modulus (GPa) = 64.95033 67.79721 66.37377
# Shear Modulus (GPa) = 33.83795 34.39181 34.11488
#
# Velocity S-wave (km/s) = 4.12234 4.15594 4.13917
# Velocity P-wave (km/s) = 7.43484 7.55496 7.49514
#
# Compressibility (1/GPa) = 0.01539638
#
# Stress axis : x y z
#
# Youngs Moduli (GPa) = 90.06283 90.06248 83.83897
#
# Poissons Ratio (x) = 0.44465 0.18578
# Poissons Ratio (y) = 0.44465 0.18578
# Poissons Ratio (z) = 0.19957 0.19957
#
# Static dielectric constant tensor:
#      x y z
#    x 1.779310 0.000000 0.000000 
#    y 0.000000 1.779310 0.000000 
#    z 0.000000 0.000000 1.811020 
# 
# From -- ./inp_files/560.got.cif
#   From: 2010.05.17/outbox.cif.g08.bks.cpg/sg173_cif.got.tgz:560.got - 2010.05.20 11:21:53.
