data_PCOD9581672
_publ_section_title
;
Structure prediction by ZEFSAII (Michael W. Deem and Ramdas Pophale) SiO2 
 PCOD9581672
Probable space group: P 6/M
;
_chemical_formula_sum "Si O2"
_cell_formula_units_Z 72
_cell_length_a 23.628012
_cell_length_b 23.628012
_cell_length_c 8.664633
_cell_angle_alpha 90.000000
_cell_angle_beta 90.000000
_cell_angle_gamma 120.000000
_cell_volume 4189.239305
_symmetry_space_group_name_H-M "P 6/M"
_symmetry_group_IT_number 175
_symmetry_cell_setting 'hexagonal'
loop_
_space_group_symop_operation_xyz
x,y,z
x-y,x,z
-y,x-y,z
-x,-y,z
-x+y,-x,z
y,-x+y,z
-x,-y,-z
-x+y,-x,-z
y,-x+y,-z
x,y,-z
x-y,x,-z
-y,x-y,-z
loop_
_atom_site_type_symbol
_atom_site_label
_atom_site_fract_x
_atom_site_fract_y
_atom_site_fract_z
Si Si1 0.386919 0.258974 0.684738
Si Si2 0.000000 0.870116 0.811767
Si Si3 0.258974 0.386919 0.684738
Si Si4 0.739117 0.739117 0.814503
Si Si5 0.076306 0.473418 0.814059
Si Si6 0.473418 0.076306 0.185941
O O1 0.383063 0.258342 0.500000
O O2 0.390091 0.195046 0.735002
O O3 0.323279 0.258090 0.753155
O O4 0.448062 0.327067 0.739673
O O5 0.934903 0.869806 0.760062
O O6 0.000000 0.804743 0.765988
O O7 0.000000 0.871127 0.000000
O O8 0.258342 0.383064 0.500000
O O9 0.258090 0.323279 0.753154
O O10 0.327067 0.448063 0.739673
O O11 0.735807 0.735807 0.000000
O O12 0.092278 0.546139 0.771130
O O13 1.000000 0.425051 0.771232
O O14 0.079731 0.470873 0.000000
O O15 0.470873 0.079731 0.000000
#
# Coordination Sequence:
#
# PCOD9581672 Si02
#       6
#    12  12  12  12  12  12
#     4  11  23  36  52  79 114 148 182 221 268 322
#     4   9  17  29  46  68  93 124 167 220 274 323
#     4  11  23  36  52  79 114 148 182 221 268 322
#     4  11  21  34  52  75 104 140 183 229 276 325
#     4   9  18  34  57  84 110 136 172 220 269 316
#     4   9  18  34  57  84 110 136 172 220 269 316
#
# _framework density 17.186890999999999
#
# number of rings (size 3 to 8) (size 9 to 14) (size 15 to 20)
#    0.000    2.000    1.667    3.667    0.000    5.333 
#    0.000    1.667    0.000    0.667    0.000    0.000 
#    0.000    8.000    0.000    0.000    0.000    0.000 
#
# Total GULP energy -401964.375329 kJ/mol
# GULP energy per Si atom -5582.838546 kJ/mol
# Density = 1.714777 g / cm^3
# Si number density = 17.186891 Si / 1000 Ang^3
#
#
#
# Elastic Constant Matrix: (Units=GPa)
#
#
# Indices 1 2 3 4 5 6 
#
# 1 148.0182 94.6810 37.9586 0.0000 0.0000 0.0000
# 2 94.6810 148.0182 37.9586 0.0000 0.0000 0.0000
# 3 37.9586 37.9586 31.3095 0.0000 0.0000 0.0000
# 4 0.0000 0.0000 0.0000 21.6701 0.0000 0.0000
# 5 0.0000 0.0000 0.0000 0.0000 21.6701 0.0000
# 6 0.0000 0.0000 0.0000 0.0000 0.0000 26.6686
#
#
#
# Elastic Compliance Matrix: (Units=1/GPa)
#
#
# Indices 1 2 3 4 5 6 
#
# 1 0.012693 -0.006056 -0.008047 0.000000 0.000000 0.000000
# 2 -0.006056 0.012693 -0.008047 0.000000 0.000000 0.000000
# 3 -0.008047 -0.008047 0.051451 0.000000 0.000000 0.000000
# 4 0.000000 0.000000 0.000000 0.046147 0.000000 0.000000
# 5 0.000000 0.000000 0.000000 0.000000 0.046147 0.000000
# 6 0.000000 0.000000 0.000000 0.000000 0.000000 0.037497
#
#
# Mechanical properties :
#
#
# Convention : Reuss Voigt Hill
#
# Bulk Modulus (GPa) = 30.73344 74.28245 52.50795
# Shear Modulus (GPa) = 19.10052 24.45158 21.77605
#
# Velocity S-wave (km/s) = 3.33730 3.77595 3.56338
# Velocity P-wave (km/s) = 5.72458 7.89459 6.89548
#
# Compressibility (1/GPa) = 0.03253784
#
# Stress axis : x y z
#
# Youngs Moduli (GPa) = 78.78319 78.78319 19.43596
#
# Poissons Ratio (x) = 0.47708 0.15640
# Poissons Ratio (y) = 0.47708 0.15640
# Poissons Ratio (z) = 0.63397 0.63397
#
# Static dielectric constant tensor:
#      x y z
#    x 1.573180 0.000000 0.000000 
#    y 0.000000 1.573180 0.000000 
#    z 0.000000 0.000000 1.582220 
# 
# From -- ./inp_files/1151.got.cif
#   From: 2010.05.17/outbox.cif.g08.bks.cpg/sg175_1_cif.got.tgz:1151.got - 2010.05.20 11:23:22.
