data_PCOD9581136
_publ_section_title
;
Structure prediction by ZEFSAII (Michael W. Deem and Ramdas Pophale) SiO2 
 PCOD9581136
Probable space group: P -6
;
_chemical_formula_sum "Si O2"
_cell_formula_units_Z 42
_cell_length_a 15.933756
_cell_length_b 15.933756
_cell_length_c 14.036843
_cell_angle_alpha 90.000000
_cell_angle_beta 90.000000
_cell_angle_gamma 120.000000
_cell_volume 3086.287635
_symmetry_space_group_name_H-M "P -6"
_symmetry_group_IT_number 174
_symmetry_cell_setting 'hexagonal'
loop_
_space_group_symop_operation_xyz
x,y,z
-x+y,-x,-z
-y,x-y,z
x,y,-z
-x+y,-x,z
-y,x-y,-z
loop_
_atom_site_type_symbol
_atom_site_label
_atom_site_fract_x
_atom_site_fract_y
_atom_site_fract_z
Si Si1 0.114619 0.885190 0.615732
Si Si2 0.778014 0.222142 0.383782
Si Si3 0.441727 0.558304 0.385231
Si Si4 0.461119 0.730563 0.108404
Si Si5 0.223369 0.776605 0.693961
Si Si6 0.891217 0.445688 0.615858
Si Si7 0.221266 0.110541 0.384453
O O1 0.120004 0.879794 0.500000
O O2 0.167785 0.831997 0.660948
O O3 0.001704 0.833151 0.643488
O O4 0.166727 0.998111 0.643488
O O5 0.777930 0.222225 0.500000
O O6 0.666222 0.165315 0.353221
O O7 0.834703 0.333935 0.353223
O O8 0.833824 0.166460 0.352718
O O9 0.439415 0.560624 0.500000
O O10 0.498679 0.667657 0.347105
O O11 0.332370 0.501499 0.347104
O O12 0.498125 0.501735 0.356063
O O13 0.385345 0.770696 0.119211
O O14 0.537704 0.768859 0.192300
O O15 0.497606 0.748807 0.000000
O O16 0.890154 0.445159 0.500000
O O17 0.221720 0.110767 0.500000
#
# Coordination Sequence:
#
# PCOD9581136 Si02
#       7
#     6   6   6   6   6   6   6
#     4  10  19  29  43  60  84 117 159 192 216 252
#     4   9  15  25  37  48  66  96 139 178 209 232
#     4  11  20  27  36  58  93 121 143 164 203 258
#     4   8  15  31  48  62  84 115 147 179 210 256
#     4  12  19  29  42  65  88 121 144 171 220 263
#     4   9  17  26  37  52  72 105 143 178 205 239
#     4   9  17  29  40  53  76 113 152 188 213 232
#
# _framework density 13.608582999999999
#
# number of rings (size 3 to 8) (size 9 to 14) (size 15 to 20)
#    0.286    2.000    1.429    3.857    0.000    6.857 
#    0.000    0.000    0.000    0.000    0.000    1.000 
#    0.000    0.000    0.000    1.286    0.000    0.857 
#
# Total GULP energy -233956.714640 kJ/mol
# GULP energy per Si atom -5570.397968 kJ/mol
# Density = 1.357761 g / cm^3
# Si number density = 13.608583 Si / 1000 Ang^3
#
#
#
# Elastic Constant Matrix: (Units=GPa)
#
#
# Indices 1 2 3 4 5 6 
#
# 1 150.1578 94.2387 28.9711 0.0000 0.0000 0.0000
# 2 94.2387 150.1578 28.9711 0.0000 0.0000 0.0000
# 3 28.9711 28.9711 53.4225 0.0000 0.0000 0.0000
# 4 0.0000 0.0000 0.0000 5.4772 0.0000 0.0000
# 5 0.0000 0.0000 0.0000 0.0000 5.4772 0.0000
# 6 0.0000 0.0000 0.0000 0.0000 0.0000 27.9596
#
#
#
# Elastic Compliance Matrix: (Units=1/GPa)
#
#
# Indices 1 2 3 4 5 6 
#
# 1 0.011289 -0.006594 -0.002546 0.000000 0.000000 0.000000
# 2 -0.006594 0.011289 -0.002546 0.000000 0.000000 0.000000
# 3 -0.002546 -0.002546 0.021480 0.000000 0.000000 0.000000
# 4 0.000000 0.000000 0.000000 0.182576 0.000000 0.000000
# 5 0.000000 0.000000 0.000000 0.000000 0.182576 0.000000
# 6 0.000000 0.000000 0.000000 0.000000 0.000000 0.035766
#
#
# Mechanical properties :
#
#
# Convention : Reuss Voigt Hill
#
# Bulk Modulus (GPa) = 48.34197 73.12222 60.73209
# Shear Modulus (GPa) = 10.52090 21.21994 15.87042
#
# Velocity S-wave (km/s) = 2.78350 3.95309 3.41868
# Velocity P-wave (km/s) = 6.77722 8.64205 7.76581
#
# Compressibility (1/GPa) = 0.02068596
#
# Stress axis : x y z
#
# Youngs Moduli (GPa) = 88.58039 88.58039 46.55394
#
# Poissons Ratio (x) = 0.58408 0.11854
# Poissons Ratio (y) = 0.58408 0.11854
# Poissons Ratio (z) = 0.22555 0.22555
#
# Static dielectric constant tensor:
#      x y z
#    x 1.447840 0.000000 0.000000 
#    y 0.000000 1.447840 0.000000 
#    z 0.000000 0.000000 1.409220 
# 
# From -- ./inp_files/931.got.cif
#   From: 2010.05.17/outbox.cif.g08.bks.cpg/sg174_cif.got.tgz:931.got - 2010.05.20 11:22:48.
