data_PCOD9581708
_publ_section_title
;
Structure prediction by ZEFSAII (Michael W. Deem and Ramdas Pophale) SiO2 
 PCOD9581708
Probable space group: P 6/M
;
_chemical_formula_sum "Si O2"
_cell_formula_units_Z 72
_cell_length_a 24.793627
_cell_length_b 24.793627
_cell_length_c 7.429847
_cell_angle_alpha 90.000000
_cell_angle_beta 90.000000
_cell_angle_gamma 120.000000
_cell_volume 3955.402001
_symmetry_space_group_name_H-M "P 6/M"
_symmetry_group_IT_number 175
_symmetry_cell_setting 'hexagonal'
loop_
_space_group_symop_operation_xyz
x,y,z
x-y,x,z
-y,x-y,z
-x,-y,z
-x+y,-x,z
y,-x+y,z
-x,-y,-z
-x+y,-x,-z
y,-x+y,-z
x,y,-z
x-y,x,-z
-y,x-y,-z
loop_
_atom_site_type_symbol
_atom_site_label
_atom_site_fract_x
_atom_site_fract_y
_atom_site_fract_z
Si Si1 0.142603 0.406042 0.715201
Si Si2 0.260795 0.069795 0.784098
Si Si3 0.930205 0.739205 0.215902
Si Si4 0.736561 0.593958 0.284799
Si Si5 0.403352 0.928120 0.280430
Si Si6 0.071880 0.596648 0.719570
O O1 0.148796 0.414462 0.500000
O O2 0.093774 0.333302 0.747495
O O3 0.209131 0.418262 0.785865
O O4 0.115935 0.449173 0.783752
O O5 0.247884 0.123942 0.715766
O O6 0.333302 0.093774 0.747494
O O7 0.217308 0.000000 0.714910
O O8 0.185950 0.932144 0.000000
O O9 0.814050 0.746194 0.000000
O O10 0.734334 0.585538 0.500000
O O11 0.666762 0.550827 0.216248
O O12 0.402382 0.927416 0.500000
O O13 0.455283 0.910566 0.224887
O O14 0.429657 0.000000 0.227368
O O15 0.072584 0.597618 0.500000
#
# Coordination Sequence:
#
# PCOD9581708 Si02
#       6
#    12  12  12  12  12  12
#     4   9  16  25  39  59  79  98 124 159 193 224
#     4   9  17  28  41  57  78 103 127 152 187 230
#     4   9  17  28  41  57  78 103 127 152 187 230
#     4   9  16  25  39  59  79  98 124 159 193 224
#     4   8  13  21  34  52  73  97 123 149 178 214
#     4   8  13  21  34  52  73  97 123 149 178 214
#
# _framework density 18.202953999999998
#
# number of rings (size 3 to 8) (size 9 to 14) (size 15 to 20)
#    0.000    3.333    0.000    2.000    0.000    2.000 
#    0.000    0.000    0.000    2.000    0.000   11.667 
#    0.000    0.000    0.000    8.333    0.000    8.667 
#
# Total GULP energy -401329.419158 kJ/mol
# GULP energy per Si atom -5574.019711 kJ/mol
# Density = 1.816152 g / cm^3
# Si number density = 18.202954 Si / 1000 Ang^3
#
#
#
# Elastic Constant Matrix: (Units=GPa)
#
#
# Indices 1 2 3 4 5 6 
#
# 1 167.6226 114.9186 5.2650 0.0000 0.0000 0.0000
# 2 114.9186 167.6226 5.2650 0.0000 0.0000 0.0000
# 3 5.2650 5.2650 59.6230 0.0000 0.0000 0.0000
# 4 0.0000 0.0000 0.0000 6.8674 0.0000 0.0000
# 5 0.0000 0.0000 0.0000 0.0000 6.8674 0.0000
# 6 0.0000 0.0000 0.0000 0.0000 0.0000 26.3520
#
#
#
# Elastic Compliance Matrix: (Units=1/GPa)
#
#
# Indices 1 2 3 4 5 6 
#
# 1 0.011262 -0.007711 -0.000314 0.000000 0.000000 0.000000
# 2 -0.007711 0.011262 -0.000314 0.000000 0.000000 0.000000
# 3 -0.000314 -0.000314 0.016827 0.000000 0.000000 0.000000
# 4 0.000000 0.000000 0.000000 0.145615 0.000000 0.000000
# 5 0.000000 0.000000 0.000000 0.000000 0.145615 0.000000
# 6 0.000000 0.000000 0.000000 0.000000 0.000000 0.037948
#
#
# Mechanical properties :
#
#
# Convention : Reuss Voigt Hill
#
# Bulk Modulus (GPa) = 44.10120 71.75172 57.92646
# Shear Modulus (GPa) = 12.73027 25.97869 19.35448
#
# Velocity S-wave (km/s) = 2.64739 3.78189 3.26430
# Velocity P-wave (km/s) = 5.79871 7.65333 6.78964
#
# Compressibility (1/GPa) = 0.02267512
#
# Stress axis : x y z
#
# Youngs Moduli (GPa) = 88.79072 88.79072 59.42683
#
# Poissons Ratio (x) = 0.68470 0.01863
# Poissons Ratio (y) = 0.68470 0.01863
# Poissons Ratio (z) = 0.02784 0.02784
#
# Static dielectric constant tensor:
#      x y z
#    x 1.618630 0.000000 0.000000 
#    y 0.000000 1.618630 0.000000 
#    z 0.000000 0.000000 1.709660 
# 
# From -- ./inp_files/1216.got.cif
#   From: 2010.05.17/outbox.cif.g08.bks.cpg/sg175_1_cif.got.tgz:1216.got - 2010.05.20 11:23:22.
