data_PCOD9581776
_publ_section_title
;
Structure prediction by ZEFSAII (Michael W. Deem and Ramdas Pophale) SiO2 
 PCOD9581776
Probable space group: P 63/M
;
_chemical_formula_sum "Si O2"
_cell_formula_units_Z 46
_cell_length_a 13.985553
_cell_length_b 13.985553
_cell_length_c 12.603484
_cell_angle_alpha 90.000000
_cell_angle_beta 90.000000
_cell_angle_gamma 120.000000
_cell_volume 2134.914726
_symmetry_space_group_name_H-M "P 63/M"
_symmetry_group_IT_number 176
_symmetry_cell_setting 'hexagonal'
loop_
_space_group_symop_operation_xyz
x,y,z
x-y,x,1/2+z
-y,x-y,z
-x,-y,1/2+z
-x+y,-x,z
y,-x+y,1/2+z
-x,-y,-z
-x+y,-x,1/2-z
y,-x+y,-z
x,y,1/2-z
x-y,x,-z
-y,x-y,1/2-z
loop_
_atom_site_type_symbol
_atom_site_label
_atom_site_fract_x
_atom_site_fract_y
_atom_site_fract_z
Si Si1 0.333334 0.666667 0.619272
Si Si2 0.476439 0.915463 0.875290
Si Si3 0.678067 0.677289 0.872953
Si Si4 0.785087 0.690307 0.418637
Si Si5 0.121858 0.127030 0.750000
O O1 0.333334 0.666668 0.750000
O O2 0.393478 0.601143 0.580612
O O3 0.451033 0.906372 0.750000
O O4 0.432925 0.997877 0.909363
O O5 0.599875 0.937739 0.883445
O O6 0.700917 0.666614 0.750000
O O7 0.656112 0.780377 0.886680
O O8 0.773959 0.699574 0.955652
O O9 0.821912 0.801864 0.353822
O O10 0.105624 0.005652 0.750000
#
# Coordination Sequence:
#
# PCOD9581776 Si02
#       5
#     4  12  12  12   6
#     4   9  15  27  60  96 130 161 199 267 324 391
#     4  10  18  37  65 101 131 164 216 276 338 406
#     4  11  25  40  64  98 134 169 227 286 339 408
#     4  12  23  42  69  93 131 178 223 279 341 397
#     4  10  26  46  68  92 132 176 238 280 326 394
#
# _framework density 21.546527999999999
#
# number of rings (size 3 to 8) (size 9 to 14) (size 15 to 20)
#    0.261    1.043    5.217    0.783    3.652    0.000 
#    0.000    1.304    0.000    0.000    0.000    0.000 
#    0.000    0.000    0.000    0.000    0.000    0.000 
#
# Total GULP energy -256761.822834 kJ/mol
# GULP energy per Si atom -5581.778757 kJ/mol
# Density = 2.149749 g / cm^3
# Si number density = 21.546528 Si / 1000 Ang^3
#
#
#
# Elastic Constant Matrix: (Units=GPa)
#
#
# Indices 1 2 3 4 5 6 
#
# 1 75.3290 16.6012 18.8909 0.0000 0.0000 -0.0003
# 2 16.6012 75.3292 18.8907 0.0000 0.0000 -0.0002
# 3 18.8909 18.8907 101.8873 0.0000 0.0000 -0.0001
# 4 0.0000 0.0000 0.0000 28.5143 0.0000 0.0000
# 5 0.0000 0.0000 0.0000 0.0000 28.5143 0.0000
# 6 -0.0003 -0.0002 -0.0001 0.0000 0.0000 29.3640
#
#
#
# Elastic Compliance Matrix: (Units=1/GPa)
#
#
# Indices 1 2 3 4 5 6 
#
# 1 0.014401 -0.002626 -0.002183 0.000000 0.000000 0.000000
# 2 -0.002626 0.014401 -0.002183 0.000000 0.000000 0.000000
# 3 -0.002183 -0.002183 0.010624 0.000000 0.000000 0.000000
# 4 0.000000 0.000000 0.000000 0.035070 0.000000 0.000000
# 5 0.000000 0.000000 0.000000 0.000000 0.035070 0.000000
# 6 0.000000 0.000000 0.000000 0.000000 0.000000 0.034055
#
#
# Mechanical properties :
#
#
# Convention : Reuss Voigt Hill
#
# Bulk Modulus (GPa) = 39.30561 40.14566 39.72563
# Shear Modulus (GPa) = 30.10443 30.48938 30.29691
#
# Velocity S-wave (km/s) = 3.74195 3.76579 3.75389
# Velocity P-wave (km/s) = 6.07876 6.13032 6.10459
#
# Compressibility (1/GPa) = 0.02544166
#
# Stress axis : x y z
#
# Youngs Moduli (GPa) = 69.43776 69.43803 94.12355
#
# Poissons Ratio (x) = 0.18237 0.20549
# Poissons Ratio (y) = 0.18236 0.20549
# Poissons Ratio (z) = 0.15160 0.15160
#
# Static dielectric constant tensor:
#      x y z
#    x 1.804470 0.000000 0.000000 
#    y 0.000000 1.804470 0.000000 
#    z 0.000000 0.000000 1.816930 
# 
# From -- ./inp_files/1686.got.cif
#   From: 2010.05.17/outbox.cif.g08.bks.cpg/sg176_1_cif.got.tgz:1686.got - 2010.06.03 11:36:45.
