data_PCOD9581195
_publ_section_title
;
Structure prediction by ZEFSAII (Michael W. Deem and Ramdas Pophale) SiO2 
 PCOD9581195
Probable space group: P -6
;
_chemical_formula_sum "Si O2"
_cell_formula_units_Z 30
_cell_length_a 8.534958
_cell_length_b 8.534958
_cell_length_c 24.860269
_cell_angle_alpha 90.000000
_cell_angle_beta 90.000000
_cell_angle_gamma 120.000000
_cell_volume 1568.336435
_symmetry_space_group_name_H-M "P -6"
_symmetry_group_IT_number 174
_symmetry_cell_setting 'hexagonal'
loop_
_space_group_symop_operation_xyz
x,y,z
-x+y,-x,-z
-y,x-y,z
x,y,-z
-x+y,-x,z
-y,x-y,-z
loop_
_atom_site_type_symbol
_atom_site_label
_atom_site_fract_x
_atom_site_fract_y
_atom_site_fract_z
Si Si1 0.545746 0.869816 0.881985
Si Si2 0.999083 0.670643 0.336841
Si Si3 0.352353 0.882514 0.500000
Si Si4 0.545499 0.868843 0.000000
Si Si5 0.660657 0.660437 0.617506
Si Si6 0.205615 0.206643 0.782044
O O1 0.341689 0.838158 0.878315
O O2 0.624806 0.944260 0.941504
O O3 0.675608 0.981525 0.833846
O O4 0.863130 0.724999 0.364496
O O5 0.940306 0.468749 0.353572
O O6 0.196221 0.802483 0.360894
O O7 0.001047 0.699864 0.273238
O O8 0.509441 0.827547 0.500000
O O9 0.359637 0.986582 0.553905
O O10 0.341445 0.838621 0.000000
O O11 0.169711 0.001811 0.782454
#
# Coordination Sequence:
#
# PCOD9581195 Si02
#       6
#     6   6   3   3   6   6
#     4   8  16  29  56  83 101 153 203 243 291 356
#     4  12  24  43  61  95 119 170 194 258 310 375
#     4  10  20  42  66  96 116 152 202 250 298 374
#     4   6  10  26  46  78 114 132 194 256 286 340
#     4  12  24  42  68  88 126 154 204 249 316 367
#     4  10  21  36  51  80 127 151 193 252 301 352
#
# _framework density 19.128546
#
# number of rings (size 3 to 8) (size 9 to 14) (size 15 to 20)
#    1.200    0.800    4.000    1.200    2.800    1.600 
#    0.000    1.000    0.000    0.800    0.000    0.000 
#    0.000    0.000    0.000    0.000    0.000    0.000 
#
# Total GULP energy -167036.237361 kJ/mol
# GULP energy per Si atom -5567.874579 kJ/mol
# Density = 1.908501 g / cm^3
# Si number density = 19.128546 Si / 1000 Ang^3
#
#
#
# Elastic Constant Matrix: (Units=GPa)
#
#
# Indices 1 2 3 4 5 6 
#
# 1 37.0820 1.1345 33.2665 0.0000 0.0000 0.0000
# 2 1.1345 37.0820 33.2665 0.0000 0.0000 0.0000
# 3 33.2665 33.2665 219.0856 0.0000 0.0000 0.0000
# 4 0.0000 0.0000 0.0000 159.0506 0.0000 0.0000
# 5 0.0000 0.0000 0.0000 0.0000 159.0506 0.0000
# 6 0.0000 0.0000 0.0000 0.0000 0.0000 17.9738
#
#
#
# Elastic Compliance Matrix: (Units=1/GPa)
#
#
# Indices 1 2 3 4 5 6 
#
# 1 0.031694 0.003876 -0.005401 0.000000 0.000000 0.000000
# 2 0.003876 0.031694 -0.005401 0.000000 0.000000 0.000000
# 3 -0.005401 -0.005401 0.006205 0.000000 0.000000 0.000000
# 4 0.000000 0.000000 0.000000 0.006287 0.000000 0.000000
# 5 0.000000 0.000000 0.000000 0.000000 0.006287 0.000000
# 6 0.000000 0.000000 0.000000 0.000000 0.000000 0.055637
#
#
# Mechanical properties :
#
#
# Convention : Reuss Voigt Hill
#
# Bulk Modulus (GPa) = 17.94051 47.62053 32.78052
# Shear Modulus (GPa) = 29.37096 82.25381 55.81239
#
# Velocity S-wave (km/s) = 3.92274 6.56459 5.40748
# Velocity P-wave (km/s) = 5.46959 9.07786 7.49413
#
# Compressibility (1/GPa) = 0.05573977
#
# Stress axis : x y z
#
# Youngs Moduli (GPa) = 31.55182 31.55182 161.17028
#
# Poissons Ratio (x) = -0.12228 0.87047
# Poissons Ratio (y) = -0.12228 0.87047
# Poissons Ratio (z) = 0.17041 0.17041
#
# Static dielectric constant tensor:
#      x y z
#    x 1.880570 0.000000 0.000000 
#    y 0.000000 1.880570 0.000000 
#    z 0.000000 0.000000 1.649750 
# 
# From -- ./inp_files/1077.got.cif
#   From: 2010.05.17/outbox.cif.g08.bks.cpg/sg174_cif.got.tgz:1077.got - 2010.05.20 11:22:48.
