data_PCOD9581444
_publ_section_title
;
Structure prediction by ZEFSAII (Michael W. Deem and Ramdas Pophale) SiO2 
 PCOD9581444
Probable space group: P 6/M
;
_chemical_formula_sum "Si O2"
_cell_formula_units_Z 90
_cell_length_a 27.150841
_cell_length_b 27.150841
_cell_length_c 8.802878
_cell_angle_alpha 90.000000
_cell_angle_beta 90.000000
_cell_angle_gamma 120.000000
_cell_volume 5619.813297
_symmetry_space_group_name_H-M "P 6/M"
_symmetry_group_IT_number 175
_symmetry_cell_setting 'hexagonal'
loop_
_space_group_symop_operation_xyz
x,y,z
x-y,x,z
-y,x-y,z
-x,-y,z
-x+y,-x,z
y,-x+y,z
-x,-y,-z
-x+y,-x,-z
y,-x+y,-z
x,y,-z
x-y,x,-z
-y,x-y,-z
loop_
_atom_site_type_symbol
_atom_site_label
_atom_site_fract_x
_atom_site_fract_y
_atom_site_fract_z
Si Si1 0.216726 0.662852 0.684129
Si Si2 0.136483 0.058742 0.000000
Si Si3 0.833448 0.572303 0.316577
Si Si4 0.869119 0.750597 0.828946
Si Si5 0.240128 0.934248 0.682504
Si Si6 0.553727 0.331510 0.683960
Si Si7 0.433128 0.154915 0.180496
Si Si8 0.935396 0.253412 0.681036
O O1 0.213517 0.662940 0.500000
O O2 0.212502 0.604371 0.737061
O O3 0.278494 0.716246 0.727539
O O4 0.169490 0.675635 0.751048
O O5 0.103234 0.094197 0.000000
O O6 0.181582 0.079350 0.858741
O O7 0.826574 0.571771 0.500000
O O8 0.891771 0.628394 0.276631
O O9 0.824170 0.510692 0.272412
O O10 0.782194 0.576722 0.241427
O O11 0.912792 0.733343 0.760242
O O12 0.812102 0.721355 0.731127
O O13 0.853129 0.725855 0.000000
O O14 0.232158 0.931319 0.500000
O O15 0.284260 0.998582 0.723896
O O16 0.556352 0.333794 0.500000
O O17 0.379077 0.098034 0.240231
O O18 0.435631 0.155739 0.000000
O O19 0.929652 0.255540 0.500000
#
# Coordination Sequence:
#
# PCOD9581444 Si02
#       8
#    12   6  12  12  12  12  12  12
#     4   9  16  29  49  73 101 133 170 212 255 307
#     4  10  21  36  54  76 106 142 176 210 250 304
#     4   9  17  32  51  74 101 129 163 209 257 310
#     4  10  21  33  52  76 106 130 164 209 256 303
#     4  10  20  33  53  77 103 133 165 207 260 309
#     4   8  14  25  47  73  97 127 165 205 251 300
#     4  11  21  32  47  72 100 135 170 208 256 308
#     4  11  21  34  52  75 102 134 169 208 257 308
#
# _framework density 16.014766999999999
#
# number of rings (size 3 to 8) (size 9 to 14) (size 15 to 20)
#    0.400    1.867    1.333    3.933    0.000    1.600 
#    0.000    2.667    0.000    0.800    0.000    5.600 
#    0.000    6.400    0.000    0.000    0.000    0.000 
#
# Total GULP energy -501494.234777 kJ/mol
# GULP energy per Si atom -5572.158164 kJ/mol
# Density = 1.597832 g / cm^3
# Si number density = 16.014767 Si / 1000 Ang^3
#
#
#
# Elastic Constant Matrix: (Units=GPa)
#
#
# Indices 1 2 3 4 5 6 
#
# 1 84.5836 28.6893 21.9676 0.0000 0.0000 0.0000
# 2 28.6893 84.5836 21.9676 0.0000 0.0000 0.0000
# 3 21.9676 21.9676 26.4398 0.0000 0.0000 0.0000
# 4 0.0000 0.0000 0.0000 9.2035 0.0000 0.0000
# 5 0.0000 0.0000 0.0000 0.0000 9.2035 0.0000
# 6 0.0000 0.0000 0.0000 0.0000 0.0000 27.9472
#
#
#
# Elastic Compliance Matrix: (Units=1/GPa)
#
#
# Indices 1 2 3 4 5 6 
#
# 1 0.015458 -0.002432 -0.010823 0.000000 0.000000 0.000000
# 2 -0.002432 0.015458 -0.010823 0.000000 0.000000 0.000000
# 3 -0.010823 -0.010823 0.055806 0.000000 0.000000 0.000000
# 4 0.000000 0.000000 0.000000 0.108655 0.000000 0.000000
# 5 0.000000 0.000000 0.000000 0.000000 0.108655 0.000000
# 6 0.000000 0.000000 0.000000 0.000000 0.000000 0.035782
#
#
# Mechanical properties :
#
#
# Convention : Reuss Voigt Hill
#
# Bulk Modulus (GPa) = 25.92882 37.87290 31.90086
# Shear Modulus (GPa) = 12.47426 17.46966 14.97196
#
# Velocity S-wave (km/s) = 2.79395 3.30638 3.06091
# Velocity P-wave (km/s) = 5.16080 6.18678 5.69694
#
# Compressibility (1/GPa) = 0.03856712
#
# Stress axis : x y z
#
# Youngs Moduli (GPa) = 64.68940 64.68940 17.91921
#
# Poissons Ratio (x) = 0.15735 0.19394
# Poissons Ratio (y) = 0.15735 0.19394
# Poissons Ratio (z) = 0.70012 0.70012
#
# Static dielectric constant tensor:
#      x y z
#    x 1.532460 0.000000 0.000000 
#    y 0.000000 1.532460 0.000000 
#    z 0.000000 0.000000 1.540610 
# 
# From -- ./inp_files/1451.got.cif
#   From: 2010.05.17/outbox.cif.g08.bks.cpg/sg175_1_cif.got.tgz:1451.got - 2010.05.20 11:23:22.
