data_PCOD9581942
_publ_section_title
;
Structure prediction by ZEFSAII (Michael W. Deem and Ramdas Pophale) SiO2 
 PCOD9581942
Probable space group: P 63/M
;
_chemical_formula_sum "Si O2"
_cell_formula_units_Z 72
_cell_length_a 14.899197
_cell_length_b 14.899197
_cell_length_c 19.342591
_cell_angle_alpha 90.000000
_cell_angle_beta 90.000000
_cell_angle_gamma 120.000000
_cell_volume 3718.527567
_symmetry_space_group_name_H-M "P 63/M"
_symmetry_group_IT_number 176
_symmetry_cell_setting 'hexagonal'
loop_
_space_group_symop_operation_xyz
x,y,z
x-y,x,1/2+z
-y,x-y,z
-x,-y,1/2+z
-x+y,-x,z
y,-x+y,1/2+z
-x,-y,-z
-x+y,-x,1/2-z
y,-x+y,-z
x,y,1/2-z
x-y,x,-z
-y,x-y,1/2-z
loop_
_atom_site_type_symbol
_atom_site_label
_atom_site_fract_x
_atom_site_fract_y
_atom_site_fract_z
Si Si1 0.126269 0.517709 0.967583
Si Si2 0.421554 0.159956 0.434558
Si Si3 0.654005 0.012686 0.827976
Si Si4 0.427827 0.512514 0.396350
Si Si5 0.122456 0.783576 0.332002
Si Si6 0.228058 0.067424 0.529680
O O1 0.182116 0.462922 0.932114
O O2 0.155055 0.628713 0.938333
O O3 0.006723 0.442065 0.948246
O O4 0.150861 0.544155 0.049251
O O5 0.343983 0.117108 0.499133
O O6 0.356423 0.079928 0.375008
O O7 0.645627 0.979033 0.750000
O O8 0.563137 0.038176 0.844952
O O9 0.762327 0.117852 0.837942
O O10 0.320154 0.444099 0.356953
O O11 0.091913 0.773114 0.250000
O O12 0.058258 0.811758 0.388171
O O13 0.191455 0.149413 0.506914
#
# Coordination Sequence:
#
# PCOD9581942 Si02
#       6
#    12  12  12  12  12  12
#     4  10  21  34  61  94 126 162 218 265 332 397
#     4  11  21  39  63  94 133 170 219 276 333 411
#     4  10  22  40  61  91 132 176 217 276 346 403
#     4  10  20  37  59  92 124 166 216 273 327 403
#     4  11  22  41  65  94 131 175 224 283 352 411
#     4  12  24  43  67  97 129 180 234 291 348 411
#
# _framework density 19.362503
#
# number of rings (size 3 to 8) (size 9 to 14) (size 15 to 20)
#    0.000    1.333    3.333    3.000    2.333    0.000 
#    1.000    7.500    0.000    0.000    0.000    0.000 
#    0.000    0.000    0.000    0.000    0.000    0.000 
#
# Total GULP energy -400994.677295 kJ/mol
# GULP energy per Si atom -5569.370518 kJ/mol
# Density = 1.931843 g / cm^3
# Si number density = 19.362503 Si / 1000 Ang^3
#
#
#
# Elastic Constant Matrix: (Units=GPa)
#
#
# Indices 1 2 3 4 5 6 
#
# 1 82.5814 23.2040 30.0326 0.0000 0.0000 0.0000
# 2 23.2040 82.5814 30.0326 0.0000 0.0000 0.0000
# 3 30.0326 30.0326 119.7484 0.0000 0.0000 0.0000
# 4 0.0000 0.0000 0.0000 22.6404 0.0000 0.0000
# 5 0.0000 0.0000 0.0000 0.0000 22.6404 0.0000
# 6 0.0000 0.0000 0.0000 0.0000 0.0000 29.6887
#
#
#
# Elastic Compliance Matrix: (Units=1/GPa)
#
#
# Indices 1 2 3 4 5 6 
#
# 1 0.013932 -0.002909 -0.002764 0.000000 0.000000 0.000000
# 2 -0.002909 0.013932 -0.002764 0.000000 0.000000 0.000000
# 3 -0.002764 -0.002764 0.009737 0.000000 0.000000 0.000000
# 4 0.000000 0.000000 0.000000 0.044169 0.000000 0.000000
# 5 0.000000 0.000000 0.000000 0.000000 0.044169 0.000000
# 6 0.000000 0.000000 0.000000 0.000000 0.000000 0.033683
#
#
# Mechanical properties :
#
#
# Convention : Reuss Voigt Hill
#
# Bulk Modulus (GPa) = 48.25062 50.16104 49.20583
# Shear Modulus (GPa) = 27.26175 28.43670 27.84923
#
# Velocity S-wave (km/s) = 3.75636 3.83645 3.79662
# Velocity P-wave (km/s) = 6.61720 6.75182 6.68485
#
# Compressibility (1/GPa) = 0.02072512
#
# Stress axis : x y z
#
# Youngs Moduli (GPa) = 71.77670 71.77670 102.69580
#
# Poissons Ratio (x) = 0.20882 0.28390
# Poissons Ratio (y) = 0.20882 0.28390
# Poissons Ratio (z) = 0.19843 0.19843
#
# Static dielectric constant tensor:
#      x y z
#    x 1.718240 0.000000 0.000000 
#    y 0.000000 1.718240 0.000000 
#    z 0.000000 0.000000 1.750760 
# 
# From -- ./inp_files/3379.got.cif
#   From: 2010.05.17/outbox.cif.g08.bks.cpg/sg176_2_cif.got.tgz:3379.got - 2010.06.03 11:36:45.
