data_PCOD9581323
_publ_section_title
;
Structure prediction by ZEFSAII (Michael W. Deem and Ramdas Pophale) SiO2 
 PCOD9581323
Probable space group: P 6/M
;
_chemical_formula_sum "Si O2"
_cell_formula_units_Z 84
_cell_length_a 14.212556
_cell_length_b 14.212556
_cell_length_c 26.602567
_cell_angle_alpha 90.000000
_cell_angle_beta 90.000000
_cell_angle_gamma 120.000000
_cell_volume 4653.701843
_symmetry_space_group_name_H-M "P 6/M"
_symmetry_group_IT_number 175
_symmetry_cell_setting 'hexagonal'
loop_
_space_group_symop_operation_xyz
x,y,z
x-y,x,z
-y,x-y,z
-x,-y,z
-x+y,-x,z
y,-x+y,z
-x,-y,-z
-x+y,-x,-z
y,-x+y,-z
x,y,-z
x-y,x,-z
-y,x-y,-z
loop_
_atom_site_type_symbol
_atom_site_label
_atom_site_fract_x
_atom_site_fract_y
_atom_site_fract_z
Si Si1 0.462919 0.588957 0.405285
Si Si2 0.535767 0.410047 0.710112
Si Si3 0.831314 0.744773 0.053944
Si Si4 0.254882 0.080856 0.351724
Si Si5 0.742676 0.912423 0.834948
Si Si6 0.764734 0.584473 0.556891
Si Si7 0.413893 0.176838 0.257919
O O1 0.500000 0.500000 0.403950
O O2 0.454917 0.619756 0.347638
O O3 0.346201 0.527448 0.431344
O O4 0.551127 0.695145 0.433841
O O5 0.500000 0.500000 0.708552
O O6 0.652274 0.471754 0.736499
O O7 0.446182 0.302195 0.737247
O O8 0.799451 0.838311 0.053787
O O9 0.796267 0.691631 0.108875
O O10 0.791514 0.684593 0.000000
O O11 0.205525 0.161280 0.349390
O O12 0.325555 0.106770 0.402401
O O13 0.338217 0.111924 0.305344
O O14 0.796664 0.835580 0.829939
O O15 0.652859 0.877830 0.792049
O O16 0.765066 0.619237 0.500000
#
# Coordination Sequence:
#
# PCOD9581323 Si02
#       7
#    12  12  12  12  12  12  12
#     4  11  22  40  61  81 105 134 170 215 268 319
#     4  11  21  37  59  80 102 133 170 212 268 324
#     4   8  13  22  39  67 106 151 194 230 264 305
#     4  12  25  42  61  82 111 147 183 216 256 315
#     4  10  19  31  50  80 118 157 191 224 264 315
#     4  12  25  40  62  88 112 138 172 217 270 325
#     4  12  23  38  59  82 109 138 176 227 276 328
#
# _framework density 18.050146000000002
#
# number of rings (size 3 to 8) (size 9 to 14) (size 15 to 20)
#    0.000    1.143    2.857    4.857    0.000    4.571 
#    0.000    1.429    0.000    0.857    0.000    1.000 
#    0.000    5.714    0.000    0.000    0.000    0.000 
#
# Total GULP energy -469125.293448 kJ/mol
# GULP energy per Si atom -5584.824922 kJ/mol
# Density = 1.800906 g / cm^3
# Si number density = 18.050146 Si / 1000 Ang^3
#
#
#
# Elastic Constant Matrix: (Units=GPa)
#
#
# Indices 1 2 3 4 5 6 
#
# 1 33.2214 14.5061 19.3229 0.0000 0.0000 0.0000
# 2 14.5061 33.2214 19.3229 0.0000 0.0000 0.0000
# 3 19.3229 19.3229 149.1784 0.0000 0.0000 0.0000
# 4 0.0000 0.0000 0.0000 2999.3044 0.0015 0.0000
# 5 0.0000 0.0000 0.0000 0.0015 2999.3019 0.0000
# 6 0.0000 0.0000 0.0000 0.0000 0.0000 9.3577
#
#
#
# Elastic Compliance Matrix: (Units=1/GPa)
#
#
# Indices 1 2 3 4 5 6 
#
# 1 0.038420 -0.015012 -0.003032 0.000000 0.000000 0.000000
# 2 -0.015012 0.038420 -0.003032 0.000000 0.000000 0.000000
# 3 -0.003032 -0.003032 0.007489 0.000000 0.000000 0.000000
# 4 0.000000 0.000000 0.000000 0.000333 0.000000 0.000000
# 5 0.000000 0.000000 0.000000 0.000000 0.000333 0.000000
# 6 0.000000 0.000000 0.000000 0.000000 0.000000 0.106864
#
#
# Mechanical properties :
#
#
# Convention : Reuss Voigt Hill
#
# Bulk Modulus (GPa) = 23.71032 35.76943 29.73988
# Shear Modulus (GPa) = 20.15560 1212.42410 616.28985
#
# Velocity S-wave (km/s) = 3.34525 25.94525 18.49793
# Velocity P-wave (km/s) = 5.29955 30.28863 21.74266
#
# Compressibility (1/GPa) = 0.04217573
#
# Stress axis : x y z
#
# Youngs Moduli (GPa) = 26.02834 26.02834 133.53227
#
# Poissons Ratio (x) = 0.39075 0.40486
# Poissons Ratio (y) = 0.39075 0.40486
# Poissons Ratio (z) = 0.07892 0.07892
#
# Static dielectric constant tensor:
#      x y z
#    x 1.648200 0.000000 0.000000 
#    y 0.000000 1.648200 0.000000 
#    z 0.000000 0.000000 1.645730 
# 
# From -- ./inp_files/3239.got.cif
#   From: 2010.05.17/outbox.cif.g08.bks.cpg/sg175_2_cif.got.tgz:3239.got - 2010.05.20 11:23:22.
