data_PCOD9581129
_publ_section_title
;
Structure prediction by ZEFSAII (Michael W. Deem and Ramdas Pophale) SiO2 
 PCOD9581129
Probable space group: P -6
;
_chemical_formula_sum "Si O2"
_cell_formula_units_Z 32
_cell_length_a 9.146865
_cell_length_b 9.146865
_cell_length_c 17.580698
_cell_angle_alpha 90.000000
_cell_angle_beta 90.000000
_cell_angle_gamma 120.000000
_cell_volume 1273.829446
_symmetry_space_group_name_H-M "P -6"
_symmetry_group_IT_number 174
_symmetry_cell_setting 'hexagonal'
loop_
_space_group_symop_operation_xyz
x,y,z
-x+y,-x,-z
-y,x-y,z
x,y,-z
-x+y,-x,z
-y,x-y,-z
loop_
_atom_site_type_symbol
_atom_site_label
_atom_site_fract_x
_atom_site_fract_y
_atom_site_fract_z
Si Si1 0.742706 0.551914 0.911075
Si Si2 0.025717 0.601504 0.289294
Si Si3 0.797239 0.170190 0.413323
Si Si4 0.333334 0.666668 0.910738
Si Si5 0.179826 0.384060 0.584454
Si Si6 0.645547 0.744755 0.811350
O O1 0.548996 0.394022 0.899178
O O2 0.775188 0.702445 0.854899
O O3 0.759859 0.599681 0.000000
O O4 0.161944 0.672309 0.357278
O O5 0.045184 0.465007 0.241476
O O6 0.092742 0.774243 0.238949
O O7 0.855045 0.543262 0.337131
O O8 0.743137 0.187920 0.500000
O O9 0.985683 0.317114 0.400460
O O10 0.781586 0.986069 0.415691
O O11 0.519425 0.737266 0.877027
O O12 0.333334 0.666668 0.000000
O O13 0.216363 0.451774 0.500000
#
# Coordination Sequence:
#
# PCOD9581129 Si02
#       6
#     6   6   6   2   6   6
#     4   8  17  33  51  66  82 119 162 186 207 253
#     4   9  19  28  43  69  95 123 138 179 237 264
#     4   8  14  27  44  64  86 114 156 188 217 258
#     4   9  18  30  51  72  91 122 142 171 225 279
#     4   8  14  27  44  64  86 114 156 188 217 258
#     4  10  18  31  45  69 102 114 142 184 225 278
#
# _framework density 25.121105
#
# number of rings (size 3 to 8) (size 9 to 14) (size 15 to 20)
#    1.500    1.875    0.000    1.312    0.000    3.000 
#    0.000    3.750    0.000    0.000    0.000    0.000 
#    0.000    0.000    0.000    0.000    0.000    0.000 
#
# Total GULP energy -178242.334071 kJ/mol
# GULP energy per Si atom -5570.072940 kJ/mol
# Density = 2.506393 g / cm^3
# Si number density = 25.121105 Si / 1000 Ang^3
#
#
#
# Elastic Constant Matrix: (Units=GPa)
#
#
# Indices 1 2 3 4 5 6 
#
# 1 79.4320 31.0477 41.2856 0.0000 0.0000 -0.0001
# 2 31.0477 79.4316 41.2856 0.0000 0.0000 0.0000
# 3 41.2856 41.2856 172.2145 0.0000 0.0000 -0.0001
# 4 0.0000 0.0000 0.0000 10.2442 -0.0001 0.0000
# 5 0.0000 0.0000 0.0000 -0.0001 10.2443 0.0000
# 6 -0.0001 0.0000 -0.0001 0.0000 0.0000 24.1921
#
#
#
# Elastic Compliance Matrix: (Units=1/GPa)
#
#
# Indices 1 2 3 4 5 6 
#
# 1 0.015848 -0.004820 -0.002644 0.000000 0.000000 0.000000
# 2 -0.004820 0.015848 -0.002644 0.000000 0.000000 0.000000
# 3 -0.002644 -0.002644 0.007074 0.000000 0.000000 0.000000
# 4 0.000000 0.000000 0.000000 0.097616 0.000001 0.000000
# 5 0.000000 0.000000 0.000000 0.000001 0.097615 0.000000
# 6 0.000000 0.000000 0.000000 0.000000 0.000000 0.041336
#
#
# Mechanical properties :
#
#
# Convention : Reuss Voigt Hill
#
# Bulk Modulus (GPa) = 53.89577 62.03510 57.96544
# Shear Modulus (GPa) = 16.57078 23.43342 20.00210
#
# Velocity S-wave (km/s) = 2.57112 3.05752 2.82481
# Velocity P-wave (km/s) = 5.50592 6.10021 5.81067
#
# Compressibility (1/GPa) = 0.01855433
#
# Stress axis : x y z
#
# Youngs Moduli (GPa) = 63.10125 63.10086 141.35807
#
# Poissons Ratio (x) = 0.30417 0.37369
# Poissons Ratio (y) = 0.30417 0.37370
# Poissons Ratio (z) = 0.16681 0.16681
#
# Static dielectric constant tensor:
#      x y z
#    x 1.998660 0.000000 0.000000 
#    y 0.000000 1.998660 0.000000 
#    z 0.000000 0.000000 2.019640 
# 
# From -- ./inp_files/976.got.cif
#   From: 2010.05.17/outbox.cif.g08.bks.cpg/sg174_cif.got.tgz:976.got - 2010.05.20 11:22:48.
