data_PCOD9581769
_publ_section_title
;
Structure prediction by ZEFSAII (Michael W. Deem and Ramdas Pophale) SiO2 
 PCOD9581769
Probable space group: P 63/M
;
_chemical_formula_sum "Si O2"
_cell_formula_units_Z 42
_cell_length_a 12.462330
_cell_length_b 12.462330
_cell_length_c 13.042567
_cell_angle_alpha 90.000000
_cell_angle_beta 90.000000
_cell_angle_gamma 120.000000
_cell_volume 1754.252897
_symmetry_space_group_name_H-M "P 63/M"
_symmetry_group_IT_number 176
_symmetry_cell_setting 'hexagonal'
loop_
_space_group_symop_operation_xyz
x,y,z
x-y,x,1/2+z
-y,x-y,z
-x,-y,1/2+z
-x+y,-x,z
y,-x+y,1/2+z
-x,-y,-z
-x+y,-x,1/2-z
y,-x+y,-z
x,y,1/2-z
x-y,x,-z
-y,x-y,1/2-z
loop_
_atom_site_type_symbol
_atom_site_label
_atom_site_fract_x
_atom_site_fract_y
_atom_site_fract_z
Si Si1 0.570460 0.179318 0.422433
Si Si2 0.845692 0.964580 0.250000
Si Si3 0.099348 0.495382 0.131283
Si Si4 0.903665 0.745720 0.949874
O O1 0.716793 0.251332 0.394649
O O2 0.494491 0.047432 0.371241
O O3 0.557185 0.160787 0.546362
O O4 0.768495 0.929419 0.351507
O O5 0.903718 0.872357 0.250000
O O6 0.142365 0.519156 0.250000
O O7 0.110957 0.385862 0.075937
O O8 0.836721 0.784513 0.036591
#
# Coordination Sequence:
#
# PCOD9581769 Si02
#       4
#    12   6  12  12
#     4   9  22  46  64  86 126 169 200 260 328 365
#     4  10  18  34  50  86 120 178 204 238 316 372
#     4  11  23  38  66  97 119 158 222 263 307 384
#     4  12  21  35  59  90 134 172 208 265 318 378
#
# _framework density 23.941815999999999
#
# number of rings (size 3 to 8) (size 9 to 14) (size 15 to 20)
#    0.857    0.571    4.286    2.000    0.000    2.286 
#    0.000    0.000    6.286    0.000    0.000    0.000 
#    0.000    0.000    0.000    0.000    0.000    0.000 
#
# Total GULP energy -233971.294404 kJ/mol
# GULP energy per Si atom -5570.745105 kJ/mol
# Density = 2.388732 g / cm^3
# Si number density = 23.941816 Si / 1000 Ang^3
#
#
#
# Elastic Constant Matrix: (Units=GPa)
#
#
# Indices 1 2 3 4 5 6 
#
# 1 57.2946 17.8627 -1.5910 0.0000 0.0000 0.0000
# 2 17.8627 57.2946 -1.5910 0.0000 0.0000 0.0000
# 3 -1.5910 -1.5910 103.2116 0.0000 0.0000 0.0000
# 4 0.0000 0.0000 0.0000 9.0271 0.0000 0.0000
# 5 0.0000 0.0000 0.0000 0.0000 9.0271 0.0000
# 6 0.0000 0.0000 0.0000 0.0000 0.0000 19.7160
#
#
#
# Elastic Compliance Matrix: (Units=1/GPa)
#
#
# Indices 1 2 3 4 5 6 
#
# 1 0.019337 -0.006023 0.000205 0.000000 0.000000 0.000000
# 2 -0.006023 0.019337 0.000205 0.000000 0.000000 0.000000
# 3 0.000205 0.000205 0.009695 0.000000 0.000000 0.000000
# 4 0.000000 0.000000 0.000000 0.110777 0.000000 0.000000
# 5 0.000000 0.000000 0.000000 0.000000 0.110777 0.000000
# 6 0.000000 0.000000 0.000000 0.000000 0.000000 0.050720
#
#
# Mechanical properties :
#
#
# Convention : Reuss Voigt Hill
#
# Bulk Modulus (GPa) = 26.92201 27.46248 27.19224
# Shear Modulus (GPa) = 14.52429 21.09538 17.80983
#
# Velocity S-wave (km/s) = 2.46570 2.97157 2.73037
# Velocity P-wave (km/s) = 4.40175 4.82380 4.61760
#
# Compressibility (1/GPa) = 0.03714433
#
# Stress axis : x y z
#
# Youngs Moduli (GPa) = 51.71393 51.71393 103.14427
#
# Poissons Ratio (x) = 0.31147 -0.02117
# Poissons Ratio (y) = 0.31147 -0.02117
# Poissons Ratio (z) = -0.01061 -0.01061
#
# Static dielectric constant tensor:
#      x y z
#    x 1.941790 0.000000 0.000000 
#    y 0.000000 1.941790 0.000000 
#    z 0.000000 0.000000 1.959370 
# 
# From -- ./inp_files/1624.got.cif
#   From: 2010.05.17/outbox.cif.g08.bks.cpg/sg176_1_cif.got.tgz:1624.got - 2010.06.03 11:36:45.
