data_PCOD9581727
_publ_section_title
;
Structure prediction by ZEFSAII (Michael W. Deem and Ramdas Pophale) SiO2 
 PCOD9581727
Probable space group: P 6/M
;
_chemical_formula_sum "Si O2"
_cell_formula_units_Z 60
_cell_length_a 15.000000
_cell_length_b 15.000000
_cell_length_c 15.000000
_cell_angle_alpha 90.000000
_cell_angle_beta 90.000000
_cell_angle_gamma 120.000000
_cell_volume 2922.835738
_symmetry_space_group_name_H-M "P 6/M"
_symmetry_group_IT_number 175
_symmetry_cell_setting 'hexagonal'
loop_
_space_group_symop_operation_xyz
x,y,z
x-y,x,z
-y,x-y,z
-x,-y,z
-x+y,-x,z
y,-x+y,z
-x,-y,-z
-x+y,-x,-z
y,-x+y,-z
x,y,-z
x-y,x,-z
-y,x-y,-z
loop_
_atom_site_type_symbol
_atom_site_label
_atom_site_fract_x
_atom_site_fract_y
_atom_site_fract_z
Si Si1 0.321606 0.544442 0.250000
Si Si2 0.564087 0.942076 0.396450
Si Si3 0.212772 0.205299 0.142222
Si Si4 0.794701 0.007473 0.357778
Si Si5 0.057924 0.622011 0.103550
O O1 0.424755 0.657821 0.250000
O O2 0.321757 0.480450 0.334867
O O3 0.321757 0.480450 0.165133
O O4 0.542153 0.914569 0.500000
O O5 0.688322 0.004017 0.384727
O O6 0.500000 0.000000 0.371485
O O7 0.209418 0.099371 0.113301
O O8 0.211609 0.203575 0.250000
O O9 0.315695 0.311678 0.115273
O O10 0.790582 0.900629 0.386699
O O11 0.000000 0.500000 0.128515
O O12 0.085431 0.627584 0.000000
#
# Coordination Sequence:
#
# PCOD9581727 Si02
#       5
#    12  12  12  12  12
#     4  10  25  42  68  92 127 175 220 275 332 387
#     4  11  25  42  66  97 133 173 220 272 334 399
#     4  10  22  40  68  98 134 175 222 275 332 396
#     4  10  22  40  68  98 134 175 222 275 332 396
#     4  11  25  42  66  97 133 173 220 272 334 399
#
# _framework density 20.528009999999998
#
# number of rings (size 3 to 8) (size 9 to 14) (size 15 to 20)
#    0.400    1.200    2.000    1.000    5.600    4.800 
#    0.000    0.000    0.000    2.400    0.000    0.000 
#    0.000    0.000    0.000    0.000    0.000    0.000 
#
# Total GULP energy -335182.904406 kJ/mol
# GULP energy per Si atom -5586.381740 kJ/mol
# Density = 2.048129 g / cm^3
# Si number density = 20.528010 Si / 1000 Ang^3
#
#
#
# Elastic Constant Matrix: (Units=GPa)
#
#
# Indices 1 2 3 4 5 6 
#
# 1 130.6740 36.7169 9.6536 0.0000 0.0000 0.0000
# 2 36.7169 130.6740 9.6536 0.0000 0.0000 0.0000
# 3 9.6536 9.6536 83.6851 0.0000 0.0000 0.0000
# 4 0.0000 0.0000 0.0000 -3.7523 0.0000 0.0000
# 5 0.0000 0.0000 0.0000 0.0000 -3.7523 0.0000
# 6 0.0000 0.0000 0.0000 0.0000 0.0000 46.9786
#
#
#
# Elastic Compliance Matrix: (Units=1/GPa)
#
#
# Indices 1 2 3 4 5 6 
#
# 1 0.008349 -0.002294 -0.000698 0.000000 0.000000 0.000000
# 2 -0.002294 0.008349 -0.000698 0.000000 0.000000 0.000000
# 3 -0.000698 -0.000698 0.012111 0.000000 0.000000 0.000000
# 4 0.000000 0.000000 0.000000 -0.266504 0.000000 0.000000
# 5 0.000000 0.000000 0.000000 0.000000 -0.266504 0.000000
# 6 0.000000 0.000000 0.000000 0.000000 0.000000 0.021286
#
#
# Mechanical properties :
#
#
# Convention : Reuss Voigt Hill
#
# Bulk Modulus (GPa) = 46.67192 50.78681 48.72936
# Shear Modulus (GPa) = -10.67487 27.16207 8.24360
#
# Velocity S-wave (km/s) = -2.28286 3.64149 2.00612
# Velocity P-wave (km/s) = 3.97951 6.51725 5.39959
#
# Compressibility (1/GPa) = 0.02142616
#
# Stress axis : x y z
#
# Youngs Moduli (GPa) = 119.77663 119.77663 82.57160
#
# Poissons Ratio (x) = 0.27480 0.05767
# Poissons Ratio (y) = 0.27480 0.05767
# Poissons Ratio (z) = 0.08366 0.08366
#
# Static dielectric constant tensor:
#      x y z
#    x 1.732570 0.000000 0.000000 
#    y 0.000000 1.732570 0.000000 
#    z 0.000000 0.000000 1.727580 
# 
# From -- ./inp_files/2366.got.cif
#   From: 2010.05.17/outbox.ucp.g08.bks.cvg/sg175_2_cif.got.tgz:2366.got - 2010.06.11 15:18:44.
