data_PCOD9581724
_publ_section_title
;
Structure prediction by ZEFSAII (Michael W. Deem and Ramdas Pophale) SiO2 
 PCOD9581724
Probable space group: P 6/M
;
_chemical_formula_sum "Si O2"
_cell_formula_units_Z 84
_cell_length_a 18.000000
_cell_length_b 18.000000
_cell_length_c 15.000000
_cell_angle_alpha 90.000000
_cell_angle_beta 90.000000
_cell_angle_gamma 120.000000
_cell_volume 4208.883462
_symmetry_space_group_name_H-M "P 6/M"
_symmetry_group_IT_number 175
_symmetry_cell_setting 'hexagonal'
loop_
_space_group_symop_operation_xyz
x,y,z
x-y,x,z
-y,x-y,z
-x,-y,z
-x+y,-x,z
y,-x+y,z
-x,-y,-z
-x+y,-x,-z
y,-x+y,-z
x,y,-z
x-y,x,-z
-y,x-y,-z
loop_
_atom_site_type_symbol
_atom_site_label
_atom_site_fract_x
_atom_site_fract_y
_atom_site_fract_z
Si Si1 0.727833 0.073740 0.903275
Si Si2 0.327090 0.496864 0.239968
Si Si3 0.379442 0.276005 0.600545
Si Si4 0.095386 0.206957 0.664005
Si Si5 0.161386 0.498850 0.770290
Si Si6 0.399771 0.455591 0.602792
Si Si7 0.898778 0.206861 0.166238
O O1 0.677774 0.097361 0.831320
O O2 0.822880 0.154778 0.902313
O O3 0.734663 0.992036 0.874852
O O4 0.687272 0.059227 0.000000
O O5 0.260572 0.527532 0.213354
O O6 0.422337 0.568579 0.212198
O O7 0.344602 0.487212 0.343519
O O8 0.281224 0.399086 0.205377
O O9 0.410825 0.280925 0.500000
O O10 0.296348 0.182005 0.615635
O O11 0.455154 0.306784 0.672550
O O12 0.356509 0.352431 0.610065
O O13 0.144869 0.152637 0.647391
O O14 0.136124 0.247424 0.761090
O O15 0.500000 0.500000 0.634846
O O16 0.404821 0.478728 0.500000
#
# Coordination Sequence:
#
# PCOD9581724 Si02
#       7
#    12  12  12  12  12  12  12
#     4  11  23  42  66  98 133 169 213 270 334 401
#     4  11  22  38  63  89 126 171 216 271 326 391
#     4  11  23  40  63  94 132 173 220 274 333 399
#     4  12  23  43  67  97 132 174 223 278 337 400
#     4  11  23  41  61  92 130 171 221 269 335 396
#     4  10  20  35  59  90 124 167 218 268 320 383
#     4  11  22  40  67  96 127 168 217 267 333 399
#
# _framework density 19.957787
#
# number of rings (size 3 to 8) (size 9 to 14) (size 15 to 20)
#    0.000    1.000    5.714    2.571    0.000    1.143 
#    0.000    4.286    0.000    2.571    0.000    2.000 
#    0.000    0.000    0.000    0.000    0.000    0.000 
#
# Total GULP energy -467862.851324 kJ/mol
# GULP energy per Si atom -5569.795849 kJ/mol
# Density = 1.991236 g / cm^3
# Si number density = 19.957787 Si / 1000 Ang^3
#
#
#
# Elastic Constant Matrix: (Units=GPa)
#
#
# Indices 1 2 3 4 5 6 
#
# 1 81.8171 15.9518 12.0601 0.0000 0.0000 0.0000
# 2 15.9518 81.8171 12.0601 0.0000 0.0000 0.0000
# 3 12.0601 12.0601 68.9625 0.0000 0.0000 0.0000
# 4 0.0000 0.0000 0.0000 -10.9209 0.0000 0.0000
# 5 0.0000 0.0000 0.0000 0.0000 -10.9209 0.0000
# 6 0.0000 0.0000 0.0000 0.0000 0.0000 32.9326
#
#
#
# Elastic Compliance Matrix: (Units=1/GPa)
#
#
# Indices 1 2 3 4 5 6 
#
# 1 0.012936 -0.002247 -0.001869 0.000000 0.000000 0.000000
# 2 -0.002247 0.012936 -0.001869 0.000000 0.000000 0.000000
# 3 -0.001869 -0.001869 0.015154 0.000000 0.000000 0.000000
# 4 0.000000 0.000000 0.000000 -0.091567 0.000000 0.000000
# 5 0.000000 0.000000 0.000000 0.000000 -0.091567 0.000000
# 6 0.000000 0.000000 0.000000 0.000000 0.000000 0.030365
#
#
# Mechanical properties :
#
#
# Convention : Reuss Voigt Hill
#
# Bulk Modulus (GPa) = 34.41650 34.74895 34.58272
# Shear Modulus (GPa) = -55.50148 15.05314 -20.22417
#
# Velocity S-wave (km/s) = -5.27919 2.74934 -3.18677
# Velocity P-wave (km/s) = 4.45844 5.24667 1.95574
#
# Compressibility (1/GPa) = 0.02905583
#
# Stress axis : x y z
#
# Youngs Moduli (GPa) = 77.30399 77.30399 65.98718
#
# Poissons Ratio (x) = 0.17367 0.12335
# Poissons Ratio (y) = 0.17367 0.12335
# Poissons Ratio (z) = 0.14451 0.14451
#
# Static dielectric constant tensor:
#      x y z
#    x 1.738900 0.000000 0.000000 
#    y 0.000000 1.738900 0.000000 
#    z 0.000000 0.000000 1.749270 
# 
# From -- ./inp_files/2625.got.cif
#   From: 2010.05.17/outbox.ucp.g08.bks.cvg/sg175_2_cif.got.tgz:2625.got - 2010.06.11 15:18:44.
