data_PCOD9581983
_publ_section_title
;
Structure prediction by ZEFSAII (Michael W. Deem and Ramdas Pophale) SiO2 
 PCOD9581983
Probable space group: P 63/M
;
_chemical_formula_sum "Si O2"
_cell_formula_units_Z 36
_cell_length_a 8.953264
_cell_length_b 8.953264
_cell_length_c 29.538720
_cell_angle_alpha 90.000000
_cell_angle_beta 90.000000
_cell_angle_gamma 120.000000
_cell_volume 2050.619509
_symmetry_space_group_name_H-M "P 63/M"
_symmetry_group_IT_number 176
_symmetry_cell_setting 'hexagonal'
loop_
_space_group_symop_operation_xyz
x,y,z
x-y,x,1/2+z
-y,x-y,z
-x,-y,1/2+z
-x+y,-x,z
y,-x+y,1/2+z
-x,-y,-z
-x+y,-x,1/2-z
y,-x+y,-z
x,y,1/2-z
x-y,x,-z
-y,x-y,1/2-z
loop_
_atom_site_type_symbol
_atom_site_label
_atom_site_fract_x
_atom_site_fract_y
_atom_site_fract_z
Si Si1 0.988271 0.662629 0.018055
Si Si2 0.852308 0.538833 0.117134
Si Si3 0.791412 0.819307 0.698220
O O1 0.940242 0.634923 0.070968
O O2 0.835071 0.669487 0.991869
O O3 0.000000 0.500000 0.000000
O O4 0.649744 0.485127 0.117388
O O5 0.943721 0.653300 0.160724
O O6 0.732503 0.768984 0.750000
O O7 0.976486 0.829049 0.692902
#
# Coordination Sequence:
#
# PCOD9581983 Si02
#       3
#    12  12  12
#     4  12  24  42  60  88 125 165 208 262 315 375
#     4  10  21  36  55  88 118 152 202 248 307 365
#     4   8  18  35  57  83 112 149 198 250 295 357
#
# _framework density 17.555669999999999
#
# number of rings (size 3 to 8) (size 9 to 14) (size 15 to 20)
#    1.333    0.667    3.333    1.000    4.667    1.333 
#    0.000    0.000    0.000    1.333    0.000    0.000 
#    0.000    0.000    0.000    0.000    0.000    0.000 
#
# Total GULP energy -200475.777558 kJ/mol
# GULP energy per Si atom -5568.771599 kJ/mol
# Density = 1.751571 g / cm^3
# Si number density = 17.555670 Si / 1000 Ang^3
#
#
#
# Elastic Constant Matrix: (Units=GPa)
#
#
# Indices 1 2 3 4 5 6 
#
# 1 86.4651 44.5652 53.2467 0.0000 0.0000 0.0000
# 2 44.5652 86.4651 53.2467 0.0000 0.0000 0.0000
# 3 53.2467 53.2467 171.2051 0.0000 0.0000 0.0000
# 4 0.0000 0.0000 0.0000 27.8358 0.0000 0.0000
# 5 0.0000 0.0000 0.0000 0.0000 27.8358 0.0000
# 6 0.0000 0.0000 0.0000 0.0000 0.0000 20.9499
#
#
#
# Elastic Compliance Matrix: (Units=1/GPa)
#
#
# Indices 1 2 3 4 5 6 
#
# 1 0.017040 -0.006826 -0.003177 0.000000 0.000000 0.000000
# 2 -0.006826 0.017040 -0.003177 0.000000 0.000000 0.000000
# 3 -0.003177 -0.003177 0.007817 0.000000 0.000000 0.000000
# 4 0.000000 0.000000 0.000000 0.035925 0.000000 0.000000
# 5 0.000000 0.000000 0.000000 0.000000 0.035925 0.000000
# 6 0.000000 0.000000 0.000000 0.000000 0.000000 0.047733
#
#
# Mechanical properties :
#
#
# Convention : Reuss Voigt Hill
#
# Bulk Modulus (GPa) = 64.35936 71.80583 68.08259
# Shear Modulus (GPa) = 25.90435 28.19607 27.05021
#
# Velocity S-wave (km/s) = 3.84546 4.01196 3.92959
# Velocity P-wave (km/s) = 7.51375 7.90264 7.71065
#
# Compressibility (1/GPa) = 0.01553776
#
# Stress axis : x y z
#
# Youngs Moduli (GPa) = 58.68559 58.68559 127.92939
#
# Poissons Ratio (x) = 0.40061 0.40637
# Poissons Ratio (y) = 0.40061 0.40637
# Poissons Ratio (z) = 0.18642 0.18642
#
# Static dielectric constant tensor:
#      x y z
#    x 1.596580 0.000000 0.000000 
#    y 0.000000 1.596580 0.000000 
#    z 0.000000 0.000000 1.571160 
# 
# From -- ./inp_files/4170.got.cif
#   From: 2010.05.17/outbox.cif.g08.bks.cpg/sg176_3_cif.got.tgz:4170.got - 2010.06.03 11:36:45.
