data_PCOD9581818
_publ_section_title
;
Structure prediction by ZEFSAII (Michael W. Deem and Ramdas Pophale) SiO2 
 PCOD9581818
Probable space group: P 63/M
;
_chemical_formula_sum "Si O2"
_cell_formula_units_Z 48
_cell_length_a 12.308812
_cell_length_b 12.308812
_cell_length_c 13.105968
_cell_angle_alpha 90.000000
_cell_angle_beta 90.000000
_cell_angle_gamma 120.000000
_cell_volume 1719.618117
_symmetry_space_group_name_H-M "P 63/M"
_symmetry_group_IT_number 176
_symmetry_cell_setting 'hexagonal'
loop_
_space_group_symop_operation_xyz
x,y,z
x-y,x,1/2+z
-y,x-y,z
-x,-y,1/2+z
-x+y,-x,z
y,-x+y,1/2+z
-x,-y,-z
-x+y,-x,1/2-z
y,-x+y,-z
x,y,1/2-z
x-y,x,-z
-y,x-y,1/2-z
loop_
_atom_site_type_symbol
_atom_site_label
_atom_site_fract_x
_atom_site_fract_y
_atom_site_fract_z
Si Si1 0.109465 0.513533 0.359322
Si Si2 0.178028 0.611392 0.583674
Si Si3 0.712665 0.866713 0.401532
Si Si4 0.270992 0.125588 0.137225
O O1 0.146680 0.579762 0.250000
O O2 0.163143 0.595404 0.460959
O O3 0.145606 0.404891 0.361092
O O4 0.958561 0.444196 0.371104
O O5 0.248732 0.534570 0.614521
O O6 0.130511 0.812571 0.521086
O O7 0.752856 0.757220 0.638651
O O8 0.831425 0.848084 0.376406
O O9 0.320299 0.120700 0.250000
#
# Coordination Sequence:
#
# PCOD9581818 Si02
#       4
#    12  12  12  12
#     4  11  23  43  69  99 131 174 227 290 356 419
#     4   9  24  46  70  96 132 173 228 288 350 419
#     4  10  22  35  55  90 132 174 232 275 324 413
#     4  10  19  32  52  80 125 175 213 262 323 384
#
# _framework density 27.913173
#
# number of rings (size 3 to 8) (size 9 to 14) (size 15 to 20)
#    0.500    1.500    0.000    2.750    7.000    4.000 
#    0.000    5.000    0.000    0.000    0.000    0.000 
#    0.000    0.000    0.000    0.000    0.000    0.000 
#
# Total GULP energy -268361.958431 kJ/mol
# GULP energy per Si atom -5590.874134 kJ/mol
# Density = 2.784964 g / cm^3
# Si number density = 27.913173 Si / 1000 Ang^3
#
#
#
# Elastic Constant Matrix: (Units=GPa)
#
#
# Indices 1 2 3 4 5 6 
#
# 1 116.4636 41.0707 23.3402 0.0000 0.0000 0.0000
# 2 41.0707 116.4636 23.3402 0.0000 0.0000 0.0000
# 3 23.3402 23.3402 234.4297 0.0000 0.0000 0.0000
# 4 0.0000 0.0000 0.0000 1.4521 0.0000 0.0000
# 5 0.0000 0.0000 0.0000 0.0000 1.4521 0.0000
# 6 0.0000 0.0000 0.0000 0.0000 0.0000 37.6964
#
#
#
# Elastic Compliance Matrix: (Units=1/GPa)
#
#
# Indices 1 2 3 4 5 6 
#
# 1 0.009902 -0.003362 -0.000651 0.000000 0.000000 0.000000
# 2 -0.003362 0.009902 -0.000651 0.000000 0.000000 0.000000
# 3 -0.000651 -0.000651 0.004395 0.000000 0.000000 0.000000
# 4 0.000000 0.000000 0.000000 0.688635 0.000000 0.000000
# 5 0.000000 0.000000 0.000000 0.000000 0.688635 0.000000
# 6 0.000000 0.000000 0.000000 0.000000 0.000000 0.026528
#
#
# Mechanical properties :
#
#
# Convention : Reuss Voigt Hill
#
# Bulk Modulus (GPa) = 67.24012 71.42881 69.33446
# Shear Modulus (GPa) = 3.46672 33.42720 18.44696
#
# Velocity S-wave (km/s) = 1.11564 3.46431 2.57353
# Velocity P-wave (km/s) = 5.07946 6.45346 5.80724
#
# Compressibility (1/GPa) = 0.01487207
#
# Stress axis : x y z
#
# Youngs Moduli (GPa) = 100.98643 100.98643 227.51357
#
# Poissons Ratio (x) = 0.33947 0.14816
# Poissons Ratio (y) = 0.33947 0.14816
# Poissons Ratio (z) = 0.06576 0.06576
#
# Static dielectric constant tensor:
#      x y z
#    x 2.218750 0.000000 0.000000 
#    y 0.000000 2.218750 0.000000 
#    z 0.000000 0.000000 2.087870 
# 
# From -- ./inp_files/2475.got.cif
#   From: 2010.05.17/outbox.cif.g08.bks.cpg/sg176_2_cif.got.tgz:2475.got - 2010.06.03 11:36:45.
