data_PCOD9581732
_publ_section_title
;
Structure prediction by ZEFSAII (Michael W. Deem and Ramdas Pophale) SiO2 
 PCOD9581732
Probable space group: P 63/M
;
_chemical_formula_sum "Si O2"
_cell_formula_units_Z 48
_cell_length_a 25.385467
_cell_length_b 25.385467
_cell_length_c 5.454755
_cell_angle_alpha 90.000000
_cell_angle_beta 90.000000
_cell_angle_gamma 120.000000
_cell_volume 3044.221124
_symmetry_space_group_name_H-M "P 63/M"
_symmetry_group_IT_number 176
_symmetry_cell_setting 'hexagonal'
loop_
_space_group_symop_operation_xyz
x,y,z
x-y,x,1/2+z
-y,x-y,z
-x,-y,1/2+z
-x+y,-x,z
y,-x+y,1/2+z
-x,-y,-z
-x+y,-x,1/2-z
y,-x+y,-z
x,y,1/2-z
x-y,x,-z
-y,x-y,1/2-z
loop_
_atom_site_type_symbol
_atom_site_label
_atom_site_fract_x
_atom_site_fract_y
_atom_site_fract_z
Si Si1 0.556502 0.375697 0.750000
Si Si2 0.745434 0.166293 0.750000
Si Si3 0.570089 0.504616 0.750000
Si Si4 0.216737 0.766784 0.750000
Si Si5 0.648824 0.206548 0.250000
Si Si6 0.615089 0.654104 0.250000
Si Si7 0.600531 0.061918 0.250000
Si Si8 0.558251 0.911631 0.750000
O O1 0.489557 0.314896 0.750000
O O2 0.546423 0.433353 0.750000
O O3 0.590941 0.374645 0.506096
O O4 0.779184 0.197367 0.499269
O O5 0.722602 0.094692 0.750000
O O6 0.523121 0.530411 0.750000
O O7 0.609285 0.529333 0.500790
O O8 0.278468 0.762563 0.750000
O O9 0.155280 0.703471 0.750000
O O10 0.619909 0.132391 0.250000
O O11 0.577699 0.628172 0.503712
O O12 0.661431 0.628375 0.250000
#
# Coordination Sequence:
#
# PCOD9581732 Si02
#       8
#     6   6   6   6   6   6   6   6
#     4  10  18  28  42  63  84 108 132 160 195 247
#     4  10  17  30  48  64  81 105 141 166 193 235
#     4  10  21  30  41  60  94 110 125 156 212 256
#     4  10  18  30  47  61  80 107 141 164 193 238
#     4  10  17  28  44  62  80 100 143 164 184 228
#     4  10  16  30  42  61  87 110 130 163 203 235
#     4  10  16  28  40  60  84 114 128 154 193 242
#     4  10  21  32  42  61  90 112 130 161 209 251
#
# _framework density 15.767578
#
# number of rings (size 3 to 8) (size 9 to 14) (size 15 to 20)
#    0.000    2.000    5.000    1.500    0.000    1.000 
#    0.000    0.000    0.000    0.000    0.000    0.000 
#  200.000    0.000    0.000    0.000    0.000    0.000 
#
# Total GULP energy -267552.255721 kJ/mol
# GULP energy per Si atom -5574.005328 kJ/mol
# Density = 1.573169 g / cm^3
# Si number density = 15.767578 Si / 1000 Ang^3
#
#
#
# Elastic Constant Matrix: (Units=GPa)
#
#
# Indices 1 2 3 4 5 6 
#
# 1 53.0853 15.1157 27.2044 0.0000 0.0000 0.0000
# 2 15.1157 53.0853 27.2044 0.0000 0.0000 0.0000
# 3 27.2044 27.2044 149.6463 0.0000 0.0000 0.0000
# 4 0.0000 0.0000 0.0000 14.6808 0.0000 0.0000
# 5 0.0000 0.0000 0.0000 0.0000 14.6808 0.0000
# 6 0.0000 0.0000 0.0000 0.0000 0.0000 18.9848
#
#
#
# Elastic Compliance Matrix: (Units=1/GPa)
#
#
# Indices 1 2 3 4 5 6 
#
# 1 0.021743 -0.004594 -0.003118 0.000000 0.000000 0.000000
# 2 -0.004594 0.021743 -0.003118 0.000000 0.000000 0.000000
# 3 -0.003118 -0.003118 0.007816 0.000000 0.000000 0.000000
# 4 0.000000 0.000000 0.000000 0.068116 0.000000 0.000000
# 5 0.000000 0.000000 0.000000 0.000000 0.068116 0.000000
# 6 0.000000 0.000000 0.000000 0.000000 0.000000 0.052674
#
#
# Mechanical properties :
#
#
# Convention : Reuss Voigt Hill
#
# Bulk Modulus (GPa) = 33.73279 43.87398 38.80339
# Shear Modulus (GPa) = 18.39942 22.08879 20.24411
#
# Velocity S-wave (km/s) = 3.41972 3.74692 3.58705
# Velocity P-wave (km/s) = 6.08546 6.82679 6.46676
#
# Compressibility (1/GPa) = 0.02964475
#
# Stress axis : x y z
#
# Youngs Moduli (GPa) = 45.99121 45.99121 127.94341
#
# Poissons Ratio (x) = 0.21126 0.39889
# Poissons Ratio (y) = 0.21126 0.39889
# Poissons Ratio (z) = 0.14339 0.14339
#
# Static dielectric constant tensor:
#      x y z
#    x 1.530690 0.000000 0.000000 
#    y 0.000000 1.530690 0.000000 
#    z 0.000000 0.000000 1.646930 
# 
# From -- ./inp_files/181.got.cif
#   From: 2010.05.17/outbox.cif.g08.bks.cpg/sg176_1_cif.got.tgz:181.got - 2010.06.03 11:36:45.
