data_PCOD9581263
_publ_section_title
;
Structure prediction by ZEFSAII (Michael W. Deem and Ramdas Pophale) SiO2 
 PCOD9581263
Probable space group: P 6/M
;
_chemical_formula_sum "Si O2"
_cell_formula_units_Z 78
_cell_length_a 25.456950
_cell_length_b 25.456950
_cell_length_c 8.086976
_cell_angle_alpha 90.000000
_cell_angle_beta 90.000000
_cell_angle_gamma 120.000000
_cell_volume 4538.679595
_symmetry_space_group_name_H-M "P 6/M"
_symmetry_group_IT_number 175
_symmetry_cell_setting 'hexagonal'
loop_
_space_group_symop_operation_xyz
x,y,z
x-y,x,z
-y,x-y,z
-x,-y,z
-x+y,-x,z
y,-x+y,z
-x,-y,-z
-x+y,-x,-z
y,-x+y,-z
x,y,-z
x-y,x,-z
-y,x-y,-z
loop_
_atom_site_type_symbol
_atom_site_label
_atom_site_fract_x
_atom_site_fract_y
_atom_site_fract_z
Si Si1 0.350805 0.919719 0.695853
Si Si2 0.536902 0.467168 0.196483
Si Si3 0.983105 0.866197 0.500000
Si Si4 0.903515 0.222910 0.690827
Si Si5 0.209505 0.198662 0.190066
Si Si6 0.779862 0.122467 0.809481
Si Si7 0.059691 0.643632 0.300674
O O1 0.342948 0.920227 0.500000
O O2 0.399378 0.898421 0.733448
O O3 0.284882 0.884056 0.774685
O O4 0.381958 0.989573 0.757432
O O5 0.500000 0.500000 0.262604
O O6 0.606146 0.514679 0.240370
O O7 0.530685 0.462595 0.000000
O O8 0.927590 0.879359 0.500000
O O9 0.979551 0.828421 0.334265
O O10 0.924708 0.231152 0.500000
O O11 0.944486 0.201951 0.789054
O O12 0.833738 0.172537 0.701352
O O13 0.912762 0.287044 0.751855
O O14 0.280819 0.222155 0.218491
O O15 0.194398 0.175655 0.000000
O O16 0.796612 0.139179 0.000000
O O17 0.059873 0.641966 0.500000
#
# Coordination Sequence:
#
# PCOD9581263 Si02
#       7
#    12  12   6  12  12  12  12
#     4  10  18  31  50  72 102 139 178 215 256 307
#     4   9  17  28  45  69 101 138 172 206 249 300
#     4  12  27  46  68  86 108 137 182 238 292 352
#     4  11  21  35  56  80 109 144 183 227 277 334
#     4  11  24  41  61  85 112 145 182 226 285 356
#     4  11  23  35  52  79 111 143 181 227 278 335
#     4   9  18  31  48  72 101 136 176 213 253 307
#
# _framework density 17.185614999999999
#
# number of rings (size 3 to 8) (size 9 to 14) (size 15 to 20)
#    0.000    1.692    2.308    2.846    2.154    5.538 
#    0.000    0.000    0.000    0.923    0.000    0.000 
#    1.538    0.000    2.769    0.000    2.769    0.000 
#
# Total GULP energy -435201.430075 kJ/mol
# GULP energy per Si atom -5579.505514 kJ/mol
# Density = 1.714650 g / cm^3
# Si number density = 17.185615 Si / 1000 Ang^3
#
#
#
# Elastic Constant Matrix: (Units=GPa)
#
#
# Indices 1 2 3 4 5 6 
#
# 1 39.4442 0.5595 13.5485 0.0000 0.0000 0.0000
# 2 0.5595 39.4442 13.5485 0.0000 0.0000 0.0000
# 3 13.5485 13.5485 64.3179 0.0000 0.0000 0.0000
# 4 0.0000 0.0000 0.0000 20.4785 0.0000 0.0000
# 5 0.0000 0.0000 0.0000 0.0000 20.4785 0.0000
# 6 0.0000 0.0000 0.0000 0.0000 0.0000 19.4424
#
#
#
# Elastic Compliance Matrix: (Units=1/GPa)
#
#
# Indices 1 2 3 4 5 6 
#
# 1 0.027438 0.001721 -0.006142 0.000000 0.000000 0.000000
# 2 0.001721 0.027438 -0.006142 0.000000 0.000000 0.000000
# 3 -0.006142 -0.006142 0.018135 0.000000 0.000000 0.000000
# 4 0.000000 0.000000 0.000000 0.048832 0.000000 0.000000
# 5 0.000000 0.000000 0.000000 0.000000 0.048832 0.000000
# 6 0.000000 0.000000 0.000000 0.000000 0.000000 0.051434
#
#
# Mechanical properties :
#
#
# Convention : Reuss Voigt Hill
#
# Bulk Modulus (GPa) = 19.27408 22.05772 20.66590
# Shear Modulus (GPa) = 19.19166 19.78320 19.48743
#
# Velocity S-wave (km/s) = 3.34537 3.39654 3.37105
# Velocity P-wave (km/s) = 5.11484 5.31459 5.21567
#
# Compressibility (1/GPa) = 0.05188314
#
# Stress axis : x y z
#
# Youngs Moduli (GPa) = 36.44637 36.44637 55.14061
#
# Poissons Ratio (x) = -0.06271 0.33868
# Poissons Ratio (y) = -0.06271 0.33868
# Poissons Ratio (z) = 0.22386 0.22386
#
# Static dielectric constant tensor:
#      x y z
#    x 1.582260 0.000000 0.000000 
#    y 0.000000 1.582260 0.000000 
#    z 0.000000 0.000000 1.601320 
# 
# From -- ./inp_files/1290.got.cif
#   From: 2010.05.17/outbox.cif.g08.bks.cpg/sg175_1_cif.got.tgz:1290.got - 2010.05.20 11:23:22.
