data_PCOD9581205
_publ_section_title
;
Structure prediction by ZEFSAII (Michael W. Deem and Ramdas Pophale) SiO2 
 PCOD9581205
Probable space group: P -6
;
_chemical_formula_sum "Si O2"
_cell_formula_units_Z 26
_cell_length_a 9.960893
_cell_length_b 9.960893
_cell_length_c 14.278081
_cell_angle_alpha 90.000000
_cell_angle_beta 90.000000
_cell_angle_gamma 120.000000
_cell_volume 1226.865695
_symmetry_space_group_name_H-M "P -6"
_symmetry_group_IT_number 174
_symmetry_cell_setting 'hexagonal'
loop_
_space_group_symop_operation_xyz
x,y,z
-x+y,-x,-z
-y,x-y,z
x,y,-z
-x+y,-x,z
-y,x-y,-z
loop_
_atom_site_type_symbol
_atom_site_label
_atom_site_fract_x
_atom_site_fract_y
_atom_site_fract_z
Si Si1 0.844653 0.508301 0.398199
Si Si2 0.074913 0.749786 0.103733
Si Si3 0.411187 0.012160 0.893223
Si Si4 0.000000 0.000000 0.386428
Si Si5 0.275946 0.148581 0.744157
O O1 0.667233 0.477550 0.394009
O O2 0.911783 0.574159 0.500000
O O3 0.923703 0.614733 0.311292
O O4 0.259997 0.841385 0.109780
O O5 0.003231 0.566126 0.116145
O O6 0.006783 0.815339 0.180274
O O7 0.034528 0.777791 0.000000
O O8 0.378683 0.100647 0.809190
O O9 0.416094 0.074090 0.000000
O O10 0.000000 0.000000 0.500000
O O11 0.875678 0.836049 0.338502
#
# Coordination Sequence:
#
# PCOD9581205 Si02
#       5
#     6   6   6   2   6
#     4   8  17  33  55  82 104 138 188 239 291 338
#     4  10  21  37  58  85 117 151 191 234 285 352
#     4  10  21  37  58  85 117 151 191 234 285 352
#     4  12  27  39  55  86 118 156 204 255 295 341
#     4  12  20  38  56  86 114 158 190 238 294 351
#
# _framework density 21.192212999999999
#
# number of rings (size 3 to 8) (size 9 to 14) (size 15 to 20)
#    0.462    1.385    2.308    3.231    0.000    1.846 
#    1.385    0.000    0.000    0.000    0.000    0.000 
#    0.000    0.000    0.000    0.000    0.000    0.000 
#
# Total GULP energy -144759.074235 kJ/mol
# GULP energy per Si atom -5567.656701 kJ/mol
# Density = 2.114398 g / cm^3
# Si number density = 21.192213 Si / 1000 Ang^3
#
#
#
# Elastic Constant Matrix: (Units=GPa)
#
#
# Indices 1 2 3 4 5 6 
#
# 1 41.6910 -7.3351 31.0023 0.0000 0.0000 0.0000
# 2 -7.3351 41.6910 31.0023 0.0000 0.0000 0.0000
# 3 31.0023 31.0023 194.4118 0.0000 0.0000 0.0000
# 4 0.0000 0.0000 0.0000 24.7109 0.0000 0.0000
# 5 0.0000 0.0000 0.0000 0.0000 24.7109 0.0000
# 6 0.0000 0.0000 0.0000 0.0000 0.0000 24.5130
#
#
#
# Elastic Compliance Matrix: (Units=1/GPa)
#
#
# Indices 1 2 3 4 5 6 
#
# 1 0.030633 0.010236 -0.006517 0.000000 0.000000 0.000000
# 2 0.010236 0.030633 -0.006517 0.000000 0.000000 0.000000
# 3 -0.006517 -0.006517 0.007222 0.000000 0.000000 0.000000
# 4 0.000000 0.000000 0.000000 0.040468 0.000000 0.000000
# 5 0.000000 0.000000 0.000000 0.000000 0.040468 0.000000
# 6 0.000000 0.000000 0.000000 0.000000 0.000000 0.040795
#
#
# Mechanical properties :
#
#
# Convention : Reuss Voigt Hill
#
# Bulk Modulus (GPa) = 15.90031 43.01474 29.45753
# Shear Modulus (GPa) = 23.06476 29.66190 26.36333
#
# Velocity S-wave (km/s) = 3.30261 3.74526 3.53088
# Velocity P-wave (km/s) = 4.69704 6.24853 5.52749
#
# Compressibility (1/GPa) = 0.06289186
#
# Stress axis : x y z
#
# Youngs Moduli (GPa) = 32.64414 32.64414 138.45964
#
# Poissons Ratio (x) = -0.33415 0.90239
# Poissons Ratio (y) = -0.33415 0.90239
# Poissons Ratio (z) = 0.21275 0.21275
#
# Static dielectric constant tensor:
#      x y z
#    x 1.791890 0.000000 0.000000 
#    y 0.000000 1.791890 0.000000 
#    z 0.000000 0.000000 1.801160 
# 
# From -- ./inp_files/669.got.cif
#   From: 2010.05.17/outbox.cif.g08.bks.cpg/sg174_cif.got.tgz:669.got - 2010.05.20 11:22:48.
