data_PCOD9581864
_publ_section_title
;
Structure prediction by ZEFSAII (Michael W. Deem and Ramdas Pophale) SiO2 
 PCOD9581864
Probable space group: P 63/M
;
_chemical_formula_sum "Si O2"
_cell_formula_units_Z 96
_cell_length_a 23.816877
_cell_length_b 23.816877
_cell_length_c 10.370389
_cell_angle_alpha 90.000000
_cell_angle_beta 90.000000
_cell_angle_gamma 120.000000
_cell_volume 5094.426568
_symmetry_space_group_name_H-M "P 63/M"
_symmetry_group_IT_number 176
_symmetry_cell_setting 'hexagonal'
loop_
_space_group_symop_operation_xyz
x,y,z
x-y,x,1/2+z
-y,x-y,z
-x,-y,1/2+z
-x+y,-x,z
y,-x+y,1/2+z
-x,-y,-z
-x+y,-x,1/2-z
y,-x+y,-z
x,y,1/2-z
x-y,x,-z
-y,x-y,1/2-z
loop_
_atom_site_type_symbol
_atom_site_label
_atom_site_fract_x
_atom_site_fract_y
_atom_site_fract_z
Si Si1 0.875409 0.316901 0.113413
Si Si2 0.947852 0.500356 0.598395
Si Si3 0.367094 0.342343 0.604601
Si Si4 0.616998 0.430650 0.520661
Si Si5 0.758034 0.462803 0.603721
Si Si6 0.767484 0.992268 0.905038
Si Si7 0.120091 0.867871 0.101073
Si Si8 0.401141 0.187826 0.604886
O O1 0.856163 0.281401 0.250000
O O2 0.952557 0.357819 0.110123
O O3 0.840236 0.358834 0.096645
O O4 0.854645 0.267290 0.997454
O O5 0.968261 0.510700 0.750000
O O6 0.880346 0.432789 0.591903
O O7 0.000000 0.500000 0.500000
O O8 0.936519 0.559558 0.553776
O O9 0.369304 0.319662 0.750000
O O10 0.298507 0.285735 0.550974
O O11 0.683729 0.445744 0.589897
O O12 0.576997 0.353332 0.505433
O O13 0.768083 0.446534 0.750000
O O14 0.800220 0.540040 0.585991
O O15 0.756074 0.975934 0.750000
O O16 0.838755 0.055034 0.918488
O O17 0.761184 0.934436 0.995172
O O18 0.095160 0.854468 0.250000
O O19 0.173395 0.844674 0.092802
O O20 0.408896 0.169312 0.750000
#
# Coordination Sequence:
#
# PCOD9581864 Si02
#       8
#    12  12  12  12  12  12  12  12
#     4  10  19  36  59  81 112 154 197 242 298 367
#     4  11  22  36  56  82 111 147 190 242 303 363
#     4   9  18  34  55  82 113 153 193 234 291 364
#     4  11  22  36  56  83 111 150 199 255 304 358
#     4  10  20  34  52  78 110 146 192 248 308 360
#     4  10  21  38  63  90 125 167 202 237 295 358
#     4  10  21  37  59  93 129 160 201 250 288 345
#     4   9  19  34  55  85 116 147 192 251 301 345
#
# _framework density 18.844123
#
# number of rings (size 3 to 8) (size 9 to 14) (size 15 to 20)
#    0.000    2.000    2.500    1.375    1.750    1.500 
#    0.000    3.125    0.000    0.250    0.000    0.000 
#    0.000    0.000    0.000    0.000    0.000    0.000 
#
# Total GULP energy -534482.145875 kJ/mol
# GULP energy per Si atom -5567.522353 kJ/mol
# Density = 1.880123 g / cm^3
# Si number density = 18.844123 Si / 1000 Ang^3
#
#
#
# Elastic Constant Matrix: (Units=GPa)
#
#
# Indices 1 2 3 4 5 6 
#
# 1 93.1562 39.7978 44.5516 0.0000 0.0000 0.0000
# 2 39.7978 93.1562 44.5516 0.0000 0.0000 0.0000
# 3 44.5516 44.5516 75.3295 0.0000 0.0000 0.0000
# 4 0.0000 0.0000 0.0000 21.9927 0.0000 0.0000
# 5 0.0000 0.0000 0.0000 0.0000 21.9927 0.0000
# 6 0.0000 0.0000 0.0000 0.0000 0.0000 26.6792
#
#
#
# Elastic Compliance Matrix: (Units=1/GPa)
#
#
# Indices 1 2 3 4 5 6 
#
# 1 0.015601 -0.003141 -0.007369 0.000000 0.000000 0.000000
# 2 -0.003141 0.015601 -0.007369 0.000000 0.000000 0.000000
# 3 -0.007369 -0.007369 0.021992 0.000000 0.000000 0.000000
# 4 0.000000 0.000000 0.000000 0.045470 0.000000 0.000000
# 5 0.000000 0.000000 0.000000 0.000000 0.045470 0.000000
# 6 0.000000 0.000000 0.000000 0.000000 0.000000 0.037482
#
#
# Mechanical properties :
#
#
# Convention : Reuss Voigt Hill
#
# Bulk Modulus (GPa) = 57.35568 57.71598 57.53583
# Shear Modulus (GPa) = 22.40304 22.98232 22.69268
#
# Velocity S-wave (km/s) = 3.45173 3.49607 3.47397
# Velocity P-wave (km/s) = 6.81094 6.85502 6.83301
#
# Compressibility (1/GPa) = 0.01743506
#
# Stress axis : x y z
#
# Youngs Moduli (GPa) = 64.09991 64.09991 45.47182
#
# Poissons Ratio (x) = 0.20131 0.33509
# Poissons Ratio (y) = 0.20131 0.33509
# Poissons Ratio (z) = 0.47236 0.47236
#
# Static dielectric constant tensor:
#      x y z
#    x 1.693400 0.000000 0.000000 
#    y 0.000000 1.693400 0.000000 
#    z 0.000000 0.000000 1.650480 
# 
# From -- ./inp_files/2179.got.cif
#   From: 2010.05.17/outbox.cif.g08.bks.cpg/sg176_2_cif.got.tgz:2179.got - 2010.06.03 11:36:45.
