data_PCOD9581251
_publ_section_title
;
Structure prediction by ZEFSAII (Michael W. Deem and Ramdas Pophale) SiO2 
 PCOD9581251
Probable space group: P 6/M
;
_chemical_formula_sum "Si O2"
_cell_formula_units_Z 90
_cell_length_a 26.478643
_cell_length_b 26.478643
_cell_length_c 9.429326
_cell_angle_alpha 90.000000
_cell_angle_beta 90.000000
_cell_angle_gamma 120.000000
_cell_volume 5725.359098
_symmetry_space_group_name_H-M "P 6/M"
_symmetry_group_IT_number 175
_symmetry_cell_setting 'hexagonal'
loop_
_space_group_symop_operation_xyz
x,y,z
x-y,x,z
-y,x-y,z
-x,-y,z
-x+y,-x,z
y,-x+y,z
-x,-y,-z
-x+y,-x,-z
y,-x+y,-z
x,y,-z
x-y,x,-z
-y,x-y,-z
loop_
_atom_site_type_symbol
_atom_site_label
_atom_site_fract_x
_atom_site_fract_y
_atom_site_fract_z
Si Si1 0.056016 0.631573 0.671143
Si Si2 0.646164 0.880448 0.330360
Si Si3 0.778510 0.939870 0.236918
Si Si4 0.901463 0.864156 0.500000
Si Si5 0.876118 0.636814 0.329904
Si Si6 0.572247 0.640781 0.170673
Si Si7 0.814590 0.065946 0.150865
Si Si8 0.528476 0.070442 0.161072
O O1 0.048555 0.626593 0.500000
O O2 0.095318 0.699280 0.712526
O O3 0.082924 0.592674 0.728928
O O4 0.994022 0.606826 0.750377
O O5 0.648273 0.882018 0.500000
O O6 0.712331 0.920769 0.279720
O O7 0.626378 0.814123 0.290387
O O8 0.821901 0.951031 0.366917
O O9 0.771952 0.883234 0.159185
O O10 0.803303 0.001064 0.159543
O O11 0.887747 0.917067 0.500000
O O12 0.880295 0.632036 0.500000
O O13 0.892121 0.594958 0.243582
O O14 0.919880 0.703225 0.278392
O O15 0.503325 0.595798 0.194191
O O16 0.581877 0.643815 0.000000
O O17 0.791563 0.074257 0.000000
O O18 0.500000 0.000000 0.160579
O O19 0.522766 0.087283 0.000000
#
# Coordination Sequence:
#
# PCOD9581251 Si02
#       8
#    12  12  12   6  12  12  12  12
#     4  10  18  29  47  73 100 130 165 204 238 287
#     4   9  19  32  47  71 100 125 159 199 247 296
#     4  11  21  34  56  71  94 126 161 202 258 314
#     4  12  23  38  58  82  94 120 167 227 275 329
#     4  10  21  34  51  71  96 130 166 206 248 296
#     4  10  19  32  48  69 100 132 166 204 244 288
#     4  11  23  37  51  71  97 124 161 202 255 317
#     4   8  16  30  46  66  97 134 163 192 235 279
#
# _framework density 15.719537000000001
#
# number of rings (size 3 to 8) (size 9 to 14) (size 15 to 20)
#    0.000    2.000    2.000    3.267    1.867    4.000 
#    0.000    7.333    0.000    0.000    0.000    1.867 
#    1.333    0.000    0.800    0.000    1.067    0.000 
#
# Total GULP energy -501559.042616 kJ/mol
# GULP energy per Si atom -5572.878251 kJ/mol
# Density = 1.568376 g / cm^3
# Si number density = 15.719537 Si / 1000 Ang^3
#
#
#
# Elastic Constant Matrix: (Units=GPa)
#
#
# Indices 1 2 3 4 5 6 
#
# 1 104.5738 55.7717 47.9344 0.0000 0.0000 0.0000
# 2 55.7717 104.5738 47.9344 0.0000 0.0000 0.0000
# 3 47.9344 47.9344 84.6953 0.0000 0.0000 0.0000
# 4 0.0000 0.0000 0.0000 -41.3908 0.0000 0.0000
# 5 0.0000 0.0000 0.0000 0.0000 -41.3908 0.0000
# 6 0.0000 0.0000 0.0000 0.0000 0.0000 24.4011
#
#
#
# Elastic Compliance Matrix: (Units=1/GPa)
#
#
# Indices 1 2 3 4 5 6 
#
# 1 0.014959 -0.005532 -0.005335 0.000000 0.000000 0.000000
# 2 -0.005532 0.014959 -0.005335 0.000000 0.000000 0.000000
# 3 -0.005335 -0.005335 0.017846 0.000000 0.000000 0.000000
# 4 0.000000 0.000000 0.000000 -0.024160 0.000000 0.000000
# 5 0.000000 0.000000 0.000000 0.000000 -0.024160 0.000000
# 6 0.000000 0.000000 0.000000 0.000000 0.000000 0.040982
#
#
# Mechanical properties :
#
#
# Convention : Reuss Voigt Hill
#
# Bulk Modulus (GPa) = 65.11010 66.34709 65.72860
# Shear Modulus (GPa) = 64.14487 -2.19595 30.97446
#
# Velocity S-wave (km/s) = 6.39487 -1.18321 4.44378
# Velocity P-wave (km/s) = 9.79978 6.35860 8.26037
#
# Compressibility (1/GPa) = 0.01535860
#
# Stress axis : x y z
#
# Youngs Moduli (GPa) = 66.85135 66.85135 56.03583
#
# Poissons Ratio (x) = 0.36985 0.29894
# Poissons Ratio (y) = 0.36985 0.29894
# Poissons Ratio (z) = 0.35664 0.35664
#
# Static dielectric constant tensor:
#      x y z
#    x 1.523070 0.000000 0.000000 
#    y 0.000000 1.523070 0.000000 
#    z 0.000000 0.000000 1.546550 
# 
# From -- ./inp_files/1479.got.cif
#   From: 2010.05.17/outbox.cif.g08.bks.cpg/sg175_1_cif.got.tgz:1479.got - 2010.05.20 11:23:22.
