data_PCOD9581933
_publ_section_title
;
Structure prediction by ZEFSAII (Michael W. Deem and Ramdas Pophale) SiO2 
 PCOD9581933
Probable space group: P 63/M
;
_chemical_formula_sum "Si O2"
_cell_formula_units_Z 42
_cell_length_a 14.431618
_cell_length_b 14.431618
_cell_length_c 10.201411
_cell_angle_alpha 90.000000
_cell_angle_beta 90.000000
_cell_angle_gamma 120.000000
_cell_volume 1840.013147
_symmetry_space_group_name_H-M "P 63/M"
_symmetry_group_IT_number 176
_symmetry_cell_setting 'hexagonal'
loop_
_space_group_symop_operation_xyz
x,y,z
x-y,x,1/2+z
-y,x-y,z
-x,-y,1/2+z
-x+y,-x,z
y,-x+y,1/2+z
-x,-y,-z
-x+y,-x,1/2-z
y,-x+y,-z
x,y,1/2-z
x-y,x,-z
-y,x-y,1/2-z
loop_
_atom_site_type_symbol
_atom_site_label
_atom_site_fract_x
_atom_site_fract_y
_atom_site_fract_z
Si Si1 0.077187 0.139088 0.750000
Si Si2 0.475352 0.857192 0.890793
Si Si3 0.863154 0.660564 0.105952
Si Si4 0.896762 0.534676 0.603908
O O1 0.116076 0.220004 0.626770
O O2 0.115155 0.051898 0.750000
O O3 0.421152 0.813964 0.750000
O O4 0.571597 0.832829 0.903935
O O5 0.535075 0.985953 0.882207
O O6 0.396642 0.827559 0.013254
O O7 0.902407 0.643385 0.250000
O O8 0.912884 0.635552 0.981665
O O9 0.854351 0.530651 0.750000
#
# Coordination Sequence:
#
# PCOD9581933 Si02
#       4
#     6  12  12  12
#     4   8  18  40  68  98 134 184 252 312 350 408
#     4   9  19  38  60  86 125 166 223 279 341 428
#     4   9  19  38  63  95 127 186 233 284 357 436
#     4  10  20  36  60  93 129 163 216 291 354 426
#
# _framework density 22.825921999999998
#
# number of rings (size 3 to 8) (size 9 to 14) (size 15 to 20)
#    1.143    1.714    0.000    0.857    0.000    2.286 
#    6.857    0.000    0.000    3.429    0.000    0.000 
#    0.000    0.000    0.000    0.000    0.000    0.000 
#
# Total GULP energy -233883.458770 kJ/mol
# GULP energy per Si atom -5568.653780 kJ/mol
# Density = 2.277397 g / cm^3
# Si number density = 22.825922 Si / 1000 Ang^3
#
#
#
# Elastic Constant Matrix: (Units=GPa)
#
#
# Indices 1 2 3 4 5 6 
#
# 1 97.2465 18.9054 46.8503 0.0000 0.0000 0.0000
# 2 18.9054 97.2465 46.8503 0.0000 0.0000 0.0000
# 3 46.8503 46.8503 195.7249 0.0000 0.0000 0.0000
# 4 0.0000 0.0000 0.0000 -3.0859 0.0000 0.0000
# 5 0.0000 0.0000 0.0000 0.0000 -3.0859 0.0000
# 6 0.0000 0.0000 0.0000 0.0000 0.0000 39.1706
#
#
#
# Elastic Compliance Matrix: (Units=1/GPa)
#
#
# Indices 1 2 3 4 5 6 
#
# 1 0.011717 -0.001047 -0.002554 0.000000 0.000000 0.000000
# 2 -0.001047 0.011717 -0.002554 0.000000 0.000000 0.000000
# 3 -0.002554 -0.002554 0.006332 0.000000 0.000000 0.000000
# 4 0.000000 0.000000 0.000000 -0.324058 0.000000 0.000000
# 5 0.000000 0.000000 0.000000 0.000000 -0.324058 0.000000
# 6 0.000000 0.000000 0.000000 0.000000 0.000000 0.025529
#
#
# Mechanical properties :
#
#
# Convention : Reuss Voigt Hill
#
# Bulk Modulus (GPa) = 57.28883 68.38110 62.83496
# Shear Modulus (GPa) = -8.70032 25.10722 8.20345
#
# Velocity S-wave (km/s) = -1.95445 3.32014 1.89782
# Velocity P-wave (km/s) = 4.47878 6.68733 5.69122
#
# Compressibility (1/GPa) = 0.01745541
#
# Stress axis : x y z
#
# Youngs Moduli (GPa) = 85.34448 85.34448 157.93038
#
# Poissons Ratio (x) = 0.08940 0.40335
# Poissons Ratio (y) = 0.08940 0.40335
# Poissons Ratio (z) = 0.21797 0.21797
#
# Static dielectric constant tensor:
#      x y z
#    x 1.872320 0.000000 0.000000 
#    y 0.000000 1.872320 0.000000 
#    z 0.000000 0.000000 1.931060 
# 
# From -- ./inp_files/514.got.cif
#   From: 2010.05.17/outbox.cif.g08.bks.cpg/sg176_1_cif.got.tgz:514.got - 2010.06.03 11:36:45.
