data_PCOD9581507
_publ_section_title
;
Structure prediction by ZEFSAII (Michael W. Deem and Ramdas Pophale) SiO2 
 PCOD9581507
Probable space group: P 6/M
;
_chemical_formula_sum "Si O2"
_cell_formula_units_Z 78
_cell_length_a 21.577436
_cell_length_b 21.577436
_cell_length_c 9.921165
_cell_angle_alpha 90.000000
_cell_angle_beta 90.000000
_cell_angle_gamma 120.000000
_cell_volume 4000.303834
_symmetry_space_group_name_H-M "P 6/M"
_symmetry_group_IT_number 175
_symmetry_cell_setting 'hexagonal'
loop_
_space_group_symop_operation_xyz
x,y,z
x-y,x,z
-y,x-y,z
-x,-y,z
-x+y,-x,z
y,-x+y,z
-x,-y,-z
-x+y,-x,-z
y,-x+y,-z
x,y,-z
x-y,x,-z
-y,x-y,-z
loop_
_atom_site_type_symbol
_atom_site_label
_atom_site_fract_x
_atom_site_fract_y
_atom_site_fract_z
Si Si1 0.831804 0.940775 0.347346
Si Si2 0.441289 0.098995 0.652810
Si Si3 0.839078 0.122392 0.158067
Si Si4 0.240777 0.452397 0.151413
Si Si5 0.500000 0.500000 0.238794
Si Si6 0.105743 0.452781 0.151407
Si Si7 0.289840 0.970222 0.658935
O O1 0.868900 0.892096 0.335411
O O2 0.800815 0.930626 0.500000
O O3 0.770614 0.911830 0.234426
O O4 0.454774 0.123081 0.500000
O O5 0.472065 0.167064 0.748350
O O6 0.472131 0.045787 0.679513
O O7 0.355249 0.050729 0.673034
O O8 0.817975 0.184612 0.165290
O O9 0.779035 0.056747 0.246953
O O10 0.840093 0.105777 0.000000
O O11 0.191160 0.488665 0.167274
O O12 0.269028 0.465084 0.000000
O O13 0.506350 0.567541 0.157159
O O14 0.075311 0.398619 0.276585
O O15 0.091288 0.418166 0.000000
O O16 0.271977 0.955949 0.500000
#
# Coordination Sequence:
#
# PCOD9581507 Si02
#       7
#    12  12  12  12   6  12  12
#     4  10  22  39  57  75  98 134 182 234 283 337
#     4  10  21  35  55  84 118 153 193 238 290 346
#     4  10  21  36  54  79 109 143 183 231 284 342
#     4   9  20  36  53  79 117 152 185 231 287 345
#     4  10  20  36  62  90 118 154 202 254 296 352
#     4   9  18  34  55  83 114 149 191 237 290 349
#     4   9  18  32  51  77 109 145 184 230 280 336
#
# _framework density 19.498518000000001
#
# number of rings (size 3 to 8) (size 9 to 14) (size 15 to 20)
#    0.000    2.462    0.000    2.462    2.154    8.615 
#    0.000    0.000    0.000    1.538    0.000    0.000 
#    0.000    0.000    0.000    0.000    0.000    0.000 
#
# Total GULP energy -434454.683415 kJ/mol
# GULP energy per Si atom -5569.931839 kJ/mol
# Density = 1.945414 g / cm^3
# Si number density = 19.498518 Si / 1000 Ang^3
#
#
#
# Elastic Constant Matrix: (Units=GPa)
#
#
# Indices 1 2 3 4 5 6 
#
# 1 73.3152 17.3498 38.5058 0.0000 0.0000 0.0000
# 2 17.3498 73.3152 38.5058 0.0000 0.0000 0.0000
# 3 38.5058 38.5058 113.3559 0.0000 0.0000 0.0000
# 4 0.0000 0.0000 0.0000 -55.5753 0.0000 0.0000
# 5 0.0000 0.0000 0.0000 0.0000 -55.5753 0.0000
# 6 0.0000 0.0000 0.0000 0.0000 0.0000 27.9827
#
#
#
# Elastic Compliance Matrix: (Units=1/GPa)
#
#
# Indices 1 2 3 4 5 6 
#
# 1 0.016685 -0.001183 -0.005266 0.000000 0.000000 0.000000
# 2 -0.001183 0.016685 -0.005266 0.000000 0.000000 0.000000
# 3 -0.005266 -0.005266 0.012399 0.000000 0.000000 0.000000
# 4 0.000000 0.000000 0.000000 -0.017994 0.000000 0.000000
# 5 0.000000 0.000000 0.000000 0.000000 -0.017994 0.000000
# 6 0.000000 0.000000 0.000000 0.000000 0.000000 0.035736
#
#
# Mechanical properties :
#
#
# Convention : Reuss Voigt Hill
#
# Bulk Modulus (GPa) = 44.76189 49.85654 47.30922
# Shear Modulus (GPa) = 65.44839 -5.59190 29.92825
#
# Velocity S-wave (km/s) = 5.79989 -1.69531 3.92203
# Velocity P-wave (km/s) = 8.23760 4.66828 6.69518
#
# Compressibility (1/GPa) = 0.02234043
#
# Stress axis : x y z
#
# Youngs Moduli (GPa) = 59.93255 59.93255 80.64883
#
# Poissons Ratio (x) = 0.07089 0.42470
# Poissons Ratio (y) = 0.07089 0.42470
# Poissons Ratio (z) = 0.31561 0.31561
#
# Static dielectric constant tensor:
#      x y z
#    x 1.723930 0.000000 0.000000 
#    y 0.000000 1.723930 0.000000 
#    z 0.000000 0.000000 1.671790 
# 
# From -- ./inp_files/1302.got.cif
#   From: 2010.05.17/outbox.cif.g08.bks.cpg/sg175_1_cif.got.tgz:1302.got - 2010.05.20 11:23:22.
