data_PCOD9581064
_publ_section_title
;
Structure prediction by ZEFSAII (Michael W. Deem and Ramdas Pophale) SiO2 
 PCOD9581064
Probable space group: P 63
;
_chemical_formula_sum "Si O2"
_cell_formula_units_Z 30
_cell_length_a 8.589651
_cell_length_b 8.589651
_cell_length_c 24.368603
_cell_angle_alpha 90.000000
_cell_angle_beta 90.000000
_cell_angle_gamma 120.000000
_cell_volume 1557.084931
_symmetry_space_group_name_H-M "P 63"
_symmetry_group_IT_number 173
_symmetry_cell_setting 'hexagonal'
loop_
_space_group_symop_operation_xyz
x,y,z
x-y,x,1/2+z
-y,x-y,z
-x,-y,1/2+z
-x+y,-x,z
y,-x+y,1/2+z
loop_
_atom_site_type_symbol
_atom_site_label
_atom_site_fract_x
_atom_site_fract_y
_atom_site_fract_z
Si Si1 0.311700 0.451708 0.056590
Si Si2 0.327155 0.337760 0.934877
Si Si3 0.325648 0.336376 0.389030
Si Si4 0.787297 0.982787 0.161987
Si Si5 0.314023 0.452762 0.266958
O O1 0.491185 0.648437 0.058597
O O2 0.288212 0.327693 0.108029
O O3 0.304603 0.359336 0.999172
O O4 0.474709 0.528442 0.910359
O O5 0.385627 0.192927 0.920972
O O6 0.140156 0.277252 0.904544
O O7 0.309604 0.363650 0.324730
O O8 0.672144 0.962233 0.215762
O O9 0.840720 0.825167 0.162054
O O10 0.492263 0.650314 0.264756
#
# Coordination Sequence:
#
# PCOD9581064 Si02
#       5
#     6   6   6   6   6
#     4  10  21  42  65  89 128 178 216 272 341 394
#     4  12  24  42  65 101 136 178 227 284 346 412
#     4  12  24  42  65 101 136 178 227 284 346 412
#     4  10  24  36  62  96 122 164 230 270 322 394
#     4  10  21  42  65  89 128 178 216 272 341 394
#
# _framework density 19.266770999999999
#
# number of rings (size 3 to 8) (size 9 to 14) (size 15 to 20)
#    1.200    0.000    4.000    2.400    5.600    0.000 
#    0.000    0.000    0.000    6.400    0.000    0.000 
#    0.000    0.000    0.000    0.000    0.000    0.000 
#
# Total GULP energy -167375.216772 kJ/mol
# GULP energy per Si atom -5579.173892 kJ/mol
# Density = 1.922292 g / cm^3
# Si number density = 19.266771 Si / 1000 Ang^3
#
#
#
# Elastic Constant Matrix: (Units=GPa)
#
#
# Indices 1 2 3 4 5 6 
#
# 1 35.9694 1.8009 38.9234 0.0000 0.0000 0.0000
# 2 1.8009 35.9694 38.9234 0.0000 0.0000 0.0000
# 3 38.9234 38.9234 199.0157 0.0000 0.0000 0.0000
# 4 0.0000 0.0000 0.0000 11.1412 0.0000 0.0000
# 5 0.0000 0.0000 0.0000 0.0000 11.1412 0.0000
# 6 0.0000 0.0000 0.0000 0.0000 0.0000 17.0843
#
#
#
# Elastic Compliance Matrix: (Units=1/GPa)
#
#
# Indices 1 2 3 4 5 6 
#
# 1 0.036811 0.007544 -0.008675 0.000000 0.000000 0.000000
# 2 0.007544 0.036811 -0.008675 0.000000 0.000000 0.000000
# 3 -0.008675 -0.008675 0.008418 0.000000 0.000000 0.000000
# 4 0.000000 0.000000 0.000000 0.089757 0.000000 0.000000
# 5 0.000000 0.000000 0.000000 0.000000 0.089757 0.000000
# 6 0.000000 0.000000 0.000000 0.000000 0.000000 0.058533
#
#
# Mechanical properties :
#
#
# Convention : Reuss Voigt Hill
#
# Bulk Modulus (GPa) = 16.01819 47.80555 31.91187
# Shear Modulus (GPa) = 13.86933 20.62715 17.24824
#
# Velocity S-wave (km/s) = 2.68593 3.27556 2.99529
# Velocity P-wave (km/s) = 4.23685 6.25876 5.34429
#
# Compressibility (1/GPa) = 0.06242904
#
# Stress axis : x y z
#
# Youngs Moduli (GPa) = 27.16570 27.16570 118.79231
#
# Poissons Ratio (x) = -0.20495 1.03053
# Poissons Ratio (y) = -0.20495 1.03053
# Poissons Ratio (z) = 0.23566 0.23566
#
# Static dielectric constant tensor:
#      x y z
#    x 1.666880 0.000000 0.000000 
#    y 0.000000 1.666880 0.000000 
#    z 0.000000 0.000000 1.617520 
# 
# From -- ./inp_files/1421.got.cif
#   From: 2010.05.17/outbox.cif.g08.bks.cpg/sg173_cif.got.tgz:1421.got - 2010.05.20 11:21:53.
