data_PCOD9581975
_publ_section_title
;
Structure prediction by ZEFSAII (Michael W. Deem and Ramdas Pophale) SiO2 
 PCOD9581975
Probable space group: P 63/M
;
_chemical_formula_sum "Si O2"
_cell_formula_units_Z 46
_cell_length_a 15.085311
_cell_length_b 15.085311
_cell_length_c 12.618515
_cell_angle_alpha 90.000000
_cell_angle_beta 90.000000
_cell_angle_gamma 120.000000
_cell_volume 2486.837549
_symmetry_space_group_name_H-M "P 63/M"
_symmetry_group_IT_number 176
_symmetry_cell_setting 'hexagonal'
loop_
_space_group_symop_operation_xyz
x,y,z
x-y,x,1/2+z
-y,x-y,z
-x,-y,1/2+z
-x+y,-x,z
y,-x+y,1/2+z
-x,-y,-z
-x+y,-x,1/2-z
y,-x+y,-z
x,y,1/2-z
x-y,x,-z
-y,x-y,1/2-z
loop_
_atom_site_type_symbol
_atom_site_label
_atom_site_fract_x
_atom_site_fract_y
_atom_site_fract_z
Si Si1 0.139627 0.357955 0.128240
Si Si2 0.547860 0.325998 0.750000
Si Si3 0.426145 0.891586 0.876308
Si Si4 0.666668 0.333334 0.122349
Si Si5 0.960997 0.329408 0.994753
O O1 0.132150 0.320179 0.250000
O O2 0.166603 0.476085 0.150041
O O3 0.232152 0.359347 0.065632
O O4 0.035071 0.303517 0.063524
O O5 0.574769 0.233883 0.750000
O O6 0.437155 0.896850 0.750000
O O7 0.347611 0.775021 0.910294
O O8 0.387811 0.967718 0.913859
O O9 0.533479 0.917666 0.928458
O O10 0.666667 0.333334 0.250000
#
# Coordination Sequence:
#
# PCOD9581975 Si02
#       5
#    12   6  12   4  12
#     4  10  23  39  58  89 119 154 215 255 305 367
#     4   8  20  34  62  82 128 170 210 246 282 348
#     4  10  21  32  53  80 123 159 203 238 288 352
#     4   9  18  36  48  78 118 155 178 222 282 348
#     4  11  22  36  58  83 114 164 204 255 310 359
#
# _framework density 18.497388999999998
#
# number of rings (size 3 to 8) (size 9 to 14) (size 15 to 20)
#    1.043    1.043    0.000    3.130    7.304    0.000 
#    4.696    3.913    0.000    0.522    0.000    0.000 
#    0.000    0.000    0.000    0.000    0.000    0.000 
#
# Total GULP energy -256541.556246 kJ/mol
# GULP energy per Si atom -5576.990353 kJ/mol
# Density = 1.845529 g / cm^3
# Si number density = 18.497389 Si / 1000 Ang^3
#
#
#
# Elastic Constant Matrix: (Units=GPa)
#
#
# Indices 1 2 3 4 5 6 
#
# 1 55.8974 -1.7352 25.0824 0.0000 0.0000 0.0005
# 2 -1.7352 55.9016 25.0836 0.0000 0.0000 0.0000
# 3 25.0824 25.0836 107.3926 0.0000 0.0000 0.0001
# 4 0.0000 0.0000 0.0000 25.0195 0.0001 0.0000
# 5 0.0000 0.0000 0.0000 0.0001 25.0194 0.0000
# 6 0.0005 0.0000 0.0001 0.0000 0.0000 28.8176
#
#
#
# Elastic Compliance Matrix: (Units=1/GPa)
#
#
# Indices 1 2 3 4 5 6 
#
# 1 0.020455 0.003104 -0.005503 0.000000 0.000000 0.000000
# 2 0.003104 0.020454 -0.005502 0.000000 0.000000 0.000000
# 3 -0.005503 -0.005502 0.011882 0.000000 0.000000 0.000000
# 4 0.000000 0.000000 0.000000 0.039969 0.000000 0.000000
# 5 0.000000 0.000000 0.000000 0.000000 0.039969 0.000000
# 6 0.000000 0.000000 0.000000 0.000000 0.000000 0.034701
#
#
# Mechanical properties :
#
#
# Convention : Reuss Voigt Hill
#
# Bulk Modulus (GPa) = 27.03475 35.11702 31.07588
# Shear Modulus (GPa) = 25.56740 27.15537 26.36138
#
# Velocity S-wave (km/s) = 3.72185 3.83569 3.77920
# Velocity P-wave (km/s) = 5.75471 6.21633 5.98997
#
# Compressibility (1/GPa) = 0.03698943
#
# Stress axis : x y z
#
# Youngs Moduli (GPa) = 48.88692 48.89046 84.16122
#
# Poissons Ratio (x) = -0.15175 0.46310
# Poissons Ratio (y) = -0.15174 0.46308
# Poissons Ratio (z) = 0.26900 0.26901
#
# Static dielectric constant tensor:
#      x y z
#    x 1.636230 0.000000 0.000000 
#    y 0.000000 1.636220 0.000000 
#    z 0.000000 0.000000 1.660610 
# 
# From -- ./inp_files/1700.got.cif
#   From: 2010.05.17/outbox.cif.g08.bks.cpg/sg176_1_cif.got.tgz:1700.got - 2010.06.03 11:36:45.
