data_PCOD9581580
_publ_section_title
;
Structure prediction by ZEFSAII (Michael W. Deem and Ramdas Pophale) SiO2 
 PCOD9581580
Probable space group: P 6/M
;
_chemical_formula_sum "Si O2"
_cell_formula_units_Z 52
_cell_length_a 14.425243
_cell_length_b 14.425243
_cell_length_c 15.409286
_cell_angle_alpha 90.000000
_cell_angle_beta 90.000000
_cell_angle_gamma 120.000000
_cell_volume 2776.894774
_symmetry_space_group_name_H-M "P 6/M"
_symmetry_group_IT_number 175
_symmetry_cell_setting 'hexagonal'
loop_
_space_group_symop_operation_xyz
x,y,z
x-y,x,z
-y,x-y,z
-x,-y,z
-x+y,-x,z
y,-x+y,z
-x,-y,-z
-x+y,-x,-z
y,-x+y,-z
x,y,-z
x-y,x,-z
-y,x-y,-z
loop_
_atom_site_type_symbol
_atom_site_label
_atom_site_fract_x
_atom_site_fract_y
_atom_site_fract_z
Si Si1 0.467308 0.291439 0.500000
Si Si2 0.333335 0.666667 0.896996
Si Si3 0.318449 0.061993 0.500000
Si Si4 0.465896 0.218559 0.776030
Si Si5 0.245693 0.075111 0.696929
Si Si6 0.875986 0.462276 0.671976
O O1 0.435170 0.167640 0.500000
O O2 0.358529 0.301722 0.500000
O O3 0.528249 0.352916 0.584368
O O4 0.285052 0.544850 0.859455
O O5 0.333334 0.666668 0.000000
O O6 0.275229 0.077103 0.593633
O O7 0.347296 0.118179 0.762069
O O8 0.462150 0.321385 0.739788
O O9 0.533318 0.188598 0.710319
O O10 0.201324 0.155454 0.711442
O O11 0.000000 0.500000 0.659951
#
# Coordination Sequence:
#
# PCOD9581580 Si02
#       6
#     6   4   6  12  12  12
#     4  12  23  34  51  74 114 158 211 255 303 340
#     4   9  21  42  69  97 122 145 180 225 291 378
#     4  12  20  34  52  76 114 167 212 262 294 326
#     4  10  21  38  59  87 116 150 189 239 296 354
#     4  12  22  37  58  83 119 162 212 255 294 333
#     4  11  22  35  54  77 112 154 199 243 294 344
#
# _framework density 18.725951999999999
#
# number of rings (size 3 to 8) (size 9 to 14) (size 15 to 20)
#    0.000    0.923    4.615    3.808    0.000    1.846 
#    0.000    1.154    0.000   24.923    0.000    0.000 
#    0.000    1.846    0.000    0.000    0.000    0.000 
#
# Total GULP energy -290055.644197 kJ/mol
# GULP energy per Si atom -5577.993158 kJ/mol
# Density = 1.868333 g / cm^3
# Si number density = 18.725952 Si / 1000 Ang^3
#
#
#
# Elastic Constant Matrix: (Units=GPa)
#
#
# Indices 1 2 3 4 5 6 
#
# 1 79.6227 24.0514 31.7880 0.0000 0.0000 0.0000
# 2 24.0514 79.6225 31.7878 0.0000 0.0000 0.0003
# 3 31.7880 31.7878 108.1474 0.0000 0.0000 0.0002
# 4 0.0000 0.0000 0.0000 2.4400 0.0001 0.0000
# 5 0.0000 0.0000 0.0000 0.0001 2.4395 0.0000
# 6 0.0000 0.0003 0.0002 0.0000 0.0000 27.7855
#
#
#
# Elastic Compliance Matrix: (Units=1/GPa)
#
#
# Indices 1 2 3 4 5 6 
#
# 1 0.014881 -0.003114 -0.003459 0.000000 0.000000 0.000000
# 2 -0.003114 0.014881 -0.003459 0.000000 0.000000 0.000000
# 3 -0.003459 -0.003459 0.011280 0.000000 0.000000 0.000000
# 4 0.000000 0.000000 0.000000 0.409834 -0.000022 0.000000
# 5 0.000000 0.000000 0.000000 -0.000022 0.409914 0.000000
# 6 0.000000 0.000000 0.000000 0.000000 0.000000 0.035990
#
#
# Mechanical properties :
#
#
# Convention : Reuss Voigt Hill
#
# Bulk Modulus (GPa) = 47.66763 49.18303 48.42533
# Shear Modulus (GPa) = 5.41222 18.51737 11.96480
#
# Velocity S-wave (km/s) = 1.70191 3.14803 2.53047
# Velocity P-wave (km/s) = 5.41965 6.28769 5.86974
#
# Compressibility (1/GPa) = 0.02097860
#
# Stress axis : x y z
#
# Youngs Moduli (GPa) = 67.20109 67.20103 88.65412
#
# Poissons Ratio (x) = 0.20928 0.30662
# Poissons Ratio (y) = 0.20928 0.30661
# Poissons Ratio (z) = 0.23242 0.23242
#
# Static dielectric constant tensor:
#      x y z
#    x 1.712000 0.000000 0.000000 
#    y 0.000000 1.712000 0.000000 
#    z 0.000000 0.000000 1.621000 
# 
# From -- ./inp_files/2331.got.cif
#   From: 2010.05.17/outbox.cif.g08.bks.cpg/sg175_2_cif.got.tgz:2331.got - 2010.05.20 11:23:22.
