data_PCOD9581307
_publ_section_title
;
Structure prediction by ZEFSAII (Michael W. Deem and Ramdas Pophale) SiO2 
 PCOD9581307
Probable space group: P 6/M
;
_chemical_formula_sum "Si O2"
_cell_formula_units_Z 72
_cell_length_a 24.031563
_cell_length_b 24.031563
_cell_length_c 8.751456
_cell_angle_alpha 90.000000
_cell_angle_beta 90.000000
_cell_angle_gamma 120.000000
_cell_volume 4376.984224
_symmetry_space_group_name_H-M "P 6/M"
_symmetry_group_IT_number 175
_symmetry_cell_setting 'hexagonal'
loop_
_space_group_symop_operation_xyz
x,y,z
x-y,x,z
-y,x-y,z
-x,-y,z
-x+y,-x,z
y,-x+y,z
-x,-y,-z
-x+y,-x,-z
y,-x+y,-z
x,y,-z
x-y,x,-z
-y,x-y,-z
loop_
_atom_site_type_symbol
_atom_site_label
_atom_site_fract_x
_atom_site_fract_y
_atom_site_fract_z
Si Si1 0.542607 0.209811 0.182505
Si Si2 0.929226 0.731716 0.182995
Si Si3 0.071950 0.800939 0.185104
Si Si4 0.597348 0.729914 0.325395
Si Si5 0.208909 0.544331 0.315267
Si Si6 0.137466 0.730008 0.324543
O O1 0.598282 0.199851 0.253685
O O2 0.551521 0.276987 0.246999
O O3 0.472174 0.154394 0.235718
O O4 0.546851 0.213014 0.000000
O O5 0.870557 0.741290 0.238541
O O6 0.912758 0.660160 0.229322
O O7 0.000718 0.782500 0.236179
O O8 0.928943 0.735157 0.000000
O O9 0.088133 0.747357 0.245405
O O10 0.073510 0.800593 0.000000
O O11 0.606678 0.715916 0.500000
O O12 0.526489 0.677161 0.271076
O O13 0.593418 0.795377 0.325964
O O14 0.213565 0.545851 0.500000
O O15 0.119816 0.709742 0.500000
#
# Coordination Sequence:
#
# PCOD9581307 Si02
#       6
#    12  12  12  12  12  12
#     4  11  20  29  43  65  91 121 158 200 243 290
#     4   9  17  29  48  71  97 123 151 185 224 266
#     4   9  17  30  48  72  97 124 153 186 224 267
#     4   8  16  29  45  64  87 116 153 191 231 274
#     4  10  19  31  44  61  89 124 159 199 244 290
#     4   9  17  30  46  65  89 120 154 193 236 279
#
# _framework density 16.449683
#
# number of rings (size 3 to 8) (size 9 to 14) (size 15 to 20)
#    0.000    2.667    0.000    3.833    0.000    5.333 
#    0.000    0.000    0.000    1.333    0.000    9.333 
#    0.000    0.000    0.000    8.333    0.000    8.667 
#
# Total GULP energy -401047.769279 kJ/mol
# GULP energy per Si atom -5570.107907 kJ/mol
# Density = 1.641224 g / cm^3
# Si number density = 16.449683 Si / 1000 Ang^3
#
#
#
# Elastic Constant Matrix: (Units=GPa)
#
#
# Indices 1 2 3 4 5 6 
#
# 1 98.6932 59.5755 26.7577 0.0000 0.0000 0.0000
# 2 59.5755 98.6932 26.7577 0.0000 0.0000 0.0000
# 3 26.7577 26.7577 52.0059 0.0000 0.0000 0.0000
# 4 0.0000 0.0000 0.0000 15.3273 0.0000 0.0000
# 5 0.0000 0.0000 0.0000 0.0000 15.3273 0.0000
# 6 0.0000 0.0000 0.0000 0.0000 0.0000 19.5589
#
#
#
# Elastic Compliance Matrix: (Units=1/GPa)
#
#
# Indices 1 2 3 4 5 6 
#
# 1 0.016606 -0.008957 -0.003936 0.000000 0.000000 0.000000
# 2 -0.008957 0.016606 -0.003936 0.000000 0.000000 0.000000
# 3 -0.003936 -0.003936 0.023278 0.000000 0.000000 0.000000
# 4 0.000000 0.000000 0.000000 0.065243 0.000000 0.000000
# 5 0.000000 0.000000 0.000000 0.000000 0.065243 0.000000
# 6 0.000000 0.000000 0.000000 0.000000 0.000000 0.051128
#
#
# Mechanical properties :
#
#
# Convention : Reuss Voigt Hill
#
# Bulk Modulus (GPa) = 43.79368 52.84154 48.31761
# Shear Modulus (GPa) = 17.89721 19.12948 18.51334
#
# Velocity S-wave (km/s) = 3.30206 3.41384 3.35842
# Velocity P-wave (km/s) = 6.42018 6.90883 6.66898
#
# Compressibility (1/GPa) = 0.02283434
#
# Stress axis : x y z
#
# Youngs Moduli (GPa) = 60.21746 60.21746 42.95837
#
# Poissons Ratio (x) = 0.53939 0.16906
# Poissons Ratio (y) = 0.53939 0.16906
# Poissons Ratio (z) = 0.23699 0.23699
#
# Static dielectric constant tensor:
#      x y z
#    x 1.557820 0.000000 0.000000 
#    y 0.000000 1.557820 0.000000 
#    z 0.000000 0.000000 1.557710 
# 
# From -- ./inp_files/1223.got.cif
#   From: 2010.05.17/outbox.cif.g08.bks.cpg/sg175_1_cif.got.tgz:1223.got - 2010.05.20 11:23:22.
