data_PCOD9581569
_publ_section_title
;
Structure prediction by ZEFSAII (Michael W. Deem and Ramdas Pophale) SiO2 
 PCOD9581569
Probable space group: P 6/M
;
_chemical_formula_sum "Si O2"
_cell_formula_units_Z 46
_cell_length_a 18.171138
_cell_length_b 18.171138
_cell_length_c 9.062163
_cell_angle_alpha 90.000000
_cell_angle_beta 90.000000
_cell_angle_gamma 120.000000
_cell_volume 2591.354055
_symmetry_space_group_name_H-M "P 6/M"
_symmetry_group_IT_number 175
_symmetry_cell_setting 'hexagonal'
loop_
_space_group_symop_operation_xyz
x,y,z
x-y,x,z
-y,x-y,z
-x,-y,z
-x+y,-x,z
y,-x+y,z
-x,-y,-z
-x+y,-x,-z
y,-x+y,-z
x,y,-z
x-y,x,-z
-y,x-y,-z
loop_
_atom_site_type_symbol
_atom_site_label
_atom_site_fract_x
_atom_site_fract_y
_atom_site_fract_z
Si Si1 0.263006 0.774464 0.174537
Si Si2 0.144337 0.194840 0.500000
Si Si3 0.333334 0.666667 0.324159
Si Si4 0.904701 0.261462 0.666816
Si Si5 0.565749 0.597170 0.824609
O O1 0.278487 0.706598 0.260213
O O2 0.178383 0.770930 0.234384
O O3 0.342794 0.868324 0.199486
O O4 0.255655 0.756018 0.000000
O O5 0.163343 0.118171 0.500000
O O6 0.191287 0.258512 0.637968
O O7 0.333334 0.666668 0.500000
O O8 0.885317 0.279174 0.500000
O O9 0.979334 0.347195 0.735984
O O10 0.500000 0.500000 0.782713
O O11 0.583003 0.598106 0.000000
#
# Coordination Sequence:
#
# PCOD9581569 Si02
#       5
#    12   6   4  12  12
#     4  11  22  38  59  84 120 160 204 249 298 359
#     4  10  21  38  61  88 118 152 192 246 308 378
#     4  12  25  38  58  87 124 167 208 249 292 344
#     4  10  22  36  59  85 118 154 196 254 301 362
#     4  10  21  37  58  84 116 157 203 248 299 358
#
# _framework density 17.751336999999999
#
# number of rings (size 3 to 8) (size 9 to 14) (size 15 to 20)
#    0.783    0.783    0.000    5.609    0.000    3.652 
#    0.000    0.000    0.000    0.000    0.000    0.000 
#    0.000   12.522    0.000    0.000    0.000    0.000 
#
# Total GULP energy -256770.380763 kJ/mol
# GULP energy per Si atom -5581.964799 kJ/mol
# Density = 1.771093 g / cm^3
# Si number density = 17.751337 Si / 1000 Ang^3
#
#
#
# Elastic Constant Matrix: (Units=GPa)
#
#
# Indices 1 2 3 4 5 6 
#
# 1 114.1958 48.7785 40.3946 0.0000 0.0000 0.0005
# 2 48.7785 114.1969 40.3951 0.0000 0.0000 0.0003
# 3 40.3946 40.3951 73.0772 0.0000 0.0000 0.0004
# 4 0.0000 0.0000 0.0000 31.0903 0.0001 0.0000
# 5 0.0000 0.0000 0.0000 0.0001 31.0905 0.0000
# 6 0.0005 0.0003 0.0004 0.0000 0.0000 32.7089
#
#
#
# Elastic Compliance Matrix: (Units=1/GPa)
#
#
# Indices 1 2 3 4 5 6 
#
# 1 0.011869 -0.003417 -0.004672 0.000000 0.000000 0.000000
# 2 -0.003417 0.011869 -0.004672 0.000000 0.000000 0.000000
# 3 -0.004672 -0.004672 0.018849 0.000000 0.000000 0.000000
# 4 0.000000 0.000000 0.000000 0.032164 0.000000 0.000000
# 5 0.000000 0.000000 0.000000 0.000000 0.032164 0.000000
# 6 0.000000 0.000000 0.000000 0.000000 0.000000 0.030573
#
#
# Mechanical properties :
#
#
# Convention : Reuss Voigt Hill
#
# Bulk Modulus (GPa) = 58.59890 62.28960 60.44425
# Shear Modulus (GPa) = 29.63852 30.43804 30.03828
#
# Velocity S-wave (km/s) = 4.09057 4.14537 4.11806
# Velocity P-wave (km/s) = 7.44265 7.62092 7.53231
#
# Compressibility (1/GPa) = 0.01706517
#
# Stress axis : x y z
#
# Youngs Moduli (GPa) = 84.25201 84.25246 53.05268
#
# Poissons Ratio (x) = 0.28791 0.24786
# Poissons Ratio (y) = 0.28791 0.24786
# Poissons Ratio (z) = 0.39362 0.39363
#
# Static dielectric constant tensor:
#      x y z
#    x 1.589760 0.000000 0.000000 
#    y 0.000000 1.589760 0.000000 
#    z 0.000000 0.000000 1.591120 
# 
# From -- ./inp_files/551.got.cif
#   From: 2010.05.17/outbox.cif.g08.bks.cpg/sg175_1_cif.got.tgz:551.got - 2010.05.20 11:23:22.
