data_PCOD9581809
_publ_section_title
;
Structure prediction by ZEFSAII (Michael W. Deem and Ramdas Pophale) SiO2 
 PCOD9581809
Probable space group: P 63/M
;
_chemical_formula_sum "Si O2"
_cell_formula_units_Z 28
_cell_length_a 11.212960
_cell_length_b 11.212960
_cell_length_c 11.036911
_cell_angle_alpha 90.000000
_cell_angle_beta 90.000000
_cell_angle_gamma 120.000000
_cell_volume 1201.762693
_symmetry_space_group_name_H-M "P 63/M"
_symmetry_group_IT_number 176
_symmetry_cell_setting 'hexagonal'
loop_
_space_group_symop_operation_xyz
x,y,z
x-y,x,1/2+z
-y,x-y,z
-x,-y,1/2+z
-x+y,-x,z
y,-x+y,1/2+z
-x,-y,-z
-x+y,-x,1/2-z
y,-x+y,-z
x,y,1/2-z
x-y,x,-z
-y,x-y,1/2-z
loop_
_atom_site_type_symbol
_atom_site_label
_atom_site_fract_x
_atom_site_fract_y
_atom_site_fract_z
Si Si1 0.333761 0.938236 0.750000
Si Si2 0.395368 0.074032 0.250000
Si Si3 0.334873 0.403955 0.012368
Si Si4 0.666667 0.333334 0.600922
O O1 0.491758 0.973885 0.750000
O O2 0.239326 0.774779 0.750000
O O3 0.310546 0.001350 0.628934
O O4 0.328494 0.039279 0.382869
O O5 0.288588 0.515269 0.048047
O O6 0.500000 0.500000 0.000000
O O7 0.666667 0.333334 0.750000
#
# Coordination Sequence:
#
# PCOD9581809 Si02
#       4
#     6   6  12   4
#     4  10  19  34  50  74 104 148 182 216 261 322
#     4  10  19  32  48  70 102 136 178 216 251 310
#     4  10  20  33  51  73 102 143 185 217 261 318
#     4  12  21  34  53  76 108 148 176 223 273 313
#
# _framework density 23.299109000000001
#
# number of rings (size 3 to 8) (size 9 to 14) (size 15 to 20)
#    0.000    1.714    2.143    5.571    0.000    0.000 
#    0.000    0.000    0.000    0.000    0.000    0.000 
#    0.000    0.000    0.000  682.714    0.000    0.000 
#
# Total GULP energy -156002.546591 kJ/mol
# GULP energy per Si atom -5571.519521 kJ/mol
# Density = 2.324608 g / cm^3
# Si number density = 23.299109 Si / 1000 Ang^3
#
#
#
# Elastic Constant Matrix: (Units=GPa)
#
#
# Indices 1 2 3 4 5 6 
#
# 1 42.0514 4.6708 16.1939 0.0000 0.0000 -0.0001
# 2 4.6708 42.0523 16.1937 0.0000 0.0000 -0.0002
# 3 16.1939 16.1937 312.3999 0.0000 0.0000 -0.0001
# 4 0.0000 0.0000 0.0000 14.4167 -0.0001 0.0000
# 5 0.0000 0.0000 0.0000 -0.0001 14.4165 0.0000
# 6 -0.0001 -0.0002 -0.0001 0.0000 0.0000 18.6905
#
#
#
# Elastic Compliance Matrix: (Units=1/GPa)
#
#
# Indices 1 2 3 4 5 6 
#
# 1 0.024476 -0.002275 -0.001151 0.000000 0.000000 0.000000
# 2 -0.002275 0.024476 -0.001151 0.000000 0.000000 0.000000
# 3 -0.001151 -0.001151 0.003320 0.000000 0.000000 0.000000
# 4 0.000000 0.000000 0.000000 0.069364 0.000000 0.000000
# 5 0.000000 0.000000 0.000000 0.000000 0.069365 0.000000
# 6 0.000000 0.000000 0.000000 0.000000 0.000000 0.053503
#
#
# Mechanical properties :
#
#
# Convention : Reuss Voigt Hill
#
# Bulk Modulus (GPa) = 23.19201 52.29116 37.74158
# Shear Modulus (GPa) = 18.65452 33.46776 26.06114
#
# Velocity S-wave (km/s) = 2.83265 3.79415 3.34810
# Velocity P-wave (km/s) = 4.54689 6.45649 5.58393
#
# Compressibility (1/GPa) = 0.04311831
#
# Stress axis : x y z
#
# Youngs Moduli (GPa) = 40.85581 40.85664 301.17457
#
# Poissons Ratio (x) = 0.09297 0.34660
# Poissons Ratio (y) = 0.09297 0.34659
# Poissons Ratio (z) = 0.04702 0.04702
#
# Static dielectric constant tensor:
#      x y z
#    x 1.886640 0.000000 0.000000 
#    y 0.000000 1.886630 0.000000 
#    z 0.000000 0.000000 2.040720 
# 
# From -- ./inp_files/338.got.cif
#   From: 2010.05.17/outbox.cif.g08.bks.cpg/sg176_1_cif.got.tgz:338.got - 2010.06.03 11:36:45.
