data_PCOD9581047
_publ_section_title
;
Structure prediction by ZEFSAII (Michael W. Deem and Ramdas Pophale) SiO2 
 PCOD9581047
Probable space group: P 63
;
_chemical_formula_sum "Si O2"
_cell_formula_units_Z 18
_cell_length_a 8.834445
_cell_length_b 8.834445
_cell_length_c 13.844883
_cell_angle_alpha 90.000000
_cell_angle_beta 90.000000
_cell_angle_gamma 120.000000
_cell_volume 935.790139
_symmetry_space_group_name_H-M "P 63"
_symmetry_group_IT_number 173
_symmetry_cell_setting 'hexagonal'
loop_
_space_group_symop_operation_xyz
x,y,z
x-y,x,1/2+z
-y,x-y,z
-x,-y,1/2+z
-x+y,-x,z
y,-x+y,1/2+z
loop_
_atom_site_type_symbol
_atom_site_label
_atom_site_fract_x
_atom_site_fract_y
_atom_site_fract_z
Si Si1 0.008359 0.671604 0.195140
Si Si2 0.681257 0.540067 0.905913
Si Si3 0.664096 0.991513 0.616992
O O1 0.047765 0.687329 0.309034
O O2 0.815441 0.631017 0.169707
O O3 0.036788 0.517595 0.154102
O O4 0.146748 0.851512 0.144442
O O5 0.509572 0.345017 0.905909
O O6 0.685889 0.637963 0.003174
#
# Coordination Sequence:
#
# PCOD9581047 Si02
#       3
#     6   6   6
#     4  12  24  43  69 102 135 179 225 279 337 402
#     4  10  20  42  70  96 138 178 224 276 344 400
#     4  12  24  43  69 102 135 179 225 279 337 402
#
# _framework density 19.235081000000001
#
# number of rings (size 3 to 8) (size 9 to 14) (size 15 to 20)
#    0.667    0.000    6.667    2.000    0.000    5.333 
#    0.000    0.000    0.000    0.000    0.000    0.000 
#    0.000    0.000    0.000    0.000    0.000    0.000 
#
# Total GULP energy -100595.759924 kJ/mol
# GULP energy per Si atom -5588.653329 kJ/mol
# Density = 1.919130 g / cm^3
# Si number density = 19.235081 Si / 1000 Ang^3
#
#
#
# Elastic Constant Matrix: (Units=GPa)
#
#
# Indices 1 2 3 4 5 6 
#
# 1 52.8768 -17.9571 37.4433 0.0000 0.0000 0.0000
# 2 -17.9571 52.8768 37.4433 0.0000 0.0000 0.0000
# 3 37.4433 37.4433 228.5275 0.0000 0.0000 0.0000
# 4 0.0000 0.0000 0.0000 14.8099 0.0000 0.0000
# 5 0.0000 0.0000 0.0000 0.0000 14.8099 0.0000
# 6 0.0000 0.0000 0.0000 0.0000 0.0000 35.4169
#
#
#
# Elastic Compliance Matrix: (Units=1/GPa)
#
#
# Indices 1 2 3 4 5 6 
#
# 1 0.029134 0.015016 -0.007234 0.000000 0.000000 0.000000
# 2 0.015016 0.029134 -0.007234 0.000000 0.000000 0.000000
# 3 -0.007234 -0.007234 0.006746 0.000000 0.000000 0.000000
# 4 0.000000 0.000000 0.000000 0.067522 0.000000 0.000000
# 5 0.000000 0.000000 0.000000 0.000000 0.067522 0.000000
# 6 0.000000 0.000000 0.000000 0.000000 0.000000 0.028235
#
#
# Mechanical properties :
#
#
# Convention : Reuss Voigt Hill
#
# Bulk Modulus (GPa) = 15.12596 49.79334 32.45965
# Shear Modulus (GPa) = 20.06150 31.49746 25.77948
#
# Velocity S-wave (km/s) = 3.23300 4.05099 3.66489
# Velocity P-wave (km/s) = 4.67089 6.91547 5.90088
#
# Compressibility (1/GPa) = 0.06611152
#
# Stress axis : x y z
#
# Youngs Moduli (GPa) = 34.32427 34.32427 148.22924
#
# Poissons Ratio (x) = -0.51543 1.07227
# Poissons Ratio (y) = -0.51543 1.07227
# Poissons Ratio (z) = 0.24830 0.24830
#
# Static dielectric constant tensor:
#      x y z
#    x 1.642520 0.000000 0.000000 
#    y 0.000000 1.642520 0.000000 
#    z 0.000000 0.000000 1.631850 
# 
# From -- ./inp_files/753.got.cif
#   From: 2010.05.17/outbox.cif.g08.bks.cpg/sg173_cif.got.tgz:753.got - 2010.05.20 11:21:53.
