data_PCOD9581866
_publ_section_title
;
Structure prediction by ZEFSAII (Michael W. Deem and Ramdas Pophale) SiO2 
 PCOD9581866
Probable space group: P 63/M
;
_chemical_formula_sum "Si O2"
_cell_formula_units_Z 78
_cell_length_a 24.498538
_cell_length_b 24.498538
_cell_length_c 7.823426
_cell_angle_alpha 90.000000
_cell_angle_beta 90.000000
_cell_angle_gamma 120.000000
_cell_volume 4066.379864
_symmetry_space_group_name_H-M "P 63/M"
_symmetry_group_IT_number 176
_symmetry_cell_setting 'hexagonal'
loop_
_space_group_symop_operation_xyz
x,y,z
x-y,x,1/2+z
-y,x-y,z
-x,-y,1/2+z
-x+y,-x,z
y,-x+y,1/2+z
-x,-y,-z
-x+y,-x,1/2-z
y,-x+y,-z
x,y,1/2-z
x-y,x,-z
-y,x-y,1/2-z
loop_
_atom_site_type_symbol
_atom_site_label
_atom_site_fract_x
_atom_site_fract_y
_atom_site_fract_z
Si Si1 0.083082 0.813932 0.544448
Si Si2 0.594207 0.891181 0.958329
Si Si3 0.235409 0.489729 0.549498
Si Si4 0.413166 0.690538 0.250000
Si Si5 0.396142 0.308206 0.047553
Si Si6 0.557324 0.990596 0.944970
Si Si7 0.202758 0.942880 0.543977
O O1 0.088590 0.814737 0.750000
O O2 0.093775 0.757035 0.480156
O O3 0.138265 0.882109 0.482639
O O4 0.012015 0.795941 0.502046
O O5 0.599605 0.896639 0.750000
O O6 0.542791 0.819345 0.994956
O O7 0.571548 0.938442 0.027159
O O8 0.245406 0.508737 0.750000
O O9 0.250730 0.545366 0.419048
O O10 0.162788 0.435974 0.529141
O O11 0.379723 0.733248 0.250000
O O12 0.392530 0.318599 0.250000
O O13 0.325553 0.262467 0.981082
O O14 0.430620 0.376105 0.961557
O O15 0.543028 0.970823 0.750000
O O16 0.500000 0.000000 0.000000
O O17 0.202941 0.938764 0.750000
#
# Coordination Sequence:
#
# PCOD9581866 Si02
#       7
#    12  12  12   6  12  12  12
#     4  10  19  36  59  86 124 160 197 250 299 359
#     4   9  18  36  59  84 115 156 200 234 299 374
#     4  10  21  42  68  88 118 164 200 253 317 368
#     4  10  26  46  60  90 122 142 218 270 306 370
#     4  10  20  36  59  87 118 154 199 240 301 369
#     4  11  23  38  56  83 121 158 194 242 300 364
#     4  10  20  35  58  89 124 157 197 251 299 359
#
# _framework density 19.181681000000001
#
# number of rings (size 3 to 8) (size 9 to 14) (size 15 to 20)
#    0.154    1.846    3.077    0.462    1.077    2.462 
#    4.154    3.077    0.000    0.308    0.000    0.000 
#    0.000    0.000    0.000    0.000    0.000    0.000 
#
# Total GULP energy -435164.646940 kJ/mol
# GULP energy per Si atom -5579.033935 kJ/mol
# Density = 1.913802 g / cm^3
# Si number density = 19.181681 Si / 1000 Ang^3
#
#
#
# Elastic Constant Matrix: (Units=GPa)
#
#
# Indices 1 2 3 4 5 6 
#
# 1 92.1626 32.7818 10.4156 0.0000 0.0000 0.0000
# 2 32.7818 92.1626 10.4156 0.0000 0.0000 0.0000
# 3 10.4156 10.4156 29.0820 0.0000 0.0000 0.0000
# 4 0.0000 0.0000 0.0000 23.1650 0.0000 0.0000
# 5 0.0000 0.0000 0.0000 0.0000 23.1650 0.0000
# 6 0.0000 0.0000 0.0000 0.0000 0.0000 29.6904
#
#
#
# Elastic Compliance Matrix: (Units=1/GPa)
#
#
# Indices 1 2 3 4 5 6 
#
# 1 0.012676 -0.004164 -0.003048 0.000000 0.000000 0.000000
# 2 -0.004164 0.012676 -0.003048 0.000000 0.000000 0.000000
# 3 -0.003048 -0.003048 0.036569 0.000000 0.000000 0.000000
# 4 0.000000 0.000000 0.000000 0.043169 0.000000 0.000000
# 5 0.000000 0.000000 0.000000 0.000000 0.043169 0.000000
# 6 0.000000 0.000000 0.000000 0.000000 0.000000 0.033681
#
#
# Mechanical properties :
#
#
# Convention : Reuss Voigt Hill
#
# Bulk Modulus (GPa) = 24.15526 35.62592 29.89059
# Shear Modulus (GPa) = 23.12015 25.85704 24.48859
#
# Velocity S-wave (km/s) = 3.47554 3.67550 3.57692
# Velocity P-wave (km/s) = 5.35967 6.05191 5.71628
#
# Compressibility (1/GPa) = 0.04139885
#
# Stress axis : x y z
#
# Youngs Moduli (GPa) = 78.88842 78.88842 27.34547
#
# Poissons Ratio (x) = 0.32852 0.08336
# Poissons Ratio (y) = 0.32852 0.08336
# Poissons Ratio (z) = 0.24049 0.24049
#
# Static dielectric constant tensor:
#      x y z
#    x 1.672560 0.000000 0.000000 
#    y 0.000000 1.672560 0.000000 
#    z 0.000000 0.000000 1.701840 
# 
# From -- ./inp_files/1319.got.cif
#   From: 2010.05.17/outbox.cif.g08.bks.cpg/sg176_1_cif.got.tgz:1319.got - 2010.06.03 11:36:45.
