data_PCOD9581061
_publ_section_title
;
Structure prediction by ZEFSAII (Michael W. Deem and Ramdas Pophale) SiO2 
 PCOD9581061
Probable space group: P 63
;
_chemical_formula_sum "Si O2"
_cell_formula_units_Z 36
_cell_length_a 8.431903
_cell_length_b 8.431903
_cell_length_c 29.805413
_cell_angle_alpha 90.000000
_cell_angle_beta 90.000000
_cell_angle_gamma 120.000000
_cell_volume 1835.172866
_symmetry_space_group_name_H-M "P 63"
_symmetry_group_IT_number 173
_symmetry_cell_setting 'hexagonal'
loop_
_space_group_symop_operation_xyz
x,y,z
x-y,x,1/2+z
-y,x-y,z
-x,-y,1/2+z
-x+y,-x,z
y,-x+y,1/2+z
loop_
_atom_site_type_symbol
_atom_site_label
_atom_site_fract_x
_atom_site_fract_y
_atom_site_fract_z
Si Si1 0.448758 0.134958 0.294720
Si Si2 0.798531 0.784716 0.382881
Si Si3 0.780686 0.978477 0.705871
Si Si4 0.870290 0.323298 0.469643
Si Si5 0.662149 0.991766 0.607927
Si Si6 0.671350 0.664599 0.569173
O O1 0.649353 0.154668 0.295270
O O2 0.330319 0.036786 0.338375
O O3 0.334365 0.043564 0.250097
O O4 0.698741 0.668384 0.426691
O O5 0.823339 0.987213 0.383054
O O6 0.674224 0.970483 0.660938
O O7 0.839030 0.820986 0.705402
O O8 0.841834 0.499561 0.468743
O O9 0.963523 0.323288 0.516128
O O10 0.732674 0.868511 0.583840
O O11 0.464166 0.935140 0.589299
O O12 0.799732 0.197439 0.592470
#
# Coordination Sequence:
#
# PCOD9581061 Si02
#       6
#     6   6   6   6   6   6
#     4  10  22  37  64  92 123 165 211 270 335 399
#     4  10  22  37  64  94 118 167 214 270 328 407
#     4  10  21  40  63  92 126 171 214 273 327 402
#     4  10  21  40  63  90 127 167 212 271 337 395
#     4  12  24  42  63  95 134 180 227 279 339 402
#     4  12  24  42  63  95 134 180 226 281 338 405
#
# _framework density 19.616682000000001
#
# number of rings (size 3 to 8) (size 9 to 14) (size 15 to 20)
#    1.333    0.000    3.333    3.000    4.667    0.000 
#    0.000    0.000    0.000   12.000    0.000    0.000 
#    0.000    0.000    0.000    0.000    0.000    0.000 
#
# Total GULP energy -200764.369488 kJ/mol
# GULP energy per Si atom -5576.788041 kJ/mol
# Density = 1.957203 g / cm^3
# Si number density = 19.616682 Si / 1000 Ang^3
#
#
#
# Elastic Constant Matrix: (Units=GPa)
#
#
# Indices 1 2 3 4 5 6 
#
# 1 42.1444 -4.5374 28.8952 0.0000 0.0000 0.0000
# 2 -4.5374 42.1444 28.8952 0.0000 0.0000 0.0000
# 3 28.8952 28.8952 198.6520 0.0000 0.0000 0.0000
# 4 0.0000 0.0000 0.0000 345.6747 0.0000 0.0000
# 5 0.0000 0.0000 0.0000 0.0000 345.6747 0.0000
# 6 0.0000 0.0000 0.0000 0.0000 0.0000 23.3409
#
#
#
# Elastic Compliance Matrix: (Units=1/GPa)
#
#
# Indices 1 2 3 4 5 6 
#
# 1 0.027834 0.006412 -0.004981 0.000000 0.000000 0.000000
# 2 0.006412 0.027834 -0.004981 0.000000 0.000000 0.000000
# 3 -0.004981 -0.004981 0.006483 0.000000 0.000000 0.000000
# 4 0.000000 0.000000 0.000000 0.002893 0.000000 0.000000
# 5 0.000000 0.000000 0.000000 0.000000 0.002893 0.000000
# 6 0.000000 0.000000 0.000000 0.000000 0.000000 0.042843
#
#
# Mechanical properties :
#
#
# Convention : Reuss Voigt Hill
#
# Bulk Modulus (GPa) = 18.16563 43.27186 30.71874
# Shear Modulus (GPa) = 36.70267 158.25059 97.47663
#
# Velocity S-wave (km/s) = 4.33019 8.99147 7.05681
# Velocity P-wave (km/s) = 5.85501 11.39746 9.06044
#
# Compressibility (1/GPa) = 0.05504903
#
# Stress axis : x y z
#
# Youngs Moduli (GPa) = 35.92789 35.92789 154.24898
#
# Poissons Ratio (x) = -0.23037 0.76835
# Poissons Ratio (y) = -0.23037 0.76835
# Poissons Ratio (z) = 0.17896 0.17896
#
# Static dielectric constant tensor:
#      x y z
#    x 1.400590 0.000000 0.000000 
#    y 0.000000 1.400590 0.000000 
#    z 0.000000 0.000000 1.632790 
# 
# From -- ./inp_files/1477.got.cif
#   From: 2010.05.17/outbox.cif.g08.bks.cpg/sg173_cif.got.tgz:1477.got - 2010.05.20 11:21:53.
