data_PCOD9581035
_publ_section_title
;
Structure prediction by ZEFSAII (Michael W. Deem and Ramdas Pophale) SiO2 
 PCOD9581035
Probable space group: P 63
;
_chemical_formula_sum "Si O2"
_cell_formula_units_Z 48
_cell_length_a 17.807319
_cell_length_b 17.807319
_cell_length_c 7.770857
_cell_angle_alpha 90.000000
_cell_angle_beta 90.000000
_cell_angle_gamma 120.000000
_cell_volume 2134.010865
_symmetry_space_group_name_H-M "P 63"
_symmetry_group_IT_number 173
_symmetry_cell_setting 'hexagonal'
loop_
_space_group_symop_operation_xyz
x,y,z
x-y,x,1/2+z
-y,x-y,z
-x,-y,1/2+z
-x+y,-x,z
y,-x+y,1/2+z
loop_
_atom_site_type_symbol
_atom_site_label
_atom_site_fract_x
_atom_site_fract_y
_atom_site_fract_z
Si Si1 0.436195 0.369322 0.912390
Si Si2 0.369322 0.933127 0.992037
Si Si3 0.178878 0.805065 0.410198
Si Si4 0.626187 0.821122 0.994228
Si Si5 0.817173 0.953643 0.892645
Si Si6 0.817173 0.953643 0.511780
Si Si7 0.504969 0.127560 0.900722
Si Si8 0.495031 0.872440 0.003705
O O1 0.434925 0.376496 0.702213
O O2 0.380789 0.269221 0.961067
O O3 0.536863 0.411123 0.968809
O O4 0.401818 0.428901 0.992256
O O5 0.269221 0.888432 0.943359
O O6 0.411123 0.874260 0.935617
O O7 0.428901 0.027083 0.912171
O O8 0.177283 0.801120 0.202213
O O9 0.096913 0.812841 0.466620
O O10 0.176858 0.718526 0.477736
O O11 0.541669 0.823142 0.926689
O O12 0.715928 0.903086 0.937805
O O13 0.827883 0.991411 0.702213
O O14 0.846149 0.881313 0.897950
O O15 0.881313 0.035165 0.006476
O O16 0.525166 0.155318 0.702213
#
# Coordination Sequence:
#
# PCOD9581035 Si02
#       8
#     6   6   6   6   6   6   6   6
#     4   9  18  33  52  75 104 139 177 221 269 320
#     4   9  18  33  52  75 104 139 177 221 269 320
#     4  10  20  35  55  82 112 144 188 233 276 330
#     4  10  20  35  55  82 112 144 188 233 276 330
#     4  12  25  41  60  84 115 150 188 231 281 334
#     4  12  25  41  60  84 115 150 188 231 281 334
#     4   9  18  33  52  75 104 139 177 221 269 320
#     4   9  18  33  52  75 104 139 177 221 269 320
#
# _framework density 22.492854999999999
#
# number of rings (size 3 to 8) (size 9 to 14) (size 15 to 20)
#    0.000    2.000    0.000    4.000    0.000    6.000 
#    1.500    0.000    0.000    0.000    0.000    0.000 
#    0.000    0.000    0.000    0.000    0.000    0.000 
#
# Total GULP energy -268039.406153 kJ/mol
# GULP energy per Si atom -5584.154295 kJ/mol
# Density = 2.244166 g / cm^3
# Si number density = 22.492855 Si / 1000 Ang^3
#
#
#
# Elastic Constant Matrix: (Units=GPa)
#
#
# Indices 1 2 3 4 5 6 
#
# 1 53.4559 -10.5716 -8.3680 0.0000 0.0000 0.0000
# 2 -10.5716 53.4559 -8.3680 0.0000 0.0000 0.0000
# 3 -8.3680 -8.3680 47.7973 0.0000 0.0000 0.0000
# 4 0.0000 0.0000 0.0000 -0.0037 0.0000 0.0000
# 5 0.0000 0.0000 0.0000 0.0000 -0.0037 0.0000
# 6 0.0000 0.0000 0.0000 0.0000 0.0000 32.0137
#
#
#
# Elastic Compliance Matrix: (Units=1/GPa)
#
#
# Indices 1 2 3 4 5 6 
#
# 1 0.020323 0.004705 0.004382 0.000000 0.000000 0.000000
# 2 0.004705 0.020323 0.004382 0.000000 0.000000 0.000000
# 3 0.004382 0.004382 0.022456 0.000000 0.000000 0.000000
# 4 0.000000 0.000000 0.000000********** 0.001933 0.000000
# 5 0.000000 0.000000 0.000000 0.001933********** 0.000000
# 6 0.000000 0.000000 0.000000 0.000000 0.000000 0.031237
#
#
# Mechanical properties :
#
#
# Convention : Reuss Voigt Hill
#
# Bulk Modulus (GPa) = 11.10614 11.12156 11.11385
# Shear Modulus (GPa) = -0.00927 18.53570 9.26322
#
# Velocity S-wave (km/s) = -0.06428 2.87378 2.03156
# Velocity P-wave (km/s) = 2.22325 3.99583 3.23338
#
# Compressibility (1/GPa) = 0.09004031
#
# Stress axis : x y z
#
# Youngs Moduli (GPa) = 49.20428 49.20428 44.53163
#
# Poissons Ratio (x) = -0.23151 -0.19513
# Poissons Ratio (y) = -0.23151 -0.19513
# Poissons Ratio (z) = -0.21560 -0.21560
#
# Static dielectric constant tensor:
#      x y z
#    x 1.821110 0.000000 0.000000 
#    y 0.000000 1.821110 0.000000 
#    z 0.000000 0.000000 1.834870 
# 
# From -- ./inp_files/672.got.cif
#   From: 2010.05.17/outbox.cif.g08.bks.cpg/sg173_cif.got.tgz:672.got - 2010.05.20 11:21:53.
