data_PCOD9581353
_publ_section_title
;
Structure prediction by ZEFSAII (Michael W. Deem and Ramdas Pophale) SiO2 
 PCOD9581353
Probable space group: P 6/M
;
_chemical_formula_sum "Si O2"
_cell_formula_units_Z 72
_cell_length_a 22.624238
_cell_length_b 22.624238
_cell_length_c 8.914019
_cell_angle_alpha 90.000000
_cell_angle_beta 90.000000
_cell_angle_gamma 120.000000
_cell_volume 3951.410128
_symmetry_space_group_name_H-M "P 6/M"
_symmetry_group_IT_number 175
_symmetry_cell_setting 'hexagonal'
loop_
_space_group_symop_operation_xyz
x,y,z
x-y,x,z
-y,x-y,z
-x,-y,z
-x+y,-x,z
y,-x+y,z
-x,-y,-z
-x+y,-x,-z
y,-x+y,-z
x,y,-z
x-y,x,-z
-y,x-y,-z
loop_
_atom_site_type_symbol
_atom_site_label
_atom_site_fract_x
_atom_site_fract_y
_atom_site_fract_z
Si Si1 0.603065 0.902331 0.677628
Si Si2 0.016688 0.871910 0.816949
Si Si3 0.213403 0.836121 0.176488
Si Si4 0.643406 0.450455 0.319628
Si Si5 0.780759 0.466996 0.176812
Si Si6 0.736527 0.009875 0.180065
O O1 0.606841 0.910839 0.500000
O O2 0.621015 0.844513 0.726108
O O3 0.524063 0.871253 0.723634
O O4 0.661033 0.970205 0.753864
O O5 0.944114 0.863620 0.769737
O O6 0.020108 0.805052 0.769659
O O7 0.017095 0.872073 0.000000
O O8 0.280605 0.829093 0.192421
O O9 0.227225 0.910336 0.217879
O O10 0.193002 0.823724 0.000000
O O11 0.644706 0.446885 0.500000
O O12 0.708942 0.448828 0.252975
O O13 0.576437 0.386604 0.253999
O O14 0.769744 0.450963 0.000000
O O15 0.731637 0.004442 0.000000
#
# Coordination Sequence:
#
# PCOD9581353 Si02
#       6
#    12  12  12  12  12  12
#     4  10  21  35  52  75 102 133 169 210 254 302
#     4   9  16  26  44  72 103 131 160 198 245 295
#     4   9  19  35  54  76 102 133 169 211 256 300
#     4  10  20  34  51  73 103 136 167 203 254 309
#     4  10  19  32  52  77 102 130 168 211 254 301
#     4  10  19  33  53  74  99 134 173 211 253 302
#
# _framework density 18.221343999999998
#
# number of rings (size 3 to 8) (size 9 to 14) (size 15 to 20)
#    0.000    2.333    0.000    3.000    0.000    6.667 
#    0.000    0.833    0.000    5.000    0.000    0.000 
#    0.000    2.667    0.000    0.000    0.000    0.000 
#
# Total GULP energy -401768.428604 kJ/mol
# GULP energy per Si atom -5580.117064 kJ/mol
# Density = 1.817987 g / cm^3
# Si number density = 18.221344 Si / 1000 Ang^3
#
#
#
# Elastic Constant Matrix: (Units=GPa)
#
#
# Indices 1 2 3 4 5 6 
#
# 1 33.6277 -14.7781 4.5673 0.0000 0.0000 0.0000
# 2 -14.7781 33.6277 4.5673 0.0000 0.0000 0.0000
# 3 4.5673 4.5673 22.1016 0.0000 0.0000 0.0000
# 4 0.0000 0.0000 0.0000 15.7555 0.0000 0.0000
# 5 0.0000 0.0000 0.0000 0.0000 15.7555 0.0000
# 6 0.0000 0.0000 0.0000 0.0000 0.0000 24.2029
#
#
#
# Elastic Compliance Matrix: (Units=1/GPa)
#
#
# Indices 1 2 3 4 5 6 
#
# 1 0.039807 0.019148 -0.012183 0.000000 0.000000 0.000000
# 2 0.019148 0.039807 -0.012183 0.000000 0.000000 0.000000
# 3 -0.012183 -0.012183 0.050281 0.000000 0.000000 0.000000
# 4 0.000000 0.000000 0.000000 0.063470 0.000000 0.000000
# 5 0.000000 0.000000 0.000000 0.000000 0.063470 0.000000
# 6 0.000000 0.000000 0.000000 0.000000 0.000000 0.041317
#
#
# Mechanical properties :
#
#
# Convention : Reuss Voigt Hill
#
# Bulk Modulus (GPa) = 8.37106 8.67445 8.52275
# Shear Modulus (GPa) = 14.35101 17.47614 15.91357
#
# Velocity S-wave (km/s) = 2.80945 3.10030 2.95845
# Velocity P-wave (km/s) = 3.88949 4.19365 4.04443
#
# Compressibility (1/GPa) = 0.11945914
#
# Stress axis : x y z
#
# Youngs Moduli (GPa) = 25.12123 25.12123 19.88829
#
# Poissons Ratio (x) = -0.48103 0.24230
# Poissons Ratio (y) = -0.48103 0.24230
# Poissons Ratio (z) = 0.30605 0.30605
#
# Static dielectric constant tensor:
#      x y z
#    x 1.623690 0.000000 0.000000 
#    y 0.000000 1.623690 0.000000 
#    z 0.000000 0.000000 1.619900 
# 
# From -- ./inp_files/1146.got.cif
#   From: 2010.05.17/outbox.cif.g08.bks.cpg/sg175_1_cif.got.tgz:1146.got - 2010.05.20 11:23:22.
