data_PCOD9581778
_publ_section_title
;
Structure prediction by ZEFSAII (Michael W. Deem and Ramdas Pophale) SiO2 
 PCOD9581778
Probable space group: P 63/M
;
_chemical_formula_sum "Si O2"
_cell_formula_units_Z 54
_cell_length_a 17.156139
_cell_length_b 17.156139
_cell_length_c 8.481813
_cell_angle_alpha 90.000000
_cell_angle_beta 90.000000
_cell_angle_gamma 120.000000
_cell_volume 2162.013679
_symmetry_space_group_name_H-M "P 63/M"
_symmetry_group_IT_number 176
_symmetry_cell_setting 'hexagonal'
loop_
_space_group_symop_operation_xyz
x,y,z
x-y,x,1/2+z
-y,x-y,z
-x,-y,1/2+z
-x+y,-x,z
y,-x+y,1/2+z
-x,-y,-z
-x+y,-x,1/2-z
y,-x+y,-z
x,y,1/2-z
x-y,x,-z
-y,x-y,1/2-z
loop_
_atom_site_type_symbol
_atom_site_label
_atom_site_fract_x
_atom_site_fract_y
_atom_site_fract_z
Si Si1 0.496649 0.498865 0.750000
Si Si2 0.616337 0.174814 0.915991
Si Si3 0.716577 0.578262 0.250000
Si Si4 0.188203 0.808135 0.425295
Si Si5 0.455508 0.646117 0.750000
Si Si6 0.872944 0.059047 0.573335
O O1 0.532038 0.460761 0.891367
O O2 0.388347 0.451864 0.750000
O O3 0.521707 0.602806 0.750000
O O4 0.608927 0.216548 0.750000
O O5 0.713722 0.182415 0.922163
O O6 0.609582 0.209403 0.086804
O O7 0.753384 0.622300 0.422863
O O8 0.758846 0.511645 0.250000
O O9 0.147610 0.771078 0.250000
O O10 0.197736 0.906067 0.438347
O O11 0.909919 0.078632 0.750000
O O12 0.955875 0.121079 0.462274
#
# Coordination Sequence:
#
# PCOD9581778 Si02
#       6
#     6  12   6  12   6  12
#     4  10  20  34  58  84 109 139 184 217 259 326
#     4   8  18  33  56  80 110 131 178 224 269 312
#     4  10  22  36  56  79 120 141 175 225 264 330
#     4   9  20  37  54  79 108 143 174 230 283 316
#     4  10  18  38  54  81 111 148 171 214 279 312
#     4  11  24  37  54  73 103 144 191 235 278 331
#
# _framework density 24.976713
#
# number of rings (size 3 to 8) (size 9 to 14) (size 15 to 20)
#    0.667    1.778    0.000    1.556    6.222    0.000 
#    2.667    0.000    0.000    0.000    0.000    0.000 
#    0.000    0.000    0.000    0.000    0.000    0.000 
#
# Total GULP energy -301147.723113 kJ/mol
# GULP energy per Si atom -5576.809687 kJ/mol
# Density = 2.491987 g / cm^3
# Si number density = 24.976713 Si / 1000 Ang^3
#
#
#
# Elastic Constant Matrix: (Units=GPa)
#
#
# Indices 1 2 3 4 5 6 
#
# 1 88.3928 29.7379 20.1325 0.0000 0.0000 0.0000
# 2 29.7379 88.3928 20.1325 0.0000 0.0000 0.0000
# 3 20.1325 20.1325 204.1035 0.0000 0.0000 0.0000
# 4 0.0000 0.0000 0.0000 9.0560 0.0000 0.0000
# 5 0.0000 0.0000 0.0000 0.0000 9.0560 0.0000
# 6 0.0000 0.0000 0.0000 0.0000 0.0000 29.3274
#
#
#
# Elastic Compliance Matrix: (Units=1/GPa)
#
#
# Indices 1 2 3 4 5 6 
#
# 1 0.012904 -0.004145 -0.000864 0.000000 0.000000 0.000000
# 2 -0.004145 0.012904 -0.000864 0.000000 0.000000 0.000000
# 3 -0.000864 -0.000864 0.005070 0.000000 0.000000 0.000000
# 4 0.000000 0.000000 0.000000 0.110424 0.000000 0.000000
# 5 0.000000 0.000000 0.000000 0.000000 0.110424 0.000000
# 6 0.000000 0.000000 0.000000 0.000000 0.000000 0.034098
#
#
# Mechanical properties :
#
#
# Convention : Reuss Voigt Hill
#
# Bulk Modulus (GPa) = 52.26524 57.87720 55.07122
# Shear Modulus (GPa) = 16.45025 30.21363 23.33194
#
# Velocity S-wave (km/s) = 2.56915 3.48181 3.05970
# Velocity P-wave (km/s) = 5.45635 6.27589 5.88041
#
# Compressibility (1/GPa) = 0.01913317
#
# Stress axis : x y z
#
# Youngs Moduli (GPa) = 77.49355 77.49355 197.24126
#
# Poissons Ratio (x) = 0.32118 0.17043
# Poissons Ratio (y) = 0.32118 0.17043
# Poissons Ratio (z) = 0.06696 0.06696
#
# Static dielectric constant tensor:
#      x y z
#    x 1.922950 0.000000 0.000000 
#    y 0.000000 1.922950 0.000000 
#    z 0.000000 0.000000 2.079750 
# 
# From -- ./inp_files/884.got.cif
#   From: 2010.05.17/outbox.cif.g08.bks.cpg/sg176_1_cif.got.tgz:884.got - 2010.06.03 11:36:45.
