data_PCOD9581138
_publ_section_title
;
Structure prediction by ZEFSAII (Michael W. Deem and Ramdas Pophale) SiO2 
 PCOD9581138
Probable space group: P -6
;
_chemical_formula_sum "Si O2"
_cell_formula_units_Z 28
_cell_length_a 12.771970
_cell_length_b 12.771970
_cell_length_c 7.413214
_cell_angle_alpha 90.000000
_cell_angle_beta 90.000000
_cell_angle_gamma 120.000000
_cell_volume 1047.256220
_symmetry_space_group_name_H-M "P -6"
_symmetry_group_IT_number 174
_symmetry_cell_setting 'hexagonal'
loop_
_space_group_symop_operation_xyz
x,y,z
-x+y,-x,-z
-y,x-y,z
x,y,-z
-x+y,-x,z
-y,x-y,-z
loop_
_atom_site_type_symbol
_atom_site_label
_atom_site_fract_x
_atom_site_fract_y
_atom_site_fract_z
Si Si1 0.333334 0.666668 0.220233
Si Si2 0.000000 0.000000 0.284762
Si Si3 0.612406 0.182492 0.715848
Si Si4 0.580281 0.717967 0.220883
Si Si5 0.666452 0.988623 0.210397
Si Si6 0.920769 0.186902 0.790153
O O1 0.441107 0.644265 0.276673
O O2 0.333334 0.666668 0.000000
O O3 0.119853 0.001185 0.218274
O O4 0.000000 0.000000 0.500000
O O5 0.749675 0.288707 0.771461
O O6 0.608785 0.177063 0.500000
O O7 0.585470 0.053365 0.782851
O O8 0.679799 0.685846 0.287705
O O9 0.620168 0.855084 0.280180
O O10 0.582312 0.714512 0.000000
O O11 0.793396 0.089698 0.294195
O O12 0.687883 0.978002 0.000000
O O13 0.900349 0.201144 0.000000
#
# Coordination Sequence:
#
# PCOD9581138 Si02
#       6
#     2   2   6   6   6   6
#     4   9  18  33  51  78 115 146 190 231 265 341
#     4  12  22  32  52  84 112 140 178 231 283 341
#     4   8  18  36  52  69 103 146 175 211 280 339
#     4   9  18  32  51  77 110 149 180 220 280 330
#     4  10  19  30  54  84 105 138 184 231 279 323
#     4  10  19  35  55  78 113 147 175 224 293 344
#
# _framework density 26.736532
#
# number of rings (size 3 to 8) (size 9 to 14) (size 15 to 20)
#    0.429    2.143    2.143    0.643    0.000    3.429 
#    0.000    4.286    0.000    0.000    0.000    4.500 
#    0.000    0.000    0.000    0.000    0.000    0.000 
#
# Total GULP energy -156473.374776 kJ/mol
# GULP energy per Si atom -5588.334813 kJ/mol
# Density = 2.667568 g / cm^3
# Si number density = 26.736532 Si / 1000 Ang^3
#
#
#
# Elastic Constant Matrix: (Units=GPa)
#
#
# Indices 1 2 3 4 5 6 
#
# 1 100.2291 12.1869 1.4069 0.0000 0.0000 -0.0006
# 2 12.1869 100.2311 1.4070 0.0000 0.0000 -0.0013
# 3 1.4069 1.4070 111.5799 0.0000 0.0000 -0.0001
# 4 0.0000 0.0000 0.0000 -626.5986 -0.0159 0.0000
# 5 0.0000 0.0000 0.0000 -0.0159 -626.5713 0.0000
# 6 -0.0006 -0.0013 -0.0001 0.0000 0.0000 44.0221
#
#
#
# Elastic Compliance Matrix: (Units=1/GPa)
#
#
# Indices 1 2 3 4 5 6 
#
# 1 0.010128 -0.001230 -0.000112 0.000000 0.000000 0.000000
# 2 -0.001230 0.010128 -0.000112 0.000000 0.000000 0.000000
# 3 -0.000112 -0.000112 0.008965 0.000000 0.000000 0.000000
# 4 0.000000 0.000000 0.000000 -0.001596 0.000000 0.000000
# 5 0.000000 0.000000 0.000000 0.000000 -0.001596 0.000000
# 6 0.000000 0.000000 0.000000 0.000000 0.000000 0.022716
#
#
# Mechanical properties :
#
#
# Convention : Reuss Voigt Hill
#
# Bulk Modulus (GPa) = 38.00441 38.00462 38.00451
# Shear Modulus (GPa) = 82.74743 -222.02694 -69.63975
#
# Velocity S-wave (km/s) = 5.56924 -9.12265 -5.10913
# Velocity P-wave (km/s) = 7.45657 9.83455 4.53420
#
# Compressibility (1/GPa) = 0.02631274
#
# Stress axis : x y z
#
# Youngs Moduli (GPa) = 98.73362 98.73556 111.54467
#
# Poissons Ratio (x) = 0.12144 0.01251
# Poissons Ratio (y) = 0.12143 0.01252
# Poissons Ratio (z) = 0.01108 0.01108
#
# Static dielectric constant tensor:
#      x y z
#    x 2.125430 0.000000 0.000000 
#    y 0.000000 2.125430 0.000000 
#    z 0.000000 0.000000 1.994110 
# 
# From -- ./inp_files/274.got.cif
#   From: 2010.05.17/outbox.cif.g08.bks.cpg/sg174_cif.got.tgz:274.got - 2010.05.20 11:22:48.
