data_PCOD9581896
_publ_section_title
;
Structure prediction by ZEFSAII (Michael W. Deem and Ramdas Pophale) SiO2 
 PCOD9581896
Probable space group: P 63/M
;
_chemical_formula_sum "Si O2"
_cell_formula_units_Z 60
_cell_length_a 12.853164
_cell_length_b 12.853164
_cell_length_c 25.940342
_cell_angle_alpha 90.000000
_cell_angle_beta 90.000000
_cell_angle_gamma 120.000000
_cell_volume 3711.303124
_symmetry_space_group_name_H-M "P 63/M"
_symmetry_group_IT_number 176
_symmetry_cell_setting 'hexagonal'
loop_
_space_group_symop_operation_xyz
x,y,z
x-y,x,1/2+z
-y,x-y,z
-x,-y,1/2+z
-x+y,-x,z
y,-x+y,1/2+z
-x,-y,-z
-x+y,-x,1/2-z
y,-x+y,-z
x,y,1/2-z
x-y,x,-z
-y,x-y,1/2-z
loop_
_atom_site_type_symbol
_atom_site_label
_atom_site_fract_x
_atom_site_fract_y
_atom_site_fract_z
Si Si1 0.420072 0.086694 0.652975
Si Si2 0.000505 0.247119 0.250000
Si Si3 0.245035 0.999679 0.559726
Si Si4 0.420072 0.333378 0.652975
Si Si5 0.999679 0.245035 0.440274
Si Si6 0.246614 0.247119 0.250000
O O1 0.350528 0.029373 0.599745
O O2 0.449206 0.224603 0.654137
O O3 0.540094 0.080188 0.658185
O O4 0.328225 0.020523 0.699748
O O5 0.020523 0.328225 0.199748
O O6 0.108069 0.216139 0.250000
O O7 0.872913 0.127087 0.250000
O O8 0.279635 0.000000 0.500000
O O9 0.214683 0.107342 0.565011
O O10 0.126890 0.873110 0.570996
O O11 0.350528 0.321155 0.599745
#
# Coordination Sequence:
#
# PCOD9581896 Si02
#       6
#    12   6  12  12  12   6
#     4  10  20  33  50  71  97 130 165 199 233 276
#     4  10  20  34  54  78 100 122 152 196 248 294
#     4   9  17  30  50  75 100 126 158 200 249 294
#     4  10  20  33  50  71  97 130 165 199 233 276
#     4   9  17  30  50  75 100 126 158 200 249 294
#     4  10  20  34  54  78 100 122 152 196 248 294
#
# _framework density 16.166829
#
# number of rings (size 3 to 8) (size 9 to 14) (size 15 to 20)
#    0.000    2.400    0.000    2.800    0.000    2.400 
#    0.000    6.000    0.000   11.200    0.000    0.000 
#    0.000    0.000    0.000    0.000    0.000    0.000 
#
# Total GULP energy -334728.745573 kJ/mol
# GULP energy per Si atom -5578.812426 kJ/mol
# Density = 1.613003 g / cm^3
# Si number density = 16.166829 Si / 1000 Ang^3
#
#
#
# Elastic Constant Matrix: (Units=GPa)
#
#
# Indices 1 2 3 4 5 6 
#
# 1 122.7558 88.5156 75.9994 0.0000 0.0000 0.0000
# 2 88.5156 122.7558 75.9994 0.0000 0.0000 0.0000
# 3 75.9994 75.9994 103.4562 0.0000 0.0000 0.0000
# 4 0.0000 0.0000 0.0000 14.5749 0.0000 0.0000
# 5 0.0000 0.0000 0.0000 0.0000 14.5749 0.0000
# 6 0.0000 0.0000 0.0000 0.0000 0.0000 17.1201
#
#
#
# Elastic Compliance Matrix: (Units=1/GPa)
#
#
# Indices 1 2 3 4 5 6 
#
# 1 0.019622 -0.009583 -0.007375 0.000000 0.000000 0.000000
# 2 -0.009583 0.019622 -0.007375 0.000000 0.000000 0.000000
# 3 -0.007375 -0.007375 0.020501 0.000000 0.000000 0.000000
# 4 0.000000 0.000000 0.000000 0.068611 0.000000 0.000000
# 5 0.000000 0.000000 0.000000 0.000000 0.068611 0.000000
# 6 0.000000 0.000000 0.000000 0.000000 0.000000 0.058411
#
#
# Mechanical properties :
#
#
# Convention : Reuss Voigt Hill
#
# Bulk Modulus (GPa) = 90.25186 92.22182 91.23684
# Shear Modulus (GPa) = 16.24767 16.48421 16.36594
#
# Velocity S-wave (km/s) = 3.17361 3.19663 3.18514
# Velocity P-wave (km/s) = 8.32920 8.41382 8.37162
#
# Compressibility (1/GPa) = 0.01108010
#
# Stress axis : x y z
#
# Youngs Moduli (GPa) = 50.96275 50.96275 48.77856
#
# Poissons Ratio (x) = 0.48839 0.35972
# Poissons Ratio (y) = 0.48839 0.35972
# Poissons Ratio (z) = 0.37583 0.37583
#
# Static dielectric constant tensor:
#      x y z
#    x 1.508220 0.000000 0.000000 
#    y 0.000000 1.508220 0.000000 
#    z 0.000000 0.000000 1.555180 
# 
# From -- ./inp_files/4230.got.cif
#   From: 2010.05.17/outbox.cif.g08.bks.cpg/sg176_3_cif.got.tgz:4230.got - 2010.06.03 11:36:45.
