data_PCOD9581393
_publ_section_title
;
Structure prediction by ZEFSAII (Michael W. Deem and Ramdas Pophale) SiO2 
 PCOD9581393
Probable space group: P 6/M
;
_chemical_formula_sum "Si O2"
_cell_formula_units_Z 72
_cell_length_a 23.543847
_cell_length_b 23.543847
_cell_length_c 8.794704
_cell_angle_alpha 90.000000
_cell_angle_beta 90.000000
_cell_angle_gamma 120.000000
_cell_volume 4221.888044
_symmetry_space_group_name_H-M "P 6/M"
_symmetry_group_IT_number 175
_symmetry_cell_setting 'hexagonal'
loop_
_space_group_symop_operation_xyz
x,y,z
x-y,x,z
-y,x-y,z
-x,-y,z
-x+y,-x,z
y,-x+y,z
-x,-y,-z
-x+y,-x,-z
y,-x+y,-z
x,y,-z
x-y,x,-z
-y,x-y,-z
loop_
_atom_site_type_symbol
_atom_site_label
_atom_site_fract_x
_atom_site_fract_y
_atom_site_fract_z
Si Si1 0.001144 0.257995 0.181589
Si Si2 0.254442 0.871655 0.681650
Si Si3 0.525876 0.596927 0.317558
Si Si4 0.132000 0.743574 0.183009
Si Si5 0.131338 0.134961 0.318001
Si Si6 0.074480 0.596004 0.182701
O O1 0.065742 0.317357 0.255167
O O2 0.995478 0.190071 0.230996
O O3 0.934747 0.257243 0.229811
O O4 0.006640 0.265740 0.000000
O O5 0.249226 0.871125 0.500000
O O6 0.326736 0.884165 0.721369
O O7 0.195398 0.804654 0.746420
O O8 0.524844 0.590069 0.500000
O O9 0.453884 0.549372 0.250971
O O10 0.571271 0.569722 0.247803
O O11 0.120927 0.672028 0.222928
O O12 0.136619 0.750026 0.000000
O O13 0.062224 0.129674 0.282061
O O14 0.142125 0.146005 0.500000
O O15 0.069934 0.590009 0.000000
#
# Coordination Sequence:
#
# PCOD9581393 Si02
#       6
#    12  12  12  12  12  12
#     4  11  22  37  54  76 108 142 178 227 279 328
#     4  11  23  36  55  82 113 149 185 223 272 326
#     4  10  20  34  54  83 113 142 177 222 270 321
#     4  10  22  37  55  81 113 148 186 227 272 322
#     4  10  21  37  55  74  97 131 177 227 278 333
#     4  10  19  34  57  83 109 143 180 220 270 321
#
# _framework density 17.053979999999999
#
# number of rings (size 3 to 8) (size 9 to 14) (size 15 to 20)
#    0.000    1.667    1.667    4.167    0.000    8.667 
#    0.000    0.000    0.000    1.667    0.000    0.000 
#    0.000    0.000    0.000    0.000    0.000    0.000 
#
# Total GULP energy -402159.286089 kJ/mol
# GULP energy per Si atom -5585.545640 kJ/mol
# Density = 1.701516 g / cm^3
# Si number density = 17.053980 Si / 1000 Ang^3
#
#
#
# Elastic Constant Matrix: (Units=GPa)
#
#
# Indices 1 2 3 4 5 6 
#
# 1 108.2797 55.7364 35.9850 0.0000 0.0000 0.0000
# 2 55.7364 108.2797 35.9850 0.0000 0.0000 0.0000
# 3 35.9850 35.9850 40.0092 0.0000 0.0000 0.0000
# 4 0.0000 0.0000 0.0000 28.9127 0.0000 0.0000
# 5 0.0000 0.0000 0.0000 0.0000 28.9127 0.0000
# 6 0.0000 0.0000 0.0000 0.0000 0.0000 26.2716
#
#
#
# Elastic Compliance Matrix: (Units=1/GPa)
#
#
# Indices 1 2 3 4 5 6 
#
# 1 0.014552 -0.004480 -0.009059 0.000000 0.000000 0.000000
# 2 -0.004480 0.014552 -0.009059 0.000000 0.000000 0.000000
# 3 -0.009059 -0.009059 0.041290 0.000000 0.000000 0.000000
# 4 0.000000 0.000000 0.000000 0.034587 0.000000 0.000000
# 5 0.000000 0.000000 0.000000 0.000000 0.034587 0.000000
# 6 0.000000 0.000000 0.000000 0.000000 0.000000 0.038064
#
#
# Mechanical properties :
#
#
# Convention : Reuss Voigt Hill
#
# Bulk Modulus (GPa) = 39.68565 56.88681 48.28623
# Shear Modulus (GPa) = 21.62384 25.41022 23.51703
#
# Velocity S-wave (km/s) = 3.56471 3.86422 3.71749
# Velocity P-wave (km/s) = 6.34539 7.30335 6.84116
#
# Compressibility (1/GPa) = 0.02519803
#
# Stress axis : x y z
#
# Youngs Moduli (GPa) = 68.71922 68.71922 24.21910
#
# Poissons Ratio (x) = 0.30786 0.21940
# Poissons Ratio (y) = 0.30786 0.21940
# Poissons Ratio (z) = 0.62252 0.62252
#
# Static dielectric constant tensor:
#      x y z
#    x 1.561600 0.000000 0.000000 
#    y 0.000000 1.561600 0.000000 
#    z 0.000000 0.000000 1.575450 
# 
# From -- ./inp_files/1166.got.cif
#   From: 2010.05.17/outbox.cif.g08.bks.cpg/sg175_1_cif.got.tgz:1166.got - 2010.05.20 11:23:22.
