data_PCOD9581877
_publ_section_title
;
Structure prediction by ZEFSAII (Michael W. Deem and Ramdas Pophale) SiO2 
 PCOD9581877
Probable space group: P 63/M
;
_chemical_formula_sum "Si O2"
_cell_formula_units_Z 84
_cell_length_a 17.848044
_cell_length_b 17.848044
_cell_length_c 14.669314
_cell_angle_alpha 90.000000
_cell_angle_beta 90.000000
_cell_angle_gamma 120.000000
_cell_volume 4046.892726
_symmetry_space_group_name_H-M "P 63/M"
_symmetry_group_IT_number 176
_symmetry_cell_setting 'hexagonal'
loop_
_space_group_symop_operation_xyz
x,y,z
x-y,x,1/2+z
-y,x-y,z
-x,-y,1/2+z
-x+y,-x,z
y,-x+y,1/2+z
-x,-y,-z
-x+y,-x,1/2-z
y,-x+y,-z
x,y,1/2-z
x-y,x,-z
-y,x-y,1/2-z
loop_
_atom_site_type_symbol
_atom_site_label
_atom_site_fract_x
_atom_site_fract_y
_atom_site_fract_z
Si Si1 0.191999 0.085940 0.484762
Si Si2 0.169818 0.685633 0.981955
Si Si3 0.397446 0.029357 0.642636
Si Si4 0.867565 0.175633 0.650714
Si Si5 0.319775 0.894614 0.347025
Si Si6 0.856676 0.496844 0.035373
Si Si7 0.753634 0.680351 0.147736
O O1 0.137569 0.132059 0.467390
O O2 0.263136 0.139570 0.560796
O O3 0.239037 0.074810 0.397812
O O4 0.166169 0.599946 0.942121
O O5 0.268553 0.766660 0.977686
O O6 0.123006 0.722401 0.918134
O O7 0.107794 0.647809 0.073040
O O8 0.424611 0.036639 0.750000
O O9 0.317026 0.047613 0.643269
O O10 0.369168 0.934293 0.601533
O O11 0.869401 0.137895 0.750000
O O12 0.780162 0.182096 0.650879
O O13 0.358757 0.891423 0.250000
O O14 0.372536 0.896850 0.433996
O O15 0.308077 0.978160 0.347890
O O16 0.773379 0.664454 0.250000
#
# Coordination Sequence:
#
# PCOD9581877 Si02
#       7
#    12  12  12  12  12  12  12
#     4  12  24  40  62  95 138 180 225 278 342 406
#     4  12  26  45  69 100 138 180 219 271 339 409
#     4  11  24  42  69 102 132 171 229 284 328 385
#     4  10  20  38  65  96 129 167 216 278 334 383
#     4  10  19  38  68  98 129 167 217 278 334 390
#     4  12  25  45  66 100 140 179 220 274 340 410
#     4  11  24  42  67  95 123 171 228 275 325 392
#
# _framework density 20.756665999999999
#
# number of rings (size 3 to 8) (size 9 to 14) (size 15 to 20)
#    0.000    0.857    5.714    0.857    2.000    2.286 
#    0.000    0.000    0.000    5.143    0.000    0.000 
#    0.000    0.000    0.000    0.000    0.000    0.000 
#
# Total GULP energy -467953.574948 kJ/mol
# GULP energy per Si atom -5570.875892 kJ/mol
# Density = 2.070942 g / cm^3
# Si number density = 20.756666 Si / 1000 Ang^3
#
#
#
# Elastic Constant Matrix: (Units=GPa)
#
#
# Indices 1 2 3 4 5 6 
#
# 1 69.9847 23.9854 18.7166 0.0000 0.0000 0.0000
# 2 23.9854 69.9847 18.7166 0.0000 0.0000 0.0000
# 3 18.7166 18.7166 90.5649 0.0000 0.0000 0.0000
# 4 0.0000 0.0000 0.0000 -35.1114 0.0000 0.0000
# 5 0.0000 0.0000 0.0000 0.0000 -35.1114 0.0000
# 6 0.0000 0.0000 0.0000 0.0000 0.0000 22.9996
#
#
#
# Elastic Compliance Matrix: (Units=1/GPa)
#
#
# Indices 1 2 3 4 5 6 
#
# 1 0.016668 -0.005072 -0.002397 0.000000 0.000000 0.000000
# 2 -0.005072 0.016668 -0.002397 0.000000 0.000000 0.000000
# 3 -0.002397 -0.002397 0.012032 0.000000 0.000000 0.000000
# 4 0.000000 0.000000 0.000000 -0.028481 0.000000 0.000000
# 5 0.000000 0.000000 0.000000 0.000000 -0.028481 0.000000
# 6 0.000000 0.000000 0.000000 0.000000 0.000000 0.043479
#
#
# Mechanical properties :
#
#
# Convention : Reuss Voigt Hill
#
# Bulk Modulus (GPa) = 39.00335 39.26353 39.13344
# Shear Modulus (GPa) = 83.11012 1.82976 42.46994
#
# Velocity S-wave (km/s) = 6.33460 0.93992 4.52828
# Velocity P-wave (km/s) = 8.50496 4.48721 6.79961
#
# Compressibility (1/GPa) = 0.02563883
#
# Stress axis : x y z
#
# Youngs Moduli (GPa) = 59.99552 59.99552 83.10907
#
# Poissons Ratio (x) = 0.30427 0.19918
# Poissons Ratio (y) = 0.30427 0.19918
# Poissons Ratio (z) = 0.14378 0.14378
#
# Static dielectric constant tensor:
#      x y z
#    x 1.776650 0.000000 0.000000 
#    y 0.000000 1.776650 0.000000 
#    z 0.000000 0.000000 1.790880 
# 
# From -- ./inp_files/2936.got.cif
#   From: 2010.05.17/outbox.cif.g08.bks.cpg/sg176_2_cif.got.tgz:2936.got - 2010.06.03 11:36:45.
