data_PCOD9581059
_publ_section_title
;
Structure prediction by ZEFSAII (Michael W. Deem and Ramdas Pophale) SiO2 
 PCOD9581059
Probable space group: P 63
;
_chemical_formula_sum "Si O2"
_cell_formula_units_Z 42
_cell_length_a 14.286932
_cell_length_b 14.286932
_cell_length_c 11.807792
_cell_angle_alpha 90.000000
_cell_angle_beta 90.000000
_cell_angle_gamma 120.000000
_cell_volume 2087.263513
_symmetry_space_group_name_H-M "P 63"
_symmetry_group_IT_number 173
_symmetry_cell_setting 'hexagonal'
loop_
_space_group_symop_operation_xyz
x,y,z
x-y,x,1/2+z
-y,x-y,z
-x,-y,1/2+z
-x+y,-x,z
y,-x+y,1/2+z
loop_
_atom_site_type_symbol
_atom_site_label
_atom_site_fract_x
_atom_site_fract_y
_atom_site_fract_z
Si Si1 0.508058 0.004557 0.900090
Si Si2 0.048220 0.330131 0.535871
Si Si3 0.716537 0.615160 0.977971
Si Si4 0.406653 0.356235 0.688431
Si Si5 0.797050 0.441044 0.510114
Si Si6 0.008083 0.221305 0.774841
Si Si7 0.192718 0.988014 0.318863
O O1 0.598544 0.009914 0.987217
O O2 0.489818 0.105246 0.922513
O O3 0.544874 0.001212 0.774360
O O4 0.395249 0.895379 0.924010
O O5 0.178007 0.388600 0.517116
O O6 0.008208 0.285118 0.661909
O O7 0.008412 0.226876 0.452138
O O8 0.746318 0.709559 0.885115
O O9 0.665085 0.635236 0.089755
O O10 0.504410 0.350563 0.629840
O O11 0.323941 0.255320 0.763063
O O12 0.686326 0.442350 0.496359
O O13 0.128027 0.239055 0.783227
O O14 0.928402 0.091277 0.776950
#
# Coordination Sequence:
#
# PCOD9581059 Si02
#       7
#     6   6   6   6   6   6   6
#     4  10  23  40  66  91 129 168 221 276 330 394
#     4  10  23  41  63  94 125 170 216 266 338 388
#     4  10  23  42  61  93 127 172 215 266 338 390
#     4  10  21  39  61  91 128 166 215 275 323 391
#     4   9  22  40  63  93 127 168 224 268 324 393
#     4  11  23  38  66  89 132 170 214 266 334 389
#     4  10  23  38  60  95 124 170 213 269 321 399
#
# _framework density 20.122039999999998
#
# number of rings (size 3 to 8) (size 9 to 14) (size 15 to 20)
#    0.286    1.714    1.429    0.286    8.000    5.714 
#    0.857    0.000    0.000    0.000    0.000    0.000 
#    0.000    0.000    0.000    0.000    0.000    0.000 
#
# Total GULP energy -233924.958134 kJ/mol
# GULP energy per Si atom -5569.641860 kJ/mol
# Density = 2.007624 g / cm^3
# Si number density = 20.122040 Si / 1000 Ang^3
#
#
#
# Elastic Constant Matrix: (Units=GPa)
#
#
# Indices 1 2 3 4 5 6 
#
# 1 54.7406 1.3588 0.8263 0.0000 0.0000 0.0000
# 2 1.3588 54.7406 0.8263 0.0000 0.0000 0.0000
# 3 0.8263 0.8263 78.6047 0.0000 0.0000 0.0000
# 4 0.0000 0.0000 0.0000 19.6935 0.0000 0.0000
# 5 0.0000 0.0000 0.0000 0.0000 19.6935 0.0000
# 6 0.0000 0.0000 0.0000 0.0000 0.0000 26.6909
#
#
#
# Elastic Compliance Matrix: (Units=1/GPa)
#
#
# Indices 1 2 3 4 5 6 
#
# 1 0.018282 -0.000451 -0.000187 0.000000 0.000000 0.000000
# 2 -0.000451 0.018282 -0.000187 0.000000 0.000000 0.000000
# 3 -0.000187 -0.000187 0.012726 0.000000 0.000000 0.000000
# 4 0.000000 0.000000 0.000000 0.050778 0.000000 0.000000
# 5 0.000000 0.000000 0.000000 0.000000 0.050778 0.000000
# 6 0.000000 0.000000 0.000000 0.000000 0.000000 0.037466
#
#
# Mechanical properties :
#
#
# Convention : Reuss Voigt Hill
#
# Bulk Modulus (GPa) = 20.99160 21.56764 21.27962
# Shear Modulus (GPa) = 24.29032 25.55387 24.92209
#
# Velocity S-wave (km/s) = 3.47818 3.56749 3.52312
# Velocity P-wave (km/s) = 5.15607 5.26413 5.21038
#
# Compressibility (1/GPa) = 0.04763811
#
# Stress axis : x y z
#
# Youngs Moduli (GPa) = 54.69860 54.69860 78.58036
#
# Poissons Ratio (x) = 0.02467 0.01473
# Poissons Ratio (y) = 0.02467 0.01473
# Poissons Ratio (z) = 0.01025 0.01025
#
# Static dielectric constant tensor:
#      x y z
#    x 1.752050 0.000000 0.000000 
#    y 0.000000 1.752050 0.000000 
#    z 0.000000 0.000000 1.732480 
# 
# From -- ./inp_files/894.got.cif
#   From: 2010.05.17/outbox.cif.g08.bks.cpg/sg173_cif.got.tgz:894.got - 2010.05.20 11:21:53.
