data_PCOD9581810
_publ_section_title
;
Structure prediction by ZEFSAII (Michael W. Deem and Ramdas Pophale) SiO2 
 PCOD9581810
Probable space group: P 63/M
;
_chemical_formula_sum "Si O2"
_cell_formula_units_Z 72
_cell_length_a 22.316078
_cell_length_b 22.316078
_cell_length_c 7.565088
_cell_angle_alpha 90.000000
_cell_angle_beta 90.000000
_cell_angle_gamma 120.000000
_cell_volume 3262.724149
_symmetry_space_group_name_H-M "P 63/M"
_symmetry_group_IT_number 176
_symmetry_cell_setting 'hexagonal'
loop_
_space_group_symop_operation_xyz
x,y,z
x-y,x,1/2+z
-y,x-y,z
-x,-y,1/2+z
-x+y,-x,z
y,-x+y,1/2+z
-x,-y,-z
-x+y,-x,1/2-z
y,-x+y,-z
x,y,1/2-z
x-y,x,-z
-y,x-y,1/2-z
loop_
_atom_site_type_symbol
_atom_site_label
_atom_site_fract_x
_atom_site_fract_y
_atom_site_fract_z
Si Si1 0.885771 0.849779 0.547837
Si Si2 0.632698 0.796060 0.535871
Si Si3 0.685638 0.601590 0.549440
Si Si4 0.450758 0.810298 0.957062
Si Si5 0.790343 0.482212 0.034021
Si Si6 0.251353 0.987338 0.967276
O O1 0.894598 0.834553 0.750000
O O2 0.957301 0.870791 0.453824
O O3 0.815454 0.785431 0.473310
O O4 0.633507 0.803435 0.750000
O O5 0.623837 0.857179 0.456331
O O6 0.562605 0.725275 0.486925
O O7 0.699703 0.792454 0.481920
O O8 0.661261 0.594743 0.750000
O O9 0.645303 0.524920 0.471470
O O10 0.689116 0.669732 0.470508
O O11 0.436793 0.795230 0.750000
O O12 0.458959 0.746672 0.028031
O O13 0.384880 0.812983 0.029344
O O14 0.789725 0.481598 0.250000
O O15 0.252334 0.989693 0.750000
#
# Coordination Sequence:
#
# PCOD9581810 Si02
#       6
#    12  12  12  12  12  12
#     4  11  22  37  55  77 102 130 161 199 243 292
#     4   9  17  33  53  72  93 125 165 204 238 280
#     4  10  19  32  48  71 100 128 156 197 246 292
#     4   9  16  29  48  72  97 127 164 203 241 283
#     4   8  14  25  47  71  92 119 160 203 235 270
#     4   9  19  34  53  73  97 129 165 198 239 289
#
# _framework density 22.067450000000001
#
# number of rings (size 3 to 8) (size 9 to 14) (size 15 to 20)
#    0.000    2.667    0.000    3.500    0.000    1.333 
#    0.000    9.167    0.000    0.000    0.000    0.000 
#    0.000    0.000    0.000    0.000    0.000    0.000 
#
# Total GULP energy -401762.312341 kJ/mol
# GULP energy per Si atom -5580.032116 kJ/mol
# Density = 2.201722 g / cm^3
# Si number density = 22.067450 Si / 1000 Ang^3
#
#
#
# Elastic Constant Matrix: (Units=GPa)
#
#
# Indices 1 2 3 4 5 6 
#
# 1 58.6194 -13.1698 -2.4335 0.0000 0.0000 0.0000
# 2 -13.1698 58.6194 -2.4335 0.0000 0.0000 0.0000
# 3 -2.4335 -2.4335 50.3388 0.0000 0.0000 0.0000
# 4 0.0000 0.0000 0.0000 6.2831 0.0000 0.0000
# 5 0.0000 0.0000 0.0000 0.0000 6.2831 0.0000
# 6 0.0000 0.0000 0.0000 0.0000 0.0000 35.8946
#
#
#
# Elastic Compliance Matrix: (Units=1/GPa)
#
#
# Indices 1 2 3 4 5 6 
#
# 1 0.018023 0.004094 0.001069 0.000000 0.000000 0.000000
# 2 0.004094 0.018023 0.001069 0.000000 0.000000 0.000000
# 3 0.001069 0.001069 0.019969 0.000000 0.000000 0.000000
# 4 0.000000 0.000000 0.000000 0.159156 0.000000 0.000000
# 5 0.000000 0.000000 0.000000 0.000000 0.159156 0.000000
# 6 0.000000 0.000000 0.000000 0.000000 0.000000 0.027859
#
#
# Mechanical properties :
#
#
# Convention : Reuss Voigt Hill
#
# Bulk Modulus (GPa) = 14.60293 14.61153 14.60723
# Shear Modulus (GPa) = 12.11975 22.06648 17.09312
#
# Velocity S-wave (km/s) = 2.34607 3.16564 2.78616
# Velocity P-wave (km/s) = 3.73772 4.47184 4.12116
#
# Compressibility (1/GPa) = 0.06847939
#
# Stress axis : x y z
#
# Youngs Moduli (GPa) = 55.48376 55.48376 50.07823
#
# Poissons Ratio (x) = -0.22713 -0.05354
# Poissons Ratio (y) = -0.22713 -0.05354
# Poissons Ratio (z) = -0.05932 -0.05932
#
# Static dielectric constant tensor:
#      x y z
#    x 1.807080 0.000000 0.000000 
#    y 0.000000 1.807080 0.000000 
#    z 0.000000 0.000000 1.846610 
# 
# From -- ./inp_files/1177.got.cif
#   From: 2010.05.17/outbox.cif.g08.bks.cpg/sg176_1_cif.got.tgz:1177.got - 2010.06.03 11:36:45.
