data_PCOD9581280
_publ_section_title
;
Structure prediction by ZEFSAII (Michael W. Deem and Ramdas Pophale) SiO2 
 PCOD9581280
Probable space group: P 6/M
;
_chemical_formula_sum "Si O2"
_cell_formula_units_Z 78
_cell_length_a 23.112702
_cell_length_b 23.112702
_cell_length_c 7.743515
_cell_angle_alpha 90.000000
_cell_angle_beta 90.000000
_cell_angle_gamma 120.000000
_cell_volume 3582.368152
_symmetry_space_group_name_H-M "P 6/M"
_symmetry_group_IT_number 175
_symmetry_cell_setting 'hexagonal'
loop_
_space_group_symop_operation_xyz
x,y,z
x-y,x,z
-y,x-y,z
-x,-y,z
-x+y,-x,z
y,-x+y,z
-x,-y,-z
-x+y,-x,-z
y,-x+y,-z
x,y,-z
x-y,x,-z
-y,x-y,-z
loop_
_atom_site_type_symbol
_atom_site_label
_atom_site_fract_x
_atom_site_fract_y
_atom_site_fract_z
Si Si1 0.059055 0.668593 0.700188
Si Si2 0.943882 0.205298 0.801003
Si Si3 0.526416 0.573922 0.802314
Si Si4 0.202960 0.684556 0.310079
Si Si5 0.094078 0.290707 0.212625
Si Si6 0.750487 0.357619 0.000000
Si Si7 0.446723 0.287048 0.789823
O O1 0.039541 0.668395 0.500000
O O2 0.074512 0.736431 0.790829
O O3 0.001054 0.606152 0.797999
O O4 0.126452 0.665670 0.698982
O O5 0.879293 0.141356 0.726201
O O6 0.018576 0.241390 0.727281
O O7 0.949362 0.189166 0.000000
O O8 0.500000 0.500000 0.721226
O O9 0.519435 0.635475 0.729264
O O10 0.500773 0.562248 0.000000
O O11 0.219934 0.671806 0.500000
O O12 0.247967 0.763742 0.271186
O O13 0.211640 0.639253 0.170672
O O14 0.123879 0.368276 0.264512
O O15 0.094285 0.291699 0.000000
O O16 0.717317 0.403108 0.000000
O O17 0.446968 0.288551 0.000000
#
# Coordination Sequence:
#
# PCOD9581280 Si02
#       7
#    12  12  12  12  12   6  12
#     4  11  23  36  55  87 120 156 195 242 307 367
#     4  10  18  33  56  83 114 154 200 249 300 361
#     4  10  22  38  57  85 118 156 197 245 296 366
#     4  11  24  41  66  95 122 157 204 255 310 370
#     4   9  17  29  55  85 113 152 199 250 302 364
#     4  10  26  48  68  88 112 159 204 260 315 366
#     4  10  18  34  59  88 118 155 202 241 303 371
#
# _framework density 21.773306000000002
#
# number of rings (size 3 to 8) (size 9 to 14) (size 15 to 20)
#    0.154    1.692    3.846    0.462    2.154    2.769 
#    0.000    2.308    0.000    0.308    0.000    2.154 
#    0.000    0.000    0.000    1.385    0.000    1.538 
#
# Total GULP energy -435556.341483 kJ/mol
# GULP energy per Si atom -5584.055660 kJ/mol
# Density = 2.172375 g / cm^3
# Si number density = 21.773306 Si / 1000 Ang^3
#
#
#
# Elastic Constant Matrix: (Units=GPa)
#
#
# Indices 1 2 3 4 5 6 
#
# 1 74.1926 5.2707 13.2385 0.0000 0.0000 0.0000
# 2 5.2707 74.1926 13.2385 0.0000 0.0000 0.0000
# 3 13.2385 13.2385 64.5081 0.0000 0.0000 0.0000
# 4 0.0000 0.0000 0.0000 -13.4855 0.0000 0.0000
# 5 0.0000 0.0000 0.0000 0.0000 -13.4855 0.0000
# 6 0.0000 0.0000 0.0000 0.0000 0.0000 34.4610
#
#
#
# Elastic Compliance Matrix: (Units=1/GPa)
#
#
# Indices 1 2 3 4 5 6 
#
# 1 0.014009 -0.000501 -0.002772 0.000000 0.000000 0.000000
# 2 -0.000501 0.014009 -0.002772 0.000000 0.000000 0.000000
# 3 -0.002772 -0.002772 0.016640 0.000000 0.000000 0.000000
# 4 0.000000 0.000000 0.000000 -0.074154 0.000000 0.000000
# 5 0.000000 0.000000 0.000000 0.000000 -0.074154 0.000000
# 6 0.000000 0.000000 0.000000 0.000000 0.000000 0.029018
#
#
# Mechanical properties :
#
#
# Convention : Reuss Voigt Hill
#
# Bulk Modulus (GPa) = 30.70567 30.70988 30.70778
# Shear Modulus (GPa) = -96.73619 13.57438 -41.58091
#
# Velocity S-wave (km/s) = -6.67272 2.49959 -4.37477
# Velocity P-wave (km/s) = 6.72562 4.73979 3.37404
#
# Compressibility (1/GPa) = 0.03256727
#
# Stress axis : x y z
#
# Youngs Moduli (GPa) = 71.38454 71.38454 60.09704
#
# Poissons Ratio (x) = 0.03573 0.16660
# Poissons Ratio (y) = 0.03573 0.16660
# Poissons Ratio (z) = 0.19789 0.19789
#
# Static dielectric constant tensor:
#      x y z
#    x 1.791200 0.000000 0.000000 
#    y 0.000000 1.791200 0.000000 
#    z 0.000000 0.000000 1.872180 
# 
# From -- ./inp_files/1346.got.cif
#   From: 2010.05.17/outbox.cif.g08.bks.cpg/sg175_1_cif.got.tgz:1346.got - 2010.05.20 11:23:22.
