data_PCOD9581783
_publ_section_title
;
Structure prediction by ZEFSAII (Michael W. Deem and Ramdas Pophale) SiO2 
 PCOD9581783
Probable space group: P 63/M
;
_chemical_formula_sum "Si O2"
_cell_formula_units_Z 40
_cell_length_a 19.655054
_cell_length_b 19.655054
_cell_length_c 8.827977
_cell_angle_alpha 90.000000
_cell_angle_beta 90.000000
_cell_angle_gamma 120.000000
_cell_volume 2953.522661
_symmetry_space_group_name_H-M "P 63/M"
_symmetry_group_IT_number 176
_symmetry_cell_setting 'hexagonal'
loop_
_space_group_symop_operation_xyz
x,y,z
x-y,x,1/2+z
-y,x-y,z
-x,-y,1/2+z
-x+y,-x,z
y,-x+y,1/2+z
-x,-y,-z
-x+y,-x,1/2-z
y,-x+y,-z
x,y,1/2-z
x-y,x,-z
-y,x-y,1/2-z
loop_
_atom_site_type_symbol
_atom_site_label
_atom_site_fract_x
_atom_site_fract_y
_atom_site_fract_z
Si Si1 0.666668 0.333334 0.431226
Si Si2 0.089889 0.474713 0.431533
Si Si3 0.748298 0.507292 0.568991
Si Si4 0.088874 0.623823 0.930689
O O1 0.666667 0.333334 0.250000
O O2 0.704070 0.421183 0.494383
O O3 0.091857 0.488118 0.250000
O O4 0.159868 0.457712 0.467611
O O5 0.103810 0.554019 0.512336
O O6 0.001994 0.406647 0.470294
O O7 0.738995 0.499339 0.750000
O O8 0.704419 0.551576 0.506697
O O9 0.097647 0.630314 0.750000
#
# Coordination Sequence:
#
# PCOD9581783 Si02
#       4
#     4  12  12  12
#     4  12  22  29  40  63  82 104 145 186 208 239
#     4   9  19  32  44  58  81 110 139 172 212 251
#     4  11  20  31  45  60  82 112 139 172 216 256
#     4  10  19  30  44  62  81 105 140 178 209 243
#
# _framework density 13.543150000000001
#
# number of rings (size 3 to 8) (size 9 to 14) (size 15 to 20)
#    0.000    1.800    3.000    2.700    0.000    2.400 
#    0.000    0.000    0.000    0.000    0.000    0.000 
#    0.000    0.000    0.000    0.900    0.000   10.800 
#
# Total GULP energy -223125.671023 kJ/mol
# GULP energy per Si atom -5578.141776 kJ/mol
# Density = 1.351233 g / cm^3
# Si number density = 13.543150 Si / 1000 Ang^3
#
#
#
# Elastic Constant Matrix: (Units=GPa)
#
#
# Indices 1 2 3 4 5 6 
#
# 1 93.9912 48.9906 37.3379 0.0000 0.0000 0.0002
# 2 48.9906 93.9908 37.3385 0.0000 0.0000 -0.0005
# 3 37.3379 37.3385 45.9247 0.0000 0.0000 -0.0002
# 4 0.0000 0.0000 0.0000 19.3260 -0.0001 0.0000
# 5 0.0000 0.0000 0.0000 -0.0001 19.3258 0.0000
# 6 0.0002 -0.0005 -0.0002 0.0000 0.0000 22.5003
#
#
#
# Elastic Compliance Matrix: (Units=1/GPa)
#
#
# Indices 1 2 3 4 5 6 
#
# 1 0.017189 -0.005033 -0.009883 0.000000 0.000000 0.000000
# 2 -0.005033 0.017189 -0.009883 0.000000 0.000000 0.000000
# 3 -0.009883 -0.009883 0.037845 0.000000 0.000000 0.000000
# 4 0.000000 0.000000 0.000000 0.051744 0.000000 0.000000
# 5 0.000000 0.000000 0.000000 0.000000 0.051744 0.000000
# 6 0.000000 0.000000 0.000000 0.000000 0.000000 0.044444
#
#
# Mechanical properties :
#
#
# Convention : Reuss Voigt Hill
#
# Bulk Modulus (GPa) = 44.19966 53.47122 48.83544
# Shear Modulus (GPa) = 18.03144 19.57973 18.80559
#
# Velocity S-wave (km/s) = 3.65280 3.80640 3.73039
# Velocity P-wave (km/s) = 7.10617 7.67373 7.39539
#
# Compressibility (1/GPa) = 0.02262461
#
# Stress axis : x y z
#
# Youngs Moduli (GPa) = 58.17818 58.17694 26.42372
#
# Poissons Ratio (x) = 0.29282 0.26113
# Poissons Ratio (y) = 0.29283 0.26115
# Poissons Ratio (z) = 0.57495 0.57497
#
# Static dielectric constant tensor:
#      x y z
#    x 1.446980 0.000000 0.000000 
#    y 0.000000 1.446980 0.000000 
#    z 0.000000 0.000000 1.453270 
# 
# From -- ./inp_files/503.got.cif
#   From: 2010.05.17/outbox.cif.g08.bks.cpg/sg176_1_cif.got.tgz:503.got - 2010.06.03 11:36:45.
