data_PCOD9581357
_publ_section_title
;
Structure prediction by ZEFSAII (Michael W. Deem and Ramdas Pophale) SiO2 
 PCOD9581357
Probable space group: P 6/M
;
_chemical_formula_sum "Si O2"
_cell_formula_units_Z 78
_cell_length_a 23.750520
_cell_length_b 23.750520
_cell_length_c 9.820659
_cell_angle_alpha 90.000000
_cell_angle_beta 90.000000
_cell_angle_gamma 120.000000
_cell_volume 4797.527892
_symmetry_space_group_name_H-M "P 6/M"
_symmetry_group_IT_number 175
_symmetry_cell_setting 'hexagonal'
loop_
_space_group_symop_operation_xyz
x,y,z
x-y,x,z
-y,x-y,z
-x,-y,z
-x+y,-x,z
y,-x+y,z
-x,-y,-z
-x+y,-x,-z
y,-x+y,-z
x,y,-z
x-y,x,-z
-y,x-y,-z
loop_
_atom_site_type_symbol
_atom_site_label
_atom_site_fract_x
_atom_site_fract_y
_atom_site_fract_z
Si Si1 0.151786 0.400365 0.160981
Si Si2 0.397799 0.933259 0.836306
Si Si3 0.087869 0.934806 0.000000
Si Si4 0.853730 0.270203 0.334015
Si Si5 0.731887 0.940604 0.345787
Si Si6 0.249854 0.168985 0.766883
Si Si7 0.398675 0.483110 0.165494
O O1 0.109980 0.433497 0.206542
O O2 0.212723 0.422552 0.261078
O O3 0.108034 0.322325 0.175589
O O4 0.169937 0.414989 0.000000
O O5 0.446527 0.906927 0.800136
O O6 0.431699 0.009114 0.799025
O O7 0.396804 0.933364 0.000000
O O8 0.117529 0.916727 0.873679
O O9 0.011029 0.896241 0.000000
O O10 0.848934 0.271198 0.500000
O O11 0.910574 0.253121 0.298078
O O12 0.871554 0.336725 0.257779
O O13 0.734478 0.961467 0.500000
O O14 0.744426 0.879530 0.340240
O O15 0.784509 0.005715 0.271465
O O16 0.386736 0.479857 0.000000
#
# Coordination Sequence:
#
# PCOD9581357 Si02
#       7
#    12  12   6  12  12  12  12
#     4  10  19  32  52  79 104 134 169 213 260 311
#     4   8  16  30  52  80 107 131 165 207 258 304
#     4  12  23  38  52  72 104 133 173 227 277 315
#     4  10  21  34  49  74 106 138 172 210 254 302
#     4  10  21  35  50  69  98 133 167 210 261 316
#     4  11  20  33  53  74  97 127 169 215 263 318
#     4   9  16  32  54  77 104 136 167 205 249 309
#
# _framework density 16.258372999999999
#
# number of rings (size 3 to 8) (size 9 to 14) (size 15 to 20)
#    0.000    2.154    2.308    2.846    0.000    0.615 
#    1.385    3.077    0.000    0.615    0.000    4.308 
#    0.000    0.000    0.000    0.000    0.000    0.000 
#
# Total GULP energy -434242.565274 kJ/mol
# GULP energy per Si atom -5567.212375 kJ/mol
# Density = 1.622137 g / cm^3
# Si number density = 16.258373 Si / 1000 Ang^3
#
#
#
# Elastic Constant Matrix: (Units=GPa)
#
#
# Indices 1 2 3 4 5 6 
#
# 1 105.1371 55.5384 29.2219 0.0000 0.0000 0.0000
# 2 55.5384 105.1371 29.2219 0.0000 0.0000 0.0000
# 3 29.2219 29.2219 47.5663 0.0000 0.0000 0.0000
# 4 0.0000 0.0000 0.0000 19.1161 0.0000 0.0000
# 5 0.0000 0.0000 0.0000 0.0000 19.1161 0.0000
# 6 0.0000 0.0000 0.0000 0.0000 0.0000 24.7993
#
#
#
# Elastic Compliance Matrix: (Units=1/GPa)
#
#
# Indices 1 2 3 4 5 6 
#
# 1 0.014088 -0.006074 -0.004924 0.000000 0.000000 0.000000
# 2 -0.006074 0.014088 -0.004924 0.000000 0.000000 0.000000
# 3 -0.004924 -0.004924 0.027073 0.000000 0.000000 0.000000
# 4 0.000000 0.000000 0.000000 0.052312 0.000000 0.000000
# 5 0.000000 0.000000 0.000000 0.000000 0.052312 0.000000
# 6 0.000000 0.000000 0.000000 0.000000 0.000000 0.040324
#
#
# Mechanical properties :
#
#
# Convention : Reuss Voigt Hill
#
# Bulk Modulus (GPa) = 42.72153 53.97829 48.34991
# Shear Modulus (GPa) = 20.84707 22.19684 21.52196
#
# Velocity S-wave (km/s) = 3.58472 3.69895 3.64228
# Velocity P-wave (km/s) = 6.59297 7.17742 6.89139
#
# Compressibility (1/GPa) = 0.02340740
#
# Stress axis : x y z
#
# Youngs Moduli (GPa) = 70.98110 70.98110 36.93718
#
# Poissons Ratio (x) = 0.43111 0.18187
# Poissons Ratio (y) = 0.43111 0.18187
# Poissons Ratio (z) = 0.34949 0.34949
#
# Static dielectric constant tensor:
#      x y z
#    x 1.550550 0.000000 0.000000 
#    y 0.000000 1.550550 0.000000 
#    z 0.000000 0.000000 1.549830 
# 
# From -- ./inp_files/1293.got.cif
#   From: 2010.05.17/outbox.cif.g08.bks.cpg/sg175_1_cif.got.tgz:1293.got - 2010.05.20 11:23:22.
