data_PCOD9581588
_publ_section_title
;
Structure prediction by ZEFSAII (Michael W. Deem and Ramdas Pophale) SiO2 
 PCOD9581588
Probable space group: P 6/M
;
_chemical_formula_sum "Si O2"
_cell_formula_units_Z 60
_cell_length_a 14.248026
_cell_length_b 14.248026
_cell_length_c 14.451879
_cell_angle_alpha 90.000000
_cell_angle_beta 90.000000
_cell_angle_gamma 120.000000
_cell_volume 2540.764112
_symmetry_space_group_name_H-M "P 6/M"
_symmetry_group_IT_number 175
_symmetry_cell_setting 'hexagonal'
loop_
_space_group_symop_operation_xyz
x,y,z
x-y,x,z
-y,x-y,z
-x,-y,z
-x+y,-x,z
y,-x+y,z
-x,-y,-z
-x+y,-x,-z
y,-x+y,-z
x,y,-z
x-y,x,-z
-y,x-y,-z
loop_
_atom_site_type_symbol
_atom_site_label
_atom_site_fract_x
_atom_site_fract_y
_atom_site_fract_z
Si Si1 0.941939 0.189574 0.697302
Si Si2 0.118046 0.519928 0.701822
Si Si3 0.647367 0.200919 0.101131
Si Si4 0.191177 0.248701 0.901000
Si Si5 0.539918 0.804727 0.394292
O O1 0.929878 0.230288 0.800079
O O2 0.907908 0.250946 0.624352
O O3 0.061860 0.207517 0.689839
O O4 0.132165 0.498656 0.808813
O O5 0.153546 0.452988 0.636855
O O6 0.193790 0.645098 0.673217
O O7 0.000000 0.500000 0.684061
O O8 0.758387 0.317445 0.104914
O O9 0.641269 0.151588 0.000000
O O10 0.208739 0.145366 0.901205
O O11 0.235563 0.306964 0.000000
O O12 0.506387 0.798835 0.500000
#
# Coordination Sequence:
#
# PCOD9581588 Si02
#       5
#    12  12  12  12  12
#     4  10  21  38  60  88 124 165 205 247 300 367
#     4  12  24  42  69  98 125 162 211 259 325 387
#     4   8  15  35  66  94 129 169 201 242 305 378
#     4   8  13  24  46  77 112 151 194 238 284 339
#     4  12  26  45  65  89 122 159 209 273 324 367
#
# _framework density 23.614943
#
# number of rings (size 3 to 8) (size 9 to 14) (size 15 to 20)
#    0.400    1.600    2.000    2.600    0.000    6.800 
#    0.000    2.000    0.000    6.000    0.000    0.000 
#    0.000    0.000    0.000    0.000    0.000    0.000 
#
# Total GULP energy -335216.226540 kJ/mol
# GULP energy per Si atom -5586.937109 kJ/mol
# Density = 2.356119 g / cm^3
# Si number density = 23.614943 Si / 1000 Ang^3
#
#
#
# Elastic Constant Matrix: (Units=GPa)
#
#
# Indices 1 2 3 4 5 6 
#
# 1 64.0707 16.2774 8.7899 0.0000 0.0000 0.0000
# 2 16.2774 64.0707 8.7899 0.0000 0.0000 0.0000
# 3 8.7899 8.7899 120.8003 0.0000 0.0000 0.0000
# 4 0.0000 0.0000 0.0000 -0.1678 0.0000 0.0000
# 5 0.0000 0.0000 0.0000 0.0000 -0.1678 0.0000
# 6 0.0000 0.0000 0.0000 0.0000 0.0000 23.8966
#
#
#
# Elastic Compliance Matrix: (Units=1/GPa)
#
#
# Indices 1 2 3 4 5 6 
#
# 1 0.016785 -0.004138 -0.000920 0.000000 0.000000 0.000000
# 2 -0.004138 0.016785 -0.000920 0.000000 0.000000 0.000000
# 3 -0.000920 -0.000920 0.008412 0.000000 0.000000 0.000000
# 4 0.000000 0.000000 0.000000 -5.959908 -0.000002 0.000000
# 5 0.000000 0.000000 0.000000 -0.000002 -5.959909 0.000000
# 6 0.000000 0.000000 0.000000 0.000000 0.000000 0.041847
#
#
# Mechanical properties :
#
#
# Convention : Reuss Voigt Hill
#
# Bulk Modulus (GPa) = 33.30513 35.18402 34.24458
# Shear Modulus (GPa) = -0.42323 19.05116 9.31397
#
# Velocity S-wave (km/s) = -0.42380 2.84340 1.98813
# Velocity P-wave (km/s) = 3.72754 5.07063 4.45005
#
# Compressibility (1/GPa) = 0.03002540
#
# Stress axis : x y z
#
# Youngs Moduli (GPa) = 59.57583 59.57583 118.87708
#
# Poissons Ratio (x) = 0.24653 0.10940
# Poissons Ratio (y) = 0.24653 0.10940
# Poissons Ratio (z) = 0.05483 0.05483
#
# Static dielectric constant tensor:
#      x y z
#    x 1.922210 0.000000 0.000000 
#    y 0.000000 1.922210 0.000000 
#    z 0.000000 0.000000 1.896560 
# 
# From -- ./inp_files/2382.got.cif
#   From: 2010.05.17/outbox.cif.g08.bks.cpg/sg175_2_cif.got.tgz:2382.got - 2010.05.20 11:23:22.
