data_PCOD9581667
_publ_section_title
;
Structure prediction by ZEFSAII (Michael W. Deem and Ramdas Pophale) SiO2 
 PCOD9581667
Probable space group: P 6/M
;
_chemical_formula_sum "Si O2"
_cell_formula_units_Z 66
_cell_length_a 19.346119
_cell_length_b 19.346119
_cell_length_c 9.781425
_cell_angle_alpha 90.000000
_cell_angle_beta 90.000000
_cell_angle_gamma 120.000000
_cell_volume 3170.446804
_symmetry_space_group_name_H-M "P 6/M"
_symmetry_group_IT_number 175
_symmetry_cell_setting 'hexagonal'
loop_
_space_group_symop_operation_xyz
x,y,z
x-y,x,z
-y,x-y,z
-x,-y,z
-x+y,-x,z
y,-x+y,z
-x,-y,-z
-x+y,-x,-z
y,-x+y,-z
x,y,-z
x-y,x,-z
-y,x-y,-z
loop_
_atom_site_type_symbol
_atom_site_label
_atom_site_fract_x
_atom_site_fract_y
_atom_site_fract_z
Si Si1 0.047896 0.173014 0.834210
Si Si2 0.439388 0.535550 0.247582
Si Si3 0.731771 0.600190 0.657125
Si Si4 0.566350 0.692450 0.650543
Si Si5 0.394004 0.774560 0.000000
Si Si6 0.697696 0.707073 0.161949
O O1 0.110971 0.150538 0.782034
O O2 0.059580 0.258574 0.806491
O O3 0.048086 0.166943 0.000000
O O4 0.500000 0.500000 0.215747
O O5 0.359689 0.466472 0.316890
O O6 0.483116 0.611415 0.346621
O O7 0.408488 0.570508 0.124802
O O8 0.742106 0.628435 0.500000
O O9 0.791764 0.565873 0.678386
O O10 0.744253 0.668337 0.764541
O O11 0.603991 0.701695 0.500000
O O12 0.613318 0.676196 0.769032
O O13 0.295866 0.714795 0.000000
O O14 0.694763 0.693896 0.000000
#
# Coordination Sequence:
#
# PCOD9581667 Si02
#       6
#    12  12  12  12   6  12
#     4   9  17  31  53  84 120 160 204 252 312 379
#     4  12  24  42  71  99 132 177 230 284 340 414
#     4  11  25  44  67  95 133 177 226 281 340 409
#     4  11  25  44  67  95 133 177 226 281 340 409
#     4  10  25  46  68 100 148 184 216 282 348 425
#     4  11  23  39  64  94 131 171 215 278 336 412
#
# _framework density 20.817254999999999
#
# number of rings (size 3 to 8) (size 9 to 14) (size 15 to 20)
#    0.182    1.091    1.818    3.727    2.545    3.636 
#    1.091    0.000    0.000    0.000    0.000    0.000 
#    0.000    8.727    0.000    0.000    0.000    0.000 
#
# Total GULP energy -367819.224750 kJ/mol
# GULP energy per Si atom -5573.018557 kJ/mol
# Density = 2.076987 g / cm^3
# Si number density = 20.817255 Si / 1000 Ang^3
#
#
#
# Elastic Constant Matrix: (Units=GPa)
#
#
# Indices 1 2 3 4 5 6 
#
# 1 94.6146 30.7701 24.3426 0.0000 0.0000 0.0000
# 2 30.7701 94.6146 24.3426 0.0000 0.0000 0.0000
# 3 24.3426 24.3426 93.2439 0.0000 0.0000 0.0000
# 4 0.0000 0.0000 0.0000 -0.4445 0.0000 0.0000
# 5 0.0000 0.0000 0.0000 0.0000 -0.4445 0.0000
# 6 0.0000 0.0000 0.0000 0.0000 0.0000 31.9223
#
#
#
# Elastic Compliance Matrix: (Units=1/GPa)
#
#
# Indices 1 2 3 4 5 6 
#
# 1 0.012269 -0.003394 -0.002317 0.000000 0.000000 0.000000
# 2 -0.003394 0.012269 -0.002317 0.000000 0.000000 0.000000
# 3 -0.002317 -0.002317 0.011934 0.000000 0.000000 0.000000
# 4 0.000000 0.000000 0.000000 -2.249659 0.000001 0.000000
# 5 0.000000 0.000000 0.000000 0.000001 -2.249659 0.000000
# 6 0.000000 0.000000 0.000000 0.000000 0.000000 0.031326
#
#
# Mechanical properties :
#
#
# Convention : Reuss Voigt Hill
#
# Bulk Modulus (GPa) = 48.97962 49.04262 49.01112
# Shear Modulus (GPa) = -1.13413 19.74119 9.30353
#
# Velocity S-wave (km/s) = -0.73891 3.08280 2.11633
# Velocity P-wave (km/s) = 4.78032 6.02340 5.43750
#
# Compressibility (1/GPa) = 0.02041666
#
# Stress axis : x y z
#
# Youngs Moduli (GPa) = 81.50578 81.50578 83.79204
#
# Poissons Ratio (x) = 0.27663 0.19414
# Poissons Ratio (y) = 0.27663 0.19414
# Poissons Ratio (z) = 0.18885 0.18885
#
# Static dielectric constant tensor:
#      x y z
#    x 1.768460 0.000000 0.000000 
#    y 0.000000 1.768460 0.000000 
#    z 0.000000 0.000000 1.752490 
# 
# From -- ./inp_files/1054.got.cif
#   From: 2010.05.17/outbox.cif.g08.bks.cpg/sg175_1_cif.got.tgz:1054.got - 2010.05.20 11:23:22.
