data_PCOD9581296
_publ_section_title
;
Structure prediction by ZEFSAII (Michael W. Deem and Ramdas Pophale) SiO2 
 PCOD9581296
Probable space group: P 6/M
;
_chemical_formula_sum "Si O2"
_cell_formula_units_Z 72
_cell_length_a 23.776810
_cell_length_b 23.776810
_cell_length_c 7.695891
_cell_angle_alpha 90.000000
_cell_angle_beta 90.000000
_cell_angle_gamma 120.000000
_cell_volume 3767.876977
_symmetry_space_group_name_H-M "P 6/M"
_symmetry_group_IT_number 175
_symmetry_cell_setting 'hexagonal'
loop_
_space_group_symop_operation_xyz
x,y,z
x-y,x,z
-y,x-y,z
-x,-y,z
-x+y,-x,z
y,-x+y,z
-x,-y,-z
-x+y,-x,-z
y,-x+y,-z
x,y,-z
x-y,x,-z
-y,x-y,-z
loop_
_atom_site_type_symbol
_atom_site_label
_atom_site_fract_x
_atom_site_fract_y
_atom_site_fract_z
Si Si1 0.847760 0.134906 0.203980
Si Si2 0.035056 0.327349 0.796874
Si Si3 0.407630 0.494531 0.711346
Si Si4 0.603299 0.064910 0.290661
Si Si5 0.387558 0.111931 0.300136
Si Si6 0.906033 0.852130 0.787667
O O1 0.780045 0.077531 0.276455
O O2 0.854012 0.204700 0.219819
O O3 0.911387 0.134201 0.270745
O O4 0.844909 0.120152 0.000000
O O5 0.076869 0.405726 0.782184
O O6 0.965660 0.302566 0.708522
O O7 0.020182 0.309847 0.000000
O O8 0.405229 0.496562 0.500000
O O9 0.435786 0.446614 0.751963
O O10 0.463235 0.566101 0.768605
O O11 0.333461 0.455440 0.775192
O O12 0.609192 0.070027 0.500000
O O13 0.399153 0.132094 0.500000
O O14 0.879025 0.898779 0.731568
O O15 0.904187 0.853599 0.000000
#
# Coordination Sequence:
#
# PCOD9581296 Si02
#       6
#    12  12  12  12  12  12
#     4  10  20  32  44  61  91 125 151 184 236 292
#     4  10  19  30  44  64  93 123 149 181 226 277
#     4   7  12  24  42  63  86 112 138 171 212 248
#     4   8  13  25  44  63  86 114 143 170 203 250
#     4  10  19  31  47  65  87 116 153 191 226 270
#     4   9  16  27  44  63  81 106 147 197 244 288
#
# _framework density 19.108903999999999
#
# number of rings (size 3 to 8) (size 9 to 14) (size 15 to 20)
#    0.000    3.000    0.000    4.167    0.000    4.667 
#    0.000    7.500    0.000    0.000    0.000    0.000 
#    1.667    2.667    1.000    0.000    1.333    0.000 
#
# Total GULP energy -400888.482185 kJ/mol
# GULP energy per Si atom -5567.895586 kJ/mol
# Density = 1.906541 g / cm^3
# Si number density = 19.108904 Si / 1000 Ang^3
#
#
#
# Elastic Constant Matrix: (Units=GPa)
#
#
# Indices 1 2 3 4 5 6 
#
# 1 30.4293 -7.9963 -4.9354 0.0000 0.0000 0.0000
# 2 -7.9963 30.4293 -4.9354 0.0000 0.0000 0.0000
# 3 -4.9354 -4.9354 27.7861 0.0000 0.0000 0.0000
# 4 0.0000 0.0000 0.0000 15.9055 0.0000 0.0000
# 5 0.0000 0.0000 0.0000 0.0000 15.9055 0.0000
# 6 0.0000 0.0000 0.0000 0.0000 0.0000 19.2128
#
#
#
# Elastic Compliance Matrix: (Units=1/GPa)
#
#
# Indices 1 2 3 4 5 6 
#
# 1 0.037190 0.011166 0.008589 0.000000 0.000000 0.000000
# 2 0.011166 0.037190 0.008589 0.000000 0.000000 0.000000
# 3 0.008589 0.008589 0.039041 0.000000 0.000000 0.000000
# 4 0.000000 0.000000 0.000000 0.062871 0.000000 0.000000
# 5 0.000000 0.000000 0.000000 0.000000 0.062871 0.000000
# 6 0.000000 0.000000 0.000000 0.000000 0.000000 0.052049
#
#
# Mechanical properties :
#
#
# Convention : Reuss Voigt Hill
#
# Bulk Modulus (GPa) = 5.87853 5.87893 5.87873
# Shear Modulus (GPa) = 17.16875 17.30557 17.23716
#
# Velocity S-wave (km/s) = 3.00070 3.01263 3.00667
# Velocity P-wave (km/s) = 3.88440 3.89673 3.89057
#
# Compressibility (1/GPa) = 0.17011049
#
# Stress axis : x y z
#
# Youngs Moduli (GPa) = 26.88863 26.88864 25.61440
#
# Poissons Ratio (x) = -0.30024 -0.22001
# Poissons Ratio (y) = -0.30024 -0.22001
# Poissons Ratio (z) = -0.23095 -0.23095
#
# Static dielectric constant tensor:
#      x y z
#    x 1.699390 0.000000 0.000000 
#    y 0.000000 1.699390 0.000000 
#    z 0.000000 0.000000 1.717590 
# 
# From -- ./inp_files/1153.got.cif
#   From: 2010.05.17/outbox.cif.g08.bks.cpg/sg175_1_cif.got.tgz:1153.got - 2010.05.20 11:23:22.
