data_PCOD9581116
_publ_section_title
;
Structure prediction by ZEFSAII (Michael W. Deem and Ramdas Pophale) SiO2 
 PCOD9581116
Probable space group: P 63
;
_chemical_formula_sum "Si O2"
_cell_formula_units_Z 40
_cell_length_a 10.075821
_cell_length_b 10.075821
_cell_length_c 18.437991
_cell_angle_alpha 90.000000
_cell_angle_beta 90.000000
_cell_angle_gamma 120.000000
_cell_volume 1621.082500
_symmetry_space_group_name_H-M "P 63"
_symmetry_group_IT_number 173
_symmetry_cell_setting 'hexagonal'
loop_
_space_group_symop_operation_xyz
x,y,z
x-y,x,1/2+z
-y,x-y,z
-x,-y,1/2+z
-x+y,-x,z
y,-x+y,1/2+z
loop_
_atom_site_type_symbol
_atom_site_label
_atom_site_fract_x
_atom_site_fract_y
_atom_site_fract_z
Si Si1 0.114323 0.346231 0.315480
Si Si2 0.626772 0.626727 0.726390
Si Si3 0.000000 0.000000 0.552830
Si Si4 0.000000 0.000000 0.373828
Si Si5 0.577407 0.917664 0.557003
Si Si6 0.353623 0.141892 0.578752
Si Si7 0.400839 0.313667 0.971889
Si Si8 0.452846 0.165175 0.221378
O O1 0.285588 0.416704 0.284231
O O2 0.054455 0.172780 0.345297
O O3 0.104967 0.428136 0.387896
O O4 0.011594 0.371327 0.255600
O O5 0.671242 0.596131 0.646758
O O6 0.456896 0.622011 0.735892
O O7 0.694389 0.807457 0.736521
O O8 0.000000 0.000000 0.463408
O O9 0.171326 0.073241 0.584710
O O10 0.660588 0.856057 0.503439
O O11 0.422137 0.870302 0.516199
O O12 0.547535 0.838797 0.634192
O O13 0.678300 0.097989 0.572872
O O14 0.372382 0.083000 0.500610
#
# Coordination Sequence:
#
# PCOD9581116 Si02
#       8
#     6   6   2   2   6   6   6   6
#     4  12  27  45  72 109 151 195 254 330 386 453
#     4  12  26  46  74 112 153 196 255 314 390 462
#     4  12  21  40  74 109 138 184 251 322 369 439
#     4  12  21  43  74 106 144 181 254 334 375 442
#     4  12  24  46  75 104 144 199 251 309 377 471
#     4  12  22  42  77 105 142 188 253 311 376 455
#     4  12  27  46  71 108 148 199 254 315 387 463
#     4  12  24  46  73 107 148 198 248 311 386 467
#
# _framework density 24.674869999999999
#
# number of rings (size 3 to 8) (size 9 to 14) (size 15 to 20)
#    0.000    0.000    9.000    0.600    2.100    0.000 
#    1.800    1.500    0.000    0.000    0.000    0.000 
#    0.000    0.000    0.000    0.000    0.000    0.000 
#
# Total GULP energy -222774.829493 kJ/mol
# GULP energy per Si atom -5569.370737 kJ/mol
# Density = 2.461871 g / cm^3
# Si number density = 24.674870 Si / 1000 Ang^3
#
#
#
# Elastic Constant Matrix: (Units=GPa)
#
#
# Indices 1 2 3 4 5 6 
#
# 1 96.8082 23.1873 29.4592 0.0000 0.0000 0.0000
# 2 23.1873 96.8082 29.4592 0.0000 0.0000 0.0000
# 3 29.4592 29.4592 85.2150 0.0000 0.0000 0.0000
# 4 0.0000 0.0000 0.0000 28.3302 0.0000 0.0000
# 5 0.0000 0.0000 0.0000 0.0000 28.3302 0.0000
# 6 0.0000 0.0000 0.0000 0.0000 0.0000 36.8104
#
#
#
# Elastic Compliance Matrix: (Units=1/GPa)
#
#
# Indices 1 2 3 4 5 6 
#
# 1 0.011810 -0.001773 -0.003470 0.000000 0.000000 0.000000
# 2 -0.001773 0.011810 -0.003470 0.000000 0.000000 0.000000
# 3 -0.003470 -0.003470 0.014134 0.000000 0.000000 0.000000
# 4 0.000000 0.000000 0.000000 0.035298 0.000000 0.000000
# 5 0.000000 0.000000 0.000000 0.000000 0.035298 0.000000
# 6 0.000000 0.000000 0.000000 0.000000 0.000000 0.027166
#
#
# Mechanical properties :
#
#
# Convention : Reuss Voigt Hill
#
# Bulk Modulus (GPa) = 49.19051 49.22696 49.20873
# Shear Modulus (GPa) = 31.30500 31.80922 31.55711
#
# Velocity S-wave (km/s) = 3.56575 3.59435 3.58007
# Velocity P-wave (km/s) = 6.07713 6.10076 6.08896
#
# Compressibility (1/GPa) = 0.02032913
#
# Stress axis : x y z
#
# Youngs Moduli (GPa) = 84.67209 84.67209 70.75044
#
# Poissons Ratio (x) = 0.15011 0.24550
# Poissons Ratio (y) = 0.15011 0.24550
# Poissons Ratio (z) = 0.29381 0.29381
#
# Static dielectric constant tensor:
#      x y z
#    x 2.199190 0.000000 0.000000 
#    y 0.000000 2.199190 0.000000 
#    z 0.000000 0.000000 1.848010 
# 
# From -- ./inp_files/1322.got.cif
#   From: 2010.05.17/outbox.cif.g08.bks.cpg/sg173_cif.got.tgz:1322.got - 2010.05.20 11:21:53.
