data_PCOD9581100
_publ_section_title
;
Structure prediction by ZEFSAII (Michael W. Deem and Ramdas Pophale) SiO2 
 PCOD9581100
Probable space group: P 63
;
_chemical_formula_sum "Si O2"
_cell_formula_units_Z 48
_cell_length_a 14.167931
_cell_length_b 14.167931
_cell_length_c 11.064879
_cell_angle_alpha 90.000000
_cell_angle_beta 90.000000
_cell_angle_gamma 120.000000
_cell_volume 1923.491037
_symmetry_space_group_name_H-M "P 63"
_symmetry_group_IT_number 173
_symmetry_cell_setting 'hexagonal'
loop_
_space_group_symop_operation_xyz
x,y,z
x-y,x,1/2+z
-y,x-y,z
-x,-y,1/2+z
-x+y,-x,z
y,-x+y,1/2+z
loop_
_atom_site_type_symbol
_atom_site_label
_atom_site_fract_x
_atom_site_fract_y
_atom_site_fract_z
Si Si1 0.118150 0.003191 0.957240
Si Si2 0.541701 0.077324 0.298036
Si Si3 0.459333 0.532379 0.533504
Si Si4 0.228134 0.788343 0.466952
Si Si5 0.240821 0.167871 0.116695
Si Si6 0.324409 0.164185 0.543971
Si Si7 0.234608 0.528301 0.196491
Si Si8 0.419926 0.201853 0.308897
O O1 0.098160 0.100520 0.910833
O O2 0.193732 0.949555 0.968192
O O3 0.138544 0.048781 0.096185
O O4 0.506169 0.166925 0.271097
O O5 0.669699 0.142282 0.326233
O O6 0.486410 0.000240 0.414074
O O7 0.513712 0.018600 0.166220
O O8 0.330363 0.464831 0.507051
O O9 0.493969 0.659899 0.540785
O O10 0.188934 0.875091 0.494802
O O11 0.265542 0.783075 0.331916
O O12 0.319818 0.169167 0.218895
O O13 0.200316 0.255439 0.124006
O O14 0.422872 0.259719 0.615737
O O15 0.379661 0.137718 0.434522
O O16 0.366341 0.587192 0.176486
#
# Coordination Sequence:
#
# PCOD9581100 Si02
#       8
#     6   6   6   6   6   6   6   6
#     4   8  20  47  73 100 140 190 245 316 388 452
#     4  12  28  48  75 112 159 208 260 327 400 475
#     4  12  25  47  76 109 150 206 261 321 389 478
#     4  12  23  45  74 100 146 200 260 306 385 472
#     4  11  24  45  74 108 147 196 259 325 386 468
#     4  11  26  45  76 109 154 195 263 322 391 472
#     4  10  24  44  72 108 153 202 249 316 392 460
#     4  12  28  45  74 110 153 209 259 317 395 475
#
# _framework density 24.954626999999999
#
# number of rings (size 3 to 8) (size 9 to 14) (size 15 to 20)
#    0.500    0.500    3.750    1.250    5.250    3.000 
#    0.000    3.750    2.750    0.000    0.000    0.000 
#    0.000    0.000    0.000    0.000    0.000    0.000 
#
# Total GULP energy -267230.386984 kJ/mol
# GULP energy per Si atom -5567.299729 kJ/mol
# Density = 2.489783 g / cm^3
# Si number density = 24.954627 Si / 1000 Ang^3
#
#
#
# Elastic Constant Matrix: (Units=GPa)
#
#
# Indices 1 2 3 4 5 6 
#
# 1 107.6967 23.0637 21.5554 0.0000 0.0000 0.0000
# 2 23.0637 107.6967 21.5554 0.0000 0.0000 0.0000
# 3 21.5554 21.5554 83.0878 0.0000 0.0000 0.0000
# 4 0.0000 0.0000 0.0000 18.7611 0.0000 0.0000
# 5 0.0000 0.0000 0.0000 0.0000 18.7611 0.0000
# 6 0.0000 0.0000 0.0000 0.0000 0.0000 42.3165
#
#
#
# Elastic Compliance Matrix: (Units=1/GPa)
#
#
# Indices 1 2 3 4 5 6 
#
# 1 0.010089 -0.001726 -0.002170 0.000000 0.000000 0.000000
# 2 -0.001726 0.010089 -0.002170 0.000000 0.000000 0.000000
# 3 -0.002170 -0.002170 0.013161 0.000000 0.000000 0.000000
# 4 0.000000 0.000000 0.000000 0.053302 0.000000 0.000000
# 5 0.000000 0.000000 0.000000 0.000000 0.053302 0.000000
# 6 0.000000 0.000000 0.000000 0.000000 0.000000 0.023631
#
#
# Mechanical properties :
#
#
# Convention : Reuss Voigt Hill
#
# Bulk Modulus (GPa) = 47.15064 47.87000 47.51032
# Shear Modulus (GPa) = 27.35596 31.45484 29.40540
#
# Velocity S-wave (km/s) = 3.31452 3.55418 3.43644
# Velocity P-wave (km/s) = 5.79514 6.00561 5.90131
#
# Compressibility (1/GPa) = 0.02120862
#
# Stress axis : x y z
#
# Youngs Moduli (GPa) = 99.11492 99.11492 75.98117
#
# Poissons Ratio (x) = 0.17111 0.16485
# Poissons Ratio (y) = 0.17111 0.16485
# Poissons Ratio (z) = 0.21504 0.21504
#
# Static dielectric constant tensor:
#      x y z
#    x 2.076270 0.000000 0.000000 
#    y 0.000000 2.076270 0.000000 
#    z 0.000000 0.000000 2.043560 
# 
# From -- ./inp_files/944.got.cif
#   From: 2010.05.17/outbox.cif.g08.bks.cpg/sg173_cif.got.tgz:944.got - 2010.05.20 11:21:53.
