data_PCOD9581598
_publ_section_title
;
Structure prediction by ZEFSAII (Michael W. Deem and Ramdas Pophale) SiO2 
 PCOD9581598
Probable space group: P 6/M
;
_chemical_formula_sum "Si O2"
_cell_formula_units_Z 54
_cell_length_a 10.937076
_cell_length_b 10.937076
_cell_length_c 23.825585
_cell_angle_alpha 90.000000
_cell_angle_beta 90.000000
_cell_angle_gamma 120.000000
_cell_volume 2468.179066
_symmetry_space_group_name_H-M "P 6/M"
_symmetry_group_IT_number 175
_symmetry_cell_setting 'hexagonal'
loop_
_space_group_symop_operation_xyz
x,y,z
x-y,x,z
-y,x-y,z
-x,-y,z
-x+y,-x,z
y,-x+y,z
-x,-y,-z
-x+y,-x,-z
y,-x+y,-z
x,y,-z
x-y,x,-z
-y,x-y,-z
loop_
_atom_site_type_symbol
_atom_site_label
_atom_site_fract_x
_atom_site_fract_y
_atom_site_fract_z
Si Si1 0.672356 0.496841 0.110846
Si Si2 0.249478 0.321338 0.563059
Si Si3 0.925940 0.248611 0.000000
Si Si4 0.748576 0.679183 0.778993
Si Si5 0.173402 0.666541 0.329811
O O1 0.538310 0.339030 0.111066
O O2 0.682705 0.582643 0.166218
O O3 0.684648 0.581845 0.054981
O O4 0.271215 0.187238 0.568441
O O5 0.295236 0.380582 0.500000
O O6 0.327642 0.432050 0.612192
O O7 0.082443 0.271956 0.000000
O O8 0.727725 0.813637 0.779209
O O9 0.679915 0.585117 0.723859
O O10 0.201385 0.535793 0.327705
#
# Coordination Sequence:
#
# PCOD9581598 Si02
#       5
#    12  12   6  12  12
#     4  10  24  44  64 100 122 164 210 253 308 359
#     4  10  21  38  62  90 121 158 200 250 304 362
#     4  12  25  42  66  94 131 170 208 258 308 362
#     4  12  25  42  66  93 125 161 201 253 307 367
#     4  10  24  42  59  90 121 160 205 250 305 360
#
# _framework density 21.878475999999999
#
# number of rings (size 3 to 8) (size 9 to 14) (size 15 to 20)
#    0.889    0.444    0.000    5.222    0.000   11.556 
#    0.000    6.667    0.000    0.000    0.000    0.000 
#    0.000    0.000    0.000    0.000    0.000    0.000 
#
# Total GULP energy -302311.987176 kJ/mol
# GULP energy per Si atom -5598.370133 kJ/mol
# Density = 2.182868 g / cm^3
# Si number density = 21.878476 Si / 1000 Ang^3
#
#
#
# Elastic Constant Matrix: (Units=GPa)
#
#
# Indices 1 2 3 4 5 6 
#
# 1 106.2438 15.7011 50.0929 0.0000 0.0000 0.0000
# 2 15.7011 106.2438 50.0929 0.0000 0.0000 0.0000
# 3 50.0929 50.0929 182.7175 0.0000 0.0000 0.0000
# 4 0.0000 0.0000 0.0000 1.8514 0.0000 0.0000
# 5 0.0000 0.0000 0.0000 0.0000 1.8514 0.0000
# 6 0.0000 0.0000 0.0000 0.0000 0.0000 45.2714
#
#
#
# Elastic Compliance Matrix: (Units=1/GPa)
#
#
# Indices 1 2 3 4 5 6 
#
# 1 0.010814 -0.000230 -0.002902 0.000000 0.000000 0.000000
# 2 -0.000230 0.010814 -0.002902 0.000000 0.000000 0.000000
# 3 -0.002902 -0.002902 0.007064 0.000000 0.000000 0.000000
# 4 0.000000 0.000000 0.000000 0.540133 0.000000 0.000000
# 5 0.000000 0.000000 0.000000 0.000000 0.540133 0.000000
# 6 0.000000 0.000000 0.000000 0.000000 0.000000 0.022089
#
#
# Mechanical properties :
#
#
# Convention : Reuss Voigt Hill
#
# Bulk Modulus (GPa) = 60.14765 69.66435 64.90600
# Shear Modulus (GPa) = 4.35291 28.41605 16.38448
#
# Velocity S-wave (km/s) = 1.41206 3.60781 2.73955
# Velocity P-wave (km/s) = 5.49636 7.01895 6.30379
#
# Compressibility (1/GPa) = 0.01662575
#
# Stress axis : x y z
#
# Youngs Moduli (GPa) = 92.46875 92.46875 141.56286
#
# Poissons Ratio (x) = 0.02127 0.41078
# Poissons Ratio (y) = 0.02127 0.41078
# Poissons Ratio (z) = 0.26832 0.26832
#
# Static dielectric constant tensor:
#      x y z
#    x 1.790270 0.000000 0.000000 
#    y 0.000000 1.790270 0.000000 
#    z 0.000000 0.000000 1.731010 
# 
# From -- ./inp_files/3064.got.cif
#   From: 2010.05.17/outbox.cif.g08.bks.cpg/sg175_2_cif.got.tgz:3064.got - 2010.05.20 11:23:22.
