data_PCOD9581104
_publ_section_title
;
Structure prediction by ZEFSAII (Michael W. Deem and Ramdas Pophale) SiO2 
 PCOD9581104
Probable space group: P 63
;
_chemical_formula_sum "Si O2"
_cell_formula_units_Z 36
_cell_length_a 11.579985
_cell_length_b 11.579985
_cell_length_c 14.506764
_cell_angle_alpha 90.000000
_cell_angle_beta 90.000000
_cell_angle_gamma 120.000000
_cell_volume 1684.679035
_symmetry_space_group_name_H-M "P 63"
_symmetry_group_IT_number 173
_symmetry_cell_setting 'hexagonal'
loop_
_space_group_symop_operation_xyz
x,y,z
x-y,x,1/2+z
-y,x-y,z
-x,-y,1/2+z
-x+y,-x,z
y,-x+y,1/2+z
loop_
_atom_site_type_symbol
_atom_site_label
_atom_site_fract_x
_atom_site_fract_y
_atom_site_fract_z
Si Si1 0.850051 0.214833 0.529260
Si Si2 0.458780 0.518327 0.310105
Si Si3 0.520178 0.549078 0.007299
Si Si4 0.835610 0.388743 0.178990
Si Si5 0.850966 0.005175 0.886628
Si Si6 0.801465 0.167157 0.740771
O O1 0.875900 0.364286 0.527529
O O2 0.705705 0.115646 0.486088
O O3 0.972262 0.217997 0.473578
O O4 0.836953 0.166389 0.634525
O O5 0.463329 0.526337 0.419819
O O6 0.568756 0.481916 0.274883
O O7 0.503650 0.657797 0.259351
O O8 0.312488 0.406329 0.279408
O O9 0.580824 0.519632 0.097552
O O10 0.761159 0.475045 0.171281
O O11 0.874644 0.878866 0.887729
O O12 0.795512 0.044702 0.798148
#
# Coordination Sequence:
#
# PCOD9581104 Si02
#       6
#     6   6   6   6   6   6
#     4  12  24  46  74 106 143 185 240 299 365 427
#     4  12  26  45  74 106 141 184 235 305 358 434
#     4  12  26  45  74 106 141 184 235 305 358 434
#     4  10  26  46  68 104 142 184 236 282 360 432
#     4  10  26  48  64 102 142 190 244 280 350 438
#     4  12  24  46  74 106 143 185 240 299 365 427
#
# _framework density 21.369056
#
# number of rings (size 3 to 8) (size 9 to 14) (size 15 to 20)
#    0.667    0.000    5.000    1.667    4.667    4.000 
#    0.000    0.000    0.000    0.000    0.000    0.000 
#    0.000    0.000    0.000    0.000    0.000    0.000 
#
# Total GULP energy -200868.083466 kJ/mol
# GULP energy per Si atom -5579.668985 kJ/mol
# Density = 2.132042 g / cm^3
# Si number density = 21.369056 Si / 1000 Ang^3
#
#
#
# Elastic Constant Matrix: (Units=GPa)
#
#
# Indices 1 2 3 4 5 6 
#
# 1 72.0712 16.1931 16.5830 0.0000 0.0000 0.0000
# 2 16.1931 72.0712 16.5830 0.0000 0.0000 0.0000
# 3 16.5830 16.5830 118.8228 0.0000 0.0000 0.0000
# 4 0.0000 0.0000 0.0000 31.2727 0.0000 0.0000
# 5 0.0000 0.0000 0.0000 0.0000 31.2727 0.0000
# 6 0.0000 0.0000 0.0000 0.0000 0.0000 27.9391
#
#
#
# Elastic Compliance Matrix: (Units=1/GPa)
#
#
# Indices 1 2 3 4 5 6 
#
# 1 0.014926 -0.002970 -0.001669 0.000000 0.000000 0.000000
# 2 -0.002970 0.014926 -0.001669 0.000000 0.000000 0.000000
# 3 -0.001669 -0.001669 0.008882 0.000000 0.000000 0.000000
# 4 0.000000 0.000000 0.000000 0.031977 0.000000 0.000000
# 5 0.000000 0.000000 0.000000 0.000000 0.031977 0.000000
# 6 0.000000 0.000000 0.000000 0.000000 0.000000 0.035792
#
#
# Mechanical properties :
#
#
# Convention : Reuss Voigt Hill
#
# Bulk Modulus (GPa) = 38.28456 40.18706 39.23581
# Shear Modulus (GPa) = 31.28893 32.33732 31.81312
#
# Velocity S-wave (km/s) = 3.83066 3.89431 3.86261
# Velocity P-wave (km/s) = 6.12536 6.25043 6.18821
#
# Compressibility (1/GPa) = 0.02612019
#
# Stress axis : x y z
#
# Youngs Moduli (GPa) = 66.99559 66.99559 112.59164
#
# Poissons Ratio (x) = 0.19896 0.18788
# Poissons Ratio (y) = 0.19896 0.18788
# Poissons Ratio (z) = 0.11179 0.11179
#
# Static dielectric constant tensor:
#      x y z
#    x 1.782230 0.000000 0.000000 
#    y 0.000000 1.782230 0.000000 
#    z 0.000000 0.000000 1.739590 
# 
# From -- ./inp_files/1087.got.cif
#   From: 2010.05.17/outbox.cif.g08.bks.cpg/sg173_cif.got.tgz:1087.got - 2010.05.20 11:21:53.
