data_PCOD9581610
_publ_section_title
;
Structure prediction by ZEFSAII (Michael W. Deem and Ramdas Pophale) SiO2 
 PCOD9581610
Probable space group: P 6/M
;
_chemical_formula_sum "Si O2"
_cell_formula_units_Z 46
_cell_length_a 18.611608
_cell_length_b 18.611608
_cell_length_c 7.229936
_cell_angle_alpha 90.000000
_cell_angle_beta 90.000000
_cell_angle_gamma 120.000000
_cell_volume 2168.866787
_symmetry_space_group_name_H-M "P 6/M"
_symmetry_group_IT_number 175
_symmetry_cell_setting 'hexagonal'
loop_
_space_group_symop_operation_xyz
x,y,z
x-y,x,z
-y,x-y,z
-x,-y,z
-x+y,-x,z
y,-x+y,z
-x,-y,-z
-x+y,-x,-z
y,-x+y,-z
x,y,-z
x-y,x,-z
-y,x-y,-z
loop_
_atom_site_type_symbol
_atom_site_label
_atom_site_fract_x
_atom_site_fract_y
_atom_site_fract_z
Si Si1 0.810866 0.854737 0.000000
Si Si2 0.593967 0.559580 0.724627
Si Si3 0.914409 0.665707 0.722583
Si Si4 0.333334 0.666668 0.725326
Si Si5 0.733950 0.518349 0.724697
O O1 0.888181 0.839610 0.000000
O O2 0.751313 0.809684 0.175151
O O3 0.500000 0.500000 0.787271
O O4 0.591978 0.556689 0.500000
O O5 0.630454 0.655352 0.774051
O O6 0.657281 0.529395 0.783877
O O7 0.916985 0.675644 0.500000
O O8 0.821446 0.596227 0.778333
O O9 0.333334 0.666668 0.500000
O O10 0.289722 0.718655 0.783563
O O11 0.734393 0.517916 0.500000
#
# Coordination Sequence:
#
# PCOD9581610 Si02
#       5
#     6  12  12   4  12
#     4  12  27  46  67  90 116 148 190 246 312 376
#     4   9  16  28  50  82 118 155 196 240 286 339
#     4  10  21  39  63  90 120 156 199 245 294 352
#     4   9  15  24  45  82 122 160 202 239 277 334
#     4   9  16  27  47  77 113 152 192 235 283 336
#
# _framework density 21.209233000000001
#
# number of rings (size 3 to 8) (size 9 to 14) (size 15 to 20)
#    0.000    2.348    0.000    3.261    0.000    9.391 
#    0.000    0.652    0.000    6.261    0.000    0.000 
#    0.000    0.000    0.000    0.000    0.000    0.000 
#
# Total GULP energy -257270.376689 kJ/mol
# GULP energy per Si atom -5592.834276 kJ/mol
# Density = 2.116096 g / cm^3
# Si number density = 21.209233 Si / 1000 Ang^3
#
#
#
# Elastic Constant Matrix: (Units=GPa)
#
#
# Indices 1 2 3 4 5 6 
#
# 1 169.9424 76.0275 31.0223 0.0000 0.0000 -0.0020
# 2 76.0275 169.9400 31.0223 0.0000 0.0000 -0.0018
# 3 31.0223 31.0223 110.0314 0.0000 0.0000 -0.0002
# 4 0.0000 0.0000 0.0000 33.3195 0.0014 0.0000
# 5 0.0000 0.0000 0.0000 0.0014 33.3194 0.0000
# 6 -0.0020 -0.0018 -0.0002 0.0000 0.0000 46.9577
#
#
#
# Elastic Compliance Matrix: (Units=1/GPa)
#
#
# Indices 1 2 3 4 5 6 
#
# 1 0.007512 -0.003136 -0.001234 0.000000 0.000000 0.000000
# 2 -0.003136 0.007513 -0.001234 0.000000 0.000000 0.000000
# 3 -0.001234 -0.001234 0.009784 0.000000 0.000000 0.000000
# 4 0.000000 0.000000 0.000000 0.030012 -0.000001 0.000000
# 5 0.000000 0.000000 0.000000 -0.000001 0.030013 0.000000
# 6 0.000000 0.000000 0.000000 0.000000 0.000000 0.021296
#
#
# Mechanical properties :
#
#
# Convention : Reuss Voigt Hill
#
# Bulk Modulus (GPa) = 73.51976 80.67312 77.09644
# Shear Modulus (GPa) = 41.02698 43.50876 42.26787
#
# Velocity S-wave (km/s) = 4.40294 4.53416 4.46903
# Velocity P-wave (km/s) = 7.78378 8.09511 7.94097
#
# Compressibility (1/GPa) = 0.01360178
#
# Stress axis : x y z
#
# Youngs Moduli (GPa) = 133.11327 133.11137 102.20619
#
# Poissons Ratio (x) = 0.41739 0.12612
# Poissons Ratio (y) = 0.41739 0.12612
# Poissons Ratio (z) = 0.16426 0.16426
#
# Static dielectric constant tensor:
#      x y z
#    x 1.710180 0.000000 0.000000 
#    y 0.000000 1.710190 0.000000 
#    z 0.000000 0.000000 1.834490 
# 
# From -- ./inp_files/545.got.cif
#   From: 2010.05.17/outbox.cif.g08.bks.cpg/sg175_1_cif.got.tgz:545.got - 2010.05.20 11:23:22.
