data_PCOD9581758
_publ_section_title
;
Structure prediction by ZEFSAII (Michael W. Deem and Ramdas Pophale) SiO2 
 PCOD9581758
Probable space group: P 63/M
;
_chemical_formula_sum "Si O2"
_cell_formula_units_Z 72
_cell_length_a 17.600615
_cell_length_b 17.600615
_cell_length_c 19.571632
_cell_angle_alpha 90.000000
_cell_angle_beta 90.000000
_cell_angle_gamma 120.000000
_cell_volume 5250.653499
_symmetry_space_group_name_H-M "P 63/M"
_symmetry_group_IT_number 176
_symmetry_cell_setting 'hexagonal'
loop_
_space_group_symop_operation_xyz
x,y,z
x-y,x,1/2+z
-y,x-y,z
-x,-y,1/2+z
-x+y,-x,z
y,-x+y,1/2+z
-x,-y,-z
-x+y,-x,1/2-z
y,-x+y,-z
x,y,1/2-z
x-y,x,-z
-y,x-y,1/2-z
loop_
_atom_site_type_symbol
_atom_site_label
_atom_site_fract_x
_atom_site_fract_y
_atom_site_fract_z
Si Si1 0.969786 0.533150 0.671334
Si Si2 0.501242 0.157386 0.138943
Si Si3 0.169599 0.684582 0.477464
Si Si4 0.319542 0.839165 0.827000
Si Si5 0.394979 0.983490 0.925169
Si Si6 0.646373 0.146444 0.947574
O O1 0.947190 0.504823 0.750000
O O2 0.894637 0.535203 0.626918
O O3 0.061591 0.623649 0.669383
O O4 0.991900 0.470561 0.624020
O O5 0.600302 0.176760 0.151820
O O6 0.486101 0.232261 0.169516
O O7 0.486255 0.156080 0.058306
O O8 0.256092 0.776728 0.463789
O O9 0.182308 0.604382 0.450795
O O10 0.078046 0.669000 0.445354
O O11 0.337346 0.873963 0.750000
O O12 0.318096 0.909641 0.878670
O O13 0.389298 0.930922 0.994815
#
# Coordination Sequence:
#
# PCOD9581758 Si02
#       6
#    12  12  12  12  12  12
#     4  10  19  32  45  61  86 120 150 183 227 269
#     4  11  17  28  43  62  91 115 143 183 223 272
#     4  11  18  30  47  65  82 114 154 185 218 255
#     4  11  20  27  40  67  93 116 141 179 230 279
#     4  10  18  31  46  61  86 115 147 182 223 268
#     4  11  19  32  46  65  87 115 155 190 219 262
#
# _framework density 13.712579
#
# number of rings (size 3 to 8) (size 9 to 14) (size 15 to 20)
#    0.000    1.333    6.667    4.667    0.000    0.000 
#    0.000    4.167    0.000    0.000    0.000    0.000 
#    0.000    0.000    0.000    9.000    0.000    5.667 
#
# Total GULP energy -400852.936075 kJ/mol
# GULP energy per Si atom -5567.401890 kJ/mol
# Density = 1.368137 g / cm^3
# Si number density = 13.712579 Si / 1000 Ang^3
#
#
#
# Elastic Constant Matrix: (Units=GPa)
#
#
# Indices 1 2 3 4 5 6 
#
# 1 53.5613 24.0170 30.6227 0.0000 0.0000 0.0000
# 2 24.0170 53.5613 30.6227 0.0000 0.0000 0.0000
# 3 30.6227 30.6227 113.7479 0.0000 0.0000 0.0000
# 4 0.0000 0.0000 0.0000 10.3886 0.0000 0.0000
# 5 0.0000 0.0000 0.0000 0.0000 10.3886 0.0000
# 6 0.0000 0.0000 0.0000 0.0000 0.0000 14.7722
#
#
#
# Elastic Compliance Matrix: (Units=1/GPa)
#
#
# Indices 1 2 3 4 5 6 
#
# 1 0.025108 -0.008739 -0.004407 0.000000 0.000000 0.000000
# 2 -0.008739 0.025108 -0.004407 0.000000 0.000000 0.000000
# 3 -0.004407 -0.004407 0.011164 0.000000 0.000000 0.000000
# 4 0.000000 0.000000 0.000000 0.096259 0.000000 0.000000
# 5 0.000000 0.000000 0.000000 0.000000 0.096259 0.000000
# 6 0.000000 0.000000 0.000000 0.000000 0.000000 0.067695
#
#
# Mechanical properties :
#
#
# Convention : Reuss Voigt Hill
#
# Bulk Modulus (GPa) = 38.05862 43.48836 40.77349
# Shear Modulus (GPa) = 13.68147 16.15044 14.91595
#
# Velocity S-wave (km/s) = 3.16212 3.43561 3.30169
# Velocity P-wave (km/s) = 6.41457 6.89354 6.65837
#
# Compressibility (1/GPa) = 0.02627526
#
# Stress axis : x y z
#
# Youngs Moduli (GPa) = 39.82744 39.82744 89.57237
#
# Poissons Ratio (x) = 0.34805 0.39473
# Poissons Ratio (y) = 0.34805 0.39473
# Poissons Ratio (z) = 0.17551 0.17551
#
# Static dielectric constant tensor:
#      x y z
#    x 1.460700 0.000000 0.000000 
#    y 0.000000 1.460700 0.000000 
#    z 0.000000 0.000000 1.495410 
# 
# From -- ./inp_files/3473.got.cif
#   From: 2010.05.17/outbox.cif.g08.bks.cpg/sg176_2_cif.got.tgz:3473.got - 2010.06.03 11:36:45.
