data_PCOD9581734
_publ_section_title
;
Structure prediction by ZEFSAII (Michael W. Deem and Ramdas Pophale) SiO2 
 PCOD9581734
Probable space group: P 63/M
;
_chemical_formula_sum "Si O2"
_cell_formula_units_Z 30
_cell_length_a 13.462580
_cell_length_b 13.462580
_cell_length_c 10.727565
_cell_angle_alpha 90.000000
_cell_angle_beta 90.000000
_cell_angle_gamma 120.000000
_cell_volume 1683.791762
_symmetry_space_group_name_H-M "P 63/M"
_symmetry_group_IT_number 176
_symmetry_cell_setting 'hexagonal'
loop_
_space_group_symop_operation_xyz
x,y,z
x-y,x,1/2+z
-y,x-y,z
-x,-y,1/2+z
-x+y,-x,z
y,-x+y,1/2+z
-x,-y,-z
-x+y,-x,1/2-z
y,-x+y,-z
x,y,1/2-z
x-y,x,-z
-y,x-y,1/2-z
loop_
_atom_site_type_symbol
_atom_site_label
_atom_site_fract_x
_atom_site_fract_y
_atom_site_fract_z
Si Si1 0.448841 0.317453 0.484179
Si Si2 0.767458 0.478176 0.750000
Si Si3 0.895803 0.340857 0.393742
O O1 0.460422 0.275744 0.621280
O O2 0.568914 0.424267 0.435750
O O3 0.419566 0.208439 0.400251
O O4 0.363999 0.366927 0.509477
O O5 0.630249 0.418833 0.750000
O O6 0.937291 0.368213 0.250000
#
# Coordination Sequence:
#
# PCOD9581734 Si02
#       3
#    12   6  12
#     4  11  21  35  55  80 112 143 181 220 265 321
#     4  10  16  32  54  72 112 152 174 214 258 316
#     4  11  22  36  55  81 111 144 179 221 268 319
#
# _framework density 17.816928999999998
#
# number of rings (size 3 to 8) (size 9 to 14) (size 15 to 20)
#    0.400    0.800    6.000    2.000    0.000    0.000 
#    3.600    0.000    0.000    0.800    0.000    0.000 
#    0.000    0.000    0.000    0.000    0.000    0.000 
#
# Total GULP energy -167121.991636 kJ/mol
# GULP energy per Si atom -5570.733055 kJ/mol
# Density = 1.777638 g / cm^3
# Si number density = 17.816929 Si / 1000 Ang^3
#
#
#
# Elastic Constant Matrix: (Units=GPa)
#
#
# Indices 1 2 3 4 5 6 
#
# 1 69.3413 25.9965 8.8163 0.0000 0.0000 0.0000
# 2 25.9965 69.3413 8.8163 0.0000 0.0000 0.0000
# 3 8.8163 8.8163 80.0342 0.0000 0.0000 0.0000
# 4 0.0000 0.0000 0.0000 21.0406 0.0000 0.0000
# 5 0.0000 0.0000 0.0000 0.0000 21.0406 0.0000
# 6 0.0000 0.0000 0.0000 0.0000 0.0000 21.6724
#
#
#
# Elastic Compliance Matrix: (Units=1/GPa)
#
#
# Indices 1 2 3 4 5 6 
#
# 1 0.016889 -0.006182 -0.001179 0.000000 0.000000 0.000000
# 2 -0.006182 0.016889 -0.001179 0.000000 0.000000 0.000000
# 3 -0.001179 -0.001179 0.012755 0.000000 0.000000 0.000000
# 4 0.000000 0.000000 0.000000 0.047527 0.000000 0.000000
# 5 0.000000 0.000000 0.000000 0.000000 0.047527 0.000000
# 6 0.000000 0.000000 0.000000 0.000000 0.000000 0.046142
#
#
# Mechanical properties :
#
#
# Convention : Reuss Voigt Hill
#
# Bulk Modulus (GPa) = 33.95472 33.99720 33.97596
# Shear Modulus (GPa) = 23.29625 24.42325 23.85975
#
# Velocity S-wave (km/s) = 3.61991 3.70643 3.66343
# Velocity P-wave (km/s) = 6.04736 6.11880 6.08318
#
# Compressibility (1/GPa) = 0.02945099
#
# Stress axis : x y z
#
# Youngs Moduli (GPa) = 59.21016 59.21016 78.40367
#
# Poissons Ratio (x) = 0.36603 0.09247
# Poissons Ratio (y) = 0.36603 0.09247
# Poissons Ratio (z) = 0.06984 0.06984
#
# Static dielectric constant tensor:
#      x y z
#    x 1.625920 0.000000 0.000000 
#    y 0.000000 1.625920 0.000000 
#    z 0.000000 0.000000 1.612040 
# 
# From -- ./inp_files/289.got.cif
#   From: 2010.05.17/outbox.cif.g08.bks.cpg/sg176_1_cif.got.tgz:289.got - 2010.06.03 11:36:45.
