data_PCOD9581461
_publ_section_title
;
Structure prediction by ZEFSAII (Michael W. Deem and Ramdas Pophale) SiO2 
 PCOD9581461
Probable space group: P 6/M
;
_chemical_formula_sum "Si O2"
_cell_formula_units_Z 66
_cell_length_a 20.811432
_cell_length_b 20.811432
_cell_length_c 7.427120
_cell_angle_alpha 90.000000
_cell_angle_beta 90.000000
_cell_angle_gamma 120.000000
_cell_volume 2785.832504
_symmetry_space_group_name_H-M "P 6/M"
_symmetry_group_IT_number 175
_symmetry_cell_setting 'hexagonal'
loop_
_space_group_symop_operation_xyz
x,y,z
x-y,x,z
-y,x-y,z
-x,-y,z
-x+y,-x,z
y,-x+y,z
-x,-y,-z
-x+y,-x,-z
y,-x+y,-z
x,y,-z
x-y,x,-z
-y,x-y,-z
loop_
_atom_site_type_symbol
_atom_site_label
_atom_site_fract_x
_atom_site_fract_y
_atom_site_fract_z
Si Si1 0.898149 0.066924 0.720086
Si Si2 0.922470 0.421950 0.209164
Si Si3 0.188412 0.319817 0.291198
Si Si4 0.549364 0.374360 0.500000
Si Si5 0.333679 0.330994 0.215848
Si Si6 0.171155 0.448000 0.795723
O O1 0.896695 0.067189 0.500000
O O2 0.856757 0.110637 0.781788
O O3 0.983273 0.116901 0.777306
O O4 0.865166 0.426807 0.341512
O O5 0.949302 0.365434 0.271652
O O6 0.000000 0.500000 0.211302
O O7 0.897588 0.406769 0.000000
O O8 0.179514 0.330401 0.500000
O O9 0.248808 0.293255 0.276424
O O10 0.209162 0.397177 0.200989
O O11 0.515022 0.309340 0.658151
O O12 0.390975 0.304445 0.274966
O O13 0.333993 0.327959 0.000000
O O14 0.166030 0.470009 0.000000
#
# Coordination Sequence:
#
# PCOD9581461 Si02
#       6
#    12  12  12   6  12  12
#     4   9  17  30  49  76 110 152 208 270 326 378
#     4  10  20  34  54  86 119 148 185 224 277 342
#     4  11  22  34  53  81 116 159 205 251 305 368
#     4  12  21  34  58  86 110 156 182 230 279 336
#     4  10  22  37  55  80 117 157 191 240 293 347
#     4  11  23  38  55  81 118 158 199 237 291 355
#
# _framework density 23.691300999999999
#
# number of rings (size 3 to 8) (size 9 to 14) (size 15 to 20)
#    0.000    1.636    2.727    2.636    2.545    2.182 
#    0.000    0.000    0.000    0.000    0.000    0.000 
#    7.273    8.727    4.364    0.000    0.000    0.000 
#
# Total GULP energy -367500.954338 kJ/mol
# GULP energy per Si atom -5568.196278 kJ/mol
# Density = 2.363738 g / cm^3
# Si number density = 23.691301 Si / 1000 Ang^3
#
#
#
# Elastic Constant Matrix: (Units=GPa)
#
#
# Indices 1 2 3 4 5 6 
#
# 1 42.8956 -19.9782 -4.9344 0.0000 0.0000 0.0000
# 2 -19.9782 42.8956 -4.9344 0.0000 0.0000 0.0000
# 3 -4.9344 -4.9344 127.9204 0.0000 0.0000 0.0000
# 4 0.0000 0.0000 0.0000 5.5938 0.0000 0.0000
# 5 0.0000 0.0000 0.0000 0.0000 5.5938 0.0000
# 6 0.0000 0.0000 0.0000 0.0000 0.0000 31.4369
#
#
#
# Elastic Compliance Matrix: (Units=1/GPa)
#
#
# Indices 1 2 3 4 5 6 
#
# 1 0.030138 0.014234 0.001712 0.000000 0.000000 0.000000
# 2 0.014234 0.030138 0.001712 0.000000 0.000000 0.000000
# 3 0.001712 0.001712 0.007949 0.000000 0.000000 0.000000
# 4 0.000000 0.000000 0.000000 0.178769 0.000000 0.000000
# 5 0.000000 0.000000 0.000000 0.000000 0.178769 0.000000
# 6 0.000000 0.000000 0.000000 0.000000 0.000000 0.031810
#
#
# Mechanical properties :
#
#
# Convention : Reuss Voigt Hill
#
# Bulk Modulus (GPa) = 9.65812 17.11307 13.38559
# Shear Modulus (GPa) = 10.94632 24.76215 17.85423
#
# Velocity S-wave (km/s) = 2.15184 3.23646 2.74819
# Velocity P-wave (km/s) = 3.20303 4.60492 3.96640
#
# Compressibility (1/GPa) = 0.10353983
#
# Stress axis : x y z
#
# Youngs Moduli (GPa) = 33.18022 33.18022 125.79550
#
# Poissons Ratio (x) = -0.47227 -0.21531
# Poissons Ratio (y) = -0.47227 -0.21531
# Poissons Ratio (z) = -0.05679 -0.05679
#
# Static dielectric constant tensor:
#      x y z
#    x 2.343190 0.000000 0.000000 
#    y 0.000000 2.343190 0.000000 
#    z 0.000000 0.000000 1.846840 
# 
# From -- ./inp_files/1040.got.cif
#   From: 2010.05.17/outbox.cif.g08.bks.cpg/sg175_1_cif.got.tgz:1040.got - 2010.05.20 11:23:22.
