data_PCOD9581267
_publ_section_title
;
Structure prediction by ZEFSAII (Michael W. Deem and Ramdas Pophale) SiO2 
 PCOD9581267
Probable space group: P 6/M
;
_chemical_formula_sum "Si O2"
_cell_formula_units_Z 96
_cell_length_a 13.104277
_cell_length_b 13.104277
_cell_length_c 29.642717
_cell_angle_alpha 90.000000
_cell_angle_beta 90.000000
_cell_angle_gamma 120.000000
_cell_volume 4408.336814
_symmetry_space_group_name_H-M "P 6/M"
_symmetry_group_IT_number 175
_symmetry_cell_setting 'hexagonal'
loop_
_space_group_symop_operation_xyz
x,y,z
x-y,x,z
-y,x-y,z
-x,-y,z
-x+y,-x,z
y,-x+y,z
-x,-y,-z
-x+y,-x,-z
y,-x+y,-z
x,y,-z
x-y,x,-z
-y,x-y,-z
loop_
_atom_site_type_symbol
_atom_site_label
_atom_site_fract_x
_atom_site_fract_y
_atom_site_fract_z
Si Si1 0.345259 0.858958 0.231908
Si Si2 0.748423 0.669320 0.950798
Si Si3 0.531399 0.134581 0.143233
Si Si4 0.918767 0.184002 0.854267
Si Si5 0.220938 0.264954 0.647999
Si Si6 0.737203 0.956566 0.451595
Si Si7 0.498681 0.642584 0.050585
Si Si8 0.104002 0.672453 0.732191
O O1 0.381739 0.818375 0.186411
O O2 0.131756 0.724675 0.148658
O O3 0.381938 0.995345 0.233104
O O4 0.146874 0.576794 0.270602
O O5 0.813257 0.749416 0.908422
O O6 0.608159 0.617151 0.945070
O O7 0.785790 0.570362 0.950424
O O8 0.777055 0.726785 0.000000
O O9 0.599179 0.178985 0.095571
O O10 0.500000 0.000000 0.143401
O O11 0.053015 0.230235 0.837297
O O12 0.788182 0.214328 0.753759
O O13 0.084299 0.231965 0.652342
O O14 0.265156 0.317784 0.597655
O O15 0.295094 0.357742 0.686681
O O16 0.675321 0.946296 0.500000
O O17 0.855129 0.083215 0.451698
O O18 0.445766 0.604424 0.000000
#
# Coordination Sequence:
#
# PCOD9581267 Si02
#       8
#    12  12  12  12  12  12  12  12
#     4  11  26  44  69  96 131 167 220 275 343 399
#     4  10  19  36  65  99 136 172 209 257 302 366
#     4  12  24  45  69  96 130 168 208 262 321 391
#     4  12  26  47  74 104 137 169 210 254 316 392
#     4  10  18  31  58  92 137 183 228 282 340 408
#     4   8  13  21  38  75 126 181 230 275 330 396
#     4  10  22  39  68  99 133 173 212 264 322 378
#     4  11  22  44  64  95 127 169 221 283 334 399
#
# _framework density 21.77692
#
# number of rings (size 3 to 8) (size 9 to 14) (size 15 to 20)
#    0.000    1.500    5.000    0.625    0.000    5.250 
#    2.250    0.000    5.500    0.750    0.000    4.375 
#    0.000    0.000    0.000    0.000    0.000    0.000 
#
# Total GULP energy -536129.268510 kJ/mol
# GULP energy per Si atom -5584.679880 kJ/mol
# Density = 2.172735 g / cm^3
# Si number density = 21.776920 Si / 1000 Ang^3
#
#
#
# Elastic Constant Matrix: (Units=GPa)
#
#
# Indices 1 2 3 4 5 6 
#
# 1 110.7596 48.3411 43.2553 0.0000 0.0000 0.0000
# 2 48.3411 110.7596 43.2553 0.0000 0.0000 0.0000
# 3 43.2553 43.2553 177.2478 0.0000 0.0000 0.0000
# 4 0.0000 0.0000 0.0000 24.9596 0.0000 0.0000
# 5 0.0000 0.0000 0.0000 0.0000 24.9596 0.0000
# 6 0.0000 0.0000 0.0000 0.0000 0.0000 31.2092
#
#
#
# Elastic Compliance Matrix: (Units=1/GPa)
#
#
# Indices 1 2 3 4 5 6 
#
# 1 0.011634 -0.004387 -0.001769 0.000000 0.000000 0.000000
# 2 -0.004387 0.011634 -0.001769 0.000000 0.000000 0.000000
# 3 -0.001769 -0.001769 0.006505 0.000000 0.000000 0.000000
# 4 0.000000 0.000000 0.000000 0.040065 0.000000 0.000000
# 5 0.000000 0.000000 0.000000 0.000000 0.040065 0.000000
# 6 0.000000 0.000000 0.000000 0.000000 0.000000 0.032042
#
#
# Mechanical properties :
#
#
# Convention : Reuss Voigt Hill
#
# Bulk Modulus (GPa) = 71.81446 74.27452 73.04449
# Shear Modulus (GPa) = 30.78175 33.82003 32.30089
#
# Velocity S-wave (km/s) = 3.76374 3.94511 3.85549
# Velocity P-wave (km/s) = 7.20670 7.41168 7.30991
#
# Compressibility (1/GPa) = 0.01392477
#
# Stress axis : x y z
#
# Youngs Moduli (GPa) = 85.95544 85.95544 153.72785
#
# Poissons Ratio (x) = 0.37708 0.27187
# Poissons Ratio (y) = 0.37708 0.27187
# Poissons Ratio (z) = 0.15202 0.15202
#
# Static dielectric constant tensor:
#      x y z
#    x 1.862140 0.000000 0.000000 
#    y 0.000000 1.862140 0.000000 
#    z 0.000000 0.000000 1.861260 
# 
# From -- ./inp_files/3348.got.cif
#   From: 2010.05.17/outbox.cif.g08.bks.cpg/sg175_2_cif.got.tgz:3348.got - 2010.05.20 11:23:22.
