data_PCOD9581194
_publ_section_title
;
Structure prediction by ZEFSAII (Michael W. Deem and Ramdas Pophale) SiO2 
 PCOD9581194
Probable space group: P -6
;
_chemical_formula_sum "Si O2"
_cell_formula_units_Z 30
_cell_length_a 8.573743
_cell_length_b 8.573743
_cell_length_c 24.892694
_cell_angle_alpha 90.000000
_cell_angle_beta 90.000000
_cell_angle_gamma 120.000000
_cell_volume 1584.686852
_symmetry_space_group_name_H-M "P -6"
_symmetry_group_IT_number 174
_symmetry_cell_setting 'hexagonal'
loop_
_space_group_symop_operation_xyz
x,y,z
-x+y,-x,-z
-y,x-y,z
x,y,-z
-x+y,-x,z
-y,x-y,-z
loop_
_atom_site_type_symbol
_atom_site_label
_atom_site_fract_x
_atom_site_fract_y
_atom_site_fract_z
Si Si1 0.549850 0.862308 0.882179
Si Si2 0.003743 0.671097 0.336817
Si Si3 0.463427 0.125110 0.500000
Si Si4 0.549801 0.861425 0.000000
Si Si5 0.664492 0.662557 0.617812
Si Si6 0.198883 0.210903 0.780139
O O1 0.350914 0.841616 0.878528
O O2 0.630640 0.934194 0.941578
O O3 0.679551 0.969169 0.833787
O O4 0.861765 0.724736 0.359463
O O5 0.942850 0.470407 0.354825
O O6 0.193960 0.802639 0.364246
O O7 0.018554 0.701142 0.273113
O O8 0.496427 0.329375 0.500000
O O9 0.365976 0.026324 0.554157
O O10 0.350904 0.842001 0.000000
O O11 0.173165 0.010610 0.778916
#
# Coordination Sequence:
#
# PCOD9581194 Si02
#       6
#     6   6   3   3   6   6
#     4   8  16  29  56  81 102 151 203 245 290 356
#     4  12  24  43  61  95 119 168 195 255 308 376
#     4  10  20  42  66  92 118 152 198 248 298 368
#     4   6  10  26  46  78 110 134 194 254 290 340
#     4  12  24  42  68  88 124 155 203 247 310 364
#     4  10  21  36  51  80 127 151 191 251 304 353
#
# _framework density 18.931187000000001
#
# number of rings (size 3 to 8) (size 9 to 14) (size 15 to 20)
#    1.200    0.800    4.000    1.200    2.800    1.600 
#    0.000    1.000    0.000    0.800    0.000    0.000 
#    0.000    0.000    0.000    0.000    0.000    0.000 
#
# Total GULP energy -167038.497094 kJ/mol
# GULP energy per Si atom -5567.949903 kJ/mol
# Density = 1.888810 g / cm^3
# Si number density = 18.931187 Si / 1000 Ang^3
#
#
#
# Elastic Constant Matrix: (Units=GPa)
#
#
# Indices 1 2 3 4 5 6 
#
# 1 33.9330 -5.6268 25.6471 0.0000 0.0000 0.0000
# 2 -5.6268 33.9330 25.6471 0.0000 0.0000 0.0000
# 3 25.6471 25.6471 218.4697 0.0000 0.0000 0.0000
# 4 0.0000 0.0000 0.0000 -65.8902 0.0000 0.0000
# 5 0.0000 0.0000 0.0000 0.0000 -65.8902 0.0000
# 6 0.0000 0.0000 0.0000 0.0000 0.0000 19.7799
#
#
#
# Elastic Compliance Matrix: (Units=1/GPa)
#
#
# Indices 1 2 3 4 5 6 
#
# 1 0.035076 0.009798 -0.005268 0.000000 0.000000 0.000000
# 2 0.009798 0.035076 -0.005268 0.000000 0.000000 0.000000
# 3 -0.005268 -0.005268 0.005814 0.000000 0.000000 0.000000
# 4 0.000000 0.000000 0.000000 -0.015177 0.000000 0.000000
# 5 0.000000 0.000000 0.000000 0.000000 -0.015177 0.000000
# 6 0.000000 0.000000 0.000000 0.000000 0.000000 0.050556
#
#
# Mechanical properties :
#
#
# Convention : Reuss Voigt Hill
#
# Bulk Modulus (GPa) = 13.42451 41.96340 27.69396
# Shear Modulus (GPa) = 40.82447 -6.35557 17.23445
#
# Velocity S-wave (km/s) = 4.64881 -1.83425 3.02051
# Velocity P-wave (km/s) = 5.99349 4.21051 5.17930
#
# Compressibility (1/GPa) = 0.07449060
#
# Stress axis : x y z
#
# Youngs Moduli (GPa) = 28.50937 28.50937 171.99392
#
# Poissons Ratio (x) = -0.27933 0.90606
# Poissons Ratio (y) = -0.27933 0.90606
# Poissons Ratio (z) = 0.15019 0.15019
#
# Static dielectric constant tensor:
#      x y z
#    x 1.726740 0.000000 0.000000 
#    y 0.000000 1.726740 0.000000 
#    z 0.000000 0.000000 1.641610 
# 
# From -- ./inp_files/1076.got.cif
#   From: 2010.05.17/outbox.cif.g08.bks.cpg/sg174_cif.got.tgz:1076.got - 2010.05.20 11:22:48.
