data_PCOD9581899
_publ_section_title
;
Structure prediction by ZEFSAII (Michael W. Deem and Ramdas Pophale) SiO2 
 PCOD9581899
Probable space group: P 63/M
;
_chemical_formula_sum "Si O2"
_cell_formula_units_Z 84
_cell_length_a 18.230948
_cell_length_b 18.230948
_cell_length_c 15.178869
_cell_angle_alpha 90.000000
_cell_angle_beta 90.000000
_cell_angle_gamma 120.000000
_cell_volume 4369.065436
_symmetry_space_group_name_H-M "P 63/M"
_symmetry_group_IT_number 176
_symmetry_cell_setting 'hexagonal'
loop_
_space_group_symop_operation_xyz
x,y,z
x-y,x,1/2+z
-y,x-y,z
-x,-y,1/2+z
-x+y,-x,z
y,-x+y,1/2+z
-x,-y,-z
-x+y,-x,1/2-z
y,-x+y,-z
x,y,1/2-z
x-y,x,-z
-y,x-y,1/2-z
loop_
_atom_site_type_symbol
_atom_site_label
_atom_site_fract_x
_atom_site_fract_y
_atom_site_fract_z
Si Si1 0.138208 0.330313 0.646701
Si Si2 0.969306 0.326274 0.647401
Si Si3 0.552116 0.891150 0.851774
Si Si4 0.305964 0.171983 0.650637
Si Si5 0.424251 0.517077 0.023314
Si Si6 0.645189 0.095630 0.850753
Si Si7 0.931366 0.810485 0.495861
O O1 0.124631 0.307482 0.750000
O O2 0.237571 0.396898 0.635561
O O3 0.114644 0.250837 0.585361
O O4 0.067232 0.356891 0.623996
O O5 0.966953 0.348963 0.750000
O O6 0.913224 0.224354 0.640507
O O7 0.925333 0.362870 0.584318
O O8 0.520846 0.877215 0.750000
O O9 0.611619 0.994079 0.861763
O O10 0.484914 0.865267 0.930978
O O11 0.277522 0.175115 0.750000
O O12 0.397990 0.254006 0.639549
O O13 0.246849 0.176192 0.576733
O O14 0.471990 0.600993 0.082021
O O15 0.500000 0.500000 0.000000
O O16 0.623551 0.104666 0.750000
O O17 0.879708 0.854553 0.527358
#
# Coordination Sequence:
#
# PCOD9581899 Si02
#       7
#    12  12  12  12  12  12  12
#     4  10  21  37  57  81 114 153 199 250 301 353
#     4  10  20  36  58  87 115 146 193 251 295 340
#     4   9  18  33  53  82 115 153 193 232 289 355
#     4  10  21  38  60  85 115 155 202 248 302 360
#     4  10  20  33  54  85 116 143 180 232 290 348
#     4   9  18  33  56  83 113 147 185 236 294 355
#     4  12  24  36  54  77 116 159 211 263 315 364
#
# _framework density 19.22608
#
# number of rings (size 3 to 8) (size 9 to 14) (size 15 to 20)
#    0.000    2.000    1.429    2.286    4.000    2.286 
#    0.000    0.000    0.000    2.286    0.000    2.000 
#    0.000    0.000    0.000    0.000    0.000    0.000 
#
# Total GULP energy -468457.061163 kJ/mol
# GULP energy per Si atom -5576.869776 kJ/mol
# Density = 1.918232 g / cm^3
# Si number density = 19.226080 Si / 1000 Ang^3
#
#
#
# Elastic Constant Matrix: (Units=GPa)
#
#
# Indices 1 2 3 4 5 6 
#
# 1 52.6210 11.3763 42.5179 0.0000 0.0000 0.0000
# 2 11.3763 52.6210 42.5179 0.0000 0.0000 0.0000
# 3 42.5179 42.5179 87.7342 0.0000 0.0000 0.0000
# 4 0.0000 0.0000 0.0000 14.1801 0.0000 0.0000
# 5 0.0000 0.0000 0.0000 0.0000 14.1801 0.0000
# 6 0.0000 0.0000 0.0000 0.0000 0.0000 20.6224
#
#
#
# Elastic Compliance Matrix: (Units=1/GPa)
#
#
# Indices 1 2 3 4 5 6 
#
# 1 0.034065 0.009819 -0.021267 0.000000 0.000000 0.000000
# 2 0.009819 0.034065 -0.021267 0.000000 0.000000 0.000000
# 3 -0.021267 -0.021267 0.032011 0.000000 0.000000 0.000000
# 4 0.000000 0.000000 0.000000 0.070522 0.000000 0.000000
# 5 0.000000 0.000000 0.000000 0.000000 0.070522 0.000000
# 6 0.000000 0.000000 0.000000 0.000000 0.000000 0.048491
#
#
# Mechanical properties :
#
#
# Convention : Reuss Voigt Hill
#
# Bulk Modulus (GPa) = 28.80954 42.86673 35.83813
# Shear Modulus (GPa) = 13.63602 16.23411 14.93506
#
# Velocity S-wave (km/s) = 2.66606 2.90897 2.79016
# Velocity P-wave (km/s) = 4.94917 5.79891 5.39081
#
# Compressibility (1/GPa) = 0.03471072
#
# Stress axis : x y z
#
# Youngs Moduli (GPa) = 29.35568 29.35568 31.23897
#
# Poissons Ratio (x) = -0.28826 0.66437
# Poissons Ratio (y) = -0.28826 0.66437
# Poissons Ratio (z) = 0.62432 0.62432
#
# Static dielectric constant tensor:
#      x y z
#    x 1.764080 0.000000 0.000000 
#    y 0.000000 1.764080 0.000000 
#    z 0.000000 0.000000 1.718140 
# 
# From -- ./inp_files/2935.got.cif
#   From: 2010.05.17/outbox.cif.g08.bks.cpg/sg176_2_cif.got.tgz:2935.got - 2010.06.03 11:36:45.
