data_PCOD9581298
_publ_section_title
;
Structure prediction by ZEFSAII (Michael W. Deem and Ramdas Pophale) SiO2 
 PCOD9581298
Probable space group: P 6/M
;
_chemical_formula_sum "Si O2"
_cell_formula_units_Z 74
_cell_length_a 13.254584
_cell_length_b 13.254584
_cell_length_c 29.346566
_cell_angle_alpha 90.000000
_cell_angle_beta 90.000000
_cell_angle_gamma 120.000000
_cell_volume 4464.986239
_symmetry_space_group_name_H-M "P 6/M"
_symmetry_group_IT_number 175
_symmetry_cell_setting 'hexagonal'
loop_
_space_group_symop_operation_xyz
x,y,z
x-y,x,z
-y,x-y,z
-x,-y,z
-x+y,-x,z
y,-x+y,z
-x,-y,-z
-x+y,-x,-z
y,-x+y,-z
x,y,-z
x-y,x,-z
-y,x-y,-z
loop_
_atom_site_type_symbol
_atom_site_label
_atom_site_fract_x
_atom_site_fract_y
_atom_site_fract_z
Si Si1 0.743811 0.969629 0.549108
Si Si2 0.666668 0.333334 0.181425
Si Si3 0.745323 0.968808 0.000000
Si Si4 0.030350 0.775511 0.746935
Si Si5 0.087971 0.637610 0.819765
Si Si6 0.449141 0.087583 0.926777
Si Si7 0.666667 0.333334 0.929105
Si Si8 0.030243 0.775027 0.352823
O O1 0.771459 0.864123 0.549089
O O2 0.685001 0.962604 0.500000
O O3 0.685064 0.962624 0.598243
O O4 0.783819 0.334604 0.195378
O O5 0.666668 0.333334 0.126163
O O6 0.770833 0.862767 0.000000
O O7 0.665405 0.956291 0.956588
O O8 0.043624 0.703633 0.787582
O O9 0.036833 0.726477 0.696652
O O10 0.907591 0.771489 0.749764
O O11 0.093916 0.669430 0.873234
O O12 0.000000 0.500000 0.816844
O O13 0.550218 0.215496 0.942613
O O14 0.500000 0.000000 0.931377
O O15 0.907844 0.772738 0.352904
#
# Coordination Sequence:
#
# PCOD9581298 Si02
#       8
#    12   4   6  12  12  12   4  12
#     4   8  11  14  22  38  63  98 140 183 224 266
#     4   9  18  33  52  76 102 126 154 196 243 283
#     4  12  26  42  58  78 107 140 168 194 228 272
#     4  10  19  30  45  66  94 128 163 197 233 278
#     4  10  20  35  55  76  99 126 158 196 241 287
#     4  10  21  38  59  82 104 127 158 199 242 285
#     4   9  18  34  58  84 105 126 159 199 241 283
#     4   8  13  20  30  47  74 109 148 187 226 269
#
# _framework density 16.573399999999999
#
# number of rings (size 3 to 8) (size 9 to 14) (size 15 to 20)
#    0.000    2.595    0.000    2.757    0.000    7.784 
#    0.000    0.000    0.000    1.946    0.000    0.000 
#    0.000    0.649    0.000    2.270    0.000    6.649 
#
# Total GULP energy -411961.882967 kJ/mol
# GULP energy per Si atom -5567.052473 kJ/mol
# Density = 1.653568 g / cm^3
# Si number density = 16.573400 Si / 1000 Ang^3
#
#
#
# Elastic Constant Matrix: (Units=GPa)
#
#
# Indices 1 2 3 4 5 6 
#
# 1 53.3510 13.4892 49.4982 0.0000 0.0000 -0.0001
# 2 13.4892 53.3514 49.4982 0.0000 0.0000 -0.0006
# 3 49.4982 49.4982 144.9141 0.0000 0.0000 0.0001
# 4 0.0000 0.0000 0.0000 -28.5908 0.0034 0.0000
# 5 0.0000 0.0000 0.0000 0.0034 -28.5881 0.0000
# 6 -0.0001 -0.0006 0.0001 0.0000 0.0000 19.9310
#
#
#
# Elastic Compliance Matrix: (Units=1/GPa)
#
#
# Indices 1 2 3 4 5 6 
#
# 1 0.027683 0.002596 -0.010342 0.000000 0.000000 0.000000
# 2 0.002596 0.027683 -0.010342 0.000000 0.000000 0.000001
# 3 -0.010342 -0.010342 0.013966 0.000000 0.000000 0.000000
# 4 0.000000 0.000000 0.000000 -0.034976 -0.000004 0.000000
# 5 0.000000 0.000000 0.000000 -0.000004 -0.034980 0.000000
# 6 0.000000 0.000001 0.000000 0.000000 0.000000 0.050173
#
#
# Mechanical properties :
#
#
# Convention : Reuss Voigt Hill
#
# Bulk Modulus (GPa) = 30.16192 52.95416 41.55804
# Shear Modulus (GPa) = 51.66511 1.82581 26.74546
#
# Velocity S-wave (km/s) = 5.58938 1.05074 4.02152
# Velocity P-wave (km/s) = 7.73908 5.78729 6.83323
#
# Compressibility (1/GPa) = 0.03315439
#
# Stress axis : x y z
#
# Youngs Moduli (GPa) = 36.12337 36.12380 71.60294
#
# Poissons Ratio (x) = -0.09379 0.74055
# Poissons Ratio (y) = -0.09378 0.74054
# Poissons Ratio (z) = 0.37360 0.37360
#
# Static dielectric constant tensor:
#      x y z
#    x 1.531720 0.000000 0.000000 
#    y 0.000000 1.531720 0.000000 
#    z 0.000000 0.000000 1.638030 
# 
# From -- ./inp_files/3401.got.cif
#   From: 2010.05.17/outbox.cif.g08.bks.cpg/sg175_2_cif.got.tgz:3401.got - 2010.05.20 11:23:22.
