data_PCOD9581221
_publ_section_title
;
Structure prediction by ZEFSAII (Michael W. Deem and Ramdas Pophale) SiO2 
 PCOD9581221
Probable space group: P -6
;
_chemical_formula_sum "Si O2"
_cell_formula_units_Z 17
_cell_length_a 11.240078
_cell_length_b 11.240078
_cell_length_c 7.564659
_cell_angle_alpha 90.000000
_cell_angle_beta 90.000000
_cell_angle_gamma 120.000000
_cell_volume 827.672713
_symmetry_space_group_name_H-M "P -6"
_symmetry_group_IT_number 174
_symmetry_cell_setting 'hexagonal'
loop_
_space_group_symop_operation_xyz
x,y,z
-x+y,-x,-z
-y,x-y,z
x,y,-z
-x+y,-x,z
-y,x-y,-z
loop_
_atom_site_type_symbol
_atom_site_label
_atom_site_fract_x
_atom_site_fract_y
_atom_site_fract_z
Si Si1 0.848128 0.995028 0.214308
Si Si2 0.333333 0.666668 0.712662
Si Si3 0.588668 0.433898 0.500000
Si Si4 0.027957 0.593717 0.204630
O O1 0.709642 0.987893 0.273294
O O2 0.873565 0.869060 0.265841
O O3 0.841862 0.993307 0.000000
O O4 0.333334 0.666668 0.500000
O O5 0.451038 0.813753 0.779218
O O6 0.748257 0.480825 0.500000
O O7 0.536475 0.474768 0.327338
O O8 0.984770 0.566166 0.000000
#
# Coordination Sequence:
#
# PCOD9581221 Si02
#       4
#     6   2   3   6
#     4   7  14  32  58  94 126 159 212 266 321 385
#     4  12  25  44  67 100 140 181 226 278 352 409
#     4  10  26  46  62  96 132 170 230 274 340 414
#     4  11  22  42  70  97 133 177 225 283 337 405
#
# _framework density 20.539521000000001
#
# number of rings (size 3 to 8) (size 9 to 14) (size 15 to 20)
#    1.059    1.412    1.765    1.059    0.000    4.235 
#    0.000    5.294    0.000    0.000    0.000    0.000 
#    0.000    0.000    0.000    0.000    0.000    0.000 
#
# Total GULP energy -94734.896931 kJ/mol
# GULP energy per Si atom -5572.640996 kJ/mol
# Density = 2.049277 g / cm^3
# Si number density = 20.539521 Si / 1000 Ang^3
#
#
#
# Elastic Constant Matrix: (Units=GPa)
#
#
# Indices 1 2 3 4 5 6 
#
# 1 62.8624 -3.6884 14.5432 0.0000 0.0000 0.0002
# 2 -3.6884 62.8622 14.5428 0.0000 0.0000 -0.0001
# 3 14.5432 14.5428 95.3944 0.0000 0.0000 0.0003
# 4 0.0000 0.0000 0.0000 18.7310 -0.0001 0.0000
# 5 0.0000 0.0000 0.0000 -0.0001 18.7310 0.0000
# 6 0.0002 -0.0001 0.0003 0.0000 0.0000 33.2758
#
#
#
# Elastic Compliance Matrix: (Units=1/GPa)
#
#
# Indices 1 2 3 4 5 6 
#
# 1 0.016647 0.001621 -0.002785 0.000000 0.000000 0.000000
# 2 0.001621 0.016647 -0.002785 0.000000 0.000000 0.000000
# 3 -0.002785 -0.002785 0.011332 0.000000 0.000000 0.000000
# 4 0.000000 0.000000 0.000000 0.053388 0.000000 0.000000
# 5 0.000000 0.000000 0.000000 0.000000 0.053387 0.000000
# 6 0.000000 0.000000 0.000000 0.000000 0.000000 0.030052
#
#
# Mechanical properties :
#
#
# Convention : Reuss Voigt Hill
#
# Bulk Modulus (GPa) = 27.22686 30.21268 28.71977
# Shear Modulus (GPa) = 24.80233 27.19565 25.99899
#
# Velocity S-wave (km/s) = 3.47874 3.64272 3.56167
# Velocity P-wave (km/s) = 5.42403 5.69508 5.56121
#
# Compressibility (1/GPa) = 0.03672844
#
# Stress axis : x y z
#
# Youngs Moduli (GPa) = 60.07014 60.07011 88.24606
#
# Poissons Ratio (x) = -0.09738 0.24577
# Poissons Ratio (y) = -0.09738 0.24576
# Poissons Ratio (z) = 0.16730 0.16729
#
# Static dielectric constant tensor:
#      x y z
#    x 1.726150 0.000000 0.000000 
#    y 0.000000 1.726150 0.000000 
#    z 0.000000 0.000000 1.746500 
# 
# From -- ./inp_files/106.got.cif
#   From: 2010.05.17/outbox.cif.g08.bks.cpg/sg174_cif.got.tgz:106.got - 2010.05.20 11:22:48.
