data_PCOD9581981
_publ_section_title
;
Structure prediction by ZEFSAII (Michael W. Deem and Ramdas Pophale) SiO2 
 PCOD9581981
Probable space group: P 63/M
;
_chemical_formula_sum "Si O2"
_cell_formula_units_Z 84
_cell_length_a 18.155723
_cell_length_b 18.155723
_cell_length_c 16.417707
_cell_angle_alpha 90.000000
_cell_angle_beta 90.000000
_cell_angle_gamma 120.000000
_cell_volume 4686.733172
_symmetry_space_group_name_H-M "P 63/M"
_symmetry_group_IT_number 176
_symmetry_cell_setting 'hexagonal'
loop_
_space_group_symop_operation_xyz
x,y,z
x-y,x,1/2+z
-y,x-y,z
-x,-y,1/2+z
-x+y,-x,z
y,-x+y,1/2+z
-x,-y,-z
-x+y,-x,1/2-z
y,-x+y,-z
x,y,1/2-z
x-y,x,-z
-y,x-y,1/2-z
loop_
_atom_site_type_symbol
_atom_site_label
_atom_site_fract_x
_atom_site_fract_y
_atom_site_fract_z
Si Si1 0.488354 0.182721 0.586724
Si Si2 0.158292 0.173511 0.024164
Si Si3 0.640970 0.895419 0.557211
Si Si4 0.456739 0.640934 0.157532
Si Si5 0.018034 0.573874 0.844180
Si Si6 0.791793 0.085846 0.346602
Si Si7 0.599008 0.007275 0.347419
O O1 0.434155 0.166891 0.504547
O O2 0.492652 0.260384 0.636001
O O3 0.586299 0.203288 0.591704
O O4 0.439736 0.091095 0.630167
O O5 0.203685 0.175307 0.109134
O O6 0.159269 0.096337 0.974687
O O7 0.219037 0.267837 0.987268
O O8 0.663519 0.845976 0.624460
O O9 0.605303 0.950135 0.599941
O O10 0.420412 0.627093 0.250000
O O11 0.521338 0.605260 0.156975
O O12 0.047393 0.596881 0.750000
O O13 0.041684 0.504219 0.877848
O O14 0.792916 0.077391 0.250000
O O15 0.695698 0.055423 0.374663
O O16 0.596928 0.012933 0.250000
#
# Coordination Sequence:
#
# PCOD9581981 Si02
#       7
#    12  12  12  12  12  12  12
#     4  11  21  34  54  83 117 154 192 240 294 351
#     4  10  22  41  62  87 116 151 189 243 308 364
#     4  11  23  35  58  86 118 152 194 251 294 357
#     4  10  21  35  55  81 116 155 193 237 290 351
#     4   9  20  36  54  79 111 153 192 235 292 346
#     4  10  21  39  61  86 116 153 197 244 297 361
#     4   9  18  35  57  79 109 151 195 236 288 351
#
# _framework density 17.922930999999998
#
# number of rings (size 3 to 8) (size 9 to 14) (size 15 to 20)
#    0.000    2.000    1.429    3.000    4.000    3.429 
#    0.000    3.571    0.000    0.571    0.000    2.000 
#    0.000    0.000    0.000    0.000    0.000    0.000 
#
# Total GULP energy -467975.378816 kJ/mol
# GULP energy per Si atom -5571.135462 kJ/mol
# Density = 1.788214 g / cm^3
# Si number density = 17.922931 Si / 1000 Ang^3
#
#
#
# Elastic Constant Matrix: (Units=GPa)
#
#
# Indices 1 2 3 4 5 6 
#
# 1 73.2227 33.1361 32.6299 0.0000 0.0000 0.0000
# 2 33.1361 73.2227 32.6299 0.0000 0.0000 0.0000
# 3 32.6299 32.6299 42.7342 0.0000 0.0000 0.0000
# 4 0.0000 0.0000 0.0000 25.6027 0.0000 0.0000
# 5 0.0000 0.0000 0.0000 0.0000 25.6027 0.0000
# 6 0.0000 0.0000 0.0000 0.0000 0.0000 20.0433
#
#
#
# Elastic Compliance Matrix: (Units=1/GPa)
#
#
# Indices 1 2 3 4 5 6 
#
# 1 0.021318 -0.003628 -0.013507 0.000000 0.000000 0.000000
# 2 -0.003628 0.021318 -0.013507 0.000000 0.000000 0.000000
# 3 -0.013507 -0.013507 0.044027 0.000000 0.000000 0.000000
# 4 0.000000 0.000000 0.000000 0.039058 0.000000 0.000000
# 5 0.000000 0.000000 0.000000 0.000000 0.039058 0.000000
# 6 0.000000 0.000000 0.000000 0.000000 0.000000 0.049892
#
#
# Mechanical properties :
#
#
# Convention : Reuss Voigt Hill
#
# Bulk Modulus (GPa) = 39.40357 42.88572 41.14464
# Shear Modulus (GPa) = 17.57986 20.30198 18.94092
#
# Velocity S-wave (km/s) = 3.13526 3.36927 3.25437
# Velocity P-wave (km/s) = 5.92784 6.25426 6.09323
#
# Compressibility (1/GPa) = 0.02537841
#
# Stress axis : x y z
#
# Youngs Moduli (GPa) = 46.90886 46.90886 22.71312
#
# Poissons Ratio (x) = 0.17019 0.30679
# Poissons Ratio (y) = 0.17019 0.30679
# Poissons Ratio (z) = 0.63361 0.63361
#
# Static dielectric constant tensor:
#      x y z
#    x 1.622290 0.000000 0.000000 
#    y 0.000000 1.622290 0.000000 
#    z 0.000000 0.000000 1.627850 
# 
# From -- ./inp_files/2918.got.cif
#   From: 2010.05.17/outbox.cif.g08.bks.cpg/sg176_2_cif.got.tgz:2918.got - 2010.06.03 11:36:45.
