data_PCOD9581606
_publ_section_title
;
Structure prediction by ZEFSAII (Michael W. Deem and Ramdas Pophale) SiO2 
 PCOD9581606
Probable space group: P 6/M
;
_chemical_formula_sum "Si O2"
_cell_formula_units_Z 60
_cell_length_a 9.615254
_cell_length_b 9.615254
_cell_length_c 29.305251
_cell_angle_alpha 90.000000
_cell_angle_beta 90.000000
_cell_angle_gamma 120.000000
_cell_volume 2346.375956
_symmetry_space_group_name_H-M "P 6/M"
_symmetry_group_IT_number 175
_symmetry_cell_setting 'hexagonal'
loop_
_space_group_symop_operation_xyz
x,y,z
x-y,x,z
-y,x-y,z
-x,-y,z
-x+y,-x,z
y,-x+y,z
-x,-y,-z
-x+y,-x,-z
y,-x+y,-z
x,y,-z
x-y,x,-z
-y,x-y,-z
loop_
_atom_site_type_symbol
_atom_site_label
_atom_site_fract_x
_atom_site_fract_y
_atom_site_fract_z
Si Si1 0.000000 0.500000 0.628360
Si Si2 0.734159 0.105627 0.292903
Si Si3 0.103435 0.733498 0.450302
Si Si4 0.377197 0.260912 0.097396
Si Si5 0.116656 0.377267 0.000000
Si Si6 0.261734 0.885850 0.805294
O O1 0.888367 0.529329 0.663231
O O2 0.888723 0.359468 0.593360
O O3 0.676368 0.135560 0.243674
O O4 0.922964 0.225340 0.294685
O O5 0.128377 0.676694 0.500000
O O6 0.921667 0.698137 0.448293
O O7 0.233630 0.302365 0.097385
O O8 0.464621 0.323629 0.146115
O O9 0.464936 0.322878 0.048698
O O10 0.233827 0.302237 0.000000
O O11 0.070073 0.768273 0.805297
#
# Coordination Sequence:
#
# PCOD9581606 Si02
#       6
#     6  12  12  12   6  12
#     4  12  23  36  54  88 126 151 180 222 278 332
#     4  10  21  39  60  83 109 148 197 246 289 333
#     4  10  22  44  72  99 123 153 193 234 273 319
#     4   8  11  14  22  41  70 109 151 200 254 316
#     4   8  11  12  16  32  66 107 148 188 246 318
#     4   8  13  22  39  60  85 118 168 223 272 318
#
# _framework density 25.571351
#
# number of rings (size 3 to 8) (size 9 to 14) (size 15 to 20)
#    0.000    2.800    0.000    2.400    0.000    5.600 
#    9.600    2.000    0.000    0.000    0.000    0.000 
#    0.000    0.800    0.000    0.200    0.000    0.800 
#
# Total GULP energy -335313.401355 kJ/mol
# GULP energy per Si atom -5588.556689 kJ/mol
# Density = 2.551315 g / cm^3
# Si number density = 25.571351 Si / 1000 Ang^3
#
#
#
# Elastic Constant Matrix: (Units=GPa)
#
#
# Indices 1 2 3 4 5 6 
#
# 1 90.2800 26.7843 49.5158 0.0000 0.0000 0.0000
# 2 26.7843 90.2800 49.5158 0.0000 0.0000 0.0000
# 3 49.5158 49.5158 349.7547 0.0000 0.0000 0.0000
# 4 0.0000 0.0000 0.0000 120.2944 0.0000 0.0000
# 5 0.0000 0.0000 0.0000 0.0000 120.2944 0.0000
# 6 0.0000 0.0000 0.0000 0.0000 0.0000 31.7479
#
#
#
# Elastic Compliance Matrix: (Units=1/GPa)
#
#
# Indices 1 2 3 4 5 6 
#
# 1 0.012727 -0.003022 -0.001374 0.000000 0.000000 0.000000
# 2 -0.003022 0.012727 -0.001374 0.000000 0.000000 0.000000
# 3 -0.001374 -0.001374 0.003248 0.000000 0.000000 0.000000
# 4 0.000000 0.000000 0.000000 0.008313 0.000000 0.000000
# 5 0.000000 0.000000 0.000000 0.000000 0.008313 0.000000
# 6 0.000000 0.000000 0.000000 0.000000 0.000000 0.031498
#
#
# Mechanical properties :
#
#
# Convention : Reuss Voigt Hill
#
# Bulk Modulus (GPa) = 58.26930 86.88295 72.57613
# Shear Modulus (GPa) = 53.14255 81.43393 67.28824
#
# Velocity S-wave (km/s) = 4.56368 5.64933 5.13527
# Velocity P-wave (km/s) = 7.11379 8.75235 7.97526
#
# Compressibility (1/GPa) = 0.01716170
#
# Stress axis : x y z
#
# Youngs Moduli (GPa) = 78.57415 78.57415 307.86635
#
# Poissons Ratio (x) = 0.23747 0.42298
# Poissons Ratio (y) = 0.23747 0.42298
# Poissons Ratio (z) = 0.10795 0.10795
#
# Static dielectric constant tensor:
#      x y z
#    x 2.010860 0.000000 0.000000 
#    y 0.000000 2.010860 0.000000 
#    z 0.000000 0.000000 2.101220 
# 
# From -- ./inp_files/3353.got.cif
#   From: 2010.05.17/outbox.cif.g08.bks.cpg/sg175_2_cif.got.tgz:3353.got - 2010.05.20 11:23:22.
