data_PCOD9581293
_publ_section_title
;
Structure prediction by ZEFSAII (Michael W. Deem and Ramdas Pophale) SiO2 
 PCOD9581293
Probable space group: P 6/M
;
_chemical_formula_sum "Si O2"
_cell_formula_units_Z 54
_cell_length_a 17.870199
_cell_length_b 17.870199
_cell_length_c 12.748170
_cell_angle_alpha 90.000000
_cell_angle_beta 90.000000
_cell_angle_gamma 120.000000
_cell_volume 3525.634242
_symmetry_space_group_name_H-M "P 6/M"
_symmetry_group_IT_number 175
_symmetry_cell_setting 'hexagonal'
loop_
_space_group_symop_operation_xyz
x,y,z
x-y,x,z
-y,x-y,z
-x,-y,z
-x+y,-x,z
y,-x+y,z
-x,-y,-z
-x+y,-x,-z
y,-x+y,-z
x,y,-z
x-y,x,-z
-y,x-y,-z
loop_
_atom_site_type_symbol
_atom_site_label
_atom_site_fract_x
_atom_site_fract_y
_atom_site_fract_z
Si Si1 0.998889 0.680956 0.373791
Si Si2 0.025109 0.190924 0.231107
Si Si3 0.151400 0.507986 0.627343
Si Si4 0.189056 0.164111 0.000000
Si Si5 0.689612 0.515952 0.627732
O O1 0.995735 0.688672 0.500000
O O2 0.970128 0.741955 0.317020
O O3 0.934529 0.580828 0.345685
O O4 0.095854 0.705809 0.342457
O O5 0.103008 0.170422 0.240848
O O6 0.030275 0.229804 0.113865
O O7 0.153957 0.511817 0.500000
O O8 0.155160 0.595596 0.663176
O O9 0.234767 0.502126 0.661959
O O10 0.100939 0.166584 0.000000
O O11 0.688964 0.514644 0.500000
#
# Coordination Sequence:
#
# PCOD9581293 Si02
#       5
#    12  12  12   6  12
#     4  10  19  29  41  61  91 120 139 163 209 264
#     4  10  19  31  46  63  84 111 144 178 210 245
#     4   9  16  26  40  58  81 111 147 182 212 244
#     4   8  15  28  46  64  79 100 136 182 220 242
#     4   9  16  26  40  58  81 111 147 182 212 244
#
# _framework density 15.316393
#
# number of rings (size 3 to 8) (size 9 to 14) (size 15 to 20)
#    0.000    2.667    0.000    2.778    0.000    8.889 
#    0.000    0.000    0.000    1.333    0.000    3.111 
#    0.000    0.000    0.000    4.444    0.000    1.778 
#
# Total GULP energy -300642.005157 kJ/mol
# GULP energy per Si atom -5567.444540 kJ/mol
# Density = 1.528153 g / cm^3
# Si number density = 15.316393 Si / 1000 Ang^3
#
#
#
# Elastic Constant Matrix: (Units=GPa)
#
#
# Indices 1 2 3 4 5 6 
#
# 1 40.9874 -21.9108 5.6941 0.0000 0.0000 0.0000
# 2 -21.9108 40.9874 5.6941 0.0000 0.0000 0.0000
# 3 5.6941 5.6941 27.6343 0.0000 0.0000 0.0000
# 4 0.0000 0.0000 0.0000 7.1165 0.0000 0.0000
# 5 0.0000 0.0000 0.0000 0.0000 7.1165 0.0000
# 6 0.0000 0.0000 0.0000 0.0000 0.0000 31.4491
#
#
#
# Elastic Compliance Matrix: (Units=1/GPa)
#
#
# Indices 1 2 3 4 5 6 
#
# 1 0.037836 0.021937 -0.012316 0.000000 0.000000 0.000000
# 2 0.021937 0.037836 -0.012316 0.000000 0.000000 0.000000
# 3 -0.012316 -0.012316 0.041262 0.000000 0.000000 0.000000
# 4 0.000000 0.000000 0.000000 0.140518 0.000000 0.000000
# 5 0.000000 0.000000 0.000000 0.000000 0.140518 0.000000
# 6 0.000000 0.000000 0.000000 0.000000 0.000000 0.031797
#
#
# Mechanical properties :
#
#
# Convention : Reuss Voigt Hill
#
# Bulk Modulus (GPa) = 8.96518 9.84044 9.40281
# Shear Modulus (GPa) = 10.58564 17.14522 13.86543
#
# Velocity S-wave (km/s) = 2.63179 3.34938 3.01203
# Velocity P-wave (km/s) = 3.88602 4.62564 4.27186
#
# Compressibility (1/GPa) = 0.11154263
#
# Stress axis : x y z
#
# Youngs Moduli (GPa) = 26.43012 26.43012 24.23515
#
# Poissons Ratio (x) = -0.57980 0.29848
# Poissons Ratio (y) = -0.57980 0.29848
# Poissons Ratio (z) = 0.32552 0.32552
#
# Static dielectric constant tensor:
#      x y z
#    x 1.508640 0.000000 0.000000 
#    y 0.000000 1.508640 0.000000 
#    z 0.000000 0.000000 1.508670 
# 
# From -- ./inp_files/1729.got.cif
#   From: 2010.05.17/outbox.cif.g08.bks.cpg/sg175_1_cif.got.tgz:1729.got - 2010.05.20 11:23:22.
