data_PCOD9581750
_publ_section_title
;
Structure prediction by ZEFSAII (Michael W. Deem and Ramdas Pophale) SiO2 
 PCOD9581750
Probable space group: P 63/M
;
_chemical_formula_sum "Si O2"
_cell_formula_units_Z 96
_cell_length_a 27.084276
_cell_length_b 27.084276
_cell_length_c 7.414214
_cell_angle_alpha 90.000000
_cell_angle_beta 90.000000
_cell_angle_gamma 120.000000
_cell_volume 4710.100897
_symmetry_space_group_name_H-M "P 63/M"
_symmetry_group_IT_number 176
_symmetry_cell_setting 'hexagonal'
loop_
_space_group_symop_operation_xyz
x,y,z
x-y,x,1/2+z
-y,x-y,z
-x,-y,1/2+z
-x+y,-x,z
y,-x+y,1/2+z
-x,-y,-z
-x+y,-x,1/2-z
y,-x+y,-z
x,y,1/2-z
x-y,x,-z
-y,x-y,1/2-z
loop_
_atom_site_type_symbol
_atom_site_label
_atom_site_fract_x
_atom_site_fract_y
_atom_site_fract_z
Si Si1 0.433067 0.314045 0.032415
Si Si2 0.133433 0.245342 0.964828
Si Si3 0.774750 0.784689 0.033476
Si Si4 0.777820 0.448846 0.470209
Si Si5 0.880626 0.319867 0.030870
Si Si6 0.811310 0.626622 0.469290
Si Si7 0.335065 0.001974 0.461529
Si Si8 0.555888 0.217427 0.029598
O O1 0.433959 0.314640 0.250000
O O2 0.497649 0.336019 0.972712
O O3 0.397457 0.248658 0.969429
O O4 0.395006 0.341377 0.978053
O O5 0.140883 0.248250 0.750000
O O6 0.168390 0.215321 0.031416
O O7 0.166209 0.309921 0.034965
O O8 0.066999 0.223141 0.993019
O O9 0.772376 0.780939 0.250000
O O10 0.717462 0.726721 0.966945
O O11 0.777482 0.449554 0.250000
O O12 0.723392 0.454292 0.526739
O O13 0.771842 0.389209 0.526776
O O14 0.884079 0.325071 0.250000
O O15 0.839997 0.253775 0.983502
O O16 0.844599 0.349416 0.971529
O O17 0.943013 0.334781 0.964775
O O18 0.813613 0.628049 0.250000
O O19 0.333465 0.014110 0.250000
O O20 0.555497 0.217857 0.250000
#
# Coordination Sequence:
#
# PCOD9581750 Si02
#       8
#    12  12  12  12  12  12  12  12
#     4  10  18  29  46  69  97 127 156 189 237 289
#     4  10  19  32  50  71  97 127 157 193 237 284
#     4  10  20  32  48  72  99 123 156 200 235 273
#     4   9  16  25  41  68  97 122 153 200 248 283
#     4   9  15  26  43  63  90 127 162 187 224 286
#     4   9  14  24  44  67  90 122 157 183 223 285
#     4  10  19  30  46  69  95 125 161 195 226 273
#     4   9  15  24  40  65  95 123 154 197 245 283
#
# _framework density 20.381729
#
# number of rings (size 3 to 8) (size 9 to 14) (size 15 to 20)
#    0.000    2.500    3.750    0.250    0.000    1.500 
#    0.000    0.625    0.000    1.000    0.000    0.875 
#    0.000    0.000    0.000    0.000    0.000    0.000 
#
# Total GULP energy -535364.307180 kJ/mol
# GULP energy per Si atom -5576.711533 kJ/mol
# Density = 2.033534 g / cm^3
# Si number density = 20.381729 Si / 1000 Ang^3
#
#
#
# Elastic Constant Matrix: (Units=GPa)
#
#
# Indices 1 2 3 4 5 6 
#
# 1 112.6256 48.7092 -6.9339 0.0000 0.0000 0.0000
# 2 48.7092 112.6256 -6.9339 0.0000 0.0000 0.0000
# 3 -6.9339 -6.9339 62.0355 0.0000 0.0000 0.0000
# 4 0.0000 0.0000 0.0000 239.6177 0.0000 0.0000
# 5 0.0000 0.0000 0.0000 0.0000 239.6177 0.0000
# 6 0.0000 0.0000 0.0000 0.0000 0.0000 31.9582
#
#
#
# Elastic Compliance Matrix: (Units=1/GPa)
#
#
# Indices 1 2 3 4 5 6 
#
# 1 0.010952 -0.004694 0.000700 0.000000 0.000000 0.000000
# 2 -0.004694 0.010952 0.000700 0.000000 0.000000 0.000000
# 3 0.000700 0.000700 0.016276 0.000000 0.000000 0.000000
# 4 0.000000 0.000000 0.000000 0.004173 0.000000 0.000000
# 5 0.000000 0.000000 0.000000 0.000000 0.004173 0.000000
# 6 0.000000 0.000000 0.000000 0.000000 0.000000 0.031291
#
#
# Mechanical properties :
#
#
# Convention : Reuss Voigt Hill
#
# Bulk Modulus (GPa) = 31.65446 39.66326 35.65886
# Shear Modulus (GPa) = 52.66656 119.06837 85.86747
#
# Velocity S-wave (km/s) = 5.08883 7.65154 6.49778
# Velocity P-wave (km/s) = 7.07762 9.87744 8.59234
#
# Compressibility (1/GPa) = 0.03159112
#
# Stress axis : x y z
#
# Youngs Moduli (GPa) = 91.30806 91.30806 61.43946
#
# Poissons Ratio (x) = 0.42856 -0.04298
# Poissons Ratio (y) = 0.42856 -0.04298
# Poissons Ratio (z) = -0.06387 -0.06387
#
# Static dielectric constant tensor:
#      x y z
#    x 1.717010 0.000000 0.000000 
#    y 0.000000 1.717010 0.000000 
#    z 0.000000 0.000000 1.803080 
# 
# From -- ./inp_files/2186.got.cif
#   From: 2010.05.17/outbox.cif.g08.bks.cpg/sg176_2_cif.got.tgz:2186.got - 2010.06.03 11:36:45.
