data_PCOD9581700
_publ_section_title
;
Structure prediction by ZEFSAII (Michael W. Deem and Ramdas Pophale) SiO2 
 PCOD9581700
Probable space group: P 6/M
;
_chemical_formula_sum "Si O2"
_cell_formula_units_Z 60
_cell_length_a 19.468217
_cell_length_b 19.468217
_cell_length_c 10.383580
_cell_angle_alpha 90.000000
_cell_angle_beta 90.000000
_cell_angle_gamma 120.000000
_cell_volume 3408.239471
_symmetry_space_group_name_H-M "P 6/M"
_symmetry_group_IT_number 175
_symmetry_cell_setting 'hexagonal'
loop_
_space_group_symop_operation_xyz
x,y,z
x-y,x,z
-y,x-y,z
-x,-y,z
-x+y,-x,z
y,-x+y,z
-x,-y,-z
-x+y,-x,-z
y,-x+y,-z
x,y,-z
x-y,x,-z
-y,x-y,-z
loop_
_atom_site_type_symbol
_atom_site_label
_atom_site_fract_x
_atom_site_fract_y
_atom_site_fract_z
Si Si1 0.856695 0.705531 0.749087
Si Si2 0.629387 0.936813 0.648193
Si Si3 0.923413 0.810816 0.000000
Si Si4 0.694945 0.124964 0.351487
Si Si5 0.188108 0.117465 0.500000
Si Si6 0.090199 0.558365 0.343239
O O1 0.766844 0.687486 0.733650
O O2 0.847062 0.618678 0.735418
O O3 0.906117 0.756609 0.625620
O O4 0.898300 0.754711 0.875100
O O5 0.635073 0.914268 0.500000
O O6 0.537130 0.890636 0.691044
O O7 0.656313 0.029330 0.645367
O O8 0.873326 0.856443 0.000000
O O9 0.716738 0.152987 0.500000
O O10 0.624187 0.140007 0.306527
O O11 0.123868 0.145986 0.500000
O O12 0.088454 0.556607 0.500000
O O13 0.000000 0.500000 0.298015
#
# Coordination Sequence:
#
# PCOD9581700 Si02
#       6
#    12  12   6  12   6  12
#     4  12  22  34  55  77 102 136 183 241 284 328
#     4   9  15  27  47  75 104 130 163 209 267 328
#     4  12  27  44  56  70 100 150 200 246 302 360
#     4   9  15  27  47  75 104 130 163 209 267 328
#     4  12  23  36  52  74 100 132 176 240 310 360
#     4   7  12  22  42  70 101 128 146 177 236 311
#
# _framework density 17.604396999999999
#
# number of rings (size 3 to 8) (size 9 to 14) (size 15 to 20)
#    0.000    2.200    2.000    6.200    0.000    0.000 
#    0.000    2.000    0.000    2.000    0.000    8.400 
#    0.000    0.000    0.000    0.000    0.000    0.000 
#
# Total GULP energy -334268.860309 kJ/mol
# GULP energy per Si atom -5571.147672 kJ/mol
# Density = 1.756433 g / cm^3
# Si number density = 17.604397 Si / 1000 Ang^3
#
#
#
# Elastic Constant Matrix: (Units=GPa)
#
#
# Indices 1 2 3 4 5 6 
#
# 1 67.6133 -3.0283 19.6846 0.0000 0.0000 0.0000
# 2 -3.0283 67.6133 19.6846 0.0000 0.0000 0.0000
# 3 19.6846 19.6846 74.4650 0.0000 0.0000 0.0000
# 4 0.0000 0.0000 0.0000 8.5164 0.0000 0.0000
# 5 0.0000 0.0000 0.0000 0.0000 8.5164 0.0000
# 6 0.0000 0.0000 0.0000 0.0000 0.0000 35.3208
#
#
#
# Elastic Compliance Matrix: (Units=1/GPa)
#
#
# Indices 1 2 3 4 5 6 
#
# 1 0.016307 0.002151 -0.004879 0.000000 0.000000 0.000000
# 2 0.002151 0.016307 -0.004879 0.000000 0.000000 0.000000
# 3 -0.004879 -0.004879 0.016009 0.000000 0.000000 0.000000
# 4 0.000000 0.000000 0.000000 0.117420 0.000000 0.000000
# 5 0.000000 0.000000 0.000000 0.000000 0.117420 0.000000
# 6 0.000000 0.000000 0.000000 0.000000 0.000000 0.028312
#
#
# Mechanical properties :
#
#
# Convention : Reuss Voigt Hill
#
# Bulk Modulus (GPa) = 29.93366 31.37483 30.65424
# Shear Modulus (GPa) = 14.78742 22.02745 18.40743
#
# Velocity S-wave (km/s) = 2.90139 3.54113 3.23711
# Velocity P-wave (km/s) = 5.31644 5.88051 5.60557
#
# Compressibility (1/GPa) = 0.03340721
#
# Stress axis : x y z
#
# Youngs Moduli (GPa) = 61.32395 61.32395 62.46576
#
# Poissons Ratio (x) = -0.13190 0.30479
# Poissons Ratio (y) = -0.13190 0.30479
# Poissons Ratio (z) = 0.29921 0.29921
#
# Static dielectric constant tensor:
#      x y z
#    x 1.664580 0.000000 0.000000 
#    y 0.000000 1.664580 0.000000 
#    z 0.000000 0.000000 1.573370 
# 
# From -- ./inp_files/913.got.cif
#   From: 2010.05.17/outbox.cif.g08.bks.cpg/sg175_1_cif.got.tgz:913.got - 2010.05.20 11:23:22.
