data_PCOD9581605
_publ_section_title
;
Structure prediction by ZEFSAII (Michael W. Deem and Ramdas Pophale) SiO2 
 PCOD9581605
Probable space group: P 6/M
;
_chemical_formula_sum "Si O2"
_cell_formula_units_Z 66
_cell_length_a 9.586572
_cell_length_b 9.586572
_cell_length_c 32.184434
_cell_angle_alpha 90.000000
_cell_angle_beta 90.000000
_cell_angle_gamma 120.000000
_cell_volume 2561.552046
_symmetry_space_group_name_H-M "P 6/M"
_symmetry_group_IT_number 175
_symmetry_cell_setting 'hexagonal'
loop_
_space_group_symop_operation_xyz
x,y,z
x-y,x,z
-y,x-y,z
-x,-y,z
-x+y,-x,z
y,-x+y,z
-x,-y,-z
-x+y,-x,-z
y,-x+y,-z
x,y,-z
x-y,x,-z
-y,x-y,-z
loop_
_atom_site_type_symbol
_atom_site_label
_atom_site_fract_x
_atom_site_fract_y
_atom_site_fract_z
Si Si1 0.106223 0.372458 0.311009
Si Si2 0.371010 0.104126 0.454804
Si Si3 0.883226 0.621780 0.133029
Si Si4 0.378301 0.261092 0.044344
Si Si5 0.114712 0.376966 0.778362
Si Si6 0.500000 0.500000 0.617067
O O1 0.226045 0.302978 0.312563
O O2 0.136251 0.460611 0.266218
O O3 0.359389 0.471185 0.414870
O O4 0.112155 0.471146 0.351109
O O5 0.302502 0.224321 0.453064
O O6 0.453466 0.129341 0.500000
O O7 0.765690 0.696937 0.133020
O O8 0.857412 0.533848 0.088686
O O9 0.858463 0.534148 0.177388
O O10 0.234545 0.302920 0.044344
O O11 0.466171 0.323389 0.000000
O O12 0.232481 0.302537 0.778364
#
# Coordination Sequence:
#
# PCOD9581605 Si02
#       6
#    12  12  12  12  12   6
#     4  10  21  39  60  83 109 147 194 241 286 331
#     4  10  22  44  72  99 123 153 194 236 274 315
#     4   8  11  14  22  39  62  93 135 189 246 298
#     4   8  11  12  14  24  49  87 130 174 226 292
#     4   8  13  22  39  60  83 111 156 214 267 312
#     4  12  23  36  54  88 126 152 179 218 276 328
#
# _framework density 25.765628
#
# number of rings (size 3 to 8) (size 9 to 14) (size 15 to 20)
#    0.000    2.909    0.000    2.273    0.000    5.818 
#    8.727    1.818    0.000    0.000    0.000    0.000 
#    0.000    0.000    0.000    0.818    0.000    4.000 
#
# Total GULP energy -368807.546649 kJ/mol
# GULP energy per Si atom -5587.993131 kJ/mol
# Density = 2.570698 g / cm^3
# Si number density = 25.765628 Si / 1000 Ang^3
#
#
#
# Elastic Constant Matrix: (Units=GPa)
#
#
# Indices 1 2 3 4 5 6 
#
# 1 95.0814 27.8143 46.5429 0.0000 0.0000 0.0000
# 2 27.8143 95.0814 46.5429 0.0000 0.0000 0.0000
# 3 46.5429 46.5429 358.9693 0.0000 0.0000 0.0000
# 4 0.0000 0.0000 0.0000 122.0128 0.0000 0.0000
# 5 0.0000 0.0000 0.0000 0.0000 122.0128 0.0000
# 6 0.0000 0.0000 0.0000 0.0000 0.0000 33.6335
#
#
#
# Elastic Compliance Matrix: (Units=1/GPa)
#
#
# Indices 1 2 3 4 5 6 
#
# 1 0.011945 -0.002921 -0.001170 0.000000 0.000000 0.000000
# 2 -0.002921 0.011945 -0.001170 0.000000 0.000000 0.000000
# 3 -0.001170 -0.001170 0.003089 0.000000 0.000000 0.000000
# 4 0.000000 0.000000 0.000000 0.008196 0.000000 0.000000
# 5 0.000000 0.000000 0.000000 0.000000 0.008196 0.000000
# 6 0.000000 0.000000 0.000000 0.000000 0.000000 0.029732
#
#
# Mechanical properties :
#
#
# Convention : Reuss Voigt Hill
#
# Bulk Modulus (GPa) = 60.76920 87.88140 74.32530
# Shear Modulus (GPa) = 56.11032 84.08063 70.09547
#
# Velocity S-wave (km/s) = 4.67167 5.71872 5.22150
# Velocity P-wave (km/s) = 7.26195 8.81969 8.07845
#
# Compressibility (1/GPa) = 0.01645570
#
# Stress axis : x y z
#
# Youngs Moduli (GPa) = 83.71977 83.71977 323.71592
#
# Poissons Ratio (x) = 0.24459 0.37872
# Poissons Ratio (y) = 0.24459 0.37872
# Poissons Ratio (z) = 0.09794 0.09794
#
# Static dielectric constant tensor:
#      x y z
#    x 2.056650 0.000000 0.000000 
#    y 0.000000 2.056650 0.000000 
#    z 0.000000 0.000000 2.119140 
# 
# From -- ./inp_files/3363.got.cif
#   From: 2010.05.17/outbox.cif.g08.bks.cpg/sg175_2_cif.got.tgz:3363.got - 2010.05.20 11:23:22.
