data_PCOD9581132
_publ_section_title
;
Structure prediction by ZEFSAII (Michael W. Deem and Ramdas Pophale) SiO2 
 PCOD9581132
Probable space group: P -6
;
_chemical_formula_sum "Si O2"
_cell_formula_units_Z 38
_cell_length_a 13.376030
_cell_length_b 13.376030
_cell_length_c 12.984768
_cell_angle_alpha 90.000000
_cell_angle_beta 90.000000
_cell_angle_gamma 120.000000
_cell_volume 2011.959779
_symmetry_space_group_name_H-M "P -6"
_symmetry_group_IT_number 174
_symmetry_cell_setting 'hexagonal'
loop_
_space_group_symop_operation_xyz
x,y,z
-x+y,-x,-z
-y,x-y,z
x,y,-z
-x+y,-x,z
-y,x-y,-z
loop_
_atom_site_type_symbol
_atom_site_label
_atom_site_fract_x
_atom_site_fract_y
_atom_site_fract_z
Si Si1 0.666667 0.333334 0.375753
Si Si2 0.135587 0.408057 0.880292
Si Si3 0.504409 0.416329 0.694238
Si Si4 0.320963 0.026676 0.301653
Si Si5 0.928480 0.076485 0.622637
Si Si6 0.131058 0.408350 0.500000
Si Si7 0.393965 0.463823 0.879778
Si Si8 0.535860 0.926631 0.500000
O O1 0.666667 0.333334 0.500000
O O2 0.779755 0.446568 0.334588
O O3 0.044286 0.315404 0.802784
O O4 0.263949 0.433668 0.857508
O O5 0.124800 0.522701 0.866080
O O6 0.110568 0.374545 0.000000
O O7 0.620320 0.542543 0.700266
O O8 0.437958 0.401948 0.800858
O O9 0.427666 0.420870 0.600975
O O10 0.266955 0.108828 0.321160
O O11 0.280959 0.940568 0.399594
O O12 0.916018 0.082733 0.500000
O O13 0.065305 0.123980 0.646817
O O14 0.257198 0.424601 0.500000
O O15 0.134483 0.530908 0.500000
O O16 0.401629 0.437720 0.000000
#
# Coordination Sequence:
#
# PCOD9581132 Si02
#       8
#     2   6   6   6   6   3   6   3
#     4  12  24  45  58  74 103 153 207 259 278 328
#     4   9  17  29  53  80 112 146 173 211 263 325
#     4  10  22  37  54  75 107 143 192 235 284 315
#     4  10  18  33  51  76 107 135 170 223 268 325
#     4   8  16  31  49  72  99 124 161 210 262 320
#     4  10  19  28  50  74 110 137 164 204 278 330
#     4   9  17  33  55  85 116 145 181 222 270 338
#     4  10  19  34  48  80 112 143 170 218 276 356
#
# _framework density 18.887058
#
# number of rings (size 3 to 8) (size 9 to 14) (size 15 to 20)
#    0.316    2.211    1.579    1.421    0.000    1.263 
#    5.684    3.947    0.000    0.947    0.000    0.000 
#    0.000    0.000    0.000    0.000    0.000    0.000 
#
# Total GULP energy -211881.633692 kJ/mol
# GULP energy per Si atom -5575.832466 kJ/mol
# Density = 1.884407 g / cm^3
# Si number density = 18.887058 Si / 1000 Ang^3
#
#
#
# Elastic Constant Matrix: (Units=GPa)
#
#
# Indices 1 2 3 4 5 6 
#
# 1 44.6563 7.1684 27.0569 0.0000 0.0000 0.0002
# 2 7.1684 44.6565 27.0572 0.0000 0.0000 0.0006
# 3 27.0569 27.0572 81.1437 0.0000 0.0000 0.0003
# 4 0.0000 0.0000 0.0000 16.8990 0.0001 0.0000
# 5 0.0000 0.0000 0.0000 0.0001 16.8988 0.0000
# 6 0.0002 0.0006 0.0003 0.0000 0.0000 18.7445
#
#
#
# Elastic Compliance Matrix: (Units=1/GPa)
#
#
# Indices 1 2 3 4 5 6 
#
# 1 0.028139 0.001464 -0.009871 0.000000 0.000000 0.000000
# 2 0.001464 0.028139 -0.009871 0.000000 0.000000 -0.000001
# 3 -0.009871 -0.009871 0.018907 0.000000 0.000000 0.000000
# 4 0.000000 0.000000 0.000000 0.059175 0.000000 0.000000
# 5 0.000000 0.000000 0.000000 0.000000 0.059176 0.000000
# 6 0.000000 -0.000001 0.000000 0.000000 0.000000 0.053349
#
#
# Mechanical properties :
#
#
# Convention : Reuss Voigt Hill
#
# Bulk Modulus (GPa) = 25.88761 32.55792 29.22276
# Shear Modulus (GPa) = 16.87384 17.78674 17.33029
#
# Velocity S-wave (km/s) = 2.99223 3.07211 3.03244
# Velocity P-wave (km/s) = 5.06698 5.46438 5.26943
#
# Compressibility (1/GPa) = 0.03862852
#
# Stress axis : x y z
#
# Youngs Moduli (GPa) = 35.53788 35.53786 52.89143
#
# Poissons Ratio (x) = -0.05202 0.52208
# Poissons Ratio (y) = -0.05202 0.52209
# Poissons Ratio (z) = 0.35079 0.35079
#
# Static dielectric constant tensor:
#      x y z
#    x 1.675690 0.000000 0.000000 
#    y 0.000000 1.675690 0.000000 
#    z 0.000000 0.000000 1.623590 
# 
# From -- ./inp_files/746.got.cif
#   From: 2010.05.17/outbox.cif.g08.bks.cpg/sg174_cif.got.tgz:746.got - 2010.05.20 11:22:48.
