data_PCOD9581832
_publ_section_title
;
Structure prediction by ZEFSAII (Michael W. Deem and Ramdas Pophale) SiO2 
 PCOD9581832
Probable space group: P 63/M
;
_chemical_formula_sum "Si O2"
_cell_formula_units_Z 54
_cell_length_a 20.206720
_cell_length_b 20.206720
_cell_length_c 8.080021
_cell_angle_alpha 90.000000
_cell_angle_beta 90.000000
_cell_angle_gamma 120.000000
_cell_volume 2857.161362
_symmetry_space_group_name_H-M "P 63/M"
_symmetry_group_IT_number 176
_symmetry_cell_setting 'hexagonal'
loop_
_space_group_symop_operation_xyz
x,y,z
x-y,x,1/2+z
-y,x-y,z
-x,-y,1/2+z
-x+y,-x,z
y,-x+y,1/2+z
-x,-y,-z
-x+y,-x,1/2-z
y,-x+y,-z
x,y,1/2-z
x-y,x,-z
-y,x-y,1/2-z
loop_
_atom_site_type_symbol
_atom_site_label
_atom_site_fract_x
_atom_site_fract_y
_atom_site_fract_z
Si Si1 0.957340 0.545860 0.449732
Si Si2 0.431832 0.721011 0.750000
Si Si3 0.298503 0.016996 0.944860
Si Si4 0.796524 0.512672 0.932303
Si Si5 0.832646 0.139522 0.939187
O O1 0.950620 0.545700 0.250000
O O2 0.872496 0.508447 0.525960
O O3 0.000000 0.500000 0.500000
O O4 0.001011 0.635417 0.506474
O O5 0.371296 0.749659 0.750000
O O6 0.477600 0.740493 0.581059
O O7 0.314539 0.033883 0.750000
O O8 0.293954 0.088597 0.016064
O O9 0.217979 0.939919 0.968007
O O10 0.766707 0.479885 0.750000
O O11 0.824122 0.602001 0.930154
O O12 0.845589 0.122403 0.750000
#
# Coordination Sequence:
#
# PCOD9581832 Si02
#       5
#    12   6  12  12  12
#     4  10  19  33  54  83 115 147 190 239 286 344
#     4  10  24  40  54  80 110 146 198 232 280 350
#     4   9  19  35  55  82 114 149 185 234 290 341
#     4  10  20  38  59  78 113 151 187 243 289 338
#     4   9  19  35  56  85 114 144 192 232 285 352
#
# _framework density 18.899878000000001
#
# number of rings (size 3 to 8) (size 9 to 14) (size 15 to 20)
#    0.222    2.222    1.111    0.667    1.556    4.444 
#    0.000    2.222    0.000    0.444    0.000    0.000 
#    0.000    0.000    0.000    0.000    0.000    0.000 
#
# Total GULP energy -300942.716459 kJ/mol
# GULP energy per Si atom -5573.013268 kJ/mol
# Density = 1.885686 g / cm^3
# Si number density = 18.899878 Si / 1000 Ang^3
#
#
#
# Elastic Constant Matrix: (Units=GPa)
#
#
# Indices 1 2 3 4 5 6 
#
# 1 68.4050 24.5406 6.4552 0.0000 0.0000 0.0000
# 2 24.5406 68.4050 6.4552 0.0000 0.0000 0.0000
# 3 6.4552 6.4552 74.3457 0.0000 0.0000 0.0000
# 4 0.0000 0.0000 0.0000 16.3399 0.0000 0.0000
# 5 0.0000 0.0000 0.0000 0.0000 16.3399 0.0000
# 6 0.0000 0.0000 0.0000 0.0000 0.0000 21.9322
#
#
#
# Elastic Compliance Matrix: (Units=1/GPa)
#
#
# Indices 1 2 3 4 5 6 
#
# 1 0.016844 -0.005954 -0.000946 0.000000 0.000000 0.000000
# 2 -0.005954 0.016844 -0.000946 0.000000 0.000000 0.000000
# 3 -0.000946 -0.000946 0.013615 0.000000 0.000000 0.000000
# 4 0.000000 0.000000 0.000000 0.061200 0.000000 0.000000
# 5 0.000000 0.000000 0.000000 0.000000 0.061200 0.000000
# 6 0.000000 0.000000 0.000000 0.000000 0.000000 0.045595
#
#
# Mechanical properties :
#
#
# Convention : Reuss Voigt Hill
#
# Bulk Modulus (GPa) = 31.63230 31.78417 31.70824
# Shear Modulus (GPa) = 20.70179 22.50271 21.60225
#
# Velocity S-wave (km/s) = 3.31318 3.45429 3.38447
# Velocity P-wave (km/s) = 5.60440 5.72391 5.66447
#
# Compressibility (1/GPa) = 0.03161326
#
# Stress axis : x y z
#
# Youngs Moduli (GPa) = 59.36858 59.36858 73.44906
#
# Poissons Ratio (x) = 0.35346 0.06945
# Poissons Ratio (y) = 0.35346 0.06945
# Poissons Ratio (z) = 0.05614 0.05614
#
# Static dielectric constant tensor:
#      x y z
#    x 1.654240 0.000000 0.000000 
#    y 0.000000 1.654240 0.000000 
#    z 0.000000 0.000000 1.727720 
# 
# From -- ./inp_files/842.got.cif
#   From: 2010.05.17/outbox.cif.g08.bks.cpg/sg176_1_cif.got.tgz:842.got - 2010.06.03 11:36:45.
