data_PCOD9581771
_publ_section_title
;
Structure prediction by ZEFSAII (Michael W. Deem and Ramdas Pophale) SiO2 
 PCOD9581771
Probable space group: P 63/M
;
_chemical_formula_sum "Si O2"
_cell_formula_units_Z 76
_cell_length_a 17.607241
_cell_length_b 17.607241
_cell_length_c 14.249181
_cell_angle_alpha 90.000000
_cell_angle_beta 90.000000
_cell_angle_gamma 120.000000
_cell_volume 3825.631654
_symmetry_space_group_name_H-M "P 63/M"
_symmetry_group_IT_number 176
_symmetry_cell_setting 'hexagonal'
loop_
_space_group_symop_operation_xyz
x,y,z
x-y,x,1/2+z
-y,x-y,z
-x,-y,1/2+z
-x+y,-x,z
y,-x+y,1/2+z
-x,-y,-z
-x+y,-x,1/2-z
y,-x+y,-z
x,y,1/2-z
x-y,x,-z
-y,x-y,1/2-z
loop_
_atom_site_type_symbol
_atom_site_label
_atom_site_fract_x
_atom_site_fract_y
_atom_site_fract_z
Si Si1 0.466590 0.220606 0.930098
Si Si2 0.780919 0.381914 0.250000
Si Si3 0.304021 0.336102 0.139458
Si Si4 0.614042 0.497498 0.070992
Si Si5 0.333333 0.666667 0.361395
Si Si6 0.160853 0.003590 0.949189
Si Si7 0.920111 0.029406 0.250000
Si Si8 0.065636 0.437519 0.017868
O O1 0.411199 0.134170 0.867348
O O2 0.566269 0.280640 0.896111
O O3 0.471830 0.181375 0.030439
O O4 0.422813 0.280736 0.943018
O O5 0.721317 0.427348 0.250000
O O6 0.840341 0.402471 0.159949
O O7 0.302985 0.313137 0.250000
O O8 0.236139 0.258265 0.070316
O O9 0.395088 0.365646 0.085130
O O10 0.541467 0.437270 0.993821
O O11 0.600893 0.580726 0.083003
O O12 0.333334 0.666668 0.250000
O O13 0.117779 0.964248 0.848054
O O14 0.164692 0.094784 0.977174
O O15 0.907753 0.931854 0.250000
#
# Coordination Sequence:
#
# PCOD9581771 Si02
#       8
#    12   6  12  12   4  12   6  12
#     4  11  22  44  67  91 126 169 219 263 328 392
#     4  10  22  34  63 101 129 163 218 274 327 382
#     4  11  25  41  61  91 132 170 214 264 331 400
#     4  10  21  40  64  94 127 166 211 270 326 391
#     4  12  24  39  69  97 119 154 219 276 312 375
#     4  12  21  37  65  93 125 171 217 269 321 387
#     4  10  18  34  57  95 121 153 214 272 307 366
#     4  10  22  41  64  91 124 175 209 265 333 390
#
# _framework density 19.866
#
# number of rings (size 3 to 8) (size 9 to 14) (size 15 to 20)
#    0.316    0.947    3.947    2.526    1.105    0.000 
#    4.263    0.000    0.000    0.000    0.000    0.000 
#    0.000    0.000    0.000    0.000    0.000    0.000 
#
# Total GULP energy -423708.363448 kJ/mol
# GULP energy per Si atom -5575.110045 kJ/mol
# Density = 1.982078 g / cm^3
# Si number density = 19.866000 Si / 1000 Ang^3
#
#
#
# Elastic Constant Matrix: (Units=GPa)
#
#
# Indices 1 2 3 4 5 6 
#
# 1 90.2727 29.9598 18.4500 0.0000 0.0000 -0.0002
# 2 29.9598 90.2734 18.4502 0.0000 0.0000 0.0003
# 3 18.4500 18.4502 61.9278 0.0000 0.0000 -0.0001
# 4 0.0000 0.0000 0.0000 18.6752 0.0000 0.0000
# 5 0.0000 0.0000 0.0000 0.0000 18.6752 0.0000
# 6 -0.0002 0.0003 -0.0001 0.0000 0.0000 30.1556
#
#
#
# Elastic Compliance Matrix: (Units=1/GPa)
#
#
# Indices 1 2 3 4 5 6 
#
# 1 0.012867 -0.003713 -0.002727 0.000000 0.000000 0.000000
# 2 -0.003713 0.012867 -0.002727 0.000000 0.000000 0.000000
# 3 -0.002727 -0.002727 0.017773 0.000000 0.000000 0.000000
# 4 0.000000 0.000000 0.000000 0.053547 0.000000 0.000000
# 5 0.000000 0.000000 0.000000 0.000000 0.053547 0.000000
# 6 0.000000 0.000000 0.000000 0.000000 0.000000 0.033161
#
#
# Mechanical properties :
#
#
# Convention : Reuss Voigt Hill
#
# Bulk Modulus (GPa) = 39.72647 41.79933 40.76290
# Shear Modulus (GPa) = 23.75429 25.20880 24.48154
#
# Velocity S-wave (km/s) = 3.46168 3.56609 3.51427
# Velocity P-wave (km/s) = 6.00152 6.16784 6.08525
#
# Compressibility (1/GPa) = 0.02517213
#
# Stress axis : x y z
#
# Youngs Moduli (GPa) = 77.71690 77.71749 56.26531
#
# Poissons Ratio (x) = 0.28856 0.15345
# Poissons Ratio (y) = 0.28856 0.15345
# Poissons Ratio (z) = 0.21196 0.21196
#
# Static dielectric constant tensor:
#      x y z
#    x 1.735450 0.000000 0.000000 
#    y 0.000000 1.735450 0.000000 
#    z 0.000000 0.000000 1.693520 
# 
# From -- ./inp_files/2913.got.cif
#   From: 2010.05.17/outbox.cif.g08.bks.cpg/sg176_2_cif.got.tgz:2913.got - 2010.06.03 11:36:45.
