data_PCOD9581445
_publ_section_title
;
Structure prediction by ZEFSAII (Michael W. Deem and Ramdas Pophale) SiO2 
 PCOD9581445
Probable space group: P 6/M
;
_chemical_formula_sum "Si O2"
_cell_formula_units_Z 60
_cell_length_a 16.924004
_cell_length_b 16.924004
_cell_length_c 13.133256
_cell_angle_alpha 90.000000
_cell_angle_beta 90.000000
_cell_angle_gamma 120.000000
_cell_volume 3257.686440
_symmetry_space_group_name_H-M "P 6/M"
_symmetry_group_IT_number 175
_symmetry_cell_setting 'hexagonal'
loop_
_space_group_symop_operation_xyz
x,y,z
x-y,x,z
-y,x-y,z
-x,-y,z
-x+y,-x,z
y,-x+y,z
-x,-y,-z
-x+y,-x,-z
y,-x+y,-z
x,y,-z
x-y,x,-z
-y,x-y,-z
loop_
_atom_site_type_symbol
_atom_site_label
_atom_site_fract_x
_atom_site_fract_y
_atom_site_fract_z
Si Si1 0.089199 0.489154 0.386112
Si Si2 0.665339 0.014082 0.784340
Si Si3 0.712736 0.194381 0.112885
Si Si4 0.031492 0.829530 0.881837
Si Si5 0.153308 0.621217 0.795105
O O1 0.123976 0.491370 0.500000
O O2 0.152966 0.572380 0.310896
O O3 0.000000 0.500000 0.394786
O O4 0.056969 0.394716 0.324915
O O5 0.722189 0.963383 0.804020
O O6 0.559292 0.943949 0.807922
O O7 0.708476 0.100384 0.859549
O O8 0.772078 0.273857 0.192127
O O9 0.609158 0.172881 0.122207
O O10 0.749787 0.224918 0.000000
O O11 0.933075 0.821368 0.868112
O O12 0.037546 0.804263 0.000000
#
# Coordination Sequence:
#
# PCOD9581445 Si02
#       5
#    12  12  12  12  12
#     4   8  16  34  57  77 101 133 169 217 272 321
#     4  10  20  33  53  79 104 136 183 232 273 320
#     4  11  21  32  48  71 104 143 177 215 268 326
#     4  10  20  34  53  79 113 151 187 224 269 323
#     4  10  21  35  50  74 105 138 181 226 274 332
#
# _framework density 18.417978000000002
#
# number of rings (size 3 to 8) (size 9 to 14) (size 15 to 20)
#    0.000    2.200    0.000    4.800    0.000    6.400 
#    0.000    4.000    0.000    6.000    0.000    0.000 
#    0.000    1.600    0.000    0.000    0.000    0.000 
#
# Total GULP energy -334448.261477 kJ/mol
# GULP energy per Si atom -5574.137691 kJ/mol
# Density = 1.837606 g / cm^3
# Si number density = 18.417978 Si / 1000 Ang^3
#
#
#
# Elastic Constant Matrix: (Units=GPa)
#
#
# Indices 1 2 3 4 5 6 
#
# 1 65.7359 2.6668 27.5778 0.0000 0.0000 0.0000
# 2 2.6668 65.7359 27.5778 0.0000 0.0000 0.0000
# 3 27.5778 27.5778 109.1069 0.0000 0.0000 0.0000
# 4 0.0000 0.0000 0.0000 13.8559 0.0000 0.0000
# 5 0.0000 0.0000 0.0000 0.0000 13.8559 0.0000
# 6 0.0000 0.0000 0.0000 0.0000 0.0000 31.5345
#
#
#
# Elastic Compliance Matrix: (Units=1/GPa)
#
#
# Indices 1 2 3 4 5 6 
#
# 1 0.017109 0.001253 -0.004641 0.000000 0.000000 0.000000
# 2 0.001253 0.017109 -0.004641 0.000000 0.000000 0.000000
# 3 -0.004641 -0.004641 0.011511 0.000000 0.000000 0.000000
# 4 0.000000 0.000000 0.000000 0.072171 0.000000 0.000000
# 5 0.000000 0.000000 0.000000 0.000000 0.072171 0.000000
# 6 0.000000 0.000000 0.000000 0.000000 0.000000 0.031711
#
#
# Mechanical properties :
#
#
# Convention : Reuss Voigt Hill
#
# Bulk Modulus (GPa) = 33.70367 39.58039 36.64203
# Shear Modulus (GPa) = 20.18319 24.03303 22.10811
#
# Velocity S-wave (km/s) = 3.31394 3.61621 3.46837
# Velocity P-wave (km/s) = 5.74300 6.24282 5.99811
#
# Compressibility (1/GPa) = 0.02967036
#
# Stress axis : x y z
#
# Youngs Moduli (GPa) = 58.45014 58.45014 86.86986
#
# Poissons Ratio (x) = -0.07324 0.40317
# Poissons Ratio (y) = -0.07324 0.40317
# Poissons Ratio (z) = 0.27127 0.27127
#
# Static dielectric constant tensor:
#      x y z
#    x 1.662890 0.000000 0.000000 
#    y 0.000000 1.662890 0.000000 
#    z 0.000000 0.000000 1.652730 
# 
# From -- ./inp_files/1800.got.cif
#   From: 2010.05.17/outbox.cif.g08.bks.cpg/sg175_1_cif.got.tgz:1800.got - 2010.05.20 11:23:22.
