data_PCOD9581191
_publ_section_title
;
Structure prediction by ZEFSAII (Michael W. Deem and Ramdas Pophale) SiO2 
 PCOD9581191
Probable space group: P -6
;
_chemical_formula_sum "Si O2"
_cell_formula_units_Z 42
_cell_length_a 8.927545
_cell_length_b 8.927545
_cell_length_c 32.466007
_cell_angle_alpha 90.000000
_cell_angle_beta 90.000000
_cell_angle_gamma 120.000000
_cell_volume 2240.905825
_symmetry_space_group_name_H-M "P -6"
_symmetry_group_IT_number 174
_symmetry_cell_setting 'hexagonal'
loop_
_space_group_symop_operation_xyz
x,y,z
-x+y,-x,-z
-y,x-y,z
x,y,-z
-x+y,-x,z
-y,x-y,-z
loop_
_atom_site_type_symbol
_atom_site_label
_atom_site_fract_x
_atom_site_fract_y
_atom_site_fract_z
Si Si1 0.512475 0.878351 0.500000
Si Si2 0.204270 0.015236 0.713898
Si Si3 0.324794 0.004700 0.377826
Si Si4 0.784639 0.959934 0.000000
Si Si5 0.346723 0.347916 0.589494
Si Si6 0.667883 0.655775 0.878561
Si Si7 0.665223 0.983622 0.088871
Si Si8 0.857984 0.322670 0.213397
O O1 0.506354 0.692764 0.500000
O O2 0.600009 0.977553 0.541585
O O3 0.285828 0.019573 0.669842
O O4 0.013105 0.845680 0.716507
O O5 0.333324 0.037003 0.750357
O O6 0.164658 0.833060 0.396482
O O7 0.341997 0.170507 0.401223
O O8 0.498396 0.998041 0.384737
O O9 0.857206 0.825294 0.000000
O O10 0.680739 0.944710 0.958853
O O11 0.495678 0.504682 0.899590
O O12 0.671795 0.835139 0.884727
O O13 0.674285 0.611341 0.830892
O O14 0.834158 0.665951 0.900097
O O15 0.832517 0.489697 0.216248
#
# Coordination Sequence:
#
# PCOD9581191 Si02
#       8
#     3   6   6   3   6   6   6   6
#     4  10  20  42  66 100 130 174 232 280 346 400
#     4  10  23  41  65 100 135 173 227 277 336 412
#     4  12  24  45  65 105 135 186 224 280 345 410
#     4  10  20  42  66 104 130 176 232 276 346 410
#     4  12  24  42  72  94 142 180 225 286 338 407
#     4  12  24  45  65 105 133 188 222 282 343 412
#     4  12  24  42  72  94 143 177 228 284 340 406
#     4  10  23  41  65  98 136 173 226 279 336 406
#
# _framework density 18.742421
#
# number of rings (size 3 to 8) (size 9 to 14) (size 15 to 20)
#    0.857    0.000    5.714    1.714    4.000    2.286 
#    0.000    0.000    0.000    0.571    0.000    0.000 
#    0.000    0.000    0.000    0.000    0.000    0.000 
#
# Total GULP energy -234533.781019 kJ/mol
# GULP energy per Si atom -5584.137643 kJ/mol
# Density = 1.869976 g / cm^3
# Si number density = 18.742421 Si / 1000 Ang^3
#
#
#
# Elastic Constant Matrix: (Units=GPa)
#
#
# Indices 1 2 3 4 5 6 
#
# 1 124.7948 55.8643 26.8991 0.0000 0.0000 0.0000
# 2 55.8643 124.7948 26.8991 0.0000 0.0000 0.0000
# 3 26.8991 26.8991 151.0056 0.0000 0.0000 0.0000
# 4 0.0000 0.0000 0.0000 28.8405 0.0000 0.0000
# 5 0.0000 0.0000 0.0000 0.0000 28.8405 0.0000
# 6 0.0000 0.0000 0.0000 0.0000 0.0000 34.4653
#
#
#
# Elastic Compliance Matrix: (Units=1/GPa)
#
#
# Indices 1 2 3 4 5 6 
#
# 1 0.010176 -0.004331 -0.001041 0.000000 0.000000 0.000000
# 2 -0.004331 0.010176 -0.001041 0.000000 0.000000 0.000000
# 3 -0.001041 -0.001041 0.006993 0.000000 0.000000 0.000000
# 4 0.000000 0.000000 0.000000 0.034673 0.000000 0.000000
# 5 0.000000 0.000000 0.000000 0.000000 0.034673 0.000000
# 6 0.000000 0.000000 0.000000 0.000000 0.000000 0.029015
#
#
# Mechanical properties :
#
#
# Convention : Reuss Voigt Hill
#
# Bulk Modulus (GPa) = 68.87554 68.88004 68.87779
# Shear Modulus (GPa) = 34.87376 37.82476 36.34926
#
# Velocity S-wave (km/s) = 4.31825 4.49724 4.40865
# Velocity P-wave (km/s) = 7.85438 7.98734 7.92114
#
# Compressibility (1/GPa) = 0.01451894
#
# Stress axis : x y z
#
# Youngs Moduli (GPa) = 98.26697 98.26697 142.99533
#
# Poissons Ratio (x) = 0.42559 0.14889
# Poissons Ratio (y) = 0.42559 0.14889
# Poissons Ratio (z) = 0.10232 0.10232
#
# Static dielectric constant tensor:
#      x y z
#    x 1.641420 0.000000 0.000000 
#    y 0.000000 1.641420 0.000000 
#    z 0.000000 0.000000 1.613150 
# 
# From -- ./inp_files/1102.got.cif
#   From: 2010.05.17/outbox.cif.g08.bks.cpg/sg174_cif.got.tgz:1102.got - 2010.05.20 11:22:48.
