data_PCOD9581662
_publ_section_title
;
Structure prediction by ZEFSAII (Michael W. Deem and Ramdas Pophale) SiO2 
 PCOD9581662
Probable space group: P 6/M
;
_chemical_formula_sum "Si O2"
_cell_formula_units_Z 42
_cell_length_a 15.874566
_cell_length_b 15.874566
_cell_length_c 8.189929
_cell_angle_alpha 90.000000
_cell_angle_beta 90.000000
_cell_angle_gamma 120.000000
_cell_volume 1787.370106
_symmetry_space_group_name_H-M "P 6/M"
_symmetry_group_IT_number 175
_symmetry_cell_setting 'hexagonal'
loop_
_space_group_symop_operation_xyz
x,y,z
x-y,x,z
-y,x-y,z
-x,-y,z
-x+y,-x,z
y,-x+y,z
-x,-y,-z
-x+y,-x,-z
y,-x+y,-z
x,y,-z
x-y,x,-z
-y,x-y,-z
loop_
_atom_site_type_symbol
_atom_site_label
_atom_site_fract_x
_atom_site_fract_y
_atom_site_fract_z
Si Si1 0.138616 0.634857 0.814694
Si Si2 0.845750 0.066835 0.200451
Si Si3 0.455840 0.753621 0.500000
Si Si4 0.585861 0.667344 0.814081
O O1 0.202530 0.707228 0.672057
O O2 0.035012 0.628904 0.813974
O O3 0.120119 0.526974 0.773830
O O4 0.178192 0.658865 0.000000
O O5 0.956198 0.143050 0.248855
O O6 0.766004 0.094454 0.263944
O O7 0.843644 0.067205 0.000000
O O8 0.233039 0.594226 0.500000
O O9 0.580093 0.695066 0.000000
#
# Coordination Sequence:
#
# PCOD9581662 Si02
#       4
#    12  12   6  12
#     4   9  18  36  58  78 110 148 186 242 295 332
#     4   9  16  26  42  71 111 149 186 233 286 344
#     4  10  24  37  48  80 114 142 190 229 272 354
#     4   8  16  30  52  80 101 139 197 235 282 352
#
# _framework density 23.498211999999999
#
# number of rings (size 3 to 8) (size 9 to 14) (size 15 to 20)
#    0.286    2.857    0.000    2.000    0.000    6.857 
#    0.000    5.714    0.000    0.000    0.000    0.000 
#    0.000    0.000    0.000   12.857    0.000   30.286 
#
# Total GULP energy -233988.529734 kJ/mol
# GULP energy per Si atom -5571.155470 kJ/mol
# Density = 2.344473 g / cm^3
# Si number density = 23.498212 Si / 1000 Ang^3
#
#
#
# Elastic Constant Matrix: (Units=GPa)
#
#
# Indices 1 2 3 4 5 6 
#
# 1 138.0239 66.0108 24.9146 0.0000 0.0000 0.0000
# 2 66.0108 138.0239 24.9146 0.0000 0.0000 0.0000
# 3 24.9146 24.9146 88.8392 0.0000 0.0000 0.0000
# 4 0.0000 0.0000 0.0000 39.5288 0.0000 0.0000
# 5 0.0000 0.0000 0.0000 0.0000 39.5288 0.0000
# 6 0.0000 0.0000 0.0000 0.0000 0.0000 36.0066
#
#
#
# Elastic Compliance Matrix: (Units=1/GPa)
#
#
# Indices 1 2 3 4 5 6 
#
# 1 0.009574 -0.004312 -0.001476 0.000000 0.000000 0.000000
# 2 -0.004312 0.009574 -0.001476 0.000000 0.000000 0.000000
# 3 -0.001476 -0.001476 0.012084 0.000000 0.000000 0.000000
# 4 0.000000 0.000000 0.000000 0.025298 0.000000 0.000000
# 5 0.000000 0.000000 0.000000 0.000000 0.025298 0.000000
# 6 0.000000 0.000000 0.000000 0.000000 0.000000 0.027773
#
#
# Mechanical properties :
#
#
# Convention : Reuss Voigt Hill
#
# Bulk Modulus (GPa) = 59.86357 66.28521 63.07439
# Shear Modulus (GPa) = 38.55175 39.61598 39.08387
#
# Velocity S-wave (km/s) = 4.05486 4.11044 4.08274
# Velocity P-wave (km/s) = 6.88866 7.12724 7.00896
#
# Compressibility (1/GPa) = 0.01670465
#
# Stress axis : x y z
#
# Youngs Moduli (GPa) = 104.45043 104.45043 82.75458
#
# Poissons Ratio (x) = 0.45044 0.12211
# Poissons Ratio (y) = 0.45044 0.12211
# Poissons Ratio (z) = 0.15412 0.15412
#
# Static dielectric constant tensor:
#      x y z
#    x 1.896250 0.000000 0.000000 
#    y 0.000000 1.896250 0.000000 
#    z 0.000000 0.000000 1.891810 
# 
# From -- ./inp_files/455.got.cif
#   From: 2010.05.17/outbox.cif.g08.bks.cpg/sg175_1_cif.got.tgz:455.got - 2010.05.20 11:23:22.
