data_PCOD9581227
_publ_section_title
;
Structure prediction by ZEFSAII (Michael W. Deem and Ramdas Pophale) SiO2 
 PCOD9581227
Probable space group: P -6
;
_chemical_formula_sum "Si O2"
_cell_formula_units_Z 32
_cell_length_a 15.000000
_cell_length_b 15.000000
_cell_length_c 9.000000
_cell_angle_alpha 90.000000
_cell_angle_beta 90.000000
_cell_angle_gamma 120.000000
_cell_volume 1753.701443
_symmetry_space_group_name_H-M "P -6"
_symmetry_group_IT_number 174
_symmetry_cell_setting 'hexagonal'
loop_
_space_group_symop_operation_xyz
x,y,z
-x+y,-x,-z
-y,x-y,z
x,y,-z
-x+y,-x,z
-y,x-y,-z
loop_
_atom_site_type_symbol
_atom_site_label
_atom_site_fract_x
_atom_site_fract_y
_atom_site_fract_z
Si Si1 0.446461 0.553542 0.680176
Si Si2 0.313679 0.156841 0.678922
Si Si3 0.732911 0.267089 0.176021
Si Si4 0.333334 0.666668 0.178482
Si Si5 0.668439 0.937397 0.680692
Si Si6 0.668442 0.731041 0.680692
O O1 0.440594 0.559409 0.500000
O O2 0.390749 0.609262 0.756111
O O3 0.377315 0.433049 0.721679
O O4 0.566955 0.622683 0.721677
O O5 0.308677 0.154340 0.500000
O O6 0.432229 0.216115 0.729368
O O7 0.265587 0.226870 0.730640
O O8 0.265586 0.038719 0.730641
O O9 0.777830 0.388915 0.206118
O O10 0.744542 0.255457 0.000000
O O11 0.333334 0.666668 0.000000
O O12 0.670142 0.936127 0.500000
O O13 0.659356 0.829676 0.730425
O O14 0.670145 0.734015 0.500000
#
# Coordination Sequence:
#
# PCOD9581227 Si02
#       6
#     6   6   6   2   6   6
#     4  10  18  33  57  75 103 147 176 196 254 342
#     4  10  20  32  53  82 105 132 178 229 260 286
#     4   8  18  35  51  71 105 145 174 196 250 326
#     4  12  22  32  49  84 115 128 166 231 274 296
#     4   9  18  32  52  79 106 136 175 215 259 313
#     4   9  18  32  52  79 106 136 175 215 259 313
#
# _framework density 18.247119999999999
#
# number of rings (size 3 to 8) (size 9 to 14) (size 15 to 20)
#    0.375    2.250    1.875    0.562    2.625    0.750 
#    1.125    1.875    0.000    0.000    0.000    0.000 
#    0.000    0.000    0.000    0.000    0.000    0.000 
#
# Total GULP energy -178228.469146 kJ/mol
# GULP energy per Si atom -5569.639661 kJ/mol
# Density = 1.820559 g / cm^3
# Si number density = 18.247120 Si / 1000 Ang^3
#
#
#
# Elastic Constant Matrix: (Units=GPa)
#
#
# Indices 1 2 3 4 5 6 
#
# 1 120.4609 59.9942 2.0071 0.0000 0.0000 0.0000
# 2 59.9942 120.4614 2.0072 0.0000 0.0000 0.0000
# 3 2.0071 2.0072 0.2879 0.0000 0.0000 0.0000
# 4 0.0000 0.0000 0.0000 8.1846 0.0000 0.0000
# 5 0.0000 0.0000 0.0000 0.0000 8.1846 0.0000
# 6 0.0000 0.0000 0.0000 0.0000 0.0000 30.2333
#
#
#
# Elastic Compliance Matrix: (Units=1/GPa)
#
#
# Indices 1 2 3 4 5 6 
#
# 1 0.011548 -0.004990 -0.045716 0.000000 0.000000 0.000000
# 2 -0.004990 0.011548 -0.045725 0.000000 0.000000 0.000000
# 3 -0.045716 -0.045725 4.110637 0.000000 0.000000 0.000001
# 4 0.000000 0.000000 0.000000 0.122181 0.000000 0.000000
# 5 0.000000 0.000000 0.000000 0.000000 0.122181 0.000000
# 6 0.000000 0.000000 0.000001 0.000000 0.000000 0.033076
#
#
# Mechanical properties :
#
#
# Convention : Reuss Voigt Hill
#
# Bulk Modulus (GPa) = 0.25375 41.02525 20.63950
# Shear Modulus (GPa) = 0.84493 21.13395 10.98944
#
# Velocity S-wave (km/s) = 0.68121 3.40694 2.45675
# Velocity P-wave (km/s) = 0.87069 6.16508 4.40263
#
# Compressibility (1/GPa) = 3.94087167
#
# Stress axis : x y z
#
# Youngs Moduli (GPa) = 86.59356 86.59249 0.24327
#
# Poissons Ratio (x) = 0.43207 0.01112
# Poissons Ratio (y) = 0.43207 0.01112
# Poissons Ratio (z) = 3.95875 3.95944
#
# Static dielectric constant tensor:
#      x y z
#    x 1.644230 0.000000 0.000000 
#    y 0.000000 1.644230 0.000000 
#    z 0.000000 0.000000 1.585750 
# 
# From -- ./inp_files/320.got.cif
#   From: 2010.05.17/outbox.ucp.g08.bks.cvg/sg174_cif.got.tgz:320.got - 2010.06.11 15:18:40.
