data_PCOD9581190
_publ_section_title
;
Structure prediction by ZEFSAII (Michael W. Deem and Ramdas Pophale) SiO2 
 PCOD9581190
Probable space group: P -6
;
_chemical_formula_sum "Si O2"
_cell_formula_units_Z 42
_cell_length_a 8.739785
_cell_length_b 8.739785
_cell_length_c 32.894683
_cell_angle_alpha 90.000000
_cell_angle_beta 90.000000
_cell_angle_gamma 120.000000
_cell_volume 2175.994711
_symmetry_space_group_name_H-M "P -6"
_symmetry_group_IT_number 174
_symmetry_cell_setting 'hexagonal'
loop_
_space_group_symop_operation_xyz
x,y,z
-x+y,-x,-z
-y,x-y,z
x,y,-z
-x+y,-x,z
-y,x-y,-z
loop_
_atom_site_type_symbol
_atom_site_label
_atom_site_fract_x
_atom_site_fract_y
_atom_site_fract_z
Si Si1 0.682981 0.140280 0.500000
Si Si2 0.315773 0.859025 0.712020
Si Si3 0.328731 0.990721 0.377708
Si Si4 0.644862 0.121761 0.000000
Si Si5 0.335015 0.325962 0.588997
Si Si6 0.671286 0.676951 0.877987
Si Si7 0.659195 0.002581 0.088822
Si Si8 0.017308 0.209708 0.212173
O O1 0.508473 0.162079 0.500000
O O2 0.688478 0.047642 0.541082
O O3 0.161553 0.651708 0.712980
O O4 0.310354 0.947654 0.670019
O O5 0.292727 0.958017 0.750190
O O6 0.144828 0.857880 0.399184
O O7 0.376434 0.188012 0.388259
O O8 0.479536 0.956115 0.395630
O O9 0.822392 0.315788 0.000000
O O10 0.636714 0.021866 0.958974
O O11 0.476775 0.521848 0.888599
O O12 0.708568 0.854231 0.900954
O O13 0.701322 0.721533 0.830382
O O14 0.810695 0.622593 0.894192
O O15 0.171697 0.156959 0.213620
#
# Coordination Sequence:
#
# PCOD9581190 Si02
#       8
#     3   6   6   3   6   6   6   6
#     4  10  20  42  66 100 130 174 226 278 340 400
#     4  10  23  41  65  98 136 173 226 279 336 406
#     4  12  24  45  65 105 133 186 223 279 341 410
#     4  10  20  42  66 100 130 174 226 278 340 400
#     4  12  24  42  72  94 141 177 226 282 338 404
#     4  12  24  45  65 105 133 186 223 279 341 410
#     4  12  24  42  72  94 141 177 226 282 338 404
#     4  10  23  41  65  98 136 173 226 279 336 406
#
# _framework density 19.301518000000002
#
# number of rings (size 3 to 8) (size 9 to 14) (size 15 to 20)
#    0.857    0.000    5.714    1.714    4.000    2.286 
#    0.000    0.000    0.000    0.571    0.000    0.000 
#    0.000    0.000    0.000    0.000    0.000    0.000 
#
# Total GULP energy -234573.830327 kJ/mol
# GULP energy per Si atom -5585.091198 kJ/mol
# Density = 1.925759 g / cm^3
# Si number density = 19.301518 Si / 1000 Ang^3
#
#
#
# Elastic Constant Matrix: (Units=GPa)
#
#
# Indices 1 2 3 4 5 6 
#
# 1 51.3571 -11.1768 38.3174 0.0000 0.0000 0.0000
# 2 -11.1768 51.3571 38.3174 0.0000 0.0000 0.0000
# 3 38.3174 38.3174 199.1991 0.0000 0.0000 0.0000
# 4 0.0000 0.0000 0.0000 9.7886 0.0000 0.0000
# 5 0.0000 0.0000 0.0000 0.0000 9.7886 0.0000
# 6 0.0000 0.0000 0.0000 0.0000 0.0000 31.2669
#
#
#
# Elastic Compliance Matrix: (Units=1/GPa)
#
#
# Indices 1 2 3 4 5 6 
#
# 1 0.027650 0.011659 -0.007561 0.000000 0.000000 0.000000
# 2 0.011659 0.027650 -0.007561 0.000000 0.000000 0.000000
# 3 -0.007561 -0.007561 0.007929 0.000000 0.000000 0.000000
# 4 0.000000 0.000000 0.000000 0.102159 0.000000 0.000000
# 5 0.000000 0.000000 0.000000 0.000000 0.102159 0.000000
# 6 0.000000 0.000000 0.000000 0.000000 0.000000 0.031983
#
#
# Mechanical properties :
#
#
# Convention : Reuss Voigt Hill
#
# Bulk Modulus (GPa) = 17.76123 48.09214 32.92669
# Shear Modulus (GPa) = 15.37389 25.93251 20.65320
#
# Velocity S-wave (km/s) = 2.82532 3.66942 3.27468
# Velocity P-wave (km/s) = 4.45704 6.55158 5.60305
#
# Compressibility (1/GPa) = 0.05630240
#
# Stress axis : x y z
#
# Youngs Moduli (GPa) = 36.16574 36.16574 126.11743
#
# Poissons Ratio (x) = -0.42166 0.95364
# Poissons Ratio (y) = -0.42166 0.95364
# Poissons Ratio (z) = 0.27347 0.27347
#
# Static dielectric constant tensor:
#      x y z
#    x 1.665610 0.000000 0.000000 
#    y 0.000000 1.665610 0.000000 
#    z 0.000000 0.000000 1.626780 
# 
# From -- ./inp_files/1105.got.cif
#   From: 2010.05.17/outbox.cif.g08.bks.cpg/sg174_cif.got.tgz:1105.got - 2010.05.20 11:22:48.
