data_PCOD9581693
_publ_section_title
;
Structure prediction by ZEFSAII (Michael W. Deem and Ramdas Pophale) SiO2 
 PCOD9581693
Probable space group: P 6/M
;
_chemical_formula_sum "Si O2"
_cell_formula_units_Z 60
_cell_length_a 14.758128
_cell_length_b 14.758128
_cell_length_c 14.212538
_cell_angle_alpha 90.000000
_cell_angle_beta 90.000000
_cell_angle_gamma 120.000000
_cell_volume 2680.802477
_symmetry_space_group_name_H-M "P 6/M"
_symmetry_group_IT_number 175
_symmetry_cell_setting 'hexagonal'
loop_
_space_group_symop_operation_xyz
x,y,z
x-y,x,z
-y,x-y,z
-x,-y,z
-x+y,-x,z
y,-x+y,z
-x,-y,-z
-x+y,-x,-z
y,-x+y,-z
x,y,-z
x-y,x,-z
-y,x-y,-z
loop_
_atom_site_type_symbol
_atom_site_label
_atom_site_fract_x
_atom_site_fract_y
_atom_site_fract_z
Si Si1 0.230634 0.065243 0.614572
Si Si2 0.993101 0.787369 0.113725
Si Si3 0.258234 0.459924 0.389288
Si Si4 0.593843 0.120822 0.300461
Si Si5 0.374432 0.926061 0.894913
O O1 0.197888 0.148401 0.646231
O O2 0.229259 0.065490 0.500000
O O3 0.348911 0.106189 0.641947
O O4 0.888090 0.787283 0.146595
O O5 0.984698 0.675171 0.130576
O O6 0.994303 0.796291 0.000000
O O7 0.281849 0.475636 0.500000
O O8 0.354176 0.547362 0.331884
O O9 0.151427 0.460142 0.368944
O O10 0.638780 0.144527 0.194753
O O11 0.500000 0.000000 0.307487
O O12 0.500000 0.000000 0.900744
O O13 0.338389 0.879451 0.000000
#
# Coordination Sequence:
#
# PCOD9581693 Si02
#       5
#    12  12  12  12  12
#     4   9  17  31  54  85 121 160 200 243 296 364
#     4   9  17  32  60  98 138 177 216 263 323 392
#     4  11  23  39  61  91 123 157 205 261 318 383
#     4  11  24  42  65  91 122 163 209 263 327 392
#     4   9  20  39  62  90 127 172 222 273 323 383
#
# _framework density 22.381360000000001
#
# number of rings (size 3 to 8) (size 9 to 14) (size 15 to 20)
#    0.000    2.200    0.000    2.600    0.000    8.000 
#    0.000    3.000    0.000    0.800    0.000    8.400 
#    0.000    0.000    0.000    0.000    0.000    1.000 
#
# Total GULP energy -335139.166488 kJ/mol
# GULP energy per Si atom -5585.652775 kJ/mol
# Density = 2.233042 g / cm^3
# Si number density = 22.381360 Si / 1000 Ang^3
#
#
#
# Elastic Constant Matrix: (Units=GPa)
#
#
# Indices 1 2 3 4 5 6 
#
# 1 112.4792 46.2483 36.7224 0.0000 0.0000 0.0000
# 2 46.2483 112.4792 36.7224 0.0000 0.0000 0.0000
# 3 36.7224 36.7224 96.1713 0.0000 0.0000 0.0000
# 4 0.0000 0.0000 0.0000 4.2147 0.0000 0.0000
# 5 0.0000 0.0000 0.0000 0.0000 4.2147 0.0000
# 6 0.0000 0.0000 0.0000 0.0000 0.0000 33.1155
#
#
#
# Elastic Compliance Matrix: (Units=1/GPa)
#
#
# Indices 1 2 3 4 5 6 
#
# 1 0.011375 -0.003723 -0.002922 0.000000 0.000000 0.000000
# 2 -0.003723 0.011375 -0.002922 0.000000 0.000000 0.000000
# 3 -0.002922 -0.002922 0.012630 0.000000 0.000000 0.000000
# 4 0.000000 0.000000 0.000000 0.237263 0.000000 0.000000
# 5 0.000000 0.000000 0.000000 0.000000 0.237263 0.000000
# 6 0.000000 0.000000 0.000000 0.000000 0.000000 0.030197
#
#
# Mechanical properties :
#
#
# Convention : Reuss Voigt Hill
#
# Bulk Modulus (GPa) = 61.55321 62.27957 61.91639
# Shear Modulus (GPa) = 8.85500 21.73810 15.29655
#
# Velocity S-wave (km/s) = 1.99123 3.11988 2.61712
# Velocity P-wave (km/s) = 5.73135 6.39259 6.07098
#
# Compressibility (1/GPa) = 0.01624611
#
# Stress axis : x y z
#
# Youngs Moduli (GPa) = 87.90908 87.90908 79.17951
#
# Poissons Ratio (x) = 0.32731 0.23136
# Poissons Ratio (y) = 0.32731 0.23136
# Poissons Ratio (z) = 0.25686 0.25686
#
# Static dielectric constant tensor:
#      x y z
#    x 1.806670 0.000000 0.000000 
#    y 0.000000 1.806670 0.000000 
#    z 0.000000 0.000000 1.876540 
# 
# From -- ./inp_files/2357.got.cif
#   From: 2010.05.17/outbox.cif.g08.bks.cpg/sg175_2_cif.got.tgz:2357.got - 2010.05.20 11:23:22.
