data_PCOD9581869
_publ_section_title
;
Structure prediction by ZEFSAII (Michael W. Deem and Ramdas Pophale) SiO2 
 PCOD9581869
Probable space group: P 63/M
;
_chemical_formula_sum "Si O2"
_cell_formula_units_Z 52
_cell_length_a 15.740296
_cell_length_b 15.740296
_cell_length_c 12.779415
_cell_angle_alpha 90.000000
_cell_angle_beta 90.000000
_cell_angle_gamma 120.000000
_cell_volume 2741.999654
_symmetry_space_group_name_H-M "P 63/M"
_symmetry_group_IT_number 176
_symmetry_cell_setting 'hexagonal'
loop_
_space_group_symop_operation_xyz
x,y,z
x-y,x,1/2+z
-y,x-y,z
-x,-y,1/2+z
-x+y,-x,z
y,-x+y,1/2+z
-x,-y,-z
-x+y,-x,1/2-z
y,-x+y,-z
x,y,1/2-z
x-y,x,-z
-y,x-y,1/2-z
loop_
_atom_site_type_symbol
_atom_site_label
_atom_site_fract_x
_atom_site_fract_y
_atom_site_fract_z
Si Si1 0.333334 0.666668 0.624938
Si Si2 0.077623 0.123204 0.376811
Si Si3 0.451608 0.388255 0.628849
Si Si4 0.158620 0.811520 0.373739
Si Si5 0.495975 0.858326 0.982901
O O1 0.333334 0.666668 0.750000
O O2 0.325881 0.567601 0.580054
O O3 0.079970 0.128120 0.250000
O O4 0.144737 0.234793 0.408978
O O5 0.105523 0.039255 0.404396
O O6 0.481568 0.406535 0.750000
O O7 0.377850 0.272510 0.615977
O O8 0.546173 0.423297 0.555826
O O9 0.400641 0.450002 0.594396
O O10 0.140677 0.784869 0.250000
O O11 0.143235 0.720614 0.442951
#
# Coordination Sequence:
#
# PCOD9581869 Si02
#       5
#     4  12  12  12  12
#     4  12  24  42  67  92 121 165 207 258 322 380
#     4   7  13  29  53  84 123 164 204 246 298 360
#     4  10  22  40  62  88 124 161 202 259 314 367
#     4  10  19  36  62  92 126 164 210 259 310 371
#     4  11  22  41  62  91 124 161 207 257 311 381
#
# _framework density 18.964262000000002
#
# number of rings (size 3 to 8) (size 9 to 14) (size 15 to 20)
#    0.462    1.846    2.308    1.385    0.000    0.000 
#    4.154    0.000    0.000    1.385    0.000    0.000 
#    0.000    0.000    0.000    0.000    0.000    0.000 
#
# Total GULP energy -290117.994559 kJ/mol
# GULP energy per Si atom -5579.192203 kJ/mol
# Density = 1.892110 g / cm^3
# Si number density = 18.964262 Si / 1000 Ang^3
#
#
#
# Elastic Constant Matrix: (Units=GPa)
#
#
# Indices 1 2 3 4 5 6 
#
# 1 97.0268 34.4062 35.4505 0.0000 0.0000 0.0001
# 2 34.4062 97.0260 35.4501 0.0000 0.0000 0.0005
# 3 35.4505 35.4501 76.2762 0.0000 0.0000 0.0001
# 4 0.0000 0.0000 0.0000 22.2528 0.0000 0.0000
# 5 0.0000 0.0000 0.0000 0.0000 22.2525 0.0000
# 6 0.0001 0.0005 0.0001 0.0000 0.0000 31.3103
#
#
#
# Elastic Compliance Matrix: (Units=1/GPa)
#
#
# Indices 1 2 3 4 5 6 
#
# 1 0.013062 -0.002908 -0.004719 0.000000 0.000000 0.000000
# 2 -0.002908 0.013062 -0.004719 0.000000 0.000000 0.000000
# 3 -0.004719 -0.004719 0.017497 0.000000 0.000000 0.000000
# 4 0.000000 0.000000 0.000000 0.044938 0.000000 0.000000
# 5 0.000000 0.000000 0.000000 0.000000 0.044939 0.000000
# 6 0.000000 0.000000 0.000000 0.000000 0.000000 0.031938
#
#
# Mechanical properties :
#
#
# Convention : Reuss Voigt Hill
#
# Bulk Modulus (GPa) = 52.83113 53.43806 53.13460
# Shear Modulus (GPa) = 25.45339 26.16462 25.80901
#
# Velocity S-wave (km/s) = 3.66755 3.71843 3.69308
# Velocity P-wave (km/s) = 6.77151 6.83192 6.80178
#
# Compressibility (1/GPa) = 0.01892823
#
# Stress axis : x y z
#
# Youngs Moduli (GPa) = 76.55948 76.55900 57.15274
#
# Poissons Ratio (x) = 0.22260 0.26972
# Poissons Ratio (y) = 0.22260 0.26972
# Poissons Ratio (z) = 0.36131 0.36130
#
# Static dielectric constant tensor:
#      x y z
#    x 1.632070 0.000000 0.000000 
#    y 0.000000 1.632070 0.000000 
#    z 0.000000 0.000000 1.700380 
# 
# From -- ./inp_files/2577.got.cif
#   From: 2010.05.17/outbox.cif.g08.bks.cpg/sg176_2_cif.got.tgz:2577.got - 2010.06.03 11:36:45.
