data_PCOD9581216
_publ_section_title
;
Structure prediction by ZEFSAII (Michael W. Deem and Ramdas Pophale) SiO2 
 PCOD9581216
Probable space group: P -6
;
_chemical_formula_sum "Si O2"
_cell_formula_units_Z 28
_cell_length_a 12.544772
_cell_length_b 12.544772
_cell_length_c 7.570906
_cell_angle_alpha 90.000000
_cell_angle_beta 90.000000
_cell_angle_gamma 120.000000
_cell_volume 1031.820211
_symmetry_space_group_name_H-M "P -6"
_symmetry_group_IT_number 174
_symmetry_cell_setting 'hexagonal'
loop_
_space_group_symop_operation_xyz
x,y,z
-x+y,-x,-z
-y,x-y,z
x,y,-z
-x+y,-x,z
-y,x-y,-z
loop_
_atom_site_type_symbol
_atom_site_label
_atom_site_fract_x
_atom_site_fract_y
_atom_site_fract_z
Si Si1 0.333334 0.666668 0.217940
Si Si2 0.000000 0.000000 0.288125
Si Si3 0.608461 0.179129 0.714115
Si Si4 0.578817 0.701192 0.795811
Si Si5 0.639860 0.969482 0.702783
Si Si6 0.908282 0.178612 0.793444
O O1 0.200944 0.558570 0.278575
O O2 0.333334 0.666668 0.000000
O O3 0.882728 0.877239 0.220496
O O4 0.000000 0.000000 0.500000
O O5 0.749024 0.285529 0.765673
O O6 0.606104 0.172804 0.500000
O O7 0.577947 0.046563 0.780416
O O8 0.684798 0.680224 0.714438
O O9 0.621017 0.847015 0.793167
O O10 0.570801 0.666924 0.000000
O O11 0.604080 0.936333 0.500000
O O12 0.782767 0.077603 0.704356
O O13 0.883450 0.184950 0.000000
#
# Coordination Sequence:
#
# PCOD9581216 Si02
#       6
#     2   2   6   6   6   6
#     4   9  21  45  67  86 115 168 223 254 298 372
#     4  12  22  35  58  87 118 149 187 246 304 371
#     4   7  14  31  51  74 109 146 180 224 292 356
#     4  10  22  40  62  84 117 161 206 251 303 366
#     4  11  21  33  58  90 116 149 198 251 299 355
#     4  11  22  36  56  85 121 159 192 240 310 368
#
# _framework density 27.136510000000001
#
# number of rings (size 3 to 8) (size 9 to 14) (size 15 to 20)
#    0.429    1.714    2.143    1.929    0.000    2.571 
#    0.000    1.071    0.000    3.857    0.000    0.000 
#    0.000    0.000    0.000    0.000    0.000    0.000 
#
# Total GULP energy -156610.933611 kJ/mol
# GULP energy per Si atom -5593.247629 kJ/mol
# Density = 2.707475 g / cm^3
# Si number density = 27.136510 Si / 1000 Ang^3
#
#
#
# Elastic Constant Matrix: (Units=GPa)
#
#
# Indices 1 2 3 4 5 6 
#
# 1 133.6040 16.0586 17.0324 0.0000 0.0000 -0.0002
# 2 16.0586 133.6060 17.0324 0.0000 0.0000 -0.0005
# 3 17.0324 17.0324 124.9202 0.0000 0.0000 0.0000
# 4 0.0000 0.0000 0.0000 18.1188 0.0000 0.0000
# 5 0.0000 0.0000 0.0000 0.0000 18.1187 0.0000
# 6 -0.0002 -0.0005 0.0000 0.0000 0.0000 58.7734
#
#
#
# Elastic Compliance Matrix: (Units=1/GPa)
#
#
# Indices 1 2 3 4 5 6 
#
# 1 0.007702 -0.000806 -0.000940 0.000000 0.000000 0.000000
# 2 -0.000806 0.007701 -0.000940 0.000000 0.000000 0.000000
# 3 -0.000940 -0.000940 0.008261 0.000000 0.000000 0.000000
# 4 0.000000 0.000000 0.000000 0.055191 0.000000 0.000000
# 5 0.000000 0.000000 0.000000 0.000000 0.055192 0.000000
# 6 0.000000 0.000000 0.000000 0.000000 0.000000 0.017015
#
#
# Mechanical properties :
#
#
# Convention : Reuss Voigt Hill
#
# Bulk Modulus (GPa) = 54.66869 54.70856 54.68863
# Shear Modulus (GPa) = 30.76326 41.80263 36.28295
#
# Velocity S-wave (km/s) = 3.37062 3.92912 3.66054
# Velocity P-wave (km/s) = 5.94455 6.38657 6.16952
#
# Compressibility (1/GPa) = 0.01829201
#
# Stress axis : x y z
#
# Youngs Moduli (GPa) = 129.84446 129.84645 121.04349
#
# Poissons Ratio (x) = 0.10463 0.11381
# Poissons Ratio (y) = 0.10463 0.11380
# Poissons Ratio (z) = 0.12208 0.12208
#
# Static dielectric constant tensor:
#      x y z
#    x 2.203250 0.000000 0.000000 
#    y 0.000000 2.203240 0.000000 
#    z 0.000000 0.000000 1.975430 
# 
# From -- ./inp_files/273.got.cif
#   From: 2010.05.17/outbox.cif.g08.bks.cpg/sg174_cif.got.tgz:273.got - 2010.05.20 11:22:48.
