data_PCOD9581796
_publ_section_title
;
Structure prediction by ZEFSAII (Michael W. Deem and Ramdas Pophale) SiO2 
 PCOD9581796
Probable space group: P 63/M
;
_chemical_formula_sum "Si O2"
_cell_formula_units_Z 72
_cell_length_a 23.245231
_cell_length_b 23.245231
_cell_length_c 9.268467
_cell_angle_alpha 90.000000
_cell_angle_beta 90.000000
_cell_angle_gamma 120.000000
_cell_volume 4337.168275
_symmetry_space_group_name_H-M "P 63/M"
_symmetry_group_IT_number 176
_symmetry_cell_setting 'hexagonal'
loop_
_space_group_symop_operation_xyz
x,y,z
x-y,x,1/2+z
-y,x-y,z
-x,-y,1/2+z
-x+y,-x,z
y,-x+y,1/2+z
-x,-y,-z
-x+y,-x,1/2-z
y,-x+y,-z
x,y,1/2-z
x-y,x,-z
-y,x-y,1/2-z
loop_
_atom_site_type_symbol
_atom_site_label
_atom_site_fract_x
_atom_site_fract_y
_atom_site_fract_z
Si Si1 0.529607 0.601482 0.083781
Si Si2 0.346793 0.292579 0.080632
Si Si3 0.592306 0.503542 0.415921
Si Si4 0.135696 0.293894 0.421284
Si Si5 0.141779 0.057544 0.923079
Si Si6 0.713762 0.610117 0.919721
O O1 0.523148 0.615786 0.250000
O O2 0.560611 0.552238 0.082109
O O3 0.582523 0.666704 0.999318
O O4 0.458981 0.560968 0.005208
O O5 0.356052 0.286785 0.250000
O O6 0.311015 0.336372 0.064396
O O7 0.303437 0.221127 0.009382
O O8 0.596492 0.487524 0.250000
O O9 0.663998 0.546017 0.489070
O O10 0.126657 0.299458 0.250000
O O11 0.126527 0.221223 0.444158
O O12 0.209279 0.351887 0.462001
O O13 0.128415 0.049277 0.750000
O O14 0.116441 0.104234 0.993909
O O15 0.707974 0.592887 0.750000
#
# Coordination Sequence:
#
# PCOD9581796 Si02
#       6
#    12  12  12  12  12  12
#     4   9  16  27  44  66  94 125 153 182 221 269
#     4  10  19  31  48  69  95 126 161 201 243 289
#     4   9  16  26  43  68  94 120 152 186 220 263
#     4  10  21  35  50  69  96 129 164 203 253 313
#     4  11  23  39  57  75  95 123 165 219 276 331
#     4   9  18  32  47  65  93 127 159 194 240 293
#
# _framework density 16.600694000000001
#
# number of rings (size 3 to 8) (size 9 to 14) (size 15 to 20)
#    0.000    2.333    0.000    3.167    0.000    8.000 
#    0.000    0.000    0.000    0.000    0.000    0.000 
#    1.667    0.000    3.000    0.000    3.000    0.000 
#
# Total GULP energy -401609.222617 kJ/mol
# GULP energy per Si atom -5577.905870 kJ/mol
# Density = 1.656291 g / cm^3
# Si number density = 16.600694 Si / 1000 Ang^3
#
#
#
# Elastic Constant Matrix: (Units=GPa)
#
#
# Indices 1 2 3 4 5 6 
#
# 1 26.3791 -9.6840 10.0718 0.0000 0.0000 0.0000
# 2 -9.6840 26.3791 10.0718 0.0000 0.0000 0.0000
# 3 10.0718 10.0718 58.9558 0.0000 0.0000 0.0000
# 4 0.0000 0.0000 0.0000 23.7181 0.0000 0.0000
# 5 0.0000 0.0000 0.0000 0.0000 23.7181 0.0000
# 6 0.0000 0.0000 0.0000 0.0000 0.0000 18.0315
#
#
#
# Elastic Compliance Matrix: (Units=1/GPa)
#
#
# Indices 1 2 3 4 5 6 
#
# 1 0.051590 0.023860 -0.012890 0.000000 0.000000 0.000000
# 2 0.023860 0.051590 -0.012890 0.000000 0.000000 0.000000
# 3 -0.012890 -0.012890 0.021366 0.000000 0.000000 0.000000
# 4 0.000000 0.000000 0.000000 0.042162 0.000000 0.000000
# 5 0.000000 0.000000 0.000000 0.000000 0.042162 0.000000
# 6 0.000000 0.000000 0.000000 0.000000 0.000000 0.055458
#
#
# Mechanical properties :
#
#
# Convention : Reuss Voigt Hill
#
# Bulk Modulus (GPa) = 8.28450 14.73701 11.51075
# Shear Modulus (GPa) = 16.21268 19.84384 18.02826
#
# Velocity S-wave (km/s) = 3.12849 3.46115 3.29902
# Velocity P-wave (km/s) = 4.24868 4.98692 4.63253
#
# Compressibility (1/GPa) = 0.12070733
#
# Stress axis : x y z
#
# Youngs Moduli (GPa) = 19.38377 19.38377 46.80360
#
# Poissons Ratio (x) = -0.46250 0.60328
# Poissons Ratio (y) = -0.46250 0.60328
# Poissons Ratio (z) = 0.24985 0.24985
#
# Static dielectric constant tensor:
#      x y z
#    x 1.545170 0.000000 0.000000 
#    y 0.000000 1.545170 0.000000 
#    z 0.000000 0.000000 1.554220 
# 
# From -- ./inp_files/1205.got.cif
#   From: 2010.05.17/outbox.cif.g08.bks.cpg/sg176_1_cif.got.tgz:1205.got - 2010.06.03 11:36:45.
