data_PCOD9581533
_publ_section_title
;
Structure prediction by ZEFSAII (Michael W. Deem and Ramdas Pophale) SiO2 
 PCOD9581533
Probable space group: P 6/M
;
_chemical_formula_sum "Si O2"
_cell_formula_units_Z 66
_cell_length_a 22.380504
_cell_length_b 22.380504
_cell_length_c 5.729441
_cell_angle_alpha 90.000000
_cell_angle_beta 90.000000
_cell_angle_gamma 120.000000
_cell_volume 2485.321679
_symmetry_space_group_name_H-M "P 6/M"
_symmetry_group_IT_number 175
_symmetry_cell_setting 'hexagonal'
loop_
_space_group_symop_operation_xyz
x,y,z
x-y,x,z
-y,x-y,z
-x,-y,z
-x+y,-x,z
y,-x+y,z
-x,-y,-z
-x+y,-x,-z
y,-x+y,-z
x,y,-z
x-y,x,-z
-y,x-y,-z
loop_
_atom_site_type_symbol
_atom_site_label
_atom_site_fract_x
_atom_site_fract_y
_atom_site_fract_z
Si Si1 0.986893 0.135489 0.000000
Si Si2 0.406036 0.621746 0.250150
Si Si3 0.389003 0.310990 0.749851
Si Si4 0.423201 0.488409 0.749924
Si Si5 0.231661 0.458324 0.249946
Si Si6 0.719448 0.952086 0.751019
O O1 0.058706 0.136686 0.000000
O O2 0.980195 0.179245 0.214262
O O3 0.369889 0.614049 0.500000
O O4 0.424827 0.561086 0.250127
O O5 0.474803 0.696098 0.250755
O O6 0.370214 0.614392 0.000000
O O7 0.421188 0.345214 0.500000
O O8 0.395884 0.242776 0.750376
O O9 0.310352 0.293428 0.749417
O O10 0.420993 0.345183 0.000000
O O11 0.500000 0.500000 0.749713
O O12 0.391194 0.454025 0.500000
O O13 0.391403 0.454187 0.000000
O O14 0.264276 0.459167 0.500000
O O15 0.264752 0.460419 0.000000
O O16 0.695938 0.916557 0.500000
O O17 0.689720 0.914211 0.000000
#
# Coordination Sequence:
#
# PCOD9581533 Si02
#       6
#     6  12  12  12  12  12
#     4  10  21  34  48  60  72  84  96 108 119 130
#     4   8  12  16  20  28  41  55  72  93 115 136
#     4   8  12  20  33  47  60  72  84  96 112 133
#     4   8  12  16  20  24  32  49  72  95 116 136
#     4   8  12  16  24  37  51  64  76  92 113 135
#     4   8  16  29  43  56  68  80  92 104 116 132
#
# _framework density 26.555917999999998
#
# number of rings (size 3 to 8) (size 9 to 14) (size 15 to 20)
#    0.545    3.273    0.000    0.091    0.000    0.727 
#    0.000    0.000    0.000    1.091    0.000    0.000 
#    0.000    0.000    0.000    0.000    0.000    0.000 
#
# Total GULP energy -368060.694428 kJ/mol
# GULP energy per Si atom -5576.677188 kJ/mol
# Density = 2.649548 g / cm^3
# Si number density = 26.555918 Si / 1000 Ang^3
#
#
#
# Elastic Constant Matrix: (Units=GPa)
#
#
# Indices 1 2 3 4 5 6 
#
# 1 116.3789 44.3830 17.4055 0.0000 0.0000 0.0000
# 2 44.3830 116.3789 17.4055 0.0000 0.0000 0.0000
# 3 17.4055 17.4055 393.4958 0.0000 0.0000 0.0000
# 4 0.0000 0.0000 0.0000 -26.2648 0.0000 0.0000
# 5 0.0000 0.0000 0.0000 0.0000 -26.2648 0.0000
# 6 0.0000 0.0000 0.0000 0.0000 0.0000 35.9980
#
#
#
# Elastic Compliance Matrix: (Units=1/GPa)
#
#
# Indices 1 2 3 4 5 6 
#
# 1 0.010085 -0.003805 -0.000278 0.000000 0.000000 0.000000
# 2 -0.003805 0.010085 -0.000278 0.000000 0.000000 0.000000
# 3 -0.000278 -0.000278 0.002566 0.000000 0.000000 0.000000
# 4 0.000000 0.000000 0.000000 -0.038074 0.000000 0.000000
# 5 0.000000 0.000000 0.000000 0.000000 -0.038074 0.000000
# 6 0.000000 0.000000 0.000000 0.000000 0.000000 0.027779
#
#
# Mechanical properties :
#
#
# Convention : Reuss Voigt Hill
#
# Bulk Modulus (GPa) = 71.34837 87.18242 79.26540
# Shear Modulus (GPa) = -408.50371 33.16431 -187.66970
#
# Velocity S-wave (km/s) = -12.41619 3.53774 -8.41564
# Velocity P-wave (km/s) = 13.36501 7.04191 8.03228
#
# Compressibility (1/GPa) = 0.01401574
#
# Stress axis : x y z
#
# Youngs Moduli (GPa) = 99.15617 99.15617 389.72679
#
# Poissons Ratio (x) = 0.37725 0.10827
# Poissons Ratio (y) = 0.37725 0.10827
# Poissons Ratio (z) = 0.02755 0.02755
#
# Static dielectric constant tensor:
#      x y z
#    x 1.977550 0.000000 0.000000 
#    y 0.000000 1.977550 0.000000 
#    z 0.000000 0.000000 2.147870 
# 
# From -- ./inp_files/191.got.cif
#   From: 2010.05.17/outbox.cif.g08.bks.cpg/sg175_1_cif.got.tgz:191.got - 2010.05.20 11:23:22.
