data_PCOD9581730
_publ_section_title
;
Structure prediction by ZEFSAII (Michael W. Deem and Ramdas Pophale) SiO2 
 PCOD9581730
Probable space group: P 63/M
;
_chemical_formula_sum "Si O2"
_cell_formula_units_Z 78
_cell_length_a 18.087127
_cell_length_b 18.087127
_cell_length_c 18.897600
_cell_angle_alpha 90.000000
_cell_angle_beta 90.000000
_cell_angle_gamma 120.000000
_cell_volume 5353.976491
_symmetry_space_group_name_H-M "P 63/M"
_symmetry_group_IT_number 176
_symmetry_cell_setting 'hexagonal'
loop_
_space_group_symop_operation_xyz
x,y,z
x-y,x,1/2+z
-y,x-y,z
-x,-y,1/2+z
-x+y,-x,z
y,-x+y,1/2+z
-x,-y,-z
-x+y,-x,1/2-z
y,-x+y,-z
x,y,1/2-z
x-y,x,-z
-y,x-y,1/2-z
loop_
_atom_site_type_symbol
_atom_site_label
_atom_site_fract_x
_atom_site_fract_y
_atom_site_fract_z
Si Si1 0.429508 0.407132 0.669900
Si Si2 0.824899 0.331259 0.334315
Si Si3 0.667311 0.161881 0.386964
Si Si4 0.501358 0.658442 0.450267
Si Si5 0.017278 0.606721 0.329230
Si Si6 0.749325 0.311031 0.750000
Si Si7 0.678924 0.500598 0.902994
O O1 0.416824 0.371056 0.750000
O O2 0.358938 0.434789 0.655234
O O3 0.439620 0.352881 0.607633
O O4 0.519571 0.496828 0.671159
O O5 0.807756 0.320794 0.250000
O O6 0.757801 0.245903 0.374136
O O7 0.816765 0.411658 0.360811
O O8 0.647232 0.131339 0.468061
O O9 0.656476 0.080829 0.343699
O O10 0.404743 0.584230 0.431111
O O11 0.512415 0.752008 0.444372
O O12 0.040934 0.644012 0.250000
O O13 0.082353 0.660725 0.391991
O O14 0.754858 0.403195 0.750000
O O15 0.788453 0.304625 0.822282
#
# Coordination Sequence:
#
# PCOD9581730 Si02
#       7
#    12  12  12  12  12   6  12
#     4   8  18  31  46  60  79 109 145 174 207 251
#     4  10  19  34  49  60  77 110 150 187 211 245
#     4  11  21  31  44  63  84 108 140 182 224 252
#     4  11  21  29  42  63  91 113 135 172 215 262
#     4   9  18  30  45  61  78 104 141 179 212 246
#     4  10  16  26  42  60  78 102 144 180 200 242
#     4  11  19  28  43  61  84 110 142 170 210 248
#
# _framework density 14.568611000000001
#
# number of rings (size 3 to 8) (size 9 to 14) (size 15 to 20)
#    0.154    1.846    2.308    3.846    2.154    6.769 
#    0.000    0.000    0.000    0.000    0.000    0.000 
#    0.000    0.000    0.000    0.923    0.000   11.385 
#
# Total GULP energy -434634.501972 kJ/mol
# GULP energy per Si atom -5572.237205 kJ/mol
# Density = 1.453545 g / cm^3
# Si number density = 14.568611 Si / 1000 Ang^3
#
#
#
# Elastic Constant Matrix: (Units=GPa)
#
#
# Indices 1 2 3 4 5 6 
#
# 1 45.6502 16.2849 11.1974 0.0000 0.0000 0.0000
# 2 16.2849 45.6502 11.1974 0.0000 0.0000 0.0000
# 3 11.1974 11.1974 68.9793 0.0000 0.0000 0.0000
# 4 0.0000 0.0000 0.0000 -2.5286 0.0000 0.0000
# 5 0.0000 0.0000 0.0000 0.0000 -2.5286 0.0000
# 6 0.0000 0.0000 0.0000 0.0000 0.0000 14.6827
#
#
#
# Elastic Compliance Matrix: (Units=1/GPa)
#
#
# Indices 1 2 3 4 5 6 
#
# 1 0.025603 -0.008451 -0.002784 0.000000 0.000000 0.000000
# 2 -0.008451 0.025603 -0.002784 0.000000 0.000000 0.000000
# 3 -0.002784 -0.002784 0.015401 0.000000 0.000000 0.000000
# 4 0.000000 0.000000 0.000000 -0.395470 0.000000 0.000000
# 5 0.000000 0.000000 0.000000 0.000000 -0.395470 0.000000
# 6 0.000000 0.000000 0.000000 0.000000 0.000000 0.068108
#
#
# Mechanical properties :
#
#
# Convention : Reuss Voigt Hill
#
# Bulk Modulus (GPa) = 25.92758 26.40433 26.16596
# Shear Modulus (GPa) = -8.12571 10.03175 0.95302
#
# Velocity S-wave (km/s) = -2.36424 2.62694 0.80968
# Velocity P-wave (km/s) = 3.22221 5.23111 4.34438
#
# Compressibility (1/GPa) = 0.03856896
#
# Stress axis : x y z
#
# Youngs Moduli (GPa) = 39.05755 39.05755 64.93053
#
# Poissons Ratio (x) = 0.33006 0.18079
# Poissons Ratio (y) = 0.33006 0.18079
# Poissons Ratio (z) = 0.10875 0.10875
#
# Static dielectric constant tensor:
#      x y z
#    x 1.495420 0.000000 0.000000 
#    y 0.000000 1.495420 0.000000 
#    z 0.000000 0.000000 1.499480 
# 
# From -- ./inp_files/3492.got.cif
#   From: 2010.05.17/outbox.cif.g08.bks.cpg/sg176_2_cif.got.tgz:3492.got - 2010.06.03 11:36:45.
