data_PCOD9581887
_publ_section_title
;
Structure prediction by ZEFSAII (Michael W. Deem and Ramdas Pophale) SiO2 
 PCOD9581887
Probable space group: P 63/M
;
_chemical_formula_sum "Si O2"
_cell_formula_units_Z 84
_cell_length_a 25.120182
_cell_length_b 25.120182
_cell_length_c 7.497099
_cell_angle_alpha 90.000000
_cell_angle_beta 90.000000
_cell_angle_gamma 120.000000
_cell_volume 4097.032799
_symmetry_space_group_name_H-M "P 63/M"
_symmetry_group_IT_number 176
_symmetry_cell_setting 'hexagonal'
loop_
_space_group_symop_operation_xyz
x,y,z
x-y,x,1/2+z
-y,x-y,z
-x,-y,1/2+z
-x+y,-x,z
y,-x+y,1/2+z
-x,-y,-z
-x+y,-x,1/2-z
y,-x+y,-z
x,y,1/2-z
x-y,x,-z
-y,x-y,1/2-z
loop_
_atom_site_type_symbol
_atom_site_label
_atom_site_fract_x
_atom_site_fract_y
_atom_site_fract_z
Si Si1 0.241931 0.021911 0.463784
Si Si2 0.139705 0.397069 0.535788
Si Si3 0.351589 0.348902 0.962960
Si Si4 0.568517 0.513751 0.463970
Si Si5 0.885712 0.734620 0.036236
Si Si6 0.420117 0.808163 0.531888
Si Si7 0.752180 0.472907 0.468179
O O1 0.248248 0.026931 0.250000
O O2 0.243409 0.082930 0.531220
O O3 0.299851 0.016052 0.532862
O O4 0.180587 0.957760 0.499796
O O5 0.144454 0.396683 0.750000
O O6 0.075497 0.394219 0.495361
O O7 0.133430 0.333561 0.467627
O O8 0.198811 0.458524 0.471277
O O9 0.345667 0.352036 0.750000
O O10 0.383113 0.418091 0.032902
O O11 0.500000 0.500000 0.500000
O O12 0.575390 0.515417 0.250000
O O13 0.582594 0.461235 0.528680
O O14 0.879520 0.729856 0.250000
O O15 0.419777 0.808556 0.750000
O O16 0.449964 0.767227 0.475821
O O17 0.349308 0.776579 0.475972
O O18 0.752078 0.473264 0.250000
#
# Coordination Sequence:
#
# PCOD9581887 Si02
#       7
#    12  12  12  12  12  12  12
#     4   9  18  32  50  72 101 131 163 198 237 287
#     4   9  17  29  48  71  95 124 157 197 239 279
#     4   9  18  31  47  68  96 129 158 191 236 289
#     4  10  20  32  48  69  95 125 158 195 240 292
#     4   9  18  31  49  74 100 129 162 197 239 284
#     4   9  17  27  42  66  92 121 155 196 242 281
#     4   9  16  26  42  64  91 119 153 197 240 280
#
# _framework density 20.502642999999999
#
# number of rings (size 3 to 8) (size 9 to 14) (size 15 to 20)
#    0.000    2.857    0.000    1.143    2.000    3.429 
#    0.000    0.000    0.000    1.143    0.000    0.000 
#    0.000    2.286    0.000    0.000    0.000    0.000 
#
# Total GULP energy -468902.769510 kJ/mol
# GULP energy per Si atom -5582.175827 kJ/mol
# Density = 2.045598 g / cm^3
# Si number density = 20.502643 Si / 1000 Ang^3
#
#
#
# Elastic Constant Matrix: (Units=GPa)
#
#
# Indices 1 2 3 4 5 6 
#
# 1 160.8172 107.9285 1.8842 0.0000 0.0000 0.0000
# 2 107.9285 160.8172 1.8842 0.0000 0.0000 0.0000
# 3 1.8842 1.8842 56.3647 0.0000 0.0000 0.0000
# 4 0.0000 0.0000 0.0000 9.3892 0.0000 0.0000
# 5 0.0000 0.0000 0.0000 0.0000 9.3892 0.0000
# 6 0.0000 0.0000 0.0000 0.0000 0.0000 26.4444
#
#
#
# Elastic Compliance Matrix: (Units=1/GPa)
#
#
# Indices 1 2 3 4 5 6 
#
# 1 0.011315 -0.007592 -0.000124 0.000000 0.000000 0.000000
# 2 -0.007592 0.011315 -0.000124 0.000000 0.000000 0.000000
# 3 -0.000124 -0.000124 0.017750 0.000000 0.000000 0.000000
# 4 0.000000 0.000000 0.000000 0.106506 0.000000 0.000000
# 5 0.000000 0.000000 0.000000 0.000000 0.106506 0.000000
# 6 0.000000 0.000000 0.000000 0.000000 0.000000 0.037815
#
#
# Mechanical properties :
#
#
# Convention : Reuss Voigt Hill
#
# Bulk Modulus (GPa) = 40.48978 66.82146 53.65562
# Shear Modulus (GPa) = 15.86686 26.79802 21.33244
#
# Velocity S-wave (km/s) = 2.78491 3.61924 3.22914
# Velocity P-wave (km/s) = 5.48930 7.08008 6.33482
#
# Compressibility (1/GPa) = 0.02469759
#
# Stress axis : x y z
#
# Youngs Moduli (GPa) = 88.37692 88.37692 56.33829
#
# Poissons Ratio (x) = 0.67100 0.00701
# Poissons Ratio (y) = 0.67100 0.00701
# Poissons Ratio (z) = 0.01100 0.01100
#
# Static dielectric constant tensor:
#      x y z
#    x 1.708360 0.000000 0.000000 
#    y 0.000000 1.708360 0.000000 
#    z 0.000000 0.000000 1.795750 
# 
# From -- ./inp_files/2037.got.cif
#   From: 2010.05.17/outbox.cif.g08.bks.cpg/sg176_2_cif.got.tgz:2037.got - 2010.06.03 11:36:45.
