data_PCOD9581930
_publ_section_title
;
Structure prediction by ZEFSAII (Michael W. Deem and Ramdas Pophale) SiO2 
 PCOD9581930
Probable space group: P 63/M
;
_chemical_formula_sum "Si O2"
_cell_formula_units_Z 60
_cell_length_a 19.892444
_cell_length_b 19.892444
_cell_length_c 10.258339
_cell_angle_alpha 90.000000
_cell_angle_beta 90.000000
_cell_angle_gamma 120.000000
_cell_volume 3515.474619
_symmetry_space_group_name_H-M "P 63/M"
_symmetry_group_IT_number 176
_symmetry_cell_setting 'hexagonal'
loop_
_space_group_symop_operation_xyz
x,y,z
x-y,x,1/2+z
-y,x-y,z
-x,-y,1/2+z
-x+y,-x,z
y,-x+y,1/2+z
-x,-y,-z
-x+y,-x,1/2-z
y,-x+y,-z
x,y,1/2-z
x-y,x,-z
-y,x-y,1/2-z
loop_
_atom_site_type_symbol
_atom_site_label
_atom_site_fract_x
_atom_site_fract_y
_atom_site_fract_z
Si Si1 0.576877 0.708830 0.595658
Si Si2 0.258517 0.255126 0.999630
Si Si3 0.540123 0.467516 0.096014
Si Si4 0.836320 0.842774 0.750000
Si Si5 0.414656 0.133187 0.095397
Si Si6 0.008179 0.165073 0.250000
O O1 0.596515 0.712659 0.750000
O O2 0.652472 0.723473 0.516503
O O3 0.502949 0.624627 0.572705
O O4 0.561004 0.778595 0.568026
O O5 0.210213 0.206913 0.124443
O O6 0.261091 0.336792 0.981935
O O7 0.216124 0.201732 0.875535
O O8 0.528837 0.478688 0.250000
O O9 0.631879 0.516013 0.070245
O O10 0.500000 0.500000 0.000000
O O11 0.922151 0.853829 0.750000
O O12 0.838939 0.925049 0.750000
O O13 0.395385 0.118675 0.250000
#
# Coordination Sequence:
#
# PCOD9581930 Si02
#       6
#    12  12  12   6  12   6
#     4  10  20  37  59  84 115 147 183 231 277 327
#     4  12  22  37  59  82 110 144 190 230 278 326
#     4  10  20  36  58  86 114 146 184 228 280 332
#     4  12  25  40  56  79 110 148 188 234 282 331
#     4  10  20  37  59  84 115 147 183 231 277 327
#     4  12  25  40  56  79 110 148 188 234 282 331
#
# _framework density 17.067398000000001
#
# number of rings (size 3 to 8) (size 9 to 14) (size 15 to 20)
#    0.000    1.200    4.000    3.800    0.000    0.000 
#    1.200    2.000    0.000    0.000    0.000    0.000 
#    0.000    0.000    0.000    0.000    0.000    0.000 
#
# Total GULP energy -335074.718859 kJ/mol
# GULP energy per Si atom -5584.578648 kJ/mol
# Density = 1.702855 g / cm^3
# Si number density = 17.067398 Si / 1000 Ang^3
#
#
#
# Elastic Constant Matrix: (Units=GPa)
#
#
# Indices 1 2 3 4 5 6 
#
# 1 54.6252 -7.3871 15.1258 0.0000 0.0000 0.0000
# 2 -7.3871 54.6252 15.1258 0.0000 0.0000 0.0000
# 3 15.1258 15.1258 71.7741 0.0000 0.0000 0.0000
# 4 0.0000 0.0000 0.0000 21.5301 0.0000 0.0000
# 5 0.0000 0.0000 0.0000 0.0000 21.5301 0.0000
# 6 0.0000 0.0000 0.0000 0.0000 0.0000 31.0062
#
#
#
# Elastic Compliance Matrix: (Units=1/GPa)
#
#
# Indices 1 2 3 4 5 6 
#
# 1 0.020299 0.004173 -0.005157 0.000000 0.000000 0.000000
# 2 0.004173 0.020299 -0.005157 0.000000 0.000000 0.000000
# 3 -0.005157 -0.005157 0.016106 0.000000 0.000000 0.000000
# 4 0.000000 0.000000 0.000000 0.046447 0.000000 0.000000
# 5 0.000000 0.000000 0.000000 0.000000 0.046447 0.000000
# 6 0.000000 0.000000 0.000000 0.000000 0.000000 0.032252
#
#
# Mechanical properties :
#
#
# Convention : Reuss Voigt Hill
#
# Bulk Modulus (GPa) = 22.51171 25.19485 23.85328
# Shear Modulus (GPa) = 23.93040 25.35727 24.64383
#
# Velocity S-wave (km/s) = 3.74854 3.85868 3.80401
# Velocity P-wave (km/s) = 5.65278 5.88613 5.77064
#
# Compressibility (1/GPa) = 0.04442133
#
# Stress axis : x y z
#
# Youngs Moduli (GPa) = 49.26362 49.26362 62.08749
#
# Poissons Ratio (x) = -0.20558 0.32020
# Poissons Ratio (y) = -0.20558 0.32020
# Poissons Ratio (z) = 0.25407 0.25407
#
# Static dielectric constant tensor:
#      x y z
#    x 1.559480 0.000000 0.000000 
#    y 0.000000 1.559480 0.000000 
#    z 0.000000 0.000000 1.576450 
# 
# From -- ./inp_files/1918.got.cif
#   From: 2010.05.17/outbox.cif.g08.bks.cpg/sg176_1_cif.got.tgz:1918.got - 2010.06.03 11:36:45.
