data_PCOD9581152
_publ_section_title
;
Structure prediction by ZEFSAII (Michael W. Deem and Ramdas Pophale) SiO2 
 PCOD9581152
Probable space group: P -6
;
_chemical_formula_sum "Si O2"
_cell_formula_units_Z 32
_cell_length_a 15.000932
_cell_length_b 15.000932
_cell_length_c 8.114618
_cell_angle_alpha 90.000000
_cell_angle_beta 90.000000
_cell_angle_gamma 120.000000
_cell_volume 1581.376193
_symmetry_space_group_name_H-M "P -6"
_symmetry_group_IT_number 174
_symmetry_cell_setting 'hexagonal'
loop_
_space_group_symop_operation_xyz
x,y,z
-x+y,-x,-z
-y,x-y,z
x,y,-z
-x+y,-x,z
-y,x-y,-z
loop_
_atom_site_type_symbol
_atom_site_label
_atom_site_fract_x
_atom_site_fract_y
_atom_site_fract_z
Si Si1 0.128518 0.458762 0.196365
Si Si2 0.765227 0.838355 0.699485
Si Si3 0.847576 0.069253 0.301650
Si Si4 0.730756 0.176137 0.198093
Si Si5 0.499704 0.097886 0.797977
Si Si6 0.333335 0.666668 0.694450
O O1 0.124223 0.352552 0.245088
O O2 0.230465 0.562334 0.250566
O O3 0.019378 0.444883 0.258420
O O4 0.126199 0.462725 0.000000
O O5 0.764916 0.837030 0.500000
O O6 0.836508 0.792421 0.759349
O O7 0.820787 0.956706 0.754895
O O8 0.853763 0.069709 0.500000
O O9 0.757808 0.090194 0.248813
O O10 0.617406 0.145416 0.255862
O O11 0.823269 0.285743 0.258033
O O12 0.730017 0.182665 0.000000
O O13 0.497826 0.096426 0.000000
O O14 0.333334 0.666668 0.500000
#
# Coordination Sequence:
#
# PCOD9581152 Si02
#       6
#     6   6   6   6   6   2
#     4  11  23  42  64  92 123 158 205 260 308 359
#     4  10  21  39  61  87 122 164 203 248 304 368
#     4  10  21  37  58  86 118 156 200 243 294 356
#     4  10  19  36  59  87 117 153 194 235 292 359
#     4   9  19  35  60  89 120 153 193 242 295 357
#     4  12  28  47  64  87 118 164 211 252 307 371
#
# _framework density 20.235538999999999
#
# number of rings (size 3 to 8) (size 9 to 14) (size 15 to 20)
#    0.000    1.875    1.875    1.875    2.625    3.750 
#    0.000    1.875    0.000    2.250    0.000    0.000 
#    0.000    0.000    0.000    0.000    0.000    0.000 
#
# Total GULP energy -178685.211945 kJ/mol
# GULP energy per Si atom -5583.912873 kJ/mol
# Density = 2.018948 g / cm^3
# Si number density = 20.235539 Si / 1000 Ang^3
#
#
#
# Elastic Constant Matrix: (Units=GPa)
#
#
# Indices 1 2 3 4 5 6 
#
# 1 131.4743 59.7509 15.4024 0.0000 0.0000 -0.0001
# 2 59.7509 131.4739 15.4021 0.0000 0.0000 -0.0002
# 3 15.4024 15.4021 21.6154 0.0000 0.0000 -0.0001
# 4 0.0000 0.0000 0.0000 -4.4252 -0.0002 0.0000
# 5 0.0000 0.0000 0.0000 -0.0002 -4.4254 0.0000
# 6 -0.0001 -0.0002 -0.0001 0.0000 0.0000 35.8612
#
#
#
# Elastic Compliance Matrix: (Units=1/GPa)
#
#
# Indices 1 2 3 4 5 6 
#
# 1 0.009925 -0.004017 -0.004210 0.000000 0.000000 0.000000
# 2 -0.004017 0.009925 -0.004209 0.000000 0.000000 0.000000
# 3 -0.004210 -0.004209 0.052262 0.000000 0.000000 0.000000
# 4 0.000000 0.000000 0.000000 -0.225979 0.000011 0.000000
# 5 0.000000 0.000000 0.000000 0.000011 -0.225968 0.000000
# 6 0.000000 0.000000 0.000000 0.000000 0.000000 0.027885
#
#
# Mechanical properties :
#
#
# Convention : Reuss Voigt Hill
#
# Bulk Modulus (GPa) = 21.16871 51.74159 36.45515
# Shear Modulus (GPa) = -16.06013 18.33600 1.13793
#
# Velocity S-wave (km/s) = -2.82025 3.01346 0.75071
# Velocity P-wave (km/s) = 0.34819 6.14273 4.33658
#
# Compressibility (1/GPa) = 0.04723953
#
# Stress axis : x y z
#
# Youngs Moduli (GPa) = 100.75546 100.75552 19.13424
#
# Poissons Ratio (x) = 0.40478 0.08055
# Poissons Ratio (y) = 0.40478 0.08054
# Poissons Ratio (z) = 0.42414 0.42412
#
# Static dielectric constant tensor:
#      x y z
#    x 1.717980 0.000000 0.000000 
#    y 0.000000 1.717980 0.000000 
#    z 0.000000 0.000000 1.721380 
# 
# From -- ./inp_files/305.got.cif
#   From: 2010.05.17/outbox.cif.g08.bks.cpg/sg174_cif.got.tgz:305.got - 2010.05.20 11:22:48.
