data_PCOD9581344
_publ_section_title
;
Structure prediction by ZEFSAII (Michael W. Deem and Ramdas Pophale) SiO2 
 PCOD9581344
Probable space group: P 6/M
;
_chemical_formula_sum "Si O2"
_cell_formula_units_Z 64
_cell_length_a 14.034503
_cell_length_b 14.034503
_cell_length_c 18.402653
_cell_angle_alpha 90.000000
_cell_angle_beta 90.000000
_cell_angle_gamma 120.000000
_cell_volume 3139.099952
_symmetry_space_group_name_H-M "P 6/M"
_symmetry_group_IT_number 175
_symmetry_cell_setting 'hexagonal'
loop_
_space_group_symop_operation_xyz
x,y,z
x-y,x,z
-y,x-y,z
-x,-y,z
-x+y,-x,z
y,-x+y,z
-x,-y,-z
-x+y,-x,-z
y,-x+y,-z
x,y,-z
x-y,x,-z
-y,x-y,-z
loop_
_atom_site_type_symbol
_atom_site_label
_atom_site_fract_x
_atom_site_fract_y
_atom_site_fract_z
Si Si1 0.333335 0.666668 0.086062
Si Si2 0.253454 0.191232 0.741686
Si Si3 0.454499 0.796263 0.577918
Si Si4 0.732652 0.203093 0.189804
Si Si5 0.939768 0.747007 0.420879
Si Si6 0.599971 0.480917 0.271193
O O1 0.451906 0.692642 0.119068
O O2 0.333334 0.666668 0.000000
O O3 0.150596 0.211428 0.747585
O O4 0.350876 0.253544 0.800610
O O5 0.304406 0.230547 0.659734
O O6 0.326024 0.764657 0.580279
O O7 0.502585 0.847451 0.500000
O O8 0.511661 0.865419 0.647918
O O9 0.647426 0.196895 0.251760
O O10 0.848864 0.304108 0.214033
O O11 0.850881 0.787939 0.421108
O O12 0.925382 0.689412 0.500000
O O13 0.500000 0.500000 0.260408
#
# Coordination Sequence:
#
# PCOD9581344 Si02
#       6
#     4  12  12  12  12  12
#     4   9  21  42  72  96 109 131 160 204 282 354
#     4  10  19  32  51  78 115 160 202 237 273 316
#     4   8  14  28  47  64  96 138 181 236 285 317
#     4  10  20  36  56  83 117 133 168 228 272 323
#     4   8  13  22  38  62  95 140 195 248 285 306
#     4  11  19  31  53  76 101 143 185 220 284 338
#
# _framework density 20.388010000000001
#
# number of rings (size 3 to 8) (size 9 to 14) (size 15 to 20)
#    0.375    2.250    1.875    1.875    0.000    2.625 
#    0.000    1.875    0.000   24.750    0.000    0.000 
#    0.000    1.500    0.000    0.000    0.000    0.000 
#
# Total GULP energy -356594.879338 kJ/mol
# GULP energy per Si atom -5571.794990 kJ/mol
# Density = 2.034161 g / cm^3
# Si number density = 20.388010 Si / 1000 Ang^3
#
#
#
# Elastic Constant Matrix: (Units=GPa)
#
#
# Indices 1 2 3 4 5 6 
#
# 1 76.1034 25.6682 28.1120 0.0000 0.0000 -0.0002
# 2 25.6682 76.1030 28.1117 0.0000 0.0000 -0.0001
# 3 28.1120 28.1117 128.6955 0.0000 0.0000 -0.0002
# 4 0.0000 0.0000 0.0000 8.9506 0.0000 0.0000
# 5 0.0000 0.0000 0.0000 0.0000 8.9508 0.0000
# 6 -0.0002 -0.0001 -0.0002 0.0000 0.0000 25.2176
#
#
#
# Elastic Compliance Matrix: (Units=1/GPa)
#
#
# Indices 1 2 3 4 5 6 
#
# 1 0.015501 -0.004327 -0.002441 0.000000 0.000000 0.000000
# 2 -0.004327 0.015501 -0.002441 0.000000 0.000000 0.000000
# 3 -0.002441 -0.002441 0.008837 0.000000 0.000000 0.000000
# 4 0.000000 0.000000 0.000000 0.111724 0.000001 0.000000
# 5 0.000000 0.000000 0.000000 0.000001 0.111722 0.000000
# 6 0.000000 0.000000 0.000000 0.000000 0.000000 0.039655
#
#
# Mechanical properties :
#
#
# Convention : Reuss Voigt Hill
#
# Bulk Modulus (GPa) = 46.68128 49.40953 48.04541
# Shear Modulus (GPa) = 15.22087 21.89115 18.55601
#
# Velocity S-wave (km/s) = 2.73529 3.28033 3.02013
# Velocity P-wave (km/s) = 5.73776 6.21568 5.98149
#
# Compressibility (1/GPa) = 0.02142186
#
# Stress axis : x y z
#
# Youngs Moduli (GPa) = 64.51222 64.51199 113.16513
#
# Poissons Ratio (x) = 0.27911 0.27623
# Poissons Ratio (y) = 0.27912 0.27622
# Poissons Ratio (z) = 0.15747 0.15747
#
# Static dielectric constant tensor:
#      x y z
#    x 1.797770 0.000000 0.000000 
#    y 0.000000 1.797770 0.000000 
#    z 0.000000 0.000000 1.718930 
# 
# From -- ./inp_files/2824.got.cif
#   From: 2010.05.17/outbox.cif.g08.bks.cpg/sg175_2_cif.got.tgz:2824.got - 2010.05.20 11:23:22.
