data_PCOD9581182
_publ_section_title
;
Structure prediction by ZEFSAII (Michael W. Deem and Ramdas Pophale) SiO2 
 PCOD9581182
Probable space group: P -6
;
_chemical_formula_sum "Si O2"
_cell_formula_units_Z 29
_cell_length_a 14.271311
_cell_length_b 14.271311
_cell_length_c 7.568265
_cell_angle_alpha 90.000000
_cell_angle_beta 90.000000
_cell_angle_gamma 120.000000
_cell_volume 1334.918349
_symmetry_space_group_name_H-M "P -6"
_symmetry_group_IT_number 174
_symmetry_cell_setting 'hexagonal'
loop_
_space_group_symop_operation_xyz
x,y,z
-x+y,-x,-z
-y,x-y,z
x,y,-z
-x+y,-x,z
-y,x-y,-z
loop_
_atom_site_type_symbol
_atom_site_label
_atom_site_fract_x
_atom_site_fract_y
_atom_site_fract_z
Si Si1 0.666668 0.333335 0.788390
Si Si2 0.200286 0.893346 0.199812
Si Si3 0.563083 0.562150 0.287759
Si Si4 0.342735 0.353430 0.284483
Si Si5 0.113655 0.981852 0.500000
Si Si6 0.793156 0.221847 0.295119
O O1 0.550749 0.306933 0.716888
O O2 0.666667 0.333334 0.000000
O O3 0.109944 0.768970 0.223196
O O4 0.171224 0.963449 0.332647
O O5 0.316821 0.907686 0.245930
O O6 0.201239 0.928290 0.000000
O O7 0.562083 0.549584 0.500000
O O8 0.449157 0.464163 0.224808
O O9 0.670603 0.563297 0.215870
O O10 0.342844 0.353063 0.500000
O O11 0.354554 0.251811 0.221288
O O12 0.984228 0.892013 0.500000
O O13 0.820101 0.218346 0.500000
#
# Coordination Sequence:
#
# PCOD9581182 Si02
#       6
#     2   6   6   6   3   6
#     4  12  22  32  49  90 139 164 193 252 304 377
#     4  12  26  44  70 100 136 179 231 286 352 412
#     4  10  21  40  69  97 130 177 223 277 336 402
#     4  10  21  40  69  97 130 177 223 277 336 402
#     4  10  26  48  72  94 138 178 228 290 332 412
#     4  10  20  37  65  92 125 167 211 252 319 394
#
# _framework density 21.724174000000001
#
# number of rings (size 3 to 8) (size 9 to 14) (size 15 to 20)
#    0.207    1.241    4.138    0.621    2.897    3.310 
#    1.241    0.000    0.000    0.000    0.000    0.000 
#    0.000    0.000    0.000    0.000    0.000    0.000 
#
# Total GULP energy -162077.760761 kJ/mol
# GULP energy per Si atom -5588.888302 kJ/mol
# Density = 2.167473 g / cm^3
# Si number density = 21.724174 Si / 1000 Ang^3
#
#
#
# Elastic Constant Matrix: (Units=GPa)
#
#
# Indices 1 2 3 4 5 6 
#
# 1 82.5188 11.3854 7.8654 0.0000 0.0000 0.0000
# 2 11.3854 82.5189 7.8661 0.0000 0.0000 0.0002
# 3 7.8654 7.8661 105.1377 0.0000 0.0000 -0.0001
# 4 0.0000 0.0000 0.0000 -30.4176 -0.0007 0.0000
# 5 0.0000 0.0000 0.0000 -0.0007 -30.4172 0.0000
# 6 0.0000 0.0002 -0.0001 0.0000 0.0000 35.5674
#
#
#
# Elastic Compliance Matrix: (Units=1/GPa)
#
#
# Indices 1 2 3 4 5 6 
#
# 1 0.012421 -0.001637 -0.000807 0.000000 0.000000 0.000000
# 2 -0.001637 0.012421 -0.000807 0.000000 0.000000 0.000000
# 3 -0.000807 -0.000807 0.009632 0.000000 0.000000 0.000000
# 4 0.000000 0.000000 0.000000 -0.032876 0.000001 0.000000
# 5 0.000000 0.000000 0.000000 0.000001 -0.032876 0.000000
# 6 0.000000 0.000000 0.000000 0.000000 0.000000 0.028116
#
#
# Mechanical properties :
#
#
# Convention : Reuss Voigt Hill
#
# Bulk Modulus (GPa) = 35.74822 36.04546 35.89684
# Shear Modulus (GPa) = 394.82887 11.15043 202.98965
#
# Velocity S-wave (km/s) = 13.49596 2.26801 9.67690
# Velocity P-wave (km/s) = 16.10421 4.84632 11.89186
#
# Compressibility (1/GPa) = 0.02797342
#
# Stress axis : x y z
#
# Youngs Moduli (GPa) = 80.50757 80.50757 103.81998
#
# Poissons Ratio (x) = 0.13178 0.08376
# Poissons Ratio (y) = 0.13178 0.08377
# Poissons Ratio (z) = 0.06495 0.06496
#
# Static dielectric constant tensor:
#      x y z
#    x 1.803650 0.000000 0.000000 
#    y 0.000000 1.803650 0.000000 
#    z 0.000000 0.000000 1.780520 
# 
# From -- ./inp_files/271.got.cif
#   From: 2010.05.17/outbox.cif.g08.bks.cpg/sg174_cif.got.tgz:271.got - 2010.05.20 11:22:48.
