data_PCOD9581686
_publ_section_title
;
Structure prediction by ZEFSAII (Michael W. Deem and Ramdas Pophale) SiO2 
 PCOD9581686
Probable space group: P 6/M
;
_chemical_formula_sum "Si O2"
_cell_formula_units_Z 76
_cell_length_a 18.693892
_cell_length_b 18.693892
_cell_length_c 13.016168
_cell_angle_alpha 90.000000
_cell_angle_beta 90.000000
_cell_angle_gamma 120.000000
_cell_volume 3939.247207
_symmetry_space_group_name_H-M "P 6/M"
_symmetry_group_IT_number 175
_symmetry_cell_setting 'hexagonal'
loop_
_space_group_symop_operation_xyz
x,y,z
x-y,x,z
-y,x-y,z
-x,-y,z
-x+y,-x,z
y,-x+y,z
-x,-y,-z
-x+y,-x,-z
y,-x+y,-z
x,y,-z
x-y,x,-z
-y,x-y,-z
loop_
_atom_site_type_symbol
_atom_site_label
_atom_site_fract_x
_atom_site_fract_y
_atom_site_fract_z
Si Si1 0.864315 0.818686 0.124988
Si Si2 0.666668 0.333334 0.875261
Si Si3 0.479450 0.233272 0.387185
Si Si4 0.258074 0.783981 0.833307
Si Si5 0.543006 0.590309 0.815727
Si Si6 0.421328 0.861249 0.386260
Si Si7 0.358570 0.074906 0.116424
O O1 0.840493 0.885869 0.160490
O O2 0.793794 0.727051 0.151409
O O3 0.867388 0.821465 0.000000
O O4 0.572057 0.290894 0.837074
O O5 0.666667 0.333334 0.000000
O O6 0.438556 0.216681 0.500000
O O7 0.435503 0.232658 0.281881
O O8 0.549503 0.329969 0.388707
O O9 0.515364 0.172065 0.373166
O O10 0.334873 0.871286 0.867995
O O11 0.171050 0.744381 0.889117
O O12 0.500000 0.500000 0.867561
O O13 0.495202 0.577407 0.707035
O O14 0.638533 0.616722 0.811003
O O15 0.433704 0.899828 0.500000
O O16 0.347572 0.040344 0.000000
#
# Coordination Sequence:
#
# PCOD9581686 Si02
#       7
#    12   4  12  12  12  12  12
#     4   9  17  31  53  79 102 125 159 208 268 330
#     4  12  24  36  52  74 103 147 198 240 274 308
#     4   9  16  29  51  77 104 135 176 227 279 328
#     4  11  22  38  57  78 108 144 188 236 280 334
#     4  11  23  37  54  79 109 142 184 231 281 333
#     4   9  17  30  52  81 111 144 182 228 283 336
#     4  11  23  38  54  73 103 145 187 225 271 330
#
# _framework density 19.293026999999999
#
# number of rings (size 3 to 8) (size 9 to 14) (size 15 to 20)
#    0.000    1.895    0.000    5.684    0.000    5.053 
#    0.000    0.789    0.000    0.000    0.000    0.000 
#    0.000    0.000    0.000    0.947    0.000   29.211 
#
# Total GULP energy -423555.223035 kJ/mol
# GULP energy per Si atom -5573.095040 kJ/mol
# Density = 1.924912 g / cm^3
# Si number density = 19.293027 Si / 1000 Ang^3
#
#
#
# Elastic Constant Matrix: (Units=GPa)
#
#
# Indices 1 2 3 4 5 6 
#
# 1 137.5350 66.3205 6.3584 0.0000 0.0000 -0.0002
# 2 66.3205 137.5354 6.3586 0.0000 0.0000 0.0000
# 3 6.3584 6.3586 70.9901 0.0000 0.0000 0.0001
# 4 0.0000 0.0000 0.0000 12.2200 -0.0001 0.0000
# 5 0.0000 0.0000 0.0000 -0.0001 12.2198 0.0000
# 6 -0.0002 0.0000 0.0001 0.0000 0.0000 35.6073
#
#
#
# Elastic Compliance Matrix: (Units=1/GPa)
#
#
# Indices 1 2 3 4 5 6 
#
# 1 0.009488 -0.004555 -0.000442 0.000000 0.000000 0.000000
# 2 -0.004555 0.009488 -0.000442 0.000000 0.000000 0.000000
# 3 -0.000442 -0.000442 0.014166 0.000000 0.000000 0.000000
# 4 0.000000 0.000000 0.000000 0.081833 0.000000 0.000000
# 5 0.000000 0.000000 0.000000 0.000000 0.081834 0.000000
# 6 0.000000 0.000000 0.000000 0.000000 0.000000 0.028084
#
#
# Mechanical properties :
#
#
# Convention : Reuss Voigt Hill
#
# Bulk Modulus (GPa) = 44.91507 56.01506 50.46506
# Shear Modulus (GPa) = 20.56005 29.81096 25.18550
#
# Velocity S-wave (km/s) = 3.26801 3.93513 3.61698
# Velocity P-wave (km/s) = 6.12950 7.05293 6.60737
#
# Compressibility (1/GPa) = 0.02226424
#
# Stress axis : x y z
#
# Youngs Moduli (GPa) = 105.40149 105.40180 70.59344
#
# Poissons Ratio (x) = 0.48006 0.03119
# Poissons Ratio (y) = 0.48005 0.03119
# Poissons Ratio (z) = 0.04657 0.04657
#
# Static dielectric constant tensor:
#      x y z
#    x 1.676890 0.000000 0.000000 
#    y 0.000000 1.676890 0.000000 
#    z 0.000000 0.000000 1.751760 
# 
# From -- ./inp_files/2552.got.cif
#   From: 2010.05.17/outbox.cif.g08.bks.cpg/sg175_2_cif.got.tgz:2552.got - 2010.05.20 11:23:22.
