data_PCOD9581162
_publ_section_title
;
Structure prediction by ZEFSAII (Michael W. Deem and Ramdas Pophale) SiO2 
 PCOD9581162
Probable space group: P -6
;
_chemical_formula_sum "Si O2"
_cell_formula_units_Z 18
_cell_length_a 6.834915
_cell_length_b 6.834915
_cell_length_c 16.632814
_cell_angle_alpha 90.000000
_cell_angle_beta 90.000000
_cell_angle_gamma 120.000000
_cell_volume 672.918702
_symmetry_space_group_name_H-M "P -6"
_symmetry_group_IT_number 174
_symmetry_cell_setting 'hexagonal'
loop_
_space_group_symop_operation_xyz
x,y,z
-x+y,-x,-z
-y,x-y,z
x,y,-z
-x+y,-x,z
-y,x-y,-z
loop_
_atom_site_type_symbol
_atom_site_label
_atom_site_fract_x
_atom_site_fract_y
_atom_site_fract_z
Si Si1 0.273556 0.383341 0.673614
Si Si2 0.616001 0.895794 0.500000
Si Si3 0.118470 0.736176 0.000000
Si Si4 0.880620 0.617370 0.162796
O O1 0.515056 0.619882 0.674886
O O2 0.259629 0.274131 0.586582
O O3 0.261914 0.253178 0.754001
O O4 0.517433 0.623623 0.500000
O O5 0.101437 0.488881 0.000000
O O6 0.001197 0.745452 0.918259
O O7 0.611925 0.510980 0.161973
#
# Coordination Sequence:
#
# PCOD9581162 Si02
#       4
#     6   3   3   6
#     4   8  14  28  52  70  90 128 174 194 214 272
#     4   6  10  22  44  74  90 114 168 216 214 230
#     4  10  20  34  58  70  78 120 174 194 214 282
#     4  10  20  30  46  72 105 122 138 192 259 284
#
# _framework density 26.749143
#
# number of rings (size 3 to 8) (size 9 to 14) (size 15 to 20)
#    2.000    1.333    0.000    3.000    0.000    0.000 
#    0.000    1.667    0.000   18.667    0.000    0.000 
#    0.000    0.000    0.000    0.000    0.000    0.000 
#
# Total GULP energy -100449.398357 kJ/mol
# GULP energy per Si atom -5580.522131 kJ/mol
# Density = 2.668826 g / cm^3
# Si number density = 26.749143 Si / 1000 Ang^3
#
#
#
# Elastic Constant Matrix: (Units=GPa)
#
#
# Indices 1 2 3 4 5 6 
#
# 1 105.4010 22.0692 59.8362 0.0000 0.0000 0.0000
# 2 22.0692 105.4010 59.8362 0.0000 0.0000 0.0000
# 3 59.8362 59.8362 350.5705 0.0000 0.0000 0.0000
# 4 0.0000 0.0000 0.0000 -17.0340 0.0000 0.0000
# 5 0.0000 0.0000 0.0000 0.0000 -17.0340 0.0000
# 6 0.0000 0.0000 0.0000 0.0000 0.0000 41.6659
#
#
#
# Elastic Compliance Matrix: (Units=1/GPa)
#
#
# Indices 1 2 3 4 5 6 
#
# 1 0.010671 -0.001329 -0.001595 0.000000 0.000000 0.000000
# 2 -0.001329 0.010671 -0.001595 0.000000 0.000000 0.000000
# 3 -0.001595 -0.001595 0.003397 0.000000 0.000000 0.000000
# 4 0.000000 0.000000 0.000000 -0.058706 0.000000 0.000000
# 5 0.000000 0.000000 0.000000 0.000000 -0.058706 0.000000
# 6 0.000000 0.000000 0.000000 0.000000 0.000000 0.024000
#
#
# Mechanical properties :
#
#
# Convention : Reuss Voigt Hill
#
# Bulk Modulus (GPa) = 63.68355 93.87289 78.77822
# Shear Modulus (GPa) = -91.90770 29.49498 -31.20636
#
# Velocity S-wave (km/s) = -5.86802 3.32422 -3.41930
# Velocity P-wave (km/s) = 4.69598 7.06427 3.73173
#
# Compressibility (1/GPa) = 0.01570264
#
# Stress axis : x y z
#
# Youngs Moduli (GPa) = 93.71128 93.71128 294.39471
#
# Poissons Ratio (x) = 0.12456 0.46941
# Poissons Ratio (y) = 0.12456 0.46941
# Poissons Ratio (z) = 0.14942 0.14942
#
# Static dielectric constant tensor:
#      x y z
#    x 2.069260 0.000000 0.000000 
#    y 0.000000 2.069260 0.000000 
#    z 0.000000 0.000000 2.021500 
# 
# From -- ./inp_files/956.got.cif
#   From: 2010.05.17/outbox.cif.g08.bks.cpg/sg174_cif.got.tgz:956.got - 2010.05.20 11:22:48.
