data_PCOD9581502
_publ_section_title
;
Structure prediction by ZEFSAII (Michael W. Deem and Ramdas Pophale) SiO2 
 PCOD9581502
Probable space group: P 6/M
;
_chemical_formula_sum "Si O2"
_cell_formula_units_Z 76
_cell_length_a 18.291581
_cell_length_b 18.291581
_cell_length_c 13.863276
_cell_angle_alpha 90.000000
_cell_angle_beta 90.000000
_cell_angle_gamma 120.000000
_cell_volume 4016.973719
_symmetry_space_group_name_H-M "P 6/M"
_symmetry_group_IT_number 175
_symmetry_cell_setting 'hexagonal'
loop_
_space_group_symop_operation_xyz
x,y,z
x-y,x,z
-y,x-y,z
-x,-y,z
-x+y,-x,z
y,-x+y,z
-x,-y,-z
-x+y,-x,-z
y,-x+y,-z
x,y,-z
x-y,x,-z
-y,x-y,-z
loop_
_atom_site_type_symbol
_atom_site_label
_atom_site_fract_x
_atom_site_fract_y
_atom_site_fract_z
Si Si1 0.834303 0.004879 0.616150
Si Si2 0.137837 0.686768 0.763646
Si Si3 0.795158 0.517728 0.384067
Si Si4 0.702091 0.039948 0.716565
Si Si5 0.539412 0.437863 0.891308
Si Si6 0.333335 0.666667 0.615775
Si Si7 0.242683 0.851335 0.888916
O O1 0.834641 0.004718 0.500000
O O2 0.754476 0.010272 0.651797
O O3 0.919658 0.087957 0.648593
O O4 0.188794 0.729911 0.666192
O O5 0.144067 0.609946 0.809887
O O6 0.178176 0.760961 0.843642
O O7 0.040262 0.654318 0.744074
O O8 0.798844 0.526882 0.500000
O O9 0.886117 0.580114 0.337715
O O10 0.751975 0.418680 0.357397
O O11 0.754465 0.080246 0.814646
O O12 0.500000 0.500000 0.884216
O O13 0.469389 0.339551 0.883756
O O14 0.576226 0.451223 0.000000
O O15 0.333334 0.666668 0.500000
O O16 0.224119 0.858598 0.000000
#
# Coordination Sequence:
#
# PCOD9581502 Si02
#       7
#    12  12  12  12  12   4  12
#     4  10  20  36  60  88 121 157 198 250 309 374
#     4  11  23  36  63  90 121 158 207 258 310 368
#     4  10  23  40  60  86 119 162 207 255 315 373
#     4  11  22  37  57  90 123 159 200 255 310 371
#     4  10  20  38  61  85 122 162 199 252 315 373
#     4   9  21  42  60  78 112 158 205 258 306 363
#     4  10  22  39  58  86 119 156 200 248 306 369
#
# _framework density 18.919716000000001
#
# number of rings (size 3 to 8) (size 9 to 14) (size 15 to 20)
#    0.000    1.737    1.579    3.000    4.421    3.789 
#    0.947    0.000    0.000    3.316    0.000    0.000 
#    0.000    2.526    0.000    0.000    0.000    0.000 
#
# Total GULP energy -424063.522172 kJ/mol
# GULP energy per Si atom -5579.783186 kJ/mol
# Density = 1.887665 g / cm^3
# Si number density = 18.919716 Si / 1000 Ang^3
#
#
#
# Elastic Constant Matrix: (Units=GPa)
#
#
# Indices 1 2 3 4 5 6 
#
# 1 57.9990 7.4816 28.2470 0.0000 0.0000 0.0004
# 2 7.4816 57.9986 28.2470 0.0000 0.0000 0.0001
# 3 28.2470 28.2470 105.9186 0.0000 0.0000 -0.0001
# 4 0.0000 0.0000 0.0000 21.4324 0.0000 0.0000
# 5 0.0000 0.0000 0.0000 0.0000 21.4324 0.0000
# 6 0.0004 0.0001 -0.0001 0.0000 0.0000 25.2589
#
#
#
# Elastic Compliance Matrix: (Units=1/GPa)
#
#
# Indices 1 2 3 4 5 6 
#
# 1 0.019815 0.000020 -0.005290 0.000000 0.000000 0.000000
# 2 0.000020 0.019816 -0.005290 0.000000 0.000000 0.000000
# 3 -0.005290 -0.005290 0.012263 0.000000 0.000000 0.000000
# 4 0.000000 0.000000 0.000000 0.046658 0.000000 0.000000
# 5 0.000000 0.000000 0.000000 0.000000 0.046658 0.000000
# 6 0.000000 0.000000 0.000000 0.000000 0.000000 0.039590
#
#
# Mechanical properties :
#
#
# Convention : Reuss Voigt Hill
#
# Bulk Modulus (GPa) = 32.49448 38.87414 35.68431
# Shear Modulus (GPa) = 23.12916 24.15413 23.64164
#
# Velocity S-wave (km/s) = 3.50021 3.57692 3.53877
# Velocity P-wave (km/s) = 5.79202 6.13601 5.96649
#
# Compressibility (1/GPa) = 0.03077446
#
# Stress axis : x y z
#
# Youngs Moduli (GPa) = 50.46588 50.46549 81.54817
#
# Poissons Ratio (x) = -0.00102 0.43138
# Poissons Ratio (y) = -0.00102 0.43138
# Poissons Ratio (z) = 0.26696 0.26696
#
# Static dielectric constant tensor:
#      x y z
#    x 1.660810 0.000000 0.000000 
#    y 0.000000 1.660810 0.000000 
#    z 0.000000 0.000000 1.662990 
# 
# From -- ./inp_files/2550.got.cif
#   From: 2010.05.17/outbox.cif.g08.bks.cpg/sg175_2_cif.got.tgz:2550.got - 2010.05.20 11:23:22.
