data_PCOD9581148
_publ_section_title
;
Structure prediction by ZEFSAII (Michael W. Deem and Ramdas Pophale) SiO2 
 PCOD9581148
Probable space group: P -6
;
_chemical_formula_sum "Si O2"
_cell_formula_units_Z 45
_cell_length_a 18.771025
_cell_length_b 18.771025
_cell_length_c 7.478501
_cell_angle_alpha 90.000000
_cell_angle_beta 90.000000
_cell_angle_gamma 120.000000
_cell_volume 2282.029025
_symmetry_space_group_name_H-M "P -6"
_symmetry_group_IT_number 174
_symmetry_cell_setting 'hexagonal'
loop_
_space_group_symop_operation_xyz
x,y,z
-x+y,-x,-z
-y,x-y,z
x,y,-z
-x+y,-x,z
-y,x-y,-z
loop_
_atom_site_type_symbol
_atom_site_label
_atom_site_fract_x
_atom_site_fract_y
_atom_site_fract_z
Si Si1 0.484330 0.892121 0.207846
Si Si2 0.843993 0.614708 0.281595
Si Si3 0.573188 0.665801 0.215715
Si Si4 0.788090 0.000777 0.293217
Si Si5 0.901035 0.335944 0.287827
Si Si6 0.916241 0.501864 0.282806
Si Si7 0.612629 0.843892 0.782055
Si Si8 0.009781 0.912089 0.000000
O O1 0.399359 0.880813 0.284265
O O2 0.533531 0.849396 0.281816
O O3 0.547261 0.989878 0.220400
O O4 0.468109 0.867772 0.000000
O O5 0.844461 0.615455 0.500000
O O6 0.754953 0.595685 0.217286
O O7 0.864181 0.544056 0.225984
O O8 0.918671 0.703765 0.228955
O O9 0.632620 0.629861 0.261212
O O10 0.605045 0.758282 0.275442
O O11 0.568427 0.665241 0.000000
O O12 0.814062 0.012649 0.500000
O O13 0.696490 0.922753 0.279719
O O14 0.849349 0.986491 0.170494
O O15 0.886445 0.331503 0.500000
O O16 0.886745 0.409345 0.219975
O O17 0.918101 0.502019 0.500000
O O18 0.613841 0.846743 0.000000
O O19 0.080599 0.007899 0.000000
#
# Coordination Sequence:
#
# PCOD9581148 Si02
#       8
#     6   6   6   6   6   6   6   3
#     4   9  17  31  52  75 105 145 185 227 279 341
#     4   9  18  33  53  83 113 143 191 239 284 350
#     4   9  19  34  50  77 110 143 186 235 290 347
#     4  11  22  39  66  93 119 157 206 252 303 364
#     4   9  18  33  51  75 107 141 180 228 284 341
#     4   9  16  30  52  73 103 141 174 221 274 329
#     4  10  19  34  56  83 117 153 197 250 296 354
#     4  10  26  48  64  88 124 156 196 252 312 372
#
# _framework density 19.719294000000001
#
# number of rings (size 3 to 8) (size 9 to 14) (size 15 to 20)
#    0.133    2.400    2.000    0.000    0.000    2.133 
#    2.800    1.333    0.000    0.000    0.000    0.000 
#    0.000    0.000    0.000    0.000    0.000    0.000 
#
# Total GULP energy -251043.801524 kJ/mol
# GULP energy per Si atom -5578.751145 kJ/mol
# Density = 1.967441 g / cm^3
# Si number density = 19.719294 Si / 1000 Ang^3
#
#
#
# Elastic Constant Matrix: (Units=GPa)
#
#
# Indices 1 2 3 4 5 6 
#
# 1 93.7145 37.4578 0.9671 0.0000 0.0000 0.0000
# 2 37.4578 93.7145 0.9671 0.0000 0.0000 0.0000
# 3 0.9671 0.9671 67.5377 0.0000 0.0000 0.0000
# 4 0.0000 0.0000 0.0000 11.1953 0.0000 0.0000
# 5 0.0000 0.0000 0.0000 0.0000 11.1953 0.0000
# 6 0.0000 0.0000 0.0000 0.0000 0.0000 28.1284
#
#
#
# Elastic Compliance Matrix: (Units=1/GPa)
#
#
# Indices 1 2 3 4 5 6 
#
# 1 0.012700 -0.005075 -0.000109 0.000000 0.000000 0.000000
# 2 -0.005075 0.012700 -0.000109 0.000000 0.000000 0.000000
# 3 -0.000109 -0.000109 0.014810 0.000000 0.000000 0.000000
# 4 0.000000 0.000000 0.000000 0.089323 0.000000 0.000000
# 5 0.000000 0.000000 0.000000 0.000000 0.089323 0.000000
# 6 0.000000 0.000000 0.000000 0.000000 0.000000 0.035551
#
#
# Mechanical properties :
#
#
# Convention : Reuss Voigt Hill
#
# Bulk Modulus (GPa) = 33.75725 37.08341 35.42033
# Shear Modulus (GPa) = 18.19044 24.47544 21.33294
#
# Velocity S-wave (km/s) = 3.04051 3.52688 3.29269
# Velocity P-wave (km/s) = 5.42977 5.95245 5.69710
#
# Compressibility (1/GPa) = 0.02962326
#
# Stress axis : x y z
#
# Youngs Moduli (GPa) = 78.73758 78.73758 67.52341
#
# Poissons Ratio (x) = 0.39961 0.00737
# Poissons Ratio (y) = 0.39961 0.00737
# Poissons Ratio (z) = 0.00860 0.00860
#
# Static dielectric constant tensor:
#      x y z
#    x 1.672550 0.000000 0.000000 
#    y 0.000000 1.672550 0.000000 
#    z 0.000000 0.000000 1.751680 
# 
# From -- ./inp_files/504.got.cif
#   From: 2010.05.17/outbox.cif.g08.bks.cpg/sg174_cif.got.tgz:504.got - 2010.05.20 11:22:48.
