data_PCOD9581043
_publ_section_title
;
Structure prediction by ZEFSAII (Michael W. Deem and Ramdas Pophale) SiO2 
 PCOD9581043
Probable space group: P 63
;
_chemical_formula_sum "Si O2"
_cell_formula_units_Z 42
_cell_length_a 19.572047
_cell_length_b 19.572047
_cell_length_c 5.527338
_cell_angle_alpha 90.000000
_cell_angle_beta 90.000000
_cell_angle_gamma 120.000000
_cell_volume 1833.661449
_symmetry_space_group_name_H-M "P 63"
_symmetry_group_IT_number 173
_symmetry_cell_setting 'hexagonal'
loop_
_space_group_symop_operation_xyz
x,y,z
x-y,x,1/2+z
-y,x-y,z
-x,-y,1/2+z
-x+y,-x,z
y,-x+y,1/2+z
loop_
_atom_site_type_symbol
_atom_site_label
_atom_site_fract_x
_atom_site_fract_y
_atom_site_fract_z
Si Si1 0.090423 0.382908 0.625000
Si Si2 0.702009 0.507773 0.777990
Si Si3 0.438214 0.554228 0.963598
Si Si4 0.310844 0.147292 0.771699
Si Si5 0.736369 0.744449 0.001517
Si Si6 0.479426 0.716122 0.791640
Si Si7 0.006204 0.405323 0.231485
O O1 0.121690 0.340581 0.453679
O O2 0.161800 0.432753 0.803260
O O3 0.064540 0.433364 0.462988
O O4 0.019936 0.315614 0.765800
O O5 0.610138 0.474417 0.717312
O O6 0.755624 0.603130 0.734432
O O7 0.721538 0.469664 0.547143
O O8 0.724276 0.481357 0.032797
O O9 0.529836 0.584032 0.026618
O O10 0.429497 0.621596 0.821364
O O11 0.404506 0.477262 0.798465
O O12 0.270193 0.177892 0.570662
O O13 0.250959 0.067941 0.918347
O O14 0.683844 0.672471 0.186662
#
# Coordination Sequence:
#
# PCOD9581043 Si02
#       7
#     6   6   6   6   6   6   6
#     4  10  20  42  64  94 145 175 232 284 368 433
#     4  11  26  44  71  95 141 201 253 312 387 447
#     4  12  25  43  71 103 144 193 261 326 388 454
#     4  10  23  39  68 100 143 186 228 293 361 454
#     4  11  22  43  67 104 140 187 230 292 377 445
#     4  11  23  46  66  95 138 196 249 311 368 449
#     4  11  25  39  67 107 137 186 247 326 385 448
#
# _framework density 22.904990999999999
#
# number of rings (size 3 to 8) (size 9 to 14) (size 15 to 20)
#    0.000    1.143    2.857    3.429    6.000    4.571 
#    0.857    0.000    3.143    0.000    0.000    0.000 
#   14.286    0.000    0.000    0.000    0.000    0.000 
#
# Total GULP energy -233871.400680 kJ/mol
# GULP energy per Si atom -5568.366683 kJ/mol
# Density = 2.285286 g / cm^3
# Si number density = 22.904991 Si / 1000 Ang^3
#
#
#
# Elastic Constant Matrix: (Units=GPa)
#
#
# Indices 1 2 3 4 5 6 
#
# 1 103.0798 37.1825 44.8860 0.0000 0.0000 0.0000
# 2 37.1825 103.0798 44.8860 0.0000 0.0000 0.0000
# 3 44.8860 44.8860 113.6450 0.0000 0.0000 0.0000
# 4 0.0000 0.0000 0.0000 37.9965 0.0000 0.0000
# 5 0.0000 0.0000 0.0000 0.0000 37.9965 0.0000
# 6 0.0000 0.0000 0.0000 0.0000 0.0000 32.9486
#
#
#
# Elastic Compliance Matrix: (Units=1/GPa)
#
#
# Indices 1 2 3 4 5 6 
#
# 1 0.012358 -0.002817 -0.003769 0.000000 0.000000 0.000000
# 2 -0.002817 0.012358 -0.003769 0.000000 0.000000 0.000000
# 3 -0.003769 -0.003769 0.011776 0.000000 0.000000 0.000000
# 4 0.000000 0.000000 0.000000 0.026318 0.000000 0.000000
# 5 0.000000 0.000000 0.000000 0.000000 0.026318 0.000000
# 6 0.000000 0.000000 0.000000 0.000000 0.000000 0.030350
#
#
# Mechanical properties :
#
#
# Convention : Reuss Voigt Hill
#
# Bulk Modulus (GPa) = 63.35145 63.74593 63.54869
# Shear Modulus (GPa) = 34.37628 34.64500 34.51064
#
# Velocity S-wave (km/s) = 3.87825 3.89337 3.88582
# Velocity P-wave (km/s) = 6.91179 6.93557 6.92369
#
# Compressibility (1/GPa) = 0.01578496
#
# Stress axis : x y z
#
# Youngs Moduli (GPa) = 80.91720 80.91720 84.91669
#
# Poissons Ratio (x) = 0.22793 0.32001
# Poissons Ratio (y) = 0.22793 0.32001
# Poissons Ratio (z) = 0.30494 0.30494
#
# Static dielectric constant tensor:
#      x y z
#    x 1.921350 0.000000 0.000000 
#    y 0.000000 1.921350 0.000000 
#    z 0.000000 0.000000 1.865360 
# 
# From -- ./inp_files/171.got.cif
#   From: 2010.05.17/outbox.cif.g08.bks.cpg/sg173_cif.got.tgz:171.got - 2010.05.20 11:21:53.
