data_PCOD9581543
_publ_section_title
;
Structure prediction by ZEFSAII (Michael W. Deem and Ramdas Pophale) SiO2 
 PCOD9581543
Probable space group: P 6/M
;
_chemical_formula_sum "Si O2"
_cell_formula_units_Z 78
_cell_length_a 21.623083
_cell_length_b 21.623083
_cell_length_c 12.943514
_cell_angle_alpha 90.000000
_cell_angle_beta 90.000000
_cell_angle_gamma 120.000000
_cell_volume 5241.047071
_symmetry_space_group_name_H-M "P 6/M"
_symmetry_group_IT_number 175
_symmetry_cell_setting 'hexagonal'
loop_
_space_group_symop_operation_xyz
x,y,z
x-y,x,z
-y,x-y,z
-x,-y,z
-x+y,-x,z
y,-x+y,z
-x,-y,-z
-x+y,-x,-z
y,-x+y,-z
x,y,-z
x-y,x,-z
-y,x-y,-z
loop_
_atom_site_type_symbol
_atom_site_label
_atom_site_fract_x
_atom_site_fract_y
_atom_site_fract_z
Si Si1 0.690299 0.205209 0.125656
Si Si2 0.843858 0.984931 0.000000
Si Si3 0.986394 0.139265 0.379344
Si Si4 0.357825 0.213067 0.118737
Si Si5 0.616880 0.921537 0.118469
Si Si6 0.641090 0.461720 0.873941
Si Si7 0.239574 0.231408 0.196757
O O1 0.720038 0.152684 0.154796
O O2 0.748840 0.285983 0.157111
O O3 0.611003 0.183036 0.160014
O O4 0.690409 0.205593 0.000000
O O5 0.857483 0.918094 0.000000
O O6 0.798703 0.982734 0.100797
O O7 0.984488 0.156370 0.500000
O O8 0.060373 0.140002 0.360241
O O9 0.984829 0.195571 0.301528
O O10 0.372707 0.147585 0.115932
O O11 0.290031 0.196727 0.186250
O O12 0.342302 0.224789 0.000000
O O13 0.536141 0.889971 0.157751
O O14 0.684498 0.978284 0.181676
O O15 0.621916 0.946882 0.000000
O O16 0.641513 0.462986 0.000000
#
# Coordination Sequence:
#
# PCOD9581543 Si02
#       7
#    12   6  12  12  12  12  12
#     4   8  13  21  35  54  79 111 147 181 209 239
#     4  12  23  32  44  62  83 106 136 170 200 230
#     4  10  21  36  52  67  82 102 131 172 219 258
#     4   9  16  26  38  56  82 112 144 174 205 245
#     4   9  16  26  38  56  82 112 144 174 205 245
#     4   8  13  21  35  54  79 111 147 181 209 239
#     4  12  20  30  46  61  84 114 141 164 200 250
#
# _framework density 14.882522
#
# number of rings (size 3 to 8) (size 9 to 14) (size 15 to 20)
#    0.000    2.462    1.538    5.154    0.000    1.846 
#    0.000    2.308    0.000    3.692    0.000    0.000 
#    0.000    2.462    0.000    0.923    0.000    9.846 
#
# Total GULP energy -434534.974144 kJ/mol
# GULP energy per Si atom -5570.961207 kJ/mol
# Density = 1.484865 g / cm^3
# Si number density = 14.882522 Si / 1000 Ang^3
#
#
#
# Elastic Constant Matrix: (Units=GPa)
#
#
# Indices 1 2 3 4 5 6 
#
# 1 45.8709 -1.4940 10.2610 0.0000 0.0000 0.0000
# 2 -1.4940 45.8709 10.2610 0.0000 0.0000 0.0000
# 3 10.2610 10.2610 25.7682 0.0000 0.0000 0.0000
# 4 0.0000 0.0000 0.0000 7.4231 0.0000 0.0000
# 5 0.0000 0.0000 0.0000 0.0000 7.4231 0.0000
# 6 0.0000 0.0000 0.0000 0.0000 0.0000 23.6825
#
#
#
# Elastic Compliance Matrix: (Units=1/GPa)
#
#
# Indices 1 2 3 4 5 6 
#
# 1 0.024367 0.003254 -0.010999 0.000000 0.000000 0.000000
# 2 0.003254 0.024367 -0.010999 0.000000 0.000000 0.000000
# 3 -0.010999 -0.010999 0.047567 0.000000 0.000000 0.000000
# 4 0.000000 0.000000 0.000000 0.134714 0.000000 0.000000
# 5 0.000000 0.000000 0.000000 0.000000 0.134714 0.000000
# 6 0.000000 0.000000 0.000000 0.000000 0.000000 0.042225
#
#
# Mechanical properties :
#
#
# Convention : Reuss Voigt Hill
#
# Bulk Modulus (GPa) = 17.00290 17.28512 17.14401
# Shear Modulus (GPa) = 10.75167 14.27122 12.51144
#
# Velocity S-wave (km/s) = 2.69073 3.10001 2.90259
# Velocity P-wave (km/s) = 4.59379 4.94500 4.77263
#
# Compressibility (1/GPa) = 0.05881350
#
# Stress axis : x y z
#
# Youngs Moduli (GPa) = 41.03977 41.03977 21.02305
#
# Poissons Ratio (x) = -0.13354 0.23122
# Poissons Ratio (y) = -0.13354 0.23122
# Poissons Ratio (z) = 0.45138 0.45138
#
# Static dielectric constant tensor:
#      x y z
#    x 1.528490 0.000000 0.000000 
#    y 0.000000 1.528490 0.000000 
#    z 0.000000 0.000000 1.463080 
# 
# From -- ./inp_files/2667.got.cif
#   From: 2010.05.17/outbox.cif.g08.bks.cpg/sg175_2_cif.got.tgz:2667.got - 2010.05.20 11:23:22.
