data_PCOD9581917
_publ_section_title
;
Structure prediction by ZEFSAII (Michael W. Deem and Ramdas Pophale) SiO2 
 PCOD9581917
Probable space group: P 63/M
;
_chemical_formula_sum "Si O2"
_cell_formula_units_Z 60
_cell_length_a 15.708735
_cell_length_b 15.708735
_cell_length_c 13.891627
_cell_angle_alpha 90.000000
_cell_angle_beta 90.000000
_cell_angle_gamma 120.000000
_cell_volume 2968.699041
_symmetry_space_group_name_H-M "P 63/M"
_symmetry_group_IT_number 176
_symmetry_cell_setting 'hexagonal'
loop_
_space_group_symop_operation_xyz
x,y,z
x-y,x,1/2+z
-y,x-y,z
-x,-y,1/2+z
-x+y,-x,z
y,-x+y,1/2+z
-x,-y,-z
-x+y,-x,1/2-z
y,-x+y,-z
x,y,1/2-z
x-y,x,-z
-y,x-y,1/2-z
loop_
_atom_site_type_symbol
_atom_site_label
_atom_site_fract_x
_atom_site_fract_y
_atom_site_fract_z
Si Si1 0.973600 0.807621 0.635690
Si Si2 0.420091 0.240770 0.861866
Si Si3 0.658571 0.604746 0.952455
Si Si4 0.032742 0.212299 0.866629
Si Si5 0.982466 0.536429 0.638629
O O1 0.987566 0.821647 0.750000
O O2 0.909081 0.691328 0.620433
O O3 0.899640 0.847326 0.611264
O O4 0.085166 0.866239 0.599167
O O5 0.424614 0.215823 0.750000
O O6 0.435830 0.167212 0.926756
O O7 0.486724 0.356847 0.875202
O O8 0.714927 0.718898 0.919821
O O9 0.559603 0.546919 0.889142
O O10 0.621641 0.578423 0.061732
O O11 0.031234 0.226627 0.750000
O O12 0.008037 0.565173 0.750000
#
# Coordination Sequence:
#
# PCOD9581917 Si02
#       5
#    12  12  12  12  12
#     4   8  14  24  43  75 113 152 183 223 276 332
#     4   9  18  34  54  79 115 148 185 238 289 339
#     4  10  20  35  57  82 112 152 194 239 295 353
#     4   9  15  26  48  80 119 153 191 236 284 344
#     4  10  21  37  57  82 114 150 193 246 301 350
#
# _framework density 20.210872999999999
#
# number of rings (size 3 to 8) (size 9 to 14) (size 15 to 20)
#    0.000    2.800    0.000    3.400    0.000    3.200 
#    1.200    0.000    0.000    6.000    0.000   12.600 
#    2.000    0.000    3.600    0.000    0.000    0.000 
#
# Total GULP energy -334805.556843 kJ/mol
# GULP energy per Si atom -5580.092614 kJ/mol
# Density = 2.016487 g / cm^3
# Si number density = 20.210873 Si / 1000 Ang^3
#
#
#
# Elastic Constant Matrix: (Units=GPa)
#
#
# Indices 1 2 3 4 5 6 
#
# 1 83.9626 46.2611 39.4854 0.0000 0.0000 0.0000
# 2 46.2611 83.9626 39.4854 0.0000 0.0000 0.0000
# 3 39.4854 39.4854 154.6373 0.0000 0.0000 0.0000
# 4 0.0000 0.0000 0.0000 15.4172 0.0000 0.0000
# 5 0.0000 0.0000 0.0000 0.0000 15.4172 0.0000
# 6 0.0000 0.0000 0.0000 0.0000 0.0000 18.8508
#
#
#
# Elastic Compliance Matrix: (Units=1/GPa)
#
#
# Indices 1 2 3 4 5 6 
#
# 1 0.017805 -0.008719 -0.002320 0.000000 0.000000 0.000000
# 2 -0.008719 0.017805 -0.002320 0.000000 0.000000 0.000000
# 3 -0.002320 -0.002320 0.007652 0.000000 0.000000 0.000000
# 4 0.000000 0.000000 0.000000 0.064863 0.000000 0.000000
# 5 0.000000 0.000000 0.000000 0.000000 0.064863 0.000000
# 6 0.000000 0.000000 0.000000 0.000000 0.000000 0.053048
#
#
# Mechanical properties :
#
#
# Convention : Reuss Voigt Hill
#
# Bulk Modulus (GPa) = 60.44696 63.66958 62.05827
# Shear Modulus (GPa) = 19.35975 23.09242 21.22608
#
# Velocity S-wave (km/s) = 3.09833 3.38387 3.24424
# Velocity P-wave (km/s) = 6.54008 6.84386 6.69369
#
# Compressibility (1/GPa) = 0.01654343
#
# Stress axis : x y z
#
# Youngs Moduli (GPa) = 56.16377 56.16377 130.69244
#
# Poissons Ratio (x) = 0.48970 0.30321
# Poissons Ratio (y) = 0.48970 0.30321
# Poissons Ratio (z) = 0.13030 0.13030
#
# Static dielectric constant tensor:
#      x y z
#    x 1.733940 0.000000 0.000000 
#    y 0.000000 1.733940 0.000000 
#    z 0.000000 0.000000 1.783670 
# 
# From -- ./inp_files/2646.got.cif
#   From: 2010.05.17/outbox.cif.g08.bks.cpg/sg176_2_cif.got.tgz:2646.got - 2010.06.03 11:36:45.
