data_PCOD9581955
_publ_section_title
;
Structure prediction by ZEFSAII (Michael W. Deem and Ramdas Pophale) SiO2 
 PCOD9581955
Probable space group: P 63/M
;
_chemical_formula_sum "Si O2"
_cell_formula_units_Z 70
_cell_length_a 14.838326
_cell_length_b 14.838326
_cell_length_c 16.155482
_cell_angle_alpha 90.000000
_cell_angle_beta 90.000000
_cell_angle_gamma 120.000000
_cell_volume 3080.494007
_symmetry_space_group_name_H-M "P 63/M"
_symmetry_group_IT_number 176
_symmetry_cell_setting 'hexagonal'
loop_
_space_group_symop_operation_xyz
x,y,z
x-y,x,1/2+z
-y,x-y,z
-x,-y,1/2+z
-x+y,-x,z
y,-x+y,1/2+z
-x,-y,-z
-x+y,-x,1/2-z
y,-x+y,-z
x,y,1/2-z
x-y,x,-z
-y,x-y,1/2-z
loop_
_atom_site_type_symbol
_atom_site_label
_atom_site_fract_x
_atom_site_fract_y
_atom_site_fract_z
Si Si1 0.738050 0.563164 0.089778
Si Si2 0.211451 0.658429 0.750000
Si Si3 0.850105 0.653316 0.652977
Si Si4 0.358970 0.419271 0.067326
Si Si5 0.000000 0.000000 0.352336
Si Si6 0.643914 0.146405 0.983405
Si Si7 0.220757 0.078441 0.347862
O O1 0.666975 0.510911 0.168818
O O2 0.838361 0.670851 0.116153
O O3 0.689593 0.606036 0.023991
O O4 0.757794 0.479888 0.041644
O O5 0.238549 0.566530 0.750000
O O6 0.846768 0.625479 0.750000
O O7 0.737194 0.641595 0.629953
O O8 0.856362 0.575917 0.586560
O O9 0.959083 0.761832 0.642407
O O10 0.411864 0.545031 0.067515
O O11 0.452581 0.396592 0.053922
O O12 0.925391 0.042857 0.380417
O O13 0.000000 0.000000 0.250000
O O14 0.227885 0.097398 0.250000
#
# Coordination Sequence:
#
# PCOD9581955 Si02
#       7
#    12   6  12  12   4  12  12
#     4  11  20  38  63  89 127 167 212 263 328 391
#     4  10  22  36  58  94 124 154 210 272 328 392
#     4  10  22  41  65  94 127 172 219 277 331 397
#     4  10  22  41  62  87 125 166 215 270 332 398
#     4   9  21  36  57  94 131 169 214 254 319 381
#     4  10  22  40  63  89 122 171 215 267 334 400
#     4  10  20  38  63  92 132 175 212 268 323 387
#
# _framework density 22.723628999999999
#
# number of rings (size 3 to 8) (size 9 to 14) (size 15 to 20)
#    0.171    1.714    2.571    1.029    2.400    0.686 
#    9.771    0.000    0.000    4.114    0.000    0.000 
#    0.000    0.000    0.000    0.000    0.000    0.000 
#
# Total GULP energy -389834.325717 kJ/mol
# GULP energy per Si atom -5569.061796 kJ/mol
# Density = 2.267191 g / cm^3
# Si number density = 22.723629 Si / 1000 Ang^3
#
#
#
# Elastic Constant Matrix: (Units=GPa)
#
#
# Indices 1 2 3 4 5 6 
#
# 1 56.2461 2.8926 6.7124 0.0000 0.0000 0.0000
# 2 2.8926 56.2461 6.7124 0.0000 0.0000 0.0000
# 3 6.7124 6.7124 86.9397 0.0000 0.0000 0.0000
# 4 0.0000 0.0000 0.0000 3.8365 0.0000 0.0000
# 5 0.0000 0.0000 0.0000 0.0000 3.8365 0.0000
# 6 0.0000 0.0000 0.0000 0.0000 0.0000 26.6768
#
#
#
# Elastic Compliance Matrix: (Units=1/GPa)
#
#
# Indices 1 2 3 4 5 6 
#
# 1 0.017977 -0.000766 -0.001329 0.000000 0.000000 0.000000
# 2 -0.000766 0.017977 -0.001329 0.000000 0.000000 0.000000
# 3 -0.001329 -0.001329 0.011707 0.000000 0.000000 0.000000
# 4 0.000000 0.000000 0.000000 0.260651 0.000000 0.000000
# 5 0.000000 0.000000 0.000000 0.000000 0.260651 0.000000
# 6 0.000000 0.000000 0.000000 0.000000 0.000000 0.037486
#
#
# Mechanical properties :
#
#
# Convention : Reuss Voigt Hill
#
# Bulk Modulus (GPa) = 24.50126 25.78519 25.14322
# Shear Modulus (GPa) = 7.97573 19.07760 13.52667
#
# Velocity S-wave (km/s) = 1.87550 2.90064 2.44246
# Velocity P-wave (km/s) = 3.93646 4.75292 4.36382
#
# Compressibility (1/GPa) = 0.04081424
#
# Stress axis : x y z
#
# Youngs Moduli (GPa) = 55.62666 55.62666 85.41590
#
# Poissons Ratio (x) = 0.04261 0.11350
# Poissons Ratio (y) = 0.04261 0.11350
# Poissons Ratio (z) = 0.07392 0.07392
#
# Static dielectric constant tensor:
#      x y z
#    x 1.952280 0.000000 0.000000 
#    y 0.000000 1.952280 0.000000 
#    z 0.000000 0.000000 1.790420 
# 
# From -- ./inp_files/3414.got.cif
#   From: 2010.05.17/outbox.cif.g08.bks.cpg/sg176_2_cif.got.tgz:3414.got - 2010.06.03 11:36:45.
