data_PCOD9581798
_publ_section_title
;
Structure prediction by ZEFSAII (Michael W. Deem and Ramdas Pophale) SiO2 
 PCOD9581798
Probable space group: P 63/M
;
_chemical_formula_sum "Si O2"
_cell_formula_units_Z 72
_cell_length_a 23.428694
_cell_length_b 23.428694
_cell_length_c 7.883478
_cell_angle_alpha 90.000000
_cell_angle_beta 90.000000
_cell_angle_gamma 120.000000
_cell_volume 3747.525977
_symmetry_space_group_name_H-M "P 63/M"
_symmetry_group_IT_number 176
_symmetry_cell_setting 'hexagonal'
loop_
_space_group_symop_operation_xyz
x,y,z
x-y,x,1/2+z
-y,x-y,z
-x,-y,1/2+z
-x+y,-x,z
y,-x+y,1/2+z
-x,-y,-z
-x+y,-x,1/2-z
y,-x+y,-z
x,y,1/2-z
x-y,x,-z
-y,x-y,1/2-z
loop_
_atom_site_type_symbol
_atom_site_label
_atom_site_fract_x
_atom_site_fract_y
_atom_site_fract_z
Si Si1 0.595626 0.923307 0.048664
Si Si2 0.274212 0.076488 0.544878
Si Si3 0.929552 0.722498 0.050479
Si Si4 0.664984 0.071557 0.946840
Si Si5 0.202917 0.533403 0.042008
Si Si6 0.663669 0.462880 0.957664
O O1 0.593920 0.913275 0.250000
O O2 0.655375 0.913383 0.983921
O O3 0.524950 0.867930 0.982854
O O4 0.617064 0.999321 0.021399
O O5 0.275571 0.080521 0.750000
O O6 0.262471 0.133774 0.479194
O O7 0.221497 0.001690 0.494992
O O8 0.934873 0.712112 0.250000
O O9 0.915542 0.654762 0.963582
O O10 0.647599 0.066787 0.750000
O O11 0.662780 0.134314 0.018453
O O12 0.202324 0.531487 0.250000
O O13 0.266747 0.529279 0.988771
O O14 0.208313 0.601897 0.989539
O O15 0.663114 0.462436 0.750000
#
# Coordination Sequence:
#
# PCOD9581798 Si02
#       6
#    12  12  12  12  12  12
#     4   9  18  32  49  71  99 129 160 199 248 294
#     4   9  18  32  49  72 101 128 158 198 240 284
#     4  10  20  33  51  75 100 129 164 198 239 289
#     4  10  19  31  48  72 100 127 159 201 246 291
#     4   9  17  28  45  69  94 124 162 202 244 290
#     4   9  16  28  46  67  94 126 161 202 245 291
#
# _framework density 19.212675999999998
#
# number of rings (size 3 to 8) (size 9 to 14) (size 15 to 20)
#    0.000    2.667    0.000    3.333    0.000    8.000 
#    0.000    0.000    0.000    1.333    0.000    0.000 
#    0.000    5.333    0.000    0.000    0.000    0.000 
#
# Total GULP energy -401652.127932 kJ/mol
# GULP energy per Si atom -5578.501777 kJ/mol
# Density = 1.916895 g / cm^3
# Si number density = 19.212676 Si / 1000 Ang^3
#
#
#
# Elastic Constant Matrix: (Units=GPa)
#
#
# Indices 1 2 3 4 5 6 
#
# 1 141.9954 97.8597 -3.6430 0.0000 0.0000 0.0000
# 2 97.8597 141.9954 -3.6430 0.0000 0.0000 0.0000
# 3 -3.6430 -3.6430 12.6494 0.0000 0.0000 0.0000
# 4 0.0000 0.0000 0.0000 12.8372 0.0000 0.0000
# 5 0.0000 0.0000 0.0000 0.0000 12.8372 0.0000
# 6 0.0000 0.0000 0.0000 0.0000 0.0000 22.0678
#
#
#
# Elastic Compliance Matrix: (Units=1/GPa)
#
#
# Indices 1 2 3 4 5 6 
#
# 1 0.013432 -0.009226 0.001211 0.000000 0.000000 0.000000
# 2 -0.009226 0.013432 0.001211 0.000000 0.000000 0.000000
# 3 0.001211 0.001211 0.079753 0.000000 0.000000 0.000000
# 4 0.000000 0.000000 0.000000 0.077899 0.000000 0.000000
# 5 0.000000 0.000000 0.000000 0.000000 0.077899 0.000000
# 6 0.000000 0.000000 0.000000 0.000000 0.000000 0.045315
#
#
# Mechanical properties :
#
#
# Convention : Reuss Voigt Hill
#
# Bulk Modulus (GPa) = 10.75148 53.08749 31.91949
# Shear Modulus (GPa) = 14.19091 23.28621 18.73856
#
# Velocity S-wave (km/s) = 2.72071 3.48519 3.12640
# Velocity P-wave (km/s) = 3.93419 6.62472 5.44815
#
# Compressibility (1/GPa) = 0.09301042
#
# Stress axis : x y z
#
# Youngs Moduli (GPa) = 74.45076 74.45076 12.53869
#
# Poissons Ratio (x) = 0.68686 -0.01519
# Poissons Ratio (y) = 0.68686 -0.01519
# Poissons Ratio (z) = -0.09018 -0.09018
#
# Static dielectric constant tensor:
#      x y z
#    x 1.652840 0.000000 0.000000 
#    y 0.000000 1.652840 0.000000 
#    z 0.000000 0.000000 1.713250 
# 
# From -- ./inp_files/1202.got.cif
#   From: 2010.05.17/outbox.cif.g08.bks.cpg/sg176_1_cif.got.tgz:1202.got - 2010.06.03 11:36:45.
