data_PCOD9581632
_publ_section_title
;
Structure prediction by ZEFSAII (Michael W. Deem and Ramdas Pophale) SiO2 
 PCOD9581632
Probable space group: P 6/M
;
_chemical_formula_sum "Si O2"
_cell_formula_units_Z 60
_cell_length_a 16.564764
_cell_length_b 16.564764
_cell_length_c 13.366266
_cell_angle_alpha 90.000000
_cell_angle_beta 90.000000
_cell_angle_gamma 120.000000
_cell_volume 3176.224834
_symmetry_space_group_name_H-M "P 6/M"
_symmetry_group_IT_number 175
_symmetry_cell_setting 'hexagonal'
loop_
_space_group_symop_operation_xyz
x,y,z
x-y,x,z
-y,x-y,z
-x,-y,z
-x+y,-x,z
y,-x+y,z
-x,-y,-z
-x+y,-x,-z
y,-x+y,-z
x,y,-z
x-y,x,-z
-y,x-y,-z
loop_
_atom_site_type_symbol
_atom_site_label
_atom_site_fract_x
_atom_site_fract_y
_atom_site_fract_z
Si Si1 0.452662 0.753199 0.289588
Si Si2 0.819443 0.806241 0.500000
Si Si3 0.686037 0.736740 0.679786
Si Si4 0.772520 0.647420 0.197428
Si Si5 0.641739 0.075405 0.500000
Si Si6 0.225600 0.079656 0.000000
Si Si7 0.147118 0.646356 0.500000
O O1 0.359511 0.763210 0.280131
O O2 0.535658 0.806225 0.209409
O O3 0.494477 0.797970 0.398893
O O4 0.820515 0.901347 0.500000
O O5 0.767613 0.758267 0.601248
O O6 0.690208 0.823480 0.735791
O O7 0.694347 0.668661 0.758221
O O8 0.600085 0.696405 0.603775
O O9 0.809086 0.704884 0.094677
O O10 0.588852 0.132333 0.500000
O O11 0.580018 0.961542 0.500000
O O12 0.177614 0.145936 0.000000
#
# Coordination Sequence:
#
# PCOD9581632 Si02
#       7
#    12   6  12  12   6   6   6
#     4  10  23  40  63  95 132 180 220 273 325 386
#     4  11  21  33  49  83 117 170 208 238 296 391
#     4  11  22  37  60  85 132 171 208 256 332 394
#     4  12  23  44  67  93 127 170 217 277 340 393
#     4  10  22  31  59  99 133 178 217 270 315 405
#     4  12  27  48  78 106 128 162 220 281 340 402
#     4  11  18  36  56  95 136 173 228 269 318 380
#
# _framework density 18.890350000000002
#
# number of rings (size 3 to 8) (size 9 to 14) (size 15 to 20)
#    0.400    0.600    6.000    2.000    0.000    1.600 
#    0.000    1.000    0.000    1.200    0.000    0.000 
#    0.000    0.000    0.000    0.000    0.000    0.000 
#
# Total GULP energy -334174.201487 kJ/mol
# GULP energy per Si atom -5569.570025 kJ/mol
# Density = 1.884735 g / cm^3
# Si number density = 18.890350 Si / 1000 Ang^3
#
#
#
# Elastic Constant Matrix: (Units=GPa)
#
#
# Indices 1 2 3 4 5 6 
#
# 1 104.2019 27.7800 53.9858 0.0000 0.0000 0.0000
# 2 27.7800 104.2019 53.9858 0.0000 0.0000 0.0000
# 3 53.9858 53.9858 120.2319 0.0000 0.0000 0.0000
# 4 0.0000 0.0000 0.0000 41.2269 0.0000 0.0000
# 5 0.0000 0.0000 0.0000 0.0000 41.2269 0.0000
# 6 0.0000 0.0000 0.0000 0.0000 0.0000 38.2110
#
#
#
# Elastic Compliance Matrix: (Units=1/GPa)
#
#
# Indices 1 2 3 4 5 6 
#
# 1 0.012531 -0.000555 -0.005377 0.000000 0.000000 0.000000
# 2 -0.000555 0.012531 -0.005377 0.000000 0.000000 0.000000
# 3 -0.005377 -0.005377 0.013146 0.000000 0.000000 0.000000
# 4 0.000000 0.000000 0.000000 0.024256 0.000000 0.000000
# 5 0.000000 0.000000 0.000000 0.000000 0.024256 0.000000
# 6 0.000000 0.000000 0.000000 0.000000 0.000000 0.026171
#
#
# Mechanical properties :
#
#
# Convention : Reuss Voigt Hill
#
# Bulk Modulus (GPa) = 64.14916 66.68211 65.41564
# Shear Modulus (GPa) = 35.53537 36.99189 36.26363
#
# Velocity S-wave (km/s) = 4.34192 4.43000 4.38618
# Velocity P-wave (km/s) = 7.69212 7.84492 7.76890
#
# Compressibility (1/GPa) = 0.01558867
#
# Stress axis : x y z
#
# Youngs Moduli (GPa) = 79.80483 79.80483 76.06721
#
# Poissons Ratio (x) = 0.04427 0.40904
# Poissons Ratio (y) = 0.04427 0.40904
# Poissons Ratio (z) = 0.42914 0.42914
#
# Static dielectric constant tensor:
#      x y z
#    x 1.681700 0.000000 0.000000 
#    y 0.000000 1.681700 0.000000 
#    z 0.000000 0.000000 1.637590 
# 
# From -- ./inp_files/1881.got.cif
#   From: 2010.05.17/outbox.cif.g08.bks.cpg/sg175_1_cif.got.tgz:1881.got - 2010.05.20 11:23:22.
