data_PCOD9581521
_publ_section_title
;
Structure prediction by ZEFSAII (Michael W. Deem and Ramdas Pophale) SiO2 
 PCOD9581521
Probable space group: P 6/M
;
_chemical_formula_sum "Si O2"
_cell_formula_units_Z 66
_cell_length_a 21.880034
_cell_length_b 21.880034
_cell_length_c 7.902113
_cell_angle_alpha 90.000000
_cell_angle_beta 90.000000
_cell_angle_gamma 120.000000
_cell_volume 3276.195825
_symmetry_space_group_name_H-M "P 6/M"
_symmetry_group_IT_number 175
_symmetry_cell_setting 'hexagonal'
loop_
_space_group_symop_operation_xyz
x,y,z
x-y,x,z
-y,x-y,z
-x,-y,z
-x+y,-x,z
y,-x+y,z
-x,-y,-z
-x+y,-x,-z
y,-x+y,-z
x,y,-z
x-y,x,-z
-y,x-y,-z
loop_
_atom_site_type_symbol
_atom_site_label
_atom_site_fract_x
_atom_site_fract_y
_atom_site_fract_z
Si Si1 0.668125 0.204044 0.188201
Si Si2 0.833103 0.897276 0.000000
Si Si3 0.390877 0.312514 0.700656
Si Si4 0.722478 0.852726 0.298876
Si Si5 0.080006 0.707708 0.293598
Si Si6 0.527009 0.194845 0.306600
O O1 0.664845 0.129984 0.215183
O O2 0.592637 0.196895 0.214969
O O3 0.728127 0.262989 0.305456
O O4 0.693697 0.230313 0.000000
O O5 0.889079 0.870785 0.000000
O O6 0.784626 0.869289 0.168576
O O7 0.403977 0.326565 0.500000
O O8 0.338291 0.228803 0.719515
O O9 0.349512 0.351507 0.763587
O O10 0.742530 0.864022 0.500000
O O11 0.686736 0.899442 0.249601
O O12 0.080496 0.707433 0.500000
O O13 0.139236 0.689356 0.236435
O O14 0.529732 0.174026 0.500000
#
# Coordination Sequence:
#
# PCOD9581521 Si02
#       6
#    12   6  12  12  12  12
#     4  12  25  40  58  88 126 162 205 257 312 374
#     4  12  27  44  66  98 136 180 224 270 328 398
#     4  10  20  38  64  92 123 159 204 258 315 378
#     4  10  21  42  69  98 130 167 218 273 327 390
#     4   9  19  37  64  94 121 155 206 265 315 371
#     4  11  22  41  64  85 115 162 212 254 307 372
#
# _framework density 20.145316000000001
#
# number of rings (size 3 to 8) (size 9 to 14) (size 15 to 20)
#    0.000    1.455    1.818    3.727    1.273    2.909 
#    3.273    3.636    0.000    1.091    0.000    0.000 
#    0.000    0.000    0.000    0.000    0.000    0.000 
#
# Total GULP energy -368895.847109 kJ/mol
# GULP energy per Si atom -5589.331017 kJ/mol
# Density = 2.009946 g / cm^3
# Si number density = 20.145316 Si / 1000 Ang^3
#
#
#
# Elastic Constant Matrix: (Units=GPa)
#
#
# Indices 1 2 3 4 5 6 
#
# 1 46.9224 -13.0729 12.2763 0.0000 0.0000 0.0000
# 2 -13.0729 46.9224 12.2763 0.0000 0.0000 0.0000
# 3 12.2763 12.2763 55.8163 0.0000 0.0000 0.0000
# 4 0.0000 0.0000 0.0000 -12.2106 0.0000 0.0000
# 5 0.0000 0.0000 0.0000 0.0000 -12.2106 0.0000
# 6 0.0000 0.0000 0.0000 0.0000 0.0000 29.9977
#
#
#
# Elastic Compliance Matrix: (Units=1/GPa)
#
#
# Indices 1 2 3 4 5 6 
#
# 1 0.025909 0.009241 -0.007731 0.000000 0.000000 0.000000
# 2 0.009241 0.025909 -0.007731 0.000000 0.000000 0.000000
# 3 -0.007731 -0.007731 0.021317 0.000000 0.000000 0.000000
# 4 0.000000 0.000000 0.000000 -0.081896 0.000000 0.000000
# 5 0.000000 0.000000 0.000000 0.000000 -0.081896 0.000000
# 6 0.000000 0.000000 0.000000 0.000000 0.000000 0.033336
#
#
# Mechanical properties :
#
#
# Convention : Reuss Voigt Hill
#
# Bulk Modulus (GPa) = 16.47634 19.18005 17.82819
# Shear Modulus (GPa) = -202.84646 10.32741 -96.25952
#
# Velocity S-wave (km/s) = -10.04541 2.26662 -6.91999
# Velocity P-wave (km/s) = 11.24057 4.04866 7.41481
#
# Compressibility (1/GPa) = 0.06069310
#
# Stress axis : x y z
#
# Youngs Moduli (GPa) = 38.59655 38.59655 46.91174
#
# Poissons Ratio (x) = -0.35667 0.36267
# Poissons Ratio (y) = -0.35667 0.36267
# Poissons Ratio (z) = 0.29839 0.29839
#
# Static dielectric constant tensor:
#      x y z
#    x 1.679450 0.000000 0.000000 
#    y 0.000000 1.679450 0.000000 
#    z 0.000000 0.000000 1.712330 
# 
# From -- ./inp_files/1010.got.cif
#   From: 2010.05.17/outbox.cif.g08.bks.cpg/sg175_1_cif.got.tgz:1010.got - 2010.05.20 11:23:22.
