data_PCOD9581086
_publ_section_title
;
Structure prediction by ZEFSAII (Michael W. Deem and Ramdas Pophale) SiO2 
 PCOD9581086
Probable space group: P 63
;
_chemical_formula_sum "Si O2"
_cell_formula_units_Z 42
_cell_length_a 16.854931
_cell_length_b 16.854931
_cell_length_c 7.544826
_cell_angle_alpha 90.000000
_cell_angle_beta 90.000000
_cell_angle_gamma 120.000000
_cell_volume 1856.238680
_symmetry_space_group_name_H-M "P 63"
_symmetry_group_IT_number 173
_symmetry_cell_setting 'hexagonal'
loop_
_space_group_symop_operation_xyz
x,y,z
x-y,x,1/2+z
-y,x-y,z
-x,-y,1/2+z
-x+y,-x,z
y,-x+y,1/2+z
loop_
_atom_site_type_symbol
_atom_site_label
_atom_site_fract_x
_atom_site_fract_y
_atom_site_fract_z
Si Si1 0.657775 0.807985 0.958750
Si Si2 0.812623 0.952836 0.489073
Si Si3 0.035497 0.893008 0.879834
Si Si4 0.447950 0.871859 0.725477
Si Si5 0.244448 0.778350 0.620794
Si Si6 0.735786 0.621736 0.795836
Si Si7 0.430200 0.401254 0.490807
O O1 0.767488 0.865795 0.945119
O O2 0.618056 0.795822 0.760417
O O3 0.620524 0.706242 0.036050
O O4 0.624042 0.858236 0.094680
O O5 0.827667 0.982763 0.691542
O O6 0.818040 0.857463 0.510888
O O7 0.722888 0.927917 0.381291
O O8 0.915132 0.909269 0.877865
O O9 0.353429 0.840825 0.620982
O O10 0.467961 0.788867 0.708250
O O11 0.534423 0.960396 0.640388
O O12 0.431546 0.900810 0.918831
O O13 0.199212 0.760555 0.427358
O O14 0.630450 0.592214 0.829383
#
# Coordination Sequence:
#
# PCOD9581086 Si02
#       7
#     6   6   6   6   6   6   6
#     4  11  23  41  65  94 136 172 224 276 334 401
#     4  12  24  40  60  89 128 176 225 272 320 380
#     4  12  24  40  60  89 128 176 225 272 320 380
#     4  10  23  42  70  94 138 170 228 282 351 416
#     4  10  23  44  64  98 126 176 216 280 347 408
#     4  11  23  41  65  94 136 172 224 276 334 401
#     4  10  24  42  66 104 130 176 232 276 346 420
#
# _framework density 22.6264
#
# number of rings (size 3 to 8) (size 9 to 14) (size 15 to 20)
#    0.000    1.143    2.857    3.143    4.000    0.000 
#    0.000    0.000    0.000    0.000    0.000    0.000 
#    0.000    0.000    0.000    0.000    0.000    0.000 
#
# Total GULP energy -234210.534281 kJ/mol
# GULP energy per Si atom -5576.441292 kJ/mol
# Density = 2.257490 g / cm^3
# Si number density = 22.626400 Si / 1000 Ang^3
#
#
#
# Elastic Constant Matrix: (Units=GPa)
#
#
# Indices 1 2 3 4 5 6 
#
# 1 126.1502 34.6071 14.7045 0.0000 0.0000 0.0000
# 2 34.6071 126.1502 14.7045 0.0000 0.0000 0.0000
# 3 14.7045 14.7045 62.1132 0.0000 0.0000 0.0000
# 4 0.0000 0.0000 0.0000 16.9234 0.0000 0.0000
# 5 0.0000 0.0000 0.0000 0.0000 16.9234 0.0000
# 6 0.0000 0.0000 0.0000 0.0000 0.0000 45.7716
#
#
#
# Elastic Compliance Matrix: (Units=1/GPa)
#
#
# Indices 1 2 3 4 5 6 
#
# 1 0.008713 -0.002211 -0.001539 0.000000 0.000000 0.000000
# 2 -0.002211 0.008713 -0.001539 0.000000 0.000000 0.000000
# 3 -0.001539 -0.001539 0.016828 0.000000 0.000000 0.000000
# 4 0.000000 0.000000 0.000000 0.059090 0.000000 0.000000
# 5 0.000000 0.000000 0.000000 0.000000 0.059090 0.000000
# 6 0.000000 0.000000 0.000000 0.000000 0.000000 0.021848
#
#
# Mechanical properties :
#
#
# Convention : Reuss Voigt Hill
#
# Bulk Modulus (GPa) = 42.23762 49.16062 45.69912
# Shear Modulus (GPa) = 25.93998 32.61683 29.27840
#
# Velocity S-wave (km/s) = 3.38960 3.80088 3.60111
# Velocity P-wave (km/s) = 5.83327 6.40597 6.12632
#
# Compressibility (1/GPa) = 0.02367558
#
# Stress axis : x y z
#
# Youngs Moduli (GPa) = 114.77122 114.77122 59.42316
#
# Poissons Ratio (x) = 0.25374 0.09147
# Poissons Ratio (y) = 0.25374 0.09147
# Poissons Ratio (z) = 0.17667 0.17667
#
# Static dielectric constant tensor:
#      x y z
#    x 2.788960 0.000000 0.000000 
#    y 0.000000 2.788960 0.000000 
#    z 0.000000 0.000000 1.768280 
# 
# From -- ./inp_files/631.got.cif
#   From: 2010.05.17/outbox.cif.g08.bks.cpg/sg173_cif.got.tgz:631.got - 2010.05.20 11:21:53.
