data_PCOD9581731
_publ_section_title
;
Structure prediction by ZEFSAII (Michael W. Deem and Ramdas Pophale) SiO2 
 PCOD9581731
Probable space group: P 63/M
;
_chemical_formula_sum "Si O2"
_cell_formula_units_Z 34
_cell_length_a 13.295951
_cell_length_b 13.295951
_cell_length_c 15.949367
_cell_angle_alpha 90.000000
_cell_angle_beta 90.000000
_cell_angle_gamma 120.000000
_cell_volume 2441.815774
_symmetry_space_group_name_H-M "P 63/M"
_symmetry_group_IT_number 176
_symmetry_cell_setting 'hexagonal'
loop_
_space_group_symop_operation_xyz
x,y,z
x-y,x,1/2+z
-y,x-y,z
-x,-y,1/2+z
-x+y,-x,z
y,-x+y,1/2+z
-x,-y,-z
-x+y,-x,1/2-z
y,-x+y,-z
x,y,1/2-z
x-y,x,-z
-y,x-y,1/2-z
loop_
_atom_site_type_symbol
_atom_site_label
_atom_site_fract_x
_atom_site_fract_y
_atom_site_fract_z
Si Si1 0.666668 0.333335 0.649952
Si Si2 0.116921 0.666146 0.931889
Si Si3 0.524427 0.674755 0.030402
Si Si4 0.210232 0.683205 0.750000
O O1 0.666667 0.333334 0.750000
O O2 0.775477 0.448278 0.610003
O O3 0.149791 0.687964 0.834651
O O4 0.981237 0.615839 0.946821
O O5 0.201072 0.779518 0.985771
O O6 0.146666 0.568577 0.966168
O O7 0.218762 0.565301 0.750000
#
# Coordination Sequence:
#
# PCOD9581731 Si02
#       4
#     4  12  12   6
#     4   9  18  30  39  67  98 121 147 189 234 279
#     4  10  17  30  46  67  91 123 153 190 226 274
#     4   9  18  30  46  63  94 125 152 183 232 277
#     4  10  16  26  46  66  94 114 158 194 222 262
#
# _framework density 13.924066
#
# number of rings (size 3 to 8) (size 9 to 14) (size 15 to 20)
#    0.353    2.118    3.529    0.706    2.471    0.000 
#    0.000    0.000    0.000    0.706    0.000    0.000 
#    0.000    0.000    0.000    0.000    0.000    0.000 
#
# Total GULP energy -189338.297054 kJ/mol
# GULP energy per Si atom -5568.773443 kJ/mol
# Density = 1.389237 g / cm^3
# Si number density = 13.924066 Si / 1000 Ang^3
#
#
#
# Elastic Constant Matrix: (Units=GPa)
#
#
# Indices 1 2 3 4 5 6 
#
# 1 85.4859 48.9250 47.6995 0.0000 0.0000 0.0002
# 2 48.9250 85.4860 47.6993 0.0000 0.0000 0.0000
# 3 47.6995 47.6993 137.5699 0.0000 0.0000 0.0002
# 4 0.0000 0.0000 0.0000 7.8720 0.0001 0.0000
# 5 0.0000 0.0000 0.0000 0.0001 7.8719 0.0000
# 6 0.0002 0.0000 0.0002 0.0000 0.0000 18.2806
#
#
#
# Elastic Compliance Matrix: (Units=1/GPa)
#
#
# Indices 1 2 3 4 5 6 
#
# 1 0.018610 -0.008742 -0.003422 0.000000 0.000000 0.000000
# 2 -0.008742 0.018610 -0.003422 0.000000 0.000000 0.000000
# 3 -0.003422 -0.003422 0.009642 0.000000 0.000000 0.000000
# 4 0.000000 0.000000 0.000000 0.127032 -0.000002 0.000000
# 5 0.000000 0.000000 0.000000 -0.000002 0.127034 0.000000
# 6 0.000000 0.000000 0.000000 0.000000 0.000000 0.054703
#
#
# Mechanical properties :
#
#
# Convention : Reuss Voigt Hill
#
# Bulk Modulus (GPa) = 63.72681 66.35440 65.04060
# Shear Modulus (GPa) = 12.75409 17.75276 15.25342
#
# Velocity S-wave (km/s) = 3.02979 3.57455 3.31338
# Velocity P-wave (km/s) = 7.62275 8.04950 7.83903
#
# Compressibility (1/GPa) = 0.01569198
#
# Stress axis : x y z
#
# Youngs Moduli (GPa) = 53.73442 53.73456 103.71499
#
# Poissons Ratio (x) = 0.46973 0.35488
# Poissons Ratio (y) = 0.46973 0.35487
# Poissons Ratio (z) = 0.18386 0.18386
#
# Static dielectric constant tensor:
#      x y z
#    x 1.445340 0.000000 0.000000 
#    y 0.000000 1.445340 0.000000 
#    z 0.000000 0.000000 1.445030 
# 
# From -- ./inp_files/2341.got.cif
#   From: 2010.05.17/outbox.cif.g08.bks.cpg/sg176_2_cif.got.tgz:2341.got - 2010.06.03 11:36:45.
