data_PCOD9581011
_publ_section_title
;
Structure prediction by ZEFSAII (Michael W. Deem and Ramdas Pophale) SiO2 
 PCOD9581011
Probable space group: P 63
;
_chemical_formula_sum "Si O2"
_cell_formula_units_Z 48
_cell_length_a 15.735932
_cell_length_b 15.735932
_cell_length_c 11.066355
_cell_angle_alpha 90.000000
_cell_angle_beta 90.000000
_cell_angle_gamma 120.000000
_cell_volume 2373.122571
_symmetry_space_group_name_H-M "P 63"
_symmetry_group_IT_number 173
_symmetry_cell_setting 'hexagonal'
loop_
_space_group_symop_operation_xyz
x,y,z
x-y,x,1/2+z
-y,x-y,z
-x,-y,1/2+z
-x+y,-x,z
y,-x+y,1/2+z
loop_
_atom_site_type_symbol
_atom_site_label
_atom_site_fract_x
_atom_site_fract_y
_atom_site_fract_z
Si Si1 0.394483 0.429585 0.811490
Si Si2 0.761945 0.689919 0.698506
Si Si3 0.725416 0.629229 0.071498
Si Si4 0.808134 0.642724 0.445560
Si Si5 0.082433 0.914731 0.648393
Si Si6 0.130757 0.365729 0.400370
Si Si7 0.012324 0.862650 0.907600
Si Si8 0.958272 0.589064 0.356111
O O1 0.353455 0.424127 0.676697
O O2 0.298077 0.403333 0.887122
O O3 0.419025 0.342816 0.843027
O O4 0.486370 0.532630 0.846059
O O5 0.787706 0.644207 0.585702
O O6 0.804291 0.806360 0.682877
O O7 0.809936 0.660529 0.805062
O O8 0.648429 0.646576 0.731334
O O9 0.807664 0.736665 0.122881
O O10 0.796329 0.590956 0.015303
O O11 0.659132 0.630163 0.962227
O O12 0.883459 0.759773 0.421216
O O13 0.857282 0.583990 0.391239
O O14 0.013859 0.895418 0.767835
O O15 0.072294 0.955659 0.516161
O O16 0.043623 0.255406 0.426073
#
# Coordination Sequence:
#
# PCOD9581011 Si02
#       8
#     6   6   6   6   6   6   6   6
#     4  11  22  39  62  91 130 167 228 283 335 416
#     4  10  20  36  63  93 123 166 221 272 338 411
#     4  10  20  37  59  90 123 167 220 278 326 414
#     4  10  20  36  56  88 125 165 216 282 329 400
#     4  10  17  34  59  91 126 166 221 277 339 411
#     4   9  19  36  60  90 120 169 216 269 331 408
#     4   9  17  31  56  86 120 168 212 272 333 406
#     4  11  23  37  63  95 123 174 230 271 347 416
#
# _framework density 20.226514999999999
#
# number of rings (size 3 to 8) (size 9 to 14) (size 15 to 20)
#    0.000    2.000    3.750    1.500    1.750    0.000 
#    0.750    0.000    0.000    4.500    6.500    0.000 
#    0.000    0.000    0.000    0.000    0.000    0.375 
#
# Total GULP energy -267242.093742 kJ/mol
# GULP energy per Si atom -5567.543620 kJ/mol
# Density = 2.018048 g / cm^3
# Si number density = 20.226515 Si / 1000 Ang^3
#
#
#
# Elastic Constant Matrix: (Units=GPa)
#
#
# Indices 1 2 3 4 5 6 
#
# 1 140.2146 17.2512 32.3690 0.0000 0.0000 0.0000
# 2 17.2512 140.2146 32.3690 0.0000 0.0000 0.0000
# 3 32.3690 32.3690 96.6995 0.0000 0.0000 0.0000
# 4 0.0000 0.0000 0.0000 9.3776 0.0000 0.0000
# 5 0.0000 0.0000 0.0000 0.0000 9.3776 0.0000
# 6 0.0000 0.0000 0.0000 0.0000 0.0000 61.4817
#
#
#
# Elastic Compliance Matrix: (Units=1/GPa)
#
#
# Indices 1 2 3 4 5 6 
#
# 1 0.007748 -0.000384 -0.002465 0.000000 0.000000 0.000000
# 2 -0.000384 0.007748 -0.002465 0.000000 0.000000 0.000000
# 3 -0.002465 -0.002465 0.011992 0.000000 0.000000 0.000000
# 4 0.000000 0.000000 0.000000 0.106637 0.000000 0.000000
# 5 0.000000 0.000000 0.000000 0.000000 0.106637 0.000000
# 6 0.000000 0.000000 0.000000 0.000000 0.000000 0.016265
#
#
# Mechanical properties :
#
#
# Convention : Reuss Voigt Hill
#
# Bulk Modulus (GPa) = 59.31355 60.12298 59.71827
# Shear Modulus (GPa) = 18.29658 35.72336 27.00997
#
# Velocity S-wave (km/s) = 3.01089 4.20714 3.65824
# Velocity P-wave (km/s) = 6.44016 7.30680 6.88712
#
# Compressibility (1/GPa) = 0.01685955
#
# Stress axis : x y z
#
# Youngs Moduli (GPa) = 129.06126 129.06126 83.39189
#
# Poissons Ratio (x) = 0.04959 0.20556
# Poissons Ratio (y) = 0.04959 0.20556
# Poissons Ratio (z) = 0.31814 0.31814
#
# Static dielectric constant tensor:
#      x y z
#    x 1.783020 0.000000 0.000000 
#    y 0.000000 1.783020 0.000000 
#    z 0.000000 0.000000 1.949670 
# 
# From -- ./inp_files/947.got.cif
#   From: 2010.05.17/outbox.cif.g08.bks.cpg/sg173_cif.got.tgz:947.got - 2010.05.20 11:21:53.
