data_PCOD9581692
_publ_section_title
;
Structure prediction by ZEFSAII (Michael W. Deem and Ramdas Pophale) SiO2 
 PCOD9581692
Probable space group: P 6/M
;
_chemical_formula_sum "Si O2"
_cell_formula_units_Z 60
_cell_length_a 23.488504
_cell_length_b 23.488504
_cell_length_c 7.296013
_cell_angle_alpha 90.000000
_cell_angle_beta 90.000000
_cell_angle_gamma 120.000000
_cell_volume 3485.996487
_symmetry_space_group_name_H-M "P 6/M"
_symmetry_group_IT_number 175
_symmetry_cell_setting 'hexagonal'
loop_
_space_group_symop_operation_xyz
x,y,z
x-y,x,z
-y,x-y,z
-x,-y,z
-x+y,-x,z
y,-x+y,z
-x,-y,-z
-x+y,-x,-z
y,-x+y,-z
x,y,-z
x-y,x,-z
-y,x-y,-z
loop_
_atom_site_type_symbol
_atom_site_label
_atom_site_fract_x
_atom_site_fract_y
_atom_site_fract_z
Si Si1 0.272981 0.073901 0.777400
Si Si2 0.148265 0.426966 0.780599
Si Si3 0.851734 0.278700 0.780599
Si Si4 0.470968 0.392957 0.500000
Si Si5 0.529032 0.921989 0.500000
Si Si6 0.727019 0.800920 0.222600
O O1 0.349655 0.105011 0.731041
O O2 0.251322 0.125661 0.716819
O O3 0.229720 0.000000 0.711627
O O4 0.270812 0.072571 0.000000
O O5 0.223717 0.447434 0.734948
O O6 0.116075 0.462708 0.672739
O O7 0.105011 0.349655 0.731041
O O8 0.144833 0.432914 0.000000
O O9 0.883924 0.346632 0.672739
O O10 0.855166 0.288081 0.000000
O O11 0.541159 0.458841 0.500000
O O12 0.416674 0.416675 0.500000
O O13 0.729187 0.801758 0.000000
#
# Coordination Sequence:
#
# PCOD9581692 Si02
#       6
#    12  12  12   6   6  12
#     4   8  13  22  39  63  89 119 156 197 238 276
#     4   9  18  34  55  74  94 127 171 215 252 286
#     4   9  18  34  55  74  94 127 171 215 252 286
#     4  11  23  34  48  76 110 139 161 189 246 320
#     4  11  23  34  48  76 110 139 161 189 246 320
#     4   8  13  22  39  63  89 119 156 197 238 276
#
# _framework density 17.211721000000001
#
# number of rings (size 3 to 8) (size 9 to 14) (size 15 to 20)
#    0.000    3.000    0.000    4.200    0.000    3.200 
#    0.000    2.000    0.000    3.600    0.000    2.800 
#    0.000    0.000    0.000    0.000    0.000   41.600 
#
# Total GULP energy -334514.509660 kJ/mol
# GULP energy per Si atom -5575.241828 kJ/mol
# Density = 1.717255 g / cm^3
# Si number density = 17.211721 Si / 1000 Ang^3
#
#
#
# Elastic Constant Matrix: (Units=GPa)
#
#
# Indices 1 2 3 4 5 6 
#
# 1 119.0946 64.3705 39.2477 0.0000 0.0000 0.0000
# 2 64.3705 119.0946 39.2477 0.0000 0.0000 0.0000
# 3 39.2477 39.2477 87.7268 0.0000 0.0000 0.0000
# 4 0.0000 0.0000 0.0000 -8.3331 0.0000 0.0000
# 5 0.0000 0.0000 0.0000 0.0000 -8.3331 0.0000
# 6 0.0000 0.0000 0.0000 0.0000 0.0000 27.3621
#
#
#
# Elastic Compliance Matrix: (Units=1/GPa)
#
#
# Indices 1 2 3 4 5 6 
#
# 1 0.012507 -0.005766 -0.003016 0.000000 0.000000 0.000000
# 2 -0.005766 0.012507 -0.003016 0.000000 0.000000 0.000000
# 3 -0.003016 -0.003016 0.014097 0.000000 0.000000 0.000000
# 4 0.000000 0.000000 0.000000 -0.120004 0.000000 0.000000
# 5 0.000000 0.000000 0.000000 0.000000 -0.120004 0.000000
# 6 0.000000 0.000000 0.000000 0.000000 0.000000 0.036547
#
#
# Mechanical properties :
#
#
# Convention : Reuss Voigt Hill
#
# Bulk Modulus (GPa) = 64.44897 67.96088 66.20493
# Shear Modulus (GPa) = -36.87829 14.34253 -11.26788
#
# Velocity S-wave (km/s) = -4.63387 2.88983 -2.56141
# Velocity P-wave (km/s) = 2.98257 7.12080 5.45901
#
# Compressibility (1/GPa) = 0.01551615
#
# Stress axis : x y z
#
# Youngs Moduli (GPa) = 79.95396 79.95396 70.93465
#
# Poissons Ratio (x) = 0.46104 0.21392
# Poissons Ratio (y) = 0.46104 0.21392
# Poissons Ratio (z) = 0.24113 0.24113
#
# Static dielectric constant tensor:
#      x y z
#    x 1.564650 0.000000 0.000000 
#    y 0.000000 1.564650 0.000000 
#    z 0.000000 0.000000 1.661840 
# 
# From -- ./inp_files/934.got.cif
#   From: 2010.05.17/outbox.cif.g08.bks.cpg/sg175_1_cif.got.tgz:934.got - 2010.05.20 11:23:22.
