data_PCOD9581655
_publ_section_title
;
Structure prediction by ZEFSAII (Michael W. Deem and Ramdas Pophale) SiO2 
 PCOD9581655
Probable space group: P 6/M
;
_chemical_formula_sum "Si O2"
_cell_formula_units_Z 75
_cell_length_a 14.052679
_cell_length_b 14.052679
_cell_length_c 22.058685
_cell_angle_alpha 90.000000
_cell_angle_beta 90.000000
_cell_angle_gamma 120.000000
_cell_volume 3772.493521
_symmetry_space_group_name_H-M "P 6/M"
_symmetry_group_IT_number 175
_symmetry_cell_setting 'hexagonal'
loop_
_space_group_symop_operation_xyz
x,y,z
x-y,x,z
-y,x-y,z
-x,-y,z
-x+y,-x,z
y,-x+y,z
-x,-y,-z
-x+y,-x,-z
y,-x+y,-z
x,y,-z
x-y,x,-z
-y,x-y,-z
loop_
_atom_site_type_symbol
_atom_site_label
_atom_site_fract_x
_atom_site_fract_y
_atom_site_fract_z
Si Si1 0.595232 0.468584 0.866458
Si Si2 0.547843 0.686435 0.338191
Si Si3 0.446228 0.255111 0.800520
Si Si4 0.350679 0.457380 0.619255
Si Si5 0.952397 0.760992 0.131737
Si Si6 0.149364 0.663410 0.000000
Si Si7 0.660567 0.735644 0.000000
Si Si8 0.500000 0.500000 0.500000
O O1 0.500000 0.500000 0.866835
O O2 0.551597 0.358631 0.828435
O O3 0.705340 0.554104 0.831327
O O4 0.620975 0.454612 0.935981
O O5 0.555373 0.733838 0.271045
O O6 0.631839 0.639462 0.350435
O O7 0.429789 0.575084 0.347629
O O8 0.561943 0.788696 0.379670
O O9 0.344795 0.261741 0.828067
O O10 0.406840 0.473896 0.553514
O O11 0.861766 0.793377 0.144894
O O12 0.946164 0.728798 0.061320
O O13 0.224582 0.796050 0.000000
O O14 0.019683 0.628248 0.000000
#
# Coordination Sequence:
#
# PCOD9581655 Si02
#       8
#    12  12  12  12  12   6   6   3
#     4  12  27  42  66  89 121 166 220 285 355 426
#     4  10  23  39  66  98 145 186 236 286 346 415
#     4  12  25  42  63  92 123 173 218 271 333 416
#     4  10  22  43  68 109 147 194 238 292 349 403
#     4  12  24  41  65  89 118 155 207 271 339 418
#     4  12  25  44  63  88 122 156 211 289 359 432
#     4  12  20  42  62  88 116 151 206 264 362 414
#     4   8  20  40  72 110 144 184 232 272 324 386
#
# _framework density 19.880749000000002
#
# number of rings (size 3 to 8) (size 9 to 14) (size 15 to 20)
#    0.000    0.960    3.200    3.920    6.720    3.840 
#    0.000    0.800    0.000    0.320    0.000    0.000 
#    0.000    5.120    0.000    0.000    0.000    0.000 
#
# Total GULP energy -418105.057580 kJ/mol
# GULP energy per Si atom -5574.734101 kJ/mol
# Density = 1.983550 g / cm^3
# Si number density = 19.880749 Si / 1000 Ang^3
#
#
#
# Elastic Constant Matrix: (Units=GPa)
#
#
# Indices 1 2 3 4 5 6 
#
# 1 102.1399 29.1289 25.7877 0.0000 0.0000 0.0000
# 2 29.1289 102.1399 25.7877 0.0000 0.0000 0.0000
# 3 25.7877 25.7877 127.5032 0.0000 0.0000 0.0000
# 4 0.0000 0.0000 0.0000 40.1533 0.0000 0.0000
# 5 0.0000 0.0000 0.0000 0.0000 40.1533 0.0000
# 6 0.0000 0.0000 0.0000 0.0000 0.0000 36.5055
#
#
#
# Elastic Compliance Matrix: (Units=1/GPa)
#
#
# Indices 1 2 3 4 5 6 
#
# 1 0.010986 -0.002710 -0.001674 0.000000 0.000000 0.000000
# 2 -0.002710 0.010986 -0.001674 0.000000 0.000000 0.000000
# 3 -0.001674 -0.001674 0.008520 0.000000 0.000000 0.000000
# 4 0.000000 0.000000 0.000000 0.024905 0.000000 0.000000
# 5 0.000000 0.000000 0.000000 0.000000 0.024905 0.000000
# 6 0.000000 0.000000 0.000000 0.000000 0.000000 0.027393
#
#
# Mechanical properties :
#
#
# Convention : Reuss Voigt Hill
#
# Bulk Modulus (GPa) = 54.41842 54.79907 54.60875
# Shear Modulus (GPa) = 39.70280 40.10100 39.90190
#
# Velocity S-wave (km/s) = 4.47368 4.49606 4.48489
# Velocity P-wave (km/s) = 7.35642 7.38759 7.37202
#
# Compressibility (1/GPa) = 0.01837613
#
# Stress axis : x y z
#
# Youngs Moduli (GPa) = 91.02433 91.02433 117.37115
#
# Poissons Ratio (x) = 0.24672 0.19645
# Poissons Ratio (y) = 0.24672 0.19645
# Poissons Ratio (z) = 0.15235 0.15235
#
# Static dielectric constant tensor:
#      x y z
#    x 1.629500 0.000000 0.000000 
#    y 0.000000 1.629500 0.000000 
#    z 0.000000 0.000000 1.683480 
# 
# From -- ./inp_files/3146.got.cif
#   From: 2010.05.17/outbox.cif.g08.bks.cpg/sg175_2_cif.got.tgz:3146.got - 2010.05.20 11:23:22.
