data_PCOD9581027
_publ_section_title
;
Structure prediction by ZEFSAII (Michael W. Deem and Ramdas Pophale) SiO2 
 PCOD9581027
Probable space group: P 63
;
_chemical_formula_sum "Si O2"
_cell_formula_units_Z 42
_cell_length_a 20.027307
_cell_length_b 20.027307
_cell_length_c 5.359675
_cell_angle_alpha 90.000000
_cell_angle_beta 90.000000
_cell_angle_gamma 120.000000
_cell_volume 1861.719286
_symmetry_space_group_name_H-M "P 63"
_symmetry_group_IT_number 173
_symmetry_cell_setting 'hexagonal'
loop_
_space_group_symop_operation_xyz
x,y,z
x-y,x,1/2+z
-y,x-y,z
-x,-y,1/2+z
-x+y,-x,z
y,-x+y,1/2+z
loop_
_atom_site_type_symbol
_atom_site_label
_atom_site_fract_x
_atom_site_fract_y
_atom_site_fract_z
Si Si1 0.307973 0.224228 0.686800
Si Si2 0.741359 0.611675 0.551297
Si Si3 0.299709 0.256783 0.176167
Si Si4 0.300028 0.735042 0.208325
Si Si5 0.539633 0.743858 0.706265
Si Si6 0.514107 0.923496 0.212914
Si Si7 0.978894 0.572685 0.709782
O O1 0.263494 0.217632 0.436273
O O2 0.355075 0.180660 0.659374
O O3 0.367853 0.316171 0.708315
O O4 0.264194 0.200163 0.944301
O O5 0.716545 0.674538 0.613313
O O6 0.750252 0.586962 0.269892
O O7 0.678202 0.535852 0.690677
O O8 0.582193 0.551668 0.452559
O O9 0.390857 0.277277 0.194815
O O10 0.283660 0.770140 0.460829
O O11 0.253693 0.640465 0.209592
O O12 0.288648 0.773063 0.952571
O O13 0.429767 0.913069 0.217764
O O14 0.557238 0.972879 0.457822
#
# Coordination Sequence:
#
# PCOD9581027 Si02
#       7
#     6   6   6   6   6   6   6
#     4  11  22  40  66  90 130 167 210 272 331 398
#     4  11  24  42  66  95 127 173 220 270 344 397
#     4  11  24  42  65  90 131 168 214 273 335 402
#     4  10  23  47  72  92 129 176 227 291 349 420
#     4  11  23  43  67 101 127 173 225 282 349 416
#     4  10  21  37  62  84 121 159 220 254 321 384
#     4  10  19  39  58  88 119 164 204 272 309 381
#
# _framework density 22.559792999999999
#
# number of rings (size 3 to 8) (size 9 to 14) (size 15 to 20)
#    0.286    1.143    2.857    2.571    0.000    6.857 
#   12.857    0.000    0.000    0.571    0.000    0.000 
#    0.000    0.000    0.000   68.571    0.000    0.000 
#
# Total GULP energy -234251.200236 kJ/mol
# GULP energy per Si atom -5577.409529 kJ/mol
# Density = 2.250845 g / cm^3
# Si number density = 22.559793 Si / 1000 Ang^3
#
#
#
# Elastic Constant Matrix: (Units=GPa)
#
#
# Indices 1 2 3 4 5 6 
#
# 1 82.7089 16.9420 45.3320 0.0000 0.0000 0.0000
# 2 16.9420 82.7089 45.3320 0.0000 0.0000 0.0000
# 3 45.3320 45.3320 215.3018 0.0000 0.0000 0.0000
# 4 0.0000 0.0000 0.0000 35.2167 0.0000 0.0000
# 5 0.0000 0.0000 0.0000 0.0000 35.2167 0.0000
# 6 0.0000 0.0000 0.0000 0.0000 0.0000 32.8834
#
#
#
# Elastic Compliance Matrix: (Units=1/GPa)
#
#
# Indices 1 2 3 4 5 6 
#
# 1 0.013809 -0.001396 -0.002614 0.000000 0.000000 0.000000
# 2 -0.001396 0.013809 -0.002614 0.000000 0.000000 0.000000
# 3 -0.002614 -0.002614 0.005745 0.000000 0.000000 0.000000
# 4 0.000000 0.000000 0.000000 0.028396 0.000000 0.000000
# 5 0.000000 0.000000 0.000000 0.000000 0.028396 0.000000
# 6 0.000000 0.000000 0.000000 0.000000 0.000000 0.030410
#
#
# Mechanical properties :
#
#
# Convention : Reuss Voigt Hill
#
# Bulk Modulus (GPa) = 49.70973 66.21462 57.96218
# Shear Modulus (GPa) = 35.58287 38.87096 37.22691
#
# Velocity S-wave (km/s) = 3.97579 4.15543 4.06660
# Velocity P-wave (km/s) = 6.56951 7.24140 6.91362
#
# Compressibility (1/GPa) = 0.02011678
#
# Stress axis : x y z
#
# Youngs Moduli (GPa) = 72.41629 72.41629 174.05815
#
# Poissons Ratio (x) = 0.10111 0.45491
# Poissons Ratio (y) = 0.10111 0.45491
# Poissons Ratio (z) = 0.18926 0.18926
#
# Static dielectric constant tensor:
#      x y z
#    x 1.903240 0.000000 0.000000 
#    y 0.000000 1.903240 0.000000 
#    z 0.000000 0.000000 1.965200 
# 
# From -- ./inp_files/189.got.cif
#   From: 2010.05.17/outbox.cif.g08.bks.cpg/sg173_cif.got.tgz:189.got - 2010.05.20 11:21:53.
