data_PCOD9581589
_publ_section_title
;
Structure prediction by ZEFSAII (Michael W. Deem and Ramdas Pophale) SiO2 
 PCOD9581589
Probable space group: P 6/M
;
_chemical_formula_sum "Si O2"
_cell_formula_units_Z 82
_cell_length_a 22.460001
_cell_length_b 22.460001
_cell_length_c 10.636423
_cell_angle_alpha 90.000000
_cell_angle_beta 90.000000
_cell_angle_gamma 120.000000
_cell_volume 4646.712199
_symmetry_space_group_name_H-M "P 6/M"
_symmetry_group_IT_number 175
_symmetry_cell_setting 'hexagonal'
loop_
_space_group_symop_operation_xyz
x,y,z
x-y,x,z
-y,x-y,z
-x,-y,z
-x+y,-x,z
y,-x+y,z
-x,-y,-z
-x+y,-x,-z
y,-x+y,-z
x,y,-z
x-y,x,-z
-y,x-y,-z
loop_
_atom_site_type_symbol
_atom_site_label
_atom_site_fract_x
_atom_site_fract_y
_atom_site_fract_z
Si Si1 0.574382 0.567036 0.643195
Si Si2 0.720955 0.910970 0.644293
Si Si3 0.596007 0.677083 0.144525
Si Si4 0.151381 0.708956 0.643814
Si Si5 0.254922 0.201163 0.222104
Si Si6 0.489256 0.731615 0.148650
Si Si7 0.133020 0.984146 0.000000
Si Si8 0.333334 0.666668 0.150555
O O1 0.500000 0.500000 0.655361
O O2 0.580743 0.595225 0.500000
O O3 0.586005 0.621632 0.750641
O O4 0.632605 0.545763 0.654854
O O5 0.735970 0.905159 0.500000
O O6 0.639256 0.879315 0.658459
O O7 0.742088 0.863710 0.722993
O O8 0.758709 0.990787 0.681913
O O9 0.670021 0.744759 0.168157
O O10 0.535776 0.695871 0.158445
O O11 0.594309 0.653800 0.000000
O O12 0.179304 0.718138 0.500000
O O13 0.205460 0.725363 0.754177
O O14 0.196105 0.172899 0.117783
O O15 0.409502 0.683147 0.186085
O O16 0.492019 0.751435 0.000000
O O17 0.055700 0.921216 0.000000
O O18 0.333334 0.666668 0.000000
#
# Coordination Sequence:
#
# PCOD9581589 Si02
#       8
#    12  12  12  12  12  12   6   4
#     4  10  23  41  60  85 123 166 201 241 302 372
#     4  11  23  39  61  88 121 158 203 251 305 367
#     4  11  23  37  60  95 123 151 200 253 305 362
#     4  10  21  38  60  89 119 153 197 248 303 362
#     4  12  22  39  62  89 121 158 200 254 308 361
#     4  10  22  40  61  86 119 157 201 249 298 356
#     4  12  25  42  64  86 123 166 206 246 302 374
#     4   9  21  42  64  83 115 165 208 245 295 357
#
# _framework density 17.646885000000001
#
# number of rings (size 3 to 8) (size 9 to 14) (size 15 to 20)
#    0.000    1.317    5.122    0.512    2.049    2.049 
#    1.317    0.732    0.000    0.000    0.000    2.049 
#    0.000    0.000    0.000    0.000    0.000    0.000 
#
# Total GULP energy -457604.592089 kJ/mol
# GULP energy per Si atom -5580.543806 kJ/mol
# Density = 1.760672 g / cm^3
# Si number density = 17.646885 Si / 1000 Ang^3
#
#
#
# Elastic Constant Matrix: (Units=GPa)
#
#
# Indices 1 2 3 4 5 6 
#
# 1 49.1913 -10.5294 3.2010 0.0000 0.0000 -0.0019
# 2 -10.5294 49.1910 3.2013 0.0000 0.0000 -0.0024
# 3 3.2010 3.2013 58.0053 0.0000 0.0000 -0.0023
# 4 0.0000 0.0000 0.0000 18.4301 -0.0003 0.0000
# 5 0.0000 0.0000 0.0000 -0.0003 18.4290 0.0000
# 6 -0.0019 -0.0024 -0.0023 0.0000 0.0000 29.8608
#
#
#
# Elastic Compliance Matrix: (Units=1/GPa)
#
#
# Indices 1 2 3 4 5 6 
#
# 1 0.021424 0.004680 -0.001441 0.000000 0.000000 0.000002
# 2 0.004680 0.021424 -0.001441 0.000000 0.000000 0.000002
# 3 -0.001441 -0.001441 0.017399 0.000000 0.000000 0.000001
# 4 0.000000 0.000000 0.000000 0.054259 0.000001 0.000000
# 5 0.000000 0.000000 0.000000 0.000001 0.054262 0.000000
# 6 0.000002 0.000002 0.000001 0.000000 0.000000 0.033489
#
#
# Mechanical properties :
#
#
# Convention : Reuss Voigt Hill
#
# Bulk Modulus (GPa) = 15.66313 16.45927 16.06120
# Shear Modulus (GPa) = 22.73326 24.04495 23.38910
#
# Velocity S-wave (km/s) = 3.59309 3.69529 3.64455
# Velocity P-wave (km/s) = 5.10968 5.24921 5.17991
#
# Compressibility (1/GPa) = 0.06384422
#
# Stress axis : x y z
#
# Youngs Moduli (GPa) = 46.67619 46.67583 57.47515
#
# Poissons Ratio (x) = -0.21842 0.08280
# Poissons Ratio (y) = -0.21843 0.08280
# Poissons Ratio (z) = 0.06724 0.06724
#
# Static dielectric constant tensor:
#      x y z
#    x 1.577920 0.000000 0.000000 
#    y 0.000000 1.577930 0.000000 
#    z 0.000000 0.000000 1.601150 
# 
# From -- ./inp_files/2045.got.cif
#   From: 2010.05.17/outbox.cif.g08.bks.cpg/sg175_2_cif.got.tgz:2045.got - 2010.05.20 11:23:22.
