data_PCOD9581717
_publ_section_title
;
Structure prediction by ZEFSAII (Michael W. Deem and Ramdas Pophale) SiO2 
 PCOD9581717
Probable space group: P 6/M
;
_chemical_formula_sum "Si O2"
_cell_formula_units_Z 72
_cell_length_a 24.000000
_cell_length_b 24.000000
_cell_length_c 9.000000
_cell_angle_alpha 90.000000
_cell_angle_beta 90.000000
_cell_angle_gamma 120.000000
_cell_volume 4489.475693
_symmetry_space_group_name_H-M "P 6/M"
_symmetry_group_IT_number 175
_symmetry_cell_setting 'hexagonal'
loop_
_space_group_symop_operation_xyz
x,y,z
x-y,x,z
-y,x-y,z
-x,-y,z
-x+y,-x,z
y,-x+y,z
-x,-y,-z
-x+y,-x,-z
y,-x+y,-z
x,y,-z
x-y,x,-z
-y,x-y,-z
loop_
_atom_site_type_symbol
_atom_site_label
_atom_site_fract_x
_atom_site_fract_y
_atom_site_fract_z
Si Si1 0.524268 0.929829 0.680419
Si Si2 0.387400 0.262456 0.319247
Si Si3 0.743794 0.618169 0.321642
Si Si4 0.401737 0.926924 0.818157
Si Si5 0.000794 0.129628 0.819508
Si Si6 0.000904 0.261396 0.180367
O O1 0.521095 0.936070 0.500000
O O2 0.556793 0.885148 0.708082
O O3 0.454104 0.908287 0.753275
O O4 0.570929 0.000268 0.753792
O O5 0.389200 0.269001 0.500000
O O6 0.389724 0.196223 0.285004
O O7 0.444700 0.328824 0.245832
O O8 0.321806 0.258044 0.254645
O O9 0.746799 0.629209 0.500000
O O10 0.744972 0.679040 0.239859
O O11 0.402210 0.927289 0.000000
O O12 0.065592 0.129995 0.769240
O O13 0.001145 0.195419 0.781966
O O14 0.000723 0.127205 0.000000
O O15 0.004300 0.269243 0.000000
#
# Coordination Sequence:
#
# PCOD9581717 Si02
#       6
#    12  12  12  12  12  12
#     4  10  19  35  58  82 110 145 180 224 273 326
#     4  11  22  37  55  79 112 150 189 227 272 329
#     4  10  22  37  56  80 110 148 188 227 271 327
#     4  11  21  34  55  85 113 142 178 224 276 326
#     4   9  17  29  45  66  94 131 175 222 273 329
#     4  11  21  33  51  77 109 141 178 231 288 337
#
# _framework density 16.037507000000002
#
# number of rings (size 3 to 8) (size 9 to 14) (size 15 to 20)
#    0.000    1.667    1.667    5.167    0.000    4.000 
#    0.000    0.000    0.000    0.667    0.000    2.333 
#    0.000    8.000    0.000    0.000    0.000    0.000 
#
# Total GULP energy -401588.674611 kJ/mol
# GULP energy per Si atom -5577.620481 kJ/mol
# Density = 1.600101 g / cm^3
# Si number density = 16.037507 Si / 1000 Ang^3
#
#
#
# Elastic Constant Matrix: (Units=GPa)
#
#
# Indices 1 2 3 4 5 6 
#
# 1 153.5478 80.6250 48.3071 0.0000 0.0000 0.0000
# 2 80.6250 153.5478 48.3071 0.0000 0.0000 0.0000
# 3 48.3071 48.3071 100.2109 0.0000 0.0000 0.0000
# 4 0.0000 0.0000 0.0000 28.6329 0.0000 0.0000
# 5 0.0000 0.0000 0.0000 0.0000 28.6329 0.0000
# 6 0.0000 0.0000 0.0000 0.0000 0.0000 36.4614
#
#
#
# Elastic Compliance Matrix: (Units=1/GPa)
#
#
# Indices 1 2 3 4 5 6 
#
# 1 0.009522 -0.004191 -0.002570 0.000000 0.000000 0.000000
# 2 -0.004191 0.009522 -0.002570 0.000000 0.000000 0.000000
# 3 -0.002570 -0.002570 0.012456 0.000000 0.000000 0.000000
# 4 0.000000 0.000000 0.000000 0.034925 0.000000 0.000000
# 5 0.000000 0.000000 0.000000 0.000000 0.034925 0.000000
# 6 0.000000 0.000000 0.000000 0.000000 0.000000 0.027426
#
#
# Mechanical properties :
#
#
# Convention : Reuss Voigt Hill
#
# Bulk Modulus (GPa) = 77.88792 84.64274 81.26533
# Shear Modulus (GPa) = 32.95617 34.08325 33.51971
#
# Velocity S-wave (km/s) = 4.53807 4.61501 4.57670
# Velocity P-wave (km/s) = 8.72527 9.01612 8.87188
#
# Compressibility (1/GPa) = 0.01283896
#
# Stress axis : x y z
#
# Youngs Moduli (GPa) = 105.02195 105.02195 80.28055
#
# Poissons Ratio (x) = 0.44018 0.20629
# Poissons Ratio (y) = 0.44018 0.20629
# Poissons Ratio (z) = 0.26986 0.26986
#
# Static dielectric constant tensor:
#      x y z
#    x 1.544630 0.000000 0.000000 
#    y 0.000000 1.544630 0.000000 
#    z 0.000000 0.000000 1.542270 
# 
# From -- ./inp_files/1203.got.cif
#   From: 2010.05.17/outbox.ucp.g08.bks.cvg/sg175_1_cif.got.tgz:1203.got - 2010.06.11 15:18:44.
