data_PCOD9581081
_publ_section_title
;
Structure prediction by ZEFSAII (Michael W. Deem and Ramdas Pophale) SiO2 
 PCOD9581081
Probable space group: P 63
;
_chemical_formula_sum "Si O2"
_cell_formula_units_Z 48
_cell_length_a 15.053721
_cell_length_b 15.053721
_cell_length_c 9.229860
_cell_angle_alpha 90.000000
_cell_angle_beta 90.000000
_cell_angle_gamma 120.000000
_cell_volume 1811.396277
_symmetry_space_group_name_H-M "P 63"
_symmetry_group_IT_number 173
_symmetry_cell_setting 'hexagonal'
loop_
_space_group_symop_operation_xyz
x,y,z
x-y,x,1/2+z
-y,x-y,z
-x,-y,1/2+z
-x+y,-x,z
y,-x+y,1/2+z
loop_
_atom_site_type_symbol
_atom_site_label
_atom_site_fract_x
_atom_site_fract_y
_atom_site_fract_z
Si Si1 0.515321 0.227687 0.172920
Si Si2 0.216249 0.030211 0.117941
Si Si3 0.021216 0.804937 0.113364
Si Si4 0.642943 0.899131 0.883885
Si Si5 0.351580 0.038662 0.867670
Si Si6 0.672382 0.170506 0.442646
Si Si7 0.906472 0.439923 0.704977
Si Si8 0.113070 0.500532 0.518977
O O1 0.448590 0.127033 0.273277
O O2 0.554082 0.315032 0.302086
O O3 0.453114 0.271504 0.080232
O O4 0.451666 0.119794 0.780003
O O5 0.176518 0.106180 0.070287
O O6 0.260563 0.066301 0.278752
O O7 0.126523 0.913139 0.109105
O O8 0.314385 0.052360 0.022409
O O9 0.009462 0.756207 0.270237
O O10 0.020807 0.717512 0.010257
O O11 0.589171 0.790368 0.968444
O O12 0.625628 0.054231 0.388483
O O13 0.574714 0.195812 0.059737
O O14 0.609819 0.170605 0.581777
O O15 0.010664 0.474428 0.610377
O O16 0.907455 0.506273 0.845587
#
# Coordination Sequence:
#
# PCOD9581081 Si02
#       8
#     6   6   6   6   6   6   6   6
#     4  10  23  46  68 103 149 194 240 319 414 458
#     4  12  23  44  71 110 160 207 261 324 392 492
#     4  12  24  42  73 110 156 212 261 318 395 487
#     4  10  23  44  65 101 152 194 249 317 398 457
#     4  12  24  46  68 109 147 197 264 321 395 470
#     4  10  22  49  65 106 151 194 259 328 399 474
#     4  12  25  47  79 109 149 200 275 320 399 493
#     4  12  24  46  77 108 148 198 251 327 400 487
#
# _framework density 26.498895999999998
#
# number of rings (size 3 to 8) (size 9 to 14) (size 15 to 20)
#    0.750    0.000    5.000    2.000    0.000    2.000 
#    4.500    2.500    0.000    0.000    0.000    0.000 
#    0.000    0.000    0.000    0.000    0.000    0.000 
#
# Total GULP energy -267728.846771 kJ/mol
# GULP energy per Si atom -5577.684308 kJ/mol
# Density = 2.643858 g / cm^3
# Si number density = 26.498896 Si / 1000 Ang^3
#
#
#
# Elastic Constant Matrix: (Units=GPa)
#
#
# Indices 1 2 3 4 5 6 
#
# 1 100.3340 43.2999 45.4216 0.0000 0.0000 0.0000
# 2 43.2999 100.3340 45.4216 0.0000 0.0000 0.0000
# 3 45.4216 45.4216 171.2601 0.0000 0.0000 0.0000
# 4 0.0000 0.0000 0.0000 29.2902 0.0000 0.0000
# 5 0.0000 0.0000 0.0000 0.0000 29.2902 0.0000
# 6 0.0000 0.0000 0.0000 0.0000 0.0000 28.5171
#
#
#
# Elastic Compliance Matrix: (Units=1/GPa)
#
#
# Indices 1 2 3 4 5 6 
#
# 1 0.012949 -0.004584 -0.002219 0.000000 0.000000 0.000000
# 2 -0.004584 0.012949 -0.002219 0.000000 0.000000 0.000000
# 3 -0.002219 -0.002219 0.007016 0.000000 0.000000 0.000000
# 4 0.000000 0.000000 0.000000 0.034141 0.000000 0.000000
# 5 0.000000 0.000000 0.000000 0.000000 0.034141 0.000000
# 6 0.000000 0.000000 0.000000 0.000000 0.000000 0.035067
#
#
# Mechanical properties :
#
#
# Convention : Reuss Voigt Hill
#
# Bulk Modulus (GPa) = 67.24033 71.13490 69.18762
# Shear Modulus (GPa) = 31.39452 33.27185 32.33319
#
# Velocity S-wave (km/s) = 3.44575 3.54728 3.49688
# Velocity P-wave (km/s) = 6.42346 6.60911 6.51694
#
# Compressibility (1/GPa) = 0.01487203
#
# Stress axis : x y z
#
# Youngs Moduli (GPa) = 77.22391 77.22391 142.53259
#
# Poissons Ratio (x) = 0.35399 0.31623
# Poissons Ratio (y) = 0.35399 0.31623
# Poissons Ratio (z) = 0.17133 0.17133
#
# Static dielectric constant tensor:
#      x y z
#    x 2.212120 0.000000 0.000000 
#    y 0.000000 2.212120 0.000000 
#    z 0.000000 0.000000 2.057640 
# 
# From -- ./inp_files/711.got.cif
#   From: 2010.05.17/outbox.cif.g08.bks.cpg/sg173_cif.got.tgz:711.got - 2010.05.20 11:21:53.
