data_PCOD9581784
_publ_section_title
;
Structure prediction by ZEFSAII (Michael W. Deem and Ramdas Pophale) SiO2 
 PCOD9581784
Probable space group: P 63/M
;
_chemical_formula_sum "Si O2"
_cell_formula_units_Z 72
_cell_length_a 24.715230
_cell_length_b 24.715230
_cell_length_c 9.139111
_cell_angle_alpha 90.000000
_cell_angle_beta 90.000000
_cell_angle_gamma 120.000000
_cell_volume 4834.637280
_symmetry_space_group_name_H-M "P 63/M"
_symmetry_group_IT_number 176
_symmetry_cell_setting 'hexagonal'
loop_
_space_group_symop_operation_xyz
x,y,z
x-y,x,1/2+z
-y,x-y,z
-x,-y,1/2+z
-x+y,-x,z
y,-x+y,1/2+z
-x,-y,-z
-x+y,-x,1/2-z
y,-x+y,-z
x,y,1/2-z
x-y,x,-z
-y,x-y,1/2-z
loop_
_atom_site_type_symbol
_atom_site_label
_atom_site_fract_x
_atom_site_fract_y
_atom_site_fract_z
Si Si1 0.634136 0.149822 0.075130
Si Si2 0.819289 0.634132 0.582925
Si Si3 0.739241 0.482360 0.582190
Si Si4 0.633745 0.491876 0.075449
Si Si5 0.069849 0.695809 0.427725
Si Si6 0.073732 0.370584 0.574686
O O1 0.643633 0.160698 0.250000
O O2 0.561644 0.124538 0.044625
O O3 0.658646 0.102377 0.033662
O O4 0.677208 0.214861 0.992267
O O5 0.836378 0.655311 0.750000
O O6 0.779596 0.558274 0.583476
O O7 0.768038 0.651676 0.529063
O O8 0.880678 0.651889 0.491186
O O9 0.723931 0.461112 0.750000
O O10 0.678687 0.467434 0.488518
O O11 0.642501 0.500635 0.250000
O O12 0.654432 0.557694 0.998350
O O13 0.073857 0.692989 0.250000
O O14 0.998294 0.669332 0.470338
O O15 0.076046 0.368253 0.750000
#
# Coordination Sequence:
#
# PCOD9581784 Si02
#       6
#    12  12  12  12  12  12
#     4   9  18  31  45  62  84 110 141 182 229 272
#     4   8  15  28  44  62  84 108 135 170 208 246
#     4   9  17  30  46  60  76 104 141 177 219 269
#     4  10  19  30  44  62  85 111 141 182 228 271
#     4   9  18  31  46  65  89 116 145 177 214 258
#     4   9  17  30  47  65  86 114 146 176 212 259
#
# _framework density 14.892533999999999
#
# number of rings (size 3 to 8) (size 9 to 14) (size 15 to 20)
#    0.000    3.000    0.000    2.000    0.000    6.667 
#    1.000    0.000    0.000    0.000    0.000    0.000 
#    0.000    0.000    0.000    0.500    0.000    6.000 
#
# Total GULP energy -400887.811678 kJ/mol
# GULP energy per Si atom -5567.886273 kJ/mol
# Density = 1.485864 g / cm^3
# Si number density = 14.892534 Si / 1000 Ang^3
#
#
#
# Elastic Constant Matrix: (Units=GPa)
#
#
# Indices 1 2 3 4 5 6 
#
# 1 85.7829 59.4213 32.3079 0.0000 0.0000 0.0000
# 2 59.4213 85.7829 32.3079 0.0000 0.0000 0.0000
# 3 32.3079 32.3079 30.2369 0.0000 0.0000 0.0000
# 4 0.0000 0.0000 0.0000 19.0011 0.0000 0.0000
# 5 0.0000 0.0000 0.0000 0.0000 19.0011 0.0000
# 6 0.0000 0.0000 0.0000 0.0000 0.0000 13.1808
#
#
#
# Elastic Compliance Matrix: (Units=1/GPa)
#
#
# Indices 1 2 3 4 5 6 
#
# 1 0.025532 -0.012402 -0.014029 0.000000 0.000000 0.000000
# 2 -0.012402 0.025532 -0.014029 0.000000 0.000000 0.000000
# 3 -0.014029 -0.014029 0.063052 0.000000 0.000000 0.000000
# 4 0.000000 0.000000 0.000000 0.052628 0.000000 0.000000
# 5 0.000000 0.000000 0.000000 0.000000 0.052628 0.000000
# 6 0.000000 0.000000 0.000000 0.000000 0.000000 0.075868
#
#
# Mechanical properties :
#
#
# Convention : Reuss Voigt Hill
#
# Bulk Modulus (GPa) = 30.12468 49.98633 40.05551
# Shear Modulus (GPa) = 12.91234 15.42099 14.16666
#
# Velocity S-wave (km/s) = 2.94774 3.22139 3.08760
# Velocity P-wave (km/s) = 5.64425 6.89014 6.29808
#
# Compressibility (1/GPa) = 0.03319537
#
# Stress axis : x y z
#
# Youngs Moduli (GPa) = 39.16673 39.16673 15.85987
#
# Poissons Ratio (x) = 0.48575 0.22250
# Poissons Ratio (y) = 0.48575 0.22250
# Poissons Ratio (z) = 0.54947 0.54947
#
# Static dielectric constant tensor:
#      x y z
#    x 1.490350 0.000000 0.000000 
#    y 0.000000 1.490350 0.000000 
#    z 0.000000 0.000000 1.504520 
# 
# From -- ./inp_files/1146.got.cif
#   From: 2010.05.17/outbox.cif.g08.bks.cpg/sg176_1_cif.got.tgz:1146.got - 2010.06.03 11:36:45.
