data_PCOD9581126
_publ_section_title
;
Structure prediction by ZEFSAII (Michael W. Deem and Ramdas Pophale) SiO2 
 PCOD9581126
Probable space group: P -6
;
_chemical_formula_sum "Si O2"
_cell_formula_units_Z 36
_cell_length_a 18.941000
_cell_length_b 18.941000
_cell_length_c 8.433442
_cell_angle_alpha 90.000000
_cell_angle_beta 90.000000
_cell_angle_gamma 120.000000
_cell_volume 2620.241388
_symmetry_space_group_name_H-M "P -6"
_symmetry_group_IT_number 174
_symmetry_cell_setting 'hexagonal'
loop_
_space_group_symop_operation_xyz
x,y,z
-x+y,-x,-z
-y,x-y,z
x,y,-z
-x+y,-x,z
-y,x-y,-z
loop_
_atom_site_type_symbol
_atom_site_label
_atom_site_fract_x
_atom_site_fract_y
_atom_site_fract_z
Si Si1 0.503831 0.171839 0.693061
Si Si2 0.329538 0.820039 0.812861
Si Si3 0.581883 0.588742 0.313293
Si Si4 0.170324 0.665256 0.312111
Si Si5 0.830706 0.497921 0.692251
Si Si6 0.426933 0.428219 0.813099
O O1 0.503674 0.171253 0.500000
O O2 0.495595 0.248434 0.743747
O O3 0.590864 0.181317 0.739992
O O4 0.431445 0.082541 0.743201
O O5 0.347441 0.911052 0.774168
O O6 0.407795 0.815371 0.749964
O O7 0.248235 0.750567 0.732329
O O8 0.324099 0.806916 0.000000
O O9 0.591685 0.607314 0.500000
O O10 0.499633 0.502001 0.285229
O O11 0.159694 0.657288 0.500000
O O12 0.086761 0.651198 0.232696
O O13 0.835563 0.502225 0.500000
O O14 0.916531 0.566282 0.763794
O O15 0.442805 0.444006 0.000000
#
# Coordination Sequence:
#
# PCOD9581126 Si02
#       6
#     6   6   6   6   6   6
#     4   8  14  23  40  59  76  99 134 169 195 224
#     4  11  20  30  42  59  80 102 127 162 201 237
#     4   9  16  28  42  57  75 101 132 162 194 233
#     4  11  20  31  44  58  75 101 134 166 194 231
#     4   9  15  26  41  58  77 103 135 168 199 231
#     4  10  18  28  39  55  77 102 128 161 201 238
#
# _framework density 13.739191999999999
#
# number of rings (size 3 to 8) (size 9 to 14) (size 15 to 20)
#    0.000    2.333    0.000    8.667    0.000    1.333 
#    0.000    4.167    0.000    0.000    0.000    0.000 
#    0.000    0.000    0.000    1.000    0.000   16.333 
#
# Total GULP energy -200549.625355 kJ/mol
# GULP energy per Si atom -5570.822927 kJ/mol
# Density = 1.370792 g / cm^3
# Si number density = 13.739192 Si / 1000 Ang^3
#
#
#
# Elastic Constant Matrix: (Units=GPa)
#
#
# Indices 1 2 3 4 5 6 
#
# 1 73.9107 36.3286 7.4566 0.0000 0.0000 0.0000
# 2 36.3286 73.9107 7.4566 0.0000 0.0000 0.0000
# 3 7.4566 7.4566 43.0170 0.0000 0.0000 0.0000
# 4 0.0000 0.0000 0.0000 -5.8798 0.0000 0.0000
# 5 0.0000 0.0000 0.0000 0.0000 -5.8798 0.0000
# 6 0.0000 0.0000 0.0000 0.0000 0.0000 18.7910
#
#
#
# Elastic Compliance Matrix: (Units=1/GPa)
#
#
# Indices 1 2 3 4 5 6 
#
# 1 0.017949 -0.008660 -0.001610 0.000000 0.000000 0.000000
# 2 -0.008660 0.017949 -0.001610 0.000000 0.000000 0.000000
# 3 -0.001610 -0.001610 0.023805 0.000000 0.000000 0.000000
# 4 0.000000 0.000000 0.000000 -0.170075 0.000000 0.000000
# 5 0.000000 0.000000 0.000000 0.000000 -0.170075 0.000000
# 6 0.000000 0.000000 0.000000 0.000000 0.000000 0.053217
#
#
# Mechanical properties :
#
#
# Convention : Reuss Voigt Hill
#
# Bulk Modulus (GPa) = 27.82247 32.59135 30.20691
# Shear Modulus (GPa) = -26.11103 10.71273 -7.69915
#
# Velocity S-wave (km/s) = -4.36418 2.79538 -2.36980
# Velocity P-wave (km/s) = 2.25839 5.84737 3.81389
#
# Compressibility (1/GPa) = 0.03594217
#
# Stress axis : x y z
#
# Youngs Moduli (GPa) = 55.71431 55.71431 42.00822
#
# Poissons Ratio (x) = 0.48247 0.06764
# Poissons Ratio (y) = 0.48247 0.06764
# Poissons Ratio (z) = 0.08971 0.08971
#
# Static dielectric constant tensor:
#      x y z
#    x 1.461000 0.000000 0.000000 
#    y 0.000000 1.461000 0.000000 
#    z 0.000000 0.000000 1.460310 
# 
# From -- ./inp_files/415.got.cif
#   From: 2010.05.17/outbox.cif.g08.bks.cpg/sg174_cif.got.tgz:415.got - 2010.05.20 11:22:48.
