data_PCOD9581908
_publ_section_title
;
Structure prediction by ZEFSAII (Michael W. Deem and Ramdas Pophale) SiO2 
 PCOD9581908
Probable space group: P 63/M
;
_chemical_formula_sum "Si O2"
_cell_formula_units_Z 90
_cell_length_a 23.250136
_cell_length_b 23.250136
_cell_length_c 9.202811
_cell_angle_alpha 90.000000
_cell_angle_beta 90.000000
_cell_angle_gamma 120.000000
_cell_volume 4308.262233
_symmetry_space_group_name_H-M "P 63/M"
_symmetry_group_IT_number 176
_symmetry_cell_setting 'hexagonal'
loop_
_space_group_symop_operation_xyz
x,y,z
x-y,x,1/2+z
-y,x-y,z
-x,-y,1/2+z
-x+y,-x,z
y,-x+y,1/2+z
-x,-y,-z
-x+y,-x,1/2-z
y,-x+y,-z
x,y,1/2-z
x-y,x,-z
-y,x-y,1/2-z
loop_
_atom_site_type_symbol
_atom_site_label
_atom_site_fract_x
_atom_site_fract_y
_atom_site_fract_z
Si Si1 0.922025 0.414111 0.984133
Si Si2 0.891409 0.029918 0.073483
Si Si3 0.487986 0.465866 0.750000
Si Si4 0.239669 0.309473 0.914385
Si Si5 0.723149 0.536038 0.415861
Si Si6 0.421714 0.274557 0.918170
Si Si7 0.156525 0.888776 0.082409
Si Si8 0.977235 0.633791 0.088256
O O1 0.968146 0.389027 0.904623
O O2 0.924025 0.468311 0.877271
O O3 0.964646 0.447581 0.126434
O O4 0.851128 0.351059 0.020570
O O5 0.893368 0.026560 0.250000
O O6 0.840308 0.053901 0.019765
O O7 0.961667 0.085806 0.004588
O O8 0.224453 0.282562 0.750000
O O9 0.257152 0.386180 0.908635
O O10 0.178589 0.272826 0.022339
O O11 0.305121 0.313020 0.976932
O O12 0.725082 0.515346 0.250000
O O13 0.779164 0.535860 0.517260
O O14 0.436135 0.295307 0.750000
O O15 0.343793 0.215987 0.924362
O O16 0.421726 0.329731 0.022215
O O17 0.147797 0.901769 0.250000
O O18 0.967213 0.652475 0.250000
#
# Coordination Sequence:
#
# PCOD9581908 Si02
#       8
#    12  12   6  12  12  12  12  12
#     4  10  20  34  55  81 111 148 190 233 279 317
#     4  12  26  44  63  78  96 119 156 209 279 340
#     4  10  20  34  54  82 110 144 190 228 268 324
#     4   9  18  31  51  72  99 134 173 215 262 316
#     4   9  17  32  50  72 103 142 180 221 269 319
#     4  10  22  34  52  75 106 144 187 224 269 331
#     4  10  21  38  55  78 102 129 170 217 268 324
#     4  11  21  33  50  75 109 148 186 224 273 322
#
# _framework density 20.890094000000001
#
# number of rings (size 3 to 8) (size 9 to 14) (size 15 to 20)
#    0.000    1.867    1.333    2.933    4.667    3.200 
#    0.000    0.000    0.000    0.000    0.000    0.000 
#    0.000    0.000    0.000   16.000    0.000    0.000 
#
# Total GULP energy -501044.151855 kJ/mol
# GULP energy per Si atom -5567.157243 kJ/mol
# Density = 2.084255 g / cm^3
# Si number density = 20.890094 Si / 1000 Ang^3
#
#
#
# Elastic Constant Matrix: (Units=GPa)
#
#
# Indices 1 2 3 4 5 6 
#
# 1 39.0732 -11.1621 4.8627 0.0000 0.0000 0.0000
# 2 -11.1621 39.0732 4.8627 0.0000 0.0000 0.0000
# 3 4.8627 4.8627 145.0330 0.0000 0.0000 0.0000
# 4 0.0000 0.0000 0.0000 -4.4828 0.0000 0.0000
# 5 0.0000 0.0000 0.0000 0.0000 -4.4828 0.0000
# 6 0.0000 0.0000 0.0000 0.0000 0.0000 25.1176
#
#
#
# Elastic Compliance Matrix: (Units=1/GPa)
#
#
# Indices 1 2 3 4 5 6 
#
# 1 0.028079 0.008173 -0.001215 0.000000 0.000000 0.000000
# 2 0.008173 0.028079 -0.001215 0.000000 0.000000 0.000000
# 3 -0.001215 -0.001215 0.006976 0.000000 0.000000 0.000000
# 4 0.000000 0.000000 0.000000 -0.223073 0.000000 0.000000
# 5 0.000000 0.000000 0.000000 0.000000 -0.223073 0.000000
# 6 0.000000 0.000000 0.000000 0.000000 0.000000 0.039813
#
#
# Mechanical properties :
#
#
# Convention : Reuss Voigt Hill
#
# Bulk Modulus (GPa) = 13.40166 24.47845 18.94006
# Shear Modulus (GPa) = -15.16027 18.20480 1.52227
#
# Velocity S-wave (km/s) = -2.69683 2.95525 0.85457
# Velocity P-wave (km/s) = 1.80775 4.83609 3.17174
#
# Compressibility (1/GPa) = 0.07461760
#
# Stress axis : x y z
#
# Youngs Moduli (GPa) = 35.61395 35.61395 143.33861
#
# Poissons Ratio (x) = -0.29106 0.17422
# Poissons Ratio (y) = -0.29106 0.17422
# Poissons Ratio (z) = 0.04329 0.04329
#
# Static dielectric constant tensor:
#      x y z
#    x 1.803410 0.000000 0.000000 
#    y 0.000000 1.803410 0.000000 
#    z 0.000000 0.000000 1.722260 
# 
# From -- ./inp_files/1410.got.cif
#   From: 2010.05.17/outbox.cif.g08.bks.cpg/sg176_1_cif.got.tgz:1410.got - 2010.06.03 11:36:45.
