data_PCOD9581614
_publ_section_title
;
Structure prediction by ZEFSAII (Michael W. Deem and Ramdas Pophale) SiO2 
 PCOD9581614
Probable space group: P 6/M
;
_chemical_formula_sum "Si O2"
_cell_formula_units_Z 78
_cell_length_a 24.698499
_cell_length_b 24.698499
_cell_length_c 7.380945
_cell_angle_alpha 90.000000
_cell_angle_beta 90.000000
_cell_angle_gamma 120.000000
_cell_volume 3899.273716
_symmetry_space_group_name_H-M "P 6/M"
_symmetry_group_IT_number 175
_symmetry_cell_setting 'hexagonal'
loop_
_space_group_symop_operation_xyz
x,y,z
x-y,x,z
-y,x-y,z
-x,-y,z
-x+y,-x,z
y,-x+y,z
-x,-y,-z
-x+y,-x,-z
y,-x+y,-z
x,y,-z
x-y,x,-z
-y,x-y,-z
loop_
_atom_site_type_symbol
_atom_site_label
_atom_site_fract_x
_atom_site_fract_y
_atom_site_fract_z
Si Si1 0.733551 0.887412 0.714028
Si Si2 0.453474 0.024461 0.220651
Si Si3 0.589457 0.791745 0.782095
Si Si4 0.253546 0.643684 0.500000
Si Si5 0.778594 0.024848 0.279655
Si Si6 0.511777 0.169276 0.218934
Si Si7 0.316669 0.926987 0.788964
O O1 0.746021 0.893847 0.500000
O O2 0.658563 0.848305 0.736733
O O3 0.759665 0.843437 0.784409
O O4 0.763006 0.957167 0.786766
O O5 0.479858 0.096385 0.272072
O O6 0.500000 0.000000 0.274069
O O7 0.384394 0.974717 0.287762
O O8 0.451104 0.024754 0.000000
O O9 0.535658 0.806215 0.726942
O O10 0.584981 0.727686 0.712503
O O11 0.587112 0.788047 0.000000
O O12 0.286456 0.601433 0.500000
O O13 0.211216 0.635219 0.325639
O O14 0.778861 0.024889 0.500000
O O15 0.724758 0.039629 0.222922
O O16 0.520212 0.174129 0.000000
O O17 0.326709 0.918215 0.000000
#
# Coordination Sequence:
#
# PCOD9581614 Si02
#       7
#    12  12  12   6  12  12  12
#     4   9  17  28  45  68  99 137 171 218 266 323
#     4   9  18  33  55  83 113 146 181 224 279 334
#     4   9  18  31  52  83 108 139 179 216 273 334
#     4  10  26  46  61  86 114 142 192 248 288 325
#     4   9  17  29  44  66  95 130 172 209 263 317
#     4  10  21  39  64  87 114 153 192 233 289 349
#     4   9  17  31  50  76 109 135 168 216 263 323
#
# _framework density 20.003726
#
# number of rings (size 3 to 8) (size 9 to 14) (size 15 to 20)
#    0.154    2.615    0.000    0.923    1.077    3.692 
#    1.385    3.462    0.000    0.308    0.000    2.154 
#    0.000    0.000    0.000    7.692    0.000    8.000 
#
# Total GULP energy -435131.891658 kJ/mol
# GULP energy per Si atom -5578.613996 kJ/mol
# Density = 1.995820 g / cm^3
# Si number density = 20.003726 Si / 1000 Ang^3
#
#
#
# Elastic Constant Matrix: (Units=GPa)
#
#
# Indices 1 2 3 4 5 6 
#
# 1 120.1421 62.8156 12.8572 0.0000 0.0000 0.0000
# 2 62.8156 120.1421 12.8572 0.0000 0.0000 0.0000
# 3 12.8572 12.8572 77.4132 0.0000 0.0000 0.0000
# 4 0.0000 0.0000 0.0000 12.1202 0.0000 0.0000
# 5 0.0000 0.0000 0.0000 0.0000 12.1202 0.0000
# 6 0.0000 0.0000 0.0000 0.0000 0.0000 28.6633
#
#
#
# Elastic Compliance Matrix: (Units=1/GPa)
#
#
# Indices 1 2 3 4 5 6 
#
# 1 0.011520 -0.005924 -0.000929 0.000000 0.000000 0.000000
# 2 -0.005924 0.011520 -0.000929 0.000000 0.000000 0.000000
# 3 -0.000929 -0.000929 0.013226 0.000000 0.000000 0.000000
# 4 0.000000 0.000000 0.000000 0.082507 0.000000 0.000000
# 5 0.000000 0.000000 0.000000 0.000000 0.082507 0.000000
# 6 0.000000 0.000000 0.000000 0.000000 0.000000 0.034888
#
#
# Mechanical properties :
#
#
# Convention : Reuss Voigt Hill
#
# Bulk Modulus (GPa) = 48.30615 54.97303 51.63959
# Shear Modulus (GPa) = 19.33229 25.85855 22.59542
#
# Velocity S-wave (km/s) = 3.11213 3.59930 3.36454
# Velocity P-wave (km/s) = 6.09219 6.69435 6.40035
#
# Compressibility (1/GPa) = 0.02070130
#
# Stress axis : x y z
#
# Youngs Moduli (GPa) = 86.80436 86.80436 75.60619
#
# Poissons Ratio (x) = 0.51421 0.07027
# Poissons Ratio (y) = 0.51421 0.07027
# Poissons Ratio (z) = 0.08068 0.08068
#
# Static dielectric constant tensor:
#      x y z
#    x 1.691560 0.000000 0.000000 
#    y 0.000000 1.691560 0.000000 
#    z 0.000000 0.000000 1.767900 
# 
# From -- ./inp_files/1342.got.cif
#   From: 2010.05.17/outbox.cif.g08.bks.cpg/sg175_1_cif.got.tgz:1342.got - 2010.05.20 11:23:22.
