data_PCOD9581737
_publ_section_title
;
Structure prediction by ZEFSAII (Michael W. Deem and Ramdas Pophale) SiO2 
 PCOD9581737
Probable space group: P 63/M
;
_chemical_formula_sum "Si O2"
_cell_formula_units_Z 84
_cell_length_a 24.810510
_cell_length_b 24.810510
_cell_length_c 9.917032
_cell_angle_alpha 90.000000
_cell_angle_beta 90.000000
_cell_angle_gamma 120.000000
_cell_volume 5286.688594
_symmetry_space_group_name_H-M "P 63/M"
_symmetry_group_IT_number 176
_symmetry_cell_setting 'hexagonal'
loop_
_space_group_symop_operation_xyz
x,y,z
x-y,x,1/2+z
-y,x-y,z
-x,-y,1/2+z
-x+y,-x,z
y,-x+y,1/2+z
-x,-y,-z
-x+y,-x,1/2-z
y,-x+y,-z
x,y,1/2-z
x-y,x,-z
-y,x-y,1/2-z
loop_
_atom_site_type_symbol
_atom_site_label
_atom_site_fract_x
_atom_site_fract_y
_atom_site_fract_z
Si Si1 0.285964 0.921817 0.905614
Si Si2 0.189482 0.382964 0.411919
Si Si3 0.056591 0.591347 0.898810
Si Si4 0.369428 0.065337 0.909983
Si Si5 0.208275 0.587482 0.095622
Si Si6 0.757054 0.282117 0.914636
Si Si7 0.514399 0.595856 0.004315
O O1 0.265433 0.911336 0.750000
O O2 0.345952 0.912235 0.920777
O O3 0.314442 0.995137 0.938792
O O4 0.232122 0.873954 0.004904
O O5 0.177816 0.380556 0.250000
O O6 0.233589 0.353119 0.437192
O O7 0.235010 0.454861 0.455618
O O8 0.076049 0.618336 0.750000
O O9 0.075869 0.539031 0.923717
O O10 0.076246 0.645809 0.008534
O O11 0.981467 0.551949 0.911006
O O12 0.384009 0.068583 0.750000
O O13 0.228310 0.604184 0.250000
O O14 0.205161 0.646337 0.040112
O O15 0.257125 0.570232 0.034989
O O16 0.142741 0.524873 0.091435
O O17 0.758504 0.279731 0.750000
#
# Coordination Sequence:
#
# PCOD9581737 Si02
#       7
#    12  12  12  12  12  12  12
#     4  10  20  34  51  72  98 129 158 193 242 293
#     4  10  19  34  52  72  95 126 163 199 239 291
#     4  10  20  31  47  70  93 122 160 199 241 294
#     4   9  20  36  52  72 101 129 157 199 252 295
#     4  10  17  27  42  63  86 113 151 197 240 285
#     4   9  17  26  41  64  88 113 149 197 245 284
#     4  10  19  30  45  64  93 124 152 195 245 293
#
# _framework density 15.888963
#
# number of rings (size 3 to 8) (size 9 to 14) (size 15 to 20)
#    0.000    2.286    1.429    2.000    0.000    9.143 
#    0.000    0.000    0.000    0.000    0.000    0.000 
#    0.000    0.000    0.000    0.429    0.000    5.143 
#
# Total GULP energy -467718.419431 kJ/mol
# GULP energy per Si atom -5568.076422 kJ/mol
# Density = 1.585280 g / cm^3
# Si number density = 15.888963 Si / 1000 Ang^3
#
#
#
# Elastic Constant Matrix: (Units=GPa)
#
#
# Indices 1 2 3 4 5 6 
#
# 1 87.7128 39.4510 32.8766 0.0000 0.0000 0.0000
# 2 39.4510 87.7128 32.8766 0.0000 0.0000 0.0000
# 3 32.8766 32.8766 52.3621 0.0000 0.0000 0.0000
# 4 0.0000 0.0000 0.0000 6.0094 0.0000 0.0000
# 5 0.0000 0.0000 0.0000 0.0000 6.0094 0.0000
# 6 0.0000 0.0000 0.0000 0.0000 0.0000 24.1309
#
#
#
# Elastic Compliance Matrix: (Units=1/GPa)
#
#
# Indices 1 2 3 4 5 6 
#
# 1 0.016182 -0.004538 -0.007311 0.000000 0.000000 0.000000
# 2 -0.004538 0.016182 -0.007311 0.000000 0.000000 0.000000
# 3 -0.007311 -0.007311 0.028279 0.000000 0.000000 0.000000
# 4 0.000000 0.000000 0.000000 0.166407 0.000000 0.000000
# 5 0.000000 0.000000 0.000000 0.000000 0.166407 0.000000
# 6 0.000000 0.000000 0.000000 0.000000 0.000000 0.041441
#
#
# Mechanical properties :
#
#
# Convention : Reuss Voigt Hill
#
# Bulk Modulus (GPa) = 44.79729 48.68846 46.74287
# Shear Modulus (GPa) = 10.40238 15.40215 12.90227
#
# Velocity S-wave (km/s) = 2.56147 3.11684 2.85270
# Velocity P-wave (km/s) = 6.08304 6.60775 6.35081
#
# Compressibility (1/GPa) = 0.02232278
#
# Stress axis : x y z
#
# Youngs Moduli (GPa) = 61.79596 61.79596 35.36248
#
# Poissons Ratio (x) = 0.28043 0.25854
# Poissons Ratio (y) = 0.28043 0.25854
# Poissons Ratio (z) = 0.45179 0.45179
#
# Static dielectric constant tensor:
#      x y z
#    x 1.552000 0.000000 0.000000 
#    y 0.000000 1.552000 0.000000 
#    z 0.000000 0.000000 1.552060 
# 
# From -- ./inp_files/2154.got.cif
#   From: 2010.05.17/outbox.cif.g08.bks.cpg/sg176_2_cif.got.tgz:2154.got - 2010.06.03 11:36:45.
