data_PCOD9581467
_publ_section_title
;
Structure prediction by ZEFSAII (Michael W. Deem and Ramdas Pophale) SiO2 
 PCOD9581467
Probable space group: P 6/M
;
_chemical_formula_sum "Si O2"
_cell_formula_units_Z 66
_cell_length_a 21.660575
_cell_length_b 21.660575
_cell_length_c 8.993917
_cell_angle_alpha 90.000000
_cell_angle_beta 90.000000
_cell_angle_gamma 120.000000
_cell_volume 3654.428502
_symmetry_space_group_name_H-M "P 6/M"
_symmetry_group_IT_number 175
_symmetry_cell_setting 'hexagonal'
loop_
_space_group_symop_operation_xyz
x,y,z
x-y,x,z
-y,x-y,z
-x,-y,z
-x+y,-x,z
y,-x+y,z
-x,-y,-z
-x+y,-x,-z
y,-x+y,-z
x,y,-z
x-y,x,-z
-y,x-y,-z
loop_
_atom_site_type_symbol
_atom_site_label
_atom_site_fract_x
_atom_site_fract_y
_atom_site_fract_z
Si Si1 0.018598 0.862176 0.000000
Si Si2 0.728875 0.751047 0.833915
Si Si3 0.689972 0.211837 0.822553
Si Si4 0.546884 0.188000 0.679235
Si Si5 0.848915 0.623017 0.331566
Si Si6 0.083851 0.695254 0.330111
O O1 0.942005 0.857987 0.000000
O O2 0.018861 0.814247 0.860400
O O3 0.698190 0.786161 0.723088
O O4 0.698907 0.670993 0.778259
O O5 0.701653 0.751809 0.000000
O O6 0.613747 0.186908 0.749402
O O7 0.746016 0.288631 0.751636
O O8 0.719450 0.159758 0.774432
O O9 0.687861 0.217554 0.000000
O O10 0.553158 0.197148 0.500000
O O11 0.471446 0.116515 0.710063
O O12 0.861100 0.607761 0.500000
O O13 0.774321 0.621605 0.328742
O O14 0.056307 0.679408 0.500000
#
# Coordination Sequence:
#
# PCOD9581467 Si02
#       6
#     6  12  12  12  12  12
#     4  10  21  36  58  88 121 152 180 214 264 320
#     4  10  21  33  56  82 113 142 178 223 269 329
#     4  11  21  33  52  79 110 145 190 244 299 343
#     4  10  20  35  53  75 107 149 195 241 293 346
#     4  10  20  36  56  78 108 145 188 234 283 338
#     4   9  19  35  55  78 105 142 186 234 280 331
#
# _framework density 18.060279000000001
#
# number of rings (size 3 to 8) (size 9 to 14) (size 15 to 20)
#    0.545    1.455    0.000    5.909    0.000    3.636 
#    0.000    0.909    0.000    5.455    0.000    0.000 
#    0.000    8.727    0.000    0.000    0.000    0.000 
#
# Total GULP energy -367900.998138 kJ/mol
# GULP energy per Si atom -5574.257548 kJ/mol
# Density = 1.801917 g / cm^3
# Si number density = 18.060279 Si / 1000 Ang^3
#
#
#
# Elastic Constant Matrix: (Units=GPa)
#
#
# Indices 1 2 3 4 5 6 
#
# 1 34.4496 -12.9764 7.9813 0.0000 0.0000 0.0000
# 2 -12.9764 34.4496 7.9813 0.0000 0.0000 0.0000
# 3 7.9813 7.9813 81.8736 0.0000 0.0000 0.0000
# 4 0.0000 0.0000 0.0000 25.7416 0.0000 0.0000
# 5 0.0000 0.0000 0.0000 0.0000 25.7416 0.0000
# 6 0.0000 0.0000 0.0000 0.0000 0.0000 23.7130
#
#
#
# Elastic Compliance Matrix: (Units=1/GPa)
#
#
# Indices 1 2 3 4 5 6 
#
# 1 0.035647 0.014561 -0.004894 0.000000 0.000000 0.000000
# 2 0.014561 0.035647 -0.004894 0.000000 0.000000 0.000000
# 3 -0.004894 -0.004894 0.013168 0.000000 0.000000 0.000000
# 4 0.000000 0.000000 0.000000 0.038848 0.000000 0.000000
# 5 0.000000 0.000000 0.000000 0.000000 0.038848 0.000000
# 6 0.000000 0.000000 0.000000 0.000000 0.000000 0.042171
#
#
# Mechanical properties :
#
#
# Convention : Reuss Voigt Hill
#
# Bulk Modulus (GPa) = 10.63756 17.41612 14.02684
# Shear Modulus (GPa) = 22.11229 24.89168 23.50198
#
# Velocity S-wave (km/s) = 3.50288 3.71651 3.61128
# Velocity P-wave (km/s) = 4.71837 5.29914 5.01717
#
# Compressibility (1/GPa) = 0.09400653
#
# Stress axis : x y z
#
# Youngs Moduli (GPa) = 28.05305 28.05305 75.94056
#
# Poissons Ratio (x) = -0.40849 0.37168
# Poissons Ratio (y) = -0.40849 0.37168
# Poissons Ratio (z) = 0.13730 0.13730
#
# Static dielectric constant tensor:
#      x y z
#    x 1.622370 0.000000 0.000000 
#    y 0.000000 1.622370 0.000000 
#    z 0.000000 0.000000 1.606030 
# 
# From -- ./inp_files/971.got.cif
#   From: 2010.05.17/outbox.cif.g08.bks.cpg/sg175_1_cif.got.tgz:971.got - 2010.05.20 11:23:22.
