data_PCOD9581670
_publ_section_title
;
Structure prediction by ZEFSAII (Michael W. Deem and Ramdas Pophale) SiO2 
 PCOD9581670
Probable space group: P 6/M
;
_chemical_formula_sum "Si O2"
_cell_formula_units_Z 72
_cell_length_a 14.432252
_cell_length_b 14.432252
_cell_length_c 18.553166
_cell_angle_alpha 90.000000
_cell_angle_beta 90.000000
_cell_angle_gamma 120.000000
_cell_volume 3346.700656
_symmetry_space_group_name_H-M "P 6/M"
_symmetry_group_IT_number 175
_symmetry_cell_setting 'hexagonal'
loop_
_space_group_symop_operation_xyz
x,y,z
x-y,x,z
-y,x-y,z
-x,-y,z
-x+y,-x,z
y,-x+y,z
-x,-y,-z
-x+y,-x,-z
y,-x+y,-z
x,y,-z
x-y,x,-z
-y,x-y,-z
loop_
_atom_site_type_symbol
_atom_site_label
_atom_site_fract_x
_atom_site_fract_y
_atom_site_fract_z
Si Si1 0.400290 0.880096 0.079251
Si Si2 0.576366 0.755988 0.580089
Si Si3 0.512926 0.857764 0.215224
Si Si4 0.278300 0.906884 0.192624
Si Si5 0.236619 0.175867 0.684092
Si Si6 0.876720 0.412598 0.373220
O O1 0.438888 0.832926 0.144486
O O2 0.301071 0.890933 0.109741
O O3 0.500000 0.000000 0.072776
O O4 0.379996 0.829695 0.000000
O O5 0.620227 0.765176 0.500000
O O6 0.654200 0.752630 0.640476
O O7 0.462614 0.648792 0.587647
O O8 0.552145 0.850842 0.596317
O O9 0.560283 0.777724 0.219109
O O10 0.451187 0.847069 0.288798
O O11 0.608198 0.984242 0.212566
O O12 0.197324 0.937258 0.230539
O O13 0.146527 0.202816 0.664496
O O14 0.000000 0.500000 0.381781
#
# Coordination Sequence:
#
# PCOD9581670 Si02
#       6
#    12  12  12  12  12  12
#     4   9  20  38  60  91 130 168 208 257 313 382
#     4  12  26  44  66  95 130 169 215 270 336 412
#     4  11  22  38  66  93 129 170 219 264 322 389
#     4  11  20  39  64  93 124 169 214 266 321 383
#     4  12  24  43  67  97 130 170 223 282 336 396
#     4  12  25  43  67  94 129 170 215 268 327 389
#
# _framework density 21.513725999999998
#
# number of rings (size 3 to 8) (size 9 to 14) (size 15 to 20)
#    0.000    0.833    3.333    5.500    0.000    4.000 
#    1.000    0.000    0.000    1.000    0.000    0.000 
#    0.000    1.333    0.000    0.000    0.000    0.000 
#
# Total GULP energy -401588.457036 kJ/mol
# GULP energy per Si atom -5577.617459 kJ/mol
# Density = 2.146476 g / cm^3
# Si number density = 21.513726 Si / 1000 Ang^3
#
#
#
# Elastic Constant Matrix: (Units=GPa)
#
#
# Indices 1 2 3 4 5 6 
#
# 1 79.4000 24.2297 20.6713 0.0000 0.0000 0.0000
# 2 24.2297 79.4000 20.6713 0.0000 0.0000 0.0000
# 3 20.6713 20.6713 115.8808 0.0000 0.0000 0.0000
# 4 0.0000 0.0000 0.0000 -0.4818 0.0000 0.0000
# 5 0.0000 0.0000 0.0000 0.0000 -0.4818 0.0000
# 6 0.0000 0.0000 0.0000 0.0000 0.0000 27.5852
#
#
#
# Elastic Compliance Matrix: (Units=1/GPa)
#
#
# Indices 1 2 3 4 5 6 
#
# 1 0.014257 -0.003868 -0.001853 0.000000 0.000000 0.000000
# 2 -0.003868 0.014257 -0.001853 0.000000 0.000000 0.000000
# 3 -0.001853 -0.001853 0.009291 0.000000 0.000000 0.000000
# 4 0.000000 0.000000 0.000000 -2.075601 0.000000 0.000000
# 5 0.000000 0.000000 0.000000 0.000000 -2.075601 0.000000
# 6 0.000000 0.000000 0.000000 0.000000 0.000000 0.036251
#
#
# Mechanical properties :
#
#
# Convention : Reuss Voigt Hill
#
# Bulk Modulus (GPa) = 44.13858 45.09172 44.61515
# Shear Modulus (GPa) = -1.23321 19.26489 9.01584
#
# Velocity S-wave (km/s) = -0.75794 2.99569 2.04935
# Velocity P-wave (km/s) = 4.44916 5.74200 5.13642
#
# Compressibility (1/GPa) = 0.02265592
#
# Stress axis : x y z
#
# Youngs Moduli (GPa) = 70.13911 70.13911 107.63402
#
# Poissons Ratio (x) = 0.27132 0.19947
# Poissons Ratio (y) = 0.27132 0.19947
# Poissons Ratio (z) = 0.12999 0.12999
#
# Static dielectric constant tensor:
#      x y z
#    x 1.809820 0.000000 0.000000 
#    y 0.000000 1.809820 0.000000 
#    z 0.000000 0.000000 1.794330 
# 
# From -- ./inp_files/2882.got.cif
#   From: 2010.05.17/outbox.cif.g08.bks.cpg/sg175_2_cif.got.tgz:2882.got - 2010.05.20 11:23:22.
