data_PCOD9581460
_publ_section_title
;
Structure prediction by ZEFSAII (Michael W. Deem and Ramdas Pophale) SiO2 
 PCOD9581460
Probable space group: P 6/M
;
_chemical_formula_sum "Si O2"
_cell_formula_units_Z 40
_cell_length_a 15.184550
_cell_length_b 15.184550
_cell_length_c 7.652814
_cell_angle_alpha 90.000000
_cell_angle_beta 90.000000
_cell_angle_gamma 120.000000
_cell_volume 1528.113603
_symmetry_space_group_name_H-M "P 6/M"
_symmetry_group_IT_number 175
_symmetry_cell_setting 'hexagonal'
loop_
_space_group_symop_operation_xyz
x,y,z
x-y,x,z
-y,x-y,z
-x,-y,z
-x+y,-x,z
y,-x+y,z
-x,-y,-z
-x+y,-x,-z
y,-x+y,-z
x,y,-z
x-y,x,-z
-y,x-y,-z
loop_
_atom_site_type_symbol
_atom_site_label
_atom_site_fract_x
_atom_site_fract_y
_atom_site_fract_z
Si Si1 0.578197 0.918886 0.200408
Si Si2 0.666668 0.333334 0.715032
Si Si3 0.358695 0.866639 0.698190
Si Si4 0.853879 0.768203 0.786379
O O1 0.477051 0.893454 0.303395
O O2 0.653874 0.881999 0.269323
O O3 0.643703 0.043028 0.202179
O O4 0.549982 0.889108 0.000000
O O5 0.666667 0.333334 0.500000
O O6 0.554842 0.307738 0.772420
O O7 0.326828 0.866147 0.500000
O O8 0.812256 0.842834 0.730548
O O9 0.852333 0.766130 0.000000
#
# Coordination Sequence:
#
# PCOD9581460 Si02
#       4
#    12   4  12  12
#     4  10  20  34  54  82 111 138 175 220 266 316
#     4   9  21  36  55  80 106 141 187 224 256 315
#     4  10  20  37  56  76 106 144 183 219 259 313
#     4   9  18  32  52  77 107 140 174 213 261 317
#
# _framework density 26.176064
#
# number of rings (size 3 to 8) (size 9 to 14) (size 15 to 20)
#    0.000    2.400    0.000    3.900    4.200    1.200 
#    0.000    4.500    0.000    0.000    0.000    0.000 
#    0.000    9.600    0.000    0.000    0.000    0.000 
#
# Total GULP energy -223897.762257 kJ/mol
# GULP energy per Si atom -5597.444056 kJ/mol
# Density = 2.611649 g / cm^3
# Si number density = 26.176064 Si / 1000 Ang^3
#
#
#
# Elastic Constant Matrix: (Units=GPa)
#
#
# Indices 1 2 3 4 5 6 
#
# 1 112.5440 4.5287 16.0840 0.0000 0.0000 -0.0004
# 2 4.5287 112.5465 16.0840 0.0000 0.0000 -0.0002
# 3 16.0840 16.0840 99.0623 0.0000 0.0000 0.0000
# 4 0.0000 0.0000 0.0000 -6.6674 0.0014 0.0000
# 5 0.0000 0.0000 0.0000 0.0014 -6.6725 0.0000
# 6 -0.0004 -0.0002 0.0000 0.0000 0.0000 54.0087
#
#
#
# Elastic Compliance Matrix: (Units=1/GPa)
#
#
# Indices 1 2 3 4 5 6 
#
# 1 0.009099 -0.000159 -0.001452 0.000000 0.000000 0.000000
# 2 -0.000159 0.009099 -0.001452 0.000000 0.000000 0.000000
# 3 -0.001452 -0.001452 0.010566 0.000000 0.000000 0.000000
# 4 0.000000 0.000000 0.000000 -0.149983 -0.000031 0.000000
# 5 0.000000 0.000000 0.000000 -0.000031 -0.149870 0.000000
# 6 0.000000 0.000000 0.000000 0.000000 0.000000 0.018516
#
#
# Mechanical properties :
#
#
# Convention : Reuss Voigt Hill
#
# Bulk Modulus (GPa) = 44.16850 44.17179 44.17015
# Shear Modulus (GPa) = -20.92904 27.29750 3.18423
#
# Velocity S-wave (km/s) = -2.83070 3.23281 1.10413
# Velocity P-wave (km/s) = 2.49529 5.55394 4.30539
#
# Compressibility (1/GPa) = 0.02264057
#
# Stress axis : x y z
#
# Youngs Moduli (GPa) = 109.89909 109.90163 94.64298
#
# Poissons Ratio (x) = 0.01744 0.13738
# Poissons Ratio (y) = 0.01744 0.13738
# Poissons Ratio (z) = 0.15953 0.15953
#
# Static dielectric constant tensor:
#      x y z
#    x 2.121440 0.000000 0.000000 
#    y 0.000000 2.121430 0.000000 
#    z 0.000000 0.000000 1.883620 
# 
# From -- ./inp_files/445.got.cif
#   From: 2010.05.17/outbox.cif.g08.bks.cpg/sg175_1_cif.got.tgz:445.got - 2010.05.20 11:23:22.
