data_PCOD9581175
_publ_section_title
;
Structure prediction by ZEFSAII (Michael W. Deem and Ramdas Pophale) SiO2 
 PCOD9581175
Probable space group: P -6
;
_chemical_formula_sum "Si O2"
_cell_formula_units_Z 48
_cell_length_a 19.338351
_cell_length_b 19.338351
_cell_length_c 8.551519
_cell_angle_alpha 90.000000
_cell_angle_beta 90.000000
_cell_angle_gamma 120.000000
_cell_volume 2769.572727
_symmetry_space_group_name_H-M "P -6"
_symmetry_group_IT_number 174
_symmetry_cell_setting 'hexagonal'
loop_
_space_group_symop_operation_xyz
x,y,z
-x+y,-x,-z
-y,x-y,z
x,y,-z
-x+y,-x,z
-y,x-y,-z
loop_
_atom_site_type_symbol
_atom_site_label
_atom_site_fract_x
_atom_site_fract_y
_atom_site_fract_z
Si Si1 0.488731 0.663909 0.810316
Si Si2 0.754773 0.667426 0.313071
Si Si3 0.091211 0.759991 0.687320
Si Si4 0.333811 0.245599 0.688549
Si Si5 0.492392 0.825512 0.810570
Si Si6 0.665247 0.174117 0.811452
Si Si7 0.243493 0.913382 0.812799
Si Si8 0.826162 0.334074 0.811176
O O1 0.471339 0.735284 0.770367
O O2 0.418809 0.578256 0.756110
O O3 0.579050 0.693589 0.758252
O O4 0.488350 0.660191 0.000000
O O5 0.755514 0.669865 0.500000
O O6 0.841123 0.682153 0.257774
O O7 0.730175 0.729303 0.248686
O O8 0.690866 0.578220 0.257352
O O9 0.094460 0.765335 0.500000
O O10 0.116603 0.695746 0.740659
O O11 0.157221 0.844614 0.756140
O O12 0.000857 0.729351 0.740523
O O13 0.333956 0.245045 0.500000
O O14 0.422456 0.309768 0.744623
O O15 0.498259 0.832012 0.000000
O O16 0.737272 0.262668 0.769845
O O17 0.580415 0.161567 0.758567
O O18 0.663525 0.168852 0.000000
O O19 0.244268 0.913758 0.000000
O O20 0.832379 0.335517 0.000000
#
# Coordination Sequence:
#
# PCOD9581175 Si02
#       8
#     6   6   6   6   6   6   6   6
#     4   8  15  27  46  69  95 127 165 202 235 272
#     4  10  20  35  53  73  97 129 164 201 247 300
#     4  10  20  35  52  72  98 128 160 199 244 293
#     4   9  20  36  52  71  98 129 164 202 245 296
#     4   9  16  29  48  70  96 132 173 207 237 276
#     4   9  17  29  48  71  99 135 175 213 249 285
#     4  10  20  35  54  77 100 125 159 201 246 297
#     4   9  17  30  47  71 101 135 174 215 251 285
#
# _framework density 17.331194
#
# number of rings (size 3 to 8) (size 9 to 14) (size 15 to 20)
#    0.000    2.750    0.000    2.375    0.000    5.000 
#    0.000    6.875    0.000    2.000    0.000    1.750 
#    0.000    0.000    0.000    0.000    0.000    0.000 
#
# Total GULP energy -267641.897123 kJ/mol
# GULP energy per Si atom -5575.872857 kJ/mol
# Density = 1.729175 g / cm^3
# Si number density = 17.331194 Si / 1000 Ang^3
#
#
#
# Elastic Constant Matrix: (Units=GPa)
#
#
# Indices 1 2 3 4 5 6 
#
# 1 115.5698 96.0472 25.0740 0.0000 0.0000 0.0000
# 2 96.0472 115.5698 25.0740 0.0000 0.0000 0.0000
# 3 25.0740 25.0740 19.8011 0.0000 0.0000 0.0000
# 4 0.0000 0.0000 0.0000 22.8005 0.0000 0.0000
# 5 0.0000 0.0000 0.0000 0.0000 22.8005 0.0000
# 6 0.0000 0.0000 0.0000 0.0000 0.0000 9.7613
#
#
#
# Elastic Compliance Matrix: (Units=1/GPa)
#
#
# Indices 1 2 3 4 5 6 
#
# 1 0.028987 -0.022236 -0.008549 0.000000 0.000000 0.000000
# 2 -0.022236 0.028987 -0.008549 0.000000 0.000000 0.000000
# 3 -0.008549 -0.008549 0.072154 0.000000 0.000000 0.000000
# 4 0.000000 0.000000 0.000000 0.043859 0.000000 0.000000
# 5 0.000000 0.000000 0.000000 0.000000 0.043859 0.000000
# 6 0.000000 0.000000 0.000000 0.000000 0.000000 0.102445
#
#
# Mechanical properties :
#
#
# Convention : Reuss Voigt Hill
#
# Bulk Modulus (GPa) = 19.43270 60.37010 39.90140
# Shear Modulus (GPa) = 12.01598 18.05551 15.03575
#
# Velocity S-wave (km/s) = 2.63594 3.23118 2.94862
# Velocity P-wave (km/s) = 4.52782 6.98781 5.88773
#
# Compressibility (1/GPa) = 0.05145967
#
# Stress axis : x y z
#
# Youngs Moduli (GPa) = 34.49812 34.49812 13.85923
#
# Poissons Ratio (x) = 0.76709 0.11849
# Poissons Ratio (y) = 0.76709 0.11849
# Poissons Ratio (z) = 0.29494 0.29494
#
# Static dielectric constant tensor:
#      x y z
#    x 1.580910 0.000000 0.000000 
#    y 0.000000 1.580910 0.000000 
#    z 0.000000 0.000000 1.593100 
# 
# From -- ./inp_files/505.got.cif
#   From: 2010.05.17/outbox.cif.g08.bks.cpg/sg174_cif.got.tgz:505.got - 2010.05.20 11:22:48.
