data_PCOD9581239
_publ_section_title
;
Structure prediction by ZEFSAII (Michael W. Deem and Ramdas Pophale) SiO2 
 PCOD9581239
Probable space group: P 6/M
;
_chemical_formula_sum "Si O2"
_cell_formula_units_Z 54
_cell_length_a 20.145137
_cell_length_b 20.145137
_cell_length_c 5.690384
_cell_angle_alpha 90.000000
_cell_angle_beta 90.000000
_cell_angle_gamma 120.000000
_cell_volume 1999.920153
_symmetry_space_group_name_H-M "P 6/M"
_symmetry_group_IT_number 175
_symmetry_cell_setting 'hexagonal'
loop_
_space_group_symop_operation_xyz
x,y,z
x-y,x,z
-y,x-y,z
-x,-y,z
-x+y,-x,z
y,-x+y,z
-x,-y,-z
-x+y,-x,-z
y,-x+y,-z
x,y,-z
x-y,x,-z
-y,x-y,-z
loop_
_atom_site_type_symbol
_atom_site_label
_atom_site_fract_x
_atom_site_fract_y
_atom_site_fract_z
Si Si1 0.000598 0.292870 0.000000
Si Si2 0.822833 0.609267 0.500000
Si Si3 0.787499 0.844896 0.500000
Si Si4 0.881124 0.109428 0.000000
Si Si5 0.424296 0.508035 0.754443
Si Si6 0.712884 0.674208 0.500000
Si Si7 0.684201 0.220161 0.750032
O O1 0.994500 0.327345 0.751298
O O2 0.932092 0.201856 0.000000
O O3 0.077460 0.287534 0.000000
O O4 0.890903 0.694794 0.500000
O O5 0.752978 0.623967 0.500000
O O6 0.816645 0.555240 0.716379
O O7 0.815117 0.888186 0.248904
O O8 0.785854 0.763479 0.500000
O O9 0.500000 0.500000 0.762954
O O10 0.389738 0.477360 0.500000
O O11 0.446823 0.597239 0.751964
O O12 0.380400 0.476840 0.000000
O O13 0.698434 0.263769 0.500000
O O14 0.701394 0.261899 0.000000
#
# Coordination Sequence:
#
# PCOD9581239 Si02
#       7
#     6   6   6   6  12   6  12
#     4  10  18  30  42  57  68  82 100 122 152 194
#     4  10  18  26  41  46  74  80 107 130 168 182
#     4  10  20  28  40  53  68  86 107 125 158 195
#     4  10  18  30  42  57  68  82 100 122 152 194
#     4   8  12  20  30  42  62  82 106 130 147 176
#     4  10  20  28  40  53  68  86 107 125 158 195
#     4   8  16  22  32  50  62  86 106 123 161 184
#
# _framework density 27.001080000000002
#
# number of rings (size 3 to 8) (size 9 to 14) (size 15 to 20)
#    0.667    2.222    2.222    0.000    3.111    0.000 
#    0.000    0.000    0.000    0.222    0.000    0.000 
#    0.000    5.333    0.000    0.000    0.000    0.889 
#
# Total GULP energy -301243.425142 kJ/mol
# GULP energy per Si atom -5578.581947 kJ/mol
# Density = 2.693962 g / cm^3
# Si number density = 27.001080 Si / 1000 Ang^3
#
#
#
# Elastic Constant Matrix: (Units=GPa)
#
#
# Indices 1 2 3 4 5 6 
#
# 1 80.3500 32.2403 23.6427 0.0000 0.0000 0.0000
# 2 32.2403 80.3500 23.6427 0.0000 0.0000 0.0000
# 3 23.6427 23.6427 328.7609 0.0000 0.0000 0.0000
# 4 0.0000 0.0000 0.0000 -3.4561 0.0000 0.0000
# 5 0.0000 0.0000 0.0000 0.0000 -3.4561 0.0000
# 6 0.0000 0.0000 0.0000 0.0000 0.0000 24.0549
#
#
#
# Elastic Compliance Matrix: (Units=1/GPa)
#
#
# Indices 1 2 3 4 5 6 
#
# 1 0.014972 -0.005814 -0.000659 0.000000 0.000000 0.000000
# 2 -0.005814 0.014972 -0.000659 0.000000 0.000000 0.000000
# 3 -0.000659 -0.000659 0.003136 0.000000 0.000000 0.000000
# 4 0.000000 0.000000 0.000000 -0.289344 0.000000 0.000000
# 5 0.000000 0.000000 0.000000 0.000000 -0.289344 0.000000
# 6 0.000000 0.000000 0.000000 0.000000 0.000000 0.041572
#
#
# Mechanical properties :
#
#
# Convention : Reuss Voigt Hill
#
# Bulk Modulus (GPa) = 53.13860 72.05690 62.59775
# Shear Modulus (GPa) = -10.34124 30.75756 10.20816
#
# Velocity S-wave (km/s) = -1.95914 3.37875 1.94650
# Velocity P-wave (km/s) = 3.82168 6.47811 5.31842
#
# Compressibility (1/GPa) = 0.01881871
#
# Stress axis : x y z
#
# Youngs Moduli (GPa) = 66.79096 66.79096 318.83150
#
# Poissons Ratio (x) = 0.38830 0.20999
# Poissons Ratio (y) = 0.38830 0.20999
# Poissons Ratio (z) = 0.04399 0.04399
#
# Static dielectric constant tensor:
#      x y z
#    x 2.136180 0.000000 0.000000 
#    y 0.000000 2.136180 0.000000 
#    z 0.000000 0.000000 2.261010 
# 
# From -- ./inp_files/185.got.cif
#   From: 2010.05.17/outbox.cif.g08.bks.cpg/sg175_1_cif.got.tgz:185.got - 2010.05.20 11:23:22.
