data_PCOD9581419
_publ_section_title
;
Structure prediction by ZEFSAII (Michael W. Deem and Ramdas Pophale) SiO2 
 PCOD9581419
Probable space group: P 6/M
;
_chemical_formula_sum "Si O2"
_cell_formula_units_Z 84
_cell_length_a 14.150688
_cell_length_b 14.150688
_cell_length_c 26.234625
_cell_angle_alpha 90.000000
_cell_angle_beta 90.000000
_cell_angle_gamma 120.000000
_cell_volume 4549.467884
_symmetry_space_group_name_H-M "P 6/M"
_symmetry_group_IT_number 175
_symmetry_cell_setting 'hexagonal'
loop_
_space_group_symop_operation_xyz
x,y,z
x-y,x,z
-y,x-y,z
-x,-y,z
-x+y,-x,z
y,-x+y,z
-x,-y,-z
-x+y,-x,-z
y,-x+y,-z
x,y,-z
x-y,x,-z
-y,x-y,-z
loop_
_atom_site_type_symbol
_atom_site_label
_atom_site_fract_x
_atom_site_fract_y
_atom_site_fract_z
Si Si1 0.113985 0.509999 0.894937
Si Si2 0.185122 0.249328 0.561194
Si Si3 0.348800 0.875943 0.325306
Si Si4 0.443602 0.642326 0.786887
Si Si5 0.679060 0.563038 0.361210
Si Si6 0.230839 0.041256 0.062075
Si Si7 0.811435 0.275505 0.059502
O O1 0.125608 0.494279 0.835390
O O2 0.198044 0.636582 0.907453
O O3 0.156571 0.447418 0.930301
O O4 0.000000 0.500000 0.908631
O O5 0.213357 0.153988 0.575002
O O6 0.193670 0.260724 0.500000
O O7 0.269674 0.363837 0.587927
O O8 0.370591 0.858230 0.266901
O O9 0.225917 0.780687 0.338034
O O10 0.438958 0.864445 0.359976
O O11 0.371097 0.998710 0.332483
O O12 0.443939 0.757245 0.789108
O O13 0.208070 0.135522 0.080015
O O14 0.353952 0.081703 0.076555
O O15 0.229166 0.040325 0.000000
O O16 0.817459 0.302544 0.000000
#
# Coordination Sequence:
#
# PCOD9581419 Si02
#       7
#    12  12  12  12  12  12  12
#     4  12  24  37  58  83 110 146 186 228 290 351
#     4  10  20  37  61  92 131 174 218 264 310 366
#     4  11  22  36  62  90 121 158 200 260 315 374
#     4  10  19  39  61  81 116 145 188 239 296 364
#     4  11  21  37  59  92 123 161 211 258 312 364
#     4   9  17  30  50  73  98 127 165 210 254 303
#     4  11  22  38  53  76 110 143 181 224 271 339
#
# _framework density 18.463698000000001
#
# number of rings (size 3 to 8) (size 9 to 14) (size 15 to 20)
#    0.286    1.143    4.286    2.143    2.000    3.429 
#    0.000    2.143    0.000    0.000    0.000    0.000 
#    0.000    0.000    0.000    0.000    0.000    0.000 
#
# Total GULP energy -467950.439851 kJ/mol
# GULP energy per Si atom -5570.838570 kJ/mol
# Density = 1.842167 g / cm^3
# Si number density = 18.463698 Si / 1000 Ang^3
#
#
#
# Elastic Constant Matrix: (Units=GPa)
#
#
# Indices 1 2 3 4 5 6 
#
# 1 91.0376 29.0696 8.5642 0.0000 0.0000 0.0000
# 2 29.0696 91.0376 8.5642 0.0000 0.0000 0.0000
# 3 8.5642 8.5642 47.3140 0.0000 0.0000 0.0000
# 4 0.0000 0.0000 0.0000 21.2221 0.0000 0.0000
# 5 0.0000 0.0000 0.0000 0.0000 21.2221 0.0000
# 6 0.0000 0.0000 0.0000 0.0000 0.0000 30.9840
#
#
#
# Elastic Compliance Matrix: (Units=1/GPa)
#
#
# Indices 1 2 3 4 5 6 
#
# 1 0.012342 -0.003795 -0.001547 0.000000 0.000000 0.000000
# 2 -0.003795 0.012342 -0.001547 0.000000 0.000000 0.000000
# 3 -0.001547 -0.001547 0.021695 0.000000 0.000000 0.000000
# 4 0.000000 0.000000 0.000000 0.047121 0.000000 0.000000
# 5 0.000000 0.000000 0.000000 0.000000 0.047121 0.000000
# 6 0.000000 0.000000 0.000000 0.000000 0.000000 0.032275
#
#
# Mechanical properties :
#
#
# Convention : Reuss Voigt Hill
#
# Bulk Modulus (GPa) = 30.67437 35.75391 33.21414
# Shear Modulus (GPa) = 25.31121 26.89839 26.10480
#
# Velocity S-wave (km/s) = 3.70653 3.82098 3.76419
# Velocity P-wave (km/s) = 5.91331 6.23482 6.07619
#
# Compressibility (1/GPa) = 0.03260051
#
# Stress axis : x y z
#
# Youngs Moduli (GPa) = 81.02454 81.02454 46.09261
#
# Poissons Ratio (x) = 0.30752 0.07130
# Poissons Ratio (y) = 0.30752 0.07130
# Poissons Ratio (z) = 0.12534 0.12534
#
# Static dielectric constant tensor:
#      x y z
#    x 1.694140 0.000000 0.000000 
#    y 0.000000 1.694140 0.000000 
#    z 0.000000 0.000000 1.595830 
# 
# From -- ./inp_files/3242.got.cif
#   From: 2010.05.17/outbox.cif.g08.bks.cpg/sg175_2_cif.got.tgz:3242.got - 2010.05.20 11:23:22.
