data_PCOD9581177
_publ_section_title
;
Structure prediction by ZEFSAII (Michael W. Deem and Ramdas Pophale) SiO2 
 PCOD9581177
Probable space group: P -6
;
_chemical_formula_sum "Si O2"
_cell_formula_units_Z 45
_cell_length_a 18.653318
_cell_length_b 18.653318
_cell_length_c 7.711089
_cell_angle_alpha 90.000000
_cell_angle_beta 90.000000
_cell_angle_gamma 120.000000
_cell_volume 2323.584847
_symmetry_space_group_name_H-M "P -6"
_symmetry_group_IT_number 174
_symmetry_cell_setting 'hexagonal'
loop_
_space_group_symop_operation_xyz
x,y,z
-x+y,-x,-z
-y,x-y,z
x,y,-z
-x+y,-x,z
-y,x-y,-z
loop_
_atom_site_type_symbol
_atom_site_label
_atom_site_fract_x
_atom_site_fract_y
_atom_site_fract_z
Si Si1 0.491096 0.891059 0.202274
Si Si2 0.843289 0.616390 0.288661
Si Si3 0.567591 0.653853 0.199405
Si Si4 0.784516 0.995155 0.289540
Si Si5 0.901082 0.337105 0.297282
Si Si6 0.917176 0.504451 0.288727
Si Si7 0.613020 0.831998 0.698620
Si Si8 0.007454 0.910135 0.000000
O O1 0.403710 0.878092 0.271250
O O2 0.534557 0.845253 0.288767
O O3 0.552417 0.989277 0.225290
O O4 0.482319 0.868260 0.000000
O O5 0.842956 0.617110 0.500000
O O6 0.754284 0.598438 0.223541
O O7 0.862063 0.544183 0.235276
O O8 0.920609 0.705311 0.241484
O O9 0.630170 0.628963 0.284812
O O10 0.596866 0.749664 0.206308
O O11 0.562641 0.627627 0.000000
O O12 0.797005 0.995072 0.500000
O O13 0.694754 0.916359 0.246055
O O14 0.852065 0.989471 0.171075
O O15 0.879409 0.330827 0.500000
O O16 0.889155 0.411819 0.226968
O O17 0.920643 0.505155 0.500000
O O18 0.626635 0.818412 0.500000
O O19 0.080439 0.006072 0.000000
#
# Coordination Sequence:
#
# PCOD9581177 Si02
#       8
#     6   6   6   6   6   6   6   3
#     4  10  20  35  57  82 111 148 186 232 288 344
#     4   9  17  33  55  84 117 152 195 242 297 352
#     4  10  22  38  55  82 116 149 187 239 297 348
#     4  10  22  40  65  93 122 159 208 260 308 367
#     4   9  18  33  54  80 113 151 189 235 290 347
#     4   9  16  31  54  78 111 149 187 232 276 342
#     4  11  22  37  61  89 114 153 198 241 297 355
#     4  10  26  46  62  92 122 158 206 248 320 386
#
# _framework density 19.366626
#
# number of rings (size 3 to 8) (size 9 to 14) (size 15 to 20)
#    0.133    2.133    1.333    1.200    1.867    3.200 
#    2.800    2.667    0.000    0.000    0.000    0.000 
#    0.000    0.000    0.000    0.000    0.000    0.000 
#
# Total GULP energy -250930.895556 kJ/mol
# GULP energy per Si atom -5576.242123 kJ/mol
# Density = 1.932255 g / cm^3
# Si number density = 19.366626 Si / 1000 Ang^3
#
#
#
# Elastic Constant Matrix: (Units=GPa)
#
#
# Indices 1 2 3 4 5 6 
#
# 1 112.5422 60.2897 17.6156 0.0000 0.0000 0.0000
# 2 60.2897 112.5422 17.6156 0.0000 0.0000 0.0000
# 3 17.6156 17.6156 44.0227 0.0000 0.0000 0.0000
# 4 0.0000 0.0000 0.0000 -18.2677 0.0000 0.0000
# 5 0.0000 0.0000 0.0000 0.0000 -18.2677 0.0000
# 6 0.0000 0.0000 0.0000 0.0000 0.0000 26.1263
#
#
#
# Elastic Compliance Matrix: (Units=1/GPa)
#
#
# Indices 1 2 3 4 5 6 
#
# 1 0.012719 -0.006419 -0.002521 0.000000 0.000000 0.000000
# 2 -0.006419 0.012719 -0.002521 0.000000 0.000000 0.000000
# 3 -0.002521 -0.002521 0.024733 0.000000 0.000000 0.000000
# 4 0.000000 0.000000 0.000000 -0.054741 0.000000 0.000000
# 5 0.000000 0.000000 0.000000 0.000000 -0.054741 0.000000
# 6 0.000000 0.000000 0.000000 0.000000 0.000000 0.038276
#
#
# Mechanical properties :
#
#
# Convention : Reuss Voigt Hill
#
# Bulk Modulus (GPa) = 36.69835 51.12766 43.91301
# Shear Modulus (GPa) = 455.87567 9.49059 232.68313
#
# Velocity S-wave (km/s) = 15.35915 2.21611 10.97302
# Velocity P-wave (km/s) = 18.26276 5.74503 13.53761
#
# Compressibility (1/GPa) = 0.02724918
#
# Stress axis : x y z
#
# Youngs Moduli (GPa) = 78.62357 78.62357 40.43186
#
# Poissons Ratio (x) = 0.50468 0.10192
# Poissons Ratio (y) = 0.50468 0.10192
# Poissons Ratio (z) = 0.19820 0.19820
#
# Static dielectric constant tensor:
#      x y z
#    x 1.667970 0.000000 0.000000 
#    y 0.000000 1.667970 0.000000 
#    z 0.000000 0.000000 1.694260 
# 
# From -- ./inp_files/503.got.cif
#   From: 2010.05.17/outbox.cif.g08.bks.cpg/sg174_cif.got.tgz:503.got - 2010.05.20 11:22:48.
