data_PCOD9581340
_publ_section_title
;
Structure prediction by ZEFSAII (Michael W. Deem and Ramdas Pophale) SiO2 
 PCOD9581340
Probable space group: P 6/M
;
_chemical_formula_sum "Si O2"
_cell_formula_units_Z 96
_cell_length_a 24.549232
_cell_length_b 24.549232
_cell_length_c 10.745372
_cell_angle_alpha 90.000000
_cell_angle_beta 90.000000
_cell_angle_gamma 120.000000
_cell_volume 5608.257002
_symmetry_space_group_name_H-M "P 6/M"
_symmetry_group_IT_number 175
_symmetry_cell_setting 'hexagonal'
loop_
_space_group_symop_operation_xyz
x,y,z
x-y,x,z
-y,x-y,z
-x,-y,z
-x+y,-x,z
y,-x+y,z
-x,-y,-z
-x+y,-x,-z
y,-x+y,-z
x,y,-z
x-y,x,-z
-y,x-y,-z
loop_
_atom_site_type_symbol
_atom_site_label
_atom_site_fract_x
_atom_site_fract_y
_atom_site_fract_z
Si Si1 0.522555 0.570711 0.151092
Si Si2 0.576714 0.387370 0.152001
Si Si3 0.694077 0.045233 0.855321
Si Si4 0.259372 0.116551 0.289829
Si Si5 0.140093 0.064379 0.147003
Si Si6 0.474898 0.755548 0.151059
Si Si7 0.238391 0.984508 0.635650
Si Si8 0.188365 0.383122 0.144600
O O1 0.500000 0.500000 0.194042
O O2 0.473807 0.592916 0.192634
O O3 0.593761 0.624358 0.180431
O O4 0.520422 0.569180 0.000000
O O5 0.647416 0.436364 0.192809
O O6 0.556650 0.316856 0.191870
O O7 0.576245 0.387285 0.000000
O O8 0.722865 0.018223 0.754850
O O9 0.740308 0.121081 0.853425
O O10 0.694228 0.025476 0.000000
O O11 0.213199 0.097918 0.172292
O O12 0.249417 0.170092 0.356006
O O13 0.329812 0.148079 0.238368
O O14 0.238816 0.050497 0.356299
O O15 0.110385 0.104581 0.199567
O O16 0.130288 0.059968 0.000000
O O17 0.548286 0.791479 0.183095
O O18 0.472728 0.754205 0.000000
O O19 0.265413 0.982829 0.500000
O O20 0.198431 0.371227 0.000000
#
# Coordination Sequence:
#
# PCOD9581340 Si02
#       8
#    12  12  12  12  12  12  12  12
#     4   9  16  27  45  71 103 137 174 214 260 312
#     4   9  15  23  37  60  93 137 176 207 251 311
#     4   9  18  34  55  76 104 142 178 218 264 315
#     4  11  21  36  55  74  99 134 177 218 269 323
#     4  10  19  32  51  77 107 136 168 210 263 322
#     4   9  15  24  39  62  99 140 176 211 254 309
#     4  11  24  40  58  78 104 138 178 224 270 323
#     4   9  17  29  46  71 103 138 174 218 263 307
#
# _framework density 17.117616999999999
#
# number of rings (size 3 to 8) (size 9 to 14) (size 15 to 20)
#    0.000    2.375    2.500    1.125    0.000    4.000 
#    0.000    2.500    0.000    0.375    0.000    1.750 
#    0.000    0.000    0.000    0.000    0.000    0.000 
#
# Total GULP energy -534542.276607 kJ/mol
# GULP energy per Si atom -5568.148715 kJ/mol
# Density = 1.707866 g / cm^3
# Si number density = 17.117617 Si / 1000 Ang^3
#
#
#
# Elastic Constant Matrix: (Units=GPa)
#
#
# Indices 1 2 3 4 5 6 
#
# 1 95.7315 51.2225 29.7088 0.0000 0.0000 0.0000
# 2 51.2225 95.7315 29.7088 0.0000 0.0000 0.0000
# 3 29.7088 29.7088 48.7232 0.0000 0.0000 0.0000
# 4 0.0000 0.0000 0.0000 1.7220 0.0000 0.0000
# 5 0.0000 0.0000 0.0000 0.0000 1.7220 0.0000
# 6 0.0000 0.0000 0.0000 0.0000 0.0000 22.2545
#
#
#
# Elastic Compliance Matrix: (Units=1/GPa)
#
#
# Indices 1 2 3 4 5 6 
#
# 1 0.015749 -0.006718 -0.005507 0.000000 0.000000 0.000000
# 2 -0.006718 0.015749 -0.005507 0.000000 0.000000 0.000000
# 3 -0.005507 -0.005507 0.027240 0.000000 0.000000 0.000000
# 4 0.000000 0.000000 0.000000 0.580735 0.000000 0.000000
# 5 0.000000 0.000000 0.000000 0.000000 0.580735 0.000000
# 6 0.000000 0.000000 0.000000 0.000000 0.000000 0.044935
#
#
# Mechanical properties :
#
#
# Convention : Reuss Voigt Hill
#
# Bulk Modulus (GPa) = 42.96446 51.27404 47.11925
# Shear Modulus (GPa) = 3.82156 13.77610 8.79883
#
# Velocity S-wave (km/s) = 1.49579 2.83996 2.26967
# Velocity P-wave (km/s) = 5.30445 6.38536 5.86984
#
# Compressibility (1/GPa) = 0.02327505
#
# Stress axis : x y z
#
# Youngs Moduli (GPa) = 63.49454 63.49454 36.71113
#
# Poissons Ratio (x) = 0.42655 0.20216
# Poissons Ratio (y) = 0.42655 0.20216
# Poissons Ratio (z) = 0.34966 0.34966
#
# Static dielectric constant tensor:
#      x y z
#    x 1.594860 0.000000 0.000000 
#    y 0.000000 1.594860 0.000000 
#    z 0.000000 0.000000 1.550590 
# 
# From -- ./inp_files/2177.got.cif
#   From: 2010.05.17/outbox.cif.g08.bks.cpg/sg175_2_cif.got.tgz:2177.got - 2010.05.20 11:23:22.
