data_PCOD9581909
_publ_section_title
;
Structure prediction by ZEFSAII (Michael W. Deem and Ramdas Pophale) SiO2 
 PCOD9581909
Probable space group: P 63/M
;
_chemical_formula_sum "Si O2"
_cell_formula_units_Z 40
_cell_length_a 13.781689
_cell_length_b 13.781689
_cell_length_c 14.014024
_cell_angle_alpha 90.000000
_cell_angle_beta 90.000000
_cell_angle_gamma 120.000000
_cell_volume 2305.145692
_symmetry_space_group_name_H-M "P 63/M"
_symmetry_group_IT_number 176
_symmetry_cell_setting 'hexagonal'
loop_
_space_group_symop_operation_xyz
x,y,z
x-y,x,1/2+z
-y,x-y,z
-x,-y,1/2+z
-x+y,-x,z
y,-x+y,1/2+z
-x,-y,-z
-x+y,-x,1/2-z
y,-x+y,-z
x,y,1/2-z
x-y,x,-z
-y,x-y,1/2-z
loop_
_atom_site_type_symbol
_atom_site_label
_atom_site_fract_x
_atom_site_fract_y
_atom_site_fract_z
Si Si1 0.067445 0.702284 0.250000
Si Si2 0.932555 0.634839 0.750000
Si Si3 0.894627 0.789255 0.250000
Si Si4 0.494904 0.989807 0.387550
Si Si5 0.595255 0.404745 0.250000
Si Si6 0.000000 0.000000 0.885904
O O1 0.176630 0.823370 0.250000
O O2 0.959582 0.719419 0.250000
O O3 0.065513 0.628727 0.340917
O O4 0.040419 0.759837 0.750000
O O5 0.934487 0.563214 0.840917
O O6 0.937474 0.874948 0.340492
O O7 0.556501 0.113002 0.341461
O O8 0.500000 0.000000 0.500000
O O9 0.545339 0.272669 0.250000
O O10 0.000000 0.000000 0.000000
#
# Coordination Sequence:
#
# PCOD9581909 Si02
#       6
#     6   6   6  12   6   4
#     4  10  21  42  60  84 125 160 186 246 304 347
#     4  10  21  42  60  84 125 160 186 246 304 347
#     4  10  20  39  62  86 126 155 190 232 308 362
#     4  10  24  38  59  90 114 156 211 243 286 347
#     4   8  18  37  62  80 110 149 194 238 304 330
#     4  10  20  34  55  92 124 154 197 229 286 365
#
# _framework density 17.352482999999999
#
# number of rings (size 3 to 8) (size 9 to 14) (size 15 to 20)
#    0.300    2.400    3.000    0.000    8.400    4.800 
#    7.200    0.000    0.000    0.000    0.000    0.000 
#    0.000    0.000    0.000    0.000    0.000    0.000 
#
# Total GULP energy -222798.919416 kJ/mol
# GULP energy per Si atom -5569.972985 kJ/mol
# Density = 1.731299 g / cm^3
# Si number density = 17.352483 Si / 1000 Ang^3
#
#
#
# Elastic Constant Matrix: (Units=GPa)
#
#
# Indices 1 2 3 4 5 6 
#
# 1 124.1614 49.6523 42.3973 0.0000 0.0000 0.0000
# 2 49.6523 124.1614 42.3973 0.0000 0.0000 0.0000
# 3 42.3973 42.3973 185.7357 0.0000 0.0000 0.0000
# 4 0.0000 0.0000 0.0000 2.0691 0.0000 0.0000
# 5 0.0000 0.0000 0.0000 0.0000 2.0691 0.0000
# 6 0.0000 0.0000 0.0000 0.0000 0.0000 37.2545
#
#
#
# Elastic Compliance Matrix: (Units=1/GPa)
#
#
# Indices 1 2 3 4 5 6 
#
# 1 0.009948 -0.003473 -0.001478 0.000000 0.000000 0.000000
# 2 -0.003473 0.009948 -0.001478 0.000000 0.000000 0.000000
# 3 -0.001478 -0.001478 0.006059 0.000000 0.000000 0.000000
# 4 0.000000 0.000000 0.000000 0.483313 0.000000 0.000000
# 5 0.000000 0.000000 0.000000 0.000000 0.483313 0.000000
# 6 0.000000 0.000000 0.000000 0.000000 0.000000 0.026842
#
#
# Mechanical properties :
#
#
# Convention : Reuss Voigt Hill
#
# Bulk Modulus (GPa) = 76.36054 78.10581 77.23318
# Shear Modulus (GPa) = 4.82324 28.25263 16.53794
#
# Velocity S-wave (km/s) = 1.66901 4.03942 3.09051
# Velocity P-wave (km/s) = 6.91485 8.17710 7.57232
#
# Compressibility (1/GPa) = 0.01309577
#
# Stress axis : x y z
#
# Youngs Moduli (GPa) = 100.52554 100.52554 165.05228
#
# Poissons Ratio (x) = 0.34917 0.24392
# Poissons Ratio (y) = 0.34917 0.24392
# Poissons Ratio (z) = 0.14856 0.14856
#
# Static dielectric constant tensor:
#      x y z
#    x 1.610750 0.000000 0.000000 
#    y 0.000000 1.610750 0.000000 
#    z 0.000000 0.000000 1.484700 
# 
# From -- ./inp_files/2451.got.cif
#   From: 2010.05.17/outbox.cif.g08.bks.cpg/sg176_2_cif.got.tgz:2451.got - 2010.06.03 11:36:45.
