data_PCOD9581566
_publ_section_title
;
Structure prediction by ZEFSAII (Michael W. Deem and Ramdas Pophale) SiO2 
 PCOD9581566
Probable space group: P 6/M
;
_chemical_formula_sum "Si O2"
_cell_formula_units_Z 24
_cell_length_a 10.185714
_cell_length_b 10.185714
_cell_length_c 11.915194
_cell_angle_alpha 90.000000
_cell_angle_beta 90.000000
_cell_angle_gamma 120.000000
_cell_volume 1070.569102
_symmetry_space_group_name_H-M "P 6/M"
_symmetry_group_IT_number 175
_symmetry_cell_setting 'hexagonal'
loop_
_space_group_symop_operation_xyz
x,y,z
x-y,x,z
-y,x-y,z
-x,-y,z
-x+y,-x,z
y,-x+y,z
-x,-y,-z
-x+y,-x,-z
y,-x+y,-z
x,y,-z
x-y,x,-z
-y,x-y,-z
loop_
_atom_site_type_symbol
_atom_site_label
_atom_site_fract_x
_atom_site_fract_y
_atom_site_fract_z
Si Si1 0.000000 0.500000 0.797467
Si Si2 0.666649 0.503688 0.000000
Si Si3 0.746033 0.097690 0.628400
O O1 0.887104 0.522835 0.716692
O O2 0.081709 0.643534 0.881821
O O3 0.523566 0.330071 0.000000
O O4 0.709410 0.924079 0.642353
O O5 0.706250 0.114127 0.500000
#
# Coordination Sequence:
#
# PCOD9581566 Si02
#       3
#     6   6  12
#     4  11  19  34  58  82 109 145 198 234 274 341
#     4   9  20  34  50  76 110 147 178 230 284 325
#     4  10  21  37  57  83 115 152 189 232 284 337
#
# _framework density 22.417981999999999
#
# number of rings (size 3 to 8) (size 9 to 14) (size 15 to 20)
#    0.500    1.500    0.000    4.250    0.000    2.000 
#    3.000    0.000    0.000    0.000    0.000   17.500 
#    0.000    0.000    0.000    0.000    0.000    0.000 
#
# Total GULP energy -133824.196775 kJ/mol
# GULP energy per Si atom -5576.008199 kJ/mol
# Density = 2.236696 g / cm^3
# Si number density = 22.417982 Si / 1000 Ang^3
#
#
#
# Elastic Constant Matrix: (Units=GPa)
#
#
# Indices 1 2 3 4 5 6 
#
# 1 47.6503 -11.9083 30.1747 0.0000 0.0000 0.0000
# 2 -11.9083 47.6503 30.1747 0.0000 0.0000 0.0000
# 3 30.1747 30.1747 160.9449 0.0000 0.0000 0.0000
# 4 0.0000 0.0000 0.0000 19.5835 0.0000 0.0000
# 5 0.0000 0.0000 0.0000 0.0000 19.5835 0.0000
# 6 0.0000 0.0000 0.0000 0.0000 0.0000 29.7793
#
#
#
# Elastic Compliance Matrix: (Units=1/GPa)
#
#
# Indices 1 2 3 4 5 6 
#
# 1 0.028864 0.012074 -0.007675 0.000000 0.000000 0.000000
# 2 0.012074 0.028864 -0.007675 0.000000 0.000000 0.000000
# 3 -0.007675 -0.007675 0.009091 0.000000 0.000000 0.000000
# 4 0.000000 0.000000 0.000000 0.051063 0.000000 0.000000
# 5 0.000000 0.000000 0.000000 0.000000 0.051063 0.000000
# 6 0.000000 0.000000 0.000000 0.000000 0.000000 0.033580
#
#
# Mechanical properties :
#
#
# Convention : Reuss Voigt Hill
#
# Bulk Modulus (GPa) = 16.59313 39.23638 27.91476
# Shear Modulus (GPa) = 21.81805 27.64289 24.73047
#
# Velocity S-wave (km/s) = 3.12306 3.51532 3.32498
# Velocity P-wave (km/s) = 4.51912 5.83239 5.21724
#
# Compressibility (1/GPa) = 0.06026591
#
# Stress axis : x y z
#
# Youngs Moduli (GPa) = 34.64530 34.64530 109.99570
#
# Poissons Ratio (x) = -0.41830 0.84424
# Poissons Ratio (y) = -0.41830 0.84424
# Poissons Ratio (z) = 0.26591 0.26591
#
# Static dielectric constant tensor:
#      x y z
#    x 1.846260 0.000000 0.000000 
#    y 0.000000 1.846260 0.000000 
#    z 0.000000 0.000000 1.858670 
# 
# From -- ./inp_files/1497.got.cif
#   From: 2010.05.17/outbox.cif.g08.bks.cpg/sg175_1_cif.got.tgz:1497.got - 2010.05.20 11:23:22.
