data_PCOD9581044
_publ_section_title
;
Structure prediction by ZEFSAII (Michael W. Deem and Ramdas Pophale) SiO2 
 PCOD9581044
Probable space group: P 63
;
_chemical_formula_sum "Si O2"
_cell_formula_units_Z 48
_cell_length_a 12.982788
_cell_length_b 12.982788
_cell_length_c 14.215297
_cell_angle_alpha 90.000000
_cell_angle_beta 90.000000
_cell_angle_gamma 120.000000
_cell_volume 2075.021019
_symmetry_space_group_name_H-M "P 63"
_symmetry_group_IT_number 173
_symmetry_cell_setting 'hexagonal'
loop_
_space_group_symop_operation_xyz
x,y,z
x-y,x,1/2+z
-y,x-y,z
-x,-y,1/2+z
-x+y,-x,z
y,-x+y,1/2+z
loop_
_atom_site_type_symbol
_atom_site_label
_atom_site_fract_x
_atom_site_fract_y
_atom_site_fract_z
Si Si1 0.935113 0.694354 0.896780
Si Si2 0.126060 0.671437 0.349238
Si Si3 0.617875 0.879074 0.758170
Si Si4 0.478203 0.482663 0.993075
Si Si5 0.127027 0.412105 0.904633
Si Si6 0.144206 0.896295 0.596403
Si Si7 0.506875 0.587457 0.192436
Si Si8 0.167677 0.876066 0.099976
O O1 0.810355 0.593179 0.854134
O O2 0.990135 0.626192 0.952774
O O3 0.030295 0.771449 0.816446
O O4 0.900049 0.750503 0.982645
O O5 0.106313 0.599940 0.448844
O O6 0.147829 0.602772 0.264096
O O7 0.995809 0.660040 0.345148
O O8 0.547033 0.776167 0.830486
O O9 0.638081 0.832176 0.659140
O O10 0.562020 0.962154 0.746527
O O11 0.481956 0.598610 0.950570
O O12 0.470698 0.501766 0.102418
O O13 0.130927 0.333011 0.991056
O O14 0.129755 0.405599 0.154569
O O15 0.002867 0.828669 0.615042
O O16 0.242012 0.030371 0.625143
#
# Coordination Sequence:
#
# PCOD9581044 Si02
#       8
#     6   6   6   6   6   6   6   6
#     4  12  22  42  72 102 140 194 232 300 366 423
#     4  10  21  42  67 101 137 182 238 293 361 430
#     4  11  22  40  69 101 134 185 240 288 362 437
#     4   9  22  43  65  98 137 179 237 290 359 428
#     4   9  19  39  64  94 133 182 228 292 351 425
#     4  11  23  39  66 105 139 193 239 293 371 429
#     4  10  21  43  68 101 135 185 242 296 355 435
#     4  10  20  42  65  98 149 180 242 296 357 443
#
# _framework density 23.132294000000002
#
# number of rings (size 3 to 8) (size 9 to 14) (size 15 to 20)
#    0.750    1.000    3.750    1.000    1.750    2.000 
#    0.750    0.000    0.000    4.000    3.250    0.000 
#    0.000    0.000    0.000    0.000    0.000    0.000 
#
# Total GULP energy -267218.435448 kJ/mol
# GULP energy per Si atom -5567.050739 kJ/mol
# Density = 2.307964 g / cm^3
# Si number density = 23.132294 Si / 1000 Ang^3
#
#
#
# Elastic Constant Matrix: (Units=GPa)
#
#
# Indices 1 2 3 4 5 6 
#
# 1 70.2455 22.4897 15.6572 0.0000 0.0000 0.0000
# 2 22.4897 70.2455 15.6572 0.0000 0.0000 0.0000
# 3 15.6572 15.6572 114.9631 0.0000 0.0000 0.0000
# 4 0.0000 0.0000 0.0000 30.9188 0.0000 0.0000
# 5 0.0000 0.0000 0.0000 0.0000 30.9188 0.0000
# 6 0.0000 0.0000 0.0000 0.0000 0.0000 23.8779
#
#
#
# Elastic Compliance Matrix: (Units=1/GPa)
#
#
# Indices 1 2 3 4 5 6 
#
# 1 0.016122 -0.004818 -0.001539 0.000000 0.000000 0.000000
# 2 -0.004818 0.016122 -0.001539 0.000000 0.000000 0.000000
# 3 -0.001539 -0.001539 0.009118 0.000000 0.000000 0.000000
# 4 0.000000 0.000000 0.000000 0.032343 0.000000 0.000000
# 5 0.000000 0.000000 0.000000 0.000000 0.032343 0.000000
# 6 0.000000 0.000000 0.000000 0.000000 0.000000 0.041880
#
#
# Mechanical properties :
#
#
# Convention : Reuss Voigt Hill
#
# Bulk Modulus (GPa) = 39.11370 40.34028 39.72699
# Shear Modulus (GPa) = 29.02881 30.58643 29.80762
#
# Velocity S-wave (km/s) = 3.54631 3.64021 3.59356
# Velocity P-wave (km/s) = 5.80636 5.92832 5.86765
#
# Compressibility (1/GPa) = 0.02556649
#
# Stress axis : x y z
#
# Youngs Moduli (GPa) = 62.02880 62.02880 109.67603
#
# Poissons Ratio (x) = 0.29888 0.16884
# Poissons Ratio (y) = 0.29888 0.16884
# Poissons Ratio (z) = 0.09549 0.09549
#
# Static dielectric constant tensor:
#      x y z
#    x 1.890930 0.000000 0.000000 
#    y 0.000000 1.890930 0.000000 
#    z 0.000000 0.000000 2.012300 
# 
# From -- ./inp_files/941.got.cif
#   From: 2010.05.17/outbox.cif.g08.bks.cpg/sg173_cif.got.tgz:941.got - 2010.05.20 11:21:53.
