data_PCOD9581186
_publ_section_title
;
Structure prediction by ZEFSAII (Michael W. Deem and Ramdas Pophale) SiO2 
 PCOD9581186
Probable space group: P -6
;
_chemical_formula_sum "Si O2"
_cell_formula_units_Z 30
_cell_length_a 8.452462
_cell_length_b 8.452462
_cell_length_c 24.524843
_cell_angle_alpha 90.000000
_cell_angle_beta 90.000000
_cell_angle_gamma 120.000000
_cell_volume 1517.411327
_symmetry_space_group_name_H-M "P -6"
_symmetry_group_IT_number 174
_symmetry_cell_setting 'hexagonal'
loop_
_space_group_symop_operation_xyz
x,y,z
-x+y,-x,-z
-y,x-y,z
x,y,-z
-x+y,-x,z
-y,x-y,-z
loop_
_atom_site_type_symbol
_atom_site_label
_atom_site_fract_x
_atom_site_fract_y
_atom_site_fract_z
Si Si1 0.992885 0.668803 0.881050
Si Si2 0.113183 0.473377 0.391049
Si Si3 0.864036 0.553051 0.000000
Si Si4 0.644283 0.529976 0.282770
Si Si5 0.335065 0.993159 0.834219
Si Si6 0.473987 0.112664 0.500000
O O1 0.962627 0.660324 0.945619
O O2 0.933728 0.466192 0.861136
O O3 0.863807 0.730245 0.851589
O O4 0.196176 0.800090 0.860182
O O5 0.310099 0.485818 0.390017
O O6 0.991194 0.377242 0.338500
O O7 0.002873 0.385892 0.446066
O O8 0.648833 0.494257 0.000000
O O9 0.487845 0.314567 0.280219
O O10 0.634620 0.637126 0.230439
O O11 0.485540 0.309213 0.500000
#
# Coordination Sequence:
#
# PCOD9581186 Si02
#       6
#     6   6   3   6   6   3
#     4  12  24  42  68  95 131 172 221 275 348 408
#     4  10  22  35  62  99 129 164 223 292 331 382
#     4  10  20  42  72  88 124 170 220 272 350 414
#     4  10  21  40  66  89 130 179 226 261 338 411
#     4  12  24  43  64 102 131 177 220 284 336 418
#     4  10  20  38  66  88 128 184 230 252 338 434
#
# _framework density 19.770510999999999
#
# number of rings (size 3 to 8) (size 9 to 14) (size 15 to 20)
#    1.200    0.000    4.000    3.000    2.800    1.600 
#    0.000    0.000    0.000   11.200    0.000    0.000 
#    0.000    0.000    0.000    0.000    0.000    0.000 
#
# Total GULP energy -167354.644650 kJ/mol
# GULP energy per Si atom -5578.488155 kJ/mol
# Density = 1.972551 g / cm^3
# Si number density = 19.770511 Si / 1000 Ang^3
#
#
#
# Elastic Constant Matrix: (Units=GPa)
#
#
# Indices 1 2 3 4 5 6 
#
# 1 45.5695 9.5066 34.1096 0.0000 0.0000 0.0000
# 2 9.5066 45.5695 34.1096 0.0000 0.0000 0.0000
# 3 34.1096 34.1096 216.1832 0.0000 0.0000 0.0000
# 4 0.0000 0.0000 0.0000 52.5419 0.0000 0.0000
# 5 0.0000 0.0000 0.0000 0.0000 52.5419 0.0000
# 6 0.0000 0.0000 0.0000 0.0000 0.0000 18.0315
#
#
#
# Elastic Compliance Matrix: (Units=1/GPa)
#
#
# Indices 1 2 3 4 5 6 
#
# 1 0.025148 -0.002581 -0.003561 0.000000 0.000000 0.000000
# 2 -0.002581 0.025148 -0.003561 0.000000 0.000000 0.000000
# 3 -0.003561 -0.003561 0.005749 0.000000 0.000000 0.000000
# 4 0.000000 0.000000 0.000000 0.019032 0.000000 0.000000
# 5 0.000000 0.000000 0.000000 0.000000 0.019032 0.000000
# 6 0.000000 0.000000 0.000000 0.000000 0.000000 0.055459
#
#
# Mechanical properties :
#
#
# Convention : Reuss Voigt Hill
#
# Bulk Modulus (GPa) = 27.29198 51.41933 39.35565
# Shear Modulus (GPa) = 27.59573 39.92948 33.76261
#
# Velocity S-wave (km/s) = 3.74010 4.49893 4.13695
# Velocity P-wave (km/s) = 5.69960 7.28366 6.53977
#
# Compressibility (1/GPa) = 0.03664081
#
# Stress axis : x y z
#
# Youngs Moduli (GPa) = 39.76434 39.76434 173.93369
#
# Poissons Ratio (x) = 0.10264 0.61932
# Poissons Ratio (y) = 0.10264 0.61932
# Poissons Ratio (z) = 0.14159 0.14159
#
# Static dielectric constant tensor:
#      x y z
#    x 2.711550 0.000000 0.000000 
#    y 0.000000 2.711550 0.000000 
#    z 0.000000 0.000000 1.653200 
# 
# From -- ./inp_files/1071.got.cif
#   From: 2010.05.17/outbox.cif.g08.bks.cpg/sg174_cif.got.tgz:1071.got - 2010.05.20 11:22:48.
