data_PCOD9581330
_publ_section_title
;
Structure prediction by ZEFSAII (Michael W. Deem and Ramdas Pophale) SiO2 
 PCOD9581330
Probable space group: P 6/M
;
_chemical_formula_sum "Si O2"
_cell_formula_units_Z 78
_cell_length_a 27.494772
_cell_length_b 27.494772
_cell_length_c 7.717522
_cell_angle_alpha 90.000000
_cell_angle_beta 90.000000
_cell_angle_gamma 120.000000
_cell_volume 5052.528282
_symmetry_space_group_name_H-M "P 6/M"
_symmetry_group_IT_number 175
_symmetry_cell_setting 'hexagonal'
loop_
_space_group_symop_operation_xyz
x,y,z
x-y,x,z
-y,x-y,z
-x,-y,z
-x+y,-x,z
y,-x+y,z
-x,-y,-z
-x+y,-x,-z
y,-x+y,-z
x,y,-z
x-y,x,-z
-y,x-y,-z
loop_
_atom_site_type_symbol
_atom_site_label
_atom_site_fract_x
_atom_site_fract_y
_atom_site_fract_z
Si Si1 0.066723 0.349182 0.500000
Si Si2 0.764994 0.231963 0.800785
Si Si3 0.650092 0.937028 0.500000
Si Si4 0.176684 0.540186 0.206847
Si Si5 0.948846 0.388542 0.696201
Si Si6 0.831089 0.357998 0.298019
Si Si7 0.814405 0.188694 0.500000
Si Si8 0.068937 0.429860 0.196540
O O1 0.120359 0.339915 0.500000
O O2 0.072278 0.387367 0.332670
O O3 0.001201 0.298593 0.500000
O O4 0.701422 0.211297 0.741467
O O5 0.796731 0.299056 0.794420
O O6 0.793239 0.208405 0.668254
O O7 0.633911 0.181833 0.000000
O O8 0.609903 0.933526 0.661209
O O9 0.657551 0.882684 0.500000
O O10 0.192472 0.599737 0.284434
O O11 0.112972 0.493206 0.249763
O O12 0.213682 0.449590 0.000000
O O13 0.960462 0.412775 0.500000
O O14 0.895004 0.388443 0.769853
O O15 0.006152 0.418752 0.797820
O O16 0.834449 0.345336 0.500000
O O17 0.082862 0.421488 0.000000
#
# Coordination Sequence:
#
# PCOD9581330 Si02
#       8
#     6  12   6  12  12  12   6  12
#     4  10  20  32  54  75 106 132 153 206 240 270
#     4  11  22  37  54  74  92 121 168 206 250 309
#     4   8  16  34  48  79 104 118 169 194 228 294
#     4  10  23  36  48  70  94 117 159 205 242 302
#     4   8  16  32  48  70 100 121 153 195 236 288
#     4  11  21  35  54  71  92 125 159 198 254 305
#     4  12  18  36  60  74 102 138 157 196 248 286
#     4  10  19  32  50  73  98 126 159 192 241 295
#
# _framework density 15.437815000000001
#
# number of rings (size 3 to 8) (size 9 to 14) (size 15 to 20)
#    0.462    1.538    4.615    0.462    2.154    1.846 
#    0.923    3.077    0.000    0.000    0.000    0.000 
#    0.000    0.000    0.000    0.231    0.000    0.000 
#
# Total GULP energy -434493.849350 kJ/mol
# GULP energy per Si atom -5570.433966 kJ/mol
# Density = 1.540268 g / cm^3
# Si number density = 15.437815 Si / 1000 Ang^3
#
#
#
# Elastic Constant Matrix: (Units=GPa)
#
#
# Indices 1 2 3 4 5 6 
#
# 1 71.9572 34.2189 14.4101 0.0000 0.0000 0.0000
# 2 34.2189 71.9572 14.4101 0.0000 0.0000 0.0000
# 3 14.4101 14.4101 55.9728 0.0000 0.0000 0.0000
# 4 0.0000 0.0000 0.0000 11.9246 0.0000 0.0000
# 5 0.0000 0.0000 0.0000 0.0000 11.9246 0.0000
# 6 0.0000 0.0000 0.0000 0.0000 0.0000 18.8692
#
#
#
# Elastic Compliance Matrix: (Units=1/GPa)
#
#
# Indices 1 2 3 4 5 6 
#
# 1 0.018312 -0.008186 -0.002607 0.000000 0.000000 0.000000
# 2 -0.008186 0.018312 -0.002607 0.000000 0.000000 0.000000
# 3 -0.002607 -0.002607 0.019208 0.000000 0.000000 0.000000
# 4 0.000000 0.000000 0.000000 0.083861 0.000000 0.000000
# 5 0.000000 0.000000 0.000000 0.000000 0.083861 0.000000
# 6 0.000000 0.000000 0.000000 0.000000 0.000000 0.052996
#
#
# Mechanical properties :
#
#
# Convention : Reuss Voigt Hill
#
# Bulk Modulus (GPa) = 34.44435 36.21839 35.33137
# Shear Modulus (GPa) = 15.97306 17.66687 16.81996
#
# Velocity S-wave (km/s) = 3.22012 3.38655 3.30438
# Velocity P-wave (km/s) = 6.01545 6.22924 6.12328
#
# Compressibility (1/GPa) = 0.02903234
#
# Stress axis : x y z
#
# Youngs Moduli (GPa) = 54.60875 54.60875 52.06135
#
# Poissons Ratio (x) = 0.44704 0.13572
# Poissons Ratio (y) = 0.44704 0.13572
# Poissons Ratio (z) = 0.14236 0.14236
#
# Static dielectric constant tensor:
#      x y z
#    x 1.523020 0.000000 0.000000 
#    y 0.000000 1.523020 0.000000 
#    z 0.000000 0.000000 1.552250 
# 
# From -- ./inp_files/1426.got.cif
#   From: 2010.05.17/outbox.cif.g08.bks.cpg/sg175_1_cif.got.tgz:1426.got - 2010.05.20 11:23:22.
