data_PCOD9581341
_publ_section_title
;
Structure prediction by ZEFSAII (Michael W. Deem and Ramdas Pophale) SiO2 
 PCOD9581341
Probable space group: P 6/M
;
_chemical_formula_sum "Si O2"
_cell_formula_units_Z 96
_cell_length_a 24.505105
_cell_length_b 24.505105
_cell_length_c 10.739304
_cell_angle_alpha 90.000000
_cell_angle_beta 90.000000
_cell_angle_gamma 120.000000
_cell_volume 5584.957896
_symmetry_space_group_name_H-M "P 6/M"
_symmetry_group_IT_number 175
_symmetry_cell_setting 'hexagonal'
loop_
_space_group_symop_operation_xyz
x,y,z
x-y,x,z
-y,x-y,z
-x,-y,z
-x+y,-x,z
y,-x+y,z
-x,-y,-z
-x+y,-x,-z
y,-x+y,-z
x,y,-z
x-y,x,-z
-y,x-y,-z
loop_
_atom_site_type_symbol
_atom_site_label
_atom_site_fract_x
_atom_site_fract_y
_atom_site_fract_z
Si Si1 0.008463 0.882650 0.647035
Si Si2 0.665897 0.999790 0.354844
Si Si3 0.767376 0.145977 0.644802
Si Si4 0.575217 0.190327 0.347889
Si Si5 0.283819 0.158456 0.135671
Si Si6 0.018507 0.783831 0.788588
Si Si7 0.281755 0.758483 0.650960
Si Si8 0.951553 0.429409 0.348641
O O1 0.007760 0.890980 0.500000
O O2 0.012924 0.821367 0.671511
O O3 0.944271 0.875536 0.699619
O O4 0.666512 0.981169 0.500000
O O5 0.701631 0.976590 0.262918
O O6 0.594132 0.974309 0.316060
O O7 0.706184 0.075974 0.351936
O O8 0.790285 0.156969 0.500000
O O9 0.815734 0.145360 0.744558
O O10 0.747484 0.197237 0.680504
O O11 0.575555 0.190531 0.500000
O O12 0.646274 0.212879 0.306673
O O13 0.551515 0.238053 0.307689
O O14 0.526242 0.119356 0.308011
O O15 0.247794 0.082435 0.144027
O O16 0.241411 0.192406 0.144307
O O17 0.316104 0.176421 0.000000
O O18 0.283430 0.757399 0.500000
O O19 0.951828 0.431263 0.500000
O O20 0.000000 0.500000 0.305250
#
# Coordination Sequence:
#
# PCOD9581341 Si02
#       8
#    12  12  12  12  12  12  12  12
#     4  10  19  32  51  77 107 139 174 216 264 314
#     4   9  18  30  46  74 106 136 172 216 259 308
#     4   9  19  34  54  77 106 139 174 217 264 312
#     4   9  16  24  39  64  99 141 172 205 254 308
#     4  11  24  40  57  77 103 138 179 221 271 323
#     4  11  21  36  55  73 101 134 177 221 265 317
#     4   9  16  27  43  70 107 142 175 211 257 312
#     4   9  16  26  41  62  96 139 175 206 252 309
#
# _framework density 17.189028
#
# number of rings (size 3 to 8) (size 9 to 14) (size 15 to 20)
#    0.000    2.375    1.250    1.875    1.750    6.000 
#    0.000    0.000    0.000    0.000    0.000    2.625 
#    0.000    5.250    0.000    0.000    0.000    0.000 
#
# Total GULP energy -534686.712661 kJ/mol
# GULP energy per Si atom -5569.653257 kJ/mol
# Density = 1.714991 g / cm^3
# Si number density = 17.189028 Si / 1000 Ang^3
#
#
#
# Elastic Constant Matrix: (Units=GPa)
#
#
# Indices 1 2 3 4 5 6 
#
# 1 114.7073 65.3724 31.0757 0.0000 0.0000 0.0000
# 2 65.3724 114.7073 31.0757 0.0000 0.0000 0.0000
# 3 31.0757 31.0757 47.4769 0.0000 0.0000 0.0000
# 4 0.0000 0.0000 0.0000 1.3203 0.0000 0.0000
# 5 0.0000 0.0000 0.0000 0.0000 1.3203 0.0000
# 6 0.0000 0.0000 0.0000 0.0000 0.0000 24.6674
#
#
#
# Elastic Compliance Matrix: (Units=1/GPa)
#
#
# Indices 1 2 3 4 5 6 
#
# 1 0.013722 -0.006548 -0.004695 0.000000 0.000000 0.000000
# 2 -0.006548 0.013722 -0.004695 0.000000 0.000000 0.000000
# 3 -0.004695 -0.004695 0.027210 0.000000 0.000000 0.000000
# 4 0.000000 0.000000 0.000000 0.757429 0.000000 0.000000
# 5 0.000000 0.000000 0.000000 0.000000 0.757429 0.000000
# 6 0.000000 0.000000 0.000000 0.000000 0.000000 0.040539
#
#
# Mechanical properties :
#
#
# Convention : Reuss Voigt Hill
#
# Bulk Modulus (GPa) = 43.90762 59.10434 51.50598
# Shear Modulus (GPa) = 3.03119 15.41943 9.22531
#
# Velocity S-wave (km/s) = 1.32939 2.99833 2.31919
# Velocity P-wave (km/s) = 5.28732 6.81515 6.09926
#
# Compressibility (1/GPa) = 0.02277509
#
# Stress axis : x y z
#
# Youngs Moduli (GPa) = 72.87752 72.87752 36.75164
#
# Poissons Ratio (x) = 0.47720 0.17257
# Poissons Ratio (y) = 0.47720 0.17257
# Poissons Ratio (z) = 0.34219 0.34219
#
# Static dielectric constant tensor:
#      x y z
#    x 1.590800 0.000000 0.000000 
#    y 0.000000 1.590800 0.000000 
#    z 0.000000 0.000000 1.553480 
# 
# From -- ./inp_files/2158.got.cif
#   From: 2010.05.17/outbox.cif.g08.bks.cpg/sg175_2_cif.got.tgz:2158.got - 2010.05.20 11:23:22.
