data_PCOD9581075
_publ_section_title
;
Structure prediction by ZEFSAII (Michael W. Deem and Ramdas Pophale) SiO2 
 PCOD9581075
Probable space group: P 63
;
_chemical_formula_sum "Si O2"
_cell_formula_units_Z 42
_cell_length_a 13.846651
_cell_length_b 13.846651
_cell_length_c 11.569438
_cell_angle_alpha 90.000000
_cell_angle_beta 90.000000
_cell_angle_gamma 120.000000
_cell_volume 1921.022214
_symmetry_space_group_name_H-M "P 63"
_symmetry_group_IT_number 173
_symmetry_cell_setting 'hexagonal'
loop_
_space_group_symop_operation_xyz
x,y,z
x-y,x,1/2+z
-y,x-y,z
-x,-y,1/2+z
-x+y,-x,z
y,-x+y,1/2+z
loop_
_atom_site_type_symbol
_atom_site_label
_atom_site_fract_x
_atom_site_fract_y
_atom_site_fract_z
Si Si1 0.133800 0.115888 0.554550
Si Si2 0.551671 0.844201 0.963911
Si Si3 0.239997 0.294427 0.387213
Si Si4 0.630864 0.114824 0.360399
Si Si5 0.433233 0.623388 0.614596
Si Si6 0.602495 0.696992 0.420756
Si Si7 0.352886 0.205795 0.683626
O O1 0.182079 0.166904 0.428490
O O2 0.239161 0.195122 0.633890
O O3 0.014726 0.109639 0.569535
O O4 0.541190 0.756872 0.868155
O O5 0.444855 0.858375 0.944231
O O6 0.656021 0.966640 0.946562
O O7 0.568602 0.793976 0.082511
O O8 0.371251 0.361770 0.403660
O O9 0.173771 0.346841 0.451895
O O10 0.217665 0.308746 0.254640
O O11 0.596546 0.112927 0.227141
O O12 0.449149 0.748472 0.618536
O O13 0.493277 0.622634 0.496565
O O14 0.588074 0.699465 0.281675
#
# Coordination Sequence:
#
# PCOD9581075 Si02
#       7
#     6   6   6   6   6   6   6
#     4  10  22  40  71  99 142 198 245 300 372 459
#     4  12  24  50  72 108 146 191 251 311 374 452
#     4  10  24  43  66 105 142 191 246 301 385 451
#     4  12  24  45  80 100 142 196 256 305 369 453
#     4  10  22  46  72 100 140 188 256 305 370 445
#     4  10  26  44  70 103 153 187 243 315 379 448
#     4  10  24  46  65 111 149 187 241 315 379 440
#
# _framework density 21.863358999999999
#
# number of rings (size 3 to 8) (size 9 to 14) (size 15 to 20)
#    1.429    0.000    2.857    2.000    2.000    3.429 
#    7.714    0.000    0.000    0.000    0.000    0.000 
#    0.000    0.000    0.000    0.000    0.000    0.000 
#
# Total GULP energy -233922.488121 kJ/mol
# GULP energy per Si atom -5569.583051 kJ/mol
# Density = 2.181360 g / cm^3
# Si number density = 21.863359 Si / 1000 Ang^3
#
#
#
# Elastic Constant Matrix: (Units=GPa)
#
#
# Indices 1 2 3 4 5 6 
#
# 1 83.9738 22.6614 24.0191 0.0000 0.0000 0.0000
# 2 22.6614 83.9738 24.0191 0.0000 0.0000 0.0000
# 3 24.0191 24.0191 112.7187 0.0000 0.0000 0.0000
# 4 0.0000 0.0000 0.0000 27.7951 0.0000 0.0000
# 5 0.0000 0.0000 0.0000 0.0000 27.7951 0.0000
# 6 0.0000 0.0000 0.0000 0.0000 0.0000 30.6562
#
#
#
# Elastic Compliance Matrix: (Units=1/GPa)
#
#
# Indices 1 2 3 4 5 6 
#
# 1 0.013342 -0.002968 -0.002210 0.000000 0.000000 0.000000
# 2 -0.002968 0.013342 -0.002210 0.000000 0.000000 0.000000
# 3 -0.002210 -0.002210 0.009814 0.000000 0.000000 0.000000
# 4 0.000000 0.000000 0.000000 0.035978 0.000000 0.000000
# 5 0.000000 0.000000 0.000000 0.000000 0.035978 0.000000
# 6 0.000000 0.000000 0.000000 0.000000 0.000000 0.032620
#
#
# Mechanical properties :
#
#
# Convention : Reuss Voigt Hill
#
# Bulk Modulus (GPa) = 46.04287 46.89615 46.46951
# Shear Modulus (GPa) = 30.65792 31.24708 30.95250
#
# Velocity S-wave (km/s) = 3.74873 3.78458 3.76669
# Velocity P-wave (km/s) = 6.31208 6.37131 6.34176
#
# Compressibility (1/GPa) = 0.02171889
#
# Stress axis : x y z
#
# Youngs Moduli (GPa) = 74.95271 74.95271 101.89834
#
# Poissons Ratio (x) = 0.22247 0.22525
# Poissons Ratio (y) = 0.22247 0.22525
# Poissons Ratio (z) = 0.16568 0.16568
#
# Static dielectric constant tensor:
#      x y z
#    x 1.806750 0.000000 0.000000 
#    y 0.000000 1.806750 0.000000 
#    z 0.000000 0.000000 1.809900 
# 
# From -- ./inp_files/907.got.cif
#   From: 2010.05.17/outbox.cif.g08.bks.cpg/sg173_cif.got.tgz:907.got - 2010.05.20 11:21:53.
