data_PCOD9581438
_publ_section_title
;
Structure prediction by ZEFSAII (Michael W. Deem and Ramdas Pophale) SiO2 
 PCOD9581438
Probable space group: P 6/M
;
_chemical_formula_sum "Si O2"
_cell_formula_units_Z 90
_cell_length_a 25.937790
_cell_length_b 25.937790
_cell_length_c 10.196051
_cell_angle_alpha 90.000000
_cell_angle_beta 90.000000
_cell_angle_gamma 120.000000
_cell_volume 5940.576191
_symmetry_space_group_name_H-M "P 6/M"
_symmetry_group_IT_number 175
_symmetry_cell_setting 'hexagonal'
loop_
_space_group_symop_operation_xyz
x,y,z
x-y,x,z
-y,x-y,z
-x,-y,z
-x+y,-x,z
y,-x+y,z
-x,-y,-z
-x+y,-x,-z
y,-x+y,-z
x,y,-z
x-y,x,-z
-y,x-y,-z
loop_
_atom_site_type_symbol
_atom_site_label
_atom_site_fract_x
_atom_site_fract_y
_atom_site_fract_z
Si Si1 0.711581 0.201496 0.354325
Si Si2 0.508743 0.192522 0.234203
Si Si3 0.003426 0.335860 0.157826
Si Si4 0.404732 0.730544 0.000000
Si Si5 0.628827 0.875222 0.155393
Si Si6 0.571169 0.040112 0.850873
Si Si7 0.862990 0.618557 0.159301
Si Si8 0.580275 0.136583 0.650677
O O1 0.714573 0.178707 0.500000
O O2 0.762921 0.269052 0.338980
O O3 0.722040 0.165456 0.238653
O O4 0.646443 0.193721 0.342807
O O5 0.555290 0.233869 0.123466
O O6 0.442014 0.153770 0.178449
O O7 0.531791 0.151393 0.295185
O O8 0.006404 0.398971 0.183090
O O9 0.067370 0.343957 0.195966
O O10 0.942258 0.280844 0.211486
O O11 0.001130 0.329832 0.000000
O O12 0.339501 0.725142 0.000000
O O13 0.644811 0.824865 0.198051
O O14 0.639052 0.880570 0.000000
O O15 0.584272 0.089262 0.743261
O O16 0.500000 0.000000 0.853386
O O17 0.590146 0.064327 0.000000
O O18 0.858661 0.609260 0.000000
O O19 0.567919 0.116588 0.500000
#
# Coordination Sequence:
#
# PCOD9581438 Si02
#       8
#    12  12  12   6  12  12  12  12
#     4  10  21  35  50  65  89 121 153 189 239 293
#     4  11  20  35  49  65  91 118 152 198 245 295
#     4   9  16  29  46  71  98 117 149 190 228 278
#     4  10  22  34  46  72  89 111 155 212 262 292
#     4   9  17  29  49  73  95 117 147 186 237 276
#     4  10  20  33  51  71  93 122 155 192 241 284
#     4   9  17  31  52  73  91 121 153 191 229 270
#     4  11  23  35  49  68  91 123 152 192 247 293
#
# _framework density 15.150046
#
# number of rings (size 3 to 8) (size 9 to 14) (size 15 to 20)
#    0.133    2.000    2.000    2.000    1.867    1.333 
#    0.800    0.000    0.000    4.000    0.000    0.000 
#    0.000    0.000    0.000    0.400    0.000   12.800 
#
# Total GULP energy -501070.802648 kJ/mol
# GULP energy per Si atom -5567.453363 kJ/mol
# Density = 1.511556 g / cm^3
# Si number density = 15.150046 Si / 1000 Ang^3
#
#
#
# Elastic Constant Matrix: (Units=GPa)
#
#
# Indices 1 2 3 4 5 6 
#
# 1 77.1823 36.3768 13.0667 0.0000 0.0000 0.0000
# 2 36.3768 77.1823 13.0667 0.0000 0.0000 0.0000
# 3 13.0667 13.0667 40.1566 0.0000 0.0000 0.0000
# 4 0.0000 0.0000 0.0000 43.3562 0.0000 0.0000
# 5 0.0000 0.0000 0.0000 0.0000 43.3562 0.0000
# 6 0.0000 0.0000 0.0000 0.0000 0.0000 20.4027
#
#
#
# Elastic Compliance Matrix: (Units=1/GPa)
#
#
# Indices 1 2 3 4 5 6 
#
# 1 0.017013 -0.007494 -0.003097 0.000000 0.000000 0.000000
# 2 -0.007494 0.017013 -0.003097 0.000000 0.000000 0.000000
# 3 -0.003097 -0.003097 0.026918 0.000000 0.000000 0.000000
# 4 0.000000 0.000000 0.000000 0.023065 0.000000 0.000000
# 5 0.000000 0.000000 0.000000 0.000000 0.023065 0.000000
# 6 0.000000 0.000000 0.000000 0.000000 0.000000 0.049013
#
#
# Mechanical properties :
#
#
# Convention : Reuss Voigt Hill
#
# Bulk Modulus (GPa) = 29.79170 35.50460 32.64815
# Shear Modulus (GPa) = 25.68687 30.22377 27.95532
#
# Velocity S-wave (km/s) = 4.12211 4.47135 4.30027
# Velocity P-wave (km/s) = 6.50867 7.08120 6.80097
#
# Compressibility (1/GPa) = 0.03356640
#
# Stress axis : x y z
#
# Youngs Moduli (GPa) = 58.77978 58.77978 37.14957
#
# Poissons Ratio (x) = 0.44049 0.11506
# Poissons Ratio (y) = 0.44049 0.11506
# Poissons Ratio (z) = 0.18206 0.18206
#
# Static dielectric constant tensor:
#      x y z
#    x 1.522820 0.000000 0.000000 
#    y 0.000000 1.522820 0.000000 
#    z 0.000000 0.000000 1.509840 
# 
# From -- ./inp_files/1473.got.cif
#   From: 2010.05.17/outbox.cif.g08.bks.cpg/sg175_1_cif.got.tgz:1473.got - 2010.05.20 11:23:22.
