data_PCOD9581813
_publ_section_title
;
Structure prediction by ZEFSAII (Michael W. Deem and Ramdas Pophale) SiO2 
 PCOD9581813
Probable space group: P 63/M
;
_chemical_formula_sum "Si O2"
_cell_formula_units_Z 72
_cell_length_a 23.643385
_cell_length_b 23.643385
_cell_length_c 7.963472
_cell_angle_alpha 90.000000
_cell_angle_beta 90.000000
_cell_angle_gamma 120.000000
_cell_volume 3855.248683
_symmetry_space_group_name_H-M "P 63/M"
_symmetry_group_IT_number 176
_symmetry_cell_setting 'hexagonal'
loop_
_space_group_symop_operation_xyz
x,y,z
x-y,x,1/2+z
-y,x-y,z
-x,-y,1/2+z
-x+y,-x,z
y,-x+y,1/2+z
-x,-y,-z
-x+y,-x,1/2-z
y,-x+y,-z
x,y,1/2-z
x-y,x,-z
-y,x-y,1/2-z
loop_
_atom_site_type_symbol
_atom_site_label
_atom_site_fract_x
_atom_site_fract_y
_atom_site_fract_z
Si Si1 0.132308 0.022231 0.937156
Si Si2 0.918506 0.401517 0.451738
Si Si3 0.069835 0.467820 0.546541
Si Si4 0.246755 0.252303 0.950847
Si Si5 0.388889 0.129200 0.044170
Si Si6 0.875035 0.623178 0.047604
O O1 0.139550 0.049212 0.750000
O O2 0.195905 0.018000 0.981813
O O3 0.070695 0.949750 0.947485
O O4 0.912643 0.399923 0.250000
O O5 0.904403 0.458076 0.513440
O O6 0.876167 0.327371 0.512862
O O7 0.994154 0.426649 0.493570
O O8 0.071531 0.468595 0.750000
O O9 0.107808 0.431371 0.486037
O O10 0.243600 0.251173 0.750000
O O11 0.259415 0.323003 0.008114
O O12 0.306064 0.241547 0.003535
O O13 0.389176 0.129703 0.250000
O O14 0.386601 0.192810 0.986605
O O15 0.871398 0.619013 0.250000
#
# Coordination Sequence:
#
# PCOD9581813 Si02
#       6
#    12  12  12  12  12  12
#     4  12  25  42  60  79 102 134 175 224 270 321
#     4   9  16  30  49  70  96 129 163 202 249 306
#     4   9  17  28  48  74  98 124 162 208 253 298
#     4  11  21  35  53  76 102 138 177 215 265 320
#     4   9  18  31  49  70 100 136 168 203 255 311
#     4  10  19  32  49  73 103 136 170 214 262 313
#
# _framework density 18.675837000000001
#
# number of rings (size 3 to 8) (size 9 to 14) (size 15 to 20)
#    0.000    2.000    1.667    3.167    0.000    1.333 
#    0.000    1.667    0.000    0.667    0.000    4.667 
#    0.000    0.000    0.000    3.833    0.000    4.667 
#
# Total GULP energy -401936.039310 kJ/mol
# GULP energy per Si atom -5582.444990 kJ/mol
# Density = 1.863333 g / cm^3
# Si number density = 18.675837 Si / 1000 Ang^3
#
#
#
# Elastic Constant Matrix: (Units=GPa)
#
#
# Indices 1 2 3 4 5 6 
#
# 1 48.8861 -5.0540 -2.9418 0.0000 0.0000 0.0000
# 2 -5.0540 48.8861 -2.9418 0.0000 0.0000 0.0000
# 3 -2.9418 -2.9418 22.2149 0.0000 0.0000 0.0000
# 4 0.0000 0.0000 0.0000 8.8372 0.0000 0.0000
# 5 0.0000 0.0000 0.0000 0.0000 8.8372 0.0000
# 6 0.0000 0.0000 0.0000 0.0000 0.0000 26.9700
#
#
#
# Elastic Compliance Matrix: (Units=1/GPa)
#
#
# Indices 1 2 3 4 5 6 
#
# 1 0.020883 0.002344 0.003076 0.000000 0.000000 0.000000
# 2 0.002344 0.020883 0.003076 0.000000 0.000000 0.000000
# 3 0.003076 0.003076 0.045830 0.000000 0.000000 0.000000
# 4 0.000000 0.000000 0.000000 0.113158 0.000000 0.000000
# 5 0.000000 0.000000 0.000000 0.000000 0.113158 0.000000
# 6 0.000000 0.000000 0.000000 0.000000 0.000000 0.037078
#
#
# Mechanical properties :
#
#
# Convention : Reuss Voigt Hill
#
# Bulk Modulus (GPa) = 9.56139 10.90133 10.23136
# Shear Modulus (GPa) = 13.55521 17.65717 15.60619
#
# Velocity S-wave (km/s) = 2.69702 3.07816 2.89387
# Velocity P-wave (km/s) = 3.85089 4.29921 4.08121
#
# Compressibility (1/GPa) = 0.10458728
#
# Stress axis : x y z
#
# Youngs Moduli (GPa) = 47.88549 47.88549 21.81999
#
# Poissons Ratio (x) = -0.11225 -0.06711
# Poissons Ratio (y) = -0.11225 -0.06711
# Poissons Ratio (z) = -0.14729 -0.14729
#
# Static dielectric constant tensor:
#      x y z
#    x 1.638800 0.000000 0.000000 
#    y 0.000000 1.638800 0.000000 
#    z 0.000000 0.000000 1.684750 
# 
# From -- ./inp_files/1227.got.cif
#   From: 2010.05.17/outbox.cif.g08.bks.cpg/sg176_1_cif.got.tgz:1227.got - 2010.06.03 11:36:45.
