data_PCOD9581106
_publ_section_title
;
Structure prediction by ZEFSAII (Michael W. Deem and Ramdas Pophale) SiO2 
 PCOD9581106
Probable space group: P 63
;
_chemical_formula_sum "Si O2"
_cell_formula_units_Z 24
_cell_length_a 11.055399
_cell_length_b 11.055399
_cell_length_c 11.456639
_cell_angle_alpha 90.000000
_cell_angle_beta 90.000000
_cell_angle_gamma 120.000000
_cell_volume 1212.653440
_symmetry_space_group_name_H-M "P 63"
_symmetry_group_IT_number 173
_symmetry_cell_setting 'hexagonal'
loop_
_space_group_symop_operation_xyz
x,y,z
x-y,x,1/2+z
-y,x-y,z
-x,-y,1/2+z
-x+y,-x,z
y,-x+y,1/2+z
loop_
_atom_site_type_symbol
_atom_site_label
_atom_site_fract_x
_atom_site_fract_y
_atom_site_fract_z
Si Si1 0.674294 0.096383 0.218920
Si Si2 0.498164 0.808707 0.313103
Si Si3 0.501836 0.310543 0.484946
Si Si4 0.422089 0.096383 0.079130
O O1 0.691344 0.161590 0.347999
O O2 0.556301 0.112602 0.149025
O O3 0.817158 0.182841 0.149025
O O4 0.618715 0.933629 0.241797
O O5 0.351162 0.805399 0.288907
O O6 0.529754 0.838410 0.450051
O O7 0.545763 0.194601 0.509143
O O8 0.381285 0.314915 0.556253
#
# Coordination Sequence:
#
# PCOD9581106 Si02
#       4
#     6   6   6   6
#     4  11  18  31  54  79 122 158 199 254 313 353
#     4   9  19  34  51  80 120 160 204 249 303 364
#     4   9  19  34  51  80 120 160 204 249 303 364
#     4  11  18  31  54  79 122 158 199 254 313 353
#
# _framework density 19.791309999999999
#
# number of rings (size 3 to 8) (size 9 to 14) (size 15 to 20)
#    1.000    1.000    5.000    0.500    0.000    2.000 
#    0.000    0.000    0.000    0.000    0.000    0.000 
#   35.000   27.000    0.000    0.000    0.000    0.000 
#
# Total GULP energy -133870.560513 kJ/mol
# GULP energy per Si atom -5577.940021 kJ/mol
# Density = 1.974626 g / cm^3
# Si number density = 19.791310 Si / 1000 Ang^3
#
#
#
# Elastic Constant Matrix: (Units=GPa)
#
#
# Indices 1 2 3 4 5 6 
#
# 1 86.6264 32.9435 45.2495 0.0000 0.0000 0.0000
# 2 32.9435 86.6264 45.2495 0.0000 0.0000 0.0000
# 3 45.2495 45.2495 121.4422 0.0000 0.0000 0.0000
# 4 0.0000 0.0000 0.0000 35.2850 0.0000 0.0000
# 5 0.0000 0.0000 0.0000 0.0000 35.2850 0.0000
# 6 0.0000 0.0000 0.0000 0.0000 0.0000 26.8415
#
#
#
# Elastic Compliance Matrix: (Units=1/GPa)
#
#
# Indices 1 2 3 4 5 6 
#
# 1 0.015138 -0.003490 -0.004340 0.000000 0.000000 0.000000
# 2 -0.003490 0.015138 -0.004340 0.000000 0.000000 0.000000
# 3 -0.004340 -0.004340 0.011469 0.000000 0.000000 0.000000
# 4 0.000000 0.000000 0.000000 0.028341 0.000000 0.000000
# 5 0.000000 0.000000 0.000000 0.000000 0.028341 0.000000
# 6 0.000000 0.000000 0.000000 0.000000 0.000000 0.037256
#
#
# Mechanical properties :
#
#
# Convention : Reuss Voigt Hill
#
# Bulk Modulus (GPa) = 57.45625 60.17557 58.81591
# Shear Modulus (GPa) = 30.15253 30.89915 30.52584
#
# Velocity S-wave (km/s) = 3.90747 3.95555 3.93158
# Velocity P-wave (km/s) = 7.03220 7.16470 7.09876
#
# Compressibility (1/GPa) = 0.01740455
#
# Stress axis : x y z
#
# Youngs Moduli (GPa) = 66.05863 66.05863 87.19414
#
# Poissons Ratio (x) = 0.23053 0.37844
# Poissons Ratio (y) = 0.23053 0.37844
# Poissons Ratio (z) = 0.28670 0.28670
#
# Static dielectric constant tensor:
#      x y z
#    x 1.692890 0.000000 0.000000 
#    y 0.000000 1.692890 0.000000 
#    z 0.000000 0.000000 1.740440 
# 
# From -- ./inp_files/828.got.cif
#   From: 2010.05.17/outbox.cif.g08.bks.cpg/sg173_cif.got.tgz:828.got - 2010.05.20 11:21:53.
