data_PCOD9581264
_publ_section_title
;
Structure prediction by ZEFSAII (Michael W. Deem and Ramdas Pophale) SiO2 
 PCOD9581264
Probable space group: P 6/M
;
_chemical_formula_sum "Si O2"
_cell_formula_units_Z 60
_cell_length_a 19.758438
_cell_length_b 19.758438
_cell_length_c 10.261310
_cell_angle_alpha 90.000000
_cell_angle_beta 90.000000
_cell_angle_gamma 120.000000
_cell_volume 3469.274443
_symmetry_space_group_name_H-M "P 6/M"
_symmetry_group_IT_number 175
_symmetry_cell_setting 'hexagonal'
loop_
_space_group_symop_operation_xyz
x,y,z
x-y,x,z
-y,x-y,z
-x,-y,z
-x+y,-x,z
y,-x+y,z
-x,-y,-z
-x+y,-x,-z
y,-x+y,-z
x,y,-z
x-y,x,-z
-y,x-y,-z
loop_
_atom_site_type_symbol
_atom_site_label
_atom_site_fract_x
_atom_site_fract_y
_atom_site_fract_z
Si Si1 0.127935 0.698613 0.154420
Si Si2 0.983777 0.154302 0.500000
Si Si3 0.130884 0.403407 0.845765
Si Si4 0.466681 0.557802 0.156373
Si Si5 0.749646 0.739076 0.753647
Si Si6 0.027684 0.854014 0.000000
O O1 0.208964 0.778613 0.163643
O O2 0.133353 0.623479 0.198471
O O3 0.064797 0.710388 0.233907
O O4 0.103875 0.686522 0.000000
O O5 0.980286 0.201357 0.625312
O O6 0.065945 0.154867 0.500000
O O7 0.116149 0.472088 0.795450
O O8 0.077259 0.321927 0.773343
O O9 0.108567 0.388573 0.000000
O O10 0.500000 0.500000 0.182858
O O11 0.465204 0.566801 0.000000
O O12 0.809075 0.775771 0.874306
O O13 0.943220 0.847157 0.000000
#
# Coordination Sequence:
#
# PCOD9581264 Si02
#       6
#    12   6  12  12  12   6
#     4  10  18  31  53  80 110 144 184 230 272 320
#     4  12  27  44  58  77 110 148 182 222 278 339
#     4  10  18  31  53  80 110 144 184 230 272 320
#     4   9  16  28  46  76 110 146 178 214 274 330
#     4  12  22  37  58  82 105 140 187 227 273 323
#     4  12  23  36  54  79 106 134 172 220 272 325
#
# _framework density 17.294682999999999
#
# number of rings (size 3 to 8) (size 9 to 14) (size 15 to 20)
#    0.000    1.400    4.000    3.800    0.000    0.000 
#    1.200    2.000    0.000    2.400    0.000    0.000 
#    0.000    0.000    0.000    0.000    0.000    0.000 
#
# Total GULP energy -334907.839150 kJ/mol
# GULP energy per Si atom -5581.797319 kJ/mol
# Density = 1.725532 g / cm^3
# Si number density = 17.294683 Si / 1000 Ang^3
#
#
#
# Elastic Constant Matrix: (Units=GPa)
#
#
# Indices 1 2 3 4 5 6 
#
# 1 66.8683 0.0008 23.0896 0.0000 0.0000 0.0000
# 2 0.0008 66.8683 23.0896 0.0000 0.0000 0.0000
# 3 23.0896 23.0896 74.7373 0.0000 0.0000 0.0000
# 4 0.0000 0.0000 0.0000 10.8078 0.0000 0.0000
# 5 0.0000 0.0000 0.0000 0.0000 10.8078 0.0000
# 6 0.0000 0.0000 0.0000 0.0000 0.0000 33.4337
#
#
#
# Elastic Compliance Matrix: (Units=1/GPa)
#
#
# Indices 1 2 3 4 5 6 
#
# 1 0.016983 0.002028 -0.005873 0.000000 0.000000 0.000000
# 2 0.002028 0.016983 -0.005873 0.000000 0.000000 0.000000
# 3 -0.005873 -0.005873 0.017009 0.000000 0.000000 0.000000
# 4 0.000000 0.000000 0.000000 0.092526 0.000000 0.000000
# 5 0.000000 0.000000 0.000000 0.000000 0.092526 0.000000
# 6 0.000000 0.000000 0.000000 0.000000 0.000000 0.029910
#
#
# Mechanical properties :
#
#
# Convention : Reuss Voigt Hill
#
# Bulk Modulus (GPa) = 31.70823 33.42598 32.56711
# Shear Modulus (GPa) = 16.89838 21.82944 19.36391
#
# Velocity S-wave (km/s) = 3.12923 3.55661 3.34974
# Velocity P-wave (km/s) = 5.60625 6.01957 5.81658
#
# Compressibility (1/GPa) = 0.03153755
#
# Stress axis : x y z
#
# Youngs Moduli (GPa) = 58.88321 58.88321 58.79181
#
# Poissons Ratio (x) = -0.11940 0.34530
# Poissons Ratio (y) = -0.11940 0.34530
# Poissons Ratio (z) = 0.34583 0.34583
#
# Static dielectric constant tensor:
#      x y z
#    x 1.596000 0.000000 0.000000 
#    y 0.000000 1.596000 0.000000 
#    z 0.000000 0.000000 1.574530 
# 
# From -- ./inp_files/1859.got.cif
#   From: 2010.05.17/outbox.cif.g08.bks.cpg/sg175_1_cif.got.tgz:1859.got - 2010.05.20 11:23:22.
