data_PCOD9581861
_publ_section_title
;
Structure prediction by ZEFSAII (Michael W. Deem and Ramdas Pophale) SiO2 
 PCOD9581861
Probable space group: P 63/M
;
_chemical_formula_sum "Si O2"
_cell_formula_units_Z 84
_cell_length_a 16.133472
_cell_length_b 16.133472
_cell_length_c 23.579037
_cell_angle_alpha 90.000000
_cell_angle_beta 90.000000
_cell_angle_gamma 120.000000
_cell_volume 5315.111444
_symmetry_space_group_name_H-M "P 63/M"
_symmetry_group_IT_number 176
_symmetry_cell_setting 'hexagonal'
loop_
_space_group_symop_operation_xyz
x,y,z
x-y,x,1/2+z
-y,x-y,z
-x,-y,1/2+z
-x+y,-x,z
y,-x+y,1/2+z
-x,-y,-z
-x+y,-x,1/2-z
y,-x+y,-z
x,y,1/2-z
x-y,x,-z
-y,x-y,1/2-z
loop_
_atom_site_type_symbol
_atom_site_label
_atom_site_fract_x
_atom_site_fract_y
_atom_site_fract_z
Si Si1 0.196436 1.000000 0.500000
Si Si2 0.859606 0.333323 0.184564
Si Si3 0.676393 0.838196 0.318193
Si Si4 0.859606 0.526283 0.184564
Si Si5 0.958119 0.235377 0.376867
Si Si6 0.722742 0.764623 0.623133
Si Si7 0.545252 0.272626 0.681455
O O1 0.185733 0.092867 0.509980
O O2 0.258655 0.019245 0.443465
O O3 0.239410 0.980755 0.556535
O O4 0.889873 0.331679 0.250000
O O5 0.872465 0.436233 0.173206
O O6 0.748382 0.251618 0.181029
O O7 0.916725 0.302798 0.142536
O O8 0.677042 0.838521 0.250000
O O9 0.730893 0.785501 0.342087
O O10 0.564234 0.782117 0.338035
O O11 0.730893 0.945392 0.342087
O O12 0.889873 0.558194 0.250000
O O13 0.916725 0.613927 0.142536
O O14 0.873481 0.126520 0.364376
O O15 0.614723 0.229445 0.665437
O O16 0.540620 0.270310 0.750000
#
# Coordination Sequence:
#
# PCOD9581861 Si02
#       7
#    12  12  12  12  12  12  12
#     4  10  19  36  57  72  94 134 190 230 257 305
#     4   9  17  31  52  78 107 137 172 213 262 320
#     4  11  20  32  52  77 109 141 167 212 279 329
#     4   9  17  31  52  78 107 137 172 213 262 320
#     4  10  21  35  51  76 104 137 177 225 266 314
#     4  10  21  35  51  76 104 137 177 225 266 314
#     4   7  14  30  50  76 105 134 172 213 249 310
#
# _framework density 15.803997000000001
#
# number of rings (size 3 to 8) (size 9 to 14) (size 15 to 20)
#    0.286    2.286    1.429    1.286    0.000    4.000 
#    0.857    3.571    0.000    0.000    0.000    0.000 
#    0.000    0.000    0.000    0.000    0.000    0.000 
#
# Total GULP energy -467710.293879 kJ/mol
# GULP energy per Si atom -5567.979689 kJ/mol
# Density = 1.576803 g / cm^3
# Si number density = 15.803997 Si / 1000 Ang^3
#
#
#
# Elastic Constant Matrix: (Units=GPa)
#
#
# Indices 1 2 3 4 5 6 
#
# 1 105.7827 74.2746 68.9093 0.0000 0.0000 0.0000
# 2 74.2746 105.7827 68.9093 0.0000 0.0000 0.0000
# 3 68.9093 68.9093 92.9132 0.0000 0.0000 0.0000
# 4 0.0000 0.0000 0.0000 8.1291 0.0000 0.0000
# 5 0.0000 0.0000 0.0000 0.0000 8.1291 0.0000
# 6 0.0000 0.0000 0.0000 0.0000 0.0000 15.7540
#
#
#
# Elastic Compliance Matrix: (Units=1/GPa)
#
#
# Indices 1 2 3 4 5 6 
#
# 1 0.022292 -0.009446 -0.009527 0.000000 0.000000 0.000000
# 2 -0.009446 0.022292 -0.009527 0.000000 0.000000 0.000000
# 3 -0.009527 -0.009527 0.024895 0.000000 0.000000 0.000000
# 4 0.000000 0.000000 0.000000 0.123015 0.000000 0.000000
# 5 0.000000 0.000000 0.000000 0.000000 0.123015 0.000000
# 6 0.000000 0.000000 0.000000 0.000000 0.000000 0.063476
#
#
# Mechanical properties :
#
#
# Convention : Reuss Voigt Hill
#
# Bulk Modulus (GPa) = 80.14402 80.96278 80.55340
# Shear Modulus (GPa) = 11.35989 12.56146 11.96068
#
# Velocity S-wave (km/s) = 2.68395 2.82233 2.75401
# Velocity P-wave (km/s) = 7.77342 7.87155 7.82264
#
# Compressibility (1/GPa) = 0.01247754
#
# Stress axis : x y z
#
# Youngs Moduli (GPa) = 44.85899 44.85899 40.16887
#
# Poissons Ratio (x) = 0.42373 0.38271
# Poissons Ratio (y) = 0.42373 0.38271
# Poissons Ratio (z) = 0.42739 0.42739
#
# Static dielectric constant tensor:
#      x y z
#    x 1.527720 0.000000 0.000000 
#    y 0.000000 1.527720 0.000000 
#    z 0.000000 0.000000 1.510100 
# 
# From -- ./inp_files/4084.got.cif
#   From: 2010.05.17/outbox.cif.g08.bks.cpg/sg176_3_cif.got.tgz:4084.got - 2010.06.03 11:36:45.
