data_PCOD9581608
_publ_section_title
;
Structure prediction by ZEFSAII (Michael W. Deem and Ramdas Pophale) SiO2 
 PCOD9581608
Probable space group: P 6/M
;
_chemical_formula_sum "Si O2"
_cell_formula_units_Z 58
_cell_length_a 16.433776
_cell_length_b 16.433776
_cell_length_c 12.735642
_cell_angle_alpha 90.000000
_cell_angle_beta 90.000000
_cell_angle_gamma 120.000000
_cell_volume 2978.696124
_symmetry_space_group_name_H-M "P 6/M"
_symmetry_group_IT_number 175
_symmetry_cell_setting 'hexagonal'
loop_
_space_group_symop_operation_xyz
x,y,z
x-y,x,z
-y,x-y,z
-x,-y,z
-x+y,-x,z
y,-x+y,z
-x,-y,-z
-x+y,-x,-z
y,-x+y,-z
x,y,-z
x-y,x,-z
-y,x-y,-z
loop_
_atom_site_type_symbol
_atom_site_label
_atom_site_fract_x
_atom_site_fract_y
_atom_site_fract_z
Si Si1 0.695483 0.500668 0.732915
Si Si2 0.210218 0.171383 0.880915
Si Si3 0.499452 0.634022 0.376493
Si Si4 0.178563 0.209013 0.500000
Si Si5 0.700508 0.685438 0.704369
Si Si6 0.666668 0.333334 0.875762
O O1 0.593403 0.444885 0.679782
O O2 0.772768 0.505389 0.651895
O O3 0.716391 0.604949 0.755523
O O4 0.693287 0.435266 0.828423
O O5 0.181665 0.063480 0.869048
O O6 0.279676 0.236018 0.790925
O O7 0.246747 0.200820 0.000000
O O8 0.491863 0.618318 0.500000
O O9 0.594186 0.640517 0.335088
O O10 0.185896 0.114614 0.500000
O O11 0.231655 0.267981 0.604087
O O12 0.666667 0.333334 0.000000
#
# Coordination Sequence:
#
# PCOD9581608 Si02
#       6
#    12  12  12   6  12   4
#     4  10  23  39  61  92 124 158 211 258 305 381
#     4  10  21  39  62  86 115 155 205 260 314 372
#     4  11  22  38  61  89 122 166 205 254 310 372
#     4  12  25  40  59  86 128 176 216 260 313 388
#     4  12  24  38  60  92 128 162 208 261 321 372
#     4   9  21  45  70  92 121 168 213 261 325 386
#
# _framework density 19.471606000000001
#
# number of rings (size 3 to 8) (size 9 to 14) (size 15 to 20)
#    0.000    1.241    1.034    5.690    2.897    2.483 
#    0.000    8.276    0.000    6.207    0.000    0.000 
#    0.000    0.000    0.000    0.000    0.000    0.000 
#
# Total GULP energy -324331.659914 kJ/mol
# GULP energy per Si atom -5591.925171 kJ/mol
# Density = 1.942729 g / cm^3
# Si number density = 19.471606 Si / 1000 Ang^3
#
#
#
# Elastic Constant Matrix: (Units=GPa)
#
#
# Indices 1 2 3 4 5 6 
#
# 1 70.5023 30.9508 14.2564 0.0000 0.0000 -0.0001
# 2 30.9508 70.5022 14.2560 0.0000 0.0000 0.0002
# 3 14.2564 14.2560 95.8672 0.0000 0.0000 -0.0001
# 4 0.0000 0.0000 0.0000 14.8213 -0.0001 0.0000
# 5 0.0000 0.0000 0.0000 -0.0001 14.8214 0.0000
# 6 -0.0001 0.0002 -0.0001 0.0000 0.0000 19.7760
#
#
#
# Elastic Compliance Matrix: (Units=1/GPa)
#
#
# Indices 1 2 3 4 5 6 
#
# 1 0.017785 -0.007498 -0.001530 0.000000 0.000000 0.000000
# 2 -0.007498 0.017785 -0.001530 0.000000 0.000000 0.000000
# 3 -0.001530 -0.001530 0.010886 0.000000 0.000000 0.000000
# 4 0.000000 0.000000 0.000000 0.067470 0.000000 0.000000
# 5 0.000000 0.000000 0.000000 0.000000 0.067470 0.000000
# 6 0.000000 0.000000 0.000000 0.000000 0.000000 0.050566
#
#
# Mechanical properties :
#
#
# Convention : Reuss Voigt Hill
#
# Bulk Modulus (GPa) = 39.46239 39.53313 39.49776
# Shear Modulus (GPa) = 19.11859 21.71097 20.41478
#
# Velocity S-wave (km/s) = 3.13688 3.34279 3.24147
# Velocity P-wave (km/s) = 5.78192 5.93684 5.85989
#
# Compressibility (1/GPa) = 0.02534058
#
# Stress axis : x y z
#
# Youngs Moduli (GPa) = 56.22679 56.22677 91.86064
#
# Poissons Ratio (x) = 0.42161 0.14052
# Poissons Ratio (y) = 0.42161 0.14052
# Poissons Ratio (z) = 0.08601 0.08601
#
# Static dielectric constant tensor:
#      x y z
#    x 1.679480 0.000000 0.000000 
#    y 0.000000 1.679480 0.000000 
#    z 0.000000 0.000000 1.640940 
# 
# From -- ./inp_files/2422.got.cif
#   From: 2010.05.17/outbox.cif.g08.bks.cpg/sg175_2_cif.got.tgz:2422.got - 2010.05.20 11:23:22.
