data_PCOD9581102
_publ_section_title
;
Structure prediction by ZEFSAII (Michael W. Deem and Ramdas Pophale) SiO2 
 PCOD9581102
Probable space group: P 63
;
_chemical_formula_sum "Si O2"
_cell_formula_units_Z 34
_cell_length_a 14.032892
_cell_length_b 14.032892
_cell_length_c 8.469426
_cell_angle_alpha 90.000000
_cell_angle_beta 90.000000
_cell_angle_gamma 120.000000
_cell_volume 1444.371715
_symmetry_space_group_name_H-M "P 63"
_symmetry_group_IT_number 173
_symmetry_cell_setting 'hexagonal'
loop_
_space_group_symop_operation_xyz
x,y,z
x-y,x,1/2+z
-y,x-y,z
-x,-y,1/2+z
-x+y,-x,z
y,-x+y,1/2+z
loop_
_atom_site_type_symbol
_atom_site_label
_atom_site_fract_x
_atom_site_fract_y
_atom_site_fract_z
Si Si1 0.340503 0.468467 0.714290
Si Si2 0.851727 0.758282 0.737629
Si Si3 0.534330 0.878487 0.211744
Si Si4 0.333333 0.666667 0.558856
Si Si5 0.500121 0.498537 0.465648
Si Si6 0.094574 0.848459 0.862228
Si Si7 0.333333 0.666666 0.180227
O O1 0.310624 0.549963 0.625492
O O2 0.401483 0.427717 0.588100
O O3 0.237562 0.366041 0.794245
O O4 0.435157 0.538099 0.845841
O O5 0.759721 0.635869 0.787980
O O6 0.804087 0.838123 0.777564
O O7 0.865044 0.752204 0.549588
O O8 0.966209 0.798951 0.824203
O O9 0.576265 0.977593 0.084047
O O10 0.451607 0.764229 0.130267
O O11 0.464724 0.903194 0.341244
O O12 0.333334 0.666667 0.370626
#
# Coordination Sequence:
#
# PCOD9581102 Si02
#       7
#     6   6   6   2   6   6   2
#     4  11  26  44  77 102 152 187 243 289 365 419
#     4  12  29  50  77 107 141 191 242 303 361 425
#     4  11  26  44  77 102 152 187 243 289 365 419
#     4  12  27  43  68 112 147 190 236 292 360 433
#     4  10  24  46  68 106 142 196 238 294 340 438
#     4  12  29  50  77 107 141 191 242 303 361 425
#     4  12  27  43  68 112 147 190 236 292 360 433
#
# _framework density 23.539645
#
# number of rings (size 3 to 8) (size 9 to 14) (size 15 to 20)
#    0.000    0.706    3.529    1.412   14.824    1.412 
#    0.000    0.000    0.000    0.000    0.000    0.000 
#    0.000    0.000    0.000    0.000    0.000    0.000 
#
# Total GULP energy -189814.400993 kJ/mol
# GULP energy per Si atom -5582.776500 kJ/mol
# Density = 2.348607 g / cm^3
# Si number density = 23.539645 Si / 1000 Ang^3
#
#
#
# Elastic Constant Matrix: (Units=GPa)
#
#
# Indices 1 2 3 4 5 6 
#
# 1 97.4803 44.7832 1.1081 0.0000 0.0000 -0.0001
# 2 44.7832 97.4802 1.1080 0.0000 0.0000 0.0000
# 3 1.1081 1.1080 89.2849 0.0000 0.0000 -0.0001
# 4 0.0000 0.0000 0.0000 36.1255 0.0000 0.0000
# 5 0.0000 0.0000 0.0000 0.0000 36.1255 0.0000
# 6 -0.0001 0.0000 -0.0001 0.0000 0.0000 26.3485
#
#
#
# Elastic Compliance Matrix: (Units=1/GPa)
#
#
# Indices 1 2 3 4 5 6 
#
# 1 0.013003 -0.005973 -0.000087 0.000000 0.000000 0.000000
# 2 -0.005973 0.013003 -0.000087 0.000000 0.000000 0.000000
# 3 -0.000087 -0.000087 0.011202 0.000000 0.000000 0.000000
# 4 0.000000 0.000000 0.000000 0.027681 0.000000 0.000000
# 5 0.000000 0.000000 0.000000 0.000000 0.027681 0.000000
# 6 0.000000 0.000000 0.000000 0.000000 0.000000 0.037953
#
#
# Mechanical properties :
#
#
# Convention : Reuss Voigt Hill
#
# Bulk Modulus (GPa) = 40.13742 42.02711 41.08226
# Shear Modulus (GPa) = 33.08534 35.53629 34.31082
#
# Velocity S-wave (km/s) = 3.75309 3.88962 3.82196
# Velocity P-wave (km/s) = 5.98906 6.16966 6.08003
#
# Compressibility (1/GPa) = 0.02491441
#
# Stress axis : x y z
#
# Youngs Moduli (GPa) = 76.90248 76.90239 89.26761
#
# Poissons Ratio (x) = 0.45933 0.00779
# Poissons Ratio (y) = 0.45933 0.00779
# Poissons Ratio (z) = 0.00671 0.00671
#
# Static dielectric constant tensor:
#      x y z
#    x 1.862780 0.000000 0.000000 
#    y 0.000000 1.862790 0.000000 
#    z 0.000000 0.000000 1.935630 
# 
# From -- ./inp_files/557.got.cif
#   From: 2010.05.17/outbox.cif.g08.bks.cpg/sg173_cif.got.tgz:557.got - 2010.05.20 11:21:53.
