data_PCOD9581536
_publ_section_title
;
Structure prediction by ZEFSAII (Michael W. Deem and Ramdas Pophale) SiO2 
 PCOD9581536
Probable space group: P 6/M
;
_chemical_formula_sum "Si O2"
_cell_formula_units_Z 56
_cell_length_a 13.972439
_cell_length_b 13.972439
_cell_length_c 19.717409
_cell_angle_alpha 90.000000
_cell_angle_beta 90.000000
_cell_angle_gamma 120.000000
_cell_volume 3333.687767
_symmetry_space_group_name_H-M "P 6/M"
_symmetry_group_IT_number 175
_symmetry_cell_setting 'hexagonal'
loop_
_space_group_symop_operation_xyz
x,y,z
x-y,x,z
-y,x-y,z
-x,-y,z
-x+y,-x,z
y,-x+y,z
-x,-y,-z
-x+y,-x,-z
y,-x+y,-z
x,y,-z
x-y,x,-z
-y,x-y,-z
loop_
_atom_site_type_symbol
_atom_site_label
_atom_site_fract_x
_atom_site_fract_y
_atom_site_fract_z
Si Si1 0.892906 0.738053 0.576865
Si Si2 0.394176 0.019510 0.216934
Si Si3 0.190447 0.420267 0.704219
Si Si4 0.465926 0.094408 0.925400
Si Si5 0.666668 0.333334 0.882312
Si Si6 0.333333 0.666667 0.282180
O O1 0.824059 0.801395 0.584049
O O2 0.874196 0.692200 0.500000
O O3 0.854220 0.647656 0.635423
O O4 0.410611 0.118357 0.265715
O O5 0.388094 0.056965 0.140375
O O6 0.500000 0.000000 0.220082
O O7 0.287713 0.907842 0.241142
O O8 0.236572 0.549525 0.693437
O O9 0.572242 0.213396 0.908082
O O10 0.500000 0.000000 0.929744
O O11 0.423005 0.101240 0.000000
O O12 0.666668 0.333334 0.800331
#
# Coordination Sequence:
#
# PCOD9581536 Si02
#       6
#    12  12  12  12   4   4
#     4  10  21  38  61  87 114 143 182 239 303 355
#     4  11  22  36  57  83 113 156 195 236 288 345
#     4  12  21  37  58  85 115 150 194 234 284 349
#     4  10  21  34  51  79 110 146 193 239 291 340
#     4  12  19  37  57  79 109 157 194 247 298 340
#     4  12  21  34  59  79 117 160 200 232 279 340
#
# _framework density 16.798213000000001
#
# number of rings (size 3 to 8) (size 9 to 14) (size 15 to 20)
#    0.000    1.071    6.429    2.143    0.000    0.857 
#    0.000    1.071    0.000    3.857    0.000    0.000 
#    0.000    0.000    0.000    3.857    0.000    0.214 
#
# Total GULP energy -312396.952121 kJ/mol
# GULP energy per Si atom -5578.517002 kJ/mol
# Density = 1.675998 g / cm^3
# Si number density = 16.798213 Si / 1000 Ang^3
#
#
#
# Elastic Constant Matrix: (Units=GPa)
#
#
# Indices 1 2 3 4 5 6 
#
# 1 81.2327 30.3849 54.2942 0.0000 0.0000 -0.0002
# 2 30.3849 81.2333 54.2940 0.0000 0.0000 -0.0001
# 3 54.2942 54.2940 145.8018 0.0000 0.0000 0.0001
# 4 0.0000 0.0000 0.0000 8.9810 0.0032 0.0000
# 5 0.0000 0.0000 0.0000 0.0032 8.9809 0.0000
# 6 -0.0002 -0.0001 0.0001 0.0000 0.0000 25.4240
#
#
#
# Elastic Compliance Matrix: (Units=1/GPa)
#
#
# Indices 1 2 3 4 5 6 
#
# 1 0.016858 -0.002809 -0.005232 0.000000 0.000000 0.000000
# 2 -0.002809 0.016857 -0.005231 0.000000 0.000000 0.000000
# 3 -0.005232 -0.005231 0.010755 0.000000 0.000000 0.000000
# 4 0.000000 0.000000 0.000000 0.111346 -0.000040 0.000000
# 5 0.000000 0.000000 0.000000 -0.000040 0.111348 0.000000
# 6 0.000000 0.000000 0.000000 0.000000 0.000000 0.039333
#
#
# Mechanical properties :
#
#
# Convention : Reuss Voigt Hill
#
# Bulk Modulus (GPa) = 55.78428 65.13490 60.45959
# Shear Modulus (GPa) = 14.74858 19.96350 17.35604
#
# Velocity S-wave (km/s) = 2.96630 3.45110 3.21784
# Velocity P-wave (km/s) = 6.70913 7.39859 7.06228
#
# Compressibility (1/GPa) = 0.01792620
#
# Stress axis : x y z
#
# Youngs Moduli (GPa) = 59.32041 59.32116 92.98137
#
# Poissons Ratio (x) = 0.16663 0.48643
# Poissons Ratio (y) = 0.16663 0.48642
# Poissons Ratio (z) = 0.31034 0.31033
#
# Static dielectric constant tensor:
#      x y z
#    x 1.562100 0.000000 0.000000 
#    y 0.000000 1.562100 0.000000 
#    z 0.000000 0.000000 1.591890 
# 
# From -- ./inp_files/2805.got.cif
#   From: 2010.05.17/outbox.cif.g08.bks.cpg/sg175_2_cif.got.tgz:2805.got - 2010.05.20 11:23:22.
