data_PCOD9581006
_publ_section_title
;
Structure prediction by ZEFSAII (Michael W. Deem and Ramdas Pophale) SiO2 
 PCOD9581006
Probable space group: P 63
;
_chemical_formula_sum "Si O2"
_cell_formula_units_Z 48
_cell_length_a 23.851324
_cell_length_b 23.851324
_cell_length_c 5.531064
_cell_angle_alpha 90.000000
_cell_angle_beta 90.000000
_cell_angle_gamma 120.000000
_cell_volume 2724.986151
_symmetry_space_group_name_H-M "P 63"
_symmetry_group_IT_number 173
_symmetry_cell_setting 'hexagonal'
loop_
_space_group_symop_operation_xyz
x,y,z
x-y,x,1/2+z
-y,x-y,z
-x,-y,1/2+z
-x+y,-x,z
y,-x+y,1/2+z
loop_
_atom_site_type_symbol
_atom_site_label
_atom_site_fract_x
_atom_site_fract_y
_atom_site_fract_z
Si Si1 0.775444 0.590373 0.140070
Si Si2 0.777120 0.360656 0.640070
Si Si3 0.419283 0.433518 0.140070
Si Si4 0.827573 0.264484 0.640070
Si Si5 0.425508 0.501518 0.640070
Si Si6 0.770479 0.328105 0.140070
Si Si7 0.897106 0.582112 0.140070
Si Si8 0.486225 0.325765 0.640070
O O1 0.749973 0.602688 0.391785
O O2 0.738071 0.511013 0.140070
O O3 0.851751 0.614966 0.140070
O O4 0.749973 0.602688 0.888355
O O5 0.826388 0.331463 0.640070
O O6 0.740805 0.333399 0.389212
O O7 0.810867 0.437354 0.640070
O O8 0.740805 0.333399 0.890928
O O9 0.408024 0.460235 0.392197
O O10 0.496410 0.457257 0.140070
O O11 0.380958 0.355529 0.140070
O O12 0.408024 0.460235 0.887943
O O13 0.750262 0.213064 0.640070
O O14 0.387610 0.542002 0.640070
O O15 0.877990 0.542007 0.391250
O O16 0.877990 0.542007 0.888890
#
# Coordination Sequence:
#
# PCOD9581006 Si02
#       8
#     6   6   6   6   6   6   6   6
#     4   8  16  28  42  52  64  80 108 136 156 180
#     4  10  17  26  39  51  64  84 108 129 159 193
#     4  10  19  28  38  55  76  93 110 131 162 205
#     4   8  16  26  34  50  64  76 100 132 154 182
#     4  10  19  28  38  55  76  93 110 131 162 205
#     4  10  18  29  42  54  68  87 110 137 160 189
#     4  10  18  29  42  54  68  87 110 137 160 189
#     4  10  17  26  39  51  64  84 108 129 159 193
#
# _framework density 17.614768000000002
#
# number of rings (size 3 to 8) (size 9 to 14) (size 15 to 20)
#    0.000    2.500    0.000    3.750    0.000    2.000 
#    0.750    0.000    0.000    0.000    0.000    0.000 
#    0.000    0.000    0.000    0.000    0.000    0.000 
#
# Total GULP energy -267702.859688 kJ/mol
# GULP energy per Si atom -5577.142910 kJ/mol
# Density = 1.757468 g / cm^3
# Si number density = 17.614768 Si / 1000 Ang^3
#
#
#
# Elastic Constant Matrix: (Units=GPa)
#
#
# Indices 1 2 3 4 5 6 
#
# 1 41.2206 12.8923 10.8767 0.0000 0.0000 0.0000
# 2 12.8923 41.2206 10.8767 0.0000 0.0000 0.0000
# 3 10.8767 10.8767 181.0457 0.0000 0.0000 0.0000
# 4 0.0000 0.0000 0.0000 9.1629 0.0000 0.0000
# 5 0.0000 0.0000 0.0000 0.0000 9.1629 0.0000
# 6 0.0000 0.0000 0.0000 0.0000 0.0000 14.1641
#
#
#
# Elastic Compliance Matrix: (Units=1/GPa)
#
#
# Indices 1 2 3 4 5 6 
#
# 1 0.027119 -0.008182 -0.001138 0.000000 0.000000 0.000000
# 2 -0.008182 0.027119 -0.001138 0.000000 0.000000 0.000000
# 3 -0.001138 -0.001138 0.005660 0.000000 0.000000 0.000000
# 4 0.000000 0.000000 0.000000 0.109135 0.000000 0.000000
# 5 0.000000 0.000000 0.000000 0.000000 0.109135 0.000000
# 6 0.000000 0.000000 0.000000 0.000000 0.000000 0.070601
#
#
# Mechanical properties :
#
#
# Convention : Reuss Voigt Hill
#
# Bulk Modulus (GPa) = 25.65163 36.97536 31.31350
# Shear Modulus (GPa) = 13.06582 21.75408 17.40995
#
# Velocity S-wave (km/s) = 2.72647 3.51806 3.14725
# Velocity P-wave (km/s) = 4.95032 6.12691 5.56977
#
# Compressibility (1/GPa) = 0.03898388
#
# Stress axis : x y z
#
# Youngs Moduli (GPa) = 36.87475 36.87475 176.67328
#
# Poissons Ratio (x) = 0.30169 0.20100
# Poissons Ratio (y) = 0.30169 0.20100
# Poissons Ratio (z) = 0.04195 0.04195
#
# Static dielectric constant tensor:
#      x y z
#    x 1.620520 0.000000 0.000000 
#    y 0.000000 1.620520 0.000000 
#    z 0.000000 0.000000 1.744250 
# 
# From -- ./inp_files/213.got.cif
#   From: 2010.05.17/outbox.cif.g08.bks.cpg/sg173_cif.got.tgz:213.got - 2010.05.20 11:21:53.
