data_PCOD9581276
_publ_section_title
;
Structure prediction by ZEFSAII (Michael W. Deem and Ramdas Pophale) SiO2 
 PCOD9581276
Probable space group: P 6/M
;
_chemical_formula_sum "Si O2"
_cell_formula_units_Z 72
_cell_length_a 23.064106
_cell_length_b 23.064106
_cell_length_c 7.531496
_cell_angle_alpha 90.000000
_cell_angle_beta 90.000000
_cell_angle_gamma 120.000000
_cell_volume 3469.645722
_symmetry_space_group_name_H-M "P 6/M"
_symmetry_group_IT_number 175
_symmetry_cell_setting 'hexagonal'
loop_
_space_group_symop_operation_xyz
x,y,z
x-y,x,z
-y,x-y,z
-x,-y,z
-x+y,-x,z
y,-x+y,z
-x,-y,-z
-x+y,-x,-z
y,-x+y,-z
x,y,-z
x-y,x,-z
-y,x-y,-z
loop_
_atom_site_type_symbol
_atom_site_label
_atom_site_fract_x
_atom_site_fract_y
_atom_site_fract_z
Si Si1 0.757240 0.752006 0.207364
Si Si2 0.110416 0.602527 0.297098
Si Si3 0.653026 0.153391 0.285235
Si Si4 0.753275 0.553972 0.204693
Si Si5 0.295107 0.150862 0.218285
Si Si6 0.373706 0.991149 0.715109
O O1 0.736393 0.804312 0.281430
O O2 0.819183 0.745522 0.278143
O O3 0.691569 0.678847 0.222305
O O4 0.771690 0.768657 0.000000
O O5 0.093395 0.577571 0.500000
O O6 0.144599 0.562075 0.221948
O O7 0.160391 0.681840 0.297231
O O8 0.041670 0.593148 0.218526
O O9 0.656981 0.159136 0.500000
O O10 0.721161 0.214686 0.215544
O O11 0.650882 0.084649 0.233086
O O12 0.808580 0.627391 0.273910
O O13 0.740453 0.562827 0.000000
O O14 0.295995 0.152692 0.000000
O O15 0.374692 0.994243 0.500000
#
# Coordination Sequence:
#
# PCOD9581276 Si02
#       6
#    12  12  12  12  12  12
#     4  10  18  33  53  78 108 142 175 212 266 321
#     4  10  21  37  55  76 105 140 175 215 266 321
#     4  10  21  37  55  76 105 140 175 215 266 321
#     4  11  21  35  55  79 104 137 179 225 269 314
#     4   9  18  31  53  78 107 140 173 213 262 318
#     4  10  19  32  54  82 105 133 170 216 264 314
#
# _framework density 20.751397000000001
#
# number of rings (size 3 to 8) (size 9 to 14) (size 15 to 20)
#    0.000    2.000    3.333    1.000    0.000    2.667 
#    1.000    0.833    0.000    3.333    0.000    2.333 
#    0.000    0.000    0.000    1.500    0.000    1.667 
#
# Total GULP energy -402063.920453 kJ/mol
# GULP energy per Si atom -5584.221117 kJ/mol
# Density = 2.070417 g / cm^3
# Si number density = 20.751397 Si / 1000 Ang^3
#
#
#
# Elastic Constant Matrix: (Units=GPa)
#
#
# Indices 1 2 3 4 5 6 
#
# 1 79.5573 12.2478 -7.5980 0.0000 0.0000 0.0000
# 2 12.2478 79.5573 -7.5980 0.0000 0.0000 0.0000
# 3 -7.5980 -7.5980 52.0471 0.0000 0.0000 0.0000
# 4 0.0000 0.0000 0.0000 2.9104 0.0000 0.0000
# 5 0.0000 0.0000 0.0000 0.0000 2.9104 0.0000
# 6 0.0000 0.0000 0.0000 0.0000 0.0000 33.6547
#
#
#
# Elastic Compliance Matrix: (Units=1/GPa)
#
#
# Indices 1 2 3 4 5 6 
#
# 1 0.013010 -0.001847 0.001630 0.000000 0.000000 0.000000
# 2 -0.001847 0.013010 0.001630 0.000000 0.000000 0.000000
# 3 0.001630 0.001630 0.019689 0.000000 0.000000 0.000000
# 4 0.000000 0.000000 0.000000 0.343598 0.000000 0.000000
# 5 0.000000 0.000000 0.000000 0.000000 0.343598 0.000000
# 6 0.000000 0.000000 0.000000 0.000000 0.000000 0.029713
#
#
# Mechanical properties :
#
#
# Convention : Reuss Voigt Hill
#
# Bulk Modulus (GPa) = 20.60501 22.80728 21.70614
# Shear Modulus (GPa) = 6.44353 22.16909 14.30631
#
# Velocity S-wave (km/s) = 1.76404 3.27206 2.62852
# Velocity P-wave (km/s) = 3.75502 5.02889 4.43790
#
# Compressibility (1/GPa) = 0.04853190
#
# Stress axis : x y z
#
# Youngs Moduli (GPa) = 76.86660 76.86660 50.78942
#
# Poissons Ratio (x) = 0.14199 -0.08276
# Poissons Ratio (y) = 0.14199 -0.08276
# Poissons Ratio (z) = -0.12525 -0.12525
#
# Static dielectric constant tensor:
#      x y z
#    x 1.729350 0.000000 0.000000 
#    y 0.000000 1.729350 0.000000 
#    z 0.000000 0.000000 1.814230 
# 
# From -- ./inp_files/1144.got.cif
#   From: 2010.05.17/outbox.cif.g08.bks.cpg/sg175_1_cif.got.tgz:1144.got - 2010.05.20 11:23:22.
