data_PCOD9581837
_publ_section_title
;
Structure prediction by ZEFSAII (Michael W. Deem and Ramdas Pophale) SiO2 
 PCOD9581837
Probable space group: P 63/M
;
_chemical_formula_sum "Si O2"
_cell_formula_units_Z 72
_cell_length_a 22.700471
_cell_length_b 22.700471
_cell_length_c 8.327133
_cell_angle_alpha 90.000000
_cell_angle_beta 90.000000
_cell_angle_gamma 120.000000
_cell_volume 3716.172536
_symmetry_space_group_name_H-M "P 63/M"
_symmetry_group_IT_number 176
_symmetry_cell_setting 'hexagonal'
loop_
_space_group_symop_operation_xyz
x,y,z
x-y,x,1/2+z
-y,x-y,z
-x,-y,1/2+z
-x+y,-x,z
y,-x+y,1/2+z
-x,-y,-z
-x+y,-x,1/2-z
y,-x+y,-z
x,y,1/2-z
x-y,x,-z
-y,x-y,1/2-z
loop_
_atom_site_type_symbol
_atom_site_label
_atom_site_fract_x
_atom_site_fract_y
_atom_site_fract_z
Si Si1 0.880525 0.855953 0.441196
Si Si2 0.620406 0.771530 0.445391
Si Si3 0.704046 0.599790 0.557663
Si Si4 0.457211 0.802010 0.563140
Si Si5 0.793108 0.470580 0.939454
Si Si6 0.258909 0.993340 0.056246
O O1 0.888103 0.851053 0.250000
O O2 0.949216 0.868187 0.524786
O O3 0.812378 0.787883 0.498917
O O4 0.620867 0.771602 0.250000
O O5 0.617473 0.837778 0.495938
O O6 0.548516 0.706795 0.493985
O O7 0.687137 0.771134 0.501065
O O8 0.700486 0.595774 0.750000
O O9 0.654580 0.525293 0.487855
O O10 0.698478 0.663360 0.498683
O O11 0.461172 0.789008 0.750000
O O12 0.389289 0.804213 0.527819
O O13 0.456034 0.739637 0.467225
O O14 0.802988 0.465955 0.750000
O O15 0.256722 0.992995 0.250000
#
# Coordination Sequence:
#
# PCOD9581837 Si02
#       6
#    12  12  12  12  12  12
#     4  11  23  38  58  83 114 146 181 224 275 329
#     4   8  17  34  55  76 103 136 173 216 263 313
#     4  10  20  36  56  79 107 142 180 221 266 319
#     4  11  21  34  53  80 111 142 178 224 272 320
#     4  10  19  34  55  79 107 142 180 220 269 327
#     4  10  20  36  57  81 106 138 177 221 269 320
#
# _framework density 19.374773999999999
#
# number of rings (size 3 to 8) (size 9 to 14) (size 15 to 20)
#    0.000    2.000    0.000    5.500    0.000    2.667 
#    0.000    5.833    0.000    0.000    0.000    0.000 
#    0.000    0.000    0.000    0.000    0.000    0.000 
#
# Total GULP energy -402012.473899 kJ/mol
# GULP energy per Si atom -5583.506582 kJ/mol
# Density = 1.933068 g / cm^3
# Si number density = 19.374774 Si / 1000 Ang^3
#
#
#
# Elastic Constant Matrix: (Units=GPa)
#
#
# Indices 1 2 3 4 5 6 
#
# 1 38.0000 -18.8562 -6.5534 0.0000 0.0000 0.0000
# 2 -18.8562 38.0000 -6.5534 0.0000 0.0000 0.0000
# 3 -6.5534 -6.5534 22.3580 0.0000 0.0000 0.0000
# 4 0.0000 0.0000 0.0000 16.9382 0.0000 0.0000
# 5 0.0000 0.0000 0.0000 0.0000 16.9382 0.0000
# 6 0.0000 0.0000 0.0000 0.0000 0.0000 28.4281
#
#
#
# Elastic Compliance Matrix: (Units=1/GPa)
#
#
# Indices 1 2 3 4 5 6 
#
# 1 0.041469 0.023881 0.019155 0.000000 0.000000 0.000000
# 2 0.023881 0.041469 0.019155 0.000000 0.000000 0.000000
# 3 0.019155 0.019155 0.055956 0.000000 0.000000 0.000000
# 4 0.000000 0.000000 0.000000 0.059038 0.000000 0.000000
# 5 0.000000 0.000000 0.000000 0.000000 0.059038 0.000000
# 6 0.000000 0.000000 0.000000 0.000000 0.000000 0.035176
#
#
# Mechanical properties :
#
#
# Convention : Reuss Voigt Hill
#
# Bulk Modulus (GPa) = 3.79827 3.82578 3.81202
# Shear Modulus (GPa) = 19.56762 21.14896 20.35829
#
# Velocity S-wave (km/s) = 3.18142 3.30748 3.24506
# Velocity P-wave (km/s) = 3.93191 4.06999 4.00155
#
# Compressibility (1/GPa) = 0.26327801
#
# Stress axis : x y z
#
# Youngs Moduli (GPa) = 24.11415 24.11415 17.87117
#
# Poissons Ratio (x) = -0.57587 -0.34233
# Poissons Ratio (y) = -0.57587 -0.34233
# Poissons Ratio (z) = -0.46191 -0.46191
#
# Static dielectric constant tensor:
#      x y z
#    x 1.671740 0.000000 0.000000 
#    y 0.000000 1.671740 0.000000 
#    z 0.000000 0.000000 1.660990 
# 
# From -- ./inp_files/1175.got.cif
#   From: 2010.05.17/outbox.cif.g08.bks.cpg/sg176_1_cif.got.tgz:1175.got - 2010.06.03 11:36:45.
