data_PCOD9581015
_publ_section_title
;
Structure prediction by ZEFSAII (Michael W. Deem and Ramdas Pophale) SiO2 
 PCOD9581015
Probable space group: P 63
;
_chemical_formula_sum "Si O2"
_cell_formula_units_Z 48
_cell_length_a 23.362820
_cell_length_b 23.362820
_cell_length_c 8.907160
_cell_angle_alpha 90.000000
_cell_angle_beta 90.000000
_cell_angle_gamma 120.000000
_cell_volume 4210.371441
_symmetry_space_group_name_H-M "P 63"
_symmetry_group_IT_number 173
_symmetry_cell_setting 'hexagonal'
loop_
_space_group_symop_operation_xyz
x,y,z
x-y,x,1/2+z
-y,x-y,z
-x,-y,1/2+z
-x+y,-x,z
y,-x+y,1/2+z
loop_
_atom_site_type_symbol
_atom_site_label
_atom_site_fract_x
_atom_site_fract_y
_atom_site_fract_z
Si Si1 0.603036 0.062361 0.310230
Si Si2 0.461027 0.670654 0.819568
Si Si3 0.457754 0.793200 0.959000
Si Si4 0.929428 0.397553 0.309228
Si Si5 0.206800 0.664554 0.317058
Si Si6 0.937639 0.540674 0.965827
Si Si7 0.531876 0.929428 0.466829
Si Si8 0.790373 0.461027 0.956490
O O1 0.656826 0.136172 0.359049
O O2 0.534705 0.064872 0.310962
O O3 0.589498 0.999812 0.408687
O O4 0.615594 0.051844 0.138029
O O5 0.455182 0.668520 0.638029
O O6 0.470736 0.738218 0.885706
O O7 0.394128 0.610427 0.888861
O O8 0.451677 0.786171 0.138029
O O9 0.514292 0.866850 0.912723
O O10 0.916388 0.373783 0.138029
O O11 0.999812 0.410314 0.367370
O O12 0.133150 0.647443 0.363334
O O13 0.261782 0.732519 0.390352
O O14 0.216300 0.605872 0.387197
O O15 0.863828 0.520654 0.917008
O O16 0.935129 0.469833 0.965095
#
# Coordination Sequence:
#
# PCOD9581015 Si02
#       8
#     6   6   6   6   6   6   6   6
#     4   8  15  26  39  52  64  81 105 133 161 192
#     4  10  19  30  40  50  67  88 109 133 166 203
#     4  11  20  28  38  52  69  87 109 134 163 200
#     4   9  16  26  39  52  66  84 105 130 160 193
#     4  11  20  28  38  52  69  87 109 134 163 200
#     4   8  15  26  39  52  64  81 105 133 161 192
#     4   9  16  26  39  52  66  84 105 130 160 193
#     4  10  19  30  40  50  67  88 109 133 166 203
#
# _framework density 11.400418999999999
#
# number of rings (size 3 to 8) (size 9 to 14) (size 15 to 20)
#    0.000    2.500    0.000    5.750    0.000    7.000 
#    0.000    0.000    0.000    0.000    0.000    0.000 
#    0.000    0.000    0.000    0.000    0.000    0.000 
#
# Total GULP energy -267354.165138 kJ/mol
# GULP energy per Si atom -5569.878440 kJ/mol
# Density = 1.137447 g / cm^3
# Si number density = 11.400419 Si / 1000 Ang^3
#
#
#
# Elastic Constant Matrix: (Units=GPa)
#
#
# Indices 1 2 3 4 5 6 
#
# 1 52.4254 31.9644 31.3677 0.0000 0.0000 0.0000
# 2 31.9644 52.4254 31.3677 0.0000 0.0000 0.0000
# 3 31.3677 31.3677 73.1378 0.0000 0.0000 0.0000
# 4 0.0000 0.0000 0.0000 15.4799 0.0000 0.0000
# 5 0.0000 0.0000 0.0000 0.0000 15.4799 0.0000
# 6 0.0000 0.0000 0.0000 0.0000 0.0000 10.2305
#
#
#
# Elastic Compliance Matrix: (Units=1/GPa)
#
#
# Indices 1 2 3 4 5 6 
#
# 1 0.033135 -0.015739 -0.007461 0.000000 0.000000 0.000000
# 2 -0.015739 0.033135 -0.007461 0.000000 0.000000 0.000000
# 3 -0.007461 -0.007461 0.020073 0.000000 0.000000 0.000000
# 4 0.000000 0.000000 0.000000 0.064600 0.000000 0.000000
# 5 0.000000 0.000000 0.000000 0.000000 0.064600 0.000000
# 6 0.000000 0.000000 0.000000 0.000000 0.000000 0.097747
#
#
# Mechanical properties :
#
#
# Convention : Reuss Voigt Hill
#
# Bulk Modulus (GPa) = 39.96615 40.82095 40.39355
# Shear Modulus (GPa) = 13.05651 13.79065 13.42358
#
# Velocity S-wave (km/s) = 3.38785 3.48179 3.43514
# Velocity P-wave (km/s) = 7.10185 7.21444 7.15836
#
# Compressibility (1/GPa) = 0.02502117
#
# Stress axis : x y z
#
# Youngs Moduli (GPa) = 30.17967 30.17967 49.81904
#
# Poissons Ratio (x) = 0.47499 0.37170
# Poissons Ratio (y) = 0.47499 0.37170
# Poissons Ratio (z) = 0.22517 0.22517
#
# Static dielectric constant tensor:
#      x y z
#    x 1.361140 0.000000 0.000000 
#    y 0.000000 1.361140 0.000000 
#    z 0.000000 0.000000 1.383310 
# 
# From -- ./inp_files/705.got.cif
#   From: 2010.05.17/outbox.cif.g08.bks.cpg/sg173_cif.got.tgz:705.got - 2010.05.20 11:21:53.
