data_PCOD9581402
_publ_section_title
;
Structure prediction by ZEFSAII (Michael W. Deem and Ramdas Pophale) SiO2 
 PCOD9581402
Probable space group: P 6/M
;
_chemical_formula_sum "Si O2"
_cell_formula_units_Z 84
_cell_length_a 14.502552
_cell_length_b 14.502552
_cell_length_c 24.163380
_cell_angle_alpha 90.000000
_cell_angle_beta 90.000000
_cell_angle_gamma 120.000000
_cell_volume 4401.261554
_symmetry_space_group_name_H-M "P 6/M"
_symmetry_group_IT_number 175
_symmetry_cell_setting 'hexagonal'
loop_
_space_group_symop_operation_xyz
x,y,z
x-y,x,z
-y,x-y,z
-x,-y,z
-x+y,-x,z
y,-x+y,z
-x,-y,-z
-x+y,-x,-z
y,-x+y,-z
x,y,-z
x-y,x,-z
-y,x-y,-z
loop_
_atom_site_type_symbol
_atom_site_label
_atom_site_fract_x
_atom_site_fract_y
_atom_site_fract_z
Si Si1 0.768903 0.982822 0.316852
Si Si2 0.165608 0.915390 0.094694
Si Si3 0.893519 0.378455 0.124912
Si Si4 0.711142 0.161811 0.842166
Si Si5 0.404780 0.390379 0.758860
Si Si6 0.489609 0.109320 0.000000
Si Si7 0.227863 0.016995 0.440781
Si Si8 0.276710 0.849230 0.000000
O O1 0.786844 0.881296 0.309796
O O2 0.680635 0.980859 0.276077
O O3 0.727040 0.979694 0.379816
O O4 0.212458 0.888674 0.148629
O O5 0.225723 0.882504 0.049739
O O6 0.038599 0.839670 0.090456
O O7 0.776821 0.280699 0.136412
O O8 0.887736 0.486175 0.125649
O O9 0.952200 0.374707 0.181445
O O10 0.925517 0.364998 0.062339
O O11 0.678236 0.137662 0.778343
O O12 0.500000 0.500000 0.734349
O O13 0.504920 0.227466 0.000000
O O14 0.402911 0.897073 0.000000
O O15 0.207591 0.115855 0.441291
O O16 0.282575 0.021077 0.500000
#
# Coordination Sequence:
#
# PCOD9581402 Si02
#       8
#    12  12  12  12  12   6  12   6
#     4  10  19  34  59  91 129 168 207 252 300 359
#     4  12  26  46  65  87 115 153 188 223 269 343
#     4  11  21  39  60  84 107 138 177 239 309 365
#     4  11  22  40  62  86 113 138 184 237 299 360
#     4  10  23  39  57  81 113 158 205 250 296 349
#     4  12  21  40  65  91 112 135 174 233 311 362
#     4   8  13  22  42  78 123 167 206 246 296 350
#     4  12  25  44  67  93 119 139 176 231 294 372
#
# _framework density 19.085436999999999
#
# number of rings (size 3 to 8) (size 9 to 14) (size 15 to 20)
#    0.000    1.429    2.857    3.000    0.000    1.714 
#    0.000    6.071    0.000    2.714    0.000    0.000 
#    0.000    0.000    0.000    0.000    0.000    0.000 
#
# Total GULP energy -467643.760115 kJ/mol
# GULP energy per Si atom -5567.187620 kJ/mol
# Density = 1.904200 g / cm^3
# Si number density = 19.085437 Si / 1000 Ang^3
#
#
#
# Elastic Constant Matrix: (Units=GPa)
#
#
# Indices 1 2 3 4 5 6 
#
# 1 111.1069 41.5556 49.3306 0.0000 0.0000 0.0000
# 2 41.5556 111.1069 49.3306 0.0000 0.0000 0.0000
# 3 49.3306 49.3306 122.1124 0.0000 0.0000 0.0000
# 4 0.0000 0.0000 0.0000 22.2607 0.0000 0.0000
# 5 0.0000 0.0000 0.0000 0.0000 22.2607 0.0000
# 6 0.0000 0.0000 0.0000 0.0000 0.0000 34.7757
#
#
#
# Elastic Compliance Matrix: (Units=1/GPa)
#
#
# Indices 1 2 3 4 5 6 
#
# 1 0.011621 -0.002757 -0.003581 0.000000 0.000000 0.000000
# 2 -0.002757 0.011621 -0.003581 0.000000 0.000000 0.000000
# 3 -0.003581 -0.003581 0.011083 0.000000 0.000000 0.000000
# 4 0.000000 0.000000 0.000000 0.044922 0.000000 0.000000
# 5 0.000000 0.000000 0.000000 0.000000 0.044922 0.000000
# 6 0.000000 0.000000 0.000000 0.000000 0.000000 0.028756
#
#
# Mechanical properties :
#
#
# Convention : Reuss Voigt Hill
#
# Bulk Modulus (GPa) = 69.02501 69.41776 69.22138
# Shear Modulus (GPa) = 28.15434 29.46670 28.81052
#
# Velocity S-wave (km/s) = 3.84497 3.93356 3.88951
# Velocity P-wave (km/s) = 7.48041 7.55523 7.51792
#
# Compressibility (1/GPa) = 0.01448750
#
# Stress axis : x y z
#
# Youngs Moduli (GPa) = 86.04865 86.04865 90.23162
#
# Poissons Ratio (x) = 0.23720 0.32313
# Poissons Ratio (y) = 0.23720 0.32313
# Poissons Ratio (z) = 0.30815 0.30815
#
# Static dielectric constant tensor:
#      x y z
#    x 1.739010 0.000000 0.000000 
#    y 0.000000 1.739010 0.000000 
#    z 0.000000 0.000000 1.764060 
# 
# From -- ./inp_files/3269.got.cif
#   From: 2010.05.17/outbox.cif.g08.bks.cpg/sg175_2_cif.got.tgz:3269.got - 2010.05.20 11:23:22.
