data_PCOD9581803
_publ_section_title
;
Structure prediction by ZEFSAII (Michael W. Deem and Ramdas Pophale) SiO2 
 PCOD9581803
Probable space group: P 63/M
;
_chemical_formula_sum "Si O2"
_cell_formula_units_Z 72
_cell_length_a 24.239221
_cell_length_b 24.239221
_cell_length_c 8.987817
_cell_angle_alpha 90.000000
_cell_angle_beta 90.000000
_cell_angle_gamma 120.000000
_cell_volume 4573.220795
_symmetry_space_group_name_H-M "P 63/M"
_symmetry_group_IT_number 176
_symmetry_cell_setting 'hexagonal'
loop_
_space_group_symop_operation_xyz
x,y,z
x-y,x,1/2+z
-y,x-y,z
-x,-y,1/2+z
-x+y,-x,z
y,-x+y,1/2+z
-x,-y,-z
-x+y,-x,1/2-z
y,-x+y,-z
x,y,1/2-z
x-y,x,-z
-y,x-y,1/2-z
loop_
_atom_site_type_symbol
_atom_site_label
_atom_site_fract_x
_atom_site_fract_y
_atom_site_fract_z
Si Si1 0.806574 0.064980 0.426993
Si Si2 0.408166 0.263949 0.072363
Si Si3 0.528758 0.600229 0.427154
Si Si4 0.597537 0.856075 0.427953
Si Si5 0.529484 0.934291 0.072358
Si Si6 0.069623 0.804575 0.572533
O O1 0.802273 0.052076 0.250000
O O2 0.760524 0.094077 0.460599
O O3 0.877686 0.122137 0.460958
O O4 0.783978 0.000523 0.516031
O O5 0.414264 0.263772 0.250000
O O6 0.451368 0.333658 0.006321
O O7 0.422118 0.211595 0.000607
O O8 0.535385 0.609247 0.250000
O O9 0.573914 0.573666 0.486076
O O10 0.457034 0.543584 0.460764
O O11 0.601587 0.852185 0.250000
O O12 0.550026 0.882502 0.462838
O O13 0.667234 0.905513 0.492168
O O14 0.539090 0.947600 0.250000
O O15 0.070601 0.796315 0.750000
#
# Coordination Sequence:
#
# PCOD9581803 Si02
#       6
#    12  12  12  12  12  12
#     4   9  19  33  47  67  96 125 153 190 234 277
#     4  10  20  33  48  70  99 126 157 198 239 280
#     4  10  19  31  49  72  97 127 161 193 234 286
#     4  10  19  32  50  70  95 127 159 193 236 282
#     4   9  19  33  48  70  99 127 157 196 237 279
#     4  10  20  32  48  72  98 124 157 195 234 279
#
# _framework density 15.743826
#
# number of rings (size 3 to 8) (size 9 to 14) (size 15 to 20)
#    0.000    2.333    0.000    4.000    0.000   10.000 
#    0.000    0.000    0.000    1.000    0.000    2.333 
#    0.000    0.000    0.000    0.000    0.000    0.000 
#
# Total GULP energy -401716.051527 kJ/mol
# GULP energy per Si atom -5579.389605 kJ/mol
# Density = 1.570799 g / cm^3
# Si number density = 15.743826 Si / 1000 Ang^3
#
#
#
# Elastic Constant Matrix: (Units=GPa)
#
#
# Indices 1 2 3 4 5 6 
#
# 1 120.0038 81.5905 63.8704 0.0000 0.0000 0.0000
# 2 81.5905 120.0038 63.8704 0.0000 0.0000 0.0000
# 3 63.8704 63.8704 63.2206 0.0000 0.0000 0.0000
# 4 0.0000 0.0000 0.0000 28.2007 0.0000 0.0000
# 5 0.0000 0.0000 0.0000 0.0000 28.2007 0.0000
# 6 0.0000 0.0000 0.0000 0.0000 0.0000 19.2067
#
#
#
# Elastic Compliance Matrix: (Units=1/GPa)
#
#
# Indices 1 2 3 4 5 6 
#
# 1 0.019909 -0.006124 -0.013927 0.000000 0.000000 0.000000
# 2 -0.006124 0.019909 -0.013927 0.000000 0.000000 0.000000
# 3 -0.013927 -0.013927 0.043958 0.000000 0.000000 0.000000
# 4 0.000000 0.000000 0.000000 0.035460 0.000000 0.000000
# 5 0.000000 0.000000 0.000000 0.000000 0.035460 0.000000
# 6 0.000000 0.000000 0.000000 0.000000 0.000000 0.052065
#
#
# Mechanical properties :
#
#
# Convention : Reuss Voigt Hill
#
# Bulk Modulus (GPa) = 63.20899 80.21008 71.70953
# Shear Modulus (GPa) = 17.85773 21.38139 19.61956
#
# Velocity S-wave (km/s) = 3.37154 3.68921 3.53395
# Velocity P-wave (km/s) = 7.44258 8.31893 7.89293
#
# Compressibility (1/GPa) = 0.01582053
#
# Stress axis : x y z
#
# Youngs Moduli (GPa) = 50.22848 50.22848 22.74896
#
# Poissons Ratio (x) = 0.30758 0.31683
# Poissons Ratio (y) = 0.30758 0.31683
# Poissons Ratio (z) = 0.69954 0.69954
#
# Static dielectric constant tensor:
#      x y z
#    x 1.509800 0.000000 0.000000 
#    y 0.000000 1.509800 0.000000 
#    z 0.000000 0.000000 1.523190 
# 
# From -- ./inp_files/1164.got.cif
#   From: 2010.05.17/outbox.cif.g08.bks.cpg/sg176_1_cif.got.tgz:1164.got - 2010.06.03 11:36:45.
