data_PCOD9581050
_publ_section_title
;
Structure prediction by ZEFSAII (Michael W. Deem and Ramdas Pophale) SiO2 
 PCOD9581050
Probable space group: P 63
;
_chemical_formula_sum "Si O2"
_cell_formula_units_Z 42
_cell_length_a 8.431331
_cell_length_b 8.431331
_cell_length_c 35.268798
_cell_angle_alpha 90.000000
_cell_angle_beta 90.000000
_cell_angle_gamma 120.000000
_cell_volume 2171.268686
_symmetry_space_group_name_H-M "P 63"
_symmetry_group_IT_number 173
_symmetry_cell_setting 'hexagonal'
loop_
_space_group_symop_operation_xyz
x,y,z
x-y,x,1/2+z
-y,x-y,z
-x,-y,1/2+z
-x+y,-x,z
y,-x+y,1/2+z
loop_
_atom_site_type_symbol
_atom_site_label
_atom_site_fract_x
_atom_site_fract_y
_atom_site_fract_z
Si Si1 0.448814 0.314600 0.309400
Si Si2 0.550116 0.683707 0.723626
Si Si3 0.004788 0.210651 0.651731
Si Si4 0.333755 0.331347 0.536832
Si Si5 0.124964 0.456439 0.953494
Si Si6 0.996693 0.663636 0.069673
Si Si7 0.205579 0.994954 0.881679
O O1 0.505166 0.155850 0.313219
O O2 0.382403 0.309069 0.266502
O O3 0.311036 0.291344 0.342276
O O4 0.686101 0.704898 0.690501
O O5 0.831604 0.004858 0.650027
O O6 0.495806 0.843850 0.720048
O O7 0.010434 0.322068 0.614786
O O8 0.356349 0.331932 0.491822
O O9 0.399461 0.198922 0.554548
O O10 0.463850 0.530086 0.554275
O O11 0.131271 0.267134 0.550920
O O12 0.335728 0.497262 0.953535
O O13 0.024992 0.339793 0.916633
O O14 0.994116 0.826521 0.883649
#
# Coordination Sequence:
#
# PCOD9581050 Si02
#       7
#     6   6   6   6   6   6   6
#     4   8  16  36  59  79 112 158 196 237 298 371
#     4   8  18  33  58  85 109 154 205 243 292 372
#     4  10  21  36  53  88 121 157 192 253 319 353
#     4  12  24  42  63  89 119 167 208 267 313 387
#     4  10  21  40  61  82 111 160 200 238 311 376
#     4  12  24  42  60  90 123 162 215 259 322 374
#     4  10  22  31  54  93 115 146 194 249 307 357
#
# _framework density 19.343530000000001
#
# number of rings (size 3 to 8) (size 9 to 14) (size 15 to 20)
#    1.429    0.571    2.857    1.714    4.000    1.143 
#    0.000    0.000    0.000    5.143    0.000    0.000 
#    0.000    0.000    0.000    0.000    0.000    0.000 
#
# Total GULP energy -233913.992513 kJ/mol
# GULP energy per Si atom -5569.380774 kJ/mol
# Density = 1.929950 g / cm^3
# Si number density = 19.343530 Si / 1000 Ang^3
#
#
#
# Elastic Constant Matrix: (Units=GPa)
#
#
# Indices 1 2 3 4 5 6 
#
# 1 28.5047 -3.4666 22.0038 0.0000 0.0000 0.0000
# 2 -3.4666 28.5047 22.0038 0.0000 0.0000 0.0000
# 3 22.0038 22.0038 173.3271 0.0000 0.0000 0.0000
# 4 0.0000 0.0000 0.0000 73.5160 0.0000 0.0000
# 5 0.0000 0.0000 0.0000 0.0000 73.5160 0.0000
# 6 0.0000 0.0000 0.0000 0.0000 0.0000 15.9857
#
#
#
# Elastic Compliance Matrix: (Units=1/GPa)
#
#
# Indices 1 2 3 4 5 6 
#
# 1 0.041344 0.010066 -0.006527 0.000000 0.000000 0.000000
# 2 0.010066 0.041344 -0.006527 0.000000 0.000000 0.000000
# 3 -0.006527 -0.006527 0.007427 0.000000 0.000000 0.000000
# 4 0.000000 0.000000 0.000000 0.013602 0.000000 0.000000
# 5 0.000000 0.000000 0.000000 0.000000 0.013602 0.000000
# 6 0.000000 0.000000 0.000000 0.000000 0.000000 0.062556
#
#
# Mechanical properties :
#
#
# Convention : Reuss Voigt Hill
#
# Bulk Modulus (GPa) = 11.88479 34.60206 23.24343
# Shear Modulus (GPa) = 23.37575 45.25657 34.31616
#
# Velocity S-wave (km/s) = 3.48005 4.84221 4.21650
# Velocity P-wave (km/s) = 4.72283 7.01354 5.97891
#
# Compressibility (1/GPa) = 0.08414117
#
# Stress axis : x y z
#
# Youngs Moduli (GPa) = 24.18717 24.18717 134.65246
#
# Poissons Ratio (x) = -0.24347 0.87881
# Poissons Ratio (y) = -0.24347 0.87881
# Poissons Ratio (z) = 0.15786 0.15786
#
# Static dielectric constant tensor:
#      x y z
#    x 1.636600 0.000000 0.000000 
#    y 0.000000 1.636600 0.000000 
#    z 0.000000 0.000000 1.636390 
# 
# From -- ./inp_files/1518.got.cif
#   From: 2010.05.17/outbox.cif.g08.bks.cpg/sg173_cif.got.tgz:1518.got - 2010.05.20 11:21:53.
