data_PCOD9581240
_publ_section_title
;
Structure prediction by ZEFSAII (Michael W. Deem and Ramdas Pophale) SiO2 
 PCOD9581240
Probable space group: P 6/M
;
_chemical_formula_sum "Si O2"
_cell_formula_units_Z 52
_cell_length_a 24.488984
_cell_length_b 24.488984
_cell_length_c 8.844736
_cell_angle_alpha 90.000000
_cell_angle_beta 90.000000
_cell_angle_gamma 120.000000
_cell_volume 4593.640891
_symmetry_space_group_name_H-M "P 6/M"
_symmetry_group_IT_number 175
_symmetry_cell_setting 'hexagonal'
loop_
_space_group_symop_operation_xyz
x,y,z
x-y,x,z
-y,x-y,z
-x,-y,z
-x+y,-x,z
y,-x+y,z
-x,-y,-z
-x+y,-x,-z
y,-x+y,-z
x,y,-z
x-y,x,-z
-y,x-y,-z
loop_
_atom_site_type_symbol
_atom_site_label
_atom_site_fract_x
_atom_site_fract_y
_atom_site_fract_z
Si Si1 0.333334 0.666668 0.816975
Si Si2 0.005334 0.568760 0.673586
Si Si3 0.497781 0.632015 0.681739
Si Si4 0.743029 0.478906 0.817566
Si Si5 0.624215 0.488904 0.819816
O O1 0.302378 0.707779 0.769867
O O2 0.333334 0.666668 0.000000
O O3 0.014957 0.591164 0.500000
O O4 0.936202 0.552123 0.728122
O O5 0.000000 0.500000 0.672265
O O6 0.067057 0.612070 0.770187
O O7 0.494193 0.628957 0.500000
O O8 0.509759 0.698675 0.741678
O O9 0.431167 0.575773 0.746158
O O10 0.693401 0.501443 0.777106
O O11 0.750299 0.482103 0.000000
O O12 0.617861 0.479835 0.000000
#
# Coordination Sequence:
#
# PCOD9581240 Si02
#       5
#     4  12  12  12  12
#     4   9  15  27  37  44  67  90 103 131 169 201
#     4   8  16  29  39  49  67  86 107 136 163 193
#     4  10  19  28  38  52  68  87 110 135 165 201
#     4  10  18  28  39  51  68  88 108 135 169 204
#     4  10  18  27  40  54  67  86 110 135 166 202
#
# _framework density 11.319997000000001
#
# number of rings (size 3 to 8) (size 9 to 14) (size 15 to 20)
#    0.000    2.538    2.308    2.769    0.000    6.923 
#    0.000    0.000    0.000    0.000    0.000    0.000 
#    0.000    0.000    0.000    0.000    0.000    0.000 
#
# Total GULP energy -289532.311091 kJ/mol
# GULP energy per Si atom -5567.929059 kJ/mol
# Density = 1.129423 g / cm^3
# Si number density = 11.319997 Si / 1000 Ang^3
#
#
#
# Elastic Constant Matrix: (Units=GPa)
#
#
# Indices 1 2 3 4 5 6 
#
# 1 66.9304 36.6803 23.8431 0.0000 0.0000 -0.0001
# 2 36.6803 66.9297 23.8431 0.0000 0.0000 -0.0001
# 3 23.8431 23.8431 29.3435 0.0000 0.0000 -0.0001
# 4 0.0000 0.0000 0.0000 14.5812 0.0001 0.0000
# 5 0.0000 0.0000 0.0000 0.0001 14.5813 0.0000
# 6 -0.0001 -0.0001 -0.0001 0.0000 0.0000 15.1249
#
#
#
# Elastic Compliance Matrix: (Units=1/GPa)
#
#
# Indices 1 2 3 4 5 6 
#
# 1 0.024237 -0.008820 -0.012527 0.000000 0.000000 0.000000
# 2 -0.008820 0.024238 -0.012527 0.000000 0.000000 0.000000
# 3 -0.012527 -0.012527 0.054437 0.000000 0.000000 0.000000
# 4 0.000000 0.000000 0.000000 0.068581 0.000000 0.000000
# 5 0.000000 0.000000 0.000000 0.000000 0.068581 0.000000
# 6 0.000000 0.000000 0.000000 0.000000 0.000000 0.066116
#
#
# Mechanical properties :
#
#
# Convention : Reuss Voigt Hill
#
# Bulk Modulus (GPa) = 28.43935 36.88185 32.66060
# Shear Modulus (GPa) = 12.96472 14.11328 13.53900
#
# Velocity S-wave (km/s) = 3.38789 3.53478 3.46211
# Velocity P-wave (km/s) = 6.36250 7.02221 6.70048
#
# Compressibility (1/GPa) = 0.03516255
#
# Stress axis : x y z
#
# Youngs Moduli (GPa) = 41.25844 41.25781 18.36978
#
# Poissons Ratio (x) = 0.36391 0.23012
# Poissons Ratio (y) = 0.36392 0.23013
# Poissons Ratio (z) = 0.51685 0.51685
#
# Static dielectric constant tensor:
#      x y z
#    x 1.368090 0.000000 0.000000 
#    y 0.000000 1.368090 0.000000 
#    z 0.000000 0.000000 1.382850 
# 
# From -- ./inp_files/1097.got.cif
#   From: 2010.05.17/outbox.cif.g08.bks.cpg/sg175_1_cif.got.tgz:1097.got - 2010.05.20 11:23:22.
