data_PCOD9581492
_publ_section_title
;
Structure prediction by ZEFSAII (Michael W. Deem and Ramdas Pophale) SiO2 
 PCOD9581492
Probable space group: P 6/M
;
_chemical_formula_sum "Si O2"
_cell_formula_units_Z 72
_cell_length_a 23.789945
_cell_length_b 23.789945
_cell_length_c 8.845074
_cell_angle_alpha 90.000000
_cell_angle_beta 90.000000
_cell_angle_gamma 120.000000
_cell_volume 4335.298229
_symmetry_space_group_name_H-M "P 6/M"
_symmetry_group_IT_number 175
_symmetry_cell_setting 'hexagonal'
loop_
_space_group_symop_operation_xyz
x,y,z
x-y,x,z
-y,x-y,z
-x,-y,z
-x+y,-x,z
y,-x+y,z
-x,-y,-z
-x+y,-x,-z
y,-x+y,-z
x,y,-z
x-y,x,-z
-y,x-y,-z
loop_
_atom_site_type_symbol
_atom_site_label
_atom_site_fract_x
_atom_site_fract_y
_atom_site_fract_z
Si Si1 0.594637 0.869531 0.827418
Si Si2 0.331918 0.796808 0.316905
Si Si3 0.539231 0.202838 0.318778
Si Si4 0.810199 0.073538 0.680421
Si Si5 0.135503 0.399490 0.173526
Si Si6 0.261458 0.064569 0.182943
O O1 0.530521 0.853557 0.736899
O O2 0.596444 0.802192 0.827524
O O3 0.666288 0.921069 0.770819
O O4 0.587839 0.885311 0.000000
O O5 0.331351 0.801053 0.500000
O O6 0.399579 0.803183 0.267067
O O7 0.272153 0.725574 0.273646
O O8 0.317128 0.849991 0.245525
O O9 0.539710 0.202408 0.500000
O O10 0.814511 0.072966 0.500000
O O11 0.754722 0.090298 0.730829
O O12 0.877170 0.130526 0.750195
O O13 0.790889 0.004470 0.752273
O O14 0.113006 0.391840 0.000000
O O15 0.260298 0.066452 0.000000
#
# Coordination Sequence:
#
# PCOD9581492 Si02
#       6
#    12  12  12  12  12  12
#     4   8  16  29  45  65  91 123 162 201 240 287
#     4   9  16  26  40  62  91 126 166 210 258 310
#     4   9  16  25  40  61  90 125 163 207 257 305
#     4  11  21  34  55  83 108 131 162 201 238 278
#     4   9  17  30  46  66  93 128 165 204 249 296
#     4  10  20  36  56  79 107 137 164 195 236 284
#
# _framework density 16.607852999999999
#
# number of rings (size 3 to 8) (size 9 to 14) (size 15 to 20)
#    0.000    2.667    0.000    3.833    0.000    6.667 
#    0.000    0.000    0.000    3.333    0.000    9.333 
#    0.000    0.000    0.000    0.000    0.000    0.000 
#
# Total GULP energy -401153.237505 kJ/mol
# GULP energy per Si atom -5571.572743 kJ/mol
# Density = 1.657005 g / cm^3
# Si number density = 16.607853 Si / 1000 Ang^3
#
#
#
# Elastic Constant Matrix: (Units=GPa)
#
#
# Indices 1 2 3 4 5 6 
#
# 1 95.7182 54.5486 41.0964 0.0000 0.0000 0.0000
# 2 54.5486 95.7182 41.0964 0.0000 0.0000 0.0000
# 3 41.0964 41.0964 71.0278 0.0000 0.0000 0.0000
# 4 0.0000 0.0000 0.0000 20.6894 0.0000 0.0000
# 5 0.0000 0.0000 0.0000 0.0000 20.6894 0.0000
# 6 0.0000 0.0000 0.0000 0.0000 0.0000 20.5848
#
#
#
# Elastic Compliance Matrix: (Units=1/GPa)
#
#
# Indices 1 2 3 4 5 6 
#
# 1 0.017013 -0.007277 -0.005633 0.000000 0.000000 0.000000
# 2 -0.007277 0.017013 -0.005633 0.000000 0.000000 0.000000
# 3 -0.005633 -0.005633 0.020598 0.000000 0.000000 0.000000
# 4 0.000000 0.000000 0.000000 0.048334 0.000000 0.000000
# 5 0.000000 0.000000 0.000000 0.000000 0.048334 0.000000
# 6 0.000000 0.000000 0.000000 0.000000 0.000000 0.048579
#
#
# Mechanical properties :
#
#
# Convention : Reuss Voigt Hill
#
# Bulk Modulus (GPa) = 57.02265 59.54968 58.28617
# Shear Modulus (GPa) = 20.59281 20.77426 20.68353
#
# Velocity S-wave (km/s) = 3.52510 3.54060 3.53286
# Velocity P-wave (km/s) = 7.13987 7.25594 7.19814
#
# Compressibility (1/GPa) = 0.01753689
#
# Stress axis : x y z
#
# Youngs Moduli (GPa) = 58.77883 58.77883 48.54889
#
# Poissons Ratio (x) = 0.42772 0.27349
# Poissons Ratio (y) = 0.42772 0.27349
# Poissons Ratio (z) = 0.33112 0.33112
#
# Static dielectric constant tensor:
#      x y z
#    x 1.558700 0.000000 0.000000 
#    y 0.000000 1.558700 0.000000 
#    z 0.000000 0.000000 1.561020 
# 
# From -- ./inp_files/1233.got.cif
#   From: 2010.05.17/outbox.cif.g08.bks.cpg/sg175_1_cif.got.tgz:1233.got - 2010.05.20 11:23:22.
