data_PCOD9581789
_publ_section_title
;
Structure prediction by ZEFSAII (Michael W. Deem and Ramdas Pophale) SiO2 
 PCOD9581789
Probable space group: P 63/M
;
_chemical_formula_sum "Si O2"
_cell_formula_units_Z 60
_cell_length_a 23.122285
_cell_length_b 23.122285
_cell_length_c 7.741706
_cell_angle_alpha 90.000000
_cell_angle_beta 90.000000
_cell_angle_gamma 120.000000
_cell_volume 3584.501826
_symmetry_space_group_name_H-M "P 63/M"
_symmetry_group_IT_number 176
_symmetry_cell_setting 'hexagonal'
loop_
_space_group_symop_operation_xyz
x,y,z
x-y,x,1/2+z
-y,x-y,z
-x,-y,1/2+z
-x+y,-x,z
y,-x+y,1/2+z
-x,-y,-z
-x+y,-x,1/2-z
y,-x+y,-z
x,y,1/2-z
x-y,x,-z
-y,x-y,1/2-z
loop_
_atom_site_type_symbol
_atom_site_label
_atom_site_fract_x
_atom_site_fract_y
_atom_site_fract_z
Si Si1 0.571762 0.715613 0.052112
Si Si2 0.571762 0.856148 0.052112
Si Si3 0.074851 0.794823 0.457148
Si Si4 0.925149 0.719972 0.957148
Si Si5 0.528510 0.194212 0.250000
Si Si6 0.194212 0.528510 0.750000
O O1 0.561827 0.690547 0.250000
O O2 0.572343 0.786172 0.057414
O O3 0.646091 0.737431 0.986012
O O4 0.514532 0.670131 0.918636
O O5 0.561826 0.871279 0.250000
O O6 0.646091 0.908659 0.986012
O O7 0.514532 0.844400 0.918637
O O8 0.080830 0.796048 0.250000
O O9 0.133546 0.866455 0.522682
O O10 0.000000 0.775008 0.500000
O O11 0.919171 0.715219 0.750000
O O12 0.600132 0.200265 0.250000
O O13 0.535160 0.267580 0.250000
#
# Coordination Sequence:
#
# PCOD9581789 Si02
#       6
#    12  12  12  12   6   6
#     4   8  16  31  47  67  95 126 163 203 243 285
#     4   8  16  31  47  67  95 126 163 203 243 285
#     4   9  18  31  49  76 102 125 160 203 243 285
#     4   9  18  31  49  76 102 125 160 203 243 285
#     4  10  19  30  48  72  97 126 162 202 250 302
#     4  10  19  30  48  72  97 126 162 202 250 302
#
# _framework density 16.738727999999998
#
# number of rings (size 3 to 8) (size 9 to 14) (size 15 to 20)
#    0.000    3.200    0.000    2.600    2.800    1.600 
#    0.000    0.000    0.000    4.000    0.000    0.000 
#    0.000    0.000    0.000    0.000    0.000    0.000 
#
# Total GULP energy -334045.352877 kJ/mol
# GULP energy per Si atom -5567.422548 kJ/mol
# Density = 1.670063 g / cm^3
# Si number density = 16.738728 Si / 1000 Ang^3
#
#
#
# Elastic Constant Matrix: (Units=GPa)
#
#
# Indices 1 2 3 4 5 6 
#
# 1 95.2965 50.9963 33.5420 0.0000 0.0000 0.0000
# 2 50.9963 95.2965 33.5420 0.0000 0.0000 0.0000
# 3 33.5420 33.5420 62.7109 0.0000 0.0000 0.0000
# 4 0.0000 0.0000 0.0000 17.7986 0.0000 0.0000
# 5 0.0000 0.0000 0.0000 0.0000 17.7986 0.0000
# 6 0.0000 0.0000 0.0000 0.0000 0.0000 22.1501
#
#
#
# Elastic Compliance Matrix: (Units=1/GPa)
#
#
# Indices 1 2 3 4 5 6 
#
# 1 0.015815 -0.006758 -0.004844 0.000000 0.000000 0.000000
# 2 -0.006758 0.015815 -0.004844 0.000000 0.000000 0.000000
# 3 -0.004844 -0.004844 0.021128 0.000000 0.000000 0.000000
# 4 0.000000 0.000000 0.000000 0.056184 0.000000 0.000000
# 5 0.000000 0.000000 0.000000 0.000000 0.056184 0.000000
# 6 0.000000 0.000000 0.000000 0.000000 0.000000 0.045147
#
#
# Mechanical properties :
#
#
# Convention : Reuss Voigt Hill
#
# Bulk Modulus (GPa) = 50.33947 54.38495 52.36221
# Shear Modulus (GPa) = 20.01691 20.56435 20.29063
#
# Velocity S-wave (km/s) = 3.46185 3.50887 3.48544
# Velocity P-wave (km/s) = 6.79103 6.99837 6.89548
#
# Compressibility (1/GPa) = 0.01986513
#
# Stress axis : x y z
#
# Youngs Moduli (GPa) = 63.23052 63.23052 47.32983
#
# Poissons Ratio (x) = 0.42732 0.22928
# Poissons Ratio (y) = 0.42732 0.22928
# Poissons Ratio (z) = 0.30631 0.30631
#
# Static dielectric constant tensor:
#      x y z
#    x 1.568020 0.000000 0.000000 
#    y 0.000000 1.568020 0.000000 
#    z 0.000000 0.000000 1.603960 
# 
# From -- ./inp_files/909.got.cif
#   From: 2010.05.17/outbox.cif.g08.bks.cpg/sg176_1_cif.got.tgz:909.got - 2010.06.03 11:36:45.
