data_PCOD9581470
_publ_section_title
;
Structure prediction by ZEFSAII (Michael W. Deem and Ramdas Pophale) SiO2 
 PCOD9581470
Probable space group: P 6/M
;
_chemical_formula_sum "Si O2"
_cell_formula_units_Z 84
_cell_length_a 18.725292
_cell_length_b 18.725292
_cell_length_c 14.545585
_cell_angle_alpha 90.000000
_cell_angle_beta 90.000000
_cell_angle_gamma 120.000000
_cell_volume 4416.914797
_symmetry_space_group_name_H-M "P 6/M"
_symmetry_group_IT_number 175
_symmetry_cell_setting 'hexagonal'
loop_
_space_group_symop_operation_xyz
x,y,z
x-y,x,z
-y,x-y,z
-x,-y,z
-x+y,-x,z
y,-x+y,z
-x,-y,-z
-x+y,-x,-z
y,-x+y,-z
x,y,-z
x-y,x,-z
-y,x-y,-z
loop_
_atom_site_type_symbol
_atom_site_label
_atom_site_fract_x
_atom_site_fract_y
_atom_site_fract_z
Si Si1 0.349581 0.105949 0.763278
Si Si2 0.527623 0.798164 0.610543
Si Si3 0.197282 0.702913 0.895030
Si Si4 0.156685 0.528141 0.105422
Si Si5 0.391883 0.849215 0.609176
Si Si6 0.137695 0.193151 0.892400
Si Si7 0.029228 0.434938 0.244019
O O1 0.386476 0.156408 0.667339
O O2 0.413464 0.167356 0.837645
O O3 0.260984 0.075119 0.811455
O O4 0.371451 0.032948 0.754934
O O5 0.541322 0.807074 0.500000
O O6 0.466746 0.833702 0.636221
O O7 0.475392 0.700167 0.631881
O O8 0.295370 0.751400 0.893448
O O9 0.161083 0.610981 0.859942
O O10 0.170241 0.697173 0.000000
O O11 0.099335 0.453065 0.169659
O O12 0.127523 0.512084 0.000000
O O13 0.396393 0.858355 0.500000
O O14 0.398725 0.928445 0.658287
O O15 0.159225 0.119641 0.883496
O O16 0.160247 0.224567 0.000000
O O17 0.000000 0.500000 0.215716
#
# Coordination Sequence:
#
# PCOD9581470 Si02
#       7
#    12  12  12  12  12  12  12
#     4  12  24  37  58  89 128 155 195 251 314 375
#     4  10  21  38  61  89 123 168 220 266 301 342
#     4  10  20  35  53  78 112 157 205 247 287 336
#     4  10  21  35  54  75 109 156 204 243 277 334
#     4  10  21  38  61  85 116 161 214 260 295 335
#     4  10  24  47  75 100 121 150 193 253 323 397
#     4  12  23  37  51  80 117 165 199 234 296 355
#
# _framework density 19.017799
#
# number of rings (size 3 to 8) (size 9 to 14) (size 15 to 20)
#    0.000    1.429    2.857    2.000    4.000    5.143 
#    0.000    2.857    0.000    0.000    0.000    0.000 
#    0.000    1.143    0.000    0.000    0.000    0.000 
#
# Total GULP energy -468261.668294 kJ/mol
# GULP energy per Si atom -5574.543670 kJ/mol
# Density = 1.897451 g / cm^3
# Si number density = 19.017799 Si / 1000 Ang^3
#
#
#
# Elastic Constant Matrix: (Units=GPa)
#
#
# Indices 1 2 3 4 5 6 
#
# 1 94.7951 23.8234 39.7817 0.0000 0.0000 0.0000
# 2 23.8234 94.7951 39.7817 0.0000 0.0000 0.0000
# 3 39.7817 39.7817 79.6393 0.0000 0.0000 0.0000
# 4 0.0000 0.0000 0.0000 29.4532 0.0000 0.0000
# 5 0.0000 0.0000 0.0000 0.0000 29.4532 0.0000
# 6 0.0000 0.0000 0.0000 0.0000 0.0000 35.4859
#
#
#
# Elastic Compliance Matrix: (Units=1/GPa)
#
#
# Indices 1 2 3 4 5 6 
#
# 1 0.013384 -0.000706 -0.006333 0.000000 0.000000 0.000000
# 2 -0.000706 0.013384 -0.006333 0.000000 0.000000 0.000000
# 3 -0.006333 -0.006333 0.018884 0.000000 0.000000 0.000000
# 4 0.000000 0.000000 0.000000 0.033952 0.000000 0.000000
# 5 0.000000 0.000000 0.000000 0.000000 0.033952 0.000000
# 6 0.000000 0.000000 0.000000 0.000000 0.000000 0.028180
#
#
# Mechanical properties :
#
#
# Convention : Reuss Voigt Hill
#
# Bulk Modulus (GPa) = 52.88803 52.88924 52.88864
# Shear Modulus (GPa) = 28.60680 29.93464 29.27072
#
# Velocity S-wave (km/s) = 3.88262 3.97171 3.92742
# Velocity P-wave (km/s) = 6.92603 6.99310 6.95964
#
# Compressibility (1/GPa) = 0.01890787
#
# Stress axis : x y z
#
# Youngs Moduli (GPa) = 74.71484 74.71484 52.95571
#
# Poissons Ratio (x) = 0.05274 0.33537
# Poissons Ratio (y) = 0.05274 0.33537
# Poissons Ratio (z) = 0.47318 0.47318
#
# Static dielectric constant tensor:
#      x y z
#    x 1.696930 0.000000 0.000000 
#    y 0.000000 1.696930 0.000000 
#    z 0.000000 0.000000 1.689320 
# 
# From -- ./inp_files/2620.got.cif
#   From: 2010.05.17/outbox.cif.g08.bks.cpg/sg175_2_cif.got.tgz:2620.got - 2010.05.20 11:23:22.
