data_PCOD9581867
_publ_section_title
;
Structure prediction by ZEFSAII (Michael W. Deem and Ramdas Pophale) SiO2 
 PCOD9581867
Probable space group: P 63/M
;
_chemical_formula_sum "Si O2"
_cell_formula_units_Z 84
_cell_length_a 16.718375
_cell_length_b 16.718375
_cell_length_c 18.176963
_cell_angle_alpha 90.000000
_cell_angle_beta 90.000000
_cell_angle_gamma 120.000000
_cell_volume 4399.872379
_symmetry_space_group_name_H-M "P 63/M"
_symmetry_group_IT_number 176
_symmetry_cell_setting 'hexagonal'
loop_
_space_group_symop_operation_xyz
x,y,z
x-y,x,1/2+z
-y,x-y,z
-x,-y,1/2+z
-x+y,-x,z
y,-x+y,1/2+z
-x,-y,-z
-x+y,-x,1/2-z
y,-x+y,-z
x,y,1/2-z
x-y,x,-z
-y,x-y,1/2-z
loop_
_atom_site_type_symbol
_atom_site_label
_atom_site_fract_x
_atom_site_fract_y
_atom_site_fract_z
Si Si1 0.795651 0.945220 0.340359
Si Si2 0.195174 0.052763 0.339199
Si Si3 0.525908 0.091128 0.449619
Si Si4 0.321523 0.871446 0.833071
Si Si5 0.911282 0.301718 0.666080
Si Si6 0.346320 0.569294 0.420214
Si Si7 0.288401 0.395267 0.663769
O O1 0.791386 0.945098 0.250000
O O2 0.848139 0.891300 0.362047
O O3 0.690420 0.896680 0.367497
O O4 0.857564 0.050370 0.365530
O O5 0.193597 0.056784 0.250000
O O6 0.288376 0.054206 0.358090
O O7 0.617674 0.127325 0.400883
O O8 0.540999 0.176269 0.500324
O O9 0.448822 0.074466 0.389651
O O10 0.500000 0.000000 0.500000
O O11 0.350103 0.858289 0.750000
O O12 0.215585 0.790588 0.841661
O O13 0.342920 0.977338 0.833730
O O14 0.879867 0.284473 0.750000
O O15 0.855380 0.345575 0.629639
O O16 0.424312 0.677543 0.409638
O O17 0.315738 0.405577 0.750000
#
# Coordination Sequence:
#
# PCOD9581867 Si02
#       7
#    12  12  12  12  12  12  12
#     4   9  16  28  51  83 118 151 189 232 291 355
#     4   9  16  29  51  84 120 152 185 236 292 351
#     4  12  23  39  62  89 118 161 204 253 318 387
#     4  10  20  39  65  89 119 154 205 265 317 370
#     4  10  19  36  61  87 115 160 206 246 304 373
#     4  10  24  42  58  82 122 159 203 260 308 373
#     4  10  21  38  61  89 122 156 203 262 313 367
#
# _framework density 19.091463999999998
#
# number of rings (size 3 to 8) (size 9 to 14) (size 15 to 20)
#    0.286    1.714    2.857    1.571    0.000    2.857 
#    0.857    0.000    0.000    0.000    0.000    0.000 
#    0.000    3.429    0.000    0.000    0.000    0.000 
#
# Total GULP energy -467612.471600 kJ/mol
# GULP energy per Si atom -5566.815138 kJ/mol
# Density = 1.904801 g / cm^3
# Si number density = 19.091464 Si / 1000 Ang^3
#
#
#
# Elastic Constant Matrix: (Units=GPa)
#
#
# Indices 1 2 3 4 5 6 
#
# 1 69.5539 21.2151 28.5212 0.0000 0.0000 0.0000
# 2 21.2151 69.5539 28.5212 0.0000 0.0000 0.0000
# 3 28.5212 28.5212 54.9975 0.0000 0.0000 0.0000
# 4 0.0000 0.0000 0.0000 9.5735 0.0000 0.0000
# 5 0.0000 0.0000 0.0000 0.0000 9.5735 0.0000
# 6 0.0000 0.0000 0.0000 0.0000 0.0000 24.1694
#
#
#
# Elastic Compliance Matrix: (Units=1/GPa)
#
#
# Indices 1 2 3 4 5 6 
#
# 1 0.018515 -0.002172 -0.008475 0.000000 0.000000 0.000000
# 2 -0.002172 0.018515 -0.008475 0.000000 0.000000 0.000000
# 3 -0.008475 -0.008475 0.026973 0.000000 0.000000 0.000000
# 4 0.000000 0.000000 0.000000 0.104455 0.000000 0.000000
# 5 0.000000 0.000000 0.000000 0.000000 0.104455 0.000000
# 6 0.000000 0.000000 0.000000 0.000000 0.000000 0.041375
#
#
# Mechanical properties :
#
#
# Convention : Reuss Voigt Hill
#
# Bulk Modulus (GPa) = 38.82305 38.95782 38.89044
# Shear Modulus (GPa) = 13.84580 16.38646 15.11613
#
# Velocity S-wave (km/s) = 2.69594 2.93288 2.81690
# Velocity P-wave (km/s) = 5.48363 5.64971 5.56729
#
# Compressibility (1/GPa) = 0.02575789
#
# Stress axis : x y z
#
# Youngs Moduli (GPa) = 54.00941 54.00941 37.07370
#
# Poissons Ratio (x) = 0.11731 0.31422
# Poissons Ratio (y) = 0.11731 0.31422
# Poissons Ratio (z) = 0.45776 0.45776
#
# Static dielectric constant tensor:
#      x y z
#    x 1.692440 0.000000 0.000000 
#    y 0.000000 1.692440 0.000000 
#    z 0.000000 0.000000 1.672270 
# 
# From -- ./inp_files/2932.got.cif
#   From: 2010.05.17/outbox.cif.g08.bks.cpg/sg176_2_cif.got.tgz:2932.got - 2010.06.03 11:36:45.
