data_PCOD9581493
_publ_section_title
;
Structure prediction by ZEFSAII (Michael W. Deem and Ramdas Pophale) SiO2 
 PCOD9581493
Probable space group: P 6/M
;
_chemical_formula_sum "Si O2"
_cell_formula_units_Z 60
_cell_length_a 22.866947
_cell_length_b 22.866947
_cell_length_c 7.920837
_cell_angle_alpha 90.000000
_cell_angle_beta 90.000000
_cell_angle_gamma 120.000000
_cell_volume 3586.890165
_symmetry_space_group_name_H-M "P 6/M"
_symmetry_group_IT_number 175
_symmetry_cell_setting 'hexagonal'
loop_
_space_group_symop_operation_xyz
x,y,z
x-y,x,z
-y,x-y,z
-x,-y,z
-x+y,-x,z
y,-x+y,z
-x,-y,-z
-x+y,-x,-z
y,-x+y,-z
x,y,-z
x-y,x,-z
-y,x-y,-z
loop_
_atom_site_type_symbol
_atom_site_label
_atom_site_fract_x
_atom_site_fract_y
_atom_site_fract_z
Si Si1 0.334014 0.802283 0.795478
Si Si2 0.262530 0.879260 0.313328
Si Si3 0.879260 0.262530 0.313328
Si Si4 0.287136 0.213380 0.000000
Si Si5 0.213380 0.287136 0.000000
Si Si6 0.197717 0.665986 0.204522
O O1 0.319523 0.859549 0.725806
O O2 0.404281 0.808561 0.742266
O O3 0.270819 0.729181 0.746598
O O4 0.333234 0.805323 0.000000
O O5 0.271784 0.909271 0.500000
O O6 0.192932 0.807068 0.313576
O O7 0.251494 0.919166 0.163447
O O8 0.909271 0.271784 0.500000
O O9 0.859549 0.319523 0.274194
O O10 0.919166 0.251494 0.163447
O O11 0.221769 0.221769 0.000000
O O12 0.274258 0.137129 0.000000
O O13 0.194677 0.666766 0.000000
#
# Coordination Sequence:
#
# PCOD9581493 Si02
#       6
#    12  12  12   6   6  12
#     4   9  15  24  40  64  95 131 172 218 265 306
#     4   9  17  30  48  70  97 130 167 205 243 282
#     4   9  17  30  48  70  97 130 167 205 243 282
#     4  10  20  36  57  80 103 125 151 185 227 277
#     4  10  20  36  57  80 103 125 151 185 227 277
#     4   9  15  24  40  64  95 131 172 218 265 306
#
# _framework density 16.727582999999999
#
# number of rings (size 3 to 8) (size 9 to 14) (size 15 to 20)
#    0.000    2.800    2.000    0.400    0.000    3.200 
#    0.000    0.000    0.000    5.000    0.000    2.800 
#    0.000    0.000    0.000   10.000    0.000    0.000 
#
# Total GULP energy -334300.543766 kJ/mol
# GULP energy per Si atom -5571.675729 kJ/mol
# Density = 1.668951 g / cm^3
# Si number density = 16.727583 Si / 1000 Ang^3
#
#
#
# Elastic Constant Matrix: (Units=GPa)
#
#
# Indices 1 2 3 4 5 6 
#
# 1 69.7282 42.0535 33.5080 0.0000 0.0000 0.0000
# 2 42.0535 69.7282 33.5080 0.0000 0.0000 0.0000
# 3 33.5080 33.5080 96.8995 0.0000 0.0000 0.0000
# 4 0.0000 0.0000 0.0000 -3.4961 0.0000 0.0000
# 5 0.0000 0.0000 0.0000 0.0000 -3.4961 0.0000
# 6 0.0000 0.0000 0.0000 0.0000 0.0000 13.8374
#
#
#
# Elastic Compliance Matrix: (Units=1/GPa)
#
#
# Indices 1 2 3 4 5 6 
#
# 1 0.023710 -0.012424 -0.003903 0.000000 0.000000 0.000000
# 2 -0.012424 0.023710 -0.003903 0.000000 0.000000 0.000000
# 3 -0.003903 -0.003903 0.013019 0.000000 0.000000 0.000000
# 4 0.000000 0.000000 0.000000 -0.286032 0.000000 0.000000
# 5 0.000000 0.000000 0.000000 0.000000 -0.286032 0.000000
# 6 0.000000 0.000000 0.000000 0.000000 0.000000 0.072268
#
#
# Mechanical properties :
#
#
# Convention : Reuss Voigt Hill
#
# Bulk Modulus (GPa) = 50.05000 50.49940 50.27470
# Shear Modulus (GPa) = -12.74733 9.85479 -1.44627
#
# Velocity S-wave (km/s) = -2.76353 2.42984 -0.93085
# Velocity P-wave (km/s) = 4.45004 6.17471 5.38191
#
# Compressibility (1/GPa) = 0.01998002
#
# Stress axis : x y z
#
# Youngs Moduli (GPa) = 42.17647 42.17647 76.81063
#
# Poissons Ratio (x) = 0.52401 0.29976
# Poissons Ratio (y) = 0.52401 0.29976
# Poissons Ratio (z) = 0.16460 0.16460
#
# Static dielectric constant tensor:
#      x y z
#    x 1.544880 0.000000 0.000000 
#    y 0.000000 1.544880 0.000000 
#    z 0.000000 0.000000 1.604200 
# 
# From -- ./inp_files/888.got.cif
#   From: 2010.05.17/outbox.cif.g08.bks.cpg/sg175_1_cif.got.tgz:888.got - 2010.05.20 11:23:22.
