data_PCOD9581203
_publ_section_title
;
Structure prediction by ZEFSAII (Michael W. Deem and Ramdas Pophale) SiO2 
 PCOD9581203
Probable space group: P -6
;
_chemical_formula_sum "Si O2"
_cell_formula_units_Z 48
_cell_length_a 17.742658
_cell_length_b 17.742658
_cell_length_c 9.315981
_cell_angle_alpha 90.000000
_cell_angle_beta 90.000000
_cell_angle_gamma 120.000000
_cell_volume 2539.782863
_symmetry_space_group_name_H-M "P -6"
_symmetry_group_IT_number 174
_symmetry_cell_setting 'hexagonal'
loop_
_space_group_symop_operation_xyz
x,y,z
-x+y,-x,-z
-y,x-y,z
x,y,-z
-x+y,-x,z
-y,x-y,-z
loop_
_atom_site_type_symbol
_atom_site_label
_atom_site_fract_x
_atom_site_fract_y
_atom_site_fract_z
Si Si1 0.791016 0.753351 0.332392
Si Si2 0.450785 0.170332 0.331916
Si Si3 0.696220 0.117272 0.833354
Si Si4 0.214183 0.168691 0.166539
Si Si5 0.403042 0.869205 0.829294
Si Si6 0.535272 0.799114 0.170449
Si Si7 0.520315 0.043637 0.671251
Si Si8 0.713278 0.873605 0.670288
O O1 0.817278 0.771419 0.500000
O O2 0.742900 0.649445 0.313911
O O3 0.876155 0.794634 0.233769
O O4 0.729134 0.792905 0.301722
O O5 0.462413 0.196399 0.500000
O O6 0.463077 0.249633 0.234560
O O7 0.508869 0.126863 0.298162
O O8 0.759581 0.076710 0.824155
O O9 0.609085 0.060532 0.743817
O O10 0.675325 0.119607 0.000000
O O11 0.165796 0.207538 0.258426
O O12 0.188744 0.157880 0.000000
O O13 0.463749 0.827131 0.799014
O O14 0.302852 0.800026 0.798128
O O15 0.441058 0.957284 0.739175
O O16 0.409939 0.888898 0.000000
O O17 0.623405 0.854288 0.258148
O O18 0.554917 0.812687 0.000000
O O19 0.521615 0.034479 0.500000
O O20 0.711195 0.885248 0.500000
#
# Coordination Sequence:
#
# PCOD9581203 Si02
#       8
#     6   6   6   6   6   6   6   6
#     4   9  19  37  58  79 106 141 180 223 274 330
#     4   9  19  37  58  79 106 141 180 223 274 330
#     4  10  21  37  57  81 109 142 182 227 275 327
#     4  10  21  37  57  81 109 142 182 227 275 327
#     4  10  21  37  57  82 115 155 197 240 285 333
#     4  10  21  37  57  82 115 155 197 240 285 333
#     4  11  22  36  57  85 114 147 186 229 279 339
#     4  11  22  36  57  85 114 147 186 229 279 339
#
# _framework density 18.899253000000002
#
# number of rings (size 3 to 8) (size 9 to 14) (size 15 to 20)
#    0.000    2.000    0.000    3.250    0.000    9.500 
#    1.500    2.500    0.000    1.500    0.000    0.000 
#    0.000    0.000    0.000    0.000    0.000    0.000 
#
# Total GULP energy -268142.603298 kJ/mol
# GULP energy per Si atom -5586.304235 kJ/mol
# Density = 1.885624 g / cm^3
# Si number density = 18.899253 Si / 1000 Ang^3
#
#
#
# Elastic Constant Matrix: (Units=GPa)
#
#
# Indices 1 2 3 4 5 6 
#
# 1 37.3541 -4.6289 20.8585 0.0000 0.0000 0.0000
# 2 -4.6289 37.3541 20.8585 0.0000 0.0000 0.0000
# 3 20.8585 20.8585 43.9268 0.0000 0.0000 0.0000
# 4 0.0000 0.0000 0.0000 17.1479 0.0000 0.0000
# 5 0.0000 0.0000 0.0000 0.0000 17.1479 0.0000
# 6 0.0000 0.0000 0.0000 0.0000 0.0000 20.9915
#
#
#
# Elastic Compliance Matrix: (Units=1/GPa)
#
#
# Indices 1 2 3 4 5 6 
#
# 1 0.050621 0.026802 -0.036764 0.000000 0.000000 0.000000
# 2 0.026802 0.050621 -0.036764 0.000000 0.000000 0.000000
# 3 -0.036764 -0.036764 0.057680 0.000000 0.000000 0.000000
# 4 0.000000 0.000000 0.000000 0.058316 0.000000 0.000000
# 5 0.000000 0.000000 0.000000 0.000000 0.058316 0.000000
# 6 0.000000 0.000000 0.000000 0.000000 0.000000 0.047638
#
#
# Mechanical properties :
#
#
# Convention : Reuss Voigt Hill
#
# Bulk Modulus (GPa) = 15.27422 21.42345 18.34884
# Shear Modulus (GPa) = 11.40330 16.49391 13.94860
#
# Velocity S-wave (km/s) = 2.45903 2.95740 2.71966
# Velocity P-wave (km/s) = 4.02019 4.79811 4.42627
#
# Compressibility (1/GPa) = 0.06546977
#
# Stress axis : x y z
#
# Youngs Moduli (GPa) = 19.75452 19.75452 17.33704
#
# Poissons Ratio (x) = -0.52946 0.63738
# Poissons Ratio (y) = -0.52946 0.63738
# Poissons Ratio (z) = 0.72626 0.72626
#
# Static dielectric constant tensor:
#      x y z
#    x 1.644040 0.000000 0.000000 
#    y 0.000000 1.644040 0.000000 
#    z 0.000000 0.000000 1.628920 
# 
# From -- ./inp_files/523.got.cif
#   From: 2010.05.17/outbox.cif.g08.bks.cpg/sg174_cif.got.tgz:523.got - 2010.05.20 11:22:48.
