data_PCOD9581223
_publ_section_title
;
Structure prediction by ZEFSAII (Michael W. Deem and Ramdas Pophale) SiO2 
 PCOD9581223
Probable space group: P -6
;
_chemical_formula_sum "Si O2"
_cell_formula_units_Z 20
_cell_length_a 11.700797
_cell_length_b 11.700797
_cell_length_c 8.703493
_cell_angle_alpha 90.000000
_cell_angle_beta 90.000000
_cell_angle_gamma 120.000000
_cell_volume 1031.941565
_symmetry_space_group_name_H-M "P -6"
_symmetry_group_IT_number 174
_symmetry_cell_setting 'hexagonal'
loop_
_space_group_symop_operation_xyz
x,y,z
-x+y,-x,-z
-y,x-y,z
x,y,-z
-x+y,-x,z
-y,x-y,-z
loop_
_atom_site_type_symbol
_atom_site_label
_atom_site_fract_x
_atom_site_fract_y
_atom_site_fract_z
Si Si1 0.844617 0.139039 0.816181
Si Si2 0.586840 0.923445 0.317043
Si Si3 0.000000 0.000000 0.683970
Si Si4 0.582542 0.669039 0.816138
O O1 0.942106 0.293022 0.782177
O O2 0.699635 0.065409 0.744149
O O3 0.834288 0.122793 0.000000
O O4 0.917017 0.064469 0.747606
O O5 0.592616 0.918085 0.500000
O O6 0.611635 0.810724 0.244963
O O7 0.444893 0.896498 0.262034
O O8 0.000000 0.000000 0.500000
O O9 0.565345 0.665328 0.000000
#
# Coordination Sequence:
#
# PCOD9581223 Si02
#       4
#     6   6   2   6
#     4  11  23  41  66  93 125 167 212 255 308 376
#     4  12  25  41  65  95 130 163 207 264 319 370
#     4  12  22  35  64  99 130 158 199 261 316 362
#     4  11  24  43  67  91 125 168 214 256 307 378
#
# _framework density 19.380942999999998
#
# number of rings (size 3 to 8) (size 9 to 14) (size 15 to 20)
#    0.000    0.600    3.000    6.000    0.000    3.600 
#    1.800    0.000    0.000    0.000    0.000    0.000 
#    0.000    0.000    0.000    0.000    0.000    0.000 
#
# Total GULP energy -111904.264479 kJ/mol
# GULP energy per Si atom -5595.213224 kJ/mol
# Density = 1.933683 g / cm^3
# Si number density = 19.380943 Si / 1000 Ang^3
#
#
#
# Elastic Constant Matrix: (Units=GPa)
#
#
# Indices 1 2 3 4 5 6 
#
# 1 76.1097 4.2651 21.0960 0.0000 0.0000 0.0000
# 2 4.2651 76.1097 21.0960 0.0000 0.0000 0.0000
# 3 21.0960 21.0960 77.4896 0.0000 0.0000 0.0000
# 4 0.0000 0.0000 0.0000-1036.0779 0.0000 0.0000
# 5 0.0000 0.0000 0.0000 0.0000-1036.0777 0.0000
# 6 0.0000 0.0000 0.0000 0.0000 0.0000 35.9223
#
#
#
# Elastic Compliance Matrix: (Units=1/GPa)
#
#
# Indices 1 2 3 4 5 6 
#
# 1 0.014218 0.000299 -0.003952 0.000000 0.000000 0.000000
# 2 0.000299 0.014218 -0.003952 0.000000 0.000000 0.000000
# 3 -0.003952 -0.003952 0.015057 0.000000 0.000000 0.000000
# 4 0.000000 0.000000 0.000000 -0.000965 0.000000 0.000000
# 5 0.000000 0.000000 0.000000 0.000000 -0.000965 0.000000
# 6 0.000000 0.000000 0.000000 0.000000 0.000000 0.027838
#
#
# Mechanical properties :
#
#
# Convention : Reuss Voigt Hill
#
# Bulk Modulus (GPa) = 35.35885 35.84701 35.60293
# Shear Modulus (GPa) = 53.17053 -395.02988 -170.92967
#
# Velocity S-wave (km/s) = 5.24347 -14.29218 -9.40139
# Velocity P-wave (km/s) = 7.41231 15.93170 9.97187
#
# Compressibility (1/GPa) = 0.02828146
#
# Stress axis : x y z
#
# Youngs Moduli (GPa) = 70.33539 70.33539 66.41542
#
# Poissons Ratio (x) = -0.02101 0.26247
# Poissons Ratio (y) = -0.02101 0.26247
# Poissons Ratio (z) = 0.27796 0.27796
#
# Static dielectric constant tensor:
#      x y z
#    x 1.638320 0.000000 0.000000 
#    y 0.000000 1.638320 0.000000 
#    z 0.000000 0.000000 1.639730 
# 
# From -- ./inp_files/133.got.cif
#   From: 2010.05.17/outbox.cif.g08.bks.cpg/sg174_cif.got.tgz:133.got - 2010.05.20 11:22:48.
