data_PCOD9581892
_publ_section_title
;
Structure prediction by ZEFSAII (Michael W. Deem and Ramdas Pophale) SiO2 
 PCOD9581892
Probable space group: P 63/M
;
_chemical_formula_sum "Si O2"
_cell_formula_units_Z 72
_cell_length_a 12.768388
_cell_length_b 12.768388
_cell_length_c 32.150084
_cell_angle_alpha 90.000000
_cell_angle_beta 90.000000
_cell_angle_gamma 120.000000
_cell_volume 4539.258196
_symmetry_space_group_name_H-M "P 63/M"
_symmetry_group_IT_number 176
_symmetry_cell_setting 'hexagonal'
loop_
_space_group_symop_operation_xyz
x,y,z
x-y,x,1/2+z
-y,x-y,z
-x,-y,1/2+z
-x+y,-x,z
y,-x+y,1/2+z
-x,-y,-z
-x+y,-x,1/2-z
y,-x+y,-z
x,y,1/2-z
x-y,x,-z
-y,x-y,1/2-z
loop_
_atom_site_type_symbol
_atom_site_label
_atom_site_fract_x
_atom_site_fract_y
_atom_site_fract_z
Si Si1 0.084456 0.667127 0.250000
Si Si2 0.417088 0.084340 0.080011
Si Si3 0.084340 0.417088 0.580011
Si Si4 0.249374 0.249374 0.500000
Si Si5 0.417328 0.332873 0.750000
Si Si6 0.082713 0.415458 0.341175
Si Si7 0.584542 0.917287 0.158825
O O1 0.086837 0.543418 0.250000
O O2 0.220708 0.779292 0.250000
O O3 0.032601 0.672074 0.204892
O O4 0.544226 0.088452 0.074913
O O5 0.436602 0.218301 0.083145
O O6 0.354862 0.008957 0.121707
O O7 0.331621 0.020875 0.040438
O O8 0.020875 0.331621 0.540438
O O9 0.008958 0.354862 0.621707
O O10 0.237432 0.118716 0.505253
O O11 0.360526 0.327926 0.795108
O O12 0.209319 0.418638 0.347151
O O13 0.104264 0.552132 0.341505
#
# Coordination Sequence:
#
# PCOD9581892 Si02
#       7
#     6  12  12  12   6  12  12
#     4   8  13  22  39  64  92 118 144 178 222 268
#     4  10  20  33  48  66  91 123 156 187 220 263
#     4  10  20  33  48  66  91 123 156 187 220 263
#     4  10  20  34  52  72  92 114 144 186 234 280
#     4   8  13  22  39  64  92 118 144 178 222 268
#     4   9  16  27  45  69  94 118 146 183 227 270
#     4   9  16  27  45  69  94 118 146 183 227 270
#
# _framework density 15.861624000000001
#
# number of rings (size 3 to 8) (size 9 to 14) (size 15 to 20)
#    0.000    2.667    0.000    2.500    0.000    2.667 
#    0.000    0.833    0.000   11.333    0.000    2.333 
#    0.000    0.000    0.000    0.000    0.000    0.000 
#
# Total GULP energy -400894.704111 kJ/mol
# GULP energy per Si atom -5567.982002 kJ/mol
# Density = 1.582552 g / cm^3
# Si number density = 15.861624 Si / 1000 Ang^3
#
#
#
# Elastic Constant Matrix: (Units=GPa)
#
#
# Indices 1 2 3 4 5 6 
#
# 1 74.8527 43.8460 78.4327 0.0000 0.0000 0.0000
# 2 43.8460 74.8527 78.4327 0.0000 0.0000 0.0000
# 3 78.4327 78.4327 177.4259 0.0000 0.0000 0.0000
# 4 0.0000 0.0000 0.0000 24.9724 0.0000 0.0000
# 5 0.0000 0.0000 0.0000 0.0000 24.9724 0.0000
# 6 0.0000 0.0000 0.0000 0.0000 0.0000 15.5034
#
#
#
# Elastic Compliance Matrix: (Units=1/GPa)
#
#
# Indices 1 2 3 4 5 6 
#
# 1 0.026256 -0.005995 -0.008957 0.000000 0.000000 0.000000
# 2 -0.005995 0.026256 -0.008957 0.000000 0.000000 0.000000
# 3 -0.008957 -0.008957 0.013555 0.000000 0.000000 0.000000
# 4 0.000000 0.000000 0.000000 0.040044 0.000000 0.000000
# 5 0.000000 0.000000 0.000000 0.000000 0.040044 0.000000
# 6 0.000000 0.000000 0.000000 0.000000 0.000000 0.064502
#
#
# Mechanical properties :
#
#
# Convention : Reuss Voigt Hill
#
# Bulk Modulus (GPa) = 54.79198 80.95047 67.87123
# Shear Modulus (GPa) = 18.89943 21.51763 20.20853
#
# Velocity S-wave (km/s) = 3.45558 3.68718 3.57326
# Velocity P-wave (km/s) = 7.10916 8.32306 7.73994
#
# Compressibility (1/GPa) = 0.01825084
#
# Stress axis : x y z
#
# Youngs Moduli (GPa) = 38.08617 38.08617 73.77363
#
# Poissons Ratio (x) = 0.22832 0.66077
# Poissons Ratio (y) = 0.22832 0.66077
# Poissons Ratio (z) = 0.34113 0.34113
#
# Static dielectric constant tensor:
#      x y z
#    x 1.496460 0.000000 0.000000 
#    y 0.000000 1.496460 0.000000 
#    z 0.000000 0.000000 1.563130 
# 
# From -- ./inp_files/4517.got.cif
#   From: 2010.05.17/outbox.cif.g08.bks.cpg/sg176_3_cif.got.tgz:4517.got - 2010.06.03 11:36:45.
