data_PCOD9581952
_publ_section_title
;
Structure prediction by ZEFSAII (Michael W. Deem and Ramdas Pophale) SiO2 
 PCOD9581952
Probable space group: P 63/M
;
_chemical_formula_sum "Si O2"
_cell_formula_units_Z 66
_cell_length_a 11.872160
_cell_length_b 11.872160
_cell_length_c 27.876119
_cell_angle_alpha 90.000000
_cell_angle_beta 90.000000
_cell_angle_gamma 120.000000
_cell_volume 3402.690302
_symmetry_space_group_name_H-M "P 63/M"
_symmetry_group_IT_number 176
_symmetry_cell_setting 'hexagonal'
loop_
_space_group_symop_operation_xyz
x,y,z
x-y,x,1/2+z
-y,x-y,z
-x,-y,1/2+z
-x+y,-x,z
y,-x+y,1/2+z
-x,-y,-z
-x+y,-x,1/2-z
y,-x+y,-z
x,y,1/2-z
x-y,x,-z
-y,x-y,1/2-z
loop_
_atom_site_type_symbol
_atom_site_label
_atom_site_fract_x
_atom_site_fract_y
_atom_site_fract_z
Si Si1 0.310258 0.895292 0.087796
Si Si2 0.038153 0.277073 0.697261
Si Si3 0.960784 0.729886 0.820963
Si Si4 0.192530 0.507822 0.250000
Si Si5 0.960246 0.721664 0.490760
Si Si6 0.641954 0.587239 0.604349
O O1 0.250694 0.961721 0.121988
O O2 0.209541 0.745290 0.100628
O O3 0.458985 0.954530 0.101026
O O4 0.303541 0.916211 0.031623
O O5 0.029555 0.325116 0.750000
O O6 0.175775 0.283505 0.694054
O O7 0.920503 0.127962 0.692390
O O8 0.007791 0.344536 0.653348
O O9 0.884641 0.587549 0.794806
O O10 0.207108 0.651570 0.250000
O O11 0.845692 0.755221 0.489540
O O12 0.991314 0.676962 0.440482
#
# Coordination Sequence:
#
# PCOD9581952 Si02
#       6
#    12  12  12   6  12  12
#     4  10  22  36  57  87 118 159 200 253 308 362
#     4  11  21  37  57  90 120 163 206 253 313 352
#     4  11  22  38  61  90 126 164 206 265 304 374
#     4  10  24  36  60  96 124 164 202 254 320 356
#     4  10  20  38  61  89 115 148 191 252 313 369
#     4  10  22  37  59  85 122 159 205 253 302 377
#
# _framework density 19.396418000000001
#
# number of rings (size 3 to 8) (size 9 to 14) (size 15 to 20)
#    0.182    1.455    1.818    2.545    5.091    0.000 
#    0.000    3.636    0.000    8.000    0.000    0.000 
#    0.000    0.000    0.000    0.000    0.000    0.000 
#
# Total GULP energy -368013.852609 kJ/mol
# GULP energy per Si atom -5575.967464 kJ/mol
# Density = 1.935227 g / cm^3
# Si number density = 19.396418 Si / 1000 Ang^3
#
#
#
# Elastic Constant Matrix: (Units=GPa)
#
#
# Indices 1 2 3 4 5 6 
#
# 1 35.3708 61.9190 19.8685 0.0000 0.0000 0.0000
# 2 61.9190 35.3708 19.8685 0.0000 0.0000 0.0000
# 3 19.8685 19.8685 121.7331 0.0000 0.0000 0.0000
# 4 0.0000 0.0000 0.0000 -11.1980 0.0000 0.0000
# 5 0.0000 0.0000 0.0000 0.0000 -11.1980 0.0000
# 6 0.0000 0.0000 0.0000 0.0000 0.0000 -13.2741
#
#
#
# Elastic Compliance Matrix: (Units=1/GPa)
#
#
# Indices 1 2 3 4 5 6 
#
# 1 -0.013327 0.024340 -0.001797 0.000000 0.000000 0.000000
# 2 0.024340 -0.013327 -0.001797 0.000000 0.000000 0.000000
# 3 -0.001797 -0.001797 0.008801 0.000000 0.000000 0.000000
# 4 0.000000 0.000000 0.000000 -0.089302 0.000000 0.000000
# 5 0.000000 0.000000 0.000000 0.000000 -0.089302 0.000000
# 6 0.000000 0.000000 0.000000 0.000000 0.000000 -0.075335
#
#
# Mechanical properties :
#
#
# Convention : Reuss Voigt Hill
#
# Bulk Modulus (GPa) = 42.30630 43.97629 43.14130
# Shear Modulus (GPa) = -16.37183 -1.07943 -8.72563
#
# Velocity S-wave (km/s) = -2.90843 -0.74681 -2.12329
# Velocity P-wave (km/s) = 3.25271 4.68807 4.03473
#
# Compressibility (1/GPa) = 0.02363714
#
# Stress axis : x y z
#
# Youngs Moduli (GPa) = -75.03373 -75.03373 113.61802
#
# Poissons Ratio (x) = 1.82632 0.20422
# Poissons Ratio (y) = 1.82632 0.20422
# Poissons Ratio (z) = -0.13487 -0.13487
#
# Static dielectric constant tensor:
#      x y z
#    x 1.679960 0.000000 0.000000 
#    y 0.000000 1.679960 0.000000 
#    z 0.000000 0.000000 1.729570 
# 
# From -- ./inp_files/4474.got.cif
#   From: 2010.05.17/outbox.cif.g08.bks.cpg/sg176_3_cif.got.tgz:4474.got - 2010.06.03 11:36:45.
