data_PCOD9581710
_publ_section_title
;
Structure prediction by ZEFSAII (Michael W. Deem and Ramdas Pophale) SiO2 
 PCOD9581710
Probable space group: P 6/M
;
_chemical_formula_sum "Si O2"
_cell_formula_units_Z 64
_cell_length_a 22.219740
_cell_length_b 22.219740
_cell_length_c 7.482950
_cell_angle_alpha 90.000000
_cell_angle_beta 90.000000
_cell_angle_gamma 120.000000
_cell_volume 3199.494888
_symmetry_space_group_name_H-M "P 6/M"
_symmetry_group_IT_number 175
_symmetry_cell_setting 'hexagonal'
loop_
_space_group_symop_operation_xyz
x,y,z
x-y,x,z
-y,x-y,z
-x,-y,z
-x+y,-x,z
y,-x+y,z
-x,-y,-z
-x+y,-x,-z
y,-x+y,-z
x,y,-z
x-y,x,-z
-y,x-y,-z
loop_
_atom_site_type_symbol
_atom_site_label
_atom_site_fract_x
_atom_site_fract_y
_atom_site_fract_z
Si Si1 0.709316 0.921621 0.713062
Si Si2 0.666668 0.333334 0.781552
Si Si3 0.586857 0.413141 0.218961
Si Si4 0.078883 0.429474 0.785041
Si Si5 0.709316 0.787692 0.286936
Si Si6 0.350585 0.429475 0.214960
O O1 0.720417 0.925053 0.500000
O O2 0.721817 0.860907 0.784745
O O3 0.629705 0.902277 0.740736
O O4 0.757355 0.999998 0.784639
O O5 0.746600 0.373304 0.723932
O O6 0.666667 0.333334 0.000000
O O7 0.506671 0.374506 0.277876
O O8 0.625499 0.493328 0.277874
O O9 0.586858 0.413139 0.000000
O O10 0.097717 0.370295 0.740744
O O11 0.999996 0.400913 0.719954
O O12 0.077031 0.432781 0.000000
O O13 0.720414 0.795358 0.500000
O O14 0.355741 0.432779 0.000000
#
# Coordination Sequence:
#
# PCOD9581710 Si02
#       6
#    12   4  12  12  12  12
#     4   9  18  32  49  69  93 120 148 179 220 268
#     4   9  18  27  36  60  88 122 160 186 223 269
#     4   9  17  28  42  62  92 122 152 190 230 271
#     4   9  17  29  47  70  92 116 149 190 231 267
#     4   9  18  32  49  69  93 120 148 179 220 268
#     4   9  17  29  47  70  92 116 149 190 231 267
#
# _framework density 20.003157000000002
#
# number of rings (size 3 to 8) (size 9 to 14) (size 15 to 20)
#    0.000    3.000    0.000    0.562    2.625    3.000 
#    0.000    0.938    0.000    4.875    0.000    2.625 
#    0.000    0.000    0.000    9.375    0.000    9.750 
#
# Total GULP energy -357126.430481 kJ/mol
# GULP energy per Si atom -5580.100476 kJ/mol
# Density = 1.995763 g / cm^3
# Si number density = 20.003157 Si / 1000 Ang^3
#
#
#
# Elastic Constant Matrix: (Units=GPa)
#
#
# Indices 1 2 3 4 5 6 
#
# 1 169.2089 130.9441 5.3170 0.0000 0.0000 0.0005
# 2 130.9441 169.2081 5.3170 0.0000 0.0000 0.0000
# 3 5.3170 5.3170 56.9770 0.0000 0.0000 0.0000
# 4 0.0000 0.0000 0.0000 11.5439 0.0000 0.0000
# 5 0.0000 0.0000 0.0000 0.0000 11.5439 0.0000
# 6 0.0005 0.0000 0.0000 0.0000 0.0000 19.1327
#
#
#
# Elastic Compliance Matrix: (Units=1/GPa)
#
#
# Indices 1 2 3 4 5 6 
#
# 1 0.014738 -0.011396 -0.000312 0.000000 0.000000 0.000000
# 2 -0.011396 0.014738 -0.000312 0.000000 0.000000 0.000000
# 3 -0.000312 -0.000312 0.017609 0.000000 0.000000 0.000000
# 4 0.000000 0.000000 0.000000 0.086626 0.000000 0.000000
# 5 0.000000 0.000000 0.000000 0.000000 0.086626 0.000000
# 6 0.000000 0.000000 0.000000 0.000000 0.000000 0.052267
#
#
# Mechanical properties :
#
#
# Convention : Reuss Voigt Hill
#
# Bulk Modulus (GPa) = 43.38994 75.39445 59.39220
# Shear Modulus (GPa) = 16.42976 25.36515 20.89746
#
# Velocity S-wave (km/s) = 2.86904 3.56484 3.23570
# Velocity P-wave (km/s) = 5.71960 7.39711 6.61177
#
# Compressibility (1/GPa) = 0.02304681
#
# Stress axis : x y z
#
# Youngs Moduli (GPa) = 67.85060 67.85027 56.78862
#
# Poissons Ratio (x) = 0.77320 0.01771
# Poissons Ratio (y) = 0.77320 0.01771
# Poissons Ratio (z) = 0.02116 0.02117
#
# Static dielectric constant tensor:
#      x y z
#    x 1.686950 0.000000 0.000000 
#    y 0.000000 1.686950 0.000000 
#    z 0.000000 0.000000 1.768560 
# 
# From -- ./inp_files/1918.got.cif
#   From: 2010.05.17/outbox.cif.g08.bks.cpg/sg175_1_cif.got.tgz:1918.got - 2010.05.20 11:23:22.
