data_PCOD9581587
_publ_section_title
;
Structure prediction by ZEFSAII (Michael W. Deem and Ramdas Pophale) SiO2 
 PCOD9581587
Probable space group: P 6/M
;
_chemical_formula_sum "Si O2"
_cell_formula_units_Z 84
_cell_length_a 17.710633
_cell_length_b 17.710633
_cell_length_c 14.046671
_cell_angle_alpha 90.000000
_cell_angle_beta 90.000000
_cell_angle_gamma 120.000000
_cell_volume 3815.682319
_symmetry_space_group_name_H-M "P 6/M"
_symmetry_group_IT_number 175
_symmetry_cell_setting 'hexagonal'
loop_
_space_group_symop_operation_xyz
x,y,z
x-y,x,z
-y,x-y,z
-x,-y,z
-x+y,-x,z
y,-x+y,z
-x,-y,-z
-x+y,-x,-z
y,-x+y,-z
x,y,-z
x-y,x,-z
-y,x-y,-z
loop_
_atom_site_type_symbol
_atom_site_label
_atom_site_fract_x
_atom_site_fract_y
_atom_site_fract_z
Si Si1 0.503422 0.138911 0.616051
Si Si2 0.201293 0.710709 0.110532
Si Si3 0.480019 0.302879 0.614114
Si Si4 0.851274 0.813820 0.386267
Si Si5 0.997164 0.676813 0.688479
Si Si6 0.383028 0.864315 0.885037
Si Si7 0.991404 0.332939 0.892408
O O1 0.491494 0.124481 0.500000
O O2 0.498482 0.225437 0.641094
O O3 0.599560 0.155797 0.639886
O O4 0.424321 0.057373 0.670139
O O5 0.285158 0.795828 0.149094
O O6 0.172308 0.615985 0.152677
O O7 0.112566 0.713034 0.108442
O O8 0.225980 0.708632 0.000000
O O9 0.476876 0.301140 0.500000
O O10 0.388871 0.290405 0.649999
O O11 0.829387 0.886495 0.349082
O O12 0.860088 0.822655 0.500000
O O13 0.768144 0.721275 0.365584
O O14 0.986683 0.699906 0.797091
O O15 0.397917 0.960726 0.870014
O O16 0.390423 0.863004 0.000000
O O17 0.019445 0.324996 0.000000
#
# Coordination Sequence:
#
# PCOD9581587 Si02
#       7
#    12  12  12  12  12  12  12
#     4  10  21  38  60  87 120 156 192 233 287 352
#     4   9  17  31  52  75  98 129 175 231 286 337
#     4  10  21  38  60  87 120 156 192 233 287 352
#     4  10  21  39  65  97 129 155 179 217 279 353
#     4  12  23  36  59  88 117 153 199 248 289 332
#     4   9  17  31  52  75  98 129 175 231 286 337
#     4  10  23  40  54  73 109 154 196 240 291 338
#
# _framework density 22.014413000000001
#
# number of rings (size 3 to 8) (size 9 to 14) (size 15 to 20)
#    0.000    2.000    0.000    3.714    0.000   12.571 
#    0.000    0.000    0.000    3.429    0.000    0.000 
#    0.000    1.143    0.000    0.000    0.000    0.000 
#
# Total GULP energy -468965.616588 kJ/mol
# GULP energy per Si atom -5582.924007 kJ/mol
# Density = 2.196431 g / cm^3
# Si number density = 22.014413 Si / 1000 Ang^3
#
#
#
# Elastic Constant Matrix: (Units=GPa)
#
#
# Indices 1 2 3 4 5 6 
#
# 1 50.1507 -0.7975 -3.8586 0.0000 0.0000 0.0000
# 2 -0.7975 50.1507 -3.8586 0.0000 0.0000 0.0000
# 3 -3.8586 -3.8586 66.1766 0.0000 0.0000 0.0000
# 4 0.0000 0.0000 0.0000 8.4465 0.0000 0.0000
# 5 0.0000 0.0000 0.0000 0.0000 8.4465 0.0000
# 6 0.0000 0.0000 0.0000 0.0000 0.0000 25.4741
#
#
#
# Elastic Compliance Matrix: (Units=1/GPa)
#
#
# Indices 1 2 3 4 5 6 
#
# 1 0.020038 0.000410 0.001192 0.000000 0.000000 0.000000
# 2 0.000410 0.020038 0.001192 0.000000 0.000000 0.000000
# 3 0.001192 0.001192 0.015250 0.000000 0.000000 0.000000
# 4 0.000000 0.000000 0.000000 0.118393 0.000000 0.000000
# 5 0.000000 0.000000 0.000000 0.000000 0.118393 0.000000
# 6 0.000000 0.000000 0.000000 0.000000 0.000000 0.039256
#
#
# Mechanical properties :
#
#
# Convention : Reuss Voigt Hill
#
# Bulk Modulus (GPa) = 16.41594 16.60541 16.51068
# Shear Modulus (GPa) = 14.44738 20.13957 17.29347
#
# Velocity S-wave (km/s) = 2.56455 3.02791 2.80581
# Velocity P-wave (km/s) = 4.03018 4.44788 4.24417
#
# Compressibility (1/GPa) = 0.06091640
#
# Stress axis : x y z
#
# Youngs Moduli (GPa) = 49.90476 49.90476 65.57321
#
# Poissons Ratio (x) = -0.02048 -0.07818
# Poissons Ratio (y) = -0.02048 -0.07818
# Poissons Ratio (z) = -0.05950 -0.05950
#
# Static dielectric constant tensor:
#      x y z
#    x 1.793700 0.000000 0.000000 
#    y 0.000000 1.793700 0.000000 
#    z 0.000000 0.000000 1.911700 
# 
# From -- ./inp_files/2637.got.cif
#   From: 2010.05.17/outbox.cif.g08.bks.cpg/sg175_2_cif.got.tgz:2637.got - 2010.05.20 11:23:22.
