data_PCOD9581208
_publ_section_title
;
Structure prediction by ZEFSAII (Michael W. Deem and Ramdas Pophale) SiO2 
 PCOD9581208
Probable space group: P -6
;
_chemical_formula_sum "Si O2"
_cell_formula_units_Z 32
_cell_length_a 14.688818
_cell_length_b 14.688818
_cell_length_c 7.521109
_cell_angle_alpha 90.000000
_cell_angle_beta 90.000000
_cell_angle_gamma 120.000000
_cell_volume 1405.355553
_symmetry_space_group_name_H-M "P -6"
_symmetry_group_IT_number 174
_symmetry_cell_setting 'hexagonal'
loop_
_space_group_symop_operation_xyz
x,y,z
-x+y,-x,-z
-y,x-y,z
x,y,-z
-x+y,-x,z
-y,x-y,-z
loop_
_atom_site_type_symbol
_atom_site_label
_atom_site_fract_x
_atom_site_fract_y
_atom_site_fract_z
Si Si1 0.269112 0.733658 0.784575
Si Si2 0.945282 0.673784 0.285299
Si Si3 0.699710 0.838086 0.209263
Si Si4 0.912489 0.459517 0.716304
Si Si5 0.734006 0.657733 0.293517
Si Si6 0.666668 0.333334 0.714842
O O1 0.219524 0.611006 0.732463
O O2 0.214103 0.795292 0.714596
O O3 0.265162 0.734941 0.000000
O O4 0.941552 0.670155 0.500000
O O5 0.964315 0.579719 0.220963
O O6 0.832745 0.652636 0.217135
O O7 0.038612 0.788402 0.236710
O O8 0.752340 0.774302 0.284574
O O9 0.692824 0.818081 0.000000
O O10 0.919435 0.465882 0.500000
O O11 0.952419 0.380643 0.779186
O O12 0.788611 0.400383 0.766724
O O13 0.730327 0.628568 0.500000
O O14 0.666667 0.333334 0.500000
#
# Coordination Sequence:
#
# PCOD9581208 Si02
#       6
#     6   6   6   6   6   2
#     4   7  14  30  50  74 107 145 184 217 263 334
#     4  10  21  38  60  87 118 152 190 236 291 348
#     4  11  23  37  58  83 113 155 198 244 285 334
#     4   9  16  29  56  92 123 146 179 228 282 347
#     4  10  21  38  60  87 118 152 190 236 291 348
#     4   9  12  24  51  87 121 146 175 213 274 347
#
# _framework density 22.770039000000001
#
# number of rings (size 3 to 8) (size 9 to 14) (size 15 to 20)
#    0.375    2.250    1.875    0.562    2.625    0.750 
#    1.125    0.000    0.000    0.000    0.000    0.000 
#    0.000    0.000    0.000    0.000    0.000    0.000 
#
# Total GULP energy -178533.855841 kJ/mol
# GULP energy per Si atom -5579.182995 kJ/mol
# Density = 2.271821 g / cm^3
# Si number density = 22.770039 Si / 1000 Ang^3
#
#
#
# Elastic Constant Matrix: (Units=GPa)
#
#
# Indices 1 2 3 4 5 6 
#
# 1 90.8109 30.1963 -6.9165 0.0000 0.0000 0.0004
# 2 30.1963 90.8112 -6.9160 0.0000 0.0000 0.0001
# 3 -6.9165 -6.9160 55.8157 0.0000 0.0000 0.0001
# 4 0.0000 0.0000 0.0000 -9.7802 -0.0004 0.0000
# 5 0.0000 0.0000 0.0000 -0.0004 -9.7809 0.0000
# 6 0.0004 0.0001 0.0001 0.0000 0.0000 30.3076
#
#
#
# Elastic Compliance Matrix: (Units=1/GPa)
#
#
# Indices 1 2 3 4 5 6 
#
# 1 0.012440 -0.004057 0.001039 0.000000 0.000000 0.000000
# 2 -0.004057 0.012440 0.001039 0.000000 0.000000 0.000000
# 3 0.001039 0.001039 0.018174 0.000000 0.000000 0.000000
# 4 0.000000 0.000000 0.000000 -0.102247 0.000005 0.000000
# 5 0.000000 0.000000 0.000000 0.000005 -0.102240 0.000000
# 6 0.000000 0.000000 0.000000 0.000000 0.000000 0.032995
#
#
# Mechanical properties :
#
#
# Convention : Reuss Voigt Hill
#
# Bulk Modulus (GPa) = 25.57952 30.01839 27.79896
# Shear Modulus (GPa) = -44.86415 16.88757 -13.98829
#
# Velocity S-wave (km/s) = -4.44364 2.72629 -2.48125
# Velocity P-wave (km/s) = 3.88197 4.80855 2.00655
#
# Compressibility (1/GPa) = 0.03909377
#
# Stress axis : x y z
#
# Youngs Moduli (GPa) = 80.38456 80.38495 55.02514
#
# Poissons Ratio (x) = 0.32616 -0.05716
# Poissons Ratio (y) = 0.32616 -0.05715
# Poissons Ratio (z) = -0.08350 -0.08349
#
# Static dielectric constant tensor:
#      x y z
#    x 1.851400 0.000000 0.000000 
#    y 0.000000 1.851400 0.000000 
#    z 0.000000 0.000000 1.867400 
# 
# From -- ./inp_files/316.got.cif
#   From: 2010.05.17/outbox.cif.g08.bks.cpg/sg174_cif.got.tgz:316.got - 2010.05.20 11:22:48.
