data_PCOD9581501
_publ_section_title
;
Structure prediction by ZEFSAII (Michael W. Deem and Ramdas Pophale) SiO2 
 PCOD9581501
Probable space group: P 6/M
;
_chemical_formula_sum "Si O2"
_cell_formula_units_Z 40
_cell_length_a 15.266709
_cell_length_b 15.266709
_cell_length_c 8.020801
_cell_angle_alpha 90.000000
_cell_angle_beta 90.000000
_cell_angle_gamma 120.000000
_cell_volume 1618.971592
_symmetry_space_group_name_H-M "P 6/M"
_symmetry_group_IT_number 175
_symmetry_cell_setting 'hexagonal'
loop_
_space_group_symop_operation_xyz
x,y,z
x-y,x,z
-y,x-y,z
-x,-y,z
-x+y,-x,z
y,-x+y,z
-x,-y,-z
-x+y,-x,-z
y,-x+y,-z
x,y,-z
x-y,x,-z
-y,x-y,-z
loop_
_atom_site_type_symbol
_atom_site_label
_atom_site_fract_x
_atom_site_fract_y
_atom_site_fract_z
Si Si1 0.655890 0.073449 0.192588
Si Si2 0.666667 0.333333 0.803814
Si Si3 0.504288 0.868619 0.310929
Si Si4 0.770331 0.851616 0.203853
O O1 0.584155 0.101992 0.294355
O O2 0.595751 0.950224 0.199727
O O3 0.768363 0.111146 0.255890
O O4 0.657164 0.104002 0.000000
O O5 0.556638 0.247529 0.743240
O O6 0.666667 0.333334 0.000000
O O7 0.538873 0.879689 0.500000
O O8 0.811938 0.966054 0.257668
O O9 0.768853 0.850237 0.000000
#
# Coordination Sequence:
#
# PCOD9581501 Si02
#       4
#    12   4  12  12
#     4  10  20  36  60  88 119 162 209 248 293 352
#     4  12  25  41  64  90 121 155 199 252 301 368
#     4  11  23  40  59  86 122 160 201 247 303 360
#     4   9  18  32  54  85 119 154 198 249 298 347
#
# _framework density 24.707042000000001
#
# number of rings (size 3 to 8) (size 9 to 14) (size 15 to 20)
#    0.000    1.800    0.000    6.600    4.200    1.200 
#    0.000    0.000    0.000    0.000    0.000    0.000 
#    0.000    9.600    0.000    0.000    0.000    0.000 
#
# Total GULP energy -223917.466002 kJ/mol
# GULP energy per Si atom -5597.936650 kJ/mol
# Density = 2.465081 g / cm^3
# Si number density = 24.707042 Si / 1000 Ang^3
#
#
#
# Elastic Constant Matrix: (Units=GPa)
#
#
# Indices 1 2 3 4 5 6 
#
# 1 95.7758 4.3298 -6.4808 0.0000 0.0000 0.0000
# 2 4.3298 95.7749 -6.4811 0.0000 0.0000 -0.0002
# 3 -6.4808 -6.4811 75.7089 0.0000 0.0000 0.0000
# 4 0.0000 0.0000 0.0000 123.6571 -0.0036 0.0000
# 5 0.0000 0.0000 0.0000 -0.0036 123.6481 0.0000
# 6 0.0000 -0.0002 0.0000 0.0000 0.0000 45.7230
#
#
#
# Elastic Compliance Matrix: (Units=1/GPa)
#
#
# Indices 1 2 3 4 5 6 
#
# 1 0.010518 -0.000417 0.000865 0.000000 0.000000 0.000000
# 2 -0.000417 0.010519 0.000865 0.000000 0.000000 0.000000
# 3 0.000865 0.000865 0.013357 0.000000 0.000000 0.000000
# 4 0.000000 0.000000 0.000000 0.008087 0.000000 0.000000
# 5 0.000000 0.000000 0.000000 0.000000 0.008087 0.000000
# 6 0.000000 0.000000 0.000000 0.000000 0.000000 0.021871
#
#
# Mechanical properties :
#
#
# Convention : Reuss Voigt Hill
#
# Bulk Modulus (GPa) = 27.01364 27.77728 27.39546
# Shear Modulus (GPa) = 60.86190 76.99842 68.93016
#
# Velocity S-wave (km/s) = 4.96859 5.58858 5.28768
# Velocity P-wave (km/s) = 6.62368 7.27393 6.95641
#
# Compressibility (1/GPa) = 0.03701833
#
# Stress axis : x y z
#
# Youngs Moduli (GPa) = 95.07141 95.07047 74.86975
#
# Poissons Ratio (x) = 0.03964 -0.06474
# Poissons Ratio (y) = 0.03964 -0.06474
# Poissons Ratio (z) = -0.08221 -0.08221
#
# Static dielectric constant tensor:
#      x y z
#    x 2.010160 0.000000 0.000000 
#    y 0.000000 2.010160 0.000000 
#    z 0.000000 0.000000 1.822190 
# 
# From -- ./inp_files/444.got.cif
#   From: 2010.05.17/outbox.cif.g08.bks.cpg/sg175_1_cif.got.tgz:444.got - 2010.05.20 11:23:22.
