data_PCOD9581575
_publ_section_title
;
Structure prediction by ZEFSAII (Michael W. Deem and Ramdas Pophale) SiO2 
 PCOD9581575
Probable space group: P 6/M
;
_chemical_formula_sum "Si O2"
_cell_formula_units_Z 46
_cell_length_a 18.292779
_cell_length_b 18.292779
_cell_length_c 7.595800
_cell_angle_alpha 90.000000
_cell_angle_beta 90.000000
_cell_angle_gamma 120.000000
_cell_volume 2201.220395
_symmetry_space_group_name_H-M "P 6/M"
_symmetry_group_IT_number 175
_symmetry_cell_setting 'hexagonal'
loop_
_space_group_symop_operation_xyz
x,y,z
x-y,x,z
-y,x-y,z
-x,-y,z
-x+y,-x,z
y,-x+y,z
-x,-y,-z
-x+y,-x,-z
y,-x+y,-z
x,y,-z
x-y,x,-z
-y,x-y,-z
loop_
_atom_site_type_symbol
_atom_site_label
_atom_site_fract_x
_atom_site_fract_y
_atom_site_fract_z
Si Si1 0.153818 0.964546 0.000000
Si Si2 0.333333 0.666667 0.284804
Si Si3 0.759611 0.086083 0.298749
Si Si4 0.024449 0.592408 0.793092
Si Si5 0.266164 0.478457 0.712756
O O1 0.199109 0.951902 0.830053
O O2 0.056639 0.892020 0.000000
O O3 0.333334 0.666668 0.500000
O O4 0.287444 0.718114 0.227466
O O5 0.790151 0.094007 0.500000
O O6 0.658695 0.026877 0.296319
O O7 0.779362 0.177944 0.231569
O O8 0.000000 0.500000 0.725378
O O9 0.123415 0.656265 0.770468
O O10 0.002827 0.584397 0.000000
O O11 0.264256 0.478691 0.500000
#
# Coordination Sequence:
#
# PCOD9581575 Si02
#       5
#     6   4  12  12  12
#     4  12  27  48  73 100 132 166 210 272 340 414
#     4   9  18  36  58  89 130 177 226 269 316 376
#     4  11  24  43  70 100 131 174 222 272 329 390
#     4  11  23  38  60  93 133 175 220 268 321 383
#     4  10  21  37  61  90 125 170 220 267 318 380
#
# _framework density 20.897499
#
# number of rings (size 3 to 8) (size 9 to 14) (size 15 to 20)
#    0.000    1.304    1.304    4.043    1.826    7.304 
#    0.000    1.304    0.000    1.565    0.000    0.000 
#    0.000    0.000    0.000    0.000    0.000    0.000 
#
# Total GULP energy -257424.801685 kJ/mol
# GULP energy per Si atom -5596.191341 kJ/mol
# Density = 2.084994 g / cm^3
# Si number density = 20.897499 Si / 1000 Ang^3
#
#
#
# Elastic Constant Matrix: (Units=GPa)
#
#
# Indices 1 2 3 4 5 6 
#
# 1 130.8989 41.3719 24.9197 0.0000 0.0000 -0.0010
# 2 41.3719 130.8996 24.9197 0.0000 0.0000 -0.0006
# 3 24.9197 24.9197 80.8823 0.0000 0.0000 -0.0001
# 4 0.0000 0.0000 0.0000 40.3523 -0.0001 0.0000
# 5 0.0000 0.0000 0.0000 -0.0001 40.3518 0.0000
# 6 -0.0010 -0.0006 -0.0001 0.0000 0.0000 44.7639
#
#
#
# Elastic Compliance Matrix: (Units=1/GPa)
#
#
# Indices 1 2 3 4 5 6 
#
# 1 0.008771 -0.002398 -0.001963 0.000000 0.000000 0.000000
# 2 -0.002398 0.008771 -0.001963 0.000000 0.000000 0.000000
# 3 -0.001963 -0.001963 0.013574 0.000000 0.000000 0.000000
# 4 0.000000 0.000000 0.000000 0.024782 0.000000 0.000000
# 5 0.000000 0.000000 0.000000 0.000000 0.024782 0.000000
# 6 0.000000 0.000000 0.000000 0.000000 0.000000 0.022339
#
#
# Mechanical properties :
#
#
# Convention : Reuss Voigt Hill
#
# Bulk Modulus (GPa) = 54.15544 58.34482 56.25013
# Shear Modulus (GPa) = 41.04238 41.85822 41.45030
#
# Velocity S-wave (km/s) = 4.43650 4.48037 4.45849
# Velocity P-wave (km/s) = 7.22595 7.39899 7.31298
#
# Compressibility (1/GPa) = 0.01846537
#
# Stress axis : x y z
#
# Youngs Moduli (GPa) = 114.00771 114.00835 73.67278
#
# Poissons Ratio (x) = 0.27344 0.14465
# Poissons Ratio (y) = 0.27344 0.14465
# Poissons Ratio (z) = 0.22385 0.22385
#
# Static dielectric constant tensor:
#      x y z
#    x 1.713020 0.000000 0.000000 
#    y 0.000000 1.713020 0.000000 
#    z 0.000000 0.000000 1.746250 
# 
# From -- ./inp_files/544.got.cif
#   From: 2010.05.17/outbox.cif.g08.bks.cpg/sg175_1_cif.got.tgz:544.got - 2010.05.20 11:23:22.
