data_PCOD9581849
_publ_section_title
;
Structure prediction by ZEFSAII (Michael W. Deem and Ramdas Pophale) SiO2 
 PCOD9581849
Probable space group: P 63/M
;
_chemical_formula_sum "Si O2"
_cell_formula_units_Z 56
_cell_length_a 14.474155
_cell_length_b 14.474155
_cell_length_c 15.046216
_cell_angle_alpha 90.000000
_cell_angle_beta 90.000000
_cell_angle_gamma 120.000000
_cell_volume 2729.885061
_symmetry_space_group_name_H-M "P 63/M"
_symmetry_group_IT_number 176
_symmetry_cell_setting 'hexagonal'
loop_
_space_group_symop_operation_xyz
x,y,z
x-y,x,1/2+z
-y,x-y,z
-x,-y,1/2+z
-x+y,-x,z
y,-x+y,1/2+z
-x,-y,-z
-x+y,-x,1/2-z
y,-x+y,-z
x,y,1/2-z
x-y,x,-z
-y,x-y,1/2-z
loop_
_atom_site_type_symbol
_atom_site_label
_atom_site_fract_x
_atom_site_fract_y
_atom_site_fract_z
Si Si1 0.666668 0.333334 0.642375
Si Si2 0.666668 0.333334 0.142375
Si Si3 0.000000 0.456869 0.402815
Si Si4 0.332844 0.332844 0.147850
Si Si5 0.795958 0.565680 0.858180
Si Si6 0.434321 0.204042 0.358180
O O1 0.666667 0.333334 0.750000
O O2 0.751876 0.301249 0.613724
O O3 0.666667 0.333334 0.250000
O O4 0.751876 0.450626 0.113723
O O5 0.899927 0.338920 0.386321
O O6 0.000000 0.500000 0.500000
O O7 0.100073 0.438993 0.386321
O O8 1.000000 0.554112 0.348637
O O9 0.301593 0.301593 0.250000
O O10 0.240627 0.352206 0.107935
O O11 0.352206 0.240627 0.107935
O O12 0.799549 0.571452 0.750000
O O13 0.428550 0.200452 0.250000
#
# Coordination Sequence:
#
# PCOD9581849 Si02
#       6
#     4   4  12  12  12  12
#     4   9  15  27  55  80 100 138 193 245 286 348
#     4   9  15  27  55  80 100 138 193 245 286 348
#     4  12  24  34  52  85 124 158 188 240 316 377
#     4  10  20  36  58  79 104 149 206 247 290 357
#     4  10  19  35  57  82 111 152 202 249 299 361
#     4  10  19  35  57  82 111 152 202 249 299 361
#
# _framework density 20.513681999999999
#
# number of rings (size 3 to 8) (size 9 to 14) (size 15 to 20)
#    0.000    1.714    4.286    1.929    0.000    1.714 
#    0.000    0.000    0.000    0.857    0.000    3.000 
#    0.000    3.429    0.000    0.000    0.000    0.000 
#
# Total GULP energy -312042.899513 kJ/mol
# GULP energy per Si atom -5572.194634 kJ/mol
# Density = 2.046699 g / cm^3
# Si number density = 20.513682 Si / 1000 Ang^3
#
#
#
# Elastic Constant Matrix: (Units=GPa)
#
#
# Indices 1 2 3 4 5 6 
#
# 1 115.3062 51.4077 4.6186 0.0000 0.0000 -0.0003
# 2 51.4077 115.3063 4.6184 0.0000 0.0000 0.0000
# 3 4.6186 4.6184 46.4409 0.0000 0.0000 0.0000
# 4 0.0000 0.0000 0.0000 13.2440 0.0000 0.0000
# 5 0.0000 0.0000 0.0000 0.0000 13.2440 0.0000
# 6 -0.0003 0.0000 0.0000 0.0000 0.0000 31.9489
#
#
#
# Elastic Compliance Matrix: (Units=1/GPa)
#
#
# Indices 1 2 3 4 5 6 
#
# 1 0.010841 -0.004809 -0.000600 0.000000 0.000000 0.000000
# 2 -0.004809 0.010841 -0.000600 0.000000 0.000000 0.000000
# 3 -0.000600 -0.000600 0.021652 0.000000 0.000000 0.000000
# 4 0.000000 0.000000 0.000000 0.075506 0.000000 0.000000
# 5 0.000000 0.000000 0.000000 0.000000 0.075506 0.000000
# 6 0.000000 0.000000 0.000000 0.000000 0.000000 0.031300
#
#
# Mechanical properties :
#
#
# Convention : Reuss Voigt Hill
#
# Bulk Modulus (GPa) = 31.93275 44.26029 38.09652
# Shear Modulus (GPa) = 20.15307 26.11464 23.13385
#
# Velocity S-wave (km/s) = 3.13776 3.57183 3.36181
# Velocity P-wave (km/s) = 5.35983 6.21558 5.80350
#
# Compressibility (1/GPa) = 0.03131581
#
# Stress axis : x y z
#
# Youngs Moduli (GPa) = 92.24518 92.24529 46.18498
#
# Poissons Ratio (x) = 0.44362 0.02770
# Poissons Ratio (y) = 0.44362 0.02770
# Poissons Ratio (z) = 0.05533 0.05533
#
# Static dielectric constant tensor:
#      x y z
#    x 1.755470 0.000000 0.000000 
#    y 0.000000 1.755470 0.000000 
#    z 0.000000 0.000000 1.829630 
# 
# From -- ./inp_files/3264.got.cif
#   From: 2010.05.17/outbox.cif.g08.bks.cpg/sg176_2_cif.got.tgz:3264.got - 2010.06.03 11:36:45.
