data_PCOD9581389
_publ_section_title
;
Structure prediction by ZEFSAII (Michael W. Deem and Ramdas Pophale) SiO2 
 PCOD9581389
Probable space group: P 6/M
;
_chemical_formula_sum "Si O2"
_cell_formula_units_Z 72
_cell_length_a 23.795565
_cell_length_b 23.795565
_cell_length_c 8.326431
_cell_angle_alpha 90.000000
_cell_angle_beta 90.000000
_cell_angle_gamma 120.000000
_cell_volume 4083.020509
_symmetry_space_group_name_H-M "P 6/M"
_symmetry_group_IT_number 175
_symmetry_cell_setting 'hexagonal'
loop_
_space_group_symop_operation_xyz
x,y,z
x-y,x,z
-y,x-y,z
-x,-y,z
-x+y,-x,z
y,-x+y,z
-x,-y,-z
-x+y,-x,-z
y,-x+y,-z
x,y,-z
x-y,x,-z
-y,x-y,-z
loop_
_atom_site_type_symbol
_atom_site_label
_atom_site_fract_x
_atom_site_fract_y
_atom_site_fract_z
Si Si1 0.387852 0.258915 0.689772
Si Si2 0.994797 0.868219 0.803589
Si Si3 0.255379 0.385163 0.805709
Si Si4 0.741268 0.742861 0.806047
Si Si5 0.077013 0.475765 0.805963
Si Si6 0.473081 0.073616 0.195512
O O1 0.383501 0.255781 0.500000
O O2 0.389887 0.196132 0.751139
O O3 0.324837 0.259971 0.756391
O O4 0.449389 0.327082 0.741549
O O5 0.931582 0.870886 0.751958
O O6 0.993165 0.802928 0.750652
O O7 0.994648 0.867985 0.000000
O O8 0.252679 0.318668 0.751590
O O9 0.325550 0.443528 0.751493
O O10 0.255001 0.384640 0.000000
O O11 0.742135 0.742085 0.000000
O O12 0.093027 0.547425 0.753659
O O13 0.001717 0.427361 0.757838
O O14 0.078707 0.474837 0.000000
O O15 0.473367 0.073754 0.000000
#
# Coordination Sequence:
#
# PCOD9581389 Si02
#       6
#    12  12  12  12  12  12
#     4  12  24  34  48  77 115 149 176 210 264 325
#     4   9  16  26  43  68  94 121 159 212 270 320
#     4  10  19  34  56  80 106 140 181 223 266 310
#     4  10  19  34  54  73  97 135 182 229 272 316
#     4   9  16  33  58  82 105 131 170 219 265 313
#     4   8  15  30  58  86 103 126 169 224 269 304
#
# _framework density 17.634004000000001
#
# number of rings (size 3 to 8) (size 9 to 14) (size 15 to 20)
#    0.000    2.333    1.667    3.667    0.000    4.000 
#    0.000    2.500    0.000    0.667    0.000    2.333 
#    0.000    2.667    0.000    0.000    0.000    0.000 
#
# Total GULP energy -401684.564973 kJ/mol
# GULP energy per Si atom -5578.952291 kJ/mol
# Density = 1.759387 g / cm^3
# Si number density = 17.634004 Si / 1000 Ang^3
#
#
#
# Elastic Constant Matrix: (Units=GPa)
#
#
# Indices 1 2 3 4 5 6 
#
# 1 138.0508 80.9950 13.4498 0.0000 0.0000 0.0000
# 2 80.9950 138.0508 13.4498 0.0000 0.0000 0.0000
# 3 13.4498 13.4498 7.0978 0.0000 0.0000 0.0000
# 4 0.0000 0.0000 0.0000 -7.6410 0.0000 0.0000
# 5 0.0000 0.0000 0.0000 0.0000 -7.6410 0.0000
# 6 0.0000 0.0000 0.0000 0.0000 0.0000 28.5279
#
#
#
# Elastic Compliance Matrix: (Units=1/GPa)
#
#
# Indices 1 2 3 4 5 6 
#
# 1 0.011738 -0.005788 -0.011274 0.000000 0.000000 0.000000
# 2 -0.005788 0.011738 -0.011274 0.000000 0.000000 0.000000
# 3 -0.011274 -0.011274 0.183618 0.000000 0.000000 0.000000
# 4 0.000000 0.000000 0.000000 -0.130872 0.000000 0.000000
# 5 0.000000 0.000000 0.000000 0.000000 -0.130872 0.000000
# 6 0.000000 0.000000 0.000000 0.000000 0.000000 0.035053
#
#
# Mechanical properties :
#
#
# Convention : Reuss Voigt Hill
#
# Bulk Modulus (GPa) = 6.64807 55.44319 31.04563
# Shear Modulus (GPa) = 57.32728 14.33614 35.83171
#
# Velocity S-wave (km/s) = 5.70790 2.85438 4.51262
# Velocity P-wave (km/s) = 6.87156 6.50943 6.69294
#
# Compressibility (1/GPa) = 0.15041971
#
# Stress axis : x y z
#
# Youngs Moduli (GPa) = 85.19155 85.19155 5.44609
#
# Poissons Ratio (x) = 0.49313 0.06140
# Poissons Ratio (y) = 0.49313 0.06140
# Poissons Ratio (z) = 0.96049 0.96049
#
# Static dielectric constant tensor:
#      x y z
#    x 1.595120 0.000000 0.000000 
#    y 0.000000 1.595120 0.000000 
#    z 0.000000 0.000000 1.605060 
# 
# From -- ./inp_files/1152.got.cif
#   From: 2010.05.17/outbox.cif.g08.bks.cpg/sg175_1_cif.got.tgz:1152.got - 2010.05.20 11:23:22.
