data_PCOD9581025
_publ_section_title
;
Structure prediction by ZEFSAII (Michael W. Deem and Ramdas Pophale) SiO2 
 PCOD9581025
Probable space group: P 63
;
_chemical_formula_sum "Si O2"
_cell_formula_units_Z 40
_cell_length_a 16.835851
_cell_length_b 16.835851
_cell_length_c 9.399702
_cell_angle_alpha 90.000000
_cell_angle_beta 90.000000
_cell_angle_gamma 120.000000
_cell_volume 2307.357368
_symmetry_space_group_name_H-M "P 63"
_symmetry_group_IT_number 173
_symmetry_cell_setting 'hexagonal'
loop_
_space_group_symop_operation_xyz
x,y,z
x-y,x,1/2+z
-y,x-y,z
-x,-y,1/2+z
-x+y,-x,z
y,-x+y,1/2+z
loop_
_atom_site_type_symbol
_atom_site_label
_atom_site_fract_x
_atom_site_fract_y
_atom_site_fract_z
Si Si1 0.321041 0.408721 0.601280
Si Si2 0.001659 0.444942 0.865819
Si Si3 0.333334 0.666668 0.137258
Si Si4 0.538700 0.379393 0.140303
Si Si5 0.158384 0.397432 0.438678
Si Si6 0.170859 0.706236 0.194475
Si Si7 0.333334 0.666668 0.802257
Si Si8 0.609462 0.958599 0.925969
O O1 0.386790 0.385685 0.503578
O O2 0.380370 0.520078 0.598312
O O3 0.221516 0.371077 0.533124
O O4 0.313992 0.384658 0.765987
O O5 0.905593 0.376318 0.790580
O O6 0.014447 0.542703 0.916920
O O7 0.075789 0.468499 0.741075
O O8 0.255378 0.689034 0.181622
O O9 0.333334 0.666667 0.968044
O O10 0.578008 0.331539 0.241265
O O11 0.494799 0.316551 0.003486
O O12 0.198577 0.407300 0.280545
O O13 0.048906 0.341375 0.454911
O O14 0.120271 0.698380 0.044654
#
# Coordination Sequence:
#
# PCOD9581025 Si02
#       8
#     6   6   2   6   6   6   2   6
#     4  10  21  34  56  78 101 145 197 223 288 325
#     4  10  19  36  52  73 100 152 182 234 285 331
#     4  12  24  34  47  79 111 136 194 262 273 307
#     4  11  20  33  52  68 109 139 193 241 272 323
#     4  11  22  37  56  75 102 154 184 239 279 324
#     4  11  24  35  55  79 107 147 201 236 286 331
#     4  12  24  31  44  76 102 142 191 250 282 307
#     4  11  20  40  52  78 112 143 190 237 283 344
#
# _framework density 17.335850000000001
#
# number of rings (size 3 to 8) (size 9 to 14) (size 15 to 20)
#    0.000    1.200    4.500    3.600    2.100    1.200 
#    0.000    0.000    0.000    0.000    0.000    0.000 
#    0.000    0.000    0.000    9.000    0.000    1.800 
#
# Total GULP energy -223070.912436 kJ/mol
# GULP energy per Si atom -5576.772811 kJ/mol
# Density = 1.729639 g / cm^3
# Si number density = 17.335850 Si / 1000 Ang^3
#
#
#
# Elastic Constant Matrix: (Units=GPa)
#
#
# Indices 1 2 3 4 5 6 
#
# 1 56.2993 18.7934 28.7380 0.0000 0.0000 0.0004
# 2 18.7934 56.3012 28.7383 0.0000 0.0000 -0.0012
# 3 28.7380 28.7383 118.3137 0.0000 0.0000 0.0006
# 4 0.0000 0.0000 0.0000 32.7832 0.0009 0.0000
# 5 0.0000 0.0000 0.0000 0.0009 32.7910 0.0000
# 6 0.0004 -0.0012 0.0006 0.0000 0.0000 18.7510
#
#
#
# Elastic Compliance Matrix: (Units=1/GPa)
#
#
# Indices 1 2 3 4 5 6 
#
# 1 0.021510 -0.005152 -0.003973 0.000000 0.000000 -0.000001
# 2 -0.005152 0.021509 -0.003973 0.000000 0.000000 0.000002
# 3 -0.003973 -0.003973 0.010382 0.000000 0.000000 0.000000
# 4 0.000000 0.000000 0.000000 0.030503 -0.000001 0.000000
# 5 0.000000 0.000000 0.000000 -0.000001 0.030496 0.000000
# 6 -0.000001 0.000002 0.000000 0.000000 0.000000 0.053331
#
#
# Mechanical properties :
#
#
# Convention : Reuss Voigt Hill
#
# Bulk Modulus (GPa) = 36.75815 42.60596 39.68206
# Shear Modulus (GPa) = 24.63085 27.17467 25.90276
#
# Velocity S-wave (km/s) = 3.77344 3.96351 3.86965
# Velocity P-wave (km/s) = 6.34309 6.75101 6.55022
#
# Compressibility (1/GPa) = 0.02720485
#
# Stress axis : x y z
#
# Youngs Moduli (GPa) = 46.48957 46.49118 96.31769
#
# Poissons Ratio (x) = 0.23952 0.38270
# Poissons Ratio (y) = 0.23951 0.38269
# Poissons Ratio (z) = 0.18472 0.18472
#
# Static dielectric constant tensor:
#      x y z
#    x 1.562030 0.000020 0.000000 
#    y 0.000020 1.561990 0.000000 
#    z 0.000000 0.000000 1.647850 
# 
# From -- ./inp_files/635.got.cif
#   From: 2010.05.17/outbox.cif.g08.bks.cpg/sg173_cif.got.tgz:635.got - 2010.05.20 11:21:53.
