data_PCOD9581355
_publ_section_title
;
Structure prediction by ZEFSAII (Michael W. Deem and Ramdas Pophale) SiO2 
 PCOD9581355
Probable space group: P 6/M
;
_chemical_formula_sum "Si O2"
_cell_formula_units_Z 48
_cell_length_a 10.697103
_cell_length_b 10.697103
_cell_length_c 22.100861
_cell_angle_alpha 90.000000
_cell_angle_beta 90.000000
_cell_angle_gamma 120.000000
_cell_volume 2190.141527
_symmetry_space_group_name_H-M "P 6/M"
_symmetry_group_IT_number 175
_symmetry_cell_setting 'hexagonal'
loop_
_space_group_symop_operation_xyz
x,y,z
x-y,x,z
-y,x-y,z
-x,-y,z
-x+y,-x,z
y,-x+y,z
-x,-y,-z
-x+y,-x,-z
y,-x+y,-z
x,y,-z
x-y,x,-z
-y,x-y,-z
loop_
_atom_site_type_symbol
_atom_site_label
_atom_site_fract_x
_atom_site_fract_y
_atom_site_fract_z
Si Si1 0.746566 0.666783 0.500000
Si Si2 0.668341 0.921914 0.370428
Si Si3 0.670314 0.926516 0.760910
Si Si4 0.831483 0.337219 0.119195
Si Si5 0.936830 0.260649 0.000000
O O1 0.721709 0.804057 0.500000
O O2 0.687833 0.589594 0.435095
O O3 0.722839 0.805922 0.370458
O O4 0.595647 0.906239 0.305139
O O5 0.721847 0.808187 0.764181
O O6 0.568772 0.899367 0.817757
O O7 0.799924 0.468702 0.117369
O O8 0.910317 0.328460 0.059924
O O9 0.093102 0.277762 0.000000
#
# Coordination Sequence:
#
# PCOD9581355 Si02
#       5
#     6  12  12  12   6
#     4   8  11  16  28  52  90 130 168 202 245 314
#     4   8  13  20  34  60  94 133 168 205 257 316
#     4  10  19  32  52  78 109 140 174 220 274 326
#     4  10  24  42  57  83 104 144 186 221 249 288
#     4  12  25  42  66  92 117 138 162 204 260 318
#
# _framework density 21.916392999999999
#
# number of rings (size 3 to 8) (size 9 to 14) (size 15 to 20)
#    0.500    2.000    0.000    3.000    0.000    9.000 
#    0.000    2.500    0.000    0.000    0.000    1.750 
#    0.000   10.000    0.000    0.000    0.000    0.000 
#
# Total GULP energy -267762.037405 kJ/mol
# GULP energy per Si atom -5578.375779 kJ/mol
# Density = 2.186651 g / cm^3
# Si number density = 21.916393 Si / 1000 Ang^3
#
#
#
# Elastic Constant Matrix: (Units=GPa)
#
#
# Indices 1 2 3 4 5 6 
#
# 1 70.8266 13.0751 50.1003 0.0000 0.0000 0.0000
# 2 13.0751 70.8266 50.1003 0.0000 0.0000 0.0000
# 3 50.1003 50.1003 256.2488 0.0000 0.0000 0.0000
# 4 0.0000 0.0000 0.0000 -52.7850 0.0000 0.0000
# 5 0.0000 0.0000 0.0000 0.0000 -52.7850 0.0000
# 6 0.0000 0.0000 0.0000 0.0000 0.0000 28.8758
#
#
#
# Elastic Compliance Matrix: (Units=1/GPa)
#
#
# Indices 1 2 3 4 5 6 
#
# 1 0.016432 -0.000883 -0.003040 0.000000 0.000000 0.000000
# 2 -0.000883 0.016432 -0.003040 0.000000 0.000000 0.000000
# 3 -0.003040 -0.003040 0.005091 0.000000 0.000000 0.000000
# 4 0.000000 0.000000 0.000000 -0.018945 0.000000 0.000000
# 5 0.000000 0.000000 0.000000 0.000000 -0.018945 0.000000
# 6 0.000000 0.000000 0.000000 0.000000 0.000000 0.034631
#
#
# Mechanical properties :
#
#
# Convention : Reuss Voigt Hill
#
# Bulk Modulus (GPa) = 41.61544 69.38370 55.49957
# Shear Modulus (GPa) = 88.28573 3.63625 45.96099
#
# Velocity S-wave (km/s) = 6.35377 1.28948 4.58438
# Velocity P-wave (km/s) = 8.53561 5.82616 7.30756
#
# Compressibility (1/GPa) = 0.02402954
#
# Stress axis : x y z
#
# Youngs Moduli (GPa) = 60.85506 60.85506 196.41607
#
# Poissons Ratio (x) = 0.05374 0.59713
# Poissons Ratio (y) = 0.05374 0.59713
# Poissons Ratio (z) = 0.18501 0.18501
#
# Static dielectric constant tensor:
#      x y z
#    x 1.775160 0.000000 0.000000 
#    y 0.000000 1.775160 0.000000 
#    z 0.000000 0.000000 1.853640 
# 
# From -- ./inp_files/3031.got.cif
#   From: 2010.05.17/outbox.cif.g08.bks.cpg/sg175_2_cif.got.tgz:3031.got - 2010.05.20 11:23:22.
