data_PCOD9581489
_publ_section_title
;
Structure prediction by ZEFSAII (Michael W. Deem and Ramdas Pophale) SiO2 
 PCOD9581489
Probable space group: P 6/M
;
_chemical_formula_sum "Si O2"
_cell_formula_units_Z 36
_cell_length_a 14.213446
_cell_length_b 14.213446
_cell_length_c 8.488408
_cell_angle_alpha 90.000000
_cell_angle_beta 90.000000
_cell_angle_gamma 120.000000
_cell_volume 1485.099820
_symmetry_space_group_name_H-M "P 6/M"
_symmetry_group_IT_number 175
_symmetry_cell_setting 'hexagonal'
loop_
_space_group_symop_operation_xyz
x,y,z
x-y,x,z
-y,x-y,z
-x,-y,z
-x+y,-x,z
y,-x+y,z
-x,-y,-z
-x+y,-x,-z
y,-x+y,-z
x,y,-z
x-y,x,-z
-y,x-y,-z
loop_
_atom_site_type_symbol
_atom_site_label
_atom_site_fract_x
_atom_site_fract_y
_atom_site_fract_z
Si Si1 0.632548 0.740779 0.171219
Si Si2 0.120454 0.635115 0.171080
Si Si3 0.921513 0.751499 0.500000
Si Si4 0.412687 0.807250 0.500000
O O1 0.544995 0.783202 0.170999
O O2 0.620960 0.620760 0.171464
O O3 0.688740 0.786204 0.337295
O O4 0.689490 0.786201 0.000000
O O5 0.132239 0.584916 0.334680
O O6 0.132852 0.591081 0.000000
O O7 0.843351 0.799381 0.500000
O O8 0.283136 0.733547 0.500000
#
# Coordination Sequence:
#
# PCOD9581489 Si02
#       4
#    12  12   6   6
#     4  10  20  35  59  85 117 155 194 240 284 332
#     4  10  20  38  62  88 117 155 197 237 284 340
#     4  12  21  30  46  74 119 164 204 242 273 316
#     4  10  24  42  62  85 112 151 186 236 310 364
#
# _framework density 24.240794999999999
#
# number of rings (size 3 to 8) (size 9 to 14) (size 15 to 20)
#    0.333    1.333    3.333    2.167    0.000    1.333 
#    0.000    3.333    0.000    8.000    0.000    0.000 
#    0.000    0.000    0.000    0.000    0.000    0.000 
#
# Total GULP energy -200796.207532 kJ/mol
# GULP energy per Si atom -5577.672431 kJ/mol
# Density = 2.418562 g / cm^3
# Si number density = 24.240795 Si / 1000 Ang^3
#
#
#
# Elastic Constant Matrix: (Units=GPa)
#
#
# Indices 1 2 3 4 5 6 
#
# 1 100.3504 9.1144 52.6931 0.0000 0.0000 0.0000
# 2 9.1144 100.3504 52.6931 0.0000 0.0000 0.0000
# 3 52.6931 52.6931 306.2327 0.0000 0.0000 0.0000
# 4 0.0000 0.0000 0.0000 78.7357 0.0000 0.0000
# 5 0.0000 0.0000 0.0000 0.0000 78.7357 0.0000
# 6 0.0000 0.0000 0.0000 0.0000 0.0000 45.6180
#
#
#
# Elastic Compliance Matrix: (Units=1/GPa)
#
#
# Indices 1 2 3 4 5 6 
#
# 1 0.010955 -0.000006 -0.001884 0.000000 0.000000 0.000000
# 2 -0.000006 0.010955 -0.001884 0.000000 0.000000 0.000000
# 3 -0.001884 -0.001884 0.003914 0.000000 0.000000 0.000000
# 4 0.000000 0.000000 0.000000 0.012701 0.000000 0.000000
# 5 0.000000 0.000000 0.000000 0.000000 0.012701 0.000000
# 6 0.000000 0.000000 0.000000 0.000000 0.000000 0.021921
#
#
# Mechanical properties :
#
#
# Convention : Reuss Voigt Hill
#
# Bulk Modulus (GPa) = 54.71612 81.77053 68.24333
# Shear Modulus (GPa) = 57.61317 66.78007 62.19662
#
# Velocity S-wave (km/s) = 4.88043 5.25437 5.07085
# Velocity P-wave (km/s) = 7.37422 8.40340 7.90557
#
# Compressibility (1/GPa) = 0.01827615
#
# Stress axis : x y z
#
# Youngs Moduli (GPa) = 91.28355 91.28355 255.50290
#
# Poissons Ratio (x) = 0.00052 0.48137
# Poissons Ratio (y) = 0.00052 0.48137
# Poissons Ratio (z) = 0.17198 0.17198
#
# Static dielectric constant tensor:
#      x y z
#    x 1.936640 0.000000 0.000000 
#    y 0.000000 1.936640 0.000000 
#    z 0.000000 0.000000 1.791730 
# 
# From -- ./inp_files/386.got.cif
#   From: 2010.05.17/outbox.cif.g08.bks.cpg/sg175_1_cif.got.tgz:386.got - 2010.05.20 11:23:22.
