data_PCOD9581284
_publ_section_title
;
Structure prediction by ZEFSAII (Michael W. Deem and Ramdas Pophale) SiO2 
 PCOD9581284
Probable space group: P 6/M
;
_chemical_formula_sum "Si O2"
_cell_formula_units_Z 72
_cell_length_a 23.134274
_cell_length_b 23.134274
_cell_length_c 7.505676
_cell_angle_alpha 90.000000
_cell_angle_beta 90.000000
_cell_angle_gamma 120.000000
_cell_volume 3478.821896
_symmetry_space_group_name_H-M "P 6/M"
_symmetry_group_IT_number 175
_symmetry_cell_setting 'hexagonal'
loop_
_space_group_symop_operation_xyz
x,y,z
x-y,x,z
-y,x-y,z
-x,-y,z
-x+y,-x,z
y,-x+y,z
-x,-y,-z
-x+y,-x,-z
y,-x+y,-z
x,y,-z
x-y,x,-z
-y,x-y,-z
loop_
_atom_site_type_symbol
_atom_site_label
_atom_site_fract_x
_atom_site_fract_y
_atom_site_fract_z
Si Si1 0.440274 0.226655 0.283748
Si Si2 0.639570 0.480497 0.702318
Si Si3 0.396475 0.021225 0.792389
Si Si4 0.004840 0.256948 0.218697
Si Si5 0.495924 0.377970 0.716099
Si Si6 0.147296 0.285153 0.790874
O O1 0.440250 0.224984 0.500000
O O2 0.492945 0.205408 0.217421
O O3 0.461599 0.301157 0.226711
O O4 0.365289 0.174553 0.226363
O O5 0.642568 0.459266 0.500000
O O6 0.631263 0.545642 0.698177
O O7 0.571551 0.421880 0.782984
O O8 0.322171 0.000513 0.727476
O O9 0.406373 0.957891 0.773664
O O10 0.400113 0.039213 0.000000
O O11 0.073781 0.262784 0.281938
O O12 0.937246 0.191439 0.279564
O O13 0.006094 0.257678 0.000000
O O14 0.497620 0.379824 0.500000
O O15 0.138133 0.268738 0.000000
#
# Coordination Sequence:
#
# PCOD9581284 Si02
#       6
#    12  12  12  12  12  12
#     4  10  20  34  52  74  97 131 173 213 253 298
#     4  10  21  36  51  71 102 136 168 209 260 305
#     4  11  20  32  53  80 101 130 169 207 254 307
#     4   9  18  30  52  78 104 133 163 202 251 301
#     4  10  21  36  51  71 102 136 168 209 260 305
#     4  10  18  34  54  77 104 134 168 206 253 303
#
# _framework density 20.696660000000001
#
# number of rings (size 3 to 8) (size 9 to 14) (size 15 to 20)
#    0.000    2.000    3.333    1.000    0.000    2.667 
#    1.000    0.833    0.000    0.333    0.000    2.333 
#    0.000    0.000    0.000    1.500    0.000    1.667 
#
# Total GULP energy -402142.960784 kJ/mol
# GULP energy per Si atom -5585.318900 kJ/mol
# Density = 2.064955 g / cm^3
# Si number density = 20.696660 Si / 1000 Ang^3
#
#
#
# Elastic Constant Matrix: (Units=GPa)
#
#
# Indices 1 2 3 4 5 6 
#
# 1 77.9507 3.7697 -7.2681 0.0000 0.0000 0.0000
# 2 3.7697 77.9507 -7.2681 0.0000 0.0000 0.0000
# 3 -7.2681 -7.2681 58.1376 0.0000 0.0000 0.0000
# 4 0.0000 0.0000 0.0000 5.3519 0.0000 0.0000
# 5 0.0000 0.0000 0.0000 0.0000 5.3519 0.0000
# 6 0.0000 0.0000 0.0000 0.0000 0.0000 37.0905
#
#
#
# Elastic Compliance Matrix: (Units=1/GPa)
#
#
# Indices 1 2 3 4 5 6 
#
# 1 0.012998 -0.000483 0.001565 0.000000 0.000000 0.000000
# 2 -0.000483 0.012998 0.001565 0.000000 0.000000 0.000000
# 3 0.001565 0.001565 0.017592 0.000000 0.000000 0.000000
# 4 0.000000 0.000000 0.000000 0.186849 0.000000 0.000000
# 5 0.000000 0.000000 0.000000 0.000000 0.186849 0.000000
# 6 0.000000 0.000000 0.000000 0.000000 0.000000 0.026961
#
#
# Mechanical properties :
#
#
# Convention : Reuss Voigt Hill
#
# Bulk Modulus (GPa) = 20.45808 21.38954 20.92381
# Shear Modulus (GPa) = 10.98306 24.54590 17.76448
#
# Velocity S-wave (km/s) = 2.30612 3.44755 2.93290
# Velocity P-wave (km/s) = 4.12276 5.11905 4.64768
#
# Compressibility (1/GPa) = 0.04888045
#
# Stress axis : x y z
#
# Youngs Moduli (GPa) = 76.93578 76.93578 56.84480
#
# Poissons Ratio (x) = 0.03714 -0.08894
# Poissons Ratio (y) = 0.03714 -0.08894
# Poissons Ratio (z) = -0.12037 -0.12037
#
# Static dielectric constant tensor:
#      x y z
#    x 1.721100 0.000000 0.000000 
#    y 0.000000 1.721100 0.000000 
#    z 0.000000 0.000000 1.853770 
# 
# From -- ./inp_files/1145.got.cif
#   From: 2010.05.17/outbox.cif.g08.bks.cpg/sg175_1_cif.got.tgz:1145.got - 2010.05.20 11:23:22.
