data_PCOD9581000
_publ_section_title
;
Structure prediction by ZEFSAII (Michael W. Deem and Ramdas Pophale) SiO2 
 PCOD9581000
Probable space group: P 64
;
_chemical_formula_sum "Si O2"
_cell_formula_units_Z 45
_cell_length_a 12.668195
_cell_length_b 12.668195
_cell_length_c 16.437270
_cell_angle_alpha 90.000000
_cell_angle_beta 90.000000
_cell_angle_gamma 120.000000
_cell_volume 2284.492835
_symmetry_space_group_name_H-M "P 64"
_symmetry_group_IT_number 172
_symmetry_cell_setting 'hexagonal'
loop_
_space_group_symop_operation_xyz
x,y,z
x-y,x,2/3+z
-y,x-y,1/3+z
-x,-y,z
-x+y,-x,2/3+z
y,-x+y,1/3+z
loop_
_atom_site_type_symbol
_atom_site_label
_atom_site_fract_x
_atom_site_fract_y
_atom_site_fract_z
Si Si1 0.449156 0.354915 0.953230
Si Si2 0.250750 0.076541 0.257161
Si Si3 0.905757 0.354914 0.073456
Si Si4 0.680003 0.360005 0.513343
Si Si5 0.000000 0.000000 0.513343
Si Si6 0.129251 0.708076 0.885547
Si Si7 0.291927 0.870752 0.474472
Si Si8 0.250749 0.174210 0.436192
O O1 0.500000 0.500000 0.950982
O O2 0.315026 0.288876 0.914460
O O3 0.549290 0.327845 0.912634
O O4 0.420939 0.308719 0.045460
O O5 0.318822 0.173442 0.186000
O O6 0.284119 0.142060 0.346677
O O7 0.110476 0.024777 0.238857
O O8 0.778553 0.327844 0.114051
O O9 0.000000 0.500000 0.075706
O O10 0.973847 0.288873 0.112226
O O11 0.887780 0.308720 0.981225
O O12 0.542752 0.260033 0.538651
O O13 0.717275 0.260028 0.488037
O O14 0.110475 0.085698 0.454496
O O15 0.145384 0.826561 0.840687
O O16 0.000003 0.604706 0.846675
#
# Coordination Sequence:
#
# PCOD9581000 Si02
#       8
#     6   6   6   6   3   6   6   6
#     4  12  25  45  71 102 146 186 235 293 358 433
#     4  12  24  45  71 105 140 187 239 295 358 430
#     4  12  25  45  71 102 146 186 235 293 358 433
#     4  12  26  44  70 104 142 188 230 298 364 412
#     4  12  24  44  72  98 144 180 236 302 356 420
#     4  12  24  43  72 105 134 182 244 293 345 428
#     4  12  24  43  72 105 134 182 244 293 345 428
#     4  12  24  45  71 105 140 187 239 295 358 430
#
# _framework density 19.698028000000001
#
# number of rings (size 3 to 8) (size 9 to 14) (size 15 to 20)
#    0.000    0.000    6.667    4.000    0.000    0.000 
#    0.000    4.000    0.000    0.000    0.000    0.000 
#    0.000    0.000    0.000    0.000    0.000    0.000 
#
# Total GULP energy -250936.538153 kJ/mol
# GULP energy per Si atom -5576.367515 kJ/mol
# Density = 1.965319 g / cm^3
# Si number density = 19.698028 Si / 1000 Ang^3
#
#
#
# Elastic Constant Matrix: (Units=GPa)
#
#
# Indices 1 2 3 4 5 6 
#
# 1 167.6251 73.9081 60.1397 0.0000 0.0000 0.0000
# 2 73.9081 167.6251 60.1397 0.0000 0.0000 0.0000
# 3 60.1397 60.1397 115.3970 0.0000 0.0000 0.0000
# 4 0.0000 0.0000 0.0000 16.1662 0.0000 0.0000
# 5 0.0000 0.0000 0.0000 0.0000 16.1662 0.0000
# 6 0.0000 0.0000 0.0000 0.0000 0.0000 46.8585
#
#
#
# Elastic Compliance Matrix: (Units=1/GPa)
#
#
# Indices 1 2 3 4 5 6 
#
# 1 0.008131 -0.002540 -0.002914 0.000000 0.000000 0.000000
# 2 -0.002540 0.008131 -0.002914 0.000000 0.000000 0.000000
# 3 -0.002914 -0.002914 0.011703 0.000000 0.000000 0.000000
# 4 0.000000 0.000000 0.000000 0.061857 0.000000 0.000000
# 5 0.000000 0.000000 0.000000 0.000000 0.061857 0.000000
# 6 0.000000 0.000000 0.000000 0.000000 0.000000 0.021341
#
#
# Mechanical properties :
#
#
# Convention : Reuss Voigt Hill
#
# Bulk Modulus (GPa) = 89.04852 93.22467 91.13660
# Shear Modulus (GPa) = 25.83999 32.93550 29.38774
#
# Velocity S-wave (km/s) = 3.62582 4.09347 3.86672
# Velocity P-wave (km/s) = 7.92677 8.35294 8.14264
#
# Compressibility (1/GPa) = 0.01122983
#
# Stress axis : x y z
#
# Youngs Moduli (GPa) = 122.98816 122.98816 85.44845
#
# Poissons Ratio (x) = 0.31234 0.24899
# Poissons Ratio (y) = 0.31234 0.24899
# Poissons Ratio (z) = 0.35838 0.35838
#
# Static dielectric constant tensor:
#      x y z
#    x 1.706560 0.000000 0.000000 
#    y 0.000000 1.706560 0.000000 
#    z 0.000000 0.000000 1.708500 
# 
# From -- ./inp_files/1725.got.cif
#   From: 2010.05.17/outbox.cif.g08.bks.cpg/sg172_1_cif.got.tgz:1725.got - 2010.05.20 11:19:57.
