data_PCOD9581107
_publ_section_title
;
Structure prediction by ZEFSAII (Michael W. Deem and Ramdas Pophale) SiO2 
 PCOD9581107
Probable space group: P 63
;
_chemical_formula_sum "Si O2"
_cell_formula_units_Z 48
_cell_length_a 17.450566
_cell_length_b 17.450566
_cell_length_c 8.645886
_cell_angle_alpha 90.000000
_cell_angle_beta 90.000000
_cell_angle_gamma 120.000000
_cell_volume 2280.127706
_symmetry_space_group_name_H-M "P 63"
_symmetry_group_IT_number 173
_symmetry_cell_setting 'hexagonal'
loop_
_space_group_symop_operation_xyz
x,y,z
x-y,x,1/2+z
-y,x-y,z
-x,-y,1/2+z
-x+y,-x,z
y,-x+y,1/2+z
loop_
_atom_site_type_symbol
_atom_site_label
_atom_site_fract_x
_atom_site_fract_y
_atom_site_fract_z
Si Si1 0.845875 0.583181 0.135440
Si Si2 0.421692 0.099139 0.832195
Si Si3 0.755875 0.010633 0.931892
Si Si4 0.554363 0.439630 0.014615
Si Si5 0.506954 0.078611 0.534878
Si Si6 0.433523 0.107078 0.269628
Si Si7 0.286974 0.144879 0.674231
Si Si8 0.084327 0.405028 0.980599
O O1 0.834113 0.497446 0.046440
O O2 0.755627 0.581609 0.167031
O O3 0.878644 0.579602 0.307571
O O4 0.916357 0.670457 0.044472
O O5 0.446163 0.061643 0.682086
O O6 0.357740 0.133370 0.777116
O O7 0.368697 0.020917 0.954321
O O8 0.519057 0.158527 0.904485
O O9 0.831944 0.063221 0.799949
O O10 0.663453 0.963674 0.834944
O O11 0.757381 0.937143 0.049265
O O12 0.482007 0.464464 0.951298
O O13 0.588089 0.497224 0.171612
O O14 0.490105 0.143960 0.428010
O O15 0.608913 0.107236 0.557180
O O16 0.346276 0.232256 0.574059
#
# Coordination Sequence:
#
# PCOD9581107 Si02
#       8
#     6   6   6   6   6   6   6   6
#     4  12  22  40  64  98 142 174 237 285 344 413
#     4  11  21  40  62  99 136 173 231 277 340 418
#     4  12  25  43  67 101 141 178 232 305 360 419
#     4  11  21  36  62  92 131 184 221 279 332 410
#     4  11  19  37  67  93 129 180 227 270 338 405
#     4  12  22  41  63  99 135 178 228 286 341 413
#     4  12  25  43  68 102 144 182 236 303 362 427
#     4  11  21  38  67  98 136 177 230 285 337 417
#
# _framework density 21.051452999999999
#
# number of rings (size 3 to 8) (size 9 to 14) (size 15 to 20)
#    0.000    0.500    7.500    3.000    1.750    0.000 
#    0.750    0.000    0.000    0.500    0.000    0.000 
#   70.000    0.000    0.000    0.000    0.000    0.000 
#
# Total GULP energy -267551.695235 kJ/mol
# GULP energy per Si atom -5573.993651 kJ/mol
# Density = 2.100354 g / cm^3
# Si number density = 21.051453 Si / 1000 Ang^3
#
#
#
# Elastic Constant Matrix: (Units=GPa)
#
#
# Indices 1 2 3 4 5 6 
#
# 1 93.1526 43.6477 41.1017 0.0000 0.0000 0.0000
# 2 43.6477 93.1526 41.1017 0.0000 0.0000 0.0000
# 3 41.1017 41.1017 58.1886 0.0000 0.0000 0.0000
# 4 0.0000 0.0000 0.0000 44.7232 0.0000 0.0000
# 5 0.0000 0.0000 0.0000 0.0000 44.7232 0.0000
# 6 0.0000 0.0000 0.0000 0.0000 0.0000 24.7525
#
#
#
# Elastic Compliance Matrix: (Units=1/GPa)
#
#
# Indices 1 2 3 4 5 6 
#
# 1 0.016450 -0.003750 -0.008971 0.000000 0.000000 0.000000
# 2 -0.003750 0.016450 -0.008971 0.000000 0.000000 0.000000
# 3 -0.008971 -0.008971 0.029859 0.000000 0.000000 0.000000
# 4 0.000000 0.000000 0.000000 0.022360 0.000000 0.000000
# 5 0.000000 0.000000 0.000000 0.000000 0.022360 0.000000
# 6 0.000000 0.000000 0.000000 0.000000 0.000000 0.040400
#
#
# Mechanical properties :
#
#
# Convention : Reuss Voigt Hill
#
# Bulk Modulus (GPa) = 51.61070 55.13287 53.37178
# Shear Modulus (GPa) = 25.28803 30.74928 28.01865
#
# Velocity S-wave (km/s) = 3.46966 3.82602 3.65219
# Velocity P-wave (km/s) = 6.37347 6.76493 6.57212
#
# Compressibility (1/GPa) = 0.01937583
#
# Stress axis : x y z
#
# Youngs Moduli (GPa) = 60.78894 60.78894 33.49064
#
# Poissons Ratio (x) = 0.22794 0.30045
# Poissons Ratio (y) = 0.22794 0.30045
# Poissons Ratio (z) = 0.54535 0.54535
#
# Static dielectric constant tensor:
#      x y z
#    x 1.798690 0.000000 0.000000 
#    y 0.000000 1.798690 0.000000 
#    z 0.000000 0.000000 1.896350 
# 
# From -- ./inp_files/661.got.cif
#   From: 2010.05.17/outbox.cif.g08.bks.cpg/sg173_cif.got.tgz:661.got - 2010.05.20 11:21:53.
