data_PCOD9581743
_publ_section_title
;
Structure prediction by ZEFSAII (Michael W. Deem and Ramdas Pophale) SiO2 
 PCOD9581743
Probable space group: P 63/M
;
_chemical_formula_sum "Si O2"
_cell_formula_units_Z 54
_cell_length_a 17.330584
_cell_length_b 17.330584
_cell_length_c 10.403952
_cell_angle_alpha 90.000000
_cell_angle_beta 90.000000
_cell_angle_gamma 120.000000
_cell_volume 2706.171817
_symmetry_space_group_name_H-M "P 63/M"
_symmetry_group_IT_number 176
_symmetry_cell_setting 'hexagonal'
loop_
_space_group_symop_operation_xyz
x,y,z
x-y,x,1/2+z
-y,x-y,z
-x,-y,1/2+z
-x+y,-x,z
y,-x+y,1/2+z
-x,-y,-z
-x+y,-x,1/2-z
y,-x+y,-z
x,y,1/2-z
x-y,x,-z
-y,x-y,1/2-z
loop_
_atom_site_type_symbol
_atom_site_label
_atom_site_fract_x
_atom_site_fract_y
_atom_site_fract_z
Si Si1 0.452913 0.556936 0.250000
Si Si2 0.073131 0.348674 0.250000
Si Si3 0.698550 0.813959 0.750000
Si Si4 0.078160 0.733678 0.952131
Si Si5 0.530337 0.105349 0.477669
Si Si6 0.905466 0.526740 0.250000
Si Si7 0.773622 0.701072 0.750000
O O1 0.548593 0.646566 0.250000
O O2 0.406272 0.554792 0.382555
O O3 0.459590 0.465701 0.250000
O O4 0.147017 0.320496 0.250000
O O5 0.015485 0.307709 0.378781
O O6 0.688018 0.861671 0.876976
O O7 0.617382 0.712725 0.750000
O O8 0.783626 0.799455 0.750000
O O9 0.111623 0.663834 0.922696
O O10 0.068543 0.733686 0.106226
O O11 0.609605 0.139289 0.377194
O O12 0.500000 0.000000 0.500000
#
# Coordination Sequence:
#
# PCOD9581743 Si02
#       7
#     6   6   6  12  12   6   6
#     4  10  19  31  60  94 121 150 210 272 326 383
#     4  11  22  39  60  93 123 169 213 283 340 385
#     4  11  25  38  58  95 135 168 221 281 330 409
#     4  11  22  41  60  93 130 168 216 279 340 398
#     4  10  17  32  60  87 118 152 208 256 329 385
#     4  10  18  33  57  85 116 157 204 250 316 382
#     4  12  24  35  61  89 129 166 224 278 330 387
#
# _framework density 19.954386
#
# number of rings (size 3 to 8) (size 9 to 14) (size 15 to 20)
#    0.000    1.333    4.444    5.333    3.111    0.000 
#    0.000    0.000    0.000    7.111    0.000   12.444 
#    1.111    0.000    0.000    0.000    0.000    0.000 
#
# Total GULP energy -300779.820790 kJ/mol
# GULP energy per Si atom -5569.996681 kJ/mol
# Density = 1.990897 g / cm^3
# Si number density = 19.954386 Si / 1000 Ang^3
#
#
#
# Elastic Constant Matrix: (Units=GPa)
#
#
# Indices 1 2 3 4 5 6 
#
# 1 47.1533 4.7424 -5.4288 0.0000 0.0000 0.0000
# 2 4.7424 47.1533 -5.4288 0.0000 0.0000 0.0000
# 3 -5.4288 -5.4288 135.9723 0.0000 0.0000 0.0000
# 4 0.0000 0.0000 0.0000 19.7782 0.0000 0.0000
# 5 0.0000 0.0000 0.0000 0.0000 19.7782 0.0000
# 6 0.0000 0.0000 0.0000 0.0000 0.0000 21.2054
#
#
#
# Elastic Compliance Matrix: (Units=1/GPa)
#
#
# Indices 1 2 3 4 5 6 
#
# 1 0.021505 -0.002074 0.000776 0.000000 0.000000 0.000000
# 2 -0.002074 0.021505 0.000776 0.000000 0.000000 0.000000
# 3 0.000776 0.000776 0.007416 0.000000 0.000000 0.000000
# 4 0.000000 0.000000 0.000000 0.050561 0.000000 0.000000
# 5 0.000000 0.000000 0.000000 0.000000 0.050561 0.000000
# 6 0.000000 0.000000 0.000000 0.000000 0.000000 0.047158
#
#
# Mechanical properties :
#
#
# Convention : Reuss Voigt Hill
#
# Bulk Modulus (GPa) = 20.24985 24.22764 22.23874
# Shear Modulus (GPa) = 23.12558 27.91199 25.51879
#
# Velocity S-wave (km/s) = 3.40799 3.74410 3.57999
# Velocity P-wave (km/s) = 5.06517 5.55508 5.31577
#
# Compressibility (1/GPa) = 0.04938309
#
# Stress axis : x y z
#
# Youngs Moduli (GPa) = 46.50021 46.50021 134.83653
#
# Poissons Ratio (x) = 0.09642 -0.10461
# Poissons Ratio (y) = 0.09642 -0.10461
# Poissons Ratio (z) = -0.03608 -0.03608
#
# Static dielectric constant tensor:
#      x y z
#    x 1.739640 0.000000 0.000000 
#    y 0.000000 1.739640 0.000000 
#    z 0.000000 0.000000 1.787480 
# 
# From -- ./inp_files/1852.got.cif
#   From: 2010.05.17/outbox.cif.g08.bks.cpg/sg176_1_cif.got.tgz:1852.got - 2010.06.03 11:36:45.
