data_PCOD9581905
_publ_section_title
;
Structure prediction by ZEFSAII (Michael W. Deem and Ramdas Pophale) SiO2 
 PCOD9581905
Probable space group: P 63/M
;
_chemical_formula_sum "Si O2"
_cell_formula_units_Z 72
_cell_length_a 12.608139
_cell_length_b 12.608139
_cell_length_c 31.519452
_cell_angle_alpha 90.000000
_cell_angle_beta 90.000000
_cell_angle_gamma 120.000000
_cell_volume 4339.215969
_symmetry_space_group_name_H-M "P 63/M"
_symmetry_group_IT_number 176
_symmetry_cell_setting 'hexagonal'
loop_
_space_group_symop_operation_xyz
x,y,z
x-y,x,1/2+z
-y,x-y,z
-x,-y,1/2+z
-x+y,-x,z
y,-x+y,1/2+z
-x,-y,-z
-x+y,-x,1/2-z
y,-x+y,-z
x,y,1/2-z
x-y,x,-z
-y,x-y,1/2-z
loop_
_atom_site_type_symbol
_atom_site_label
_atom_site_fract_x
_atom_site_fract_y
_atom_site_fract_z
Si Si1 0.918461 0.332907 0.750000
Si Si2 0.999699 0.252080 0.666656
Si Si3 0.000301 0.252381 0.166656
Si Si4 0.918341 0.585470 0.583601
Si Si5 0.000000 0.747630 1.000000
Si Si6 0.667129 0.585470 0.916399
Si Si7 0.585555 0.667093 0.250000
O O1 0.924695 0.462348 0.750000
O O2 0.777520 0.222480 0.750000
O O3 0.980312 0.314040 0.708263
O O4 0.128630 0.257261 0.667161
O O5 0.888561 0.111439 0.666395
O O6 0.982776 0.314742 0.624781
O O7 0.017224 0.331966 0.124781
O O8 0.019688 0.333728 0.208263
O O9 0.925198 0.462599 0.583792
O O10 0.777487 0.554974 0.584789
O O11 0.977662 0.664563 0.541330
O O12 0.022338 0.686900 0.041330
O O13 0.880306 0.760612 0.005761
#
# Coordination Sequence:
#
# PCOD9581905 Si02
#       7
#     6  12  12  12  12  12   6
#     4  10  20  34  54  78 104 134 168 208 252 300
#     4  10  20  34  54  78 104 134 168 210 256 302
#     4  10  20  34  54  78 104 134 168 210 256 302
#     4  10  20  34  53  76 103 135 170 209 252 300
#     4  10  20  34  54  78 104 134 168 210 256 302
#     4  10  20  34  53  76 103 135 170 209 252 300
#     4  10  20  34  54  78 104 134 168 208 252 300
#
# _framework density 16.592860000000002
#
# number of rings (size 3 to 8) (size 9 to 14) (size 15 to 20)
#    0.000    2.000    0.000    4.000    0.000    0.000 
#    0.000    8.333    0.000   18.000    0.000    0.000 
#    0.000    0.000    0.000    0.000    0.000    0.000 
#
# Total GULP energy -402062.972180 kJ/mol
# GULP energy per Si atom -5584.207947 kJ/mol
# Density = 1.655509 g / cm^3
# Si number density = 16.592860 Si / 1000 Ang^3
#
#
#
# Elastic Constant Matrix: (Units=GPa)
#
#
# Indices 1 2 3 4 5 6 
#
# 1 151.4986 113.8406 99.4145 0.0000 0.0000 0.0000
# 2 113.8406 151.4986 99.4145 0.0000 0.0000 0.0000
# 3 99.4145 99.4145 182.0564 0.0000 0.0000 0.0000
# 4 0.0000 0.0000 0.0000 12.6396 0.0000 0.0000
# 5 0.0000 0.0000 0.0000 0.0000 12.6396 0.0000
# 6 0.0000 0.0000 0.0000 0.0000 0.0000 18.8290
#
#
#
# Elastic Compliance Matrix: (Units=1/GPa)
#
#
# Indices 1 2 3 4 5 6 
#
# 1 0.016467 -0.010088 -0.003483 0.000000 0.000000 0.000000
# 2 -0.010088 0.016467 -0.003483 0.000000 0.000000 0.000000
# 3 -0.003483 -0.003483 0.009297 0.000000 0.000000 0.000000
# 4 0.000000 0.000000 0.000000 0.079116 0.000000 0.000000
# 5 0.000000 0.000000 0.000000 0.000000 0.079116 0.000000
# 6 0.000000 0.000000 0.000000 0.000000 0.000000 0.053110
#
#
# Mechanical properties :
#
#
# Convention : Reuss Voigt Hill
#
# Bulk Modulus (GPa) = 123.12748 123.37697 123.25222
# Shear Modulus (GPa) = 17.21826 20.31391 18.76609
#
# Velocity S-wave (km/s) = 3.22482 3.50273 3.36664
# Velocity P-wave (km/s) = 9.39319 9.53288 9.46329
#
# Compressibility (1/GPa) = 0.00812166
#
# Stress axis : x y z
#
# Youngs Moduli (GPa) = 60.72803 60.72803 107.56125
#
# Poissons Ratio (x) = 0.61262 0.37467
# Poissons Ratio (y) = 0.61262 0.37467
# Poissons Ratio (z) = 0.21153 0.21153
#
# Static dielectric constant tensor:
#      x y z
#    x 1.522360 0.000000 0.000000 
#    y 0.000000 1.522360 0.000000 
#    z 0.000000 0.000000 1.548970 
# 
# From -- ./inp_files/4512.got.cif
#   From: 2010.05.17/outbox.cif.g08.bks.cpg/sg176_3_cif.got.tgz:4512.got - 2010.06.03 11:36:45.
