data_PCOD9581093
_publ_section_title
;
Structure prediction by ZEFSAII (Michael W. Deem and Ramdas Pophale) SiO2 
 PCOD9581093
Probable space group: P 63
;
_chemical_formula_sum "Si O2"
_cell_formula_units_Z 42
_cell_length_a 11.350665
_cell_length_b 11.350665
_cell_length_c 17.826018
_cell_angle_alpha 90.000000
_cell_angle_beta 90.000000
_cell_angle_gamma 120.000000
_cell_volume 1988.967033
_symmetry_space_group_name_H-M "P 63"
_symmetry_group_IT_number 173
_symmetry_cell_setting 'hexagonal'
loop_
_space_group_symop_operation_xyz
x,y,z
x-y,x,1/2+z
-y,x-y,z
-x,-y,1/2+z
-x+y,-x,z
y,-x+y,1/2+z
loop_
_atom_site_type_symbol
_atom_site_label
_atom_site_fract_x
_atom_site_fract_y
_atom_site_fract_z
Si Si1 0.055328 0.295601 0.372160
Si Si2 0.289361 0.238973 0.405508
Si Si3 0.838265 0.989219 0.134658
Si Si4 0.695095 0.083150 0.248109
Si Si5 0.603262 0.700279 0.528564
Si Si6 0.632677 0.600524 0.221451
Si Si7 0.631722 0.595723 0.058845
O O1 0.051745 0.355075 0.291176
O O2 0.144791 0.223038 0.382170
O O3 0.110464 0.404111 0.438913
O O4 0.903139 0.186543 0.396124
O O5 0.383393 0.326378 0.336892
O O6 0.335786 0.307569 0.486606
O O7 0.879894 0.872822 0.135325
O O8 0.754000 0.996624 0.205477
O O9 0.762037 0.005779 0.062452
O O10 0.549185 0.051009 0.220883
O O11 0.816902 0.236100 0.232221
O O12 0.507197 0.545391 0.549684
O O13 0.561109 0.806668 0.560765
O O14 0.626747 0.655708 0.139331
#
# Coordination Sequence:
#
# PCOD9581093 Si02
#       7
#     6   6   6   6   6   6   6
#     4  10  24  39  60  93 133 175 218 274 335 397
#     4  10  24  39  60  93 133 175 218 274 335 397
#     4  10  24  36  64 106 132 160 210 274 332 384
#     4  11  22  40  64  94 130 171 216 277 321 395
#     4  11  22  40  64  94 130 171 216 277 321 395
#     4  11  21  39  61  93 122 170 224 267 325 384
#     4  11  21  39  61  93 122 170 224 267 325 384
#
# _framework density 21.116489000000001
#
# number of rings (size 3 to 8) (size 9 to 14) (size 15 to 20)
#    0.286    1.143    2.857    1.714    8.000    0.000 
#    0.000    0.000    0.000    1.143    0.000    0.000 
#    0.000    0.000    0.000    0.000    0.000    0.000 
#
# Total GULP energy -234249.396822 kJ/mol
# GULP energy per Si atom -5577.366591 kJ/mol
# Density = 2.106843 g / cm^3
# Si number density = 21.116489 Si / 1000 Ang^3
#
#
#
# Elastic Constant Matrix: (Units=GPa)
#
#
# Indices 1 2 3 4 5 6 
#
# 1 55.2861 12.2738 24.2237 0.0000 0.0000 0.0000
# 2 12.2738 55.2861 24.2237 0.0000 0.0000 0.0000
# 3 24.2237 24.2237 190.3727 0.0000 0.0000 0.0000
# 4 0.0000 0.0000 0.0000 -14.4226 0.0000 0.0000
# 5 0.0000 0.0000 0.0000 0.0000 -14.4226 0.0000
# 6 0.0000 0.0000 0.0000 0.0000 0.0000 21.5061
#
#
#
# Elastic Compliance Matrix: (Units=1/GPa)
#
#
# Indices 1 2 3 4 5 6 
#
# 1 0.019769 -0.003481 -0.002073 0.000000 0.000000 0.000000
# 2 -0.003481 0.019769 -0.002073 0.000000 0.000000 0.000000
# 3 -0.002073 -0.002073 0.005780 0.000000 0.000000 0.000000
# 4 0.000000 0.000000 0.000000 -0.069336 0.000000 0.000000
# 5 0.000000 0.000000 0.000000 0.000000 -0.069336 0.000000
# 6 0.000000 0.000000 0.000000 0.000000 0.000000 0.046498
#
#
# Mechanical properties :
#
#
# Convention : Reuss Voigt Hill
#
# Bulk Modulus (GPa) = 33.26020 46.93191 40.09605
# Shear Modulus (GPa) = -231.67235 14.54710 -108.56263
#
# Velocity S-wave (km/s) = -10.48569 2.62753 -7.17795
# Velocity P-wave (km/s) = 11.43742 5.61059 7.04755
#
# Compressibility (1/GPa) = 0.03006596
#
# Stress axis : x y z
#
# Youngs Moduli (GPa) = 50.58539 50.58539 173.00188
#
# Poissons Ratio (x) = 0.17607 0.35855
# Poissons Ratio (y) = 0.17607 0.35855
# Poissons Ratio (z) = 0.10484 0.10484
#
# Static dielectric constant tensor:
#      x y z
#    x 1.773310 0.000000 0.000000 
#    y 0.000000 1.773310 0.000000 
#    z 0.000000 0.000000 1.844140 
# 
# From -- ./inp_files/1297.got.cif
#   From: 2010.05.17/outbox.cif.g08.bks.cpg/sg173_cif.got.tgz:1297.got - 2010.05.20 11:21:53.
