data_PCOD9581479
_publ_section_title
;
Structure prediction by ZEFSAII (Michael W. Deem and Ramdas Pophale) SiO2 
 PCOD9581479
Probable space group: P 6/M
;
_chemical_formula_sum "Si O2"
_cell_formula_units_Z 64
_cell_length_a 14.094748
_cell_length_b 14.094748
_cell_length_c 18.757110
_cell_angle_alpha 90.000000
_cell_angle_beta 90.000000
_cell_angle_gamma 120.000000
_cell_volume 3227.090821
_symmetry_space_group_name_H-M "P 6/M"
_symmetry_group_IT_number 175
_symmetry_cell_setting 'hexagonal'
loop_
_space_group_symop_operation_xyz
x,y,z
x-y,x,z
-y,x-y,z
-x,-y,z
-x+y,-x,z
y,-x+y,z
-x,-y,-z
-x+y,-x,-z
y,-x+y,-z
x,y,-z
x-y,x,-z
-y,x-y,-z
loop_
_atom_site_type_symbol
_atom_site_label
_atom_site_fract_x
_atom_site_fract_y
_atom_site_fract_z
Si Si1 0.333334 0.666668 0.083229
Si Si2 0.806689 0.042032 0.586265
Si Si3 0.621295 0.105522 0.420754
Si Si4 0.459688 0.586837 0.271398
Si Si5 0.831144 0.742811 0.082285
Si Si6 0.758485 0.538385 0.177475
O O1 0.287043 0.741796 0.113938
O O2 0.333334 0.666668 0.000000
O O3 0.814678 0.039443 0.500000
O O4 0.707798 0.065655 0.598554
O O5 0.923175 0.141033 0.612599
O O6 0.650093 0.157577 0.500000
O O7 0.618679 0.171240 0.351978
O O8 0.500000 0.000000 0.426724
O O9 0.500000 0.500000 0.276761
O O10 0.347626 0.528110 0.227371
O O11 0.547475 0.692142 0.227109
O O12 0.795624 0.833952 0.090358
O O13 0.774932 0.647508 0.140913
O O14 0.803174 0.700870 0.000000
#
# Coordination Sequence:
#
# PCOD9581479 Si02
#       6
#     4  12  12  12  12  12
#     4   9  18  33  54  81 112 140 172 222 273 324
#     4   9  17  31  54  84 116 148 184 233 296 364
#     4   9  19  35  54  77 107 146 194 245 297 354
#     4  10  21  37  56  78 107 143 184 236 291 346
#     4  10  20  35  57  86 120 157 195 234 278 336
#     4  10  20  35  56  82 111 145 187 227 281 346
#
# _framework density 19.832104000000001
#
# number of rings (size 3 to 8) (size 9 to 14) (size 15 to 20)
#    0.000    2.438    0.000    2.438    0.000    4.500 
#    0.000    2.812    0.000    9.750    0.000    7.875 
#    0.000    0.000    0.000    0.000    0.000    0.562 
#
# Total GULP energy -356801.536653 kJ/mol
# GULP energy per Si atom -5575.024010 kJ/mol
# Density = 1.978697 g / cm^3
# Si number density = 19.832104 Si / 1000 Ang^3
#
#
#
# Elastic Constant Matrix: (Units=GPa)
#
#
# Indices 1 2 3 4 5 6 
#
# 1 65.0202 19.9490 38.6111 0.0000 0.0000 0.0000
# 2 19.9490 65.0198 38.6102 0.0000 0.0000 -0.0001
# 3 38.6111 38.6102 140.4770 0.0000 0.0000 0.0001
# 4 0.0000 0.0000 0.0000 -7.0274 0.0003 0.0000
# 5 0.0000 0.0000 0.0000 0.0003 -7.0276 0.0000
# 6 0.0000 -0.0001 0.0001 0.0000 0.0000 22.5348
#
#
#
# Elastic Compliance Matrix: (Units=1/GPa)
#
#
# Indices 1 2 3 4 5 6 
#
# 1 0.018937 -0.003250 -0.004312 0.000000 0.000000 0.000000
# 2 -0.003250 0.018937 -0.004312 0.000000 0.000000 0.000000
# 3 -0.004312 -0.004312 0.009489 0.000000 0.000000 0.000000
# 4 0.000000 0.000000 0.000000 -0.142301 -0.000006 0.000000
# 5 0.000000 0.000000 0.000000 -0.000006 -0.142296 0.000000
# 6 0.000000 0.000000 0.000000 0.000000 0.000000 0.044376
#
#
# Mechanical properties :
#
#
# Convention : Reuss Voigt Hill
#
# Bulk Modulus (GPa) = 42.34258 51.65085 46.99671
# Shear Modulus (GPa) = -31.01009 13.25241 -8.87884
#
# Velocity S-wave (km/s) = -3.95857 2.58782 -2.11819
# Velocity P-wave (km/s) = 0.70937 5.91859 4.21503
#
# Compressibility (1/GPa) = 0.02361689
#
# Stress axis : x y z
#
# Youngs Moduli (GPa) = 52.80543 52.80551 105.38691
#
# Poissons Ratio (x) = 0.17161 0.45442
# Poissons Ratio (y) = 0.17161 0.45440
# Poissons Ratio (z) = 0.22769 0.22768
#
# Static dielectric constant tensor:
#      x y z
#    x 1.704080 0.000000 0.000000 
#    y 0.000000 1.704080 0.000000 
#    z 0.000000 0.000000 1.735030 
# 
# From -- ./inp_files/2846.got.cif
#   From: 2010.05.17/outbox.cif.g08.bks.cpg/sg175_2_cif.got.tgz:2846.got - 2010.05.20 11:23:22.
