data_PCOD9581777
_publ_section_title
;
Structure prediction by ZEFSAII (Michael W. Deem and Ramdas Pophale) SiO2 
 PCOD9581777
Probable space group: P 63/M
;
_chemical_formula_sum "Si O2"
_cell_formula_units_Z 52
_cell_length_a 11.590110
_cell_length_b 11.590110
_cell_length_c 21.717097
_cell_angle_alpha 90.000000
_cell_angle_beta 90.000000
_cell_angle_gamma 120.000000
_cell_volume 2526.431447
_symmetry_space_group_name_H-M "P 63/M"
_symmetry_group_IT_number 176
_symmetry_cell_setting 'hexagonal'
loop_
_space_group_symop_operation_xyz
x,y,z
x-y,x,1/2+z
-y,x-y,z
-x,-y,1/2+z
-x+y,-x,z
y,-x+y,1/2+z
-x,-y,-z
-x+y,-x,1/2-z
y,-x+y,-z
x,y,1/2-z
x-y,x,-z
-y,x-y,1/2-z
loop_
_atom_site_type_symbol
_atom_site_label
_atom_site_fract_x
_atom_site_fract_y
_atom_site_fract_z
Si Si1 0.688229 0.860162 0.641588
Si Si2 0.900704 0.570200 0.819323
Si Si3 0.776498 0.703145 0.494413
Si Si4 0.000000 0.000000 0.174246
Si Si5 0.590485 0.929846 0.123138
O O1 0.644258 0.875786 0.572827
O O2 0.633884 0.704259 0.651279
O O3 0.652133 0.952590 0.681547
O O4 0.848767 0.926553 0.649070
O O5 0.859419 0.520560 0.750000
O O6 0.901612 0.456350 0.860130
O O7 0.796667 0.608972 0.847667
O O8 0.754151 0.827265 0.484922
O O9 0.682684 0.614574 0.549767
O O10 0.000000 0.000000 0.250000
#
# Coordination Sequence:
#
# PCOD9581777 Si02
#       5
#    12  12  12   4  12
#     4  11  22  41  67 103 129 172 218 279 337 386
#     4  12  25  43  66  94 133 176 224 275 331 401
#     4  10  18  37  67 100 136 164 213 274 331 395
#     4  12  21  36  70 107 139 168 223 284 331 396
#     4  11  25  43  68  98 130 177 223 272 335 396
#
# _framework density 20.582393
#
# number of rings (size 3 to 8) (size 9 to 14) (size 15 to 20)
#    0.000    0.923    4.615    3.462    0.000    3.692 
#    1.385    0.000    0.000    0.000    0.000    0.000 
#    0.000    0.000    0.000    0.000    0.000    0.000 
#
# Total GULP energy -290442.776200 kJ/mol
# GULP energy per Si atom -5585.438004 kJ/mol
# Density = 2.053555 g / cm^3
# Si number density = 20.582393 Si / 1000 Ang^3
#
#
#
# Elastic Constant Matrix: (Units=GPa)
#
#
# Indices 1 2 3 4 5 6 
#
# 1 76.5330 7.6650 29.0857 0.0000 0.0000 0.0000
# 2 7.6650 76.5330 29.0857 0.0000 0.0000 0.0000
# 3 29.0857 29.0857 90.6378 0.0000 0.0000 0.0000
# 4 0.0000 0.0000 0.0000 14.1840 0.0000 0.0000
# 5 0.0000 0.0000 0.0000 0.0000 14.1840 0.0000
# 6 0.0000 0.0000 0.0000 0.0000 0.0000 34.4340
#
#
#
# Elastic Compliance Matrix: (Units=1/GPa)
#
#
# Indices 1 2 3 4 5 6 
#
# 1 0.014890 0.000370 -0.004897 0.000000 0.000000 0.000000
# 2 0.000370 0.014890 -0.004897 0.000000 0.000000 0.000000
# 3 -0.004897 -0.004897 0.014176 0.000000 0.000000 0.000000
# 4 0.000000 0.000000 0.000000 0.070502 0.000000 0.000000
# 5 0.000000 0.000000 0.000000 0.000000 0.070502 0.000000
# 6 0.000000 0.000000 0.000000 0.000000 0.000000 0.029041
#
#
# Mechanical properties :
#
#
# Convention : Reuss Voigt Hill
#
# Bulk Modulus (GPa) = 39.82792 41.70854 40.76823
# Shear Modulus (GPa) = 20.72807 24.41823 22.57315
#
# Velocity S-wave (km/s) = 3.17689 3.44810 3.31527
# Velocity P-wave (km/s) = 5.73143 6.01338 5.87410
#
# Compressibility (1/GPa) = 0.02510802
#
# Stress axis : x y z
#
# Youngs Moduli (GPa) = 67.15793 67.15793 70.54279
#
# Poissons Ratio (x) = -0.02483 0.34544
# Poissons Ratio (y) = -0.02483 0.34544
# Poissons Ratio (z) = 0.32887 0.32887
#
# Static dielectric constant tensor:
#      x y z
#    x 1.713560 0.000000 0.000000 
#    y 0.000000 1.713560 0.000000 
#    z 0.000000 0.000000 1.819640 
# 
# From -- ./inp_files/3696.got.cif
#   From: 2010.05.17/outbox.cif.g08.bks.cpg/sg176_2_cif.got.tgz:3696.got - 2010.06.03 11:36:45.
