data_PCOD9581056
_publ_section_title
;
Structure prediction by ZEFSAII (Michael W. Deem and Ramdas Pophale) SiO2 
 PCOD9581056
Probable space group: P 63
;
_chemical_formula_sum "Si O2"
_cell_formula_units_Z 42
_cell_length_a 19.599829
_cell_length_b 19.599829
_cell_length_c 6.307491
_cell_angle_alpha 90.000000
_cell_angle_beta 90.000000
_cell_angle_gamma 120.000000
_cell_volume 2098.417193
_symmetry_space_group_name_H-M "P 63"
_symmetry_group_IT_number 173
_symmetry_cell_setting 'hexagonal'
loop_
_space_group_symop_operation_xyz
x,y,z
x-y,x,1/2+z
-y,x-y,z
-x,-y,1/2+z
-x+y,-x,z
y,-x+y,1/2+z
loop_
_atom_site_type_symbol
_atom_site_label
_atom_site_fract_x
_atom_site_fract_y
_atom_site_fract_z
Si Si1 0.796697 0.527770 0.988130
Si Si2 0.792195 0.311359 0.621505
Si Si3 0.630913 0.944201 0.975986
Si Si4 0.302151 0.128282 0.151037
Si Si5 0.592187 0.656453 0.150258
Si Si6 0.466123 0.645944 0.898495
Si Si7 0.751100 0.018422 0.349235
O O1 0.714091 0.479859 0.862992
O O2 0.866544 0.556718 0.820203
O O3 0.807351 0.610142 0.078764
O O4 0.809676 0.472376 0.150813
O O5 0.878246 0.324788 0.587344
O O6 0.789072 0.383866 0.516744
O O7 0.734321 0.235295 0.484063
O O8 0.687292 0.997487 0.162987
O O9 0.679979 0.910996 0.851474
O O10 0.609201 0.986375 0.789660
O O11 0.252498 0.168282 0.238196
O O12 0.261974 0.062183 0.963334
O O13 0.524687 0.615389 0.974341
O O14 0.667549 0.726901 0.033841
#
# Coordination Sequence:
#
# PCOD9581056 Si02
#       7
#     6   6   6   6   6   6   6
#     4  11  20  41  66  84 131 171 211 284 331 386
#     4  11  24  40  61  94 123 182 226 278 337 405
#     4  11  21  39  64  90 134 167 217 272 337 393
#     4  11  21  37  63  96 129 168 210 271 335 403
#     4  10  21  38  59  91 124 171 210 272 331 392
#     4  11  23  42  61  89 134 170 235 275 337 397
#     4  11  22  37  66  96 133 167 215 270 336 402
#
# _framework density 20.015086
#
# number of rings (size 3 to 8) (size 9 to 14) (size 15 to 20)
#    0.000    1.143    5.714    1.143    0.000    2.286 
#    5.143    0.000    0.000    0.000    0.000    0.000 
#   14.286    0.000    0.000    0.000    0.000    0.000 
#
# Total GULP energy -234054.650570 kJ/mol
# GULP energy per Si atom -5572.729775 kJ/mol
# Density = 1.996953 g / cm^3
# Si number density = 20.015086 Si / 1000 Ang^3
#
#
#
# Elastic Constant Matrix: (Units=GPa)
#
#
# Indices 1 2 3 4 5 6 
#
# 1 190.3693 -112.9790 38.1301 0.0000 0.0000 0.0000
# 2 -112.9790 190.3693 38.1301 0.0000 0.0000 0.0000
# 3 38.1301 38.1301 114.1972 0.0000 0.0000 0.0000
# 4 0.0000 0.0000 0.0000 31.4377 0.0000 0.0000
# 5 0.0000 0.0000 0.0000 0.0000 31.4377 0.0000
# 6 0.0000 0.0000 0.0000 0.0000 0.0000 151.6741
#
#
#
# Elastic Compliance Matrix: (Units=1/GPa)
#
#
# Indices 1 2 3 4 5 6 
#
# 1 0.011277 0.007981 -0.006430 0.000000 0.000000 0.000000
# 2 0.007981 0.011277 -0.006430 0.000000 0.000000 0.000000
# 3 -0.006430 -0.006430 0.013051 0.000000 0.000000 0.000000
# 4 0.000000 0.000000 0.000000 0.031809 0.000000 0.000000
# 5 0.000000 0.000000 0.000000 0.000000 0.031809 0.000000
# 6 0.000000 0.000000 0.000000 0.000000 0.000000 0.006593
#
#
# Mechanical properties :
#
#
# Convention : Reuss Voigt Hill
#
# Bulk Modulus (GPa) = 38.69102 46.83316 42.76209
# Shear Modulus (GPa) = 40.26075 78.35355 59.30715
#
# Velocity S-wave (km/s) = 4.48986 6.26356 5.44936
# Velocity P-wave (km/s) = 6.80084 8.70399 7.81059
#
# Compressibility (1/GPa) = 0.02584579
#
# Stress axis : x y z
#
# Youngs Moduli (GPa) = 88.67512 88.67512 76.62388
#
# Poissons Ratio (x) = -0.70768 0.49270
# Poissons Ratio (y) = -0.70768 0.49270
# Poissons Ratio (z) = 0.57019 0.57019
#
# Static dielectric constant tensor:
#      x y z
#    x 1.740010 0.000000 0.000000 
#    y 0.000000 1.740010 0.000000 
#    z 0.000000 0.000000 1.797810 
# 
# From -- ./inp_files/168.got.cif
#   From: 2010.05.17/outbox.cif.g08.bks.cpg/sg173_cif.got.tgz:168.got - 2010.05.20 11:21:53.
