data_PCOD9581794
_publ_section_title
;
Structure prediction by ZEFSAII (Michael W. Deem and Ramdas Pophale) SiO2 
 PCOD9581794
Probable space group: P 63/M
;
_chemical_formula_sum "Si O2"
_cell_formula_units_Z 72
_cell_length_a 23.635123
_cell_length_b 23.635123
_cell_length_c 7.678982
_cell_angle_alpha 90.000000
_cell_angle_beta 90.000000
_cell_angle_gamma 120.000000
_cell_volume 3714.924696
_symmetry_space_group_name_H-M "P 63/M"
_symmetry_group_IT_number 176
_symmetry_cell_setting 'hexagonal'
loop_
_space_group_symop_operation_xyz
x,y,z
x-y,x,1/2+z
-y,x-y,z
-x,-y,1/2+z
-x+y,-x,z
y,-x+y,1/2+z
-x,-y,-z
-x+y,-x,1/2-z
y,-x+y,-z
x,y,1/2-z
x-y,x,-z
-y,x-y,1/2-z
loop_
_atom_site_type_symbol
_atom_site_label
_atom_site_fract_x
_atom_site_fract_y
_atom_site_fract_z
Si Si1 0.379000 0.277583 0.542221
Si Si2 0.392556 0.467779 0.550317
Si Si3 0.514053 0.588657 0.542328
Si Si4 0.863118 0.143702 0.045464
Si Si5 0.047627 0.713450 0.964322
Si Si6 0.143707 0.103595 0.049681
O O1 0.376834 0.274637 0.750000
O O2 0.450983 0.334195 0.489332
O O3 0.347580 0.204655 0.473636
O O4 0.329363 0.302030 0.480374
O O5 0.378674 0.476274 0.750000
O O6 0.440321 0.540174 0.477388
O O7 0.439554 0.435581 0.544859
O O8 0.325174 0.409910 0.474657
O O9 0.514754 0.578194 0.750000
O O10 0.876940 0.142772 0.250000
O O11 0.919329 0.212495 0.973930
O O12 0.861889 0.079255 0.973400
O O13 0.048656 0.713275 0.750000
O O14 0.145302 0.123960 0.250000
O O15 0.092707 0.119115 0.956486
#
# Coordination Sequence:
#
# PCOD9581794 Si02
#       6
#    12  12  12  12  12  12
#     4  10  19  31  46  64  91 124 154 186 229 280
#     4   8  14  25  42  64  90 119 146 174 213 259
#     4   9  15  24  41  65  91 117 147 178 210 254
#     4  10  20  33  49  68  91 120 155 195 243 297
#     4   8  15  29  46  63  87 119 150 181 224 275
#     4  11  23  38  55  73  93 120 160 211 264 317
#
# _framework density 19.381281000000001
#
# number of rings (size 3 to 8) (size 9 to 14) (size 15 to 20)
#    0.000    2.667    0.000    3.667    0.000    3.333 
#    0.000    4.167    0.000    0.000    0.000    0.000 
#    1.667    0.000    3.000    0.000    1.000    0.000 
#
# Total GULP energy -401137.657183 kJ/mol
# GULP energy per Si atom -5571.356350 kJ/mol
# Density = 1.933717 g / cm^3
# Si number density = 19.381281 Si / 1000 Ang^3
#
#
#
# Elastic Constant Matrix: (Units=GPa)
#
#
# Indices 1 2 3 4 5 6 
#
# 1 38.1907 -6.8443 -0.1949 0.0000 0.0000 0.0000
# 2 -6.8443 38.1907 -0.1949 0.0000 0.0000 0.0000
# 3 -0.1949 -0.1949 44.2458 0.0000 0.0000 0.0000
# 4 0.0000 0.0000 0.0000 6.3268 0.0000 0.0000
# 5 0.0000 0.0000 0.0000 0.0000 6.3268 0.0000
# 6 0.0000 0.0000 0.0000 0.0000 0.0000 22.5175
#
#
#
# Elastic Compliance Matrix: (Units=1/GPa)
#
#
# Indices 1 2 3 4 5 6 
#
# 1 0.027054 0.004849 0.000141 0.000000 0.000000 0.000000
# 2 0.004849 0.027054 0.000141 0.000000 0.000000 0.000000
# 3 0.000141 0.000141 0.022602 0.000000 0.000000 0.000000
# 4 0.000000 0.000000 0.000000 0.158059 0.000000 0.000000
# 5 0.000000 0.000000 0.000000 0.000000 0.158059 0.000000
# 6 0.000000 0.000000 0.000000 0.000000 0.000000 0.044410
#
#
# Mechanical properties :
#
#
# Convention : Reuss Voigt Hill
#
# Bulk Modulus (GPa) = 11.49804 11.79541 11.64672
# Shear Modulus (GPa) = 10.96570 15.55830 13.26200
#
# Velocity S-wave (km/s) = 2.38121 2.83636 2.61869
# Velocity P-wave (km/s) = 3.67500 4.10192 3.89432
#
# Compressibility (1/GPa) = 0.08697134
#
# Stress axis : x y z
#
# Youngs Moduli (GPa) = 36.96285 36.96285 44.24342
#
# Poissons Ratio (x) = -0.17924 -0.00622
# Poissons Ratio (y) = -0.17924 -0.00622
# Poissons Ratio (z) = -0.00520 -0.00520
#
# Static dielectric constant tensor:
#      x y z
#    x 1.721220 0.000000 0.000000 
#    y 0.000000 1.721220 0.000000 
#    z 0.000000 0.000000 1.718460 
# 
# From -- ./inp_files/1157.got.cif
#   From: 2010.05.17/outbox.cif.g08.bks.cpg/sg176_1_cif.got.tgz:1157.got - 2010.06.03 11:36:45.
