data_PCOD9581496
_publ_section_title
;
Structure prediction by ZEFSAII (Michael W. Deem and Ramdas Pophale) SiO2 
 PCOD9581496
Probable space group: P 6/M
;
_chemical_formula_sum "Si O2"
_cell_formula_units_Z 28
_cell_length_a 14.068855
_cell_length_b 14.068855
_cell_length_c 7.565609
_cell_angle_alpha 90.000000
_cell_angle_beta 90.000000
_cell_angle_gamma 120.000000
_cell_volume 1296.856824
_symmetry_space_group_name_H-M "P 6/M"
_symmetry_group_IT_number 175
_symmetry_cell_setting 'hexagonal'
loop_
_space_group_symop_operation_xyz
x,y,z
x-y,x,z
-y,x-y,z
-x,-y,z
-x+y,-x,z
y,-x+y,z
-x,-y,-z
-x+y,-x,-z
y,-x+y,-z
x,y,-z
x-y,x,-z
-y,x-y,-z
loop_
_atom_site_type_symbol
_atom_site_label
_atom_site_fract_x
_atom_site_fract_y
_atom_site_fract_z
Si Si1 0.666668 0.333334 0.290257
Si Si2 0.242315 0.057161 0.783636
Si Si3 0.908903 0.382290 0.209136
O O1 0.666667 0.333334 0.500000
O O2 0.787480 0.363170 0.229402
O O3 0.213699 0.149637 0.728056
O O4 0.361761 0.082474 0.721350
O O5 0.243003 0.059041 0.000000
O O6 0.000000 0.500000 0.283406
O O7 0.931742 0.385469 0.000000
#
# Coordination Sequence:
#
# PCOD9581496 Si02
#       3
#     4  12  12
#     4  12  25  38  55  81 115 149 181 225 283 347
#     4   9  16  27  47  77 109 138 171 218 275 328
#     4  10  20  36  58  81 108 145 190 235 276 326
#
# _framework density 21.590662999999999
#
# number of rings (size 3 to 8) (size 9 to 14) (size 15 to 20)
#    0.000    2.143    0.000    4.286    0.000    9.429 
#    0.000    0.000    0.000    0.000    0.000    0.000 
#    0.000    6.857    0.000    0.000    0.000    0.000 
#
# Total GULP energy -156510.920069 kJ/mol
# GULP energy per Si atom -5589.675717 kJ/mol
# Density = 2.154152 g / cm^3
# Si number density = 21.590663 Si / 1000 Ang^3
#
#
#
# Elastic Constant Matrix: (Units=GPa)
#
#
# Indices 1 2 3 4 5 6 
#
# 1 244.3528 103.2476 -20.0891 0.0000 0.0000 0.0012
# 2 103.2476 244.3335 -20.0864 0.0000 0.0000 0.0041
# 3 -20.0891 -20.0864 41.7413 0.0000 0.0000 0.0013
# 4 0.0000 0.0000 0.0000 -34.7181 -0.0006 0.0000
# 5 0.0000 0.0000 0.0000 -0.0006 -34.7224 0.0000
# 6 0.0012 0.0041 0.0013 0.0000 0.0000 70.5526
#
#
#
# Elastic Compliance Matrix: (Units=1/GPa)
#
#
# Indices 1 2 3 4 5 6 
#
# 1 0.005067 -0.002020 0.001466 0.000000 0.000000 0.000000
# 2 -0.002020 0.005067 0.001466 0.000000 0.000000 0.000000
# 3 0.001466 0.001466 0.025368 0.000000 0.000000 -0.000001
# 4 0.000000 0.000000 0.000000 -0.028803 0.000001 0.000000
# 5 0.000000 0.000000 0.000000 0.000001 -0.028800 0.000000
# 6 0.000000 0.000000 -0.000001 0.000000 0.000000 0.014174
#
#
# Mechanical properties :
#
#
# Convention : Reuss Voigt Hill
#
# Bulk Modulus (GPa) = 26.79154 72.95243 49.87199
# Shear Modulus (GPa) = 1858.00648 31.37944 944.69296
#
# Velocity S-wave (km/s) = 29.36713 3.81646 20.94032
# Velocity P-wave (km/s) = 34.09311 7.29950 24.65383
#
# Compressibility (1/GPa) = 0.03732521
#
# Stress axis : x y z
#
# Youngs Moduli (GPa) = 197.36646 197.35249 39.41947
#
# Poissons Ratio (x) = 0.39875 -0.05780
# Poissons Ratio (y) = 0.39878 -0.05779
# Poissons Ratio (z) = -0.28938 -0.28930
#
# Static dielectric constant tensor:
#      x y z
#    x 1.787000 -0.000010 0.000000 
#    y -0.000010 1.786930 0.000000 
#    z 0.000000 0.000000 1.808670 
# 
# From -- ./inp_files/273.got.cif
#   From: 2010.05.17/outbox.cif.g08.bks.cpg/sg175_1_cif.got.tgz:273.got - 2010.05.20 11:23:22.
