data_PCOD9581018
_publ_section_title
;
Structure prediction by ZEFSAII (Michael W. Deem and Ramdas Pophale) SiO2 
 PCOD9581018
Probable space group: P 63
;
_chemical_formula_sum "Si O2"
_cell_formula_units_Z 36
_cell_length_a 21.393254
_cell_length_b 21.393254
_cell_length_c 5.440616
_cell_angle_alpha 90.000000
_cell_angle_beta 90.000000
_cell_angle_gamma 120.000000
_cell_volume 2156.415283
_symmetry_space_group_name_H-M "P 63"
_symmetry_group_IT_number 173
_symmetry_cell_setting 'hexagonal'
loop_
_space_group_symop_operation_xyz
x,y,z
x-y,x,1/2+z
-y,x-y,z
-x,-y,1/2+z
-x+y,-x,z
y,-x+y,1/2+z
loop_
_atom_site_type_symbol
_atom_site_label
_atom_site_fract_x
_atom_site_fract_y
_atom_site_fract_z
Si Si1 0.501734 0.637672 0.431980
Si Si2 0.586993 0.254220 0.500136
Si Si3 0.652942 0.597682 0.928576
Si Si4 0.551303 0.069579 0.430885
Si Si5 0.633318 0.622780 0.429538
Si Si6 0.707059 0.486425 0.000095
O O1 0.474668 0.587545 0.678309
O O2 0.585416 0.660312 0.422965
O O3 0.497662 0.710313 0.466555
O O4 0.474186 0.590729 0.176150
O O5 0.665436 0.265396 0.453229
O O6 0.465943 0.043436 0.435908
O O7 0.572851 0.238199 0.787822
O O8 0.532557 0.212260 0.281608
O O9 0.563925 0.563617 0.933740
O O10 0.676213 0.641786 0.679663
O O11 0.686561 0.545920 0.922637
O O12 0.677486 0.639100 0.182987
#
# Coordination Sequence:
#
# PCOD9581018 Si02
#       6
#     6   6   6   6   6   6
#     4  10  20  30  46  66  83  99 134 168 218 253
#     4  10  24  36  40  56  84 110 147 156 198 270
#     4  10  20  30  46  66  83  99 134 168 218 253
#     4  10  19  33  48  69  79 104 143 183 212 238
#     4  10  19  33  48  69  79 104 143 183 212 238
#     4  12  22  34  50  64  84 116 133 176 222 268
#
# _framework density 16.694374
#
# number of rings (size 3 to 8) (size 9 to 14) (size 15 to 20)
#    0.333    1.333    0.000    8.000    0.000   10.667 
#    0.000    0.000    0.000    0.000    0.000    0.000 
#    0.000    0.000    0.000    0.000    0.000    0.000 
#
# Total GULP energy -200503.506991 kJ/mol
# GULP energy per Si atom -5569.541861 kJ/mol
# Density = 1.665638 g / cm^3
# Si number density = 16.694374 Si / 1000 Ang^3
#
#
#
# Elastic Constant Matrix: (Units=GPa)
#
#
# Indices 1 2 3 4 5 6 
#
# 1 41.0209 23.5113 4.7994 0.0000 0.0000 0.0000
# 2 23.5113 41.0209 4.7994 0.0000 0.0000 0.0000
# 3 4.7994 4.7994 125.2548 0.0000 0.0000 0.0000
# 4 0.0000 0.0000 0.0000 0.9764 0.0000 0.0000
# 5 0.0000 0.0000 0.0000 0.0000 0.9764 0.0000
# 6 0.0000 0.0000 0.0000 0.0000 0.0000 8.7548
#
#
#
# Elastic Compliance Matrix: (Units=1/GPa)
#
#
# Indices 1 2 3 4 5 6 
#
# 1 0.036348 -0.020763 -0.000597 0.000000 0.000000 0.000000
# 2 -0.020763 0.036348 -0.000597 0.000000 0.000000 0.000000
# 3 -0.000597 -0.000597 0.008029 0.000000 0.000000 0.000000
# 4 0.000000 0.000000 0.000000 1.024179 0.000000 0.000000
# 5 0.000000 0.000000 0.000000 0.000000 1.024179 0.000000
# 6 0.000000 0.000000 0.000000 0.000000 0.000000 0.114223
#
#
# Mechanical properties :
#
#
# Convention : Reuss Voigt Hill
#
# Bulk Modulus (GPa) = 27.16599 30.39075 28.77837
# Shear Modulus (GPa) = 2.17439 13.75394 7.96416
#
# Velocity S-wave (km/s) = 1.14250 2.87342 2.18653
# Velocity P-wave (km/s) = 4.24832 5.40855 4.86316
#
# Compressibility (1/GPa) = 0.03681074
#
# Stress axis : x y z
#
# Youngs Moduli (GPa) = 27.51157 27.51158 124.54088
#
# Poissons Ratio (x) = 0.57123 0.07437
# Poissons Ratio (y) = 0.57123 0.07437
# Poissons Ratio (z) = 0.01643 0.01643
#
# Static dielectric constant tensor:
#      x y z
#    x 1.588180 0.000000 0.000000 
#    y 0.000000 1.588180 0.000000 
#    z 0.000000 0.000000 1.696070 
# 
# From -- ./inp_files/140.got.cif
#   From: 2010.05.17/outbox.cif.g08.bks.cpg/sg173_cif.got.tgz:140.got - 2010.05.20 11:21:53.
