data_PCOD9581349
_publ_section_title
;
Structure prediction by ZEFSAII (Michael W. Deem and Ramdas Pophale) SiO2 
 PCOD9581349
Probable space group: P 6/M
;
_chemical_formula_sum "Si O2"
_cell_formula_units_Z 66
_cell_length_a 10.387287
_cell_length_b 10.387287
_cell_length_c 30.963325
_cell_angle_alpha 90.000000
_cell_angle_beta 90.000000
_cell_angle_gamma 120.000000
_cell_volume 2893.226842
_symmetry_space_group_name_H-M "P 6/M"
_symmetry_group_IT_number 175
_symmetry_cell_setting 'hexagonal'
loop_
_space_group_symop_operation_xyz
x,y,z
x-y,x,z
-y,x-y,z
-x,-y,z
-x+y,-x,z
y,-x+y,z
-x,-y,-z
-x+y,-x,-z
y,-x+y,-z
x,y,-z
x-y,x,-z
-y,x-y,-z
loop_
_atom_site_type_symbol
_atom_site_label
_atom_site_fract_x
_atom_site_fract_y
_atom_site_fract_z
Si Si1 0.251327 0.904145 0.046216
Si Si2 0.093832 0.346638 0.138641
Si Si3 0.922465 0.661258 0.323918
Si Si4 0.062905 0.330316 0.500000
Si Si5 0.163719 0.503259 0.587513
Si Si6 0.255874 0.911364 0.230987
O O1 0.310642 0.882767 0.092431
O O2 0.073758 0.789909 0.046213
O O3 0.309801 0.881642 0.000000
O O4 0.208887 0.284304 0.138621
O O5 0.113297 0.426708 0.184872
O O6 0.802248 0.715507 0.325185
O O7 0.900619 0.567378 0.366526
O O8 0.895875 0.579123 0.277403
O O9 0.187398 0.283761 0.500000
O O10 0.088299 0.422105 0.543646
O O11 0.329125 0.525749 0.586503
O O12 0.079260 0.794766 0.230946
#
# Coordination Sequence:
#
# PCOD9581349 Si02
#       6
#    12  12  12   6  12  12
#     4   8  11  12  14  22  40  72 116 165 211 252
#     4   8  11  14  20  32  54  84 123 168 214 267
#     4  10  19  32  52  76 103 130 162 208 256 300
#     4  12  25  42  66  92 117 138 162 202 246 286
#     4  10  24  42  57  83 104 142 179 204 233 273
#     4   8  13  20  32  52  76 105 138 178 232 284
#
# _framework density 22.811900999999999
#
# number of rings (size 3 to 8) (size 9 to 14) (size 15 to 20)
#    0.364    2.545    0.000    2.455    0.000    8.727 
#    0.000    1.818    0.000    0.000    0.000    0.000 
#    0.000    0.000    0.000    0.000    0.000    1.818 
#
# Total GULP energy -367801.001474 kJ/mol
# GULP energy per Si atom -5572.742447 kJ/mol
# Density = 2.275998 g / cm^3
# Si number density = 22.811901 Si / 1000 Ang^3
#
#
#
# Elastic Constant Matrix: (Units=GPa)
#
#
# Indices 1 2 3 4 5 6 
#
# 1 48.3467 7.0492 47.1596 0.0000 0.0000 0.0000
# 2 7.0492 48.3467 47.1596 0.0000 0.0000 0.0000
# 3 47.1596 47.1596 306.9341 0.0000 0.0000 0.0000
# 4 0.0000 0.0000 0.0000 -622.9927 0.0000 0.0000
# 5 0.0000 0.0000 0.0000 0.0000 -622.9927 0.0000
# 6 0.0000 0.0000 0.0000 0.0000 0.0000 20.6487
#
#
#
# Elastic Compliance Matrix: (Units=1/GPa)
#
#
# Indices 1 2 3 4 5 6 
#
# 1 0.024331 0.000116 -0.003756 0.000000 0.000000 0.000000
# 2 0.000116 0.024331 -0.003756 0.000000 0.000000 0.000000
# 3 -0.003756 -0.003756 0.004412 0.000000 0.000000 0.000000
# 4 0.000000 0.000000 0.000000 -0.001605 0.000000 0.000000
# 5 0.000000 0.000000 0.000000 0.000000 -0.001605 0.000000
# 6 0.000000 0.000000 0.000000 0.000000 0.000000 0.048429
#
#
# Mechanical properties :
#
#
# Convention : Reuss Voigt Hill
#
# Bulk Modulus (GPa) = 26.12186 67.37382 46.74784
# Shear Modulus (GPa) = 39.73103 -224.91673 -92.59285
#
# Velocity S-wave (km/s) = 4.17787 -9.94034 -6.37792
# Velocity P-wave (km/s) = 5.89480 10.10685 5.80516
#
# Compressibility (1/GPa) = 0.03828211
#
# Stress axis : x y z
#
# Youngs Moduli (GPa) = 41.09978 41.09978 226.63841
#
# Poissons Ratio (x) = -0.00479 0.85132
# Poissons Ratio (y) = -0.00479 0.85132
# Poissons Ratio (z) = 0.15438 0.15438
#
# Static dielectric constant tensor:
#      x y z
#    x 1.816590 0.000000 0.000000 
#    y 0.000000 1.816590 0.000000 
#    z 0.000000 0.000000 1.945420 
# 
# From -- ./inp_files/3354.got.cif
#   From: 2010.05.17/outbox.cif.g08.bks.cpg/sg175_2_cif.got.tgz:3354.got - 2010.05.20 11:23:22.
