data_PCOD9581844
_publ_section_title
;
Structure prediction by ZEFSAII (Michael W. Deem and Ramdas Pophale) SiO2 
 PCOD9581844
Probable space group: P 63/M
;
_chemical_formula_sum "Si O2"
_cell_formula_units_Z 66
_cell_length_a 15.029598
_cell_length_b 15.029598
_cell_length_c 20.204827
_cell_angle_alpha 90.000000
_cell_angle_beta 90.000000
_cell_angle_gamma 120.000000
_cell_volume 3952.578437
_symmetry_space_group_name_H-M "P 63/M"
_symmetry_group_IT_number 176
_symmetry_cell_setting 'hexagonal'
loop_
_space_group_symop_operation_xyz
x,y,z
x-y,x,1/2+z
-y,x-y,z
-x,-y,1/2+z
-x+y,-x,z
y,-x+y,1/2+z
-x,-y,-z
-x+y,-x,1/2-z
y,-x+y,-z
x,y,1/2-z
x-y,x,-z
-y,x-y,1/2-z
loop_
_atom_site_type_symbol
_atom_site_label
_atom_site_fract_x
_atom_site_fract_y
_atom_site_fract_z
Si Si1 0.574810 0.976476 0.250000
Si Si2 0.371332 0.374251 0.750000
Si Si3 0.550135 0.325653 0.603129
Si Si4 0.886734 0.543896 0.122455
Si Si5 0.473870 0.256787 0.750000
Si Si6 0.029330 0.412452 0.015468
Si Si7 0.320618 0.450926 0.880268
O O1 0.467109 0.976618 0.250000
O O2 0.635613 0.040137 0.185292
O O3 0.551735 0.860182 0.250000
O O4 0.373884 0.269433 0.750000
O O5 0.323230 0.390516 0.815671
O O6 0.573478 0.233823 0.586084
O O7 0.531556 0.312680 0.681965
O O8 0.462946 0.333873 0.563801
O O9 0.775807 0.533284 0.125743
O O10 0.869086 0.428199 0.118436
O O11 0.940354 0.607580 0.056197
O O12 0.933819 0.324030 0.054972
O O13 0.000000 0.500000 0.000000
#
# Coordination Sequence:
#
# PCOD9581844 Si02
#       7
#     6   6  12  12   6  12  12
#     4  10  23  37  51  79 108 140 188 225 266 314
#     4  10  19  35  51  76 108 142 175 226 257 315
#     4  10  22  31  53  79 107 151 185 211 267 334
#     4  10  22  35  56  75 108 148 182 221 260 326
#     4  12  20  34  56  79 112 144 175 235 273 315
#     4  10  22  34  48  77 111 144 179 230 256 310
#     4  10  20  36  53  76 108 144 182 213 263 312
#
# _framework density 16.697959999999998
#
# number of rings (size 3 to 8) (size 9 to 14) (size 15 to 20)
#    0.364    1.455    1.818    2.545   10.182    0.000 
#    0.545    1.818    0.000    0.000    0.000    0.000 
#    7.273    1.455    0.000    0.000    0.000    0.000 
#
# Total GULP energy -367888.709918 kJ/mol
# GULP energy per Si atom -5574.071362 kJ/mol
# Density = 1.665995 g / cm^3
# Si number density = 16.697960 Si / 1000 Ang^3
#
#
#
# Elastic Constant Matrix: (Units=GPa)
#
#
# Indices 1 2 3 4 5 6 
#
# 1 63.9173 17.4230 37.5337 0.0000 0.0000 0.0000
# 2 17.4230 63.9173 37.5337 0.0000 0.0000 0.0000
# 3 37.5337 37.5337 123.1314 0.0000 0.0000 0.0000
# 4 0.0000 0.0000 0.0000 12.1473 0.0000 0.0000
# 5 0.0000 0.0000 0.0000 0.0000 12.1473 0.0000
# 6 0.0000 0.0000 0.0000 0.0000 0.0000 23.2472
#
#
#
# Elastic Compliance Matrix: (Units=1/GPa)
#
#
# Indices 1 2 3 4 5 6 
#
# 1 0.019307 -0.002201 -0.005214 0.000000 0.000000 0.000000
# 2 -0.002201 0.019307 -0.005214 0.000000 0.000000 0.000000
# 3 -0.005214 -0.005214 0.011300 0.000000 0.000000 0.000000
# 4 0.000000 0.000000 0.000000 0.082323 0.000000 0.000000
# 5 0.000000 0.000000 0.000000 0.000000 0.082323 0.000000
# 6 0.000000 0.000000 0.000000 0.000000 0.000000 0.043016
#
#
# Mechanical properties :
#
#
# Convention : Reuss Voigt Hill
#
# Bulk Modulus (GPa) = 40.55929 48.43854 44.49891
# Shear Modulus (GPa) = 17.17894 20.07341 18.62617
#
# Velocity S-wave (km/s) = 3.21098 3.47096 3.34350
# Velocity P-wave (km/s) = 6.17170 6.71826 6.45077
#
# Compressibility (1/GPa) = 0.02465526
#
# Stress axis : x y z
#
# Youngs Moduli (GPa) = 51.79419 51.79419 88.49231
#
# Poissons Ratio (x) = 0.11399 0.46144
# Poissons Ratio (y) = 0.11399 0.46144
# Poissons Ratio (z) = 0.27008 0.27008
#
# Static dielectric constant tensor:
#      x y z
#    x 1.559480 0.000000 0.000000 
#    y 0.000000 1.559480 0.000000 
#    z 0.000000 0.000000 1.612520 
# 
# From -- ./inp_files/3811.got.cif
#   From: 2010.05.17/outbox.cif.g08.bks.cpg/sg176_2_cif.got.tgz:3811.got - 2010.06.03 11:36:45.
