data_PCOD9581503
_publ_section_title
;
Structure prediction by ZEFSAII (Michael W. Deem and Ramdas Pophale) SiO2 
 PCOD9581503
Probable space group: P 6/M
;
_chemical_formula_sum "Si O2"
_cell_formula_units_Z 66
_cell_length_a 20.822464
_cell_length_b 20.822464
_cell_length_c 7.832857
_cell_angle_alpha 90.000000
_cell_angle_beta 90.000000
_cell_angle_gamma 120.000000
_cell_volume 2941.135746
_symmetry_space_group_name_H-M "P 6/M"
_symmetry_group_IT_number 175
_symmetry_cell_setting 'hexagonal'
loop_
_space_group_symop_operation_xyz
x,y,z
x-y,x,z
-y,x-y,z
-x,-y,z
-x+y,-x,z
y,-x+y,z
-x,-y,-z
-x+y,-x,-z
y,-x+y,-z
x,y,-z
x-y,x,-z
-y,x-y,-z
loop_
_atom_site_type_symbol
_atom_site_label
_atom_site_fract_x
_atom_site_fract_y
_atom_site_fract_z
Si Si1 0.405132 0.499477 0.804687
Si Si2 0.666005 0.988417 0.802920
Si Si3 0.827620 0.708202 0.695791
Si Si4 0.347446 0.883509 0.698923
Si Si5 0.469243 0.212973 0.703456
Si Si6 0.914106 0.819026 0.000000
O O1 0.368286 0.417330 0.725100
O O2 0.478024 0.566641 0.727194
O O3 0.334874 0.511140 0.794038
O O4 0.422423 0.492398 0.000000
O O5 0.685915 0.072451 0.796769
O O6 0.715998 0.962374 0.706809
O O7 0.662551 0.964935 0.000000
O O8 0.854681 0.719242 0.500000
O O9 0.789411 0.619888 0.739706
O O10 0.885109 0.764152 0.834460
O O11 0.334223 0.889517 0.500000
O O12 0.298012 0.798012 0.748653
O O13 0.476323 0.206069 0.500000
O O14 0.871520 0.867450 0.000000
#
# Coordination Sequence:
#
# PCOD9581503 Si02
#       6
#    12  12  12  12  12   6
#     4  10  21  37  54  81 118 163 204 257 320 379
#     4  10  20  36  60  92 130 162 207 263 322 381
#     4  10  22  43  71 102 134 170 215 271 331 386
#     4  11  22  35  57  87 120 163 213 263 317 382
#     4   9  21  39  59  85 121 164 216 272 322 382
#     4  12  29  50  74 104 137 179 215 259 317 399
#
# _framework density 22.440308999999999
#
# number of rings (size 3 to 8) (size 9 to 14) (size 15 to 20)
#    0.000    1.818    0.909    2.273    3.818    6.545 
#    1.091    0.000    0.000    1.091    0.000    0.000 
#    0.000    0.000    0.000    0.000    0.000    0.000 
#
# Total GULP energy -368450.234454 kJ/mol
# GULP energy per Si atom -5582.579310 kJ/mol
# Density = 2.238923 g / cm^3
# Si number density = 22.440309 Si / 1000 Ang^3
#
#
#
# Elastic Constant Matrix: (Units=GPa)
#
#
# Indices 1 2 3 4 5 6 
#
# 1 64.0737 4.0196 12.4106 0.0000 0.0000 0.0000
# 2 4.0196 64.0737 12.4106 0.0000 0.0000 0.0000
# 3 12.4106 12.4106 78.8217 0.0000 0.0000 0.0000
# 4 0.0000 0.0000 0.0000 19.0973 0.0000 0.0000
# 5 0.0000 0.0000 0.0000 0.0000 19.0973 0.0000
# 6 0.0000 0.0000 0.0000 0.0000 0.0000 30.0270
#
#
#
# Elastic Compliance Matrix: (Units=1/GPa)
#
#
# Indices 1 2 3 4 5 6 
#
# 1 0.016116 -0.000536 -0.002453 0.000000 0.000000 0.000000
# 2 -0.000536 0.016116 -0.002453 0.000000 0.000000 0.000000
# 3 -0.002453 -0.002453 0.013459 0.000000 0.000000 0.000000
# 4 0.000000 0.000000 0.000000 0.052363 0.000000 0.000000
# 5 0.000000 0.000000 0.000000 0.000000 0.052363 0.000000
# 6 0.000000 0.000000 0.000000 0.000000 0.000000 0.033303
#
#
# Mechanical properties :
#
#
# Convention : Reuss Voigt Hill
#
# Bulk Modulus (GPa) = 28.73001 29.40567 29.06784
# Shear Modulus (GPa) = 24.24742 25.51954 24.88348
#
# Velocity S-wave (km/s) = 3.29071 3.37593 3.33359
# Velocity P-wave (km/s) = 5.22197 5.32243 5.27244
#
# Compressibility (1/GPa) = 0.03480681
#
# Stress axis : x y z
#
# Youngs Moduli (GPa) = 62.05098 62.05098 74.29782
#
# Poissons Ratio (x) = 0.03325 0.18226
# Poissons Ratio (y) = 0.03325 0.18226
# Poissons Ratio (z) = 0.15222 0.15222
#
# Static dielectric constant tensor:
#      x y z
#    x 1.894880 0.000000 0.000000 
#    y 0.000000 1.894880 0.000000 
#    z 0.000000 0.000000 1.814440 
# 
# From -- ./inp_files/1005.got.cif
#   From: 2010.05.17/outbox.cif.g08.bks.cpg/sg175_1_cif.got.tgz:1005.got - 2010.05.20 11:23:22.
