data_PCOD9581434
_publ_section_title
;
Structure prediction by ZEFSAII (Michael W. Deem and Ramdas Pophale) SiO2 
 PCOD9581434
Probable space group: P 6/M
;
_chemical_formula_sum "Si O2"
_cell_formula_units_Z 72
_cell_length_a 22.491040
_cell_length_b 22.491040
_cell_length_c 9.322362
_cell_angle_alpha 90.000000
_cell_angle_beta 90.000000
_cell_angle_gamma 120.000000
_cell_volume 4083.905374
_symmetry_space_group_name_H-M "P 6/M"
_symmetry_group_IT_number 175
_symmetry_cell_setting 'hexagonal'
loop_
_space_group_symop_operation_xyz
x,y,z
x-y,x,z
-y,x-y,z
-x,-y,z
-x+y,-x,z
y,-x+y,z
-x,-y,-z
-x+y,-x,-z
y,-x+y,-z
x,y,-z
x-y,x,-z
-y,x-y,-z
loop_
_atom_site_type_symbol
_atom_site_label
_atom_site_fract_x
_atom_site_fract_y
_atom_site_fract_z
Si Si1 0.398125 0.904631 0.334427
Si Si2 0.046311 0.715539 0.834490
Si Si3 0.943046 0.838969 0.835319
Si Si4 0.272126 0.882473 0.834007
Si Si5 0.456961 0.069274 0.665679
Si Si6 0.152554 0.291470 0.329796
O O1 0.379039 0.882845 0.500000
O O2 0.332813 0.872706 0.231643
O O3 0.462862 0.895620 0.294849
O O4 0.428079 0.987077 0.332233
O O5 0.080475 0.672792 0.770955
O O6 0.072320 0.782568 0.737975
O O7 0.964384 0.665291 0.827281
O O8 0.064853 0.735219 0.000000
O O9 0.895724 0.873523 0.817700
O O10 0.915014 0.775924 0.727054
O O11 0.934155 0.812511 0.000000
O O12 0.204307 0.846976 0.738168
O O13 0.258336 0.861662 0.000000
O O14 0.450895 0.086814 0.500000
O O15 0.155282 0.294406 0.500000
#
# Coordination Sequence:
#
# PCOD9581434 Si02
#       6
#    12  12  12  12  12  12
#     4   8  14  26  45  69  97 126 153 182 219 266
#     4  10  20  33  49  69  95 127 162 201 244 292
#     4  10  21  38  58  76  94 120 160 212 270 330
#     4  10  20  33  49  69  95 127 162 201 244 292
#     4   8  14  26  45  69  97 126 153 182 219 266
#     4  12  24  35  49  69  96 130 166 206 256 312
#
# _framework density 17.630182999999999
#
# number of rings (size 3 to 8) (size 9 to 14) (size 15 to 20)
#    0.000    2.333    0.000    4.667    0.000    8.000 
#    0.000    3.333    0.000    1.000    0.000    0.000 
#    1.667    0.000    3.000    0.000    3.000    0.000 
#
# Total GULP energy -401719.604255 kJ/mol
# GULP energy per Si atom -5579.438948 kJ/mol
# Density = 1.759006 g / cm^3
# Si number density = 17.630183 Si / 1000 Ang^3
#
#
#
# Elastic Constant Matrix: (Units=GPa)
#
#
# Indices 1 2 3 4 5 6 
#
# 1 40.7723 0.9721 29.0587 0.0000 0.0000 0.0000
# 2 0.9721 40.7723 29.0587 0.0000 0.0000 0.0000
# 3 29.0587 29.0587 112.2895 0.0000 0.0000 0.0000
# 4 0.0000 0.0000 0.0000 9.4355 0.0000 0.0000
# 5 0.0000 0.0000 0.0000 0.0000 9.4355 0.0000
# 6 0.0000 0.0000 0.0000 0.0000 0.0000 19.9001
#
#
#
# Elastic Compliance Matrix: (Units=1/GPa)
#
#
# Indices 1 2 3 4 5 6 
#
# 1 0.031286 0.006161 -0.009691 0.000000 0.000000 0.000000
# 2 0.006161 0.031286 -0.009691 0.000000 0.000000 0.000000
# 3 -0.009691 -0.009691 0.013921 0.000000 0.000000 0.000000
# 4 0.000000 0.000000 0.000000 0.105983 0.000000 0.000000
# 5 0.000000 0.000000 0.000000 0.000000 0.105983 0.000000
# 6 0.000000 0.000000 0.000000 0.000000 0.000000 0.050251
#
#
# Mechanical properties :
#
#
# Convention : Reuss Voigt Hill
#
# Bulk Modulus (GPa) = 19.97916 34.66811 27.32363
# Shear Modulus (GPa) = 13.09467 16.73719 14.91593
#
# Velocity S-wave (km/s) = 2.72828 3.08449 2.91184
# Velocity P-wave (km/s) = 4.61321 5.69142 5.18044
#
# Compressibility (1/GPa) = 0.05005216
#
# Stress axis : x y z
#
# Youngs Moduli (GPa) = 31.96304 31.96304 71.83354
#
# Poissons Ratio (x) = -0.19691 0.69611
# Poissons Ratio (y) = -0.19691 0.69611
# Poissons Ratio (z) = 0.30974 0.30974
#
# Static dielectric constant tensor:
#      x y z
#    x 1.618070 0.000000 0.000000 
#    y 0.000000 1.618070 0.000000 
#    z 0.000000 0.000000 1.588810 
# 
# From -- ./inp_files/1228.got.cif
#   From: 2010.05.17/outbox.cif.g08.bks.cpg/sg175_1_cif.got.tgz:1228.got - 2010.05.20 11:23:22.
