data_PCOD9581553
_publ_section_title
;
Structure prediction by ZEFSAII (Michael W. Deem and Ramdas Pophale) SiO2 
 PCOD9581553
Probable space group: P 6/M
;
_chemical_formula_sum "Si O2"
_cell_formula_units_Z 66
_cell_length_a 21.351483
_cell_length_b 21.351483
_cell_length_c 7.742224
_cell_angle_alpha 90.000000
_cell_angle_beta 90.000000
_cell_angle_gamma 120.000000
_cell_volume 3056.697445
_symmetry_space_group_name_H-M "P 6/M"
_symmetry_group_IT_number 175
_symmetry_cell_setting 'hexagonal'
loop_
_space_group_symop_operation_xyz
x,y,z
x-y,x,z
-y,x-y,z
-x,-y,z
-x+y,-x,z
y,-x+y,z
-x,-y,-z
-x+y,-x,-z
y,-x+y,-z
x,y,-z
x-y,x,-z
-y,x-y,-z
loop_
_atom_site_type_symbol
_atom_site_label
_atom_site_fract_x
_atom_site_fract_y
_atom_site_fract_z
Si Si1 0.574517 0.308854 0.500000
Si Si2 0.619612 0.044849 0.790191
Si Si3 0.961252 0.718469 0.298077
Si Si4 0.189719 0.315173 0.289091
Si Si5 0.256927 0.482839 0.805274
Si Si6 0.416649 0.517475 0.203823
O O1 0.613019 0.258814 0.500000
O O2 0.523767 0.287810 0.665988
O O3 0.696367 0.062187 0.719267
O O4 0.583203 0.091508 0.730144
O O5 0.559517 0.963772 0.731992
O O6 0.627074 0.047832 0.000000
O O7 0.967460 0.736958 0.500000
O O8 0.893952 0.725195 0.230243
O O9 0.042519 0.765727 0.226201
O O10 0.191832 0.317613 0.500000
O O11 0.225228 0.397985 0.227633
O O12 0.343310 0.518552 0.785202
O O13 0.238617 0.493410 0.000000
O O14 0.430643 0.515979 0.000000
#
# Coordination Sequence:
#
# PCOD9581553 Si02
#       6
#     6  12  12  12  12  12
#     4  10  26  46  60  81 123 169 216 275 304 368
#     4   9  16  31  52  79 115 148 187 241 301 361
#     4  10  21  36  57  85 120 161 202 256 321 385
#     4  10  21  39  60  88 125 161 205 259 321 389
#     4  11  21  39  67  90 117 164 215 267 326 376
#     4   8  16  30  52  82 115 148 189 246 301 360
#
# _framework density 21.591932
#
# number of rings (size 3 to 8) (size 9 to 14) (size 15 to 20)
#    0.182    2.182    2.727    1.091    0.000    2.909 
#    1.636    2.727    0.000    0.364    0.000    2.545 
#    0.000    0.000    0.000    3.273    0.000    3.636 
#
# Total GULP energy -368463.854238 kJ/mol
# GULP energy per Si atom -5582.785670 kJ/mol
# Density = 2.154279 g / cm^3
# Si number density = 21.591932 Si / 1000 Ang^3
#
#
#
# Elastic Constant Matrix: (Units=GPa)
#
#
# Indices 1 2 3 4 5 6 
#
# 1 85.2814 45.0384 21.8980 0.0000 0.0000 0.0000
# 2 45.0384 85.2814 21.8980 0.0000 0.0000 0.0000
# 3 21.8980 21.8980 78.2598 0.0000 0.0000 0.0000
# 4 0.0000 0.0000 0.0000 -165.3289 0.0000 0.0000
# 5 0.0000 0.0000 0.0000 0.0000 -165.3288 0.0000
# 6 0.0000 0.0000 0.0000 0.0000 0.0000 20.1215
#
#
#
# Elastic Compliance Matrix: (Units=1/GPa)
#
#
# Indices 1 2 3 4 5 6 
#
# 1 0.016659 -0.008190 -0.002370 0.000000 0.000000 0.000000
# 2 -0.008190 0.016659 -0.002370 0.000000 0.000000 0.000000
# 3 -0.002370 -0.002370 0.014104 0.000000 0.000000 0.000000
# 4 0.000000 0.000000 0.000000 -0.006049 0.000000 0.000000
# 5 0.000000 0.000000 0.000000 0.000000 -0.006049 0.000000
# 6 0.000000 0.000000 0.000000 0.000000 0.000000 0.049698
#
#
# Mechanical properties :
#
#
# Convention : Reuss Voigt Hill
#
# Bulk Modulus (GPa) = 46.37328 47.38792 46.88060
# Shear Modulus (GPa) = 42.34732 -51.44136 -4.54702
#
# Velocity S-wave (km/s) = 4.43341 -4.88631 -1.45274
# Velocity P-wave (km/s) = 6.90873 3.13689 4.35262
#
# Compressibility (1/GPa) = 0.02156414
#
# Stress axis : x y z
#
# Youngs Moduli (GPa) = 60.02592 60.02592 70.90068
#
# Poissons Ratio (x) = 0.49159 0.16803
# Poissons Ratio (y) = 0.49159 0.16803
# Poissons Ratio (z) = 0.14226 0.14226
#
# Static dielectric constant tensor:
#      x y z
#    x 1.798280 0.000000 0.000000 
#    y 0.000000 1.798280 0.000000 
#    z 0.000000 0.000000 1.807990 
# 
# From -- ./inp_files/999.got.cif
#   From: 2010.05.17/outbox.cif.g08.bks.cpg/sg175_1_cif.got.tgz:999.got - 2010.05.20 11:23:22.
