data_PCOD9581388
_publ_section_title
;
Structure prediction by ZEFSAII (Michael W. Deem and Ramdas Pophale) SiO2 
 PCOD9581388
Probable space group: P 6/M
;
_chemical_formula_sum "Si O2"
_cell_formula_units_Z 66
_cell_length_a 22.092741
_cell_length_b 22.092741
_cell_length_c 7.716300
_cell_angle_alpha 90.000000
_cell_angle_beta 90.000000
_cell_angle_gamma 120.000000
_cell_volume 3261.661882
_symmetry_space_group_name_H-M "P 6/M"
_symmetry_group_IT_number 175
_symmetry_cell_setting 'hexagonal'
loop_
_space_group_symop_operation_xyz
x,y,z
x-y,x,z
-y,x-y,z
-x,-y,z
-x+y,-x,z
y,-x+y,z
-x,-y,-z
-x+y,-x,-z
y,-x+y,-z
x,y,-z
x-y,x,-z
-y,x-y,-z
loop_
_atom_site_type_symbol
_atom_site_label
_atom_site_fract_x
_atom_site_fract_y
_atom_site_fract_z
Si Si1 0.150720 0.776741 0.208208
Si Si2 0.819248 0.454077 0.197286
Si Si3 0.220015 0.697425 0.305862
Si Si4 0.135891 0.980607 0.500000
Si Si5 0.395325 0.298442 0.789660
Si Si6 0.992793 0.239637 0.789675
O O1 0.155271 0.709455 0.265866
O O2 0.223366 0.841005 0.269691
O O3 0.087356 0.787761 0.259193
O O4 0.150030 0.775952 0.000000
O O5 0.800773 0.382393 0.287417
O O6 0.750449 0.462797 0.195084
O O7 0.881875 0.527165 0.271419
O O8 0.836837 0.446523 0.000000
O O9 0.243923 0.720991 0.500000
O O10 0.178591 0.978266 0.670017
O O11 0.056147 0.916554 0.500000
O O12 0.322572 0.293853 0.749555
O O13 0.400565 0.300660 0.000000
O O14 0.000312 0.232418 0.000000
#
# Coordination Sequence:
#
# PCOD9581388 Si02
#       6
#    12  12  12   6  12  12
#     4   9  18  34  57  81 110 148 194 243 293 349
#     4  10  19  34  53  74 107 151 200 248 302 357
#     4  11  21  32  49  77 113 149 194 248 305 357
#     4  12  27  44  66  98 131 164 196 234 288 346
#     4   8  16  33  56  82 107 142 193 245 289 343
#     4  10  21  41  67  93 122 158 202 244 289 351
#
# _framework density 20.235081000000001
#
# number of rings (size 3 to 8) (size 9 to 14) (size 15 to 20)
#    0.000    2.182    0.000    4.818    1.273    2.182 
#    8.182    0.909    0.000    6.545    0.000    0.000 
#    0.000    0.000    0.000    0.000    0.000    0.000 
#
# Total GULP energy -367830.971941 kJ/mol
# GULP energy per Si atom -5573.196545 kJ/mol
# Density = 2.018903 g / cm^3
# Si number density = 20.235081 Si / 1000 Ang^3
#
#
#
# Elastic Constant Matrix: (Units=GPa)
#
#
# Indices 1 2 3 4 5 6 
#
# 1 50.7339 -4.0742 6.7857 0.0000 0.0000 0.0000
# 2 -4.0742 50.7339 6.7857 0.0000 0.0000 0.0000
# 3 6.7857 6.7857 62.1264 0.0000 0.0000 0.0000
# 4 0.0000 0.0000 0.0000 -107.1763 0.0000 0.0000
# 5 0.0000 0.0000 0.0000 0.0000 -107.1763 0.0000
# 6 0.0000 0.0000 0.0000 0.0000 0.0000 27.4040
#
#
#
# Elastic Compliance Matrix: (Units=1/GPa)
#
#
# Indices 1 2 3 4 5 6 
#
# 1 0.020190 0.001945 -0.002418 0.000000 0.000000 0.000000
# 2 0.001945 0.020190 -0.002418 0.000000 0.000000 0.000000
# 3 -0.002418 -0.002418 0.016624 0.000000 0.000000 0.000000
# 4 0.000000 0.000000 0.000000 -0.009330 0.000000 0.000000
# 5 0.000000 0.000000 0.000000 0.000000 -0.009330 0.000000
# 6 0.000000 0.000000 0.000000 0.000000 0.000000 0.036491
#
#
# Mechanical properties :
#
#
# Convention : Reuss Voigt Hill
#
# Bulk Modulus (GPa) = 19.52225 20.28761 19.90493
# Shear Modulus (GPa) = 51.18201 -27.11656 12.03272
#
# Velocity S-wave (km/s) = 5.03474 -3.66468 2.44118
# Velocity P-wave (km/s) = 6.59294 2.80335 4.21948
#
# Compressibility (1/GPa) = 0.05122361
#
# Stress axis : x y z
#
# Youngs Moduli (GPa) = 49.52896 49.52896 60.15273
#
# Poissons Ratio (x) = -0.09632 0.14543
# Poissons Ratio (y) = -0.09632 0.14543
# Poissons Ratio (z) = 0.11974 0.11974
#
# Static dielectric constant tensor:
#      x y z
#    x 1.750760 0.000000 0.000000 
#    y 0.000000 1.750760 0.000000 
#    z 0.000000 0.000000 1.728260 
# 
# From -- ./inp_files/1022.got.cif
#   From: 2010.05.17/outbox.cif.g08.bks.cpg/sg175_1_cif.got.tgz:1022.got - 2010.05.20 11:23:22.
