data_PCOD9581640
_publ_section_title
;
Structure prediction by ZEFSAII (Michael W. Deem and Ramdas Pophale) SiO2 
 PCOD9581640
Probable space group: P 6/M
;
_chemical_formula_sum "Si O2"
_cell_formula_units_Z 76
_cell_length_a 18.919752
_cell_length_b 18.919752
_cell_length_c 12.779519
_cell_angle_alpha 90.000000
_cell_angle_beta 90.000000
_cell_angle_gamma 120.000000
_cell_volume 3961.649217
_symmetry_space_group_name_H-M "P 6/M"
_symmetry_group_IT_number 175
_symmetry_cell_setting 'hexagonal'
loop_
_space_group_symop_operation_xyz
x,y,z
x-y,x,z
-y,x-y,z
-x,-y,z
-x+y,-x,z
y,-x+y,z
-x,-y,-z
-x+y,-x,-z
y,-x+y,-z
x,y,-z
x-y,x,-z
-y,x-y,-z
loop_
_atom_site_type_symbol
_atom_site_label
_atom_site_fract_x
_atom_site_fract_y
_atom_site_fract_z
Si Si1 0.843191 0.441929 0.616788
Si Si2 0.415292 0.960861 0.786718
Si Si3 0.215938 0.736957 0.668776
Si Si4 0.307607 0.346308 0.620425
Si Si5 0.715535 0.203394 0.121697
Si Si6 0.008538 0.841505 0.626537
Si Si7 0.333334 0.666668 0.875570
O O1 0.873116 0.445410 0.500000
O O2 0.913585 0.475230 0.700463
O O3 0.785607 0.347401 0.644659
O O4 0.804161 0.500077 0.626664
O O5 0.341482 0.891856 0.854659
O O6 0.500000 0.000000 0.851360
O O7 0.381532 0.007412 0.713916
O O8 0.136682 0.732020 0.618427
O O9 0.213858 0.756071 0.791805
O O10 0.338141 0.347435 0.500000
O O11 0.238984 0.253806 0.647405
O O12 0.665748 0.250446 0.151842
O O13 0.739103 0.218510 0.000000
O O14 0.008563 0.847010 0.500000
O O15 0.924253 0.835358 0.663785
O O16 0.333334 0.666668 0.000000
#
# Coordination Sequence:
#
# PCOD9581640 Si02
#       7
#    12  12  12  12  12  12   4
#     4  11  21  34  54  80 116 154 194 236 277 336
#     4  11  23  36  53  80 113 159 197 234 286 353
#     4  11  22  35  55  82 112 155 202 240 284 341
#     4  11  23  37  54  84 124 159 190 233 291 360
#     4  10  22  40  60  82 110 144 197 258 301 337
#     4   9  19  35  57  82 110 147 188 232 286 349
#     4   9  18  36  63  84 100 137 187 252 312 336
#
# _framework density 19.183928999999999
#
# number of rings (size 3 to 8) (size 9 to 14) (size 15 to 20)
#    0.000    1.579    1.579    4.263    4.421    1.579 
#    0.000    0.789    0.000    0.000    0.000    0.000 
#    0.000    0.000    0.000    1.421    0.000    0.158 
#
# Total GULP energy -423458.071098 kJ/mol
# GULP energy per Si atom -5571.816725 kJ/mol
# Density = 1.914027 g / cm^3
# Si number density = 19.183929 Si / 1000 Ang^3
#
#
#
# Elastic Constant Matrix: (Units=GPa)
#
#
# Indices 1 2 3 4 5 6 
#
# 1 71.2785 25.1863 -4.9109 0.0000 0.0000 -0.0001
# 2 25.1863 71.2779 -4.9109 0.0000 0.0000 0.0000
# 3 -4.9109 -4.9109 74.4605 0.0000 0.0000 0.0000
# 4 0.0000 0.0000 0.0000 13.9720 -0.0001 0.0000
# 5 0.0000 0.0000 0.0000 -0.0001 13.9722 0.0000
# 6 -0.0001 0.0000 0.0000 0.0000 0.0000 23.0459
#
#
#
# Elastic Compliance Matrix: (Units=1/GPa)
#
#
# Indices 1 2 3 4 5 6 
#
# 1 0.016066 -0.005630 0.000688 0.000000 0.000000 0.000000
# 2 -0.005630 0.016066 0.000688 0.000000 0.000000 0.000000
# 3 0.000688 0.000688 0.013521 0.000000 0.000000 0.000000
# 4 0.000000 0.000000 0.000000 0.071572 0.000000 0.000000
# 5 0.000000 0.000000 0.000000 0.000000 0.071571 0.000000
# 6 0.000000 0.000000 0.000000 0.000000 0.000000 0.043392
#
#
# Mechanical properties :
#
#
# Convention : Reuss Voigt Hill
#
# Bulk Modulus (GPa) = 26.91993 27.52734 27.22363
# Shear Modulus (GPa) = 19.75697 23.64152 21.69924
#
# Velocity S-wave (km/s) = 3.21264 3.51431 3.36686
# Velocity P-wave (km/s) = 5.27489 5.55405 5.41627
#
# Compressibility (1/GPa) = 0.03714720
#
# Stress axis : x y z
#
# Youngs Moduli (GPa) = 62.24280 62.24225 73.96047
#
# Poissons Ratio (x) = 0.35040 -0.05091
# Poissons Ratio (y) = 0.35040 -0.05091
# Poissons Ratio (z) = -0.04284 -0.04284
#
# Static dielectric constant tensor:
#      x y z
#    x 1.728220 0.000000 0.000000 
#    y 0.000000 1.728220 0.000000 
#    z 0.000000 0.000000 1.683120 
# 
# From -- ./inp_files/2567.got.cif
#   From: 2010.05.17/outbox.cif.g08.bks.cpg/sg175_2_cif.got.tgz:2567.got - 2010.05.20 11:23:22.
