data_PCOD9581476
_publ_section_title
;
Structure prediction by ZEFSAII (Michael W. Deem and Ramdas Pophale) SiO2 
 PCOD9581476
Probable space group: P 6/M
;
_chemical_formula_sum "Si O2"
_cell_formula_units_Z 76
_cell_length_a 18.721687
_cell_length_b 18.721687
_cell_length_c 13.276123
_cell_angle_alpha 90.000000
_cell_angle_beta 90.000000
_cell_angle_gamma 120.000000
_cell_volume 4029.877637
_symmetry_space_group_name_H-M "P 6/M"
_symmetry_group_IT_number 175
_symmetry_cell_setting 'hexagonal'
loop_
_space_group_symop_operation_xyz
x,y,z
x-y,x,z
-y,x-y,z
-x,-y,z
-x+y,-x,z
y,-x+y,z
-x,-y,-z
-x+y,-x,-z
y,-x+y,-z
x,y,-z
x-y,x,-z
-y,x-y,-z
loop_
_atom_site_type_symbol
_atom_site_label
_atom_site_fract_x
_atom_site_fract_y
_atom_site_fract_z
Si Si1 0.815278 0.481991 0.385732
Si Si2 0.728874 0.199463 0.116153
Si Si3 0.513811 0.924917 0.669918
Si Si4 0.228930 0.883364 0.710264
Si Si5 0.057564 0.744575 0.381819
Si Si6 0.143578 0.606146 0.882778
Si Si7 0.333334 0.666667 0.625199
O O1 0.803603 0.497133 0.500000
O O2 0.851835 0.421575 0.375948
O O3 0.871486 0.570946 0.341281
O O4 0.725601 0.426223 0.338534
O O5 0.765930 0.152397 0.180800
O O6 0.783493 0.298803 0.125161
O O7 0.633234 0.171715 0.138674
O O8 0.730779 0.179010 0.000000
O O9 0.594951 0.929023 0.627507
O O10 0.513155 0.917493 0.791716
O O11 0.500000 0.000000 0.643030
O O12 0.140916 0.822583 0.659659
O O13 0.255444 0.977757 0.687474
O O14 0.043178 0.754770 0.500000
O O15 0.114009 0.594029 0.000000
O O16 0.333334 0.666668 0.500000
#
# Coordination Sequence:
#
# PCOD9581476 Si02
#       7
#    12  12  12  12  12  12   4
#     4  11  21  34  51  77 113 154 196 237 280 337
#     4  10  20  37  59  87 121 165 214 261 303 347
#     4  12  22  35  55  84 118 159 199 242 293 348
#     4  12  24  42  63  87 117 153 203 253 318 384
#     4  12  25  42  63  88 121 160 202 255 317 384
#     4  10  20  35  55  81 116 159 208 252 293 336
#     4   9  21  33  45  69 103 146 190 228 267 315
#
# _framework density 18.859134000000001
#
# number of rings (size 3 to 8) (size 9 to 14) (size 15 to 20)
#    0.000    0.947    4.737    3.158    0.000    3.474 
#    0.000    1.579    0.000    0.316    0.000    1.105 
#    0.000    0.000    0.000    1.421    0.000    0.158 
#
# Total GULP energy -423957.021157 kJ/mol
# GULP energy per Si atom -5578.381857 kJ/mol
# Density = 1.881621 g / cm^3
# Si number density = 18.859134 Si / 1000 Ang^3
#
#
#
# Elastic Constant Matrix: (Units=GPa)
#
#
# Indices 1 2 3 4 5 6 
#
# 1 74.6503 30.1000 6.7656 0.0000 0.0000 0.0005
# 2 30.1000 74.6492 6.7656 0.0000 0.0000 -0.0001
# 3 6.7656 6.7656 95.6224 0.0000 0.0000 0.0001
# 4 0.0000 0.0000 0.0000 29.9204 0.0008 0.0000
# 5 0.0000 0.0000 0.0000 0.0008 29.9150 0.0000
# 6 0.0005 -0.0001 0.0001 0.0000 0.0000 22.2742
#
#
#
# Elastic Compliance Matrix: (Units=1/GPa)
#
#
# Indices 1 2 3 4 5 6 
#
# 1 0.016041 -0.006406 -0.000682 0.000000 0.000000 0.000000
# 2 -0.006406 0.016041 -0.000682 0.000000 0.000000 0.000000
# 3 -0.000682 -0.000682 0.010554 0.000000 0.000000 0.000000
# 4 0.000000 0.000000 0.000000 0.033422 -0.000001 0.000000
# 5 0.000000 0.000000 0.000000 -0.000001 0.033428 0.000000
# 6 0.000000 0.000000 0.000000 0.000000 0.000000 0.044895
#
#
# Mechanical properties :
#
#
# Convention : Reuss Voigt Hill
#
# Bulk Modulus (GPa) = 36.90476 36.90937 36.90707
# Shear Modulus (GPa) = 27.94047 29.84131 28.89089
#
# Velocity S-wave (km/s) = 3.85325 3.98216 3.91823
# Velocity P-wave (km/s) = 6.27756 6.38413 6.33107
#
# Compressibility (1/GPa) = 0.02709677
#
# Stress axis : x y z
#
# Youngs Moduli (GPa) = 62.34184 62.34091 94.74842
#
# Poissons Ratio (x) = 0.39936 0.06459
# Poissons Ratio (y) = 0.39937 0.06459
# Poissons Ratio (z) = 0.04250 0.04250
#
# Static dielectric constant tensor:
#      x y z
#    x 1.680850 0.000000 0.000000 
#    y 0.000000 1.680860 0.000000 
#    z 0.000000 0.000000 1.721490 
# 
# From -- ./inp_files/2553.got.cif
#   From: 2010.05.17/outbox.cif.g08.bks.cpg/sg175_2_cif.got.tgz:2553.got - 2010.05.20 11:23:22.
