data_PCOD9581911
_publ_section_title
;
Structure prediction by ZEFSAII (Michael W. Deem and Ramdas Pophale) SiO2 
 PCOD9581911
Probable space group: P 63/M
;
_chemical_formula_sum "Si O2"
_cell_formula_units_Z 66
_cell_length_a 21.504664
_cell_length_b 21.504664
_cell_length_c 7.993379
_cell_angle_alpha 90.000000
_cell_angle_beta 90.000000
_cell_angle_gamma 120.000000
_cell_volume 3201.299889
_symmetry_space_group_name_H-M "P 63/M"
_symmetry_group_IT_number 176
_symmetry_cell_setting 'hexagonal'
loop_
_space_group_symop_operation_xyz
x,y,z
x-y,x,1/2+z
-y,x-y,z
-x,-y,1/2+z
-x+y,-x,z
y,-x+y,1/2+z
-x,-y,-z
-x+y,-x,1/2-z
y,-x+y,-z
x,y,1/2-z
x-y,x,-z
-y,x-y,1/2-z
loop_
_atom_site_type_symbol
_atom_site_label
_atom_site_fract_x
_atom_site_fract_y
_atom_site_fract_z
Si Si1 0.130422 0.460327 0.046531
Si Si2 0.675883 0.418228 0.750000
Si Si3 0.764316 0.721036 0.943464
Si Si4 0.829504 0.387711 0.440104
Si Si5 0.194932 0.879558 0.050838
Si Si6 0.410600 0.035089 0.448377
O O1 0.136274 0.464857 0.250000
O O2 0.144556 0.396268 0.989623
O O3 0.046524 0.429799 0.004110
O O4 0.171878 0.538600 0.965142
O O5 0.604052 0.339789 0.750000
O O6 0.670821 0.452841 0.579051
O O7 0.778374 0.742921 0.750000
O O8 0.832790 0.718684 0.017132
O O9 0.734503 0.769628 0.023490
O O10 0.698613 0.639575 0.957879
O O11 0.809442 0.362275 0.250000
O O12 0.910047 0.403886 0.474288
O O13 0.189760 0.866940 0.250000
O O14 0.395890 0.035099 0.250000
#
# Coordination Sequence:
#
# PCOD9581911 Si02
#       6
#    12   6  12  12  12  12
#     4   9  17  34  56  82 122 154 182 232 296 349
#     4  10  26  46  58  74 106 152 196 248 298 338
#     4  10  20  34  57  86 114 153 194 232 286 349
#     4  11  22  38  62  87 111 151 200 244 301 356
#     4   9  20  37  55  83 120 152 188 238 287 342
#     4   9  20  35  54  86 121 149 185 239 290 344
#
# _framework density 20.616624000000002
#
# number of rings (size 3 to 8) (size 9 to 14) (size 15 to 20)
#    0.182    2.182    0.909    2.182    1.273    6.545 
#    0.000    1.818    0.000    0.364    0.000    0.000 
#    0.000    0.000    0.000    0.000    0.000    0.000 
#
# Total GULP energy -368116.212496 kJ/mol
# GULP energy per Si atom -5577.518371 kJ/mol
# Density = 2.056970 g / cm^3
# Si number density = 20.616624 Si / 1000 Ang^3
#
#
#
# Elastic Constant Matrix: (Units=GPa)
#
#
# Indices 1 2 3 4 5 6 
#
# 1 58.6248 20.9449 -0.4450 0.0000 0.0000 0.0000
# 2 20.9449 58.6248 -0.4450 0.0000 0.0000 0.0000
# 3 -0.4450 -0.4450 29.3044 0.0000 0.0000 0.0000
# 4 0.0000 0.0000 0.0000 19.1917 0.0000 0.0000
# 5 0.0000 0.0000 0.0000 0.0000 19.1917 0.0000
# 6 0.0000 0.0000 0.0000 0.0000 0.0000 18.8399
#
#
#
# Elastic Compliance Matrix: (Units=1/GPa)
#
#
# Indices 1 2 3 4 5 6 
#
# 1 0.019555 -0.006985 0.000191 0.000000 0.000000 0.000000
# 2 -0.006985 0.019555 0.000191 0.000000 0.000000 0.000000
# 3 0.000191 0.000191 0.034130 0.000000 0.000000 0.000000
# 4 0.000000 0.000000 0.000000 0.052106 0.000000 0.000000
# 5 0.000000 0.000000 0.000000 0.000000 0.052106 0.000000
# 6 0.000000 0.000000 0.000000 0.000000 0.000000 0.053079
#
#
# Mechanical properties :
#
#
# Convention : Reuss Voigt Hill
#
# Bulk Modulus (GPa) = 16.65743 20.74043 18.69893
# Shear Modulus (GPa) = 18.95756 19.87795 19.41776
#
# Velocity S-wave (km/s) = 3.03566 3.10848 3.07229
# Velocity P-wave (km/s) = 4.51488 4.79222 4.65562
#
# Compressibility (1/GPa) = 0.06003328
#
# Stress axis : x y z
#
# Youngs Moduli (GPa) = 51.13895 51.13895 29.29947
#
# Poissons Ratio (x) = 0.35720 -0.00559
# Poissons Ratio (y) = 0.35720 -0.00559
# Poissons Ratio (z) = -0.00976 -0.00976
#
# Static dielectric constant tensor:
#      x y z
#    x 1.754270 0.000000 0.000000 
#    y 0.000000 1.754270 0.000000 
#    z 0.000000 0.000000 1.749230 
# 
# From -- ./inp_files/1012.got.cif
#   From: 2010.05.17/outbox.cif.g08.bks.cpg/sg176_1_cif.got.tgz:1012.got - 2010.06.03 11:36:45.
