data_PCOD9581747
_publ_section_title
;
Structure prediction by ZEFSAII (Michael W. Deem and Ramdas Pophale) SiO2 
 PCOD9581747
Probable space group: P 63/M
;
_chemical_formula_sum "Si O2"
_cell_formula_units_Z 72
_cell_length_a 22.413535
_cell_length_b 22.413535
_cell_length_c 7.386604
_cell_angle_alpha 90.000000
_cell_angle_beta 90.000000
_cell_angle_gamma 120.000000
_cell_volume 3213.632152
_symmetry_space_group_name_H-M "P 63/M"
_symmetry_group_IT_number 176
_symmetry_cell_setting 'hexagonal'
loop_
_space_group_symop_operation_xyz
x,y,z
x-y,x,1/2+z
-y,x-y,z
-x,-y,1/2+z
-x+y,-x,z
y,-x+y,1/2+z
-x,-y,-z
-x+y,-x,1/2-z
y,-x+y,-z
x,y,1/2-z
x-y,x,-z
-y,x-y,1/2-z
loop_
_atom_site_type_symbol
_atom_site_label
_atom_site_fract_x
_atom_site_fract_y
_atom_site_fract_z
Si Si1 0.377349 0.856388 0.470324
Si Si2 0.652165 0.501094 0.955478
Si Si3 0.395646 0.999691 0.468907
Si Si4 0.706396 0.761178 0.029213
Si Si5 0.864099 0.004106 0.957412
Si Si6 0.418652 0.221608 0.529788
O O1 0.379873 0.855758 0.250000
O O2 0.427377 0.829293 0.537324
O O3 0.402403 0.934517 0.525511
O O4 0.297476 0.817205 0.519618
O O5 0.666470 0.487531 0.750000
O O6 0.726099 0.554324 0.036757
O O7 0.612620 0.543676 0.952780
O O8 0.398675 0.003350 0.250000
O O9 0.319646 0.986149 0.521266
O O10 0.708164 0.763644 0.250000
O O11 0.784943 0.807999 0.966351
O O12 0.654598 0.788396 0.969119
O O13 0.844362 0.983469 0.750000
O O14 0.939062 0.072944 0.960030
O O15 0.412941 0.217970 0.750000
#
# Coordination Sequence:
#
# PCOD9581747 Si02
#       6
#    12  12  12  12  12  12
#     4   8  15  29  45  67  98 131 160 193 241 292
#     4  10  18  27  48  77  98 122 165 210 241 278
#     4   9  17  31  50  69  97 132 161 193 244 302
#     4   8  17  33  52  72  99 136 166 195 247 306
#     4  11  23  39  58  79 103 133 171 209 252 302
#     4   8  15  29  46  68 102 134 161 199 247 292
#
# _framework density 22.404554999999998
#
# number of rings (size 3 to 8) (size 9 to 14) (size 15 to 20)
#    0.000    3.000    0.000    3.167    2.333    0.000 
#    1.000    0.833    0.000    5.000    0.000    0.000 
#    0.000    0.000    0.000    0.000    0.000    0.000 
#
# Total GULP energy -401625.250750 kJ/mol
# GULP energy per Si atom -5578.128483 kJ/mol
# Density = 2.235356 g / cm^3
# Si number density = 22.404555 Si / 1000 Ang^3
#
#
#
# Elastic Constant Matrix: (Units=GPa)
#
#
# Indices 1 2 3 4 5 6 
#
# 1 46.7196 5.6288 -7.0311 0.0000 0.0000 0.0000
# 2 5.6288 46.7196 -7.0311 0.0000 0.0000 0.0000
# 3 -7.0311 -7.0311 75.9433 0.0000 0.0000 0.0000
# 4 0.0000 0.0000 0.0000 -18.3790 0.0000 0.0000
# 5 0.0000 0.0000 0.0000 0.0000 -18.3790 0.0000
# 6 0.0000 0.0000 0.0000 0.0000 0.0000 20.5454
#
#
#
# Elastic Compliance Matrix: (Units=1/GPa)
#
#
# Indices 1 2 3 4 5 6 
#
# 1 0.021963 -0.002373 0.001814 0.000000 0.000000 0.000000
# 2 -0.002373 0.021963 0.001814 0.000000 0.000000 0.000000
# 3 0.001814 0.001814 0.013504 0.000000 0.000000 0.000000
# 4 0.000000 0.000000 0.000000 -0.054410 0.000000 0.000000
# 5 0.000000 0.000000 0.000000 0.000000 -0.054410 0.000000
# 6 0.000000 0.000000 0.000000 0.000000 0.000000 0.048673
#
#
# Mechanical properties :
#
#
# Convention : Reuss Voigt Hill
#
# Bulk Modulus (GPa) = 16.68381 16.94620 16.81500
# Shear Modulus (GPa) = 338.90054 8.61188 173.75621
#
# Velocity S-wave (km/s) = 12.31229 1.96269 8.81603
# Velocity P-wave (km/s) = 14.47709 3.56600 10.54283
#
# Compressibility (1/GPa) = 0.05993836
#
# Stress axis : x y z
#
# Youngs Moduli (GPa) = 45.53078 45.53078 74.05460
#
# Poissons Ratio (x) = 0.10805 -0.13431
# Poissons Ratio (y) = 0.10805 -0.13431
# Poissons Ratio (z) = -0.08258 -0.08258
#
# Static dielectric constant tensor:
#      x y z
#    x 1.812510 0.000000 0.000000 
#    y 0.000000 1.812510 0.000000 
#    z 0.000000 0.000000 1.880620 
# 
# From -- ./inp_files/1207.got.cif
#   From: 2010.05.17/outbox.cif.g08.bks.cpg/sg176_1_cif.got.tgz:1207.got - 2010.06.03 11:36:45.
