data_PCOD9581087
_publ_section_title
;
Structure prediction by ZEFSAII (Michael W. Deem and Ramdas Pophale) SiO2 
 PCOD9581087
Probable space group: P 63
;
_chemical_formula_sum "Si O2"
_cell_formula_units_Z 36
_cell_length_a 8.649845
_cell_length_b 8.649845
_cell_length_c 26.648781
_cell_angle_alpha 90.000000
_cell_angle_beta 90.000000
_cell_angle_gamma 120.000000
_cell_volume 1726.730777
_symmetry_space_group_name_H-M "P 63"
_symmetry_group_IT_number 173
_symmetry_cell_setting 'hexagonal'
loop_
_space_group_symop_operation_xyz
x,y,z
x-y,x,1/2+z
-y,x-y,z
-x,-y,1/2+z
-x+y,-x,z
y,-x+y,1/2+z
loop_
_atom_site_type_symbol
_atom_site_label
_atom_site_fract_x
_atom_site_fract_y
_atom_site_fract_z
Si Si1 0.875091 0.110180 0.493290
Si Si2 0.970218 0.303910 0.389811
Si Si3 0.988100 0.340488 0.852092
Si Si4 0.354596 0.009755 0.736030
Si Si5 0.554884 0.717409 0.093679
Si Si6 0.681103 0.994987 0.694486
O O1 0.768621 0.135807 0.538011
O O2 0.089983 0.190943 0.496319
O O3 0.872332 0.201732 0.441146
O O4 0.148909 0.298792 0.376062
O O5 0.820131 0.184063 0.349832
O O6 0.014218 0.505604 0.385031
O O7 0.951527 0.359768 0.794306
O O8 0.198169 0.816224 0.717729
O O9 0.531370 0.047275 0.706927
O O10 0.281295 0.140462 0.721336
O O11 0.474725 0.850459 0.100428
O O12 0.693287 0.724839 0.135029
#
# Coordination Sequence:
#
# PCOD9581087 Si02
#       6
#     6   6   6   6   6   6
#     4  10  23  43  69  99 134 173 229 289 347 412
#     4  12  25  45  67 102 141 180 233 291 338 422
#     4  12  24  42  68  98 137 183 230 275 348 407
#     4  12  24  42  68  98 137 183 226 282 340 415
#     4  10  23  43  69  99 130 177 224 283 358 416
#     4  12  25  45  67 102 141 178 234 288 345 418
#
# _framework density 20.848645000000001
#
# number of rings (size 3 to 8) (size 9 to 14) (size 15 to 20)
#    0.667    0.000    3.333    5.000    4.667    0.000 
#    0.000    0.000    0.000    2.667    0.000    0.000 
#    0.000    0.000    0.000    0.000    0.000    0.000 
#
# Total GULP energy -200634.284259 kJ/mol
# GULP energy per Si atom -5573.174563 kJ/mol
# Density = 2.080119 g / cm^3
# Si number density = 20.848645 Si / 1000 Ang^3
#
#
#
# Elastic Constant Matrix: (Units=GPa)
#
#
# Indices 1 2 3 4 5 6 
#
# 1 48.7416 -5.8451 12.1684 0.0000 0.0000 0.0000
# 2 -5.8451 48.7416 12.1684 0.0000 0.0000 0.0000
# 3 12.1684 12.1684 115.5994 0.0000 0.0000 0.0000
# 4 0.0000 0.0000 0.0000 15.7371 0.0000 0.0000
# 5 0.0000 0.0000 0.0000 0.0000 15.7371 0.0000
# 6 0.0000 0.0000 0.0000 0.0000 0.0000 27.2933
#
#
#
# Elastic Compliance Matrix: (Units=1/GPa)
#
#
# Indices 1 2 3 4 5 6 
#
# 1 0.021556 0.003237 -0.002610 0.000000 0.000000 0.000000
# 2 0.003237 0.021556 -0.002610 0.000000 0.000000 0.000000
# 3 -0.002610 -0.002610 0.009200 0.000000 0.000000 0.000000
# 4 0.000000 0.000000 0.000000 0.063544 0.000000 0.000000
# 5 0.000000 0.000000 0.000000 0.000000 0.063544 0.000000
# 6 0.000000 0.000000 0.000000 0.000000 0.000000 0.036639
#
#
# Mechanical properties :
#
#
# Convention : Reuss Voigt Hill
#
# Bulk Modulus (GPa) = 20.68421 27.78512 24.23467
# Shear Modulus (GPa) = 21.17561 24.72622 22.95092
#
# Velocity S-wave (km/s) = 3.19044 3.44755 3.32148
# Velocity P-wave (km/s) = 4.84918 5.40402 5.13410
#
# Compressibility (1/GPa) = 0.04834605
#
# Stress axis : x y z
#
# Youngs Moduli (GPa) = 46.39077 46.39077 108.69575
#
# Poissons Ratio (x) = -0.15015 0.28367
# Poissons Ratio (y) = -0.15015 0.28367
# Poissons Ratio (z) = 0.12107 0.12107
#
# Static dielectric constant tensor:
#      x y z
#    x 1.749150 0.000000 0.000000 
#    y 0.000000 1.749150 0.000000 
#    z 0.000000 0.000000 1.772730 
# 
# From -- ./inp_files/1473.got.cif
#   From: 2010.05.17/outbox.cif.g08.bks.cpg/sg173_cif.got.tgz:1473.got - 2010.05.20 11:21:53.
