data_PCOD9581497
_publ_section_title
;
Structure prediction by ZEFSAII (Michael W. Deem and Ramdas Pophale) SiO2 
 PCOD9581497
Probable space group: P 6/M
;
_chemical_formula_sum "Si O2"
_cell_formula_units_Z 72
_cell_length_a 22.899805
_cell_length_b 22.899805
_cell_length_c 7.866469
_cell_angle_alpha 90.000000
_cell_angle_beta 90.000000
_cell_angle_gamma 120.000000
_cell_volume 3572.514792
_symmetry_space_group_name_H-M "P 6/M"
_symmetry_group_IT_number 175
_symmetry_cell_setting 'hexagonal'
loop_
_space_group_symop_operation_xyz
x,y,z
x-y,x,z
-y,x-y,z
-x,-y,z
-x+y,-x,z
y,-x+y,z
-x,-y,-z
-x+y,-x,-z
y,-x+y,-z
x,y,-z
x-y,x,-z
-y,x-y,-z
loop_
_atom_site_type_symbol
_atom_site_label
_atom_site_fract_x
_atom_site_fract_y
_atom_site_fract_z
Si Si1 0.155738 0.291428 0.802041
Si Si2 0.375716 0.384861 0.707577
Si Si3 0.757826 0.013612 0.699343
Si Si4 0.441181 0.242365 0.198188
Si Si5 0.843577 0.346947 0.705823
Si Si6 0.113493 0.507217 0.302639
O O1 0.193572 0.255441 0.720556
O O2 0.181466 0.367426 0.733938
O O3 0.075009 0.251624 0.782839
O O4 0.174075 0.298871 0.000000
O O5 0.376674 0.382417 0.500000
O O6 0.321745 0.309842 0.766301
O O7 0.352301 0.437688 0.751323
O O8 0.450829 0.408854 0.771009
O O9 0.763486 0.029384 0.500000
O O10 0.492010 0.213905 0.216618
O O11 0.472370 0.313475 0.290955
O O12 0.432724 0.253650 0.000000
O O13 0.835256 0.340997 0.500000
O O14 0.850229 0.417098 0.766378
O O15 0.100262 0.515416 0.500000
#
# Coordination Sequence:
#
# PCOD9581497 Si02
#       6
#    12  12  12  12  12  12
#     4  11  23  39  59  88 126 161 193 237 294 354
#     4   9  17  31  56  87 114 140 178 237 294 336
#     4  11  21  36  63  92 119 156 199 243 290 345
#     4  11  23  37  55  79 114 154 193 238 292 351
#     4  10  20  36  58  82 109 144 190 240 291 344
#     4  10  20  36  58  82 109 144 190 240 291 344
#
# _framework density 20.153872
#
# number of rings (size 3 to 8) (size 9 to 14) (size 15 to 20)
#    0.000    1.667    3.333    2.000    0.000    4.000 
#    1.000    0.833    0.000    2.333    0.000    2.333 
#    0.000    0.000    0.000    0.000    0.000    0.000 
#
# Total GULP energy -402113.327222 kJ/mol
# GULP energy per Si atom -5584.907323 kJ/mol
# Density = 2.010800 g / cm^3
# Si number density = 20.153872 Si / 1000 Ang^3
#
#
#
# Elastic Constant Matrix: (Units=GPa)
#
#
# Indices 1 2 3 4 5 6 
#
# 1 70.6955 8.8200 -9.4062 0.0000 0.0000 0.0000
# 2 8.8200 70.6955 -9.4062 0.0000 0.0000 0.0000
# 3 -9.4062 -9.4062 29.2732 0.0000 0.0000 0.0000
# 4 0.0000 0.0000 0.0000 9.0222 0.0000 0.0000
# 5 0.0000 0.0000 0.0000 0.0000 9.0222 0.0000
# 6 0.0000 0.0000 0.0000 0.0000 0.0000 30.9378
#
#
#
# Elastic Compliance Matrix: (Units=1/GPa)
#
#
# Indices 1 2 3 4 5 6 
#
# 1 0.014886 -0.001275 0.004373 0.000000 0.000000 0.000000
# 2 -0.001275 0.014886 0.004373 0.000000 0.000000 0.000000
# 3 0.004373 0.004373 0.036972 0.000000 0.000000 0.000000
# 4 0.000000 0.000000 0.000000 0.110838 0.000000 0.000000
# 5 0.000000 0.000000 0.000000 0.000000 0.110838 0.000000
# 6 0.000000 0.000000 0.000000 0.000000 0.000000 0.032323
#
#
# Mechanical properties :
#
#
# Convention : Reuss Voigt Hill
#
# Bulk Modulus (GPa) = 12.24182 16.74218 14.49200
# Shear Modulus (GPa) = 15.01376 21.84022 18.42699
#
# Velocity S-wave (km/s) = 2.73235 3.29549 3.02704
# Velocity P-wave (km/s) = 4.00521 4.77552 4.40722
#
# Compressibility (1/GPa) = 0.08168720
#
# Stress axis : x y z
#
# Youngs Moduli (GPa) = 67.17645 67.17645 27.04785
#
# Poissons Ratio (x) = 0.08567 -0.11829
# Poissons Ratio (y) = 0.08567 -0.11829
# Poissons Ratio (z) = -0.29380 -0.29380
#
# Static dielectric constant tensor:
#      x y z
#    x 1.711070 0.000000 0.000000 
#    y 0.000000 1.711070 0.000000 
#    z 0.000000 0.000000 1.748340 
# 
# From -- ./inp_files/1208.got.cif
#   From: 2010.05.17/outbox.cif.g08.bks.cpg/sg175_1_cif.got.tgz:1208.got - 2010.05.20 11:23:22.
