data_PCOD9581270
_publ_section_title
;
Structure prediction by ZEFSAII (Michael W. Deem and Ramdas Pophale) SiO2 
 PCOD9581270
Probable space group: P 6/M
;
_chemical_formula_sum "Si O2"
_cell_formula_units_Z 72
_cell_length_a 23.278055
_cell_length_b 23.278055
_cell_length_c 7.855431
_cell_angle_alpha 90.000000
_cell_angle_beta 90.000000
_cell_angle_gamma 120.000000
_cell_volume 3686.328466
_symmetry_space_group_name_H-M "P 6/M"
_symmetry_group_IT_number 175
_symmetry_cell_setting 'hexagonal'
loop_
_space_group_symop_operation_xyz
x,y,z
x-y,x,z
-y,x-y,z
-x,-y,z
-x+y,-x,z
y,-x+y,z
-x,-y,-z
-x+y,-x,-z
y,-x+y,-z
x,y,-z
x-y,x,-z
-y,x-y,-z
loop_
_atom_site_type_symbol
_atom_site_label
_atom_site_fract_x
_atom_site_fract_y
_atom_site_fract_z
Si Si1 0.154513 0.285023 0.803954
Si Si2 0.375902 0.382876 0.707782
Si Si3 0.757776 0.013846 0.697778
Si Si4 0.438691 0.225979 0.294078
Si Si5 0.854202 0.360320 0.708217
Si Si6 0.124952 0.501373 0.292037
O O1 0.192149 0.251693 0.710347
O O2 0.187085 0.362919 0.757438
O O3 0.075533 0.252549 0.776526
O O4 0.167673 0.280424 0.000000
O O5 0.372230 0.380743 0.500000
O O6 0.318645 0.310492 0.767463
O O7 0.364856 0.442185 0.762834
O O8 0.449113 0.399315 0.755761
O O9 0.761432 0.032089 0.500000
O O10 0.437699 0.226368 0.500000
O O11 0.489157 0.201579 0.238440
O O12 0.467480 0.300735 0.233699
O O13 0.854101 0.361705 0.500000
O O14 0.851017 0.424364 0.766672
O O15 0.127606 0.503311 0.500000
#
# Coordination Sequence:
#
# PCOD9581270 Si02
#       6
#    12  12  12  12  12  12
#     4  12  24  38  58  89 123 152 186 238 293 341
#     4   9  15  25  48  76 103 135 177 228 283 337
#     4  11  21  38  63  88 115 154 195 233 282 351
#     4  10  18  32  52  76 107 151 198 241 295 358
#     4   9  16  26  43  72 107 140 183 239 291 336
#     4   9  16  26  43  72 107 140 183 239 291 336
#
# _framework density 19.53163
#
# number of rings (size 3 to 8) (size 9 to 14) (size 15 to 20)
#    0.000    2.000    3.333    2.500    0.000    2.000 
#    1.000    0.000    0.000    1.333    0.000    4.667 
#    0.000    0.000    0.000    0.000    0.000    0.000 
#
# Total GULP energy -401792.840156 kJ/mol
# GULP energy per Si atom -5580.456113 kJ/mol
# Density = 1.948718 g / cm^3
# Si number density = 19.531630 Si / 1000 Ang^3
#
#
#
# Elastic Constant Matrix: (Units=GPa)
#
#
# Indices 1 2 3 4 5 6 
#
# 1 76.0249 15.5251 -8.8171 0.0000 0.0000 0.0000
# 2 15.5251 76.0249 -8.8171 0.0000 0.0000 0.0000
# 3 -8.8171 -8.8171 25.0196 0.0000 0.0000 0.0000
# 4 0.0000 0.0000 0.0000 -10.7663 0.0000 0.0000
# 5 0.0000 0.0000 0.0000 0.0000 -10.7663 0.0000
# 6 0.0000 0.0000 0.0000 0.0000 0.0000 30.2499
#
#
#
# Elastic Compliance Matrix: (Units=1/GPa)
#
#
# Indices 1 2 3 4 5 6 
#
# 1 0.014124 -0.002405 0.004130 0.000000 0.000000 0.000000
# 2 -0.002405 0.014124 0.004130 0.000000 0.000000 0.000000
# 3 0.004130 0.004130 0.042879 0.000000 0.000000 0.000000
# 4 0.000000 0.000000 0.000000 -0.092882 0.000000 0.000000
# 5 0.000000 0.000000 0.000000 0.000000 -0.092882 0.000000
# 6 0.000000 0.000000 0.000000 0.000000 0.000000 0.033058
#
#
# Mechanical properties :
#
#
# Convention : Reuss Voigt Hill
#
# Bulk Modulus (GPa) = 12.07220 19.20568 15.63894
# Shear Modulus (GPa) = -76.13063 13.68870 -31.22097
#
# Velocity S-wave (km/s) = -6.25002 2.65023 -4.00244
# Velocity P-wave (km/s) = 6.77417 4.38399 3.65171
#
# Compressibility (1/GPa) = 0.08283496
#
# Stress axis : x y z
#
# Youngs Moduli (GPa) = 70.80292 70.80292 23.32126
#
# Poissons Ratio (x) = 0.17030 -0.09631
# Poissons Ratio (y) = 0.17030 -0.09631
# Poissons Ratio (z) = -0.29239 -0.29239
#
# Static dielectric constant tensor:
#      x y z
#    x 1.675600 0.000000 0.000000 
#    y 0.000000 1.675600 0.000000 
#    z 0.000000 0.000000 1.721330 
# 
# From -- ./inp_files/1211.got.cif
#   From: 2010.05.17/outbox.cif.g08.bks.cpg/sg175_1_cif.got.tgz:1211.got - 2010.05.20 11:23:22.
