data_PCOD9581279
_publ_section_title
;
Structure prediction by ZEFSAII (Michael W. Deem and Ramdas Pophale) SiO2 
 PCOD9581279
Probable space group: P 6/M
;
_chemical_formula_sum "Si O2"
_cell_formula_units_Z 78
_cell_length_a 24.333575
_cell_length_b 24.333575
_cell_length_c 7.614537
_cell_angle_alpha 90.000000
_cell_angle_beta 90.000000
_cell_angle_gamma 120.000000
_cell_volume 3904.684695
_symmetry_space_group_name_H-M "P 6/M"
_symmetry_group_IT_number 175
_symmetry_cell_setting 'hexagonal'
loop_
_space_group_symop_operation_xyz
x,y,z
x-y,x,z
-y,x-y,z
-x,-y,z
-x+y,-x,z
y,-x+y,z
-x,-y,-z
-x+y,-x,-z
y,-x+y,-z
x,y,-z
x-y,x,-z
-y,x-y,-z
loop_
_atom_site_type_symbol
_atom_site_label
_atom_site_fract_x
_atom_site_fract_y
_atom_site_fract_z
Si Si1 0.103346 0.694327 0.712342
Si Si2 0.918629 0.190307 0.715112
Si Si3 0.555553 0.566553 0.792444
Si Si4 0.244718 0.752542 0.698547
Si Si5 0.059551 0.260580 0.289073
Si Si6 0.689511 0.276297 0.000000
Si Si7 0.404025 0.296074 0.790276
O O1 0.102676 0.695242 0.500000
O O2 0.092813 0.752081 0.771392
O O3 0.049663 0.625305 0.771328
O O4 0.173111 0.708974 0.765588
O O5 0.917317 0.189930 0.500000
O O6 0.862384 0.121895 0.775780
O O7 0.989404 0.208309 0.771473
O O8 0.500000 0.500000 0.718596
O O9 0.561638 0.631699 0.723174
O O10 0.542882 0.566097 0.000000
O O11 0.250348 0.734611 0.500000
O O12 0.294501 0.750135 0.828557
O O13 0.257234 0.823898 0.701853
O O14 0.059770 0.255649 0.500000
O O15 0.068590 0.329311 0.245655
O O16 0.733462 0.352900 0.000000
O O17 0.413091 0.295800 0.000000
#
# Coordination Sequence:
#
# PCOD9581279 Si02
#       7
#    12  12  12  12  12   6  12
#     4  10  20  35  58  89 115 150 199 243 301 368
#     4   9  17  30  54  82 114 151 194 245 301 364
#     4  10  23  39  54  81 120 160 194 239 300 370
#     4  11  23  41  67  94 120 157 206 255 309 370
#     4  10  18  33  55  82 115 155 200 248 303 365
#     4  10  26  48  66  86 116 157 202 262 313 372
#     4  11  21  35  57  87 120 156 200 244 304 370
#
# _framework density 19.976006000000002
#
# number of rings (size 3 to 8) (size 9 to 14) (size 15 to 20)
#    0.154    1.692    3.846    0.462    1.077    2.769 
#    0.000    2.308    0.000    0.308    0.000    2.154 
#    0.000    0.000    0.000    1.385    0.000    1.538 
#
# Total GULP energy -435506.744370 kJ/mol
# GULP energy per Si atom -5583.419800 kJ/mol
# Density = 1.993054 g / cm^3
# Si number density = 19.976006 Si / 1000 Ang^3
#
#
#
# Elastic Constant Matrix: (Units=GPa)
#
#
# Indices 1 2 3 4 5 6 
#
# 1 92.0983 20.3561 1.3609 0.0000 0.0000 0.0000
# 2 20.3561 92.0983 1.3609 0.0000 0.0000 0.0000
# 3 1.3609 1.3609 47.7165 0.0000 0.0000 0.0000
# 4 0.0000 0.0000 0.0000 3.6116 0.0000 0.0000
# 5 0.0000 0.0000 0.0000 0.0000 3.6116 0.0000
# 6 0.0000 0.0000 0.0000 0.0000 0.0000 35.8711
#
#
#
# Elastic Compliance Matrix: (Units=1/GPa)
#
#
# Indices 1 2 3 4 5 6 
#
# 1 0.011419 -0.002520 -0.000254 0.000000 0.000000 0.000000
# 2 -0.002520 0.011419 -0.000254 0.000000 0.000000 0.000000
# 3 -0.000254 -0.000254 0.020972 0.000000 0.000000 0.000000
# 4 0.000000 0.000000 0.000000 0.276884 0.000000 0.000000
# 5 0.000000 0.000000 0.000000 0.000000 0.276884 0.000000
# 6 0.000000 0.000000 0.000000 0.000000 0.000000 0.027878
#
#
# Mechanical properties :
#
#
# Convention : Reuss Voigt Hill
#
# Bulk Modulus (GPa) = 26.48748 30.89654 28.69201
# Shear Modulus (GPa) = 7.76284 22.54123 15.15203
#
# Velocity S-wave (km/s) = 1.97345 3.36283 2.75710
# Velocity P-wave (km/s) = 4.29897 5.52979 4.95276
#
# Compressibility (1/GPa) = 0.03775369
#
# Stress axis : x y z
#
# Youngs Moduli (GPa) = 87.57554 87.57554 47.68358
#
# Poissons Ratio (x) = 0.22070 0.01210
# Poissons Ratio (y) = 0.22070 0.01210
# Poissons Ratio (z) = 0.02223 0.02223
#
# Static dielectric constant tensor:
#      x y z
#    x 1.696570 0.000000 0.000000 
#    y 0.000000 1.696570 0.000000 
#    z 0.000000 0.000000 1.726460 
# 
# From -- ./inp_files/1345.got.cif
#   From: 2010.05.17/outbox.cif.g08.bks.cpg/sg175_1_cif.got.tgz:1345.got - 2010.05.20 11:23:22.
