data_PCOD9581336
_publ_section_title
;
Structure prediction by ZEFSAII (Michael W. Deem and Ramdas Pophale) SiO2 
 PCOD9581336
Probable space group: P 6/M
;
_chemical_formula_sum "Si O2"
_cell_formula_units_Z 96
_cell_length_a 14.816921
_cell_length_b 14.816921
_cell_length_c 28.657892
_cell_angle_alpha 90.000000
_cell_angle_beta 90.000000
_cell_angle_gamma 120.000000
_cell_volume 5448.673745
_symmetry_space_group_name_H-M "P 6/M"
_symmetry_group_IT_number 175
_symmetry_cell_setting 'hexagonal'
loop_
_space_group_symop_operation_xyz
x,y,z
x-y,x,z
-y,x-y,z
-x,-y,z
-x+y,-x,z
y,-x+y,z
-x,-y,-z
-x+y,-x,-z
y,-x+y,-z
x,y,-z
x-y,x,-z
-y,x-y,-z
loop_
_atom_site_type_symbol
_atom_site_label
_atom_site_fract_x
_atom_site_fract_y
_atom_site_fract_z
Si Si1 0.432554 0.558282 0.865244
Si Si2 0.230954 0.417133 0.264899
Si Si3 0.246625 0.095413 0.449987
Si Si4 0.157100 0.242658 0.187821
Si Si5 0.109301 0.747392 0.094955
Si Si6 0.109013 0.426141 0.947375
Si Si7 0.876638 0.458063 0.760766
Si Si8 0.152801 0.249535 0.346220
O O1 0.500000 0.500000 0.861896
O O2 0.316729 0.469441 0.876521
O O3 0.480495 0.631251 0.910068
O O4 0.443799 0.607239 0.814516
O O5 0.217298 0.344651 0.220095
O O6 0.150247 0.459814 0.262060
O O7 0.345368 0.518498 0.263218
O O8 0.206347 0.340916 0.308579
O O9 0.188216 0.161818 0.450262
O O10 0.305288 0.118095 0.500000
O O11 0.296848 0.114884 0.398820
O O12 0.194602 0.159857 0.197477
O O13 0.184403 0.277014 0.133874
O O14 0.193791 0.818011 0.057328
O O15 0.003904 0.661955 0.070598
O O16 0.104793 0.458971 0.000000
O O17 0.000000 0.500000 0.760984
O O18 0.192105 0.165460 0.340858
#
# Coordination Sequence:
#
# PCOD9581336 Si02
#       8
#    12  12  12  12  12  12  12  12
#     4   9  21  37  58  76  97 129 168 214 263 315
#     4  12  24  37  59  82 110 148 187 237 292 337
#     4   8  13  22  40  68 108 155 199 238 278 330
#     4  12  23  39  61  87 118 151 186 221 263 330
#     4  11  21  39  60  81 109 141 173 212 263 325
#     4  11  23  39  60  84 110 139 176 220 272 326
#     4  11  22  39  57  80 107 138 181 225 276 336
#     4  10  19  32  50  82 121 160 198 235 283 341
#
# _framework density 17.618966
#
# number of rings (size 3 to 8) (size 9 to 14) (size 15 to 20)
#    0.000    1.500    2.500    4.000    1.750    4.250 
#    0.750    1.250    0.000    0.000    0.000    2.625 
#    0.000    5.000    0.000    0.000    0.000    0.000 
#
# Total GULP energy -535512.075836 kJ/mol
# GULP energy per Si atom -5578.250790 kJ/mol
# Density = 1.757886 g / cm^3
# Si number density = 17.618966 Si / 1000 Ang^3
#
#
#
# Elastic Constant Matrix: (Units=GPa)
#
#
# Indices 1 2 3 4 5 6 
#
# 1 60.6830 1.3096 24.2608 0.0000 0.0000 0.0000
# 2 1.3096 60.6830 24.2608 0.0000 0.0000 0.0000
# 3 24.2608 24.2608 124.6673 0.0000 0.0000 0.0000
# 4 0.0000 0.0000 0.0000 13.6998 0.0000 0.0000
# 5 0.0000 0.0000 0.0000 0.0000 13.6998 0.0000
# 6 0.0000 0.0000 0.0000 0.0000 0.0000 29.6867
#
#
#
# Elastic Compliance Matrix: (Units=1/GPa)
#
#
# Indices 1 2 3 4 5 6 
#
# 1 0.017936 0.001093 -0.003703 0.000000 0.000000 0.000000
# 2 0.001093 0.017936 -0.003703 0.000000 0.000000 0.000000
# 3 -0.003703 -0.003703 0.009463 0.000000 0.000000 0.000000
# 4 0.000000 0.000000 0.000000 0.072994 0.000000 0.000000
# 5 0.000000 0.000000 0.000000 0.000000 0.072994 0.000000
# 6 0.000000 0.000000 0.000000 0.000000 0.000000 0.033685
#
#
# Mechanical properties :
#
#
# Convention : Reuss Voigt Hill
#
# Bulk Modulus (GPa) = 30.57287 38.41062 34.49175
# Shear Modulus (GPa) = 20.11778 24.49741 22.30759
#
# Velocity S-wave (km/s) = 3.38276 3.73285 3.56211
# Velocity P-wave (km/s) = 5.71378 6.35822 6.04460
#
# Compressibility (1/GPa) = 0.03270874
#
# Stress axis : x y z
#
# Youngs Moduli (GPa) = 55.75380 55.75380 105.67842
#
# Poissons Ratio (x) = -0.06096 0.39135
# Poissons Ratio (y) = -0.06096 0.39135
# Poissons Ratio (z) = 0.20647 0.20647
#
# Static dielectric constant tensor:
#      x y z
#    x 1.607490 0.000000 0.000000 
#    y 0.000000 1.607490 0.000000 
#    z 0.000000 0.000000 1.638190 
# 
# From -- ./inp_files/3333.got.cif
#   From: 2010.05.17/outbox.cif.g08.bks.cpg/sg175_2_cif.got.tgz:3333.got - 2010.05.20 11:23:22.
