data_PCOD9581430
_publ_section_title
;
Structure prediction by ZEFSAII (Michael W. Deem and Ramdas Pophale) SiO2 
 PCOD9581430
Probable space group: P 6/M
;
_chemical_formula_sum "Si O2"
_cell_formula_units_Z 60
_cell_length_a 23.674896
_cell_length_b 23.674896
_cell_length_c 7.836151
_cell_angle_alpha 90.000000
_cell_angle_beta 90.000000
_cell_angle_gamma 120.000000
_cell_volume 3803.729174
_symmetry_space_group_name_H-M "P 6/M"
_symmetry_group_IT_number 175
_symmetry_cell_setting 'hexagonal'
loop_
_space_group_symop_operation_xyz
x,y,z
x-y,x,z
-y,x-y,z
-x,-y,z
-x+y,-x,z
y,-x+y,z
-x,-y,-z
-x+y,-x,-z
y,-x+y,-z
x,y,-z
x-y,x,-z
-y,x-y,-z
loop_
_atom_site_type_symbol
_atom_site_label
_atom_site_fract_x
_atom_site_fract_y
_atom_site_fract_z
Si Si1 0.379578 0.123872 0.807769
Si Si2 0.793394 0.719958 0.500000
Si Si3 0.073436 0.280042 0.500000
Si Si4 0.876128 0.620422 0.807769
Si Si5 0.601262 0.076596 0.706139
Si Si6 0.601262 0.524666 0.706139
O O1 0.325508 0.084412 0.664737
O O2 0.397425 0.198712 0.787858
O O3 0.441433 0.114650 0.780252
O O4 0.354281 0.102930 0.000000
O O5 0.779333 0.779333 0.500000
O O6 0.868587 0.737173 0.500000
O O7 0.084412 0.325508 0.664737
O O8 0.885350 0.558567 0.780252
O O9 0.897070 0.645719 0.000000
O O10 0.605749 0.080824 0.500000
O O11 0.548812 0.097624 0.760032
O O12 0.569095 0.000000 0.750555
O O13 0.605749 0.524925 0.500000
#
# Coordination Sequence:
#
# PCOD9581430 Si02
#       6
#    12   6   6  12  12  12
#     4  10  20  32  48  71  97 127 162 198 238 282
#     4  10  20  34  51  72  99 127 155 191 235 283
#     4  10  20  34  51  72  99 127 155 191 235 283
#     4  10  20  32  48  71  97 127 162 198 238 282
#     4   9  17  29  46  69  95 122 154 193 235 278
#     4   9  17  29  46  69  95 122 154 193 235 278
#
# _framework density 15.773993000000001
#
# number of rings (size 3 to 8) (size 9 to 14) (size 15 to 20)
#    0.000    2.400    2.000    2.400    0.000    4.000 
#    0.000    2.000    0.000    1.000    0.000    0.000 
#    0.000    0.000    0.000   10.000    0.000    0.000 
#
# Total GULP energy -334544.453437 kJ/mol
# GULP energy per Si atom -5575.740891 kJ/mol
# Density = 1.573809 g / cm^3
# Si number density = 15.773993 Si / 1000 Ang^3
#
#
#
# Elastic Constant Matrix: (Units=GPa)
#
#
# Indices 1 2 3 4 5 6 
#
# 1 85.3226 46.8292 38.4899 0.0000 0.0000 0.0000
# 2 46.8292 85.3226 38.4899 0.0000 0.0000 0.0000
# 3 38.4899 38.4899 83.5733 0.0000 0.0000 0.0000
# 4 0.0000 0.0000 0.0000 -8.0648 0.0000 0.0000
# 5 0.0000 0.0000 0.0000 0.0000 -8.0648 0.0000
# 6 0.0000 0.0000 0.0000 0.0000 0.0000 19.2467
#
#
#
# Elastic Compliance Matrix: (Units=1/GPa)
#
#
# Indices 1 2 3 4 5 6 
#
# 1 0.018160 -0.007819 -0.004763 0.000000 0.000000 0.000000
# 2 -0.007819 0.018160 -0.004763 0.000000 0.000000 0.000000
# 3 -0.004763 -0.004763 0.016353 0.000000 0.000000 0.000000
# 4 0.000000 0.000000 0.000000 -0.123996 0.000000 0.000000
# 5 0.000000 0.000000 0.000000 0.000000 -0.123996 0.000000
# 6 0.000000 0.000000 0.000000 0.000000 0.000000 0.051957
#
#
# Mechanical properties :
#
#
# Convention : Reuss Voigt Hill
#
# Bulk Modulus (GPa) = 55.60398 55.75960 55.68179
# Shear Modulus (GPa) = -48.69507 9.31739 -19.68884
#
# Velocity S-wave (km/s) = -5.56215 2.43303 -3.53680
# Velocity P-wave (km/s) = 2.43373 6.58169 4.32410
#
# Compressibility (1/GPa) = 0.01798432
#
# Stress axis : x y z
#
# Youngs Moduli (GPa) = 55.06618 55.06618 61.15257
#
# Poissons Ratio (x) = 0.43054 0.29125
# Poissons Ratio (y) = 0.43054 0.29125
# Poissons Ratio (z) = 0.26227 0.26227
#
# Static dielectric constant tensor:
#      x y z
#    x 1.511070 0.000000 0.000000 
#    y 0.000000 1.511070 0.000000 
#    z 0.000000 0.000000 1.568320 
# 
# From -- ./inp_files/1129.got.cif
#   From: 2010.05.17/outbox.cif.g08.bks.cpg/sg175_1_cif.got.tgz:1129.got - 2010.05.20 11:23:22.
