data_PCOD9581723
_publ_section_title
;
Structure prediction by ZEFSAII (Michael W. Deem and Ramdas Pophale) SiO2 
 PCOD9581723
Probable space group: P 6/M
;
_chemical_formula_sum "Si O2"
_cell_formula_units_Z 60
_cell_length_a 21.000000
_cell_length_b 21.000000
_cell_length_c 9.000000
_cell_angle_alpha 90.000000
_cell_angle_beta 90.000000
_cell_angle_gamma 120.000000
_cell_volume 3437.254828
_symmetry_space_group_name_H-M "P 6/M"
_symmetry_group_IT_number 175
_symmetry_cell_setting 'hexagonal'
loop_
_space_group_symop_operation_xyz
x,y,z
x-y,x,z
-y,x-y,z
-x,-y,z
-x+y,-x,z
y,-x+y,z
-x,-y,-z
-x+y,-x,-z
y,-x+y,-z
x,y,-z
x-y,x,-z
-y,x-y,-z
loop_
_atom_site_type_symbol
_atom_site_label
_atom_site_fract_x
_atom_site_fract_y
_atom_site_fract_z
Si Si1 0.041645 0.875545 0.500000
Si Si2 0.997998 0.233929 0.749904
Si Si3 0.870356 0.264109 0.170490
Si Si4 0.423511 0.999042 0.820155
Si Si5 0.126229 0.960555 0.000000
Si Si6 0.606610 0.729377 0.328701
O O1 0.960034 0.861919 0.500000
O O2 0.046760 0.832928 0.639946
O O3 0.059541 0.307398 0.671593
O O4 0.935055 0.243500 0.828800
O O5 0.043882 0.213310 0.860201
O O6 0.796612 0.199030 0.254532
O O7 0.922681 0.350363 0.225981
O O8 0.848065 0.266060 0.000000
O O9 0.351302 0.925782 0.752952
O O10 0.500000 0.000000 0.785647
O O11 0.414422 0.995261 0.000000
O O12 0.041866 0.903112 0.000000
O O13 0.580970 0.720151 0.500000
#
# Coordination Sequence:
#
# PCOD9581723 Si02
#       6
#     6  12  12  12   6  12
#     4  12  23  36  46  62  91 134 178 224 276 332
#     4  11  23  35  51  72 100 135 178 233 283 324
#     4  10  20  35  58  84 108 140 183 229 277 331
#     4   9  20  39  61  87 119 152 187 232 288 344
#     4  12  23  36  48  64  89 130 180 232 280 326
#     4  11  22  35  56  85 113 144 184 227 276 335
#
# _framework density 17.45579
#
# number of rings (size 3 to 8) (size 9 to 14) (size 15 to 20)
#    0.000    1.400    2.000    4.400    4.200    1.200 
#    0.000    2.000    0.000    0.800    0.000    2.800 
#    0.000    0.000    0.000    0.000    0.000    0.000 
#
# Total GULP energy -334076.602760 kJ/mol
# GULP energy per Si atom -5567.943379 kJ/mol
# Density = 1.741606 g / cm^3
# Si number density = 17.455790 Si / 1000 Ang^3
#
#
#
# Elastic Constant Matrix: (Units=GPa)
#
#
# Indices 1 2 3 4 5 6 
#
# 1 76.8544 81.1113 30.7489 0.0000 0.0000 0.0000
# 2 81.1113 76.8544 30.7489 0.0000 0.0000 0.0000
# 3 30.7489 30.7489 77.6913 0.0000 0.0000 0.0000
# 4 0.0000 0.0000 0.0000 19.6457 0.0000 0.0000
# 5 0.0000 0.0000 0.0000 0.0000 19.6457 0.0000
# 6 0.0000 0.0000 0.0000 0.0000 0.0000 -2.1285
#
#
#
# Elastic Compliance Matrix: (Units=1/GPa)
#
#
# Indices 1 2 3 4 5 6 
#
# 1 -0.113714 0.121198 -0.002962 0.000000 0.000000 0.000000
# 2 0.121198 -0.113714 -0.002962 0.000000 0.000000 0.000000
# 3 -0.002962 -0.002962 0.015216 0.000000 0.000000 0.000000
# 4 0.000000 0.000000 0.000000 0.050902 0.000000 0.000000
# 5 0.000000 0.000000 0.000000 0.000000 0.050902 0.000000
# 6 0.000000 0.000000 0.000000 0.000000 0.000000 -0.469823
#
#
# Mechanical properties :
#
#
# Convention : Reuss Voigt Hill
#
# Bulk Modulus (GPa) = 54.53862 57.40206 55.97034
# Shear Modulus (GPa) = -6.21374 13.35196 3.56911
#
# Velocity S-wave (km/s) = -1.88876 2.76869 1.43147
# Velocity P-wave (km/s) = 5.15316 6.57088 5.90473
#
# Compressibility (1/GPa) = 0.01833563
#
# Stress axis : x y z
#
# Youngs Moduli (GPa) = -8.79399 -8.79399 65.72035
#
# Poissons Ratio (x) = 1.06581 0.19466
# Poissons Ratio (y) = 1.06581 0.19466
# Poissons Ratio (z) = -0.02605 -0.02605
#
# Static dielectric constant tensor:
#      x y z
#    x 1.590690 0.000000 0.000000 
#    y 0.000000 1.590690 0.000000 
#    z 0.000000 0.000000 1.649100 
# 
# From -- ./inp_files/892.got.cif
#   From: 2010.05.17/outbox.ucp.g08.bks.cvg/sg175_1_cif.got.tgz:892.got - 2010.06.11 15:18:44.
