data_PCOD9581806
_publ_section_title
;
Structure prediction by ZEFSAII (Michael W. Deem and Ramdas Pophale) SiO2 
 PCOD9581806
Probable space group: P 63/M
;
_chemical_formula_sum "Si O2"
_cell_formula_units_Z 72
_cell_length_a 23.439761
_cell_length_b 23.439761
_cell_length_c 7.652542
_cell_angle_alpha 90.000000
_cell_angle_beta 90.000000
_cell_angle_gamma 120.000000
_cell_volume 3641.184722
_symmetry_space_group_name_H-M "P 63/M"
_symmetry_group_IT_number 176
_symmetry_cell_setting 'hexagonal'
loop_
_space_group_symop_operation_xyz
x,y,z
x-y,x,1/2+z
-y,x-y,z
-x,-y,1/2+z
-x+y,-x,z
y,-x+y,1/2+z
-x,-y,-z
-x+y,-x,1/2-z
y,-x+y,-z
x,y,1/2-z
x-y,x,-z
-y,x-y,1/2-z
loop_
_atom_site_type_symbol
_atom_site_label
_atom_site_fract_x
_atom_site_fract_y
_atom_site_fract_z
Si Si1 0.594736 0.924576 0.961012
Si Si2 0.274718 0.075942 0.461005
Si Si3 0.927985 0.721770 0.043677
Si Si4 0.661179 0.069408 0.952906
Si Si5 0.201821 0.533132 0.034695
Si Si6 0.665019 0.460046 0.957935
O O1 0.598138 0.927985 0.750000
O O2 0.653990 0.912460 0.019678
O O3 0.612494 0.996827 0.028253
O O4 0.524295 0.865156 0.010458
O O5 0.274650 0.076103 0.250000
O O6 0.264674 0.135596 0.521736
O O7 0.221483 0.002192 0.515896
O O8 0.917867 0.708449 0.250000
O O9 0.922661 0.656265 0.961187
O O10 0.642621 0.066736 0.750000
O O11 0.662755 0.133621 0.027721
O O12 0.201275 0.531416 0.250000
O O13 0.265647 0.529721 0.975192
O O14 0.207125 0.601299 0.977003
O O15 0.665902 0.451327 0.750000
#
# Coordination Sequence:
#
# PCOD9581806 Si02
#       6
#    12  12  12  12  12  12
#     4   9  18  32  48  68  97 128 155 192 246 295
#     4   9  19  34  50  72 104 134 158 196 248 289
#     4  10  19  31  51  77 100 127 166 203 236 285
#     4   9  18  33  50  69  99 133 158 193 251 299
#     4   9  18  32  50  71  94 124 161 201 244 286
#     4  10  19  32  51  71  92 122 164 205 237 284
#
# _framework density 19.773785
#
# number of rings (size 3 to 8) (size 9 to 14) (size 15 to 20)
#    0.000    2.667    0.000    2.833    0.000    6.000 
#    0.000    1.667    0.000    0.333    0.000    0.000 
#    0.000    0.000    0.000    0.000    0.000    0.000 
#
# Total GULP energy -401748.397143 kJ/mol
# GULP energy per Si atom -5579.838849 kJ/mol
# Density = 1.972878 g / cm^3
# Si number density = 19.773785 Si / 1000 Ang^3
#
#
#
# Elastic Constant Matrix: (Units=GPa)
#
#
# Indices 1 2 3 4 5 6 
#
# 1 152.4186 117.8878 -3.5782 0.0000 0.0000 0.0000
# 2 117.8878 152.4186 -3.5782 0.0000 0.0000 0.0000
# 3 -3.5782 -3.5782 32.9170 0.0000 0.0000 0.0000
# 4 0.0000 0.0000 0.0000 -118.7104 0.0000 0.0000
# 5 0.0000 0.0000 0.0000 0.0000 -118.7104 0.0000
# 6 0.0000 0.0000 0.0000 0.0000 0.0000 17.2654
#
#
#
# Elastic Compliance Matrix: (Units=1/GPa)
#
#
# Indices 1 2 3 4 5 6 
#
# 1 0.016335 -0.012625 0.000403 0.000000 0.000000 0.000000
# 2 -0.012625 0.016335 0.000403 0.000000 0.000000 0.000000
# 3 0.000403 0.000403 0.030467 0.000000 0.000000 0.000000
# 4 0.000000 0.000000 0.000000 -0.008424 0.000000 0.000000
# 5 0.000000 0.000000 0.000000 0.000000 -0.008424 0.000000
# 6 0.000000 0.000000 0.000000 0.000000 0.000000 0.057919
#
#
# Mechanical properties :
#
#
# Convention : Reuss Voigt Hill
#
# Bulk Modulus (GPa) = 25.31597 62.13523 43.72560
# Shear Modulus (GPa) = 35.45806 -28.89623 3.28091
#
# Velocity S-wave (km/s) = 4.23920 -3.82690 1.28951
# Velocity P-wave (km/s) = 6.06561 3.45896 4.93741
#
# Compressibility (1/GPa) = 0.03950076
#
# Stress axis : x y z
#
# Youngs Moduli (GPa) = 61.21856 61.21856 32.82224
#
# Poissons Ratio (x) = 0.77287 -0.01324
# Poissons Ratio (y) = 0.77287 -0.01324
# Poissons Ratio (z) = -0.02469 -0.02469
#
# Static dielectric constant tensor:
#      x y z
#    x 1.680740 0.000000 0.000000 
#    y 0.000000 1.680740 0.000000 
#    z 0.000000 0.000000 1.752140 
# 
# From -- ./inp_files/1200.got.cif
#   From: 2010.05.17/outbox.cif.g08.bks.cpg/sg176_1_cif.got.tgz:1200.got - 2010.06.03 11:36:45.
