data_PCOD9581831
_publ_section_title
;
Structure prediction by ZEFSAII (Michael W. Deem and Ramdas Pophale) SiO2 
 PCOD9581831
Probable space group: P 63/M
;
_chemical_formula_sum "Si O2"
_cell_formula_units_Z 72
_cell_length_a 23.332065
_cell_length_b 23.332065
_cell_length_c 8.569221
_cell_angle_alpha 90.000000
_cell_angle_beta 90.000000
_cell_angle_gamma 120.000000
_cell_volume 4039.971770
_symmetry_space_group_name_H-M "P 63/M"
_symmetry_group_IT_number 176
_symmetry_cell_setting 'hexagonal'
loop_
_space_group_symop_operation_xyz
x,y,z
x-y,x,1/2+z
-y,x-y,z
-x,-y,1/2+z
-x+y,-x,z
y,-x+y,1/2+z
-x,-y,-z
-x+y,-x,1/2-z
y,-x+y,-z
x,y,1/2-z
x-y,x,-z
-y,x-y,1/2-z
loop_
_atom_site_type_symbol
_atom_site_label
_atom_site_fract_x
_atom_site_fract_y
_atom_site_fract_z
Si Si1 0.595028 0.923533 0.936444
Si Si2 0.276847 0.075264 0.563666
Si Si3 0.924502 0.725734 0.063467
Si Si4 0.672445 0.073768 0.938834
Si Si5 0.201618 0.535386 0.059542
Si Si6 0.667008 0.465445 0.938530
O O1 0.590351 0.920824 0.750000
O O2 0.618372 0.999013 0.987010
O O3 0.654239 0.911058 0.988648
O O4 0.526803 0.867243 0.006648
O O5 0.284807 0.078124 0.750000
O O6 0.259622 0.129981 0.508666
O O7 0.222389 0.000301 0.520076
O O8 0.918932 0.723784 0.250000
O O9 0.912300 0.655101 0.003243
O O10 0.675642 0.074474 0.750000
O O11 0.658836 0.131848 0.989542
O O12 0.202203 0.535496 0.250000
O O13 0.263850 0.528115 0.008159
O O14 0.208510 0.604638 0.009578
O O15 0.667711 0.465457 0.750000
#
# Coordination Sequence:
#
# PCOD9581831 Si02
#       6
#    12  12  12  12  12  12
#     4  10  20  33  50  74 102 131 166 210 258 306
#     4  10  20  34  53  77 105 137 170 206 253 304
#     4  10  20  33  52  79 106 133 170 212 252 300
#     4   9  18  33  51  72 102 136 167 205 257 311
#     4   9  18  32  51  73  95 126 168 209 250 301
#     4  10  19  33  53  73  96 129 171 214 254 305
#
# _framework density 17.821906999999999
#
# number of rings (size 3 to 8) (size 9 to 14) (size 15 to 20)
#    0.000    2.333    0.000    2.833    0.000    6.000 
#    0.000    1.667    0.000    0.333    0.000    0.000 
#    0.000    0.000    0.000    0.000    0.000    0.000 
#
# Total GULP energy -401827.508486 kJ/mol
# GULP energy per Si atom -5580.937618 kJ/mol
# Density = 1.778134 g / cm^3
# Si number density = 17.821907 Si / 1000 Ang^3
#
#
#
# Elastic Constant Matrix: (Units=GPa)
#
#
# Indices 1 2 3 4 5 6 
#
# 1 128.5803 90.7004 18.9867 0.0000 0.0000 0.0000
# 2 90.7004 128.5803 18.9867 0.0000 0.0000 0.0000
# 3 18.9867 18.9867 12.6465 0.0000 0.0000 0.0000
# 4 0.0000 0.0000 0.0000 18.6512 0.0000 0.0000
# 5 0.0000 0.0000 0.0000 0.0000 18.6512 0.0000
# 6 0.0000 0.0000 0.0000 0.0000 0.0000 18.9399
#
#
#
# Elastic Compliance Matrix: (Units=1/GPa)
#
#
# Indices 1 2 3 4 5 6 
#
# 1 0.016281 -0.010118 -0.009252 0.000000 0.000000 0.000000
# 2 -0.010118 0.016281 -0.009252 0.000000 0.000000 0.000000
# 3 -0.009252 -0.009252 0.106854 0.000000 0.000000 0.000000
# 4 0.000000 0.000000 0.000000 0.053616 0.000000 0.000000
# 5 0.000000 0.000000 0.000000 0.000000 0.053616 0.000000
# 6 0.000000 0.000000 0.000000 0.000000 0.000000 0.052798
#
#
# Mechanical properties :
#
#
# Convention : Reuss Voigt Hill
#
# Bulk Modulus (GPa) = 12.16978 58.57276 35.37127
# Shear Modulus (GPa) = 13.01808 20.65735 16.83771
#
# Velocity S-wave (km/s) = 2.70562 3.40825 3.07706
# Velocity P-wave (km/s) = 4.07479 6.95882 5.70215
#
# Compressibility (1/GPa) = 0.08217077
#
# Stress axis : x y z
#
# Youngs Moduli (GPa) = 61.42166 61.42166 9.35857
#
# Poissons Ratio (x) = 0.62148 0.08659
# Poissons Ratio (y) = 0.62148 0.08659
# Poissons Ratio (z) = 0.56828 0.56828
#
# Static dielectric constant tensor:
#      x y z
#    x 1.594220 0.000000 0.000000 
#    y 0.000000 1.594220 0.000000 
#    z 0.000000 0.000000 1.605800 
# 
# From -- ./inp_files/1203.got.cif
#   From: 2010.05.17/outbox.cif.g08.bks.cpg/sg176_1_cif.got.tgz:1203.got - 2010.06.03 11:36:45.
