data_PCOD9581840
_publ_section_title
;
Structure prediction by ZEFSAII (Michael W. Deem and Ramdas Pophale) SiO2 
 PCOD9581840
Probable space group: P 63/M
;
_chemical_formula_sum "Si O2"
_cell_formula_units_Z 84
_cell_length_a 17.707605
_cell_length_b 17.707605
_cell_length_c 16.251714
_cell_angle_alpha 90.000000
_cell_angle_beta 90.000000
_cell_angle_gamma 120.000000
_cell_volume 4413.157773
_symmetry_space_group_name_H-M "P 63/M"
_symmetry_group_IT_number 176
_symmetry_cell_setting 'hexagonal'
loop_
_space_group_symop_operation_xyz
x,y,z
x-y,x,1/2+z
-y,x-y,z
-x,-y,1/2+z
-x+y,-x,z
y,-x+y,1/2+z
-x,-y,-z
-x+y,-x,1/2-z
y,-x+y,-z
x,y,1/2-z
x-y,x,-z
-y,x-y,1/2-z
loop_
_atom_site_type_symbol
_atom_site_label
_atom_site_fract_x
_atom_site_fract_y
_atom_site_fract_z
Si Si1 0.031524 0.681554 0.340757
Si Si2 0.262877 0.496059 0.158970
Si Si3 0.576242 0.234927 0.495844
Si Si4 0.436852 0.038733 0.011787
Si Si5 0.976940 0.816519 0.399810
Si Si6 0.694069 0.065884 0.845611
Si Si7 0.023404 0.185216 0.402371
O O1 0.001126 0.638121 0.250000
O O2 0.136345 0.725277 0.338612
O O3 0.012453 0.629974 0.426559
O O4 0.997367 0.749291 0.353160
O O5 0.277482 0.533071 0.250000
O O6 0.161734 0.453080 0.135557
O O7 0.329873 0.563298 0.094205
O O8 0.673144 0.255086 0.471360
O O9 0.496110 0.142715 0.471812
O O10 0.375299 0.998642 0.089714
O O11 0.500000 0.000000 0.000000
O O12 0.886147 0.811300 0.378011
O O13 0.975329 0.800950 0.498631
O O14 0.059734 0.912267 0.385473
O O15 0.668539 0.047288 0.750000
O O16 0.780868 0.059320 0.859681
#
# Coordination Sequence:
#
# PCOD9581840 Si02
#       7
#    12  12  12  12  12  12  12
#     4  10  20  36  59  86 118 156 198 246 303 365
#     4   9  18  33  57  86 121 154 187 240 307 369
#     4   9  20  37  59  89 116 148 191 239 299 374
#     4  11  23  41  64  89 118 158 195 244 309 371
#     4  10  19  34  56  85 126 167 212 256 299 350
#     4  11  22  37  60  90 123 163 210 251 297 363
#     4  10  20  34  56  89 122 170 214 257 302 353
#
# _framework density 19.033988999999998
#
# number of rings (size 3 to 8) (size 9 to 14) (size 15 to 20)
#    0.286    1.714    2.857    1.143    0.000    2.857 
#    2.571    2.857    0.000    2.571    0.000    0.000 
#    0.000    0.000    0.000    0.000    0.000    0.000 
#
# Total GULP energy -467997.214039 kJ/mol
# GULP energy per Si atom -5571.395405 kJ/mol
# Density = 1.899067 g / cm^3
# Si number density = 19.033989 Si / 1000 Ang^3
#
#
#
# Elastic Constant Matrix: (Units=GPa)
#
#
# Indices 1 2 3 4 5 6 
#
# 1 64.5289 9.5362 31.5974 0.0000 0.0000 0.0000
# 2 9.5362 64.5289 31.5974 0.0000 0.0000 0.0000
# 3 31.5974 31.5974 75.7584 0.0000 0.0000 0.0000
# 4 0.0000 0.0000 0.0000 10.6681 0.0000 0.0000
# 5 0.0000 0.0000 0.0000 0.0000 10.6681 0.0000
# 6 0.0000 0.0000 0.0000 0.0000 0.0000 27.4963
#
#
#
# Elastic Compliance Matrix: (Units=1/GPa)
#
#
# Indices 1 2 3 4 5 6 
#
# 1 0.019573 0.001388 -0.008742 0.000000 0.000000 0.000000
# 2 0.001388 0.019573 -0.008742 0.000000 0.000000 0.000000
# 3 -0.008742 -0.008742 0.020492 0.000000 0.000000 0.000000
# 4 0.000000 0.000000 0.000000 0.093737 0.000000 0.000000
# 5 0.000000 0.000000 0.000000 0.000000 0.093737 0.000000
# 6 0.000000 0.000000 0.000000 0.000000 0.000000 0.036369
#
#
# Mechanical properties :
#
#
# Convention : Reuss Voigt Hill
#
# Bulk Modulus (GPa) = 36.43693 38.91980 37.67837
# Shear Modulus (GPa) = 15.39307 18.57220 16.98263
#
# Velocity S-wave (km/s) = 2.84688 3.12707 2.99026
# Velocity P-wave (km/s) = 5.47640 5.79051 5.63564
#
# Compressibility (1/GPa) = 0.02744468
#
# Stress axis : x y z
#
# Youngs Moduli (GPa) = 51.09186 51.09186 48.79853
#
# Poissons Ratio (x) = -0.07093 0.42662
# Poissons Ratio (y) = -0.07093 0.42662
# Poissons Ratio (z) = 0.44667 0.44667
#
# Static dielectric constant tensor:
#      x y z
#    x 1.651090 0.000000 0.000000 
#    y 0.000000 1.651090 0.000000 
#    z 0.000000 0.000000 1.671860 
# 
# From -- ./inp_files/2922.got.cif
#   From: 2010.05.17/outbox.cif.g08.bks.cpg/sg176_2_cif.got.tgz:2922.got - 2010.06.03 11:36:45.
