data_PCOD9581804
_publ_section_title
;
Structure prediction by ZEFSAII (Michael W. Deem and Ramdas Pophale) SiO2 
 PCOD9581804
Probable space group: P 63/M
;
_chemical_formula_sum "Si O2"
_cell_formula_units_Z 72
_cell_length_a 22.097822
_cell_length_b 22.097822
_cell_length_c 7.702104
_cell_angle_alpha 90.000000
_cell_angle_beta 90.000000
_cell_angle_gamma 120.000000
_cell_volume 3257.158946
_symmetry_space_group_name_H-M "P 63/M"
_symmetry_group_IT_number 176
_symmetry_cell_setting 'hexagonal'
loop_
_space_group_symop_operation_xyz
x,y,z
x-y,x,1/2+z
-y,x-y,z
-x,-y,1/2+z
-x+y,-x,z
y,-x+y,1/2+z
-x,-y,-z
-x+y,-x,1/2-z
y,-x+y,-z
x,y,1/2-z
x-y,x,-z
-y,x-y,1/2-z
loop_
_atom_site_type_symbol
_atom_site_label
_atom_site_fract_x
_atom_site_fract_y
_atom_site_fract_z
Si Si1 0.849753 0.882505 0.550112
Si Si2 0.601260 0.677641 0.552128
Si Si3 0.802272 0.629977 0.538926
Si Si4 0.479112 0.791124 0.050265
Si Si5 0.811968 0.456650 0.048716
Si Si6 0.269257 0.018556 0.963127
O O1 0.835445 0.891278 0.750000
O O2 0.915040 0.868866 0.544510
O O3 0.785090 0.810857 0.477968
O O4 0.595050 0.651993 0.750000
O O5 0.624331 0.759638 0.546823
O O6 0.523225 0.640824 0.475233
O O7 0.670010 0.681278 0.473874
O O8 0.809308 0.628519 0.750000
O O9 0.731236 0.559036 0.489407
O O10 0.796043 0.696562 0.489837
O O11 0.479793 0.810142 0.250000
O O12 0.452053 0.708265 0.037866
O O13 0.426056 0.809769 0.959605
O O14 0.807964 0.473588 0.250000
O O15 0.268002 0.015614 0.750000
#
# Coordination Sequence:
#
# PCOD9581804 Si02
#       6
#    12  12  12  12  12  12
#     4  11  22  36  55  78 105 133 164 203 246 293
#     4   9  18  33  52  73  98 128 162 201 243 288
#     4   9  18  33  52  73  98 128 162 201 243 288
#     4  10  19  31  49  72  99 129 162 201 244 291
#     4  10  19  31  49  72  99 129 162 201 244 291
#     4   9  18  34  55  76  98 129 166 201 242 291
#
# _framework density 22.105153000000001
#
# number of rings (size 3 to 8) (size 9 to 14) (size 15 to 20)
#    0.000    2.333    0.000    3.000    0.000    1.333 
#    0.000    3.333    0.000    0.000    0.000    0.000 
#    0.000    0.000    0.000    0.000    0.000    0.000 
#
# Total GULP energy -401884.419133 kJ/mol
# GULP energy per Si atom -5581.728044 kJ/mol
# Density = 2.205484 g / cm^3
# Si number density = 22.105153 Si / 1000 Ang^3
#
#
#
# Elastic Constant Matrix: (Units=GPa)
#
#
# Indices 1 2 3 4 5 6 
#
# 1 53.3912 -13.7649 -3.9479 0.0000 0.0000 0.0000
# 2 -13.7649 53.3912 -3.9479 0.0000 0.0000 0.0000
# 3 -3.9479 -3.9479 43.8471 0.0000 0.0000 0.0000
# 4 0.0000 0.0000 0.0000 1.5139 0.0000 0.0000
# 5 0.0000 0.0000 0.0000 0.0000 1.5139 0.0000
# 6 0.0000 0.0000 0.0000 0.0000 0.0000 33.5780
#
#
#
# Elastic Compliance Matrix: (Units=1/GPa)
#
#
# Indices 1 2 3 4 5 6 
#
# 1 0.020294 0.005403 0.002314 0.000000 0.000000 0.000000
# 2 0.005403 0.020294 0.002314 0.000000 0.000000 0.000000
# 3 0.002314 0.002314 0.023223 0.000000 0.000000 0.000000
# 4 0.000000 0.000000 0.000000 0.660526 0.000000 0.000000
# 5 0.000000 0.000000 0.000000 0.000000 0.660526 0.000000
# 6 0.000000 0.000000 0.000000 0.000000 0.000000 0.029781
#
#
# Mechanical properties :
#
#
# Convention : Reuss Voigt Hill
#
# Bulk Modulus (GPa) = 11.92301 11.92312 11.92306
# Shear Modulus (GPa) = 3.51484 18.80720 11.16102
#
# Velocity S-wave (km/s) = 1.26234 2.92002 2.24945
# Velocity P-wave (km/s) = 2.74411 4.09564 3.48600
#
# Compressibility (1/GPa) = 0.08387147
#
# Stress axis : x y z
#
# Youngs Moduli (GPa) = 49.27626 49.27626 43.06050
#
# Poissons Ratio (x) = -0.26624 -0.09963
# Poissons Ratio (y) = -0.26624 -0.09963
# Poissons Ratio (z) = -0.11401 -0.11401
#
# Static dielectric constant tensor:
#      x y z
#    x 1.816030 0.000000 0.000000 
#    y 0.000000 1.816030 0.000000 
#    z 0.000000 0.000000 1.817150 
# 
# From -- ./inp_files/1178.got.cif
#   From: 2010.05.17/outbox.cif.g08.bks.cpg/sg176_1_cif.got.tgz:1178.got - 2010.06.03 11:36:45.
