data_PCOD9581659
_publ_section_title
;
Structure prediction by ZEFSAII (Michael W. Deem and Ramdas Pophale) SiO2 
 PCOD9581659
Probable space group: P 6/M
;
_chemical_formula_sum "Si O2"
_cell_formula_units_Z 72
_cell_length_a 14.262123
_cell_length_b 14.262123
_cell_length_c 17.553058
_cell_angle_alpha 90.000000
_cell_angle_beta 90.000000
_cell_angle_gamma 120.000000
_cell_volume 3092.087497
_symmetry_space_group_name_H-M "P 6/M"
_symmetry_group_IT_number 175
_symmetry_cell_setting 'hexagonal'
loop_
_space_group_symop_operation_xyz
x,y,z
x-y,x,z
-y,x-y,z
-x,-y,z
-x+y,-x,z
y,-x+y,z
-x,-y,-z
-x+y,-x,-z
y,-x+y,-z
x,y,-z
x-y,x,-z
-y,x-y,-z
loop_
_atom_site_type_symbol
_atom_site_label
_atom_site_fract_x
_atom_site_fract_y
_atom_site_fract_z
Si Si1 0.282562 0.352919 0.234435
Si Si2 0.283919 0.758989 0.182382
Si Si3 0.499184 0.900752 0.636305
Si Si4 0.283523 0.821231 0.585385
Si Si5 0.798927 0.024844 0.629509
Si Si6 0.371567 0.959523 0.913876
O O1 0.214895 0.417702 0.231621
O O2 0.383742 0.433995 0.286951
O O3 0.231623 0.241778 0.282211
O O4 0.322342 0.346363 0.150759
O O5 0.221112 0.627603 0.188981
O O6 0.301757 0.831902 0.107489
O O7 0.370453 0.820000 0.643016
O O8 0.547861 0.832387 0.599211
O O9 0.500000 0.000000 0.592657
O O10 0.317815 0.814056 0.500000
O O11 0.274743 0.928270 0.596624
O O12 0.915093 0.121930 0.605562
O O13 0.500000 0.000000 0.909085
O O14 0.349028 0.978775 0.000000
#
# Coordination Sequence:
#
# PCOD9581659 Si02
#       6
#    12  12  12  12  12  12
#     4  12  24  44  68 102 138 184 247 294 360 437
#     4  10  23  37  64  94 135 183 234 292 349 429
#     4  12  26  44  74 104 148 192 238 298 361 435
#     4  12  27  47  72 109 148 194 242 293 373 449
#     4  12  26  48  74 103 137 188 245 313 367 432
#     4  11  23  39  61  94 143 189 233 292 353 427
#
# _framework density 23.285240999999999
#
# number of rings (size 3 to 8) (size 9 to 14) (size 15 to 20)
#    0.333    0.167    5.000    2.500    2.333    4.667 
#    0.000    0.000    0.000    1.000    0.000    0.000 
#    0.000    2.667    0.000    0.000    0.000    0.000 
#
# Total GULP energy -401009.680753 kJ/mol
# GULP energy per Si atom -5569.578899 kJ/mol
# Density = 2.323224 g / cm^3
# Si number density = 23.285241 Si / 1000 Ang^3
#
#
#
# Elastic Constant Matrix: (Units=GPa)
#
#
# Indices 1 2 3 4 5 6 
#
# 1 104.5099 34.5743 16.3951 0.0000 0.0000 0.0000
# 2 34.5743 104.5099 16.3951 0.0000 0.0000 0.0000
# 3 16.3951 16.3951 87.7442 0.0000 0.0000 0.0000
# 4 0.0000 0.0000 0.0000 20.5968 0.0000 0.0000
# 5 0.0000 0.0000 0.0000 0.0000 20.5968 0.0000
# 6 0.0000 0.0000 0.0000 0.0000 0.0000 34.9678
#
#
#
# Elastic Compliance Matrix: (Units=1/GPa)
#
#
# Indices 1 2 3 4 5 6 
#
# 1 0.010910 -0.003389 -0.001405 0.000000 0.000000 0.000000
# 2 -0.003389 0.010910 -0.001405 0.000000 0.000000 0.000000
# 3 -0.001405 -0.001405 0.011922 0.000000 0.000000 0.000000
# 4 0.000000 0.000000 0.000000 0.048551 0.000000 0.000000
# 5 0.000000 0.000000 0.000000 0.000000 0.048551 0.000000
# 6 0.000000 0.000000 0.000000 0.000000 0.000000 0.028598
#
#
# Mechanical properties :
#
#
# Convention : Reuss Voigt Hill
#
# Bulk Modulus (GPa) = 46.85381 47.94367 47.39874
# Shear Modulus (GPa) = 27.93986 30.52555 29.23271
#
# Velocity S-wave (km/s) = 3.46771 3.62462 3.54703
# Velocity P-wave (km/s) = 6.01654 6.17670 6.09714
#
# Compressibility (1/GPa) = 0.02134298
#
# Stress axis : x y z
#
# Youngs Moduli (GPa) = 91.65865 91.65865 83.87888
#
# Poissons Ratio (x) = 0.31062 0.11788
# Poissons Ratio (y) = 0.31062 0.11788
# Poissons Ratio (z) = 0.12881 0.12881
#
# Static dielectric constant tensor:
#      x y z
#    x 1.963490 0.000000 0.000000 
#    y 0.000000 1.963490 0.000000 
#    z 0.000000 0.000000 1.892290 
# 
# From -- ./inp_files/2881.got.cif
#   From: 2010.05.17/outbox.cif.g08.bks.cpg/sg175_2_cif.got.tgz:2881.got - 2010.05.20 11:23:22.
