data_PCOD9581910
_publ_section_title
;
Structure prediction by ZEFSAII (Michael W. Deem and Ramdas Pophale) SiO2 
 PCOD9581910
Probable space group: P 63/M
;
_chemical_formula_sum "Si O2"
_cell_formula_units_Z 72
_cell_length_a 23.472773
_cell_length_b 23.472773
_cell_length_c 8.878476
_cell_angle_alpha 90.000000
_cell_angle_beta 90.000000
_cell_angle_gamma 120.000000
_cell_volume 4236.408731
_symmetry_space_group_name_H-M "P 63/M"
_symmetry_group_IT_number 176
_symmetry_cell_setting 'hexagonal'
loop_
_space_group_symop_operation_xyz
x,y,z
x-y,x,1/2+z
-y,x-y,z
-x,-y,1/2+z
-x+y,-x,z
y,-x+y,1/2+z
-x,-y,-z
-x+y,-x,1/2-z
y,-x+y,-z
x,y,1/2-z
x-y,x,-z
-y,x-y,1/2-z
loop_
_atom_site_type_symbol
_atom_site_label
_atom_site_fract_x
_atom_site_fract_y
_atom_site_fract_z
Si Si1 0.124846 0.998770 0.930339
Si Si2 0.927270 0.397666 0.570313
Si Si3 0.071923 0.470899 0.429677
Si Si4 0.257944 0.261456 0.430471
Si Si5 0.388167 0.127737 0.069541
Si Si6 0.870288 0.608555 0.068532
O O1 0.116160 0.995789 0.750000
O O2 0.192624 0.999794 0.964173
O O3 0.064004 0.935795 0.005205
O O4 0.929615 0.391413 0.750000
O O5 0.909163 0.454188 0.536700
O O6 0.880094 0.327327 0.498036
O O7 0.000586 0.425053 0.504759
O O8 0.065462 0.461873 0.250000
O O9 0.121300 0.448811 0.494078
O O10 0.260698 0.272228 0.250000
O O11 0.255868 0.321191 0.510796
O O12 0.322599 0.257784 0.473337
O O13 0.389569 0.125503 0.250000
O O14 0.391074 0.195409 0.024191
O O15 0.870258 0.602768 0.250000
#
# Coordination Sequence:
#
# PCOD9581910 Si02
#       6
#    12  12  12  12  12  12
#     4  11  23  39  57  76 100 135 181 231 283 337
#     4  10  20  35  55  81 114 144 178 226 274 320
#     4  10  20  34  56  84 109 142 184 224 270 326
#     4  10  21  37  55  77 108 145 180 225 282 327
#     4  11  22  35  55  84 115 149 188 225 270 329
#     4  10  21  36  54  80 116 149 180 228 277 322
#
# _framework density 16.995526999999999
#
# number of rings (size 3 to 8) (size 9 to 14) (size 15 to 20)
#    0.000    1.667    1.667    3.167    0.000    6.000 
#    0.000    0.000    0.000    0.667    0.000    0.000 
#    0.000    0.000    0.000    0.000    0.000    0.000 
#
# Total GULP energy -402232.902523 kJ/mol
# GULP energy per Si atom -5586.568091 kJ/mol
# Density = 1.695684 g / cm^3
# Si number density = 16.995527 Si / 1000 Ang^3
#
#
#
# Elastic Constant Matrix: (Units=GPa)
#
#
# Indices 1 2 3 4 5 6 
#
# 1 141.1225 88.7509 54.1048 0.0000 0.0000 0.0000
# 2 88.7509 141.1225 54.1048 0.0000 0.0000 0.0000
# 3 54.1048 54.1048 44.9279 0.0000 0.0000 0.0000
# 4 0.0000 0.0000 0.0000 27.4126 0.0000 0.0000
# 5 0.0000 0.0000 0.0000 0.0000 27.4126 0.0000
# 6 0.0000 0.0000 0.0000 0.0000 0.0000 26.1858
#
#
#
# Elastic Compliance Matrix: (Units=1/GPa)
#
#
# Indices 1 2 3 4 5 6 
#
# 1 0.014569 -0.004525 -0.012096 0.000000 0.000000 0.000000
# 2 -0.004525 0.014569 -0.012096 0.000000 0.000000 0.000000
# 3 -0.012096 -0.012096 0.051391 0.000000 0.000000 0.000000
# 4 0.000000 0.000000 0.000000 0.036480 0.000000 0.000000
# 5 0.000000 0.000000 0.000000 0.000000 0.036480 0.000000
# 6 0.000000 0.000000 0.000000 0.000000 0.000000 0.038189
#
#
# Mechanical properties :
#
#
# Convention : Reuss Voigt Hill
#
# Bulk Modulus (GPa) = 43.29751 80.12154 61.70953
# Shear Modulus (GPa) = 19.46977 24.88302 22.17639
#
# Velocity S-wave (km/s) = 3.38832 3.83050 3.61617
# Velocity P-wave (km/s) = 6.39052 8.17366 7.33646
#
# Compressibility (1/GPa) = 0.02309602
#
# Stress axis : x y z
#
# Youngs Moduli (GPa) = 68.63796 68.63796 19.45883
#
# Poissons Ratio (x) = 0.31059 0.23537
# Poissons Ratio (y) = 0.31059 0.23537
# Poissons Ratio (z) = 0.83022 0.83022
#
# Static dielectric constant tensor:
#      x y z
#    x 1.560120 0.000000 0.000000 
#    y 0.000000 1.560120 0.000000 
#    z 0.000000 0.000000 1.568140 
# 
# From -- ./inp_files/1195.got.cif
#   From: 2010.05.17/outbox.cif.g08.bks.cpg/sg176_1_cif.got.tgz:1195.got - 2010.06.03 11:36:45.
