data_PCOD9581374
_publ_section_title
;
Structure prediction by ZEFSAII (Michael W. Deem and Ramdas Pophale) SiO2 
 PCOD9581374
Probable space group: P 6/M
;
_chemical_formula_sum "Si O2"
_cell_formula_units_Z 66
_cell_length_a 10.067294
_cell_length_b 10.067294
_cell_length_c 31.910106
_cell_angle_alpha 90.000000
_cell_angle_beta 90.000000
_cell_angle_gamma 120.000000
_cell_volume 2800.814731
_symmetry_space_group_name_H-M "P 6/M"
_symmetry_group_IT_number 175
_symmetry_cell_setting 'hexagonal'
loop_
_space_group_symop_operation_xyz
x,y,z
x-y,x,z
-y,x-y,z
-x,-y,z
-x+y,-x,z
y,-x+y,z
-x,-y,-z
-x+y,-x,-z
y,-x+y,-z
x,y,-z
x-y,x,-z
-y,x-y,-z
loop_
_atom_site_type_symbol
_atom_site_label
_atom_site_fract_x
_atom_site_fract_y
_atom_site_fract_z
Si Si1 0.504272 0.666473 0.686845
Si Si2 0.263915 0.914265 0.776385
Si Si3 0.500000 0.000000 0.388322
Si Si4 0.640510 0.744287 0.955230
Si Si5 0.358166 0.258680 0.134253
Si Si6 0.101851 0.745199 0.452271
O O1 0.478176 0.810097 0.685615
O O2 0.566121 0.670322 0.732864
O O3 0.567185 0.646234 0.643012
O O4 0.322263 0.883050 0.820852
O O5 0.084277 0.793115 0.776393
O O6 0.518465 0.883330 0.418684
O O7 0.780388 0.708246 0.955242
O O8 0.556915 0.682806 0.910465
O O9 0.556460 0.684534 0.000000
O O10 0.216932 0.292502 0.134149
O O11 0.119532 0.703788 0.500000
O O12 0.925722 0.707066 0.447384
#
# Coordination Sequence:
#
# PCOD9581374 Si02
#       6
#    12  12   6  12  12  12
#     4  10  23  38  56  79 107 146 182 232 288 328
#     4  10  19  33  52  76 105 141 185 232 281 336
#     4  12  21  40  64  92 122 152 203 238 284 338
#     4   8  11  14  22  41  73 114 157 200 250 312
#     4   8  13  20  33  54  84 122 165 212 262 319
#     4  10  22  41  66  97 131 165 199 239 287 339
#
# _framework density 23.564571999999998
#
# number of rings (size 3 to 8) (size 9 to 14) (size 15 to 20)
#    0.364    2.182    0.000    3.182    0.000    4.364 
#    1.091    0.000    0.000    2.182    0.000    0.000 
#    0.000    1.455    0.000   15.909    0.000    2.909 
#
# Total GULP energy -367794.363211 kJ/mol
# GULP energy per Si atom -5572.641867 kJ/mol
# Density = 2.351094 g / cm^3
# Si number density = 23.564572 Si / 1000 Ang^3
#
#
#
# Elastic Constant Matrix: (Units=GPa)
#
#
# Indices 1 2 3 4 5 6 
#
# 1 42.1607 -0.5492 39.2470 0.0000 0.0000 0.0000
# 2 -0.5492 42.1607 39.2470 0.0000 0.0000 0.0000
# 3 39.2470 39.2470 269.5109 0.0000 0.0000 0.0000
# 4 0.0000 0.0000 0.0000 389.9093 0.0000 0.0000
# 5 0.0000 0.0000 0.0000 0.0000 389.9093 0.0000
# 6 0.0000 0.0000 0.0000 0.0000 0.0000 21.3550
#
#
#
# Elastic Compliance Matrix: (Units=1/GPa)
#
#
# Indices 1 2 3 4 5 6 
#
# 1 0.028274 0.004860 -0.004825 0.000000 0.000000 0.000000
# 2 0.004860 0.028274 -0.004825 0.000000 0.000000 0.000000
# 3 -0.004825 -0.004825 0.005116 0.000000 0.000000 0.000000
# 4 0.000000 0.000000 0.000000 0.002565 0.000000 0.000000
# 5 0.000000 0.000000 0.000000 0.000000 0.002565 0.000000
# 6 0.000000 0.000000 0.000000 0.000000 0.000000 0.046827
#
#
# Mechanical properties :
#
#
# Convention : Reuss Voigt Hill
#
# Bulk Modulus (GPa) = 19.20026 56.63578 37.91802
# Shear Modulus (GPa) = 35.57178 178.62722 107.09950
#
# Velocity S-wave (km/s) = 3.88950 8.71595 6.74893
# Velocity P-wave (km/s) = 5.32321 11.19718 8.76680
#
# Compressibility (1/GPa) = 0.05208264
#
# Stress axis : x y z
#
# Youngs Moduli (GPa) = 35.36868 35.36868 195.47717
#
# Poissons Ratio (x) = -0.17189 0.94318
# Poissons Ratio (y) = -0.17189 0.94318
# Poissons Ratio (z) = 0.17065 0.17065
#
# Static dielectric constant tensor:
#      x y z
#    x 1.928830 0.000000 0.000000 
#    y 0.000000 1.928830 0.000000 
#    z 0.000000 0.000000 1.989750 
# 
# From -- ./inp_files/3366.got.cif
#   From: 2010.05.17/outbox.cif.g08.bks.cpg/sg175_2_cif.got.tgz:3366.got - 2010.05.20 11:23:22.
