data_PCOD9581801
_publ_section_title
;
Structure prediction by ZEFSAII (Michael W. Deem and Ramdas Pophale) SiO2 
 PCOD9581801
Probable space group: P 63/M
;
_chemical_formula_sum "Si O2"
_cell_formula_units_Z 84
_cell_length_a 19.728107
_cell_length_b 19.728107
_cell_length_c 12.233730
_cell_angle_alpha 90.000000
_cell_angle_beta 90.000000
_cell_angle_gamma 120.000000
_cell_volume 4123.446390
_symmetry_space_group_name_H-M "P 63/M"
_symmetry_group_IT_number 176
_symmetry_cell_setting 'hexagonal'
loop_
_space_group_symop_operation_xyz
x,y,z
x-y,x,1/2+z
-y,x-y,z
-x,-y,1/2+z
-x+y,-x,z
y,-x+y,1/2+z
-x,-y,-z
-x+y,-x,1/2-z
y,-x+y,-z
x,y,1/2-z
x-y,x,-z
-y,x-y,1/2-z
loop_
_atom_site_type_symbol
_atom_site_label
_atom_site_fract_x
_atom_site_fract_y
_atom_site_fract_z
Si Si1 0.265588 0.693544 0.411960
Si Si2 0.817048 0.382801 0.373138
Si Si3 0.406180 0.038779 0.456503
Si Si4 0.754902 0.603784 0.869631
Si Si5 0.912842 0.559611 0.374975
Si Si6 0.191793 0.888449 0.536845
Si Si7 0.747652 0.978056 0.626802
O O1 0.251543 0.607722 0.380890
O O2 0.244373 0.676700 0.540144
O O3 0.212605 0.724610 0.364577
O O4 0.792748 0.355363 0.250000
O O5 0.899608 0.386366 0.400066
O O6 0.837716 0.472855 0.382013
O O7 0.390847 0.082031 0.557515
O O8 0.333201 0.018792 0.378464
O O9 0.401186 0.965642 0.520484
O O10 0.762237 0.637322 0.750000
O O11 0.834772 0.646693 0.935226
O O12 0.943931 0.564548 0.250000
O O13 0.899601 0.633454 0.392996
O O14 0.110522 0.838706 0.601565
O O15 0.204571 0.966737 0.476126
O O16 0.780623 0.001042 0.750000
#
# Coordination Sequence:
#
# PCOD9581801 Si02
#       7
#    12  12  12  12  12  12  12
#     4   9  20  34  46  65  98 134 182 236 282 326
#     4  10  19  31  49  72 101 141 186 231 281 330
#     4   9  19  33  50  76 108 142 179 227 273 325
#     4  10  19  33  52  73 100 137 179 223 273 328
#     4  10  19  32  52  77 106 141 179 222 275 327
#     4  10  21  36  58  86 114 144 180 226 270 328
#     4  10  20  37  59  85 118 150 184 224 274 329
#
# _framework density 20.371307999999999
#
# number of rings (size 3 to 8) (size 9 to 14) (size 15 to 20)
#    0.286    2.000    0.000    3.000    0.000    1.143 
#    0.000    5.714    0.000    9.714    0.000    0.000 
#    0.000    0.000    0.000    0.000    0.000    0.000 
#
# Total GULP energy -468003.330299 kJ/mol
# GULP energy per Si atom -5571.468218 kJ/mol
# Density = 2.032494 g / cm^3
# Si number density = 20.371308 Si / 1000 Ang^3
#
#
#
# Elastic Constant Matrix: (Units=GPa)
#
#
# Indices 1 2 3 4 5 6 
#
# 1 51.5694 1.9817 8.5572 0.0000 0.0000 0.0000
# 2 1.9817 51.5694 8.5572 0.0000 0.0000 0.0000
# 3 8.5572 8.5572 103.5660 0.0000 0.0000 0.0000
# 4 0.0000 0.0000 0.0000 -15.9792 0.0000 0.0000
# 5 0.0000 0.0000 0.0000 0.0000 -15.9792 0.0000
# 6 0.0000 0.0000 0.0000 0.0000 0.0000 24.7938
#
#
#
# Elastic Compliance Matrix: (Units=1/GPa)
#
#
# Indices 1 2 3 4 5 6 
#
# 1 0.019673 -0.000493 -0.001585 0.000000 0.000000 0.000000
# 2 -0.000493 0.019673 -0.001585 0.000000 0.000000 0.000000
# 3 -0.001585 -0.001585 0.009918 0.000000 0.000000 0.000000
# 4 0.000000 0.000000 0.000000 -0.062581 0.000000 0.000000
# 5 0.000000 0.000000 0.000000 0.000000 -0.062581 0.000000
# 6 0.000000 0.000000 0.000000 0.000000 0.000000 0.040333
#
#
# Mechanical properties :
#
#
# Convention : Reuss Voigt Hill
#
# Bulk Modulus (GPa) = 23.84421 27.21079 25.52750
# Shear Modulus (GPa) = -350.60388 11.07432 -169.76478
#
# Velocity S-wave (km/s) = -13.13318 2.33410 -9.13872
# Velocity P-wave (km/s) = 14.77307 4.54428 9.93965
#
# Compressibility (1/GPa) = 0.04193890
#
# Stress axis : x y z
#
# Youngs Moduli (GPa) = 50.83040 50.83040 100.83116
#
# Poissons Ratio (x) = 0.02506 0.15980
# Poissons Ratio (y) = 0.02506 0.15980
# Poissons Ratio (z) = 0.08056 0.08056
#
# Static dielectric constant tensor:
#      x y z
#    x 1.758500 0.000000 0.000000 
#    y 0.000000 1.758500 0.000000 
#    z 0.000000 0.000000 1.727900 
# 
# From -- ./inp_files/2027.got.cif
#   From: 2010.05.17/outbox.cif.g08.bks.cpg/sg176_2_cif.got.tgz:2027.got - 2010.06.03 11:36:45.
