data_PCOD9581141
_publ_section_title
;
Structure prediction by ZEFSAII (Michael W. Deem and Ramdas Pophale) SiO2 
 PCOD9581141
Probable space group: P -6
;
_chemical_formula_sum "Si O2"
_cell_formula_units_Z 32
_cell_length_a 14.885739
_cell_length_b 14.885739
_cell_length_c 9.540188
_cell_angle_alpha 90.000000
_cell_angle_beta 90.000000
_cell_angle_gamma 120.000000
_cell_volume 1830.747142
_symmetry_space_group_name_H-M "P -6"
_symmetry_group_IT_number 174
_symmetry_cell_setting 'hexagonal'
loop_
_space_group_symop_operation_xyz
x,y,z
-x+y,-x,-z
-y,x-y,z
x,y,-z
-x+y,-x,z
-y,x-y,-z
loop_
_atom_site_type_symbol
_atom_site_label
_atom_site_fract_x
_atom_site_fract_y
_atom_site_fract_z
Si Si1 0.158099 0.238670 0.165814
Si Si2 0.418368 0.799948 0.163930
Si Si3 0.433021 0.237687 0.666813
Si Si4 0.666668 0.333334 0.329179
Si Si5 0.043379 0.643888 0.665948
Si Si6 0.921762 0.158986 0.165282
O O1 0.245599 0.329476 0.258527
O O2 0.173224 0.138983 0.184579
O O3 0.041871 0.208906 0.203577
O O4 0.175174 0.266303 0.000000
O O5 0.294037 0.737570 0.187389
O O6 0.488285 0.895368 0.262304
O O7 0.391785 0.563153 0.000000
O O8 0.423632 0.217274 0.500000
O O9 0.547408 0.267523 0.714733
O O10 0.417373 0.336899 0.689404
O O11 0.341714 0.141179 0.746846
O O12 0.666667 0.333334 0.500000
O O13 0.061948 0.655240 0.500000
O O14 0.916002 0.177499 0.000000
#
# Coordination Sequence:
#
# PCOD9581141 Si02
#       6
#     6   6   6   2   6   6
#     4   9  17  30  50  72 103 138 171 206 254 311
#     4   8  17  34  53  71  96 130 163 195 244 305
#     4   9  19  35  54  73  99 134 175 216 262 312
#     4   9  18  39  61  71  94 141 181 215 262 315
#     4  10  19  31  49  76 104 131 167 212 256 302
#     4   9  17  31  51  77 104 136 173 212 254 307
#
# _framework density 17.479201
#
# number of rings (size 3 to 8) (size 9 to 14) (size 15 to 20)
#    0.375    2.625    0.000    0.938    0.000    3.750 
#    3.375    0.938    0.000    2.250    0.000    0.000 
#    0.000    0.000    0.000    0.000    0.000    0.000 
#
# Total GULP energy -178277.276634 kJ/mol
# GULP energy per Si atom -5571.164895 kJ/mol
# Density = 1.743942 g / cm^3
# Si number density = 17.479201 Si / 1000 Ang^3
#
#
#
# Elastic Constant Matrix: (Units=GPa)
#
#
# Indices 1 2 3 4 5 6 
#
# 1 54.6223 25.7946 21.9002 0.0000 0.0000 -0.0012
# 2 25.7946 54.6202 21.8991 0.0000 0.0000 -0.0008
# 3 21.9002 21.8991 29.6188 0.0000 0.0000 -0.0007
# 4 0.0000 0.0000 0.0000 24.5351 -0.0001 0.0000
# 5 0.0000 0.0000 0.0000 -0.0001 24.5355 0.0000
# 6 -0.0012 -0.0008 -0.0007 0.0000 0.0000 14.4130
#
#
#
# Elastic Compliance Matrix: (Units=1/GPa)
#
#
# Indices 1 2 3 4 5 6 
#
# 1 0.027755 -0.006935 -0.015394 0.000000 0.000000 0.000001
# 2 -0.006935 0.027755 -0.015393 0.000000 0.000000 0.000000
# 3 -0.015394 -0.015393 0.056526 0.000000 0.000000 0.000000
# 4 0.000000 0.000000 0.000000 0.040758 0.000000 0.000000
# 5 0.000000 0.000000 0.000000 0.000000 0.040757 0.000000
# 6 0.000001 0.000000 0.000000 0.000000 0.000000 0.069382
#
#
# Mechanical properties :
#
#
# Convention : Reuss Voigt Hill
#
# Bulk Modulus (GPa) = 27.32945 30.89434 29.11189
# Shear Modulus (GPa) = 14.26228 17.31455 15.78842
#
# Velocity S-wave (km/s) = 2.85960 3.15076 3.00870
# Velocity P-wave (km/s) = 5.15484 5.56324 5.36293
#
# Compressibility (1/GPa) = 0.03659056
#
# Stress axis : x y z
#
# Youngs Moduli (GPa) = 36.02988 36.02943 17.69093
#
# Poissons Ratio (x) = 0.24987 0.27234
# Poissons Ratio (y) = 0.24987 0.27232
# Poissons Ratio (z) = 0.55465 0.55461
#
# Static dielectric constant tensor:
#      x y z
#    x 1.593250 0.000000 0.000000 
#    y 0.000000 1.593250 0.000000 
#    z 0.000000 0.000000 1.573210 
# 
# From -- ./inp_files/341.got.cif
#   From: 2010.05.17/outbox.cif.g08.bks.cpg/sg174_cif.got.tgz:341.got - 2010.05.20 11:22:48.
