data_PCOD9581339
_publ_section_title
;
Structure prediction by ZEFSAII (Michael W. Deem and Ramdas Pophale) SiO2 
 PCOD9581339
Probable space group: P 6/M
;
_chemical_formula_sum "Si O2"
_cell_formula_units_Z 80
_cell_length_a 18.185502
_cell_length_b 18.185502
_cell_length_c 17.496779
_cell_angle_alpha 90.000000
_cell_angle_beta 90.000000
_cell_angle_gamma 120.000000
_cell_volume 5011.172192
_symmetry_space_group_name_H-M "P 6/M"
_symmetry_group_IT_number 175
_symmetry_cell_setting 'hexagonal'
loop_
_space_group_symop_operation_xyz
x,y,z
x-y,x,z
-y,x-y,z
-x,-y,z
-x+y,-x,z
y,-x+y,z
-x,-y,-z
-x+y,-x,-z
y,-x+y,-z
x,y,-z
x-y,x,-z
-y,x-y,-z
loop_
_atom_site_type_symbol
_atom_site_label
_atom_site_fract_x
_atom_site_fract_y
_atom_site_fract_z
Si Si1 0.666668 0.333334 0.816152
Si Si2 0.016103 0.595631 0.910447
Si Si3 0.648800 0.481530 0.805206
Si Si4 0.304857 0.969488 0.226378
Si Si5 0.741444 0.221614 0.410884
Si Si6 0.497929 0.578860 0.676115
Si Si7 0.333335 0.666668 0.631252
Si Si8 0.629442 0.837211 0.273357
O O1 0.632717 0.394456 0.840092
O O2 0.666668 0.333334 0.723218
O O3 0.107880 0.647412 0.872190
O O4 0.000000 0.500000 0.897788
O O5 0.964897 0.629368 0.859694
O O6 0.010220 0.607014 0.000000
O O7 0.579560 0.458223 0.737576
O O8 0.741588 0.537050 0.768168
O O9 0.371436 0.955838 0.275955
O O10 0.213145 0.890002 0.246918
O O11 0.321604 0.063194 0.250011
O O12 0.751815 0.212390 0.500000
O O13 0.650048 0.148698 0.379308
O O14 0.733542 0.305478 0.396904
O O15 0.813801 0.216772 0.360931
O O16 0.500000 0.500000 0.637462
#
# Coordination Sequence:
#
# PCOD9581339 Si02
#       8
#     4  12  12  12  12  12   4  12
#     4  12  18  28  53  67  93 139 182 205 243 277
#     4  10  19  32  51  75 102 134 171 219 257 288
#     4  11  18  32  52  74  99 143 178 210 237 310
#     4  10  19  35  55  77  96 137 174 219 253 330
#     4  11  22  32  45  71 103 135 173 220 257 293
#     4  11  17  31  51  70 101 135 180 198 248 306
#     4  12  19  31  45  70 100 136 179 220 244 301
#     4  10  20  34  56  72  98 130 179 209 262 320
#
# _framework density 15.96433
#
# number of rings (size 3 to 8) (size 9 to 14) (size 15 to 20)
#    0.000    1.350    7.500    1.350    0.000    0.300 
#    0.000    6.750    0.000    0.300    0.000    0.000 
#    0.000    0.000    0.000   10.800    0.000    0.000 
#
# Total GULP energy -445339.713083 kJ/mol
# GULP energy per Si atom -5566.746414 kJ/mol
# Density = 1.592799 g / cm^3
# Si number density = 15.964330 Si / 1000 Ang^3
#
#
#
# Elastic Constant Matrix: (Units=GPa)
#
#
# Indices 1 2 3 4 5 6 
#
# 1 74.6247 27.6888 25.5228 0.0000 0.0000 0.0002
# 2 27.6888 74.6244 25.5231 0.0000 0.0000 0.0000
# 3 25.5228 25.5231 94.6751 0.0000 0.0000 -0.0003
# 4 0.0000 0.0000 0.0000 9.0387 0.0001 0.0000
# 5 0.0000 0.0000 0.0000 0.0001 9.0387 0.0000
# 6 0.0002 0.0000 -0.0003 0.0000 0.0000 23.4679
#
#
#
# Elastic Compliance Matrix: (Units=1/GPa)
#
#
# Indices 1 2 3 4 5 6 
#
# 1 0.016299 -0.005006 -0.003044 0.000000 0.000000 0.000000
# 2 -0.005006 0.016299 -0.003044 0.000000 0.000000 0.000000
# 3 -0.003044 -0.003044 0.012204 0.000000 0.000000 0.000000
# 4 0.000000 0.000000 0.000000 0.110636 -0.000001 0.000000
# 5 0.000000 0.000000 0.000000 -0.000001 0.110635 0.000000
# 6 0.000000 0.000000 0.000000 0.000000 0.000000 0.042611
#
#
# Mechanical properties :
#
#
# Convention : Reuss Voigt Hill
#
# Bulk Modulus (GPa) = 44.22436 44.59931 44.41183
# Shear Modulus (GPa) = 14.77486 19.32168 17.04827
#
# Velocity S-wave (km/s) = 3.04549 3.48272 3.27142
# Velocity P-wave (km/s) = 6.33473 6.64604 6.49225
#
# Compressibility (1/GPa) = 0.02261197
#
# Stress axis : x y z
#
# Youngs Moduli (GPa) = 61.35270 61.35230 81.94120
#
# Poissons Ratio (x) = 0.30716 0.24946
# Poissons Ratio (y) = 0.30716 0.24946
# Poissons Ratio (z) = 0.18678 0.18678
#
# Static dielectric constant tensor:
#      x y z
#    x 1.573380 0.000000 0.000000 
#    y 0.000000 1.573380 0.000000 
#    z 0.000000 0.000000 1.545260 
# 
# From -- ./inp_files/2975.got.cif
#   From: 2010.05.17/outbox.cif.g08.bks.cpg/sg175_2_cif.got.tgz:2975.got - 2010.05.20 11:23:22.
