data_PCOD9581480
_publ_section_title
;
Structure prediction by ZEFSAII (Michael W. Deem and Ramdas Pophale) SiO2 
 PCOD9581480
Probable space group: P 6/M
;
_chemical_formula_sum "Si O2"
_cell_formula_units_Z 60
_cell_length_a 14.996649
_cell_length_b 14.996649
_cell_length_c 13.427432
_cell_angle_alpha 90.000000
_cell_angle_beta 90.000000
_cell_angle_gamma 120.000000
_cell_volume 2615.242992
_symmetry_space_group_name_H-M "P 6/M"
_symmetry_group_IT_number 175
_symmetry_cell_setting 'hexagonal'
loop_
_space_group_symop_operation_xyz
x,y,z
x-y,x,z
-y,x-y,z
-x,-y,z
-x+y,-x,z
y,-x+y,z
-x,-y,-z
-x+y,-x,-z
y,-x+y,-z
x,y,-z
x-y,x,-z
-y,x-y,-z
loop_
_atom_site_type_symbol
_atom_site_label
_atom_site_fract_x
_atom_site_fract_y
_atom_site_fract_z
Si Si1 0.697813 0.539403 0.807120
Si Si2 0.263680 0.262005 0.888875
Si Si3 0.506474 0.356446 0.887679
Si Si4 0.223584 0.187951 0.669988
Si Si5 0.620393 0.588929 0.614946
O O1 0.759154 0.644560 0.870374
O O2 0.587417 0.470266 0.856488
O O3 0.760802 0.480922 0.814885
O O4 0.683789 0.564899 0.695634
O O5 0.387909 0.324448 0.883348
O O6 0.223313 0.191853 0.791226
O O7 0.231413 0.218077 0.000000
O O8 0.529085 0.338400 0.000000
O O9 0.129424 0.206365 0.637672
O O10 0.332461 0.287792 0.635989
O O11 0.500000 0.500000 0.631377
O O12 0.641892 0.579817 0.500000
#
# Coordination Sequence:
#
# PCOD9581480 Si02
#       5
#    12  12  12  12  12
#     4  11  21  36  56  83 118 159 207 261 324 394
#     4  10  20  35  56  83 120 167 216 264 319 388
#     4  11  21  33  54  86 123 162 205 256 317 390
#     4  11  24  43  68  99 137 182 232 284 341 408
#     4  10  23  44  69  94 122 162 216 282 351 411
#
# _framework density 22.942419000000001
#
# number of rings (size 3 to 8) (size 9 to 14) (size 15 to 20)
#    0.000    1.400    0.000    7.800    0.000    4.800 
#    0.000    3.000    0.000    3.200    0.000    0.000 
#    0.000    0.000    0.000    0.000    0.000    0.000 
#
# Total GULP energy -335194.953124 kJ/mol
# GULP energy per Si atom -5586.582552 kJ/mol
# Density = 2.289020 g / cm^3
# Si number density = 22.942419 Si / 1000 Ang^3
#
#
#
# Elastic Constant Matrix: (Units=GPa)
#
#
# Indices 1 2 3 4 5 6 
#
# 1 106.1427 40.1902 7.9904 0.0000 0.0000 0.0000
# 2 40.1902 106.1427 7.9904 0.0000 0.0000 0.0000
# 3 7.9904 7.9904 118.2736 0.0000 0.0000 0.0000
# 4 0.0000 0.0000 0.0000 7.6524 0.0000 0.0000
# 5 0.0000 0.0000 0.0000 0.0000 7.6524 0.0000
# 6 0.0000 0.0000 0.0000 0.0000 0.0000 32.9763
#
#
#
# Elastic Compliance Matrix: (Units=1/GPa)
#
#
# Indices 1 2 3 4 5 6 
#
# 1 0.011023 -0.004139 -0.000465 0.000000 0.000000 0.000000
# 2 -0.004139 0.011023 -0.000465 0.000000 0.000000 0.000000
# 3 -0.000465 -0.000465 0.008518 0.000000 0.000000 0.000000
# 4 0.000000 0.000000 0.000000 0.130678 0.000000 0.000000
# 5 0.000000 0.000000 0.000000 0.000000 0.130678 0.000000
# 6 0.000000 0.000000 0.000000 0.000000 0.000000 0.030325
#
#
# Mechanical properties :
#
#
# Convention : Reuss Voigt Hill
#
# Bulk Modulus (GPa) = 48.95618 49.21123 49.08371
# Shear Modulus (GPa) = 14.74085 27.94874 21.34479
#
# Velocity S-wave (km/s) = 2.53754 3.49408 3.05350
# Velocity P-wave (km/s) = 5.47453 6.14610 5.82001
#
# Compressibility (1/GPa) = 0.02042643
#
# Stress axis : x y z
#
# Youngs Moduli (GPa) = 90.71552 90.71552 117.40093
#
# Poissons Ratio (x) = 0.37547 0.05460
# Poissons Ratio (y) = 0.37547 0.05460
# Poissons Ratio (z) = 0.04219 0.04219
#
# Static dielectric constant tensor:
#      x y z
#    x 1.899690 0.000000 0.000000 
#    y 0.000000 1.899690 0.000000 
#    z 0.000000 0.000000 1.828250 
# 
# From -- ./inp_files/2380.got.cif
#   From: 2010.05.17/outbox.cif.g08.bks.cpg/sg175_2_cif.got.tgz:2380.got - 2010.05.20 11:23:22.
