data_PCOD9581283
_publ_section_title
;
Structure prediction by ZEFSAII (Michael W. Deem and Ramdas Pophale) SiO2 
 PCOD9581283
Probable space group: P 6/M
;
_chemical_formula_sum "Si O2"
_cell_formula_units_Z 76
_cell_length_a 18.769651
_cell_length_b 18.769651
_cell_length_c 14.067012
_cell_angle_alpha 90.000000
_cell_angle_beta 90.000000
_cell_angle_gamma 120.000000
_cell_volume 4291.853455
_symmetry_space_group_name_H-M "P 6/M"
_symmetry_group_IT_number 175
_symmetry_cell_setting 'hexagonal'
loop_
_space_group_symop_operation_xyz
x,y,z
x-y,x,z
-y,x-y,z
-x,-y,z
-x+y,-x,z
y,-x+y,z
-x,-y,-z
-x+y,-x,-z
y,-x+y,-z
x,y,-z
x-y,x,-z
-y,x-y,-z
loop_
_atom_site_type_symbol
_atom_site_label
_atom_site_fract_x
_atom_site_fract_y
_atom_site_fract_z
Si Si1 0.328015 0.300697 0.392010
Si Si2 0.107040 0.855202 0.391070
Si Si3 0.130103 0.182820 0.190868
Si Si4 0.896259 0.259281 0.886047
Si Si5 0.427170 0.406839 0.216464
Si Si6 0.705620 0.192198 0.885833
Si Si7 0.666668 0.333334 0.884403
O O1 0.358837 0.317586 0.500000
O O2 0.300046 0.204799 0.371368
O O3 0.243949 0.305227 0.388174
O O4 0.391845 0.361877 0.316687
O O5 0.096362 0.876885 0.500000
O O6 0.062233 0.873989 0.305868
O O7 0.156984 0.118255 0.158406
O O8 0.197674 0.272766 0.155080
O O9 0.800296 0.222186 0.863302
O O10 0.950052 0.349044 0.840669
O O11 0.906094 0.264525 0.000000
O O12 0.500000 0.500000 0.225756
O O13 0.459977 0.354556 0.160572
O O14 0.683830 0.261248 0.854175
O O15 0.696818 0.184508 0.000000
O O16 0.666667 0.333334 0.000000
#
# Coordination Sequence:
#
# PCOD9581283 Si02
#       7
#    12  12  12  12  12  12   4
#     4  10  21  37  59  87 118 154 194 237 288 346
#     4  10  18  33  59  85 113 151 194 239 284 335
#     4  12  23  37  55  83 121 160 202 243 291 344
#     4  11  23  40  61  82 112 153 199 246 290 347
#     4  12  24  37  59  90 118 145 186 241 295 352
#     4  10  21  37  58  84 114 151 190 233 291 345
#     4   9  18  36  57  81 115 149 184 234 294 357
#
# _framework density 17.707968000000001
#
# number of rings (size 3 to 8) (size 9 to 14) (size 15 to 20)
#    0.000    1.263    3.158    3.474    0.000    4.737 
#    0.000    0.000    0.000    1.895    0.000    0.000 
#    0.000    0.000    0.000    0.000    0.000    0.000 
#
# Total GULP energy -424403.444109 kJ/mol
# GULP energy per Si atom -5584.255844 kJ/mol
# Density = 1.766766 g / cm^3
# Si number density = 17.707968 Si / 1000 Ang^3
#
#
#
# Elastic Constant Matrix: (Units=GPa)
#
#
# Indices 1 2 3 4 5 6 
#
# 1 145.1696 77.0269 41.2807 0.0000 0.0000 -0.0002
# 2 77.0269 145.1704 41.2811 0.0000 0.0000 0.0002
# 3 41.2807 41.2811 40.6165 0.0000 0.0000 -0.0005
# 4 0.0000 0.0000 0.0000 19.9661 0.0001 0.0000
# 5 0.0000 0.0000 0.0000 0.0001 19.9663 0.0000
# 6 -0.0002 0.0002 -0.0005 0.0000 0.0000 34.0714
#
#
#
# Elastic Compliance Matrix: (Units=1/GPa)
#
#
# Indices 1 2 3 4 5 6 
#
# 1 0.010953 -0.003722 -0.007350 0.000000 0.000000 0.000000
# 2 -0.003722 0.010953 -0.007350 0.000000 0.000000 0.000000
# 3 -0.007350 -0.007350 0.039561 0.000000 0.000000 0.000001
# 4 0.000000 0.000000 0.000000 0.050085 0.000000 0.000000
# 5 0.000000 0.000000 0.000000 0.000000 0.050084 0.000000
# 6 0.000000 0.000000 0.000001 0.000000 0.000000 0.029350
#
#
# Mechanical properties :
#
#
# Convention : Reuss Voigt Hill
#
# Bulk Modulus (GPa) = 40.61007 72.23710 56.42359
# Shear Modulus (GPa) = 21.18311 26.22529 23.70420
#
# Velocity S-wave (km/s) = 3.46243 3.85254 3.66268
# Velocity P-wave (km/s) = 6.24240 7.78919 7.05830
#
# Compressibility (1/GPa) = 0.02462443
#
# Stress axis : x y z
#
# Youngs Moduli (GPa) = 91.29724 91.29723 25.27771
#
# Poissons Ratio (x) = 0.33979 0.18578
# Poissons Ratio (y) = 0.33979 0.18579
# Poissons Ratio (z) = 0.67101 0.67102
#
# Static dielectric constant tensor:
#      x y z
#    x 1.589510 0.000000 0.000000 
#    y 0.000000 1.589510 0.000000 
#    z 0.000000 0.000000 1.622500 
# 
# From -- ./inp_files/2556.got.cif
#   From: 2010.05.17/outbox.cif.g08.bks.cpg/sg175_2_cif.got.tgz:2556.got - 2010.05.20 11:23:22.
