data_PCOD9581863
_publ_section_title
;
Structure prediction by ZEFSAII (Michael W. Deem and Ramdas Pophale) SiO2 
 PCOD9581863
Probable space group: P 63/M
;
_chemical_formula_sum "Si O2"
_cell_formula_units_Z 76
_cell_length_a 17.682777
_cell_length_b 17.682777
_cell_length_c 16.290692
_cell_angle_alpha 90.000000
_cell_angle_beta 90.000000
_cell_angle_gamma 120.000000
_cell_volume 4411.345816
_symmetry_space_group_name_H-M "P 63/M"
_symmetry_group_IT_number 176
_symmetry_cell_setting 'hexagonal'
loop_
_space_group_symop_operation_xyz
x,y,z
x-y,x,1/2+z
-y,x-y,z
-x,-y,1/2+z
-x+y,-x,z
y,-x+y,1/2+z
-x,-y,-z
-x+y,-x,1/2-z
y,-x+y,-z
x,y,1/2-z
x-y,x,-z
-y,x-y,1/2-z
loop_
_atom_site_type_symbol
_atom_site_label
_atom_site_fract_x
_atom_site_fract_y
_atom_site_fract_z
Si Si1 0.984421 0.456813 0.910000
Si Si2 0.123833 0.201137 0.985248
Si Si3 0.455253 0.214605 0.750000
Si Si4 0.333334 0.666668 0.649626
Si Si5 0.894731 0.699116 0.157442
Si Si6 0.832215 0.510499 0.150924
Si Si7 0.743446 0.657284 0.609984
Si Si8 0.875302 0.450562 0.750000
O O1 0.936130 0.351845 0.921890
O O2 0.932467 0.472930 0.835027
O O3 0.080882 0.489094 0.875172
O O4 0.000000 0.500000 0.000000
O O5 0.120547 0.235435 0.895776
O O6 0.157408 0.132565 0.983188
O O7 0.187409 0.284432 0.040971
O O8 0.392722 0.167424 0.671487
O O9 0.501145 0.319423 0.750000
O O10 0.528104 0.183787 0.750000
O O11 0.333334 0.666668 0.750000
O O12 0.320241 0.745787 0.621941
O O13 0.867453 0.698121 0.250000
O O14 0.841762 0.601315 0.121682
O O15 0.996370 0.724648 0.155109
O O16 0.830910 0.512440 0.250000
#
# Coordination Sequence:
#
# PCOD9581863 Si02
#       8
#    12  12   6   4  12  12  12   6
#     4  10  20  36  59  82 112 150 194 238 284 341
#     4  10  21  37  57  82 115 148 187 235 294 340
#     4  10  19  36  58  82 116 150 192 240 289 340
#     4   9  18  30  51  78 111 148 167 223 288 336
#     4   9  17  34  58  78 101 146 192 228 273 342
#     4   9  17  33  53  74 106 143 185 218 278 342
#     4   9  19  36  58  77 110 154 189 225 288 344
#     4  10  21  36  58  86 114 154 194 244 297 344
#
# _framework density 17.228303
#
# number of rings (size 3 to 8) (size 9 to 14) (size 15 to 20)
#    0.000    2.526    1.579    0.316    0.000    5.053 
#    1.421    1.579    1.737    0.000    0.000    0.000 
#    0.000    0.000    0.000    0.000    0.000    0.000 
#
# Total GULP energy -423221.928031 kJ/mol
# GULP energy per Si atom -5568.709579 kJ/mol
# Density = 1.718909 g / cm^3
# Si number density = 17.228303 Si / 1000 Ang^3
#
#
#
# Elastic Constant Matrix: (Units=GPa)
#
#
# Indices 1 2 3 4 5 6 
#
# 1 99.8428 57.3642 46.8082 0.0000 0.0000 0.0002
# 2 57.3642 99.8405 46.8081 0.0000 0.0000 -0.0001
# 3 46.8082 46.8081 79.4954 0.0000 0.0000 0.0000
# 4 0.0000 0.0000 0.0000 12.3798 0.0001 0.0000
# 5 0.0000 0.0000 0.0000 0.0001 12.3799 0.0000
# 6 0.0002 -0.0001 0.0000 0.0000 0.0000 21.2384
#
#
#
# Elastic Compliance Matrix: (Units=1/GPa)
#
#
# Indices 1 2 3 4 5 6 
#
# 1 0.016669 -0.006873 -0.005768 0.000000 0.000000 0.000000
# 2 -0.006873 0.016669 -0.005768 0.000000 0.000000 0.000000
# 3 -0.005768 -0.005768 0.019372 0.000000 0.000000 0.000000
# 4 0.000000 0.000000 0.000000 0.080777 -0.000001 0.000000
# 5 0.000000 0.000000 0.000000 -0.000001 0.080776 0.000000
# 6 0.000000 0.000000 0.000000 0.000000 0.000000 0.047084
#
#
# Mechanical properties :
#
#
# Convention : Reuss Voigt Hill
#
# Bulk Modulus (GPa) = 62.92557 64.57107 63.74832
# Shear Modulus (GPa) = 16.47652 17.74618 17.11135
#
# Velocity S-wave (km/s) = 3.09587 3.21294 3.15495
# Velocity P-wave (km/s) = 7.02731 7.16414 7.09605
#
# Compressibility (1/GPa) = 0.01589179
#
# Stress axis : x y z
#
# Youngs Moduli (GPa) = 59.99277 59.99098 51.62108
#
# Poissons Ratio (x) = 0.41232 0.29774
# Poissons Ratio (y) = 0.41233 0.29776
# Poissons Ratio (z) = 0.34603 0.34604
#
# Static dielectric constant tensor:
#      x y z
#    x 1.578960 0.000000 0.000000 
#    y 0.000000 1.578960 0.000000 
#    z 0.000000 0.000000 1.586450 
# 
# From -- ./inp_files/2893.got.cif
#   From: 2010.05.17/outbox.cif.g08.bks.cpg/sg176_2_cif.got.tgz:2893.got - 2010.06.03 11:36:45.
