data_PCOD9581528
_publ_section_title
;
Structure prediction by ZEFSAII (Michael W. Deem and Ramdas Pophale) SiO2 
 PCOD9581528
Probable space group: P 6/M
;
_chemical_formula_sum "Si O2"
_cell_formula_units_Z 48
_cell_length_a 14.286165
_cell_length_b 14.286165
_cell_length_c 12.640333
_cell_angle_alpha 90.000000
_cell_angle_beta 90.000000
_cell_angle_gamma 120.000000
_cell_volume 2234.191887
_symmetry_space_group_name_H-M "P 6/M"
_symmetry_group_IT_number 175
_symmetry_cell_setting 'hexagonal'
loop_
_space_group_symop_operation_xyz
x,y,z
x-y,x,z
-y,x-y,z
-x,-y,z
-x+y,-x,z
y,-x+y,z
-x,-y,-z
-x+y,-x,-z
y,-x+y,-z
x,y,-z
x-y,x,-z
-y,x-y,-z
loop_
_atom_site_type_symbol
_atom_site_label
_atom_site_fract_x
_atom_site_fract_y
_atom_site_fract_z
Si Si1 0.135788 0.603779 0.254253
Si Si2 0.814355 0.532603 0.879638
Si Si3 0.833379 0.085800 0.234718
Si Si4 0.593513 0.655942 0.622644
O O1 0.116186 0.521965 0.156747
O O2 0.227084 0.713791 0.202186
O O3 0.145633 0.532520 0.349709
O O4 0.041366 0.621314 0.303049
O O5 0.881957 0.660588 0.859505
O O6 0.778391 0.506943 0.000000
O O7 0.777040 0.103895 0.338411
O O8 0.961105 0.161659 0.232127
O O9 0.605985 0.641120 0.500000
#
# Coordination Sequence:
#
# PCOD9581528 Si02
#       4
#    12  12  12  12
#     4  10  20  41  65 100 136 176 223 280 341 425
#     4  11  23  40  68 104 143 185 231 287 351 416
#     4  11  24  46  68 100 137 185 243 297 345 415
#     4  10  22  44  70  98 136 178 225 290 360 414
#
# _framework density 21.484279000000001
#
# number of rings (size 3 to 8) (size 9 to 14) (size 15 to 20)
#    0.000    1.500    2.500    3.000    0.000    2.000 
#    0.000   10.000    0.000    3.000    0.000    0.000 
#    0.000    0.000    0.000    0.000    0.000    0.000 
#
# Total GULP energy -267378.639866 kJ/mol
# GULP energy per Si atom -5570.388331 kJ/mol
# Density = 2.143538 g / cm^3
# Si number density = 21.484279 Si / 1000 Ang^3
#
#
#
# Elastic Constant Matrix: (Units=GPa)
#
#
# Indices 1 2 3 4 5 6 
#
# 1 123.7363 57.2857 33.8507 0.0000 0.0000 0.0000
# 2 57.2857 123.7363 33.8507 0.0000 0.0000 0.0000
# 3 33.8507 33.8507 117.4466 0.0000 0.0000 0.0000
# 4 0.0000 0.0000 0.0000 17.2745 0.0000 0.0000
# 5 0.0000 0.0000 0.0000 0.0000 17.2745 0.0000
# 6 0.0000 0.0000 0.0000 0.0000 0.0000 33.2253
#
#
#
# Elastic Compliance Matrix: (Units=1/GPa)
#
#
# Indices 1 2 3 4 5 6 
#
# 1 0.010620 -0.004429 -0.001785 0.000000 0.000000 0.000000
# 2 -0.004429 0.010620 -0.001785 0.000000 0.000000 0.000000
# 3 -0.001785 -0.001785 0.009543 0.000000 0.000000 0.000000
# 4 0.000000 0.000000 0.000000 0.057889 0.000000 0.000000
# 5 0.000000 0.000000 0.000000 0.000000 0.057889 0.000000
# 6 0.000000 0.000000 0.000000 0.000000 0.000000 0.030098
#
#
# Mechanical properties :
#
#
# Convention : Reuss Voigt Hill
#
# Bulk Modulus (GPa) = 67.62155 68.32151 67.97153
# Shear Modulus (GPa) = 25.30580 29.55036 27.42808
#
# Velocity S-wave (km/s) = 3.43574 3.71272 3.57691
# Velocity P-wave (km/s) = 6.87621 7.08864 6.98323
#
# Compressibility (1/GPa) = 0.01478818
#
# Stress axis : x y z
#
# Youngs Moduli (GPa) = 94.16030 94.16030 104.78664
#
# Poissons Ratio (x) = 0.41700 0.18700
# Poissons Ratio (y) = 0.41700 0.18700
# Poissons Ratio (z) = 0.16803 0.16803
#
# Static dielectric constant tensor:
#      x y z
#    x 1.869290 0.000000 0.000000 
#    y 0.000000 1.869290 0.000000 
#    z 0.000000 0.000000 1.758770 
# 
# From -- ./inp_files/1622.got.cif
#   From: 2010.05.17/outbox.cif.g08.bks.cpg/sg175_1_cif.got.tgz:1622.got - 2010.05.20 11:23:22.
