data_PCOD9581369
_publ_section_title
;
Structure prediction by ZEFSAII (Michael W. Deem and Ramdas Pophale) SiO2 
 PCOD9581369
Probable space group: P 6/M
;
_chemical_formula_sum "Si O2"
_cell_formula_units_Z 78
_cell_length_a 24.272286
_cell_length_b 24.272286
_cell_length_c 8.591527
_cell_angle_alpha 90.000000
_cell_angle_beta 90.000000
_cell_angle_gamma 120.000000
_cell_volume 4383.513541
_symmetry_space_group_name_H-M "P 6/M"
_symmetry_group_IT_number 175
_symmetry_cell_setting 'hexagonal'
loop_
_space_group_symop_operation_xyz
x,y,z
x-y,x,z
-y,x-y,z
-x,-y,z
-x+y,-x,z
y,-x+y,z
-x,-y,-z
-x+y,-x,-z
y,-x+y,-z
x,y,-z
x-y,x,-z
-y,x-y,-z
loop_
_atom_site_type_symbol
_atom_site_label
_atom_site_fract_x
_atom_site_fract_y
_atom_site_fract_z
Si Si1 0.639620 0.154214 0.322717
Si Si2 0.043933 0.675041 0.185793
Si Si3 0.377605 0.280267 0.183546
Si Si4 0.835936 0.215385 0.322750
Si Si5 0.494683 0.931217 0.814816
Si Si6 0.711078 0.466793 0.325288
Si Si7 0.737763 0.331530 0.000000
O O1 0.644778 0.136091 0.500000
O O2 0.672563 0.125267 0.213291
O O3 0.566517 0.121314 0.275533
O O4 0.682628 0.230544 0.318664
O O5 0.100427 0.744470 0.225501
O O6 0.062358 0.622925 0.242533
O O7 0.974755 0.658411 0.244804
O O8 0.037884 0.666437 0.000000
O O9 0.359685 0.213967 0.262666
O O10 0.366952 0.269692 0.000000
O O11 0.853149 0.212921 0.500000
O O12 0.797964 0.254697 0.318371
O O13 0.500000 0.000000 0.796276
O O14 0.486621 0.916243 0.000000
O O15 0.681209 0.446405 0.500000
O O16 0.673676 0.440698 0.163076
O O17 0.727319 0.391860 0.000000
#
# Coordination Sequence:
#
# PCOD9581369 Si02
#       7
#    12  12  12  12  12  12   6
#     4  10  20  32  50  75  98 130 165 206 276 329
#     4  10  21  35  54  81 107 138 178 220 264 320
#     4  10  19  35  57  77 104 139 175 215 261 318
#     4  10  22  37  55  81 106 138 174 212 274 328
#     4  10  19  33  49  74 105 132 169 214 263 314
#     4   9  21  39  55  74  99 127 169 223 271 330
#     4  10  24  38  54  76  85 125 179 210 280 338
#
# _framework density 17.793945000000001
#
# number of rings (size 3 to 8) (size 9 to 14) (size 15 to 20)
#    0.154    2.000    1.538    2.308    6.462    4.000 
#    0.000    3.077    0.000    0.000    0.000    0.000 
#    0.000    0.000    0.000    0.462    0.000    8.923 
#
# Total GULP energy -435608.381756 kJ/mol
# GULP energy per Si atom -5584.722843 kJ/mol
# Density = 1.775345 g / cm^3
# Si number density = 17.793945 Si / 1000 Ang^3
#
#
#
# Elastic Constant Matrix: (Units=GPa)
#
#
# Indices 1 2 3 4 5 6 
#
# 1 60.1681 17.4905 4.6867 0.0000 0.0000 0.0000
# 2 17.4905 60.1681 4.6867 0.0000 0.0000 0.0000
# 3 4.6867 4.6867 47.4480 0.0000 0.0000 0.0000
# 4 0.0000 0.0000 0.0000 10.3364 0.0000 0.0000
# 5 0.0000 0.0000 0.0000 0.0000 10.3364 0.0000
# 6 0.0000 0.0000 0.0000 0.0000 0.0000 21.3388
#
#
#
# Elastic Compliance Matrix: (Units=1/GPa)
#
#
# Indices 1 2 3 4 5 6 
#
# 1 0.018232 -0.005200 -0.001287 0.000000 0.000000 0.000000
# 2 -0.005200 0.018232 -0.001287 0.000000 0.000000 0.000000
# 3 -0.001287 -0.001287 0.021330 0.000000 0.000000 0.000000
# 4 0.000000 0.000000 0.000000 0.096746 0.000000 0.000000
# 5 0.000000 0.000000 0.000000 0.000000 0.096746 0.000000
# 6 0.000000 0.000000 0.000000 0.000000 0.000000 0.046863
#
#
# Mechanical properties :
#
#
# Convention : Reuss Voigt Hill
#
# Bulk Modulus (GPa) = 23.67120 24.61244 24.14182
# Shear Modulus (GPa) = 15.25422 17.79701 16.52562
#
# Velocity S-wave (km/s) = 2.93109 3.16598 3.05080
# Velocity P-wave (km/s) = 4.97865 5.21790 5.09968
#
# Compressibility (1/GPa) = 0.04224543
#
# Stress axis : x y z
#
# Youngs Moduli (GPa) = 54.84905 54.84905 46.88234
#
# Poissons Ratio (x) = 0.28519 0.06035
# Poissons Ratio (y) = 0.28519 0.06035
# Poissons Ratio (z) = 0.07060 0.07060
#
# Static dielectric constant tensor:
#      x y z
#    x 1.614030 0.000000 0.000000 
#    y 0.000000 1.614030 0.000000 
#    z 0.000000 0.000000 1.622110 
# 
# From -- ./inp_files/1360.got.cif
#   From: 2010.05.17/outbox.cif.g08.bks.cpg/sg175_1_cif.got.tgz:1360.got - 2010.05.20 11:23:22.
