data_PCOD9581558
_publ_section_title
;
Structure prediction by ZEFSAII (Michael W. Deem and Ramdas Pophale) SiO2 
 PCOD9581558
Probable space group: P 6/M
;
_chemical_formula_sum "Si O2"
_cell_formula_units_Z 72
_cell_length_a 23.377807
_cell_length_b 23.377807
_cell_length_c 8.642539
_cell_angle_alpha 90.000000
_cell_angle_beta 90.000000
_cell_angle_gamma 120.000000
_cell_volume 4090.529391
_symmetry_space_group_name_H-M "P 6/M"
_symmetry_group_IT_number 175
_symmetry_cell_setting 'hexagonal'
loop_
_space_group_symop_operation_xyz
x,y,z
x-y,x,z
-y,x-y,z
-x,-y,z
-x+y,-x,z
y,-x+y,z
-x,-y,-z
-x+y,-x,-z
y,-x+y,-z
x,y,-z
x-y,x,-z
-y,x-y,-z
loop_
_atom_site_type_symbol
_atom_site_label
_atom_site_fract_x
_atom_site_fract_y
_atom_site_fract_z
Si Si1 0.476047 0.401519 0.315085
Si Si2 0.389901 0.131353 0.685691
Si Si3 0.997668 0.864598 0.185334
Si Si4 0.262969 0.257833 0.683604
Si Si5 0.260038 0.868786 0.183869
Si Si6 0.526483 0.926964 0.814998
O O1 0.477903 0.405314 0.500000
O O2 0.448686 0.327319 0.258690
O O3 0.426204 0.425894 0.253848
O O4 0.546961 0.453873 0.245758
O O5 0.394968 0.135434 0.500000
O O6 0.390651 0.195567 0.751221
O O7 0.447339 0.120488 0.755441
O O8 0.321178 0.064996 0.726192
O O9 0.932937 0.869285 0.221525
O O10 0.996585 0.804403 0.274009
O O11 0.997466 0.853324 0.000000
O O12 0.276091 0.261080 0.500000
O O13 0.322983 0.257240 0.770706
O O14 0.262833 0.864386 0.000000
O O15 0.528412 0.931054 0.000000
#
# Coordination Sequence:
#
# PCOD9581558 Si02
#       6
#    12  12  12  12  12  12
#     4  11  21  37  60  87 120 156 193 237 292 347
#     4  11  23  39  59  85 121 161 199 241 296 353
#     4  10  21  37  56  76 101 137 186 240 296 354
#     4  11  23  38  56  80 113 150 191 239 297 359
#     4  12  24  38  59  87 120 156 199 247 295 348
#     4  11  21  36  60  90 120 152 194 241 289 341
#
# _framework density 17.601633
#
# number of rings (size 3 to 8) (size 9 to 14) (size 15 to 20)
#    0.000    1.000    1.667    7.667    0.000    6.000 
#    0.000    0.000    0.000    1.667    0.000    4.667 
#    0.000    0.000    0.000    0.000    0.000    0.000 
#
# Total GULP energy -402709.637648 kJ/mol
# GULP energy per Si atom -5593.189412 kJ/mol
# Density = 1.756157 g / cm^3
# Si number density = 17.601633 Si / 1000 Ang^3
#
#
#
# Elastic Constant Matrix: (Units=GPa)
#
#
# Indices 1 2 3 4 5 6 
#
# 1 115.1265 61.9393 52.8474 0.0000 0.0000 0.0000
# 2 61.9393 115.1265 52.8474 0.0000 0.0000 0.0000
# 3 52.8474 52.8474 120.9430 0.0000 0.0000 0.0000
# 4 0.0000 0.0000 0.0000 47.2702 0.0000 0.0000
# 5 0.0000 0.0000 0.0000 0.0000 47.2702 0.0000
# 6 0.0000 0.0000 0.0000 0.0000 0.0000 26.5936
#
#
#
# Elastic Compliance Matrix: (Units=1/GPa)
#
#
# Indices 1 2 3 4 5 6 
#
# 1 0.013221 -0.005580 -0.003339 0.000000 0.000000 0.000000
# 2 -0.005580 0.013221 -0.003339 0.000000 0.000000 0.000000
# 3 -0.003339 -0.003339 0.011186 0.000000 0.000000 0.000000
# 4 0.000000 0.000000 0.000000 0.021155 0.000000 0.000000
# 5 0.000000 0.000000 0.000000 0.000000 0.021155 0.000000
# 6 0.000000 0.000000 0.000000 0.000000 0.000000 0.037603
#
#
# Mechanical properties :
#
#
# Convention : Reuss Voigt Hill
#
# Bulk Modulus (GPa) = 76.26231 76.27379 76.26805
# Shear Modulus (GPa) = 34.14663 36.46426 35.30545
#
# Velocity S-wave (km/s) = 4.40929 4.55647 4.48348
# Velocity P-wave (km/s) = 8.32726 8.43263 8.38011
#
# Compressibility (1/GPa) = 0.01311264
#
# Stress axis : x y z
#
# Youngs Moduli (GPa) = 75.63717 75.63717 89.39713
#
# Poissons Ratio (x) = 0.42209 0.29846
# Poissons Ratio (y) = 0.42209 0.29846
# Poissons Ratio (z) = 0.25252 0.25252
#
# Static dielectric constant tensor:
#      x y z
#    x 1.580560 0.000000 0.000000 
#    y 0.000000 1.580560 0.000000 
#    z 0.000000 0.000000 1.591250 
# 
# From -- ./inp_files/1156.got.cif
#   From: 2010.05.17/outbox.cif.g08.bks.cpg/sg175_1_cif.got.tgz:1156.got - 2010.05.20 11:23:22.
