data_PCOD9581802
_publ_section_title
;
Structure prediction by ZEFSAII (Michael W. Deem and Ramdas Pophale) SiO2 
 PCOD9581802
Probable space group: P 63/M
;
_chemical_formula_sum "Si O2"
_cell_formula_units_Z 72
_cell_length_a 24.520987
_cell_length_b 24.520987
_cell_length_c 9.017715
_cell_angle_alpha 90.000000
_cell_angle_beta 90.000000
_cell_angle_gamma 120.000000
_cell_volume 4695.729070
_symmetry_space_group_name_H-M "P 63/M"
_symmetry_group_IT_number 176
_symmetry_cell_setting 'hexagonal'
loop_
_space_group_symop_operation_xyz
x,y,z
x-y,x,1/2+z
-y,x-y,z
-x,-y,1/2+z
-x+y,-x,z
y,-x+y,1/2+z
-x,-y,-z
-x+y,-x,1/2-z
y,-x+y,-z
x,y,1/2-z
x-y,x,-z
-y,x-y,1/2-z
loop_
_atom_site_type_symbol
_atom_site_label
_atom_site_fract_x
_atom_site_fract_y
_atom_site_fract_z
Si Si1 0.626054 0.140495 0.928011
Si Si2 0.820157 0.634514 0.580576
Si Si3 0.735395 0.481810 0.580888
Si Si4 0.627749 0.488692 0.073880
Si Si5 0.070501 0.696214 0.428515
Si Si6 0.076037 0.377445 0.573868
O O1 0.622404 0.134855 0.750000
O O2 0.675292 0.214330 0.962834
O O3 0.559425 0.121024 0.999456
O O4 0.656006 0.100345 0.993091
O O5 0.839709 0.655279 0.750000
O O6 0.778060 0.558057 0.583027
O O7 0.769499 0.653996 0.529442
O O8 0.879797 0.649709 0.481588
O O9 0.713056 0.461198 0.750000
O O10 0.677564 0.466842 0.475607
O O11 0.622695 0.488916 0.250000
O O12 0.655301 0.558836 0.008914
O O13 0.078460 0.692805 0.250000
O O14 0.997296 0.668270 0.459630
O O15 0.083474 0.388198 0.750000
#
# Coordination Sequence:
#
# PCOD9581802 Si02
#       6
#    12  12  12  12  12  12
#     4  10  20  34  49  63  86 119 149 183 234 291
#     4   8  15  30  49  66  88 119 147 173 212 266
#     4   8  16  32  49  61  78 111 146 175 222 286
#     4  11  21  31  47  68  88 111 146 196 239 271
#     4   9  19  34  49  66  93 126 152 176 221 281
#     4  10  19  31  49  72  93 116 151 191 224 259
#
# _framework density 15.333081
#
# number of rings (size 3 to 8) (size 9 to 14) (size 15 to 20)
#    0.000    2.667    0.000    4.500    0.000    8.667 
#    1.000    0.000    0.000    0.000    0.000    0.000 
#    0.000    0.000    0.000    0.500    0.000    6.000 
#
# Total GULP energy -401230.724093 kJ/mol
# GULP energy per Si atom -5572.648946 kJ/mol
# Density = 1.529818 g / cm^3
# Si number density = 15.333081 Si / 1000 Ang^3
#
#
#
# Elastic Constant Matrix: (Units=GPa)
#
#
# Indices 1 2 3 4 5 6 
#
# 1 81.3368 55.0678 48.3776 0.0000 0.0000 0.0000
# 2 55.0678 81.3368 48.3776 0.0000 0.0000 0.0000
# 3 48.3776 48.3776 68.0961 0.0000 0.0000 0.0000
# 4 0.0000 0.0000 0.0000 20.7050 0.0000 0.0000
# 5 0.0000 0.0000 0.0000 0.0000 20.7050 0.0000
# 6 0.0000 0.0000 0.0000 0.0000 0.0000 13.1345
#
#
#
# Elastic Compliance Matrix: (Units=1/GPa)
#
#
# Indices 1 2 3 4 5 6 
#
# 1 0.026423 -0.011645 -0.010499 0.000000 0.000000 0.000000
# 2 -0.011645 0.026423 -0.010499 0.000000 0.000000 0.000000
# 3 -0.010499 -0.010499 0.029603 0.000000 0.000000 0.000000
# 4 0.000000 0.000000 0.000000 0.048297 0.000000 0.000000
# 5 0.000000 0.000000 0.000000 0.000000 0.048297 0.000000
# 6 0.000000 0.000000 0.000000 0.000000 0.000000 0.076135
#
#
# Mechanical properties :
#
#
# Convention : Reuss Voigt Hill
#
# Bulk Modulus (GPa) = 58.26335 59.37954 58.82144
# Shear Modulus (GPa) = 15.32872 16.17204 15.75038
#
# Velocity S-wave (km/s) = 3.16526 3.25116 3.20850
# Velocity P-wave (km/s) = 7.17213 7.27351 7.22300
#
# Compressibility (1/GPa) = 0.01716345
#
# Stress axis : x y z
#
# Youngs Moduli (GPa) = 37.84587 37.84587 33.78059
#
# Poissons Ratio (x) = 0.44070 0.35466
# Poissons Ratio (y) = 0.44070 0.35466
# Poissons Ratio (z) = 0.39734 0.39734
#
# Static dielectric constant tensor:
#      x y z
#    x 1.515720 0.000000 0.000000 
#    y 0.000000 1.515720 0.000000 
#    z 0.000000 0.000000 1.511770 
# 
# From -- ./inp_files/1145.got.cif
#   From: 2010.05.17/outbox.cif.g08.bks.cpg/sg176_1_cif.got.tgz:1145.got - 2010.06.03 11:36:45.
