data_PCOD9581007
_publ_section_title
;
Structure prediction by ZEFSAII (Michael W. Deem and Ramdas Pophale) SiO2 
 PCOD9581007
Probable space group: P 63
;
_chemical_formula_sum "Si O2"
_cell_formula_units_Z 48
_cell_length_a 23.613137
_cell_length_b 23.613137
_cell_length_c 5.530246
_cell_angle_alpha 90.000000
_cell_angle_beta 90.000000
_cell_angle_gamma 120.000000
_cell_volume 2670.437732
_symmetry_space_group_name_H-M "P 63"
_symmetry_group_IT_number 173
_symmetry_cell_setting 'hexagonal'
loop_
_space_group_symop_operation_xyz
x,y,z
x-y,x,1/2+z
-y,x-y,z
-x,-y,1/2+z
-x+y,-x,z
y,-x+y,1/2+z
loop_
_atom_site_type_symbol
_atom_site_label
_atom_site_fract_x
_atom_site_fract_y
_atom_site_fract_z
Si Si1 0.000588 0.372155 0.878790
Si Si2 0.517688 0.432168 0.878790
Si Si3 0.933104 0.313272 0.378790
Si Si4 0.410674 0.208970 0.378790
Si Si5 0.787456 0.070731 0.378790
Si Si6 0.934369 0.473749 0.378790
Si Si7 0.424532 0.277295 0.878790
Si Si8 0.765458 0.035112 0.878790
O O1 0.959205 0.352220 0.631255
O O2 0.039283 0.331761 0.878790
O O3 0.048204 0.450056 0.878790
O O4 0.959205 0.352220 0.126325
O O5 0.556039 0.452930 0.626827
O O6 0.480667 0.474754 0.878790
O O7 0.467858 0.355369 0.878790
O O8 0.556039 0.452931 0.130753
O O9 0.855463 0.271718 0.378790
O O10 0.966146 0.267271 0.378790
O O11 0.333137 0.185438 0.378790
O O12 0.436443 0.249113 0.629486
O O13 0.436443 0.249113 0.128094
O O14 0.802744 0.046922 0.627492
O O15 0.802744 0.046922 0.130088
O O16 0.347796 0.257035 0.878790
#
# Coordination Sequence:
#
# PCOD9581007 Si02
#       8
#     6   6   6   6   6   6   6   6
#     4  10  17  28  40  53  76 104 127 150 189 226
#     4  10  18  27  41  60  78 100 132 160 183 227
#     4  10  18  26  38  55  73  97 129 159 185 217
#     4  10  18  26  38  55  73  97 129 159 185 217
#     4   8  14  23  36  48  65  93 122 147 177 212
#     4  10  18  27  41  60  78 100 132 160 183 227
#     4  10  17  28  40  53  76 104 127 150 189 226
#     4   8  14  23  36  48  65  93 122 147 177 212
#
# _framework density 17.974582000000002
#
# number of rings (size 3 to 8) (size 9 to 14) (size 15 to 20)
#    0.000    2.500    0.000    6.750    0.000    0.000 
#    0.000    0.000    0.000    0.000    0.000    0.000 
#    0.000    0.000    0.000   15.000    0.000    1.500 
#
# Total GULP energy -267500.019312 kJ/mol
# GULP energy per Si atom -5572.917069 kJ/mol
# Density = 1.793367 g / cm^3
# Si number density = 17.974582 Si / 1000 Ang^3
#
#
#
# Elastic Constant Matrix: (Units=GPa)
#
#
# Indices 1 2 3 4 5 6 
#
# 1 31.1716 3.3713 16.5581 0.0000 0.0000 0.0000
# 2 3.3713 31.1716 16.5581 0.0000 0.0000 0.0000
# 3 16.5581 16.5581 209.7787 0.0000 0.0000 0.0000
# 4 0.0000 0.0000 0.0000 13.3528 0.0000 0.0000
# 5 0.0000 0.0000 0.0000 0.0000 13.3528 0.0000
# 6 0.0000 0.0000 0.0000 0.0000 0.0000 13.9002
#
#
#
# Elastic Compliance Matrix: (Units=1/GPa)
#
#
# Indices 1 2 3 4 5 6 
#
# 1 0.033645 -0.002326 -0.002472 0.000000 0.000000 0.000000
# 2 -0.002326 0.033645 -0.002472 0.000000 0.000000 0.000000
# 3 -0.002472 -0.002472 0.005157 0.000000 0.000000 0.000000
# 4 0.000000 0.000000 0.000000 0.074891 0.000000 0.000000
# 5 0.000000 0.000000 0.000000 0.000000 0.074891 0.000000
# 6 0.000000 0.000000 0.000000 0.000000 0.000000 0.071941
#
#
# Mechanical properties :
#
#
# Convention : Reuss Voigt Hill
#
# Bulk Modulus (GPa) = 17.26882 38.34408 27.80645
# Shear Modulus (GPa) = 15.24334 23.83014 19.53674
#
# Velocity S-wave (km/s) = 2.91529 3.64506 3.30041
# Velocity P-wave (km/s) = 4.57822 6.25252 5.47969
#
# Compressibility (1/GPa) = 0.05790785
#
# Stress axis : x y z
#
# Youngs Moduli (GPa) = 29.72199 29.72199 193.90452
#
# Poissons Ratio (x) = 0.06912 0.47935
# Poissons Ratio (y) = 0.06912 0.47935
# Poissons Ratio (z) = 0.07348 0.07348
#
# Static dielectric constant tensor:
#      x y z
#    x 1.607860 0.000000 0.000000 
#    y 0.000000 1.607860 0.000000 
#    z 0.000000 0.000000 1.774830 
# 
# From -- ./inp_files/205.got.cif
#   From: 2010.05.17/outbox.cif.g08.bks.cpg/sg173_cif.got.tgz:205.got - 2010.05.20 11:21:53.
