data_PCOD9581726
_publ_section_title
;
Structure prediction by ZEFSAII (Michael W. Deem and Ramdas Pophale) SiO2 
 PCOD9581726
Probable space group: P 6/M
;
_chemical_formula_sum "Si O2"
_cell_formula_units_Z 60
_cell_length_a 15.000000
_cell_length_b 15.000000
_cell_length_c 15.000000
_cell_angle_alpha 90.000000
_cell_angle_beta 90.000000
_cell_angle_gamma 120.000000
_cell_volume 2922.835738
_symmetry_space_group_name_H-M "P 6/M"
_symmetry_group_IT_number 175
_symmetry_cell_setting 'hexagonal'
loop_
_space_group_symop_operation_xyz
x,y,z
x-y,x,z
-y,x-y,z
-x,-y,z
-x+y,-x,z
y,-x+y,z
-x,-y,-z
-x+y,-x,-z
y,-x+y,-z
x,y,-z
x-y,x,-z
-y,x-y,-z
loop_
_atom_site_type_symbol
_atom_site_label
_atom_site_fract_x
_atom_site_fract_y
_atom_site_fract_z
Si Si1 0.470701 0.879413 0.108271
Si Si2 0.758433 0.837730 0.894378
Si Si3 0.793897 0.791252 0.607624
Si Si4 0.559312 0.626813 0.610621
Si Si5 0.545585 0.739132 0.205895
O O1 0.528334 0.835667 0.174260
O O2 0.353410 0.817740 0.143063
O O3 0.500000 0.000000 0.120211
O O4 0.482667 0.866150 0.000000
O O5 0.844971 0.805077 0.880228
O O6 0.660405 0.774685 0.830283
O O7 0.727258 0.816518 0.000000
O O8 0.896447 0.789434 0.639632
O O9 0.803663 0.800443 0.500000
O O10 0.684246 0.686606 0.622841
O O11 0.500000 0.500000 0.624481
O O12 0.543557 0.640461 0.500000
O O13 0.531349 0.687798 0.691184
#
# Coordination Sequence:
#
# PCOD9581726 Si02
#       5
#    12  12  12  12  12
#     4  11  24  42  67 102 140 177 226 292 365 438
#     4  10  21  39  66 101 140 179 220 272 341 424
#     4   9  18  35  63  98 134 173 220 280 350 421
#     4  10  24  46  70  98 137 188 245 302 360 425
#     4  12  24  42  68  96 131 181 236 289 351 421
#
# _framework density 20.528009999999998
#
# number of rings (size 3 to 8) (size 9 to 14) (size 15 to 20)
#    0.000    1.600    0.000    4.400    0.000    9.600 
#    0.000    3.000    0.000    3.800    0.000    5.600 
#    0.000    0.000    0.000    0.000    0.000    0.000 
#
# Total GULP energy -334460.335688 kJ/mol
# GULP energy per Si atom -5574.338928 kJ/mol
# Density = 2.048129 g / cm^3
# Si number density = 20.528010 Si / 1000 Ang^3
#
#
#
# Elastic Constant Matrix: (Units=GPa)
#
#
# Indices 1 2 3 4 5 6 
#
# 1 132.3070 37.9764 37.7610 0.0000 0.0000 0.0000
# 2 37.9764 132.3070 37.7610 0.0000 0.0000 0.0000
# 3 37.7610 37.7610 134.1348 0.0000 0.0000 0.0000
# 4 0.0000 0.0000 0.0000 40.9486 0.0000 0.0000
# 5 0.0000 0.0000 0.0000 0.0000 40.9486 0.0000
# 6 0.0000 0.0000 0.0000 0.0000 0.0000 47.1653
#
#
#
# Elastic Compliance Matrix: (Units=1/GPa)
#
#
# Indices 1 2 3 4 5 6 
#
# 1 0.008656 -0.001945 -0.001889 0.000000 0.000000 0.000000
# 2 -0.001945 0.008656 -0.001889 0.000000 0.000000 0.000000
# 3 -0.001889 -0.001889 0.008519 0.000000 0.000000 0.000000
# 4 0.000000 0.000000 0.000000 0.024421 0.000000 0.000000
# 5 0.000000 0.000000 0.000000 0.000000 0.024421 0.000000
# 6 0.000000 0.000000 0.000000 0.000000 0.000000 0.021202
#
#
# Mechanical properties :
#
#
# Convention : Reuss Voigt Hill
#
# Bulk Modulus (GPa) = 69.52529 69.52730 69.52629
# Shear Modulus (GPa) = 44.59693 44.82918 44.71306
#
# Velocity S-wave (km/s) = 4.66606 4.67819 4.67213
# Velocity P-wave (km/s) = 7.93546 7.94504 7.94025
#
# Compressibility (1/GPa) = 0.01438326
#
# Stress axis : x y z
#
# Youngs Moduli (GPa) = 115.53079 115.53079 117.38743
#
# Poissons Ratio (x) = 0.22474 0.22175
# Poissons Ratio (y) = 0.22474 0.22175
# Poissons Ratio (z) = 0.21825 0.21825
#
# Static dielectric constant tensor:
#      x y z
#    x 1.765140 0.000000 0.000000 
#    y 0.000000 1.765140 0.000000 
#    z 0.000000 0.000000 1.803630 
# 
# From -- ./inp_files/2361.got.cif
#   From: 2010.05.17/outbox.ucp.g08.bks.cvg/sg175_2_cif.got.tgz:2361.got - 2010.06.11 15:18:44.
