data_PCOD9581811
_publ_section_title
;
Structure prediction by ZEFSAII (Michael W. Deem and Ramdas Pophale) SiO2 
 PCOD9581811
Probable space group: P 63/M
;
_chemical_formula_sum "Si O2"
_cell_formula_units_Z 84
_cell_length_a 25.148200
_cell_length_b 25.148200
_cell_length_c 7.566754
_cell_angle_alpha 90.000000
_cell_angle_beta 90.000000
_cell_angle_gamma 120.000000
_cell_volume 4144.327407
_symmetry_space_group_name_H-M "P 63/M"
_symmetry_group_IT_number 176
_symmetry_cell_setting 'hexagonal'
loop_
_space_group_symop_operation_xyz
x,y,z
x-y,x,1/2+z
-y,x-y,z
-x,-y,1/2+z
-x+y,-x,z
y,-x+y,1/2+z
-x,-y,-z
-x+y,-x,1/2-z
y,-x+y,-z
x,y,1/2-z
x-y,x,-z
-y,x-y,1/2-z
loop_
_atom_site_type_symbol
_atom_site_label
_atom_site_fract_x
_atom_site_fract_y
_atom_site_fract_z
Si Si1 0.654261 0.646532 0.534193
Si Si2 0.746559 0.601230 0.536585
Si Si3 0.515898 0.568946 0.961901
Si Si4 0.281962 0.533065 0.542805
Si Si5 0.809898 0.421432 0.467404
Si Si6 0.982604 0.760161 0.038449
Si Si7 0.150221 0.266801 0.461358
O O1 0.653286 0.646397 0.750000
O O2 0.688658 0.609036 0.482250
O O3 0.584632 0.615168 0.471249
O O4 0.698248 0.716758 0.475782
O O5 0.746820 0.600316 0.750000
O O6 0.741724 0.538763 0.474664
O O7 0.807480 0.662934 0.475124
O O8 0.517809 0.575841 0.750000
O O9 0.464623 0.584588 0.027191
O O10 0.500000 0.500000 0.000000
O O11 0.287537 0.548513 0.750000
O O12 0.233531 0.551793 0.473141
O O13 0.351176 0.570923 0.471095
O O14 0.811450 0.421604 0.250000
O O15 0.986818 0.759466 0.250000
O O16 0.046411 0.817586 0.972987
O O17 0.920695 0.760176 0.999091
O O18 0.156283 0.269780 0.250000
#
# Coordination Sequence:
#
# PCOD9581811 Si02
#       7
#    12  12  12  12  12  12  12
#     4   8  16  31  50  69  97 133 164 198 246 303
#     4   9  18  33  50  71 100 132 161 202 255 298
#     4  10  19  32  49  70  95 125 161 201 246 299
#     4  10  19  33  51  70  94 127 167 210 252 300
#     4   9  19  32  49  72  96 124 162 209 253 289
#     4   9  18  33  54  77 103 138 175 204 245 305
#     4   9  19  34  51  77 110 137 165 210 257 292
#
# _framework density 20.268668999999999
#
# number of rings (size 3 to 8) (size 9 to 14) (size 15 to 20)
#    0.000    2.857    0.000    2.857    2.000    2.286 
#    0.000    4.286    0.000    0.286    0.000    0.000 
#    0.000    0.000    0.000    0.000    0.000    0.000 
#
# Total GULP energy -468772.841652 kJ/mol
# GULP energy per Si atom -5580.629067 kJ/mol
# Density = 2.022254 g / cm^3
# Si number density = 20.268669 Si / 1000 Ang^3
#
#
#
# Elastic Constant Matrix: (Units=GPa)
#
#
# Indices 1 2 3 4 5 6 
#
# 1 179.7560 125.7428 0.2330 0.0000 0.0000 0.0000
# 2 125.7428 179.7560 0.2330 0.0000 0.0000 0.0000
# 3 0.2330 0.2330 41.0425 0.0000 0.0000 0.0000
# 4 0.0000 0.0000 0.0000 11.4702 0.0000 0.0000
# 5 0.0000 0.0000 0.0000 0.0000 11.4702 0.0000
# 6 0.0000 0.0000 0.0000 0.0000 0.0000 27.0066
#
#
#
# Elastic Compliance Matrix: (Units=1/GPa)
#
#
# Indices 1 2 3 4 5 6 
#
# 1 0.010894 -0.007620 -0.000019 0.000000 0.000000 0.000000
# 2 -0.007620 0.010894 -0.000019 0.000000 0.000000 0.000000
# 3 -0.000019 -0.000019 0.024365 0.000000 0.000000 0.000000
# 4 0.000000 0.000000 0.000000 0.087183 0.000000 0.000000
# 5 0.000000 0.000000 0.000000 0.000000 0.087183 0.000000
# 6 0.000000 0.000000 0.000000 0.000000 0.000000 0.037028
#
#
# Mechanical properties :
#
#
# Convention : Reuss Voigt Hill
#
# Bulk Modulus (GPa) = 32.42799 72.55247 52.49023
# Shear Modulus (GPa) = 17.65913 28.27913 22.96913
#
# Velocity S-wave (km/s) = 2.95490 3.73931 3.37001
# Velocity P-wave (km/s) = 5.26077 7.38352 6.41062
#
# Compressibility (1/GPa) = 0.03083756
#
# Stress axis : x y z
#
# Youngs Moduli (GPa) = 91.79648 91.79648 41.04219
#
# Poissons Ratio (x) = 0.69952 0.00076
# Poissons Ratio (y) = 0.69952 0.00076
# Poissons Ratio (z) = 0.00171 0.00171
#
# Static dielectric constant tensor:
#      x y z
#    x 1.707390 0.000000 0.000000 
#    y 0.000000 1.707390 0.000000 
#    z 0.000000 0.000000 1.783870 
# 
# From -- ./inp_files/2050.got.cif
#   From: 2010.05.17/outbox.cif.g08.bks.cpg/sg176_2_cif.got.tgz:2050.got - 2010.06.03 11:36:45.
