data_PCOD9581123
_publ_section_title
;
Structure prediction by ZEFSAII (Michael W. Deem and Ramdas Pophale) SiO2 
 PCOD9581123
Probable space group: P 63
;
_chemical_formula_sum "Si O2"
_cell_formula_units_Z 42
_cell_length_a 21.000000
_cell_length_b 21.000000
_cell_length_c 6.000000
_cell_angle_alpha 90.000000
_cell_angle_beta 90.000000
_cell_angle_gamma 120.000000
_cell_volume 2291.503218
_symmetry_space_group_name_H-M "P 63"
_symmetry_group_IT_number 173
_symmetry_cell_setting 'hexagonal'
loop_
_space_group_symop_operation_xyz
x,y,z
x-y,x,1/2+z
-y,x-y,z
-x,-y,1/2+z
-x+y,-x,z
y,-x+y,1/2+z
loop_
_atom_site_type_symbol
_atom_site_label
_atom_site_fract_x
_atom_site_fract_y
_atom_site_fract_z
Si Si1 0.222107 0.973234 0.431670
Si Si2 0.841065 0.713853 0.215564
Si Si3 0.420873 0.157538 0.907155
Si Si4 0.652232 0.625191 0.577654
Si Si5 0.131573 0.378629 0.099969
Si Si6 0.521065 0.913071 0.686155
Si Si7 0.058789 0.467770 0.897278
O O1 0.152475 0.914855 0.571581
O O2 0.238155 0.928768 0.241472
O O3 0.233917 0.048849 0.330441
O O4 0.289622 0.998441 0.600667
O O5 0.848658 0.660502 0.398767
O O6 0.781169 0.655332 0.043971
O O7 0.414167 0.098087 0.729229
O O8 0.424850 0.224147 0.765748
O O9 0.482214 0.157795 0.070503
O O10 0.646601 0.594800 0.333296
O O11 0.574117 0.609622 0.661411
O O12 0.101245 0.431600 0.018930
O O13 0.453961 0.899893 0.845023
O O14 0.537958 0.981426 0.522598
#
# Coordination Sequence:
#
# PCOD9581123 Si02
#       7
#     6   6   6   6   6   6   6
#     4  11  21  34  55  83 119 156 189 244 300 368
#     4  11  22  35  56  82 121 154 194 238 312 362
#     4  10  21  34  53  78 118 160 185 237 295 362
#     4  11  18  34  54  79 123 152 185 234 300 354
#     4  11  21  35  57  82 124 151 194 239 302 365
#     4  11  20  33  52  82 126 153 191 242 303 348
#     4  11  21  31  53  86 119 158 192 240 294 365
#
# _framework density 18.328579999999999
#
# number of rings (size 3 to 8) (size 9 to 14) (size 15 to 20)
#    0.000    1.143    7.143    0.857    0.000    0.000 
#    0.000    0.000    0.000    0.000    0.000    0.000 
#   42.857    0.000    0.000    0.000    0.000    0.000 
#
# Total GULP energy -233851.959702 kJ/mol
# GULP energy per Si atom -5567.903802 kJ/mol
# Density = 1.828686 g / cm^3
# Si number density = 18.328580 Si / 1000 Ang^3
#
#
#
# Elastic Constant Matrix: (Units=GPa)
#
#
# Indices 1 2 3 4 5 6 
#
# 1 94.2248 44.9162 31.3951 0.0000 0.0000 0.0000
# 2 44.9162 94.2248 31.3951 0.0000 0.0000 0.0000
# 3 31.3951 31.3951 57.4112 0.0000 0.0000 0.0000
# 4 0.0000 0.0000 0.0000 20.4967 0.0000 0.0000
# 5 0.0000 0.0000 0.0000 0.0000 20.4967 0.0000
# 6 0.0000 0.0000 0.0000 0.0000 0.0000 24.6543
#
#
#
# Elastic Compliance Matrix: (Units=1/GPa)
#
#
# Indices 1 2 3 4 5 6 
#
# 1 0.014911 -0.005369 -0.005218 0.000000 0.000000 0.000000
# 2 -0.005369 0.014911 -0.005218 0.000000 0.000000 0.000000
# 3 -0.005218 -0.005218 0.023125 0.000000 0.000000 0.000000
# 4 0.000000 0.000000 0.000000 0.048788 0.000000 0.000000
# 5 0.000000 0.000000 0.000000 0.000000 0.048788 0.000000
# 6 0.000000 0.000000 0.000000 0.000000 0.000000 0.040561
#
#
# Mechanical properties :
#
#
# Convention : Reuss Voigt Hill
#
# Bulk Modulus (GPa) = 46.86718 51.25264 49.05991
# Shear Modulus (GPa) = 21.75743 22.33984 22.04864
#
# Velocity S-wave (km/s) = 3.44914 3.49499 3.47214
# Velocity P-wave (km/s) = 6.44113 6.65662 6.54976
#
# Compressibility (1/GPa) = 0.02133689
#
# Stress axis : x y z
#
# Youngs Moduli (GPa) = 67.06450 67.06450 43.24352
#
# Poissons Ratio (x) = 0.36010 0.22564
# Poissons Ratio (y) = 0.36010 0.22564
# Poissons Ratio (z) = 0.34993 0.34993
#
# Static dielectric constant tensor:
#      x y z
#    x 1.655590 0.000000 0.000000 
#    y 0.000000 1.655590 0.000000 
#    z 0.000000 0.000000 1.734670 
# 
# From -- ./inp_files/172.got.cif
#   From: 2010.05.17/outbox.ucp.g08.bks.cvg/sg173_cif.got.tgz:172.got - 2010.06.11 15:18:35.
