data_PCOD9581137
_publ_section_title
;
Structure prediction by ZEFSAII (Michael W. Deem and Ramdas Pophale) SiO2 
 PCOD9581137
Probable space group: P -6
;
_chemical_formula_sum "Si O2"
_cell_formula_units_Z 48
_cell_length_a 23.442153
_cell_length_b 23.442153
_cell_length_c 9.021067
_cell_angle_alpha 90.000000
_cell_angle_beta 90.000000
_cell_angle_gamma 120.000000
_cell_volume 4293.223840
_symmetry_space_group_name_H-M "P -6"
_symmetry_group_IT_number 174
_symmetry_cell_setting 'hexagonal'
loop_
_space_group_symop_operation_xyz
x,y,z
-x+y,-x,-z
-y,x-y,z
x,y,-z
-x+y,-x,z
-y,x-y,-z
loop_
_atom_site_type_symbol
_atom_site_label
_atom_site_fract_x
_atom_site_fract_y
_atom_site_fract_z
Si Si1 0.730572 0.797353 0.828533
Si Si2 0.271957 0.397912 0.330633
Si Si3 0.135939 0.403208 0.328946
Si Si4 0.330132 0.790480 0.821674
Si Si5 0.132671 0.999953 0.320954
Si Si6 0.733699 0.937726 0.830634
Si Si7 0.206862 0.661704 0.319997
Si Si8 0.869048 0.001486 0.678008
O O1 0.665240 0.746040 0.741005
O O2 0.798731 0.813982 0.751520
O O3 0.730783 0.866915 0.825014
O O4 0.727966 0.778705 0.000000
O O5 0.284803 0.387558 0.500000
O O6 0.203276 0.399244 0.329364
O O7 0.259480 0.335610 0.235069
O O8 0.325003 0.471875 0.283972
O O9 0.122165 0.411244 0.500000
O O10 0.153872 0.467126 0.231507
O O11 0.397914 0.802896 0.749992
O O12 0.272480 0.721997 0.751812
O O13 0.330202 0.786074 0.000000
O O14 0.137915 0.999479 0.500000
O O15 0.138753 0.068637 0.274087
O O16 0.060277 0.939132 0.280711
O O17 0.799122 0.986501 0.741343
O O18 0.740533 0.958562 0.000000
O O19 0.213716 0.663295 0.500000
O O20 0.866288 0.001909 0.500000
#
# Coordination Sequence:
#
# PCOD9581137 Si02
#       8
#     6   6   6   6   6   6   6   6
#     4   9  16  25  36  50  65  81 102 131 162 193
#     4   8  15  26  39  50  60  78 104 130 155 185
#     4   9  16  27  40  51  63  82 106 130 156 191
#     4  11  20  28  38  53  70  86 105 132 165 198
#     4   9  16  25  36  49  64  85 109 134 163 198
#     4   9  16  24  35  49  64  80 100 127 160 193
#     4  10  19  30  40  50  66  88 110 131 159 198
#     4   9  16  25  36  48  64  84 108 133 160 196
#
# _framework density 11.180408999999999
#
# number of rings (size 3 to 8) (size 9 to 14) (size 15 to 20)
#    0.000    2.750    0.000    3.875    0.000    8.000 
#    0.000    0.000    0.000    1.500    0.000    0.000 
#    0.000    0.000    0.000    0.000    0.000    0.000 
#
# Total GULP energy -267245.100954 kJ/mol
# GULP energy per Si atom -5567.606270 kJ/mol
# Density = 1.115496 g / cm^3
# Si number density = 11.180409 Si / 1000 Ang^3
#
#
#
# Elastic Constant Matrix: (Units=GPa)
#
#
# Indices 1 2 3 4 5 6 
#
# 1 61.6767 39.1449 34.0926 0.0000 0.0000 0.0000
# 2 39.1449 61.6767 34.0926 0.0000 0.0000 0.0000
# 3 34.0926 34.0926 60.0419 0.0000 0.0000 0.0000
# 4 0.0000 0.0000 0.0000 12.0258 0.0000 0.0000
# 5 0.0000 0.0000 0.0000 0.0000 12.0258 0.0000
# 6 0.0000 0.0000 0.0000 0.0000 0.0000 11.2659
#
#
#
# Elastic Compliance Matrix: (Units=1/GPa)
#
#
# Indices 1 2 3 4 5 6 
#
# 1 0.030242 -0.014140 -0.009143 0.000000 0.000000 0.000000
# 2 -0.014140 0.030242 -0.009143 0.000000 0.000000 0.000000
# 3 -0.009143 -0.009143 0.027038 0.000000 0.000000 0.000000
# 4 0.000000 0.000000 0.000000 0.083155 0.000000 0.000000
# 5 0.000000 0.000000 0.000000 0.000000 0.083155 0.000000
# 6 0.000000 0.000000 0.000000 0.000000 0.000000 0.088764
#
#
# Mechanical properties :
#
#
# Convention : Reuss Voigt Hill
#
# Bulk Modulus (GPa) = 44.11083 44.22838 44.16961
# Shear Modulus (GPa) = 12.04812 12.13449 12.09131
#
# Velocity S-wave (km/s) = 3.28626 3.29802 3.29214
# Velocity P-wave (km/s) = 7.34429 7.35848 7.35139
#
# Compressibility (1/GPa) = 0.02267017
#
# Stress axis : x y z
#
# Youngs Moduli (GPa) = 33.06683 33.06683 36.98527
#
# Poissons Ratio (x) = 0.46757 0.33815
# Poissons Ratio (y) = 0.46757 0.33815
# Poissons Ratio (z) = 0.30232 0.30232
#
# Static dielectric constant tensor:
#      x y z
#    x 1.349150 0.000000 0.000000 
#    y 0.000000 1.349150 0.000000 
#    z 0.000000 0.000000 1.374930 
# 
# From -- ./inp_files/580.got.cif
#   From: 2010.05.17/outbox.cif.g08.bks.cpg/sg174_cif.got.tgz:580.got - 2010.05.20 11:22:48.
