data_PCOD9581882
_publ_section_title
;
Structure prediction by ZEFSAII (Michael W. Deem and Ramdas Pophale) SiO2 
 PCOD9581882
Probable space group: P 63/M
;
_chemical_formula_sum "Si O2"
_cell_formula_units_Z 24
_cell_length_a 14.676740
_cell_length_b 14.676740
_cell_length_c 5.544721
_cell_angle_alpha 90.000000
_cell_angle_beta 90.000000
_cell_angle_gamma 120.000000
_cell_volume 1034.354793
_symmetry_space_group_name_H-M "P 63/M"
_symmetry_group_IT_number 176
_symmetry_cell_setting 'hexagonal'
loop_
_space_group_symop_operation_xyz
x,y,z
x-y,x,1/2+z
-y,x-y,z
-x,-y,1/2+z
-x+y,-x,z
y,-x+y,1/2+z
-x,-y,-z
-x+y,-x,1/2-z
y,-x+y,-z
x,y,1/2-z
x-y,x,-z
-y,x-y,1/2-z
loop_
_atom_site_type_symbol
_atom_site_label
_atom_site_fract_x
_atom_site_fract_y
_atom_site_fract_z
Si Si1 0.369049 0.571455 0.750000
Si Si2 0.297475 0.310095 0.250000
Si Si3 0.244630 0.902718 0.250000
Si Si4 0.532861 0.093295 0.750000
O O1 0.444134 0.696913 0.750000
O O2 0.383349 0.529904 0.498969
O O3 0.288067 0.249653 0.499116
O O4 0.209023 0.345616 0.250000
O O5 0.417014 0.413263 0.250000
O O6 0.356666 0.904338 0.250000
#
# Coordination Sequence:
#
# PCOD9581882 Si02
#       4
#     6   6   6   6
#     4  10  20  31  54  90 136 178 232 272 312 391
#     4  12  26  46  73 102 143 184 235 293 359 425
#     4  12  26  46  73 102 143 184 235 293 359 425
#     4  12  22  41  66 100 138 184 228 286 346 417
#
# _framework density 23.202870999999998
#
# number of rings (size 3 to 8) (size 9 to 14) (size 15 to 20)
#    0.500    0.000    0.000   10.500    0.000    0.000 
#    1.500    0.000    0.000   10.000    0.000    0.000 
#    0.000    0.000    0.000    0.000    0.000    0.000 
#
# Total GULP energy -134051.186072 kJ/mol
# GULP energy per Si atom -5585.466086 kJ/mol
# Density = 2.315006 g / cm^3
# Si number density = 23.202871 Si / 1000 Ang^3
#
#
#
# Elastic Constant Matrix: (Units=GPa)
#
#
# Indices 1 2 3 4 5 6 
#
# 1 107.2150 40.0916 71.7592 0.0000 0.0000 0.0000
# 2 40.0916 107.2150 71.7592 0.0000 0.0000 0.0000
# 3 71.7592 71.7592 286.4351 0.0000 0.0000 0.0000
# 4 0.0000 0.0000 0.0000 74.2035 0.0000 0.0000
# 5 0.0000 0.0000 0.0000 0.0000 74.2035 0.0000
# 6 0.0000 0.0000 0.0000 0.0000 0.0000 33.5617
#
#
#
# Elastic Compliance Matrix: (Units=1/GPa)
#
#
# Indices 1 2 3 4 5 6 
#
# 1 0.011939 -0.002959 -0.002250 0.000000 0.000000 0.000000
# 2 -0.002959 0.011939 -0.002250 0.000000 0.000000 0.000000
# 3 -0.002250 -0.002250 0.004618 0.000000 0.000000 0.000000
# 4 0.000000 0.000000 0.000000 0.013476 0.000000 0.000000
# 5 0.000000 0.000000 0.000000 0.000000 0.013476 0.000000
# 6 0.000000 0.000000 0.000000 0.000000 0.000000 0.029796
#
#
# Mechanical properties :
#
#
# Convention : Reuss Voigt Hill
#
# Bulk Modulus (GPa) = 73.63676 96.45393 85.04534
# Shear Modulus (GPa) = 47.76040 57.54408 52.65224
#
# Velocity S-wave (km/s) = 4.54186 4.98540 4.76879
# Velocity P-wave (km/s) = 7.70128 8.64865 8.18867
#
# Compressibility (1/GPa) = 0.01358017
#
# Stress axis : x y z
#
# Youngs Moduli (GPa) = 83.75741 83.75741 216.52121
#
# Poissons Ratio (x) = 0.24781 0.48714
# Poissons Ratio (y) = 0.24781 0.48714
# Poissons Ratio (z) = 0.18844 0.18844
#
# Static dielectric constant tensor:
#      x y z
#    x 1.897760 0.000000 0.000000 
#    y 0.000000 1.897760 0.000000 
#    z 0.000000 0.000000 1.911090 
# 
# From -- ./inp_files/60.got.cif
#   From: 2010.05.17/outbox.cif.g08.bks.cpg/sg176_1_cif.got.tgz:60.got - 2010.06.03 11:36:45.
