data_PCOD9581080
_publ_section_title
;
Structure prediction by ZEFSAII (Michael W. Deem and Ramdas Pophale) SiO2 
 PCOD9581080
Probable space group: P 63
;
_chemical_formula_sum "Si O2"
_cell_formula_units_Z 30
_cell_length_a 17.401258
_cell_length_b 17.401258
_cell_length_c 5.229570
_cell_angle_alpha 90.000000
_cell_angle_beta 90.000000
_cell_angle_gamma 120.000000
_cell_volume 1371.380294
_symmetry_space_group_name_H-M "P 63"
_symmetry_group_IT_number 173
_symmetry_cell_setting 'hexagonal'
loop_
_space_group_symop_operation_xyz
x,y,z
x-y,x,1/2+z
-y,x-y,z
-x,-y,1/2+z
-x+y,-x,z
y,-x+y,1/2+z
loop_
_atom_site_type_symbol
_atom_site_label
_atom_site_fract_x
_atom_site_fract_y
_atom_site_fract_z
Si Si1 0.634685 0.478116 0.073460
Si Si2 0.811332 0.150130 0.823135
Si Si3 0.684335 0.975234 0.529417
Si Si4 0.763380 0.265288 0.564121
Si Si5 0.886179 0.549644 0.218115
O O1 0.668006 0.582155 0.114845
O O2 0.673949 0.454970 0.319312
O O3 0.528119 0.422298 0.082241
O O4 0.674355 0.459030 0.816361
O O5 0.827850 0.223219 0.605797
O O6 0.755729 0.051722 0.713050
O O7 0.906870 0.189641 0.950778
O O8 0.745752 0.160413 0.022732
O O9 0.668723 0.028401 0.300774
O O10 0.678312 0.172318 0.475002
#
# Coordination Sequence:
#
# PCOD9581080 Si02
#       5
#     6   6   6   6   6
#     4  11  25  40  68  97 139 189 237 285 340 409
#     4  10  23  43  67  99 136 178 227 300 342 430
#     4  10  24  40  69  96 144 171 246 284 359 415
#     4  10  22  45  60  91 139 179 238 286 338 403
#     4  11  24  42  70  97 140 187 236 291 349 403
#
# _framework density 21.875771
#
# number of rings (size 3 to 8) (size 9 to 14) (size 15 to 20)
#    0.000    1.600    4.000    0.000   14.000    0.000 
#    1.200    2.000    0.000    0.000    0.000    0.000 
#   20.000    0.000    0.000    0.000    0.000    0.000 
#
# Total GULP energy -167010.509823 kJ/mol
# GULP energy per Si atom -5567.016994 kJ/mol
# Density = 2.182598 g / cm^3
# Si number density = 21.875771 Si / 1000 Ang^3
#
#
#
# Elastic Constant Matrix: (Units=GPa)
#
#
# Indices 1 2 3 4 5 6 
#
# 1 86.3332 62.4506 38.2513 0.0000 0.0000 0.0000
# 2 62.4506 86.3332 38.2513 0.0000 0.0000 0.0000
# 3 38.2513 38.2513 130.1801 0.0000 0.0000 0.0000
# 4 0.0000 0.0000 0.0000 32.1031 0.0000 0.0000
# 5 0.0000 0.0000 0.0000 0.0000 32.1031 0.0000
# 6 0.0000 0.0000 0.0000 0.0000 0.0000 11.9413
#
#
#
# Elastic Compliance Matrix: (Units=1/GPa)
#
#
# Indices 1 2 3 4 5 6 
#
# 1 0.024894 -0.016977 -0.002326 0.000000 0.000000 0.000000
# 2 -0.016977 0.024894 -0.002326 0.000000 0.000000 0.000000
# 3 -0.002326 -0.002326 0.009049 0.000000 0.000000 0.000000
# 4 0.000000 0.000000 0.000000 0.031150 0.000000 0.000000
# 5 0.000000 0.000000 0.000000 0.000000 0.031150 0.000000
# 6 0.000000 0.000000 0.000000 0.000000 0.000000 0.083743
#
#
# Mechanical properties :
#
#
# Convention : Reuss Voigt Hill
#
# Bulk Modulus (GPa) = 64.19318 64.52809 64.36064
# Shear Modulus (GPa) = 19.73691 26.15570 22.94631
#
# Velocity S-wave (km/s) = 3.00697 3.46156 3.24224
# Velocity P-wave (km/s) = 6.43925 6.74819 6.59553
#
# Compressibility (1/GPa) = 0.01557798
#
# Stress axis : x y z
#
# Youngs Moduli (GPa) = 40.16961 40.16961 110.51172
#
# Poissons Ratio (x) = 0.68196 0.25709
# Poissons Ratio (y) = 0.68196 0.25709
# Poissons Ratio (z) = 0.09345 0.09345
#
# Static dielectric constant tensor:
#      x y z
#    x 1.859670 0.000000 0.000000 
#    y 0.000000 1.859670 0.000000 
#    z 0.000000 0.000000 1.968690 
# 
# From -- ./inp_files/106.got.cif
#   From: 2010.05.17/outbox.cif.g08.bks.cpg/sg173_cif.got.tgz:106.got - 2010.05.20 11:21:53.
