data_PCOD9581635
_publ_section_title
;
Structure prediction by ZEFSAII (Michael W. Deem and Ramdas Pophale) SiO2 
 PCOD9581635
Probable space group: P 6/M
;
_chemical_formula_sum "Si O2"
_cell_formula_units_Z 72
_cell_length_a 22.268070
_cell_length_b 22.268070
_cell_length_c 7.327969
_cell_angle_alpha 90.000000
_cell_angle_beta 90.000000
_cell_angle_gamma 120.000000
_cell_volume 3146.874410
_symmetry_space_group_name_H-M "P 6/M"
_symmetry_group_IT_number 175
_symmetry_cell_setting 'hexagonal'
loop_
_space_group_symop_operation_xyz
x,y,z
x-y,x,z
-y,x-y,z
-x,-y,z
-x+y,-x,z
y,-x+y,z
-x,-y,-z
-x+y,-x,-z
y,-x+y,-z
x,y,-z
x-y,x,-z
-y,x-y,-z
loop_
_atom_site_type_symbol
_atom_site_label
_atom_site_fract_x
_atom_site_fract_y
_atom_site_fract_z
Si Si1 0.751395 0.217523 0.222161
Si Si2 0.345282 0.343631 0.221577
Si Si3 0.803201 0.112638 0.781233
Si Si4 0.874485 0.353504 0.777247
Si Si5 0.603395 0.106587 0.221790
Si Si6 0.158090 0.078597 0.283643
O O1 0.787341 0.172669 0.280630
O O2 0.797670 0.296569 0.278835
O O3 0.671475 0.177704 0.277371
O O4 0.751268 0.216190 0.000000
O O5 0.304605 0.264017 0.283046
O O6 0.324952 0.399753 0.280113
O O7 0.426251 0.378548 0.274530
O O8 0.342146 0.341060 0.000000
O O9 0.874990 0.115916 0.739423
O O10 0.800189 0.113606 0.000000
O O11 0.898421 0.431053 0.715289
O O12 0.876561 0.356030 0.000000
O O13 0.600184 0.103837 0.000000
O O14 0.122001 0.121803 0.211657
O O15 0.146683 0.072149 0.500000
#
# Coordination Sequence:
#
# PCOD9581635 Si02
#       6
#    12  12  12  12  12  12
#     4   8  15  25  35  56  90 120 151 196 238 271
#     4   8  14  23  37  58  83 111 146 188 227 266
#     4   9  18  31  49  72  99 123 150 192 241 282
#     4   9  14  20  34  52  77 116 156 185 222 272
#     4   8  13  22  31  46  76 115 152 184 218 266
#     4  10  22  39  56  72  93 123 157 190 228 279
#
# _framework density 22.879843999999999
#
# number of rings (size 3 to 8) (size 9 to 14) (size 15 to 20)
#    0.000    3.333    0.000    2.667    2.333    3.333 
#    1.000    0.000    0.000    1.000    0.000    0.000 
#    0.000   16.000    0.000    0.000    0.000    0.000 
#
# Total GULP energy -401660.000159 kJ/mol
# GULP energy per Si atom -5578.611113 kJ/mol
# Density = 2.282777 g / cm^3
# Si number density = 22.879844 Si / 1000 Ang^3
#
#
#
# Elastic Constant Matrix: (Units=GPa)
#
#
# Indices 1 2 3 4 5 6 
#
# 1 33.4083 -11.7939 -4.5646 0.0000 0.0000 0.0000
# 2 -11.7939 33.4083 -4.5646 0.0000 0.0000 0.0000
# 3 -4.5646 -4.5646 87.3345 0.0000 0.0000 0.0000
# 4 0.0000 0.0000 0.0000 3.5377 0.0000 0.0000
# 5 0.0000 0.0000 0.0000 0.0000 3.5377 0.0000
# 6 0.0000 0.0000 0.0000 0.0000 0.0000 22.6011
#
#
#
# Elastic Compliance Matrix: (Units=1/GPa)
#
#
# Indices 1 2 3 4 5 6 
#
# 1 0.034716 0.012593 0.002473 0.000000 0.000000 0.000000
# 2 0.012593 0.034716 0.002473 0.000000 0.000000 0.000000
# 3 0.002473 0.002473 0.011709 0.000000 0.000000 0.000000
# 4 0.000000 0.000000 0.000000 0.282666 0.000000 0.000000
# 5 0.000000 0.000000 0.000000 0.000000 0.282666 0.000000
# 6 0.000000 0.000000 0.000000 0.000000 0.000000 0.044246
#
#
# Mechanical properties :
#
#
# Convention : Reuss Voigt Hill
#
# Bulk Modulus (GPa) = 8.60443 12.47831 10.54137
# Shear Modulus (GPa) = 7.20065 17.60693 12.40379
#
# Velocity S-wave (km/s) = 1.77595 2.77707 2.33089
# Velocity P-wave (km/s) = 2.82386 3.96843 3.44403
#
# Compressibility (1/GPa) = 0.11621916
#
# Stress axis : x y z
#
# Youngs Moduli (GPa) = 28.80489 28.80489 85.40653
#
# Poissons Ratio (x) = -0.36275 -0.21119
# Poissons Ratio (y) = -0.36275 -0.21119
# Poissons Ratio (z) = -0.07123 -0.07123
#
# Static dielectric constant tensor:
#      x y z
#    x 1.827050 0.000000 0.000000 
#    y 0.000000 1.827050 0.000000 
#    z 0.000000 0.000000 1.921380 
# 
# From -- ./inp_files/1171.got.cif
#   From: 2010.05.17/outbox.cif.g08.bks.cpg/sg175_1_cif.got.tgz:1171.got - 2010.05.20 11:23:22.
