data_PCOD9581245
_publ_section_title
;
Structure prediction by ZEFSAII (Michael W. Deem and Ramdas Pophale) SiO2 
 PCOD9581245
Probable space group: P 6/M
;
_chemical_formula_sum "Si O2"
_cell_formula_units_Z 82
_cell_length_a 20.064246
_cell_length_b 20.064246
_cell_length_c 18.913476
_cell_angle_alpha 90.000000
_cell_angle_beta 90.000000
_cell_angle_gamma 120.000000
_cell_volume 6593.980708
_symmetry_space_group_name_H-M "P 6/M"
_symmetry_group_IT_number 175
_symmetry_cell_setting 'hexagonal'
loop_
_space_group_symop_operation_xyz
x,y,z
x-y,x,z
-y,x-y,z
-x,-y,z
-x+y,-x,z
y,-x+y,z
-x,-y,-z
-x+y,-x,-z
y,-x+y,-z
x,y,-z
x-y,x,-z
-y,x-y,-z
loop_
_atom_site_type_symbol
_atom_site_label
_atom_site_fract_x
_atom_site_fract_y
_atom_site_fract_z
Si Si1 0.666668 0.333334 0.413910
Si Si2 0.869726 0.582711 0.584178
Si Si3 0.256069 0.256066 0.365309
Si Si4 0.000001 0.158576 0.500000
Si Si5 0.839726 0.000002 0.231982
Si Si6 0.422057 0.844114 0.414154
Si Si7 0.712976 0.582712 0.584178
Si Si8 0.159261 0.159259 0.924071
O O1 0.666667 0.333334 0.500000
O O2 0.622488 0.377521 0.391425
O O3 0.887774 0.596861 0.500000
O O4 0.879652 0.510760 0.606560
O O5 0.781205 0.562419 0.591778
O O6 0.925477 0.660093 0.625267
O O7 0.204615 0.204614 0.430673
O O8 0.214760 0.214758 0.293352
O O9 0.265391 0.339906 0.374732
O O10 0.075929 0.151857 0.500000
O O11 0.847248 0.923625 0.238491
O O12 0.807357 0.000002 0.153123
O O13 0.422161 0.844322 0.500000
O O14 0.510762 0.879661 0.393440
O O15 0.709080 0.596863 0.500000
O O16 0.150691 0.075344 0.924265
O O17 0.196717 0.196715 0.000000
#
# Coordination Sequence:
#
# PCOD9581245 Si02
#       8
#     4  12  12   6  12  12  12  12
#     4   9  12  24  39  66  75  84 114 156 202 242
#     4  10  18  29  42  56  74  98 126 163 205 239
#     4  12  22  31  40  54  76 104 132 164 200 231
#     4  12  23  36  46  51  62  92 140 184 204 211
#     4  10  19  30  43  57  74  98 131 166 197 231
#     4   9  16  25  44  61  74  90 120 160 202 246
#     4  10  18  29  42  56  74  98 126 163 205 239
#     4   8  13  22  38  59  78  93 112 146 193 238
#
# _framework density 12.435584
#
# number of rings (size 3 to 8) (size 9 to 14) (size 15 to 20)
#    0.000    2.049    2.927    3.000    0.000    2.341 
#    0.000    3.659    0.000    0.000    0.000    0.000 
#    0.000    0.000    0.000    2.634    0.000    2.634 
#
# Total GULP energy -456748.111845 kJ/mol
# GULP energy per Si atom -5570.098925 kJ/mol
# Density = 1.240728 g / cm^3
# Si number density = 12.435584 Si / 1000 Ang^3
#
#
#
# Elastic Constant Matrix: (Units=GPa)
#
#
# Indices 1 2 3 4 5 6 
#
# 1 68.6797 34.8618 35.8148 0.0000 0.0000 0.0001
# 2 34.8618 68.6795 35.8148 0.0000 0.0000 0.0000
# 3 35.8148 35.8148 89.5602 0.0000 0.0000 0.0000
# 4 0.0000 0.0000 0.0000 6.2016 0.0000 0.0000
# 5 0.0000 0.0000 0.0000 0.0000 6.2016 0.0000
# 6 0.0001 0.0000 0.0000 0.0000 0.0000 16.9090
#
#
#
# Elastic Compliance Matrix: (Units=1/GPa)
#
#
# Indices 1 2 3 4 5 6 
#
# 1 0.021461 -0.008109 -0.005339 0.000000 0.000000 0.000000
# 2 -0.008109 0.021461 -0.005339 0.000000 0.000000 0.000000
# 3 -0.005339 -0.005339 0.015436 0.000000 0.000000 0.000000
# 4 0.000000 0.000000 0.000000 0.161248 0.000000 0.000000
# 5 0.000000 0.000000 0.000000 0.000000 0.161248 0.000000
# 6 0.000000 0.000000 0.000000 0.000000 0.000000 0.059140
#
#
# Mechanical properties :
#
#
# Convention : Reuss Voigt Hill
#
# Bulk Modulus (GPa) = 48.11811 48.87803 48.49807
# Shear Modulus (GPa) = 10.31998 13.89098 12.10548
#
# Velocity S-wave (km/s) = 2.88388 3.34583 3.12341
# Velocity P-wave (km/s) = 7.06165 7.36997 7.21746
#
# Compressibility (1/GPa) = 0.02078220
#
# Stress axis : x y z
#
# Youngs Moduli (GPa) = 46.59634 46.59613 64.78362
#
# Poissons Ratio (x) = 0.37786 0.34590
# Poissons Ratio (y) = 0.37786 0.34590
# Poissons Ratio (z) = 0.24879 0.24879
#
# Static dielectric constant tensor:
#      x y z
#    x 1.414720 0.000000 0.000000 
#    y 0.000000 1.414720 0.000000 
#    z 0.000000 0.000000 1.400860 
# 
# From -- ./inp_files/3176.got.cif
#   From: 2010.05.17/outbox.cif.g08.bks.cpg/sg175_2_cif.got.tgz:3176.got - 2010.05.20 11:23:22.
