data_PCOD9581944
_publ_section_title
;
Structure prediction by ZEFSAII (Michael W. Deem and Ramdas Pophale) SiO2 
 PCOD9581944
Probable space group: P 63/M
;
_chemical_formula_sum "Si O2"
_cell_formula_units_Z 48
_cell_length_a 12.632776
_cell_length_b 12.632776
_cell_length_c 16.753048
_cell_angle_alpha 90.000000
_cell_angle_beta 90.000000
_cell_angle_gamma 120.000000
_cell_volume 2315.378816
_symmetry_space_group_name_H-M "P 63/M"
_symmetry_group_IT_number 176
_symmetry_cell_setting 'hexagonal'
loop_
_space_group_symop_operation_xyz
x,y,z
x-y,x,1/2+z
-y,x-y,z
-x,-y,1/2+z
-x+y,-x,z
y,-x+y,1/2+z
-x,-y,-z
-x+y,-x,1/2-z
y,-x+y,-z
x,y,1/2-z
x-y,x,-z
-y,x-y,1/2-z
loop_
_atom_site_type_symbol
_atom_site_label
_atom_site_fract_x
_atom_site_fract_y
_atom_site_fract_z
Si Si1 0.268957 0.181213 0.656547
Si Si2 0.434202 0.086053 0.580047
Si Si3 0.000000 0.000000 0.153251
Si Si4 0.333334 0.666667 0.620485
Si Si5 0.539494 0.921863 0.889755
Si Si6 0.333334 0.666668 0.426052
O O1 0.269983 0.154609 0.750000
O O2 0.333593 0.116965 0.610787
O O3 0.128185 0.115997 0.628306
O O4 0.337184 0.327686 0.646874
O O5 0.431373 0.078128 0.484057
O O6 0.563750 0.202615 0.602076
O O7 0.445128 0.973490 0.614023
O O8 0.000000 0.000000 0.250000
O O9 0.322355 0.537996 0.643059
O O10 0.333334 0.666667 0.522845
#
# Coordination Sequence:
#
# PCOD9581944 Si02
#       6
#    12  12   4   4  12   4
#     4  11  24  42  64  91 125 165 214 269 325 379
#     4  10  20  37  61  91 127 166 207 260 317 382
#     4   9  24  45  58  77 124 168 196 251 316 378
#     4   9  21  36  61  89 124 165 205 263 316 381
#     4  10  22  38  63  92 126 167 213 261 320 384
#     4   9  15  36  55  89 127 159 205 257 313 351
#
# _framework density 20.730948000000001
#
# number of rings (size 3 to 8) (size 9 to 14) (size 15 to 20)
#    0.000    2.000    2.500    0.000    7.000    1.000 
#    0.000    2.500    0.000    0.000    0.000    0.000 
#    0.000    0.000    0.000    0.000    0.000    0.000 
#
# Total GULP energy -267810.021248 kJ/mol
# GULP energy per Si atom -5579.375443 kJ/mol
# Density = 2.068376 g / cm^3
# Si number density = 20.730948 Si / 1000 Ang^3
#
#
#
# Elastic Constant Matrix: (Units=GPa)
#
#
# Indices 1 2 3 4 5 6 
#
# 1 102.1859 29.7311 21.3023 0.0000 0.0000 -0.0001
# 2 29.7311 102.1871 21.3021 0.0000 0.0000 0.0007
# 3 21.3023 21.3021 20.1078 0.0000 0.0000 0.0002
# 4 0.0000 0.0000 0.0000 17.7902 -0.0002 0.0000
# 5 0.0000 0.0000 0.0000 -0.0002 17.7901 0.0000
# 6 -0.0001 0.0007 0.0002 0.0000 0.0000 36.2279
#
#
#
# Elastic Compliance Matrix: (Units=1/GPa)
#
#
# Indices 1 2 3 4 5 6 
#
# 1 0.012662 -0.001139 -0.012208 0.000000 0.000000 0.000000
# 2 -0.001139 0.012662 -0.012207 0.000000 0.000000 0.000000
# 3 -0.012208 -0.012207 0.075597 0.000000 0.000000 0.000000
# 4 0.000000 0.000000 0.000000 0.056211 0.000001 0.000000
# 5 0.000000 0.000000 0.000000 0.000001 0.056211 0.000000
# 6 0.000000 0.000000 0.000000 0.000000 0.000000 0.027603
#
#
# Mechanical properties :
#
#
# Convention : Reuss Voigt Hill
#
# Bulk Modulus (GPa) = 20.07500 41.01686 30.54593
# Shear Modulus (GPa) = 16.19907 24.50465 20.35186
#
# Velocity S-wave (km/s) = 2.79838 3.44180 3.13663
# Velocity P-wave (km/s) = 4.48841 5.96849 5.28057
#
# Compressibility (1/GPa) = 0.04981319
#
# Stress axis : x y z
#
# Youngs Moduli (GPa) = 78.97370 78.97523 13.22802
#
# Poissons Ratio (x) = 0.08997 0.16148
# Poissons Ratio (y) = 0.08997 0.16148
# Poissons Ratio (z) = 0.96409 0.96408
#
# Static dielectric constant tensor:
#      x y z
#    x 1.739270 0.000000 0.000000 
#    y 0.000000 1.739270 0.000000 
#    z 0.000000 0.000000 1.736340 
# 
# From -- ./inp_files/3678.got.cif
#   From: 2010.05.17/outbox.cif.g08.bks.cpg/sg176_2_cif.got.tgz:3678.got - 2010.06.03 11:36:45.
