data_PCOD9581999
_publ_section_title
;
Structure prediction by ZEFSAII (Michael W. Deem and Ramdas Pophale) SiO2 
 PCOD9581999
Probable space group: P 63/M
;
_chemical_formula_sum "Si O2"
_cell_formula_units_Z 70
_cell_length_a 15.641877
_cell_length_b 15.641877
_cell_length_c 16.462636
_cell_angle_alpha 90.000000
_cell_angle_beta 90.000000
_cell_angle_gamma 120.000000
_cell_volume 3488.251105
_symmetry_space_group_name_H-M "P 63/M"
_symmetry_group_IT_number 176
_symmetry_cell_setting 'hexagonal'
loop_
_space_group_symop_operation_xyz
x,y,z
x-y,x,1/2+z
-y,x-y,z
-x,-y,1/2+z
-x+y,-x,z
y,-x+y,1/2+z
-x,-y,-z
-x+y,-x,1/2-z
y,-x+y,-z
x,y,1/2-z
x-y,x,-z
-y,x-y,1/2-z
loop_
_atom_site_type_symbol
_atom_site_label
_atom_site_fract_x
_atom_site_fract_y
_atom_site_fract_z
Si Si1 0.125781 0.093115 0.250000
Si Si2 0.873010 0.660122 0.957394
Si Si3 0.557917 0.613229 0.842732
Si Si4 0.401562 0.396299 0.654048
Si Si5 0.540939 0.798258 0.906157
Si Si6 0.666667 0.333334 0.348973
Si Si7 0.756927 0.990664 0.112267
O O1 0.192542 0.150153 0.172463
O O2 0.076320 0.974454 0.250000
O O3 0.852270 0.733462 0.905574
O O4 0.915928 0.606309 0.902358
O O5 0.771202 0.581869 0.002745
O O6 0.949499 0.724228 0.028550
O O7 0.525316 0.602043 0.750000
O O8 0.490010 0.503319 0.876756
O O9 0.549820 0.705637 0.875079
O O10 0.674980 0.658069 0.849779
O O11 0.413900 0.383371 0.750000
O O12 0.300018 0.398620 0.640356
O O13 0.427792 0.762081 0.885751
O O14 0.666667 0.333334 0.250000
#
# Coordination Sequence:
#
# PCOD9581999 Si02
#       7
#     6  12  12  12  12   4  12
#     4  10  26  44  70  96 120 174 228 278 334 392
#     4  11  26  43  62  95 134 175 218 270 333 395
#     4  10  21  38  64  95 128 167 211 264 321 384
#     4  11  23  41  67  99 130 173 219 266 323 398
#     4  11  22  38  63  94 135 169 205 265 328 392
#     4  12  21  36  66 102 139 170 214 264 330 384
#     4  11  24  44  65  94 131 170 218 275 333 391
#
# _framework density 20.067361999999999
#
# number of rings (size 3 to 8) (size 9 to 14) (size 15 to 20)
#    0.171    1.029    4.286    1.543    3.600    4.114 
#    0.000    0.857    0.000    0.686    0.000    0.000 
#    0.000    0.000    0.000    0.000    0.000    0.000 
#
# Total GULP energy -390265.894043 kJ/mol
# GULP energy per Si atom -5575.227058 kJ/mol
# Density = 2.002169 g / cm^3
# Si number density = 20.067362 Si / 1000 Ang^3
#
#
#
# Elastic Constant Matrix: (Units=GPa)
#
#
# Indices 1 2 3 4 5 6 
#
# 1 66.0451 12.8828 19.3469 0.0000 0.0000 -0.0001
# 2 12.8828 66.0446 19.3467 0.0000 0.0000 0.0000
# 3 19.3469 19.3467 63.6567 0.0000 0.0000 0.0000
# 4 0.0000 0.0000 0.0000 24.4932 0.0000 0.0000
# 5 0.0000 0.0000 0.0000 0.0000 24.4933 0.0000
# 6 -0.0001 0.0000 0.0000 0.0000 0.0000 26.5808
#
#
#
# Elastic Compliance Matrix: (Units=1/GPa)
#
#
# Indices 1 2 3 4 5 6 
#
# 1 0.016849 -0.001961 -0.004525 0.000000 0.000000 0.000000
# 2 -0.001961 0.016849 -0.004525 0.000000 0.000000 0.000000
# 3 -0.004525 -0.004525 0.018460 0.000000 0.000000 0.000000
# 4 0.000000 0.000000 0.000000 0.040828 0.000000 0.000000
# 5 0.000000 0.000000 0.000000 0.000000 0.040827 0.000000
# 6 0.000000 0.000000 0.000000 0.000000 0.000000 0.037621
#
#
# Mechanical properties :
#
#
# Convention : Reuss Voigt Hill
#
# Bulk Modulus (GPa) = 33.18237 33.21103 33.19670
# Shear Modulus (GPa) = 24.56983 24.72480 24.64731
#
# Velocity S-wave (km/s) = 3.50289 3.51392 3.50841
# Velocity P-wave (km/s) = 5.73862 5.74885 5.74373
#
# Compressibility (1/GPa) = 0.03013648
#
# Stress axis : x y z
#
# Youngs Moduli (GPa) = 59.34990 59.34958 54.17208
#
# Poissons Ratio (x) = 0.11639 0.24512
# Poissons Ratio (y) = 0.11640 0.24512
# Poissons Ratio (z) = 0.26855 0.26855
#
# Static dielectric constant tensor:
#      x y z
#    x 1.770250 0.000000 0.000000 
#    y 0.000000 1.770250 0.000000 
#    z 0.000000 0.000000 1.732470 
# 
# From -- ./inp_files/3407.got.cif
#   From: 2010.05.17/outbox.cif.g08.bks.cpg/sg176_2_cif.got.tgz:3407.got - 2010.06.03 11:36:45.
