data_PCOD9581477
_publ_section_title
;
Structure prediction by ZEFSAII (Michael W. Deem and Ramdas Pophale) SiO2 
 PCOD9581477
Probable space group: P 6/M
;
_chemical_formula_sum "Si O2"
_cell_formula_units_Z 96
_cell_length_a 23.935799
_cell_length_b 23.935799
_cell_length_c 7.333389
_cell_angle_alpha 90.000000
_cell_angle_beta 90.000000
_cell_angle_gamma 120.000000
_cell_volume 3638.574009
_symmetry_space_group_name_H-M "P 6/M"
_symmetry_group_IT_number 175
_symmetry_cell_setting 'hexagonal'
loop_
_space_group_symop_operation_xyz
x,y,z
x-y,x,z
-y,x-y,z
-x,-y,z
-x+y,-x,z
y,-x+y,z
-x,-y,-z
-x+y,-x,-z
y,-x+y,-z
x,y,-z
x-y,x,-z
-y,x-y,-z
loop_
_atom_site_type_symbol
_atom_site_label
_atom_site_fract_x
_atom_site_fract_y
_atom_site_fract_z
Si Si1 0.541655 0.940235 0.285295
Si Si2 0.666157 0.779082 0.281132
Si Si3 0.443286 0.807507 0.219441
Si Si4 0.362003 0.916696 0.715835
Si Si5 0.619935 0.875618 0.279359
Si Si6 0.143749 0.050581 0.277980
Si Si7 0.234239 0.540833 0.212328
Si Si8 0.241344 0.015841 0.720957
O O1 0.556669 0.949901 0.500000
O O2 0.467389 0.882755 0.274759
O O3 0.423338 0.985645 0.214670
O O4 0.568119 0.894193 0.208871
O O5 0.671854 0.791095 0.500000
O O6 0.624105 0.702266 0.254486
O O7 0.631367 0.817980 0.212445
O O8 0.736187 0.793904 0.214215
O O9 0.475484 0.764160 0.283889
O O10 0.369164 0.764664 0.284362
O O11 0.443717 0.810537 0.000000
O O12 0.371908 0.914824 0.500000
O O13 0.331493 0.842135 0.778009
O O14 0.612319 0.868519 0.500000
O O15 0.684637 0.941900 0.236359
O O16 0.117781 0.095968 0.217380
O O17 0.144303 0.054845 0.500000
O O18 0.211352 0.059391 0.220547
O O19 0.250521 0.552197 0.000000
O O20 0.236219 0.011568 0.500000
#
# Coordination Sequence:
#
# PCOD9581477 Si02
#       8
#    12  12  12  12  12  12  12  12
#     4  10  20  35  55  83 119 154 190 233 284 343
#     4   9  15  24  40  62  92 131 174 219 266 318
#     4  10  22  41  64  88 115 150 193 240 289 343
#     4  10  20  35  55  83 119 154 190 233 284 343
#     4   9  15  24  40  62  92 131 174 219 266 318
#     4   9  15  20  25  36  60  98 146 199 252 303
#     4  10  22  41  64  88 115 150 193 240 289 343
#     4   9  14  21  32  51  76 110 155 206 258 309
#
# _framework density 26.383963999999999
#
# number of rings (size 3 to 8) (size 9 to 14) (size 15 to 20)
#    0.000    2.500    1.250    1.875    0.000    7.500 
#    0.000    2.500    0.000    1.500    0.000    0.000 
#    0.000    0.000    0.000    0.000    0.000    0.000 
#
# Total GULP energy -534914.685854 kJ/mol
# GULP energy per Si atom -5572.027978 kJ/mol
# Density = 2.632391 g / cm^3
# Si number density = 26.383964 Si / 1000 Ang^3
#
#
#
# Elastic Constant Matrix: (Units=GPa)
#
#
# Indices 1 2 3 4 5 6 
#
# 1 101.3892 28.0067 3.2396 0.0000 0.0000 0.0000
# 2 28.0067 101.3892 3.2396 0.0000 0.0000 0.0000
# 3 3.2396 3.2396 93.3335 0.0000 0.0000 0.0000
# 4 0.0000 0.0000 0.0000 2.5389 0.0000 0.0000
# 5 0.0000 0.0000 0.0000 0.0000 2.5389 0.0000
# 6 0.0000 0.0000 0.0000 0.0000 0.0000 36.6912
#
#
#
# Elastic Compliance Matrix: (Units=1/GPa)
#
#
# Indices 1 2 3 4 5 6 
#
# 1 0.010684 -0.002943 -0.000269 0.000000 0.000000 0.000000
# 2 -0.002943 0.010684 -0.000269 0.000000 0.000000 0.000000
# 3 -0.000269 -0.000269 0.010733 0.000000 0.000000 0.000000
# 4 0.000000 0.000000 0.000000 0.393869 0.000000 0.000000
# 5 0.000000 0.000000 0.000000 0.000000 0.393869 0.000000
# 6 0.000000 0.000000 0.000000 0.000000 0.000000 0.027254
#
#
# Mechanical properties :
#
#
# Convention : Reuss Voigt Hill
#
# Bulk Modulus (GPa) = 39.77503 40.56488 40.16996
# Shear Modulus (GPa) = 5.79754 25.79553 15.79654
#
# Velocity S-wave (km/s) = 1.48396 3.13021 2.44952
# Velocity P-wave (km/s) = 4.24787 5.33596 4.82270
#
# Compressibility (1/GPa) = 0.02514140
#
# Stress axis : x y z
#
# Youngs Moduli (GPa) = 93.59391 93.59391 93.17125
#
# Poissons Ratio (x) = 0.27543 0.02504
# Poissons Ratio (y) = 0.27543 0.02504
# Poissons Ratio (z) = 0.02515 0.02515
#
# Static dielectric constant tensor:
#      x y z
#    x 2.147240 0.000000 0.000000 
#    y 0.000000 2.147240 0.000000 
#    z 0.000000 0.000000 2.027400 
# 
# From -- ./inp_files/2180.got.cif
#   From: 2010.05.17/outbox.cif.g08.bks.cpg/sg175_2_cif.got.tgz:2180.got - 2010.05.20 11:23:22.
