data_PCOD9581084
_publ_section_title
;
Structure prediction by ZEFSAII (Michael W. Deem and Ramdas Pophale) SiO2 
 PCOD9581084
Probable space group: P 63
;
_chemical_formula_sum "Si O2"
_cell_formula_units_Z 24
_cell_length_a 8.420992
_cell_length_b 8.420992
_cell_length_c 19.215383
_cell_angle_alpha 90.000000
_cell_angle_beta 90.000000
_cell_angle_gamma 120.000000
_cell_volume 1180.065698
_symmetry_space_group_name_H-M "P 63"
_symmetry_group_IT_number 173
_symmetry_cell_setting 'hexagonal'
loop_
_space_group_symop_operation_xyz
x,y,z
x-y,x,1/2+z
-y,x-y,z
-x,-y,1/2+z
-x+y,-x,z
y,-x+y,1/2+z
loop_
_atom_site_type_symbol
_atom_site_label
_atom_site_fract_x
_atom_site_fract_y
_atom_site_fract_z
Si Si1 0.333965 0.000550 0.351780
Si Si2 0.660256 0.119957 0.699482
Si Si3 0.339745 0.459701 0.564803
Si Si4 0.666584 0.000550 0.412505
O O1 0.338299 0.983475 0.269003
O O2 0.200419 0.799581 0.382142
O O3 0.533860 0.067719 0.382142
O O4 0.267628 0.133814 0.382142
O O5 0.834439 0.327385 0.699924
O O6 0.638897 0.000001 0.632142
O O7 0.507054 0.672616 0.564360
O O8 0.338301 0.354826 0.495282
#
# Coordination Sequence:
#
# PCOD9581084 Si02
#       4
#     6   6   6   6
#     4  12  24  44  68  99 140 188 237 294 350 420
#     4  10  23  41  66  98 137 178 232 288 358 419
#     4  10  23  41  66  98 137 178 232 288 358 419
#     4  12  24  44  68  99 140 188 237 294 350 420
#
# _framework density 20.337852000000002
#
# number of rings (size 3 to 8) (size 9 to 14) (size 15 to 20)
#    1.000    0.000    5.000    1.500    7.000    0.000 
#    0.000    0.000    0.000    1.000    0.000    0.000 
#    0.000    0.000    0.000    0.000    0.000    0.000 
#
# Total GULP energy -133933.617776 kJ/mol
# GULP energy per Si atom -5580.567407 kJ/mol
# Density = 2.029156 g / cm^3
# Si number density = 20.337852 Si / 1000 Ang^3
#
#
#
# Elastic Constant Matrix: (Units=GPa)
#
#
# Indices 1 2 3 4 5 6 
#
# 1 64.3890 23.3361 47.8557 0.0000 0.0000 0.0000
# 2 23.3361 64.3890 47.8557 0.0000 0.0000 0.0000
# 3 47.8557 47.8557 249.1541 0.0000 0.0000 0.0000
# 4 0.0000 0.0000 0.0000 599.9305 0.0000 0.0000
# 5 0.0000 0.0000 0.0000 0.0000 599.9304 0.0000
# 6 0.0000 0.0000 0.0000 0.0000 0.0000 20.5265
#
#
#
# Elastic Compliance Matrix: (Units=1/GPa)
#
#
# Indices 1 2 3 4 5 6 
#
# 1 0.019390 -0.004969 -0.002770 0.000000 0.000000 0.000000
# 2 -0.004969 0.019390 -0.002770 0.000000 0.000000 0.000000
# 3 -0.002770 -0.002770 0.005078 0.000000 0.000000 0.000000
# 4 0.000000 0.000000 0.000000 0.001667 0.000000 0.000000
# 5 0.000000 0.000000 0.000000 0.000000 0.001667 0.000000
# 6 0.000000 0.000000 0.000000 0.000000 0.000000 0.048718
#
#
# Mechanical properties :
#
#
# Convention : Reuss Voigt Hill
#
# Bulk Modulus (GPa) = 43.78170 68.44745 56.11457
# Shear Modulus (GPa) = 40.14776 261.33644 150.74210
#
# Velocity S-wave (km/s) = 4.44784 11.34797 8.61858
# Velocity P-wave (km/s) = 6.92471 14.33284 11.25571
#
# Compressibility (1/GPa) = 0.02284059
#
# Stress axis : x y z
#
# Youngs Moduli (GPa) = 51.57271 51.57271 196.94158
#
# Poissons Ratio (x) = 0.25625 0.54552
# Poissons Ratio (y) = 0.25625 0.54552
# Poissons Ratio (z) = 0.14285 0.14285
#
# Static dielectric constant tensor:
#      x y z
#    x 0.840030 0.000000 0.000000 
#    y 0.000000 0.840030 0.000000 
#    z 0.000000 0.000000 1.677920 
# 
# From -- ./inp_files/1340.got.cif
#   From: 2010.05.17/outbox.cif.g08.bks.cpg/sg173_cif.got.tgz:1340.got - 2010.05.20 11:21:53.
