data_PCOD9581561
_publ_section_title
;
Structure prediction by ZEFSAII (Michael W. Deem and Ramdas Pophale) SiO2 
 PCOD9581561
Probable space group: P 6/M
;
_chemical_formula_sum "Si O2"
_cell_formula_units_Z 72
_cell_length_a 15.298312
_cell_length_b 15.298312
_cell_length_c 15.724785
_cell_angle_alpha 90.000000
_cell_angle_beta 90.000000
_cell_angle_gamma 120.000000
_cell_volume 3187.149061
_symmetry_space_group_name_H-M "P 6/M"
_symmetry_group_IT_number 175
_symmetry_cell_setting 'hexagonal'
loop_
_space_group_symop_operation_xyz
x,y,z
x-y,x,z
-y,x-y,z
-x,-y,z
-x+y,-x,z
y,-x+y,z
-x,-y,-z
-x+y,-x,-z
y,-x+y,-z
x,y,-z
x-y,x,-z
-y,x-y,-z
loop_
_atom_site_type_symbol
_atom_site_label
_atom_site_fract_x
_atom_site_fract_y
_atom_site_fract_z
Si Si1 0.845255 0.320018 0.093042
Si Si2 0.834997 0.063067 0.281426
Si Si3 0.743890 0.196754 0.335693
Si Si4 0.721992 0.734450 0.098535
Si Si5 0.109886 0.582751 0.598974
Si Si6 0.498013 0.652617 0.150364
O O1 0.873617 0.411709 0.155083
O O2 0.725281 0.250633 0.093738
O O3 0.896023 0.251464 0.109987
O O4 0.880526 0.364809 0.000000
O O5 0.773037 0.108518 0.330165
O O6 0.809791 0.049177 0.178833
O O7 0.950143 0.142998 0.303179
O O8 0.835801 0.308159 0.356171
O O9 0.648804 0.174375 0.394183
O O10 0.703013 0.191584 0.241333
O O11 0.601758 0.669727 0.112246
O O12 0.746202 0.772332 0.000000
O O13 0.097275 0.600416 0.500000
O O14 0.000000 0.500000 0.634554
#
# Coordination Sequence:
#
# PCOD9581561 Si02
#       6
#    12  12  12  12  12  12
#     4  11  21  34  52  77 114 160 214 271 325 386
#     4  11  24  42  65  92 126 173 229 288 341 389
#     4  11  23  41  65  96 135 170 210 262 323 396
#     4  10  21  37  56  80 115 162 218 280 342 395
#     4  11  24  43  69 100 133 169 207 252 318 403
#     4  11  22  34  52  79 113 158 205 256 318 389
#
# _framework density 22.590723000000001
#
# number of rings (size 3 to 8) (size 9 to 14) (size 15 to 20)
#    0.000    1.167    0.000    7.333    0.000    7.333 
#    0.000    0.000    0.000    1.000    0.000    0.000 
#    0.000    8.667    0.000    0.000    0.000    0.000 
#
# Total GULP energy -402003.470312 kJ/mol
# GULP energy per Si atom -5583.381532 kJ/mol
# Density = 2.253931 g / cm^3
# Si number density = 22.590723 Si / 1000 Ang^3
#
#
#
# Elastic Constant Matrix: (Units=GPa)
#
#
# Indices 1 2 3 4 5 6 
#
# 1 96.1202 23.3272 7.0882 0.0000 0.0000 0.0000
# 2 23.3272 96.1202 7.0882 0.0000 0.0000 0.0000
# 3 7.0882 7.0882 54.8840 0.0000 0.0000 0.0000
# 4 0.0000 0.0000 0.0000 23.7497 0.0000 0.0000
# 5 0.0000 0.0000 0.0000 0.0000 23.7497 0.0000
# 6 0.0000 0.0000 0.0000 0.0000 0.0000 36.3965
#
#
#
# Elastic Compliance Matrix: (Units=1/GPa)
#
#
# Indices 1 2 3 4 5 6 
#
# 1 0.011120 -0.002618 -0.001098 0.000000 0.000000 0.000000
# 2 -0.002618 0.011120 -0.001098 0.000000 0.000000 0.000000
# 3 -0.001098 -0.001098 0.018504 0.000000 0.000000 0.000000
# 4 0.000000 0.000000 0.000000 0.042106 0.000000 0.000000
# 5 0.000000 0.000000 0.000000 0.000000 0.042106 0.000000
# 6 0.000000 0.000000 0.000000 0.000000 0.000000 0.027475
#
#
# Mechanical properties :
#
#
# Convention : Reuss Voigt Hill
#
# Bulk Modulus (GPa) = 32.13774 35.79241 33.96507
# Shear Modulus (GPa) = 28.99724 30.75387 29.87555
#
# Velocity S-wave (km/s) = 3.58661 3.69365 3.64052
# Velocity P-wave (km/s) = 5.60434 5.83686 5.72178
#
# Compressibility (1/GPa) = 0.03111607
#
# Stress axis : x y z
#
# Youngs Moduli (GPa) = 89.92886 89.92886 54.04280
#
# Poissons Ratio (x) = 0.23541 0.05934
# Poissons Ratio (y) = 0.23541 0.05934
# Poissons Ratio (z) = 0.09875 0.09875
#
# Static dielectric constant tensor:
#      x y z
#    x 1.887800 0.000000 0.000000 
#    y 0.000000 1.887800 0.000000 
#    z 0.000000 0.000000 1.889690 
# 
# From -- ./inp_files/2889.got.cif
#   From: 2010.05.17/outbox.cif.g08.bks.cpg/sg175_2_cif.got.tgz:2889.got - 2010.05.20 11:23:22.
