data_PCOD9581225
_publ_section_title
;
Structure prediction by ZEFSAII (Michael W. Deem and Ramdas Pophale) SiO2 
 PCOD9581225
Probable space group: P -6
;
_chemical_formula_sum "Si O2"
_cell_formula_units_Z 30
_cell_length_a 8.999260
_cell_length_b 8.999260
_cell_length_c 22.509869
_cell_angle_alpha 90.000000
_cell_angle_beta 90.000000
_cell_angle_gamma 120.000000
_cell_volume 1578.763939
_symmetry_space_group_name_H-M "P -6"
_symmetry_group_IT_number 174
_symmetry_cell_setting 'hexagonal'
loop_
_space_group_symop_operation_xyz
x,y,z
-x+y,-x,-z
-y,x-y,z
x,y,-z
-x+y,-x,z
-y,x-y,-z
loop_
_atom_site_type_symbol
_atom_site_label
_atom_site_fract_x
_atom_site_fract_y
_atom_site_fract_z
Si Si1 0.996296 0.333114 0.571109
Si Si2 0.667042 0.665728 0.808469
Si Si3 0.862369 0.332447 0.067156
Si Si4 0.330863 0.333559 0.761032
Si Si5 0.329642 0.333527 0.381193
O O1 0.987047 0.333086 0.500000
O O2 0.021232 0.510745 0.596293
O O3 0.155581 0.312274 0.591537
O O4 0.822510 0.176640 0.597042
O O5 0.667520 0.644344 0.879555
O O6 0.490391 0.511396 0.783066
O O7 0.688129 0.845126 0.788596
O O8 0.821718 0.644923 0.782232
O O9 0.826588 0.492549 0.073157
O O10 0.921477 0.332138 0.000000
O O11 0.320441 0.333526 0.689914
#
# Coordination Sequence:
#
# PCOD9581225 Si02
#       5
#     6   6   6   6   6
#     4  12  25  44  67  91 123 160 211 261 319 377
#     4  12  23  42  61  98 124 175 205 263 308 374
#     4   8  15  35  66  94 122 165 209 252 310 366
#     4  12  24  40  65  89 133 162 214 252 318 376
#     4  12  25  43  63  94 122 166 205 262 315 379
#
# _framework density 19.002209000000001
#
# number of rings (size 3 to 8) (size 9 to 14) (size 15 to 20)
#    0.400    0.400    2.000    7.800    0.000    0.000 
#    0.000    2.000    0.000    0.000    0.000    0.000 
#    0.000    0.000    0.000    0.000    0.000    0.000 
#
# Total GULP energy -167758.974916 kJ/mol
# GULP energy per Si atom -5591.965831 kJ/mol
# Density = 1.895896 g / cm^3
# Si number density = 19.002209 Si / 1000 Ang^3
#
#
#
# Elastic Constant Matrix: (Units=GPa)
#
#
# Indices 1 2 3 4 5 6 
#
# 1 48.5681 -25.6229 25.4133 0.0000 0.0000 0.0000
# 2 -25.6229 48.5681 25.4133 0.0000 0.0000 0.0000
# 3 25.4133 25.4133 217.6698 0.0000 0.0000 0.0000
# 4 0.0000 0.0000 0.0000 112.3431 0.0000 0.0000
# 5 0.0000 0.0000 0.0000 0.0000 112.3431 0.0000
# 6 0.0000 0.0000 0.0000 0.0000 0.0000 37.0955
#
#
#
# Elastic Compliance Matrix: (Units=1/GPa)
#
#
# Indices 1 2 3 4 5 6 
#
# 1 0.036132 0.022653 -0.006863 0.000000 0.000000 0.000000
# 2 0.022653 0.036132 -0.006863 0.000000 0.000000 0.000000
# 3 -0.006863 -0.006863 0.006197 0.000000 0.000000 0.000000
# 4 0.000000 0.000000 0.000000 0.008901 0.000000 0.000000
# 5 0.000000 0.000000 0.000000 0.000000 0.008901 0.000000
# 6 0.000000 0.000000 0.000000 0.000000 0.000000 0.026957
#
#
# Mechanical properties :
#
#
# Convention : Reuss Voigt Hill
#
# Bulk Modulus (GPa) = 10.38270 40.57924 25.48097
# Shear Modulus (GPa) = 36.37108 71.66318 54.01713
#
# Velocity S-wave (km/s) = 4.37973 6.14776 5.33746
# Velocity P-wave (km/s) = 5.57242 8.47317 7.17100
#
# Compressibility (1/GPa) = 0.09631403
#
# Stress axis : x y z
#
# Youngs Moduli (GPa) = 27.67634 27.67634 161.37616
#
# Poissons Ratio (x) = -0.62696 1.10757
# Poissons Ratio (y) = -0.62696 1.10757
# Poissons Ratio (z) = 0.18995 0.18995
#
# Static dielectric constant tensor:
#      x y z
#    x 1.624120 0.000000 0.000000 
#    y 0.000000 1.624120 0.000000 
#    z 0.000000 0.000000 1.642550 
# 
# From -- ./inp_files/1067.got.cif
#   From: 2010.05.17/outbox.cif.g08.bks.cpg/sg174_cif.got.tgz:1067.got - 2010.05.20 11:22:48.
