data_PCOD9581921
_publ_section_title
;
Structure prediction by ZEFSAII (Michael W. Deem and Ramdas Pophale) SiO2 
 PCOD9581921
Probable space group: P 63/M
;
_chemical_formula_sum "Si O2"
_cell_formula_units_Z 54
_cell_length_a 12.309842
_cell_length_b 12.309842
_cell_length_c 22.912180
_cell_angle_alpha 90.000000
_cell_angle_beta 90.000000
_cell_angle_gamma 120.000000
_cell_volume 3006.782414
_symmetry_space_group_name_H-M "P 63/M"
_symmetry_group_IT_number 176
_symmetry_cell_setting 'hexagonal'
loop_
_space_group_symop_operation_xyz
x,y,z
x-y,x,1/2+z
-y,x-y,z
-x,-y,1/2+z
-x+y,-x,z
y,-x+y,1/2+z
-x,-y,-z
-x+y,-x,1/2-z
y,-x+y,-z
x,y,1/2-z
x-y,x,-z
-y,x-y,1/2-z
loop_
_atom_site_type_symbol
_atom_site_label
_atom_site_fract_x
_atom_site_fract_y
_atom_site_fract_z
Si Si1 0.172709 0.914855 0.122899
Si Si2 0.000000 0.000000 0.930292
Si Si3 0.375351 0.449876 0.580302
Si Si4 0.333334 0.666668 0.051138
Si Si5 0.333334 0.666668 0.590482
Si Si6 0.581409 0.918551 0.443533
Si Si7 0.927635 0.835232 0.750000
O O1 0.094909 0.783540 0.088472
O O2 0.138999 0.896700 0.190922
O O3 0.122615 0.002567 0.095633
O O4 0.322067 0.980693 0.113193
O O5 0.000000 0.000000 0.000000
O O6 0.318699 0.532615 0.606346
O O7 0.328400 0.405329 0.513751
O O8 0.524106 0.549538 0.574492
O O9 0.334678 0.544639 0.070880
O O10 0.333334 0.666667 0.980546
O O11 0.865136 0.923992 0.750000
#
# Coordination Sequence:
#
# PCOD9581921 Si02
#       7
#    12   4  12   4   4  12   6
#     4  12  22  39  63  85 119 159 214 247 299 368
#     4  12  24  34  59  97 123 138 196 272 310 372
#     4  10  22  35  58  91 125 163 192 241 314 372
#     4   9  15  36  51  82 125 163 186 222 307 368
#     4   9  21  33  54  82 131 163 183 225 310 386
#     4  10  20  35  58  89 126 160 192 246 308 363
#     4  10  22  46  58  80 116 174 198 248 320 354
#
# _framework density 17.959396999999999
#
# number of rings (size 3 to 8) (size 9 to 14) (size 15 to 20)
#    0.222    1.333    4.444    1.333    6.222    0.000 
#    0.000    1.111    0.000    1.333    0.000    0.000 
#    0.000    0.000    0.000    0.000    0.000    0.000 
#
# Total GULP energy -301137.320663 kJ/mol
# GULP energy per Si atom -5576.617049 kJ/mol
# Density = 1.791852 g / cm^3
# Si number density = 17.959397 Si / 1000 Ang^3
#
#
#
# Elastic Constant Matrix: (Units=GPa)
#
#
# Indices 1 2 3 4 5 6 
#
# 1 68.4296 15.2677 26.1313 0.0000 0.0000 -0.0001
# 2 15.2677 68.4297 26.1316 0.0000 0.0000 0.0005
# 3 26.1313 26.1316 79.0161 0.0000 0.0000 -0.0001
# 4 0.0000 0.0000 0.0000 13.3617 -0.0002 0.0000
# 5 0.0000 0.0000 0.0000 -0.0002 13.3613 0.0000
# 6 -0.0001 0.0005 -0.0001 0.0000 0.0000 26.5811
#
#
#
# Elastic Compliance Matrix: (Units=1/GPa)
#
#
# Indices 1 2 3 4 5 6 
#
# 1 0.016934 -0.001877 -0.004980 0.000000 0.000000 0.000000
# 2 -0.001877 0.016934 -0.004980 0.000000 0.000000 0.000000
# 3 -0.004980 -0.004980 0.015949 0.000000 0.000000 0.000000
# 4 0.000000 0.000000 0.000000 0.074841 0.000001 0.000000
# 5 0.000000 0.000000 0.000000 0.000001 0.074843 0.000000
# 6 0.000000 0.000000 0.000000 0.000000 0.000000 0.037621
#
#
# Mechanical properties :
#
#
# Convention : Reuss Voigt Hill
#
# Bulk Modulus (GPa) = 38.24771 38.99294 38.62033
# Shear Modulus (GPa) = 18.55233 20.55047 19.55140
#
# Velocity S-wave (km/s) = 3.21754 3.38638 3.30304
# Velocity P-wave (km/s) = 5.92844 6.08679 6.00814
#
# Compressibility (1/GPa) = 0.02614535
#
# Stress axis : x y z
#
# Youngs Moduli (GPa) = 59.05344 59.05334 62.69890
#
# Poissons Ratio (x) = 0.11082 0.31221
# Poissons Ratio (y) = 0.11082 0.31222
# Poissons Ratio (z) = 0.29406 0.29406
#
# Static dielectric constant tensor:
#      x y z
#    x 1.638570 0.000000 0.000000 
#    y 0.000000 1.638570 0.000000 
#    z 0.000000 0.000000 1.576470 
# 
# From -- ./inp_files/4039.got.cif
#   From: 2010.05.17/outbox.cif.g08.bks.cpg/sg176_3_cif.got.tgz:4039.got - 2010.06.03 11:36:45.
