data_PCOD9581827
_publ_section_title
;
Structure prediction by ZEFSAII (Michael W. Deem and Ramdas Pophale) SiO2 
 PCOD9581827
Probable space group: P 63/M
;
_chemical_formula_sum "Si O2"
_cell_formula_units_Z 52
_cell_length_a 12.468330
_cell_length_b 12.468330
_cell_length_c 22.532616
_cell_angle_alpha 90.000000
_cell_angle_beta 90.000000
_cell_angle_gamma 120.000000
_cell_volume 3033.603549
_symmetry_space_group_name_H-M "P 63/M"
_symmetry_group_IT_number 176
_symmetry_cell_setting 'hexagonal'
loop_
_space_group_symop_operation_xyz
x,y,z
x-y,x,1/2+z
-y,x-y,z
-x,-y,1/2+z
-x+y,-x,z
y,-x+y,1/2+z
-x,-y,-z
-x+y,-x,1/2-z
y,-x+y,-z
x,y,1/2-z
x-y,x,-z
-y,x-y,1/2-z
loop_
_atom_site_type_symbol
_atom_site_label
_atom_site_fract_x
_atom_site_fract_y
_atom_site_fract_z
Si Si1 0.000000 0.000000 0.568751
Si Si2 0.734149 0.991705 0.685059
Si Si3 0.587298 0.925063 0.936081
Si Si4 0.010331 0.795915 0.144555
Si Si5 0.590230 0.670233 0.945445
O O1 0.888403 0.873811 0.593445
O O2 0.000000 0.000000 0.500000
O O3 0.677875 0.984182 0.750000
O O4 0.653206 0.979248 0.627178
O O5 0.762616 0.877931 0.679694
O O6 0.864113 0.120427 0.680103
O O7 0.582407 0.794758 0.944254
O O8 0.450714 0.907363 0.937827
O O9 0.659332 0.012716 0.991900
O O10 0.996077 0.677459 0.110032
#
# Coordination Sequence:
#
# PCOD9581827 Si02
#       5
#     4  12  12  12  12
#     4   9  18  24  46  83 109 126 153 211 254 316
#     4  10  19  33  50  76 105 133 165 205 258 317
#     4  10  21  34  53  75 102 136 171 220 257 310
#     4   9  19  30  51  76 104 133 161 207 262 310
#     4  10  20  35  53  77 102 133 177 214 266 304
#
# _framework density 17.14133
#
# number of rings (size 3 to 8) (size 9 to 14) (size 15 to 20)
#    0.000    2.308    0.000    3.000    9.692    0.000 
#    0.000    5.769    0.000    0.923    0.000    0.000 
#    0.000    0.000    0.000    0.000    0.000    0.000 
#
# Total GULP energy -289994.637236 kJ/mol
# GULP energy per Si atom -5576.819947 kJ/mol
# Density = 1.710232 g / cm^3
# Si number density = 17.141330 Si / 1000 Ang^3
#
#
#
# Elastic Constant Matrix: (Units=GPa)
#
#
# Indices 1 2 3 4 5 6 
#
# 1 66.8974 29.7436 40.7604 0.0000 0.0000 0.0000
# 2 29.7436 66.8974 40.7604 0.0000 0.0000 0.0000
# 3 40.7604 40.7604 134.0921 0.0000 0.0000 0.0000
# 4 0.0000 0.0000 0.0000 8.2203 0.0000 0.0000
# 5 0.0000 0.0000 0.0000 0.0000 8.2203 0.0000
# 6 0.0000 0.0000 0.0000 0.0000 0.0000 18.5769
#
#
#
# Elastic Compliance Matrix: (Units=1/GPa)
#
#
# Indices 1 2 3 4 5 6 
#
# 1 0.020415 -0.006500 -0.004230 0.000000 0.000000 0.000000
# 2 -0.006500 0.020415 -0.004230 0.000000 0.000000 0.000000
# 3 -0.004230 -0.004230 0.010029 0.000000 0.000000 0.000000
# 4 0.000000 0.000000 0.000000 0.121650 0.000000 0.000000
# 5 0.000000 0.000000 0.000000 0.000000 0.121650 0.000000
# 6 0.000000 0.000000 0.000000 0.000000 0.000000 0.053830
#
#
# Mechanical properties :
#
#
# Convention : Reuss Voigt Hill
#
# Bulk Modulus (GPa) = 47.75398 54.49062 51.12230
# Shear Modulus (GPa) = 12.99071 17.44500 15.21786
#
# Velocity S-wave (km/s) = 2.75591 3.19363 2.98281
# Velocity P-wave (km/s) = 6.16816 6.74218 6.46155
#
# Compressibility (1/GPa) = 0.02094066
#
# Stress axis : x y z
#
# Youngs Moduli (GPa) = 48.98249 48.98249 99.70891
#
# Poissons Ratio (x) = 0.31837 0.42177
# Poissons Ratio (y) = 0.31837 0.42177
# Poissons Ratio (z) = 0.20720 0.20720
#
# Static dielectric constant tensor:
#      x y z
#    x 1.595430 0.000000 0.000000 
#    y 0.000000 1.595430 0.000000 
#    z 0.000000 0.000000 1.578050 
# 
# From -- ./inp_files/3702.got.cif
#   From: 2010.05.17/outbox.cif.g08.bks.cpg/sg176_2_cif.got.tgz:3702.got - 2010.06.03 11:36:45.
