data_PCOD9581151
_publ_section_title
;
Structure prediction by ZEFSAII (Michael W. Deem and Ramdas Pophale) SiO2 
 PCOD9581151
Probable space group: P -6
;
_chemical_formula_sum "Si O2"
_cell_formula_units_Z 32
_cell_length_a 14.870890
_cell_length_b 14.870890
_cell_length_c 7.845441
_cell_angle_alpha 90.000000
_cell_angle_beta 90.000000
_cell_angle_gamma 120.000000
_cell_volume 1502.525719
_symmetry_space_group_name_H-M "P -6"
_symmetry_group_IT_number 174
_symmetry_cell_setting 'hexagonal'
loop_
_space_group_symop_operation_xyz
x,y,z
-x+y,-x,-z
-y,x-y,z
x,y,-z
-x+y,-x,z
-y,x-y,-z
loop_
_atom_site_type_symbol
_atom_site_label
_atom_site_fract_x
_atom_site_fract_y
_atom_site_fract_z
Si Si1 0.539608 0.875727 0.292186
Si Si2 0.458718 0.170117 0.809165
Si Si3 0.072063 0.837690 0.707918
Si Si4 0.841146 0.771236 0.293631
Si Si5 0.333335 0.666667 0.290678
Si Si6 0.613271 0.106779 0.307029
O O1 0.535353 0.872233 0.500000
O O2 0.646116 0.879436 0.239244
O O3 0.434371 0.774280 0.234808
O O4 0.556598 0.988445 0.241547
O O5 0.339481 0.091725 0.769051
O O6 0.473896 0.284246 0.789167
O O7 0.533923 0.149655 0.692390
O O8 0.485695 0.156281 0.000000
O O9 0.071262 0.837064 0.500000
O O10 0.953274 0.791095 0.763858
O O11 0.139607 0.956773 0.762234
O O12 0.841446 0.770255 0.500000
O O13 0.333334 0.666668 0.500000
O O14 0.648744 0.103470 0.500000
#
# Coordination Sequence:
#
# PCOD9581151 Si02
#       6
#     6   6   6   6   2   6
#     4   9  18  32  54  86 119 148 190 246 300 343
#     4  12  25  40  58  87 124 158 193 240 304 374
#     4   9  17  31  55  88 118 149 194 252 300 343
#     4  10  19  35  60  89 120 154 200 252 303 354
#     4   9  18  30  48  84 124 152 184 240 301 335
#     4  11  22  40  64  88 115 153 201 250 300 359
#
# _framework density 21.297471999999999
#
# number of rings (size 3 to 8) (size 9 to 14) (size 15 to 20)
#    0.000    1.875    1.875    3.000    2.625    1.500 
#    0.000    0.938    0.000    0.000    0.000    0.000 
#    0.000    0.000    0.000    0.000    0.000    0.000 
#
# Total GULP energy -178781.316544 kJ/mol
# GULP energy per Si atom -5586.916142 kJ/mol
# Density = 2.124900 g / cm^3
# Si number density = 21.297472 Si / 1000 Ang^3
#
#
#
# Elastic Constant Matrix: (Units=GPa)
#
#
# Indices 1 2 3 4 5 6 
#
# 1 126.2056 42.5033 0.3609 0.0000 0.0000 -0.0002
# 2 42.5033 126.2068 0.3609 0.0000 0.0000 0.0001
# 3 0.3609 0.3609 34.0760 0.0000 0.0000 0.0000
# 4 0.0000 0.0000 0.0000 7.3085 0.0000 0.0000
# 5 0.0000 0.0000 0.0000 0.0000 7.3085 0.0000
# 6 -0.0002 0.0001 0.0000 0.0000 0.0000 41.8518
#
#
#
# Elastic Compliance Matrix: (Units=1/GPa)
#
#
# Indices 1 2 3 4 5 6 
#
# 1 0.008937 -0.003010 -0.000063 0.000000 0.000000 0.000000
# 2 -0.003010 0.008937 -0.000063 0.000000 0.000000 0.000000
# 3 -0.000063 -0.000063 0.029348 0.000000 0.000000 0.000000
# 4 0.000000 0.000000 0.000000 0.136826 -0.000001 0.000000
# 5 0.000000 0.000000 0.000000 -0.000001 0.136827 0.000000
# 6 0.000000 0.000000 0.000000 0.000000 0.000000 0.023894
#
#
# Mechanical properties :
#
#
# Convention : Reuss Voigt Hill
#
# Bulk Modulus (GPa) = 24.41907 41.43763 32.92835
# Shear Modulus (GPa) = 13.71027 27.51132 20.61079
#
# Velocity S-wave (km/s) = 2.53998 3.59801 3.11426
# Velocity P-wave (km/s) = 4.48247 6.06298 5.33162
#
# Compressibility (1/GPa) = 0.04095161
#
# Stress axis : x y z
#
# Youngs Moduli (GPa) = 111.88986 111.89087 34.07445
#
# Poissons Ratio (x) = 0.33676 0.00214
# Poissons Ratio (y) = 0.33676 0.00214
# Poissons Ratio (z) = 0.00702 0.00702
#
# Static dielectric constant tensor:
#      x y z
#    x 1.732840 0.000000 0.000000 
#    y 0.000000 1.732840 0.000000 
#    z 0.000000 0.000000 1.770500 
# 
# From -- ./inp_files/314.got.cif
#   From: 2010.05.17/outbox.cif.g08.bks.cpg/sg174_cif.got.tgz:314.got - 2010.05.20 11:22:48.
