data_PCOD9581385
_publ_section_title
;
Structure prediction by ZEFSAII (Michael W. Deem and Ramdas Pophale) SiO2 
 PCOD9581385
Probable space group: P 6/M
;
_chemical_formula_sum "Si O2"
_cell_formula_units_Z 84
_cell_length_a 14.627031
_cell_length_b 14.627031
_cell_length_c 21.680923
_cell_angle_alpha 90.000000
_cell_angle_beta 90.000000
_cell_angle_gamma 120.000000
_cell_volume 4017.175103
_symmetry_space_group_name_H-M "P 6/M"
_symmetry_group_IT_number 175
_symmetry_cell_setting 'hexagonal'
loop_
_space_group_symop_operation_xyz
x,y,z
x-y,x,z
-y,x-y,z
-x,-y,z
-x+y,-x,z
y,-x+y,z
-x,-y,-z
-x+y,-x,-z
y,-x+y,-z
x,y,-z
x-y,x,-z
-y,x-y,-z
loop_
_atom_site_type_symbol
_atom_site_label
_atom_site_fract_x
_atom_site_fract_y
_atom_site_fract_z
Si Si1 0.749278 0.533181 0.570035
Si Si2 0.169992 0.236518 0.592022
Si Si3 0.168716 0.237776 0.740348
Si Si4 0.122718 0.536488 0.788024
Si Si5 0.091483 0.844521 0.073176
Si Si6 0.877061 0.464705 0.356778
Si Si7 0.575525 0.817492 0.173040
O O1 0.751132 0.499195 0.500000
O O2 0.756178 0.646077 0.568464
O O3 0.847807 0.544603 0.609616
O O4 0.644601 0.453798 0.606889
O O5 0.200360 0.149883 0.573367
O O6 0.175344 0.243348 0.666570
O O7 0.200634 0.151767 0.759431
O O8 0.240470 0.351289 0.770446
O O9 0.151522 0.546900 0.715402
O O10 0.150547 0.453006 0.816874
O O11 0.181621 0.648488 0.822371
O O12 0.000000 0.500000 0.792233
O O13 0.132881 0.780432 0.113200
O O14 0.969122 0.804996 0.087046
O O15 0.099525 0.830564 0.000000
O O16 0.000000 0.500000 0.361703
#
# Coordination Sequence:
#
# PCOD9581385 Si02
#       7
#    12  12  12  12  12  12  12
#     4  12  25  40  60  84 110 145 191 240 294 360
#     4  10  21  37  57  83 116 153 191 234 291 361
#     4  10  19  33  56  86 118 150 188 241 305 369
#     4  11  23  39  61  87 114 150 196 246 301 355
#     4  10  21  39  65  98 135 171 203 237 282 338
#     4  11  24  42  62  84 112 145 186 242 305 359
#     4  12  23  38  59  87 122 159 204 251 294 342
#
# _framework density 20.910216999999999
#
# number of rings (size 3 to 8) (size 9 to 14) (size 15 to 20)
#    0.000    1.143    0.000    7.429    0.000    9.143 
#    0.000    2.143    0.000    3.429    0.000    0.000 
#    0.000    0.000    0.000    0.000    0.000    0.000 
#
# Total GULP energy -470215.646729 kJ/mol
# GULP energy per Si atom -5597.805318 kJ/mol
# Density = 2.086262 g / cm^3
# Si number density = 20.910217 Si / 1000 Ang^3
#
#
#
# Elastic Constant Matrix: (Units=GPa)
#
#
# Indices 1 2 3 4 5 6 
#
# 1 71.3850 -8.8990 20.7955 0.0000 0.0000 0.0000
# 2 -8.8990 71.3850 20.7955 0.0000 0.0000 0.0000
# 3 20.7955 20.7955 104.5371 0.0000 0.0000 0.0000
# 4 0.0000 0.0000 0.0000 168.2783 0.0000 0.0000
# 5 0.0000 0.0000 0.0000 0.0000 168.2783 0.0000
# 6 0.0000 0.0000 0.0000 0.0000 0.0000 40.1420
#
#
#
# Elastic Compliance Matrix: (Units=1/GPa)
#
#
# Indices 1 2 3 4 5 6 
#
# 1 0.015451 0.002995 -0.003669 0.000000 0.000000 0.000000
# 2 0.002995 0.015451 -0.003669 0.000000 0.000000 0.000000
# 3 -0.003669 -0.003669 0.011026 0.000000 0.000000 0.000000
# 4 0.000000 0.000000 0.000000 0.005943 0.000000 0.000000
# 5 0.000000 0.000000 0.000000 0.000000 0.005943 0.000000
# 6 0.000000 0.000000 0.000000 0.000000 0.000000 0.024912
#
#
# Mechanical properties :
#
#
# Convention : Reuss Voigt Hill
#
# Bulk Modulus (GPa) = 30.08414 34.74343 32.41379
# Shear Modulus (GPa) = 50.76557 89.64737 70.20647
#
# Velocity S-wave (km/s) = 4.93260 6.55481 5.80070
# Velocity P-wave (km/s) = 6.84539 8.59878 7.77169
#
# Compressibility (1/GPa) = 0.03324010
#
# Stress axis : x y z
#
# Youngs Moduli (GPa) = 64.72120 64.72120 90.69553
#
# Poissons Ratio (x) = -0.19385 0.33280
# Poissons Ratio (y) = -0.19385 0.33280
# Poissons Ratio (z) = 0.23749 0.23749
#
# Static dielectric constant tensor:
#      x y z
#    x 1.750430 0.000000 0.000000 
#    y 0.000000 1.750430 0.000000 
#    z 0.000000 0.000000 1.737190 
# 
# From -- ./inp_files/3252.got.cif
#   From: 2010.05.17/outbox.cif.g08.bks.cpg/sg175_2_cif.got.tgz:3252.got - 2010.05.20 11:23:22.
