data_PCOD9581449
_publ_section_title
;
Structure prediction by ZEFSAII (Michael W. Deem and Ramdas Pophale) SiO2 
 PCOD9581449
Probable space group: P 6/M
;
_chemical_formula_sum "Si O2"
_cell_formula_units_Z 72
_cell_length_a 24.614904
_cell_length_b 24.614904
_cell_length_c 8.662648
_cell_angle_alpha 90.000000
_cell_angle_beta 90.000000
_cell_angle_gamma 120.000000
_cell_volume 4545.457400
_symmetry_space_group_name_H-M "P 6/M"
_symmetry_group_IT_number 175
_symmetry_cell_setting 'hexagonal'
loop_
_space_group_symop_operation_xyz
x,y,z
x-y,x,z
-y,x-y,z
-x,-y,z
-x+y,-x,z
y,-x+y,z
-x,-y,-z
-x+y,-x,-z
y,-x+y,-z
x,y,-z
x-y,x,-z
-y,x-y,-z
loop_
_atom_site_type_symbol
_atom_site_label
_atom_site_fract_x
_atom_site_fract_y
_atom_site_fract_z
Si Si1 0.632571 0.814161 0.317654
Si Si2 0.627884 0.932215 0.314517
Si Si3 0.252388 0.506223 0.816667
Si Si4 0.487626 0.632356 0.316514
Si Si5 0.628619 0.699097 0.816624
Si Si6 0.134986 0.622033 0.817096
O O1 0.641868 0.811400 0.500000
O O2 0.654147 0.885383 0.271488
O O3 0.558504 0.779273 0.278600
O O4 0.654904 0.771621 0.230092
O O5 0.622474 0.930911 0.500000
O O6 0.558250 0.904449 0.243503
O O7 0.671559 0.002022 0.254902
O O8 0.213934 0.538726 0.758241
O O9 0.326185 0.534861 0.792365
O O10 0.240499 0.492936 0.000000
O O11 0.491004 0.639227 0.500000
O O12 0.557673 0.659338 0.249933
O O13 0.441447 0.561013 0.267938
O O14 0.625778 0.692885 0.000000
O O15 0.124798 0.611150 0.000000
#
# Coordination Sequence:
#
# PCOD9581449 Si02
#       6
#    12  12  12  12  12  12
#     4   9  17  31  51  71  94 122 151 188 228 272
#     4  10  20  34  52  74  98 125 159 195 236 285
#     4   9  17  31  49  65  84 113 148 188 236 291
#     4  11  21  33  49  67  91 120 155 199 246 295
#     4  11  21  33  51  73  98 127 160 194 233 285
#     4  10  20  34  50  68  91 119 154 198 249 298
#
# _framework density 15.839990999999999
#
# number of rings (size 3 to 8) (size 9 to 14) (size 15 to 20)
#    0.000    2.000    0.000    7.000    0.000    4.667 
#    1.000    3.333    0.000    0.000    0.000    0.000 
#    0.000    0.000    0.000    0.500    0.000    9.667 
#
# Total GULP energy -401400.447111 kJ/mol
# GULP energy per Si atom -5575.006210 kJ/mol
# Density = 1.580394 g / cm^3
# Si number density = 15.839991 Si / 1000 Ang^3
#
#
#
# Elastic Constant Matrix: (Units=GPa)
#
#
# Indices 1 2 3 4 5 6 
#
# 1 71.8020 45.0816 22.5910 0.0000 0.0000 0.0000
# 2 45.0816 71.8020 22.5910 0.0000 0.0000 0.0000
# 3 22.5910 22.5910 62.9355 0.0000 0.0000 0.0000
# 4 0.0000 0.0000 0.0000 19.5082 0.0000 0.0000
# 5 0.0000 0.0000 0.0000 0.0000 19.5082 0.0000
# 6 0.0000 0.0000 0.0000 0.0000 0.0000 13.3602
#
#
#
# Elastic Compliance Matrix: (Units=1/GPa)
#
#
# Indices 1 2 3 4 5 6 
#
# 1 0.023679 -0.013745 -0.003566 0.000000 0.000000 0.000000
# 2 -0.013745 0.023679 -0.003566 0.000000 0.000000 0.000000
# 3 -0.003566 -0.003566 0.018449 0.000000 0.000000 0.000000
# 4 0.000000 0.000000 0.000000 0.051261 0.000000 0.000000
# 5 0.000000 0.000000 0.000000 0.000000 0.051261 0.000000
# 6 0.000000 0.000000 0.000000 0.000000 0.000000 0.074849
#
#
# Mechanical properties :
#
#
# Convention : Reuss Voigt Hill
#
# Bulk Modulus (GPa) = 41.57357 43.00740 42.29049
# Shear Modulus (GPa) = 17.06775 18.22703 17.64739
#
# Velocity S-wave (km/s) = 3.28611 3.39587 3.34144
# Velocity P-wave (km/s) = 6.37973 6.52580 6.45318
#
# Compressibility (1/GPa) = 0.02405374
#
# Stress axis : x y z
#
# Youngs Moduli (GPa) = 42.23101 42.23101 54.20286
#
# Poissons Ratio (x) = 0.58048 0.19328
# Poissons Ratio (y) = 0.58048 0.19328
# Poissons Ratio (z) = 0.15059 0.15059
#
# Static dielectric constant tensor:
#      x y z
#    x 1.540960 0.000000 0.000000 
#    y 0.000000 1.540960 0.000000 
#    z 0.000000 0.000000 1.525140 
# 
# From -- ./inp_files/1192.got.cif
#   From: 2010.05.17/outbox.cif.g08.bks.cpg/sg175_1_cif.got.tgz:1192.got - 2010.05.20 11:23:22.
