data_PCOD9581770
_publ_section_title
;
Structure prediction by ZEFSAII (Michael W. Deem and Ramdas Pophale) SiO2 
 PCOD9581770
Probable space group: P 63/M
;
_chemical_formula_sum "Si O2"
_cell_formula_units_Z 58
_cell_length_a 16.497647
_cell_length_b 16.497647
_cell_length_c 13.030555
_cell_angle_alpha 90.000000
_cell_angle_beta 90.000000
_cell_angle_gamma 120.000000
_cell_volume 3071.408338
_symmetry_space_group_name_H-M "P 63/M"
_symmetry_group_IT_number 176
_symmetry_cell_setting 'hexagonal'
loop_
_space_group_symop_operation_xyz
x,y,z
x-y,x,1/2+z
-y,x-y,z
-x,-y,1/2+z
-x+y,-x,z
y,-x+y,1/2+z
-x,-y,-z
-x+y,-x,1/2-z
y,-x+y,-z
x,y,1/2-z
x-y,x,-z
-y,x-y,1/2-z
loop_
_atom_site_type_symbol
_atom_site_label
_atom_site_fract_x
_atom_site_fract_y
_atom_site_fract_z
Si Si1 0.967882 0.321534 0.873431
Si Si2 0.131184 0.191484 0.047668
Si Si3 0.333334 0.666668 0.129912
Si Si4 0.355303 0.522579 0.995930
Si Si5 0.039421 0.119540 0.250000
Si Si6 0.694920 0.176759 0.129637
O O1 0.943128 0.309759 0.750000
O O2 0.934107 0.223695 0.932370
O O3 0.080118 0.384247 0.877810
O O4 0.923207 0.370965 0.941796
O O5 0.069738 0.178461 0.148725
O O6 0.166312 0.115807 0.036770
O O7 0.333334 0.666668 0.250000
O O8 0.334674 0.577846 0.083997
O O9 0.263554 0.479185 0.923204
O O10 0.440561 0.601241 0.928794
O O11 0.098835 0.064964 0.250000
O O12 0.690175 0.196835 0.250000
#
# Coordination Sequence:
#
# PCOD9581770 Si02
#       6
#    12  12   4  12   6  12
#     4  11  23  36  54  83 119 147 179 232 293 342
#     4  12  21  35  57  79 110 154 195 241 284 340
#     4   9  18  33  58  80 103 138 186 222 268 338
#     4  10  20  37  59  83 110 145 186 230 279 334
#     4  10  18  34  54  80 102 138 210 242 276 332
#     4  10  21  38  61  85 109 146 190 232 276 335
#
# _framework density 18.883845000000001
#
# number of rings (size 3 to 8) (size 9 to 14) (size 15 to 20)
#    0.207    1.241    3.103    3.724    0.000    0.000 
#    0.000    0.000    2.276    6.207    0.000    0.000 
#    0.000    0.000    0.000    0.000    0.000    0.000 
#
# Total GULP energy -322909.913126 kJ/mol
# GULP energy per Si atom -5567.412295 kJ/mol
# Density = 1.884086 g / cm^3
# Si number density = 18.883845 Si / 1000 Ang^3
#
#
#
# Elastic Constant Matrix: (Units=GPa)
#
#
# Indices 1 2 3 4 5 6 
#
# 1 30.6950 -8.3477 11.5450 0.0000 0.0000 0.0019
# 2 -8.3477 30.6950 11.5461 0.0000 0.0000 -0.0020
# 3 11.5450 11.5461 116.3935 0.0000 0.0000 0.0008
# 4 0.0000 0.0000 0.0000 17.1768 0.0001 0.0000
# 5 0.0000 0.0000 0.0000 0.0001 17.1767 0.0000
# 6 0.0019 -0.0020 0.0008 0.0000 0.0000 19.5203
#
#
#
# Elastic Compliance Matrix: (Units=1/GPa)
#
#
# Indices 1 2 3 4 5 6 
#
# 1 0.037735 0.012123 -0.004946 0.000000 0.000000 -0.000002
# 2 0.012123 0.037736 -0.004946 0.000000 0.000000 0.000003
# 3 -0.004946 -0.004946 0.009573 0.000000 0.000000 0.000000
# 4 0.000000 0.000000 0.000000 0.058218 0.000000 0.000000
# 5 0.000000 0.000000 0.000000 0.000000 0.058218 0.000000
# 6 -0.000002 0.000003 0.000000 0.000000 0.000000 0.051229
#
#
# Mechanical properties :
#
#
# Convention : Reuss Voigt Hill
#
# Bulk Modulus (GPa) = 11.17235 23.03004 17.10119
# Shear Modulus (GPa) = 17.98030 21.64410 19.81220
#
# Velocity S-wave (km/s) = 3.08904 3.38919 3.24259
# Velocity P-wave (km/s) = 4.31881 5.24762 4.80571
#
# Compressibility (1/GPa) = 0.08950672
#
# Stress axis : x y z
#
# Youngs Moduli (GPa) = 26.50025 26.50001 104.46362
#
# Poissons Ratio (x) = -0.32125 0.51663
# Poissons Ratio (y) = -0.32125 0.51666
# Poissons Ratio (z) = 0.13106 0.13106
#
# Static dielectric constant tensor:
#      x y z
#    x 1.664610 0.000000 0.000000 
#    y 0.000000 1.664610 0.000000 
#    z 0.000000 0.000000 1.657500 
# 
# From -- ./inp_files/2688.got.cif
#   From: 2010.05.17/outbox.cif.g08.bks.cpg/sg176_2_cif.got.tgz:2688.got - 2010.06.03 11:36:45.
