data_PCOD9581894
_publ_section_title
;
Structure prediction by ZEFSAII (Michael W. Deem and Ramdas Pophale) SiO2 
 PCOD9581894
Probable space group: P 63/M
;
_chemical_formula_sum "Si O2"
_cell_formula_units_Z 72
_cell_length_a 12.726254
_cell_length_b 12.726254
_cell_length_c 32.243669
_cell_angle_alpha 90.000000
_cell_angle_beta 90.000000
_cell_angle_gamma 120.000000
_cell_volume 4522.475886
_symmetry_space_group_name_H-M "P 63/M"
_symmetry_group_IT_number 176
_symmetry_cell_setting 'hexagonal'
loop_
_space_group_symop_operation_xyz
x,y,z
x-y,x,1/2+z
-y,x-y,z
-x,-y,1/2+z
-x+y,-x,z
y,-x+y,1/2+z
-x,-y,-z
-x+y,-x,1/2-z
y,-x+y,-z
x,y,1/2-z
x-y,x,-z
-y,x-y,1/2-z
loop_
_atom_site_type_symbol
_atom_site_label
_atom_site_fract_x
_atom_site_fract_y
_atom_site_fract_z
Si Si1 0.083370 0.666477 0.250000
Si Si2 0.749652 0.749652 0.500000
Si Si3 0.000098 0.251632 0.909206
Si Si4 0.917105 0.333696 0.170090
Si Si5 0.333696 0.917105 0.670090
Si Si6 0.748368 0.999902 0.909206
Si Si7 0.333523 0.916630 0.250000
O O1 0.205744 0.794256 0.250000
O O2 0.111403 0.555701 0.250000
O O3 0.003260 0.648940 0.209277
O O4 0.763313 0.881657 0.498491
O O5 0.693585 0.696299 0.544966
O O6 0.696299 0.693585 0.455034
O O7 0.021959 0.342570 0.871860
O O8 0.113073 0.226147 0.908202
O O9 0.873688 0.126312 0.904361
O O10 0.789013 0.210987 0.175305
O O11 0.898402 0.449201 0.167755
O O12 0.978041 0.320611 0.128140
O O13 0.003260 0.354320 0.209277
#
# Coordination Sequence:
#
# PCOD9581894 Si02
#       7
#     6  12  12  12  12  12   6
#     4  10  20  34  52  72  92 114 142 180 226 272
#     4   8  13  22  39  64  92 120 150 186 232 284
#     4   9  16  27  45  69  95 121 151 191 239 286
#     4  10  20  33  49  68  92 124 159 191 221 259
#     4  10  20  33  49  68  92 124 159 191 221 259
#     4   9  16  27  45  69  95 121 151 191 239 286
#     4  10  20  34  52  72  92 114 142 180 226 272
#
# _framework density 15.920482
#
# number of rings (size 3 to 8) (size 9 to 14) (size 15 to 20)
#    0.000    2.667    0.000    2.500    0.000    2.667 
#    0.000    2.500    0.000    5.333    0.000    0.000 
#    0.000    0.000    0.000    0.000    0.000    0.000 
#
# Total GULP energy -400912.929550 kJ/mol
# GULP energy per Si atom -5568.235133 kJ/mol
# Density = 1.588425 g / cm^3
# Si number density = 15.920482 Si / 1000 Ang^3
#
#
#
# Elastic Constant Matrix: (Units=GPa)
#
#
# Indices 1 2 3 4 5 6 
#
# 1 27.7558 96.3102 73.3196 0.0000 0.0000 0.0000
# 2 96.3102 27.7558 73.3196 0.0000 0.0000 0.0000
# 3 73.3196 73.3196 191.9723 0.0000 0.0000 0.0000
# 4 0.0000 0.0000 0.0000 20.6662 0.0000 0.0000
# 5 0.0000 0.0000 0.0000 0.0000 20.6662 0.0000
# 6 0.0000 0.0000 0.0000 0.0000 0.0000 -34.2772
#
#
#
# Elastic Compliance Matrix: (Units=1/GPa)
#
#
# Indices 1 2 3 4 5 6 
#
# 1 0.000053 0.014640 -0.005612 0.000000 0.000000 0.000000
# 2 0.014640 0.000053 -0.005612 0.000000 0.000000 0.000000
# 3 -0.005612 -0.005612 0.009496 0.000000 0.000000 0.000000
# 4 0.000000 0.000000 0.000000 0.048388 0.000000 0.000000
# 5 0.000000 0.000000 0.000000 0.000000 0.048388 0.000000
# 6 0.000000 0.000000 0.000000 0.000000 0.000000 -0.029174
#
#
# Mechanical properties :
#
#
# Convention : Reuss Voigt Hill
#
# Bulk Modulus (GPa) = 60.84653 81.48695 71.16674
# Shear Modulus (GPa) = 65.92080 1.71337 33.81708
#
# Velocity S-wave (km/s) = 6.44175 1.03853 4.61382
# Velocity P-wave (km/s) = 9.67627 7.26174 8.55462
#
# Compressibility (1/GPa) = 0.01643479
#
# Stress axis : x y z
#
# Youngs Moduli (GPa) = 18894.17676 18894.17016 105.31266
#
# Poissons Ratio (x) = -276.60868 0.59097
# Poissons Ratio (y) = -276.60878 0.59097
# Poissons Ratio (z) = 106.02651 106.02647
#
# Static dielectric constant tensor:
#      x y z
#    x 1.496400 0.000000 0.000000 
#    y 0.000000 1.496400 0.000000 
#    z 0.000000 0.000000 1.570890 
# 
# From -- ./inp_files/4522.got.cif
#   From: 2010.05.17/outbox.cif.g08.bks.cpg/sg176_3_cif.got.tgz:4522.got - 2010.06.03 11:36:45.
