data_PCOD9581249
_publ_section_title
;
Structure prediction by ZEFSAII (Michael W. Deem and Ramdas Pophale) SiO2 
 PCOD9581249
Probable space group: P 6/M
;
_chemical_formula_sum "Si O2"
_cell_formula_units_Z 72
_cell_length_a 24.661610
_cell_length_b 24.661610
_cell_length_c 7.782080
_cell_angle_alpha 90.000000
_cell_angle_beta 90.000000
_cell_angle_gamma 120.000000
_cell_volume 4098.917467
_symmetry_space_group_name_H-M "P 6/M"
_symmetry_group_IT_number 175
_symmetry_cell_setting 'hexagonal'
loop_
_space_group_symop_operation_xyz
x,y,z
x-y,x,z
-y,x-y,z
-x,-y,z
-x+y,-x,z
y,-x+y,z
-x,-y,-z
-x+y,-x,-z
y,-x+y,-z
x,y,-z
x-y,x,-z
-y,x-y,-z
loop_
_atom_site_type_symbol
_atom_site_label
_atom_site_fract_x
_atom_site_fract_y
_atom_site_fract_z
Si Si1 0.527058 0.597448 0.709737
Si Si2 0.596403 0.523015 0.292867
Si Si3 0.067337 0.803187 0.211372
Si Si4 0.593129 0.854056 0.797087
Si Si5 0.862278 0.600513 0.298994
Si Si6 0.072654 0.256879 0.200210
O O1 0.525699 0.597085 0.500000
O O2 0.457297 0.545742 0.766026
O O3 0.573035 0.571215 0.762067
O O4 0.554104 0.668506 0.767125
O O5 0.595772 0.522679 0.500000
O O6 0.666607 0.546341 0.236847
O O7 0.095281 0.758669 0.264333
O O8 0.118001 0.873028 0.270901
O O9 0.997102 0.778102 0.274123
O O10 0.066507 0.802703 0.000000
O O11 0.575807 0.787107 0.719829
O O12 0.597613 0.847465 0.000000
O O13 0.878428 0.611601 0.500000
O O14 0.898812 0.668436 0.211723
O O15 0.066320 0.239298 0.000000
#
# Coordination Sequence:
#
# PCOD9581249 Si02
#       6
#    12  12  12  12  12  12
#     4   8  16  29  47  69  92 115 144 179 221 265
#     4   9  16  30  49  68  90 117 144 179 221 264
#     4   8  15  26  42  60  84 115 145 175 215 260
#     4  10  19  30  43  65  92 119 148 181 218 259
#     4  10  18  29  45  66  88 115 146 178 215 261
#     4   9  16  28  43  62  86 115 146 180 219 261
#
# _framework density 17.565614
#
# number of rings (size 3 to 8) (size 9 to 14) (size 15 to 20)
#    0.000    3.000    0.000    4.000    0.000    0.000 
#    0.000    7.500    0.000    1.000    0.000    4.667 
#    0.000    0.000    0.000    6.000    0.000    6.667 
#
# Total GULP energy -401221.027888 kJ/mol
# GULP energy per Si atom -5572.514276 kJ/mol
# Density = 1.752563 g / cm^3
# Si number density = 17.565614 Si / 1000 Ang^3
#
#
#
# Elastic Constant Matrix: (Units=GPa)
#
#
# Indices 1 2 3 4 5 6 
#
# 1 131.0306 79.2283 -4.7719 0.0000 0.0000 0.0000
# 2 79.2283 131.0306 -4.7719 0.0000 0.0000 0.0000
# 3 -4.7719 -4.7719 20.9717 0.0000 0.0000 0.0000
# 4 0.0000 0.0000 0.0000 9.5212 0.0000 0.0000
# 5 0.0000 0.0000 0.0000 0.0000 9.5212 0.0000
# 6 0.0000 0.0000 0.0000 0.0000 0.0000 25.9011
#
#
#
# Elastic Compliance Matrix: (Units=1/GPa)
#
#
# Indices 1 2 3 4 5 6 
#
# 1 0.012055 -0.007249 0.001093 0.000000 0.000000 0.000000
# 2 -0.007249 0.012055 0.001093 0.000000 0.000000 0.000000
# 3 0.001093 0.001093 0.048181 0.000000 0.000000 0.000000
# 4 0.000000 0.000000 0.000000 0.105028 0.000000 0.000000
# 5 0.000000 0.000000 0.000000 0.000000 0.105028 0.000000
# 6 0.000000 0.000000 0.000000 0.000000 0.000000 0.038608
#
#
# Mechanical properties :
#
#
# Convention : Reuss Voigt Hill
#
# Bulk Modulus (GPa) = 16.08587 46.93353 31.50970
# Shear Modulus (GPa) = 14.21252 23.21194 18.71223
#
# Velocity S-wave (km/s) = 2.84757 3.63911 3.26740
# Velocity P-wave (km/s) = 4.47091 6.66592 5.67554
#
# Compressibility (1/GPa) = 0.06216634
#
# Stress axis : x y z
#
# Youngs Moduli (GPa) = 82.95360 82.95360 20.75506
#
# Poissons Ratio (x) = 0.60135 -0.02270
# Poissons Ratio (y) = 0.60135 -0.02270
# Poissons Ratio (z) = -0.09071 -0.09071
#
# Static dielectric constant tensor:
#      x y z
#    x 1.596290 0.000000 0.000000 
#    y 0.000000 1.596290 0.000000 
#    z 0.000000 0.000000 1.665370 
# 
# From -- ./inp_files/1167.got.cif
#   From: 2010.05.17/outbox.cif.g08.bks.cpg/sg175_1_cif.got.tgz:1167.got - 2010.05.20 11:23:22.
