data_PCOD9581110
_publ_section_title
;
Structure prediction by ZEFSAII (Michael W. Deem and Ramdas Pophale) SiO2 
 PCOD9581110
Probable space group: P 63
;
_chemical_formula_sum "Si O2"
_cell_formula_units_Z 34
_cell_length_a 11.025716
_cell_length_b 11.025716
_cell_length_c 14.613318
_cell_angle_alpha 90.000000
_cell_angle_beta 90.000000
_cell_angle_gamma 120.000000
_cell_volume 1538.484306
_symmetry_space_group_name_H-M "P 63"
_symmetry_group_IT_number 173
_symmetry_cell_setting 'hexagonal'
loop_
_space_group_symop_operation_xyz
x,y,z
x-y,x,1/2+z
-y,x-y,z
-x,-y,1/2+z
-x+y,-x,z
y,-x+y,1/2+z
loop_
_atom_site_type_symbol
_atom_site_label
_atom_site_fract_x
_atom_site_fract_y
_atom_site_fract_z
Si Si1 0.634521 0.550717 0.595960
Si Si2 0.000000 0.000000 0.361580
Si Si3 0.325616 0.160766 0.130232
Si Si4 0.000000 0.000000 0.582781
Si Si5 0.836946 0.373042 0.798594
Si Si6 0.923554 0.695174 0.329490
Si Si7 0.302306 0.908713 0.023697
O O1 0.608019 0.680516 0.594604
O O2 0.594617 0.469341 0.691768
O O3 0.548682 0.435337 0.519793
O O4 0.799360 0.610608 0.593159
O O5 0.000000 0.000000 0.472108
O O6 0.136136 0.140465 0.327505
O O7 0.158357 0.086349 0.117280
O O8 0.354868 0.179083 0.240028
O O9 0.360972 0.062967 0.067208
O O10 0.777522 0.476481 0.822810
O O11 0.970142 0.365783 0.832221
O O12 0.865346 0.654391 0.431404
#
# Coordination Sequence:
#
# PCOD9581110 Si02
#       7
#     6   2   6   2   6   6   6
#     4  11  22  42  70  92 125 185 223 269 339 411
#     4  12  22  38  61 100 134 169 226 266 352 400
#     4  11  23  42  67 100 130 175 227 280 346 403
#     4  12  19  44  70  91 137 175 217 290 337 397
#     4   9  19  41  66  92 124 169 231 260 327 412
#     4  11  25  38  66 105 132 173 222 291 338 403
#     4  12  24  45  68  96 136 176 226 284 341 414
#
# _framework density 22.099674
#
# number of rings (size 3 to 8) (size 9 to 14) (size 15 to 20)
#    0.353    0.706    5.294    1.412    2.471    1.412 
#    7.412    0.000    0.000    0.000    0.000    0.000 
#    0.000    0.000    0.000    0.000    0.000    0.000 
#
# Total GULP energy -189365.143386 kJ/mol
# GULP energy per Si atom -5569.563041 kJ/mol
# Density = 2.204937 g / cm^3
# Si number density = 22.099674 Si / 1000 Ang^3
#
#
#
# Elastic Constant Matrix: (Units=GPa)
#
#
# Indices 1 2 3 4 5 6 
#
# 1 47.0349 -5.0542 -5.0788 0.0000 0.0000 0.0000
# 2 -5.0542 47.0349 -5.0788 0.0000 0.0000 0.0000
# 3 -5.0788 -5.0788 62.0370 0.0000 0.0000 0.0000
# 4 0.0000 0.0000 0.0000 13.8004 0.0000 0.0000
# 5 0.0000 0.0000 0.0000 0.0000 13.8004 0.0000
# 6 0.0000 0.0000 0.0000 0.0000 0.0000 26.0445
#
#
#
# Elastic Compliance Matrix: (Units=1/GPa)
#
#
# Indices 1 2 3 4 5 6 
#
# 1 0.021750 0.002552 0.001990 0.000000 0.000000 0.000000
# 2 0.002552 0.021750 0.001990 0.000000 0.000000 0.000000
# 3 0.001990 0.001990 0.016445 0.000000 0.000000 0.000000
# 4 0.000000 0.000000 0.000000 0.072462 0.000000 0.000000
# 5 0.000000 0.000000 0.000000 0.000000 0.072462 0.000000
# 6 0.000000 0.000000 0.000000 0.000000 0.000000 0.038396
#
#
# Mechanical properties :
#
#
# Convention : Reuss Voigt Hill
#
# Bulk Modulus (GPa) = 13.69732 13.96480 13.83106
# Shear Modulus (GPa) = 19.64348 22.15031 20.89690
#
# Velocity S-wave (km/s) = 2.98461 3.16933 3.07836
# Velocity P-wave (km/s) = 4.25307 4.44135 4.34823
#
# Compressibility (1/GPa) = 0.07300697
#
# Stress axis : x y z
#
# Youngs Moduli (GPa) = 45.97729 45.97729 60.80810
#
# Poissons Ratio (x) = -0.11733 -0.12098
# Poissons Ratio (y) = -0.11733 -0.12098
# Poissons Ratio (z) = -0.09147 -0.09147
#
# Static dielectric constant tensor:
#      x y z
#    x 1.811060 0.000000 0.000000 
#    y 0.000000 1.811060 0.000000 
#    z 0.000000 0.000000 1.915840 
# 
# From -- ./inp_files/1095.got.cif
#   From: 2010.05.17/outbox.cif.g08.bks.cpg/sg173_cif.got.tgz:1095.got - 2010.05.20 11:21:53.
