data_PCOD9581926
_publ_section_title
;
Structure prediction by ZEFSAII (Michael W. Deem and Ramdas Pophale) SiO2 
 PCOD9581926
Probable space group: P 63/M
;
_chemical_formula_sum "Si O2"
_cell_formula_units_Z 44
_cell_length_a 12.874517
_cell_length_b 12.874517
_cell_length_c 16.172618
_cell_angle_alpha 90.000000
_cell_angle_beta 90.000000
_cell_angle_gamma 120.000000
_cell_volume 2321.522250
_symmetry_space_group_name_H-M "P 63/M"
_symmetry_group_IT_number 176
_symmetry_cell_setting 'hexagonal'
loop_
_space_group_symop_operation_xyz
x,y,z
x-y,x,1/2+z
-y,x-y,z
-x,-y,1/2+z
-x+y,-x,z
y,-x+y,1/2+z
-x,-y,-z
-x+y,-x,1/2-z
y,-x+y,-z
x,y,1/2-z
x-y,x,-z
-y,x-y,1/2-z
loop_
_atom_site_type_symbol
_atom_site_label
_atom_site_fract_x
_atom_site_fract_y
_atom_site_fract_z
Si Si1 0.262089 0.165157 0.019406
Si Si2 0.866302 0.274666 0.154612
Si Si3 0.919718 0.524167 0.567155
Si Si4 0.666666 0.333333 0.350723
Si Si5 0.666668 0.333335 0.853367
O O1 0.302327 0.132903 0.104403
O O2 0.165628 0.207367 0.031245
O O3 0.380466 0.270451 0.976057
O O4 0.846060 0.245324 0.250000
O O5 0.758215 0.291749 0.121176
O O6 0.987058 0.399304 0.139377
O O7 0.801017 0.413764 0.607214
O O8 0.000000 0.500000 0.500000
O O9 0.666667 0.333334 0.250000
O O10 0.666667 0.333334 0.750000
#
# Coordination Sequence:
#
# PCOD9581926 Si02
#       5
#    12  12  12   4   4
#     4  10  21  38  59  82 112 151 191 236 288 351
#     4  10  20  36  56  84 114 147 190 240 288 344
#     4  11  23  39  60  86 119 158 199 244 304 371
#     4   9  18  31  53  79 108 141 181 230 280 328
#     4  12  24  40  62  91 124 161 205 264 321 370
#
# _framework density 18.953081000000001
#
# number of rings (size 3 to 8) (size 9 to 14) (size 15 to 20)
#    0.000    1.636    0.000    6.000    0.000    2.182 
#    0.000   13.636    0.000    0.000    0.000    0.000 
#    0.000    0.000    0.000    0.000    0.000    0.000 
#
# Total GULP energy -245423.637415 kJ/mol
# GULP energy per Si atom -5577.809941 kJ/mol
# Density = 1.890994 g / cm^3
# Si number density = 18.953081 Si / 1000 Ang^3
#
#
#
# Elastic Constant Matrix: (Units=GPa)
#
#
# Indices 1 2 3 4 5 6 
#
# 1 127.8778 52.5356 40.3584 0.0000 0.0000 0.0003
# 2 52.5356 127.8764 40.3583 0.0000 0.0000 0.0003
# 3 40.3584 40.3583 63.5947 0.0000 0.0000 0.0001
# 4 0.0000 0.0000 0.0000 25.1915 0.0001 0.0000
# 5 0.0000 0.0000 0.0000 0.0001 25.1915 0.0000
# 6 0.0003 0.0003 0.0001 0.0000 0.0000 37.6711
#
#
#
# Elastic Compliance Matrix: (Units=1/GPa)
#
#
# Indices 1 2 3 4 5 6 
#
# 1 0.010507 -0.002766 -0.004912 0.000000 0.000000 0.000000
# 2 -0.002766 0.010507 -0.004912 0.000000 0.000000 0.000000
# 3 -0.004912 -0.004912 0.021959 0.000000 0.000000 0.000000
# 4 0.000000 0.000000 0.000000 0.039696 0.000000 0.000000
# 5 0.000000 0.000000 0.000000 0.000000 0.039696 0.000000
# 6 0.000000 0.000000 0.000000 0.000000 0.000000 0.026546
#
#
# Mechanical properties :
#
#
# Convention : Reuss Voigt Hill
#
# Bulk Modulus (GPa) = 56.20697 65.09483 60.65090
# Shear Modulus (GPa) = 27.77430 30.01726 28.89578
#
# Velocity S-wave (km/s) = 3.83224 3.98397 3.90884
# Velocity P-wave (km/s) = 7.02151 7.45537 7.24169
#
# Compressibility (1/GPa) = 0.01779139
#
# Stress axis : x y z
#
# Youngs Moduli (GPa) = 95.17737 95.17622 45.53839
#
# Poissons Ratio (x) = 0.26327 0.22370
# Poissons Ratio (y) = 0.26327 0.22370
# Poissons Ratio (z) = 0.46754 0.46754
#
# Static dielectric constant tensor:
#      x y z
#    x 1.676530 0.000000 0.000000 
#    y 0.000000 1.676530 0.000000 
#    z 0.000000 0.000000 1.653700 
# 
# From -- ./inp_files/3184.got.cif
#   From: 2010.05.17/outbox.cif.g08.bks.cpg/sg176_2_cif.got.tgz:3184.got - 2010.06.03 11:36:45.
