data_PCOD9581041
_publ_section_title
;
Structure prediction by ZEFSAII (Michael W. Deem and Ramdas Pophale) SiO2 
 PCOD9581041
Probable space group: P 63
;
_chemical_formula_sum "Si O2"
_cell_formula_units_Z 28
_cell_length_a 9.201322
_cell_length_b 9.201322
_cell_length_c 14.545525
_cell_angle_alpha 90.000000
_cell_angle_beta 90.000000
_cell_angle_gamma 120.000000
_cell_volume 1066.499094
_symmetry_space_group_name_H-M "P 63"
_symmetry_group_IT_number 173
_symmetry_cell_setting 'hexagonal'
loop_
_space_group_symop_operation_xyz
x,y,z
x-y,x,1/2+z
-y,x-y,z
-x,-y,1/2+z
-x+y,-x,z
y,-x+y,1/2+z
loop_
_atom_site_type_symbol
_atom_site_label
_atom_site_fract_x
_atom_site_fract_y
_atom_site_fract_z
Si Si1 0.147822 0.476253 0.907830
Si Si2 0.632312 0.806178 0.390171
Si Si3 0.388254 0.870040 0.211048
Si Si4 0.000000 0.000000 0.640097
Si Si5 0.072976 0.713446 0.573046
Si Si6 0.000000 0.000000 0.359747
O O1 0.336461 0.514331 0.893390
O O2 0.990514 0.326645 0.855134
O O3 0.086271 0.417311 0.011554
O O4 0.564627 0.783481 0.494590
O O5 0.824164 0.850673 0.395335
O O6 0.521705 0.664145 0.318308
O O7 0.203482 0.711296 0.182399
O O8 0.441299 0.046858 0.164604
O O9 0.131041 0.184698 0.604656
O O10 0.000000 0.000000 0.750219
#
# Coordination Sequence:
#
# PCOD9581041 Si02
#       6
#     6   6   6   2   6   2
#     4   8  18  36  60  91 118 166 219 257 333 406
#     4  10  22  37  63  89 126 168 218 279 329 407
#     4  10  22  40  64  95 133 171 221 279 345 410
#     4  12  22  38  61  94 125 178 229 269 349 376
#     4  10  20  38  61  87 130 171 219 276 332 408
#     4  12  22  41  55  94 128 166 220 284 334 385
#
# _framework density 26.254124999999998
#
# number of rings (size 3 to 8) (size 9 to 14) (size 15 to 20)
#    2.143    0.000    2.143    2.571    0.000    1.714 
#    0.000    0.000    0.000    0.000    0.000    0.000 
#    0.000    0.000    0.000    0.000    0.000    0.000 
#
# Total GULP energy -155973.801027 kJ/mol
# GULP energy per Si atom -5570.492894 kJ/mol
# Density = 2.619437 g / cm^3
# Si number density = 26.254125 Si / 1000 Ang^3
#
#
#
# Elastic Constant Matrix: (Units=GPa)
#
#
# Indices 1 2 3 4 5 6 
#
# 1 65.7849 8.2308 19.5667 0.0000 0.0000 0.0000
# 2 8.2308 65.7849 19.5667 0.0000 0.0000 0.0000
# 3 19.5667 19.5667 140.4329 0.0000 0.0000 0.0000
# 4 0.0000 0.0000 0.0000 29.9136 0.0000 0.0000
# 5 0.0000 0.0000 0.0000 0.0000 29.9136 0.0000
# 6 0.0000 0.0000 0.0000 0.0000 0.0000 28.7770
#
#
#
# Elastic Compliance Matrix: (Units=1/GPa)
#
#
# Indices 1 2 3 4 5 6 
#
# 1 0.015980 -0.001395 -0.002032 0.000000 0.000000 0.000000
# 2 -0.001395 0.015980 -0.002032 0.000000 0.000000 0.000000
# 3 -0.002032 -0.002032 0.007687 0.000000 0.000000 0.000000
# 4 0.000000 0.000000 0.000000 0.033430 0.000000 0.000000
# 5 0.000000 0.000000 0.000000 0.000000 0.033430 0.000000
# 6 0.000000 0.000000 0.000000 0.000000 0.000000 0.034750
#
#
# Mechanical properties :
#
#
# Convention : Reuss Voigt Hill
#
# Bulk Modulus (GPa) = 34.80843 40.74789 37.77816
# Shear Modulus (GPa) = 30.91171 32.69676 31.80423
#
# Velocity S-wave (km/s) = 3.43505 3.53284 3.48429
# Velocity P-wave (km/s) = 5.38701 5.67411 5.53242
#
# Compressibility (1/GPa) = 0.02872867
#
# Stress axis : x y z
#
# Youngs Moduli (GPa) = 62.57810 62.57810 130.08766
#
# Poissons Ratio (x) = 0.08729 0.26436
# Poissons Ratio (y) = 0.08729 0.26436
# Poissons Ratio (z) = 0.12717 0.12717
#
# Static dielectric constant tensor:
#      x y z
#    x 2.071560 0.000000 0.000000 
#    y 0.000000 2.071560 0.000000 
#    z 0.000000 0.000000 2.206880 
# 
# From -- ./inp_files/994.got.cif
#   From: 2010.05.17/outbox.cif.g08.bks.cpg/sg173_cif.got.tgz:994.got - 2010.05.20 11:21:53.
