data_PCOD9581997
_publ_section_title
;
Structure prediction by ZEFSAII (Michael W. Deem and Ramdas Pophale) SiO2 
 PCOD9581997
Probable space group: P 63/M
;
_chemical_formula_sum "Si O2"
_cell_formula_units_Z 66
_cell_length_a 20.841581
_cell_length_b 20.841581
_cell_length_c 7.573024
_cell_angle_alpha 90.000000
_cell_angle_beta 90.000000
_cell_angle_gamma 120.000000
_cell_volume 2848.795575
_symmetry_space_group_name_H-M "P 63/M"
_symmetry_group_IT_number 176
_symmetry_cell_setting 'hexagonal'
loop_
_space_group_symop_operation_xyz
x,y,z
x-y,x,1/2+z
-y,x-y,z
-x,-y,1/2+z
-x+y,-x,z
y,-x+y,1/2+z
-x,-y,-z
-x+y,-x,1/2-z
y,-x+y,-z
x,y,1/2-z
x-y,x,-z
-y,x-y,1/2-z
loop_
_atom_site_type_symbol
_atom_site_label
_atom_site_fract_x
_atom_site_fract_y
_atom_site_fract_z
Si Si1 0.088455 0.917269 0.954614
Si Si2 0.027829 0.378969 0.538156
Si Si3 0.666254 0.249632 0.750000
Si Si4 0.456469 0.594999 0.961143
Si Si5 0.848165 0.662344 0.466011
Si Si6 0.135956 0.689494 0.948977
O O1 0.109669 0.930513 0.750000
O O2 0.124117 0.868858 0.025241
O O3 0.999628 0.874086 0.966511
O O4 0.016534 0.370528 0.750000
O O5 0.065588 0.466151 0.496433
O O6 0.085113 0.351905 0.489056
O O7 0.949695 0.332664 0.446912
O O8 0.734446 0.331820 0.750000
O O9 0.658595 0.204748 0.573907
O O10 0.455560 0.605935 0.750000
O O11 0.384364 0.518378 0.016806
O O12 0.841692 0.660076 0.250000
O O13 0.770440 0.595210 0.534610
O O14 0.166215 0.698145 0.750000
#
# Coordination Sequence:
#
# PCOD9581997 Si02
#       6
#    12  12   6  12  12  12
#     4  11  22  38  60  84 117 154 196 247 299 363
#     4  10  21  38  61  90 120 163 206 253 312 371
#     4  10  26  42  62  98 130 154 218 262 304 376
#     4  10  23  41  66  91 129 171 205 258 321 372
#     4   9  20  37  59  86 122 155 202 252 307 370
#     4  10  21  38  61  90 120 163 206 253 312 371
#
# _framework density 23.167684999999999
#
# number of rings (size 3 to 8) (size 9 to 14) (size 15 to 20)
#    0.182    1.818    0.000    2.364    5.091    0.727 
#    0.000    2.727    0.000    0.000    0.000    0.000 
#    0.000    0.000    0.000    0.000    0.000    0.000 
#
# Total GULP energy -368749.736751 kJ/mol
# GULP energy per Si atom -5587.117223 kJ/mol
# Density = 2.311495 g / cm^3
# Si number density = 23.167685 Si / 1000 Ang^3
#
#
#
# Elastic Constant Matrix: (Units=GPa)
#
#
# Indices 1 2 3 4 5 6 
#
# 1 98.2653 17.7289 5.2824 0.0000 0.0000 0.0000
# 2 17.7289 98.2653 5.2824 0.0000 0.0000 0.0000
# 3 5.2824 5.2824 44.4144 0.0000 0.0000 0.0000
# 4 0.0000 0.0000 0.0000 41.2293 0.0000 0.0000
# 5 0.0000 0.0000 0.0000 0.0000 41.2293 0.0000
# 6 0.0000 0.0000 0.0000 0.0000 0.0000 40.2682
#
#
#
# Elastic Compliance Matrix: (Units=1/GPa)
#
#
# Indices 1 2 3 4 5 6 
#
# 1 0.010566 -0.001851 -0.001037 0.000000 0.000000 0.000000
# 2 -0.001851 0.010566 -0.001037 0.000000 0.000000 0.000000
# 3 -0.001037 -0.001037 0.022762 0.000000 0.000000 0.000000
# 4 0.000000 0.000000 0.000000 0.024255 0.000000 0.000000
# 5 0.000000 0.000000 0.000000 0.000000 0.024255 0.000000
# 6 0.000000 0.000000 0.000000 0.000000 0.000000 0.024833
#
#
# Mechanical properties :
#
#
# Convention : Reuss Voigt Hill
#
# Bulk Modulus (GPa) = 27.74193 33.05917 30.40055
# Shear Modulus (GPa) = 36.46980 38.72212 37.59596
#
# Velocity S-wave (km/s) = 3.97188 4.09269 4.03274
# Velocity P-wave (km/s) = 5.74760 6.05260 5.90207
#
# Compressibility (1/GPa) = 0.03604652
#
# Stress axis : x y z
#
# Youngs Moduli (GPa) = 94.64198 94.64198 43.93330
#
# Poissons Ratio (x) = 0.17514 0.04554
# Poissons Ratio (y) = 0.17514 0.04554
# Poissons Ratio (z) = 0.09810 0.09810
#
# Static dielectric constant tensor:
#      x y z
#    x 1.845260 0.000000 0.000000 
#    y 0.000000 1.845260 0.000000 
#    z 0.000000 0.000000 1.896610 
# 
# From -- ./inp_files/991.got.cif
#   From: 2010.05.17/outbox.cif.g08.bks.cpg/sg176_1_cif.got.tgz:991.got - 2010.06.03 11:36:45.
