data_PCOD9581519
_publ_section_title
;
Structure prediction by ZEFSAII (Michael W. Deem and Ramdas Pophale) SiO2 
 PCOD9581519
Probable space group: P 6/M
;
_chemical_formula_sum "Si O2"
_cell_formula_units_Z 66
_cell_length_a 18.867760
_cell_length_b 18.867760
_cell_length_c 11.281794
_cell_angle_alpha 90.000000
_cell_angle_beta 90.000000
_cell_angle_gamma 120.000000
_cell_volume 3478.159420
_symmetry_space_group_name_H-M "P 6/M"
_symmetry_group_IT_number 175
_symmetry_cell_setting 'hexagonal'
loop_
_space_group_symop_operation_xyz
x,y,z
x-y,x,z
-y,x-y,z
-x,-y,z
-x+y,-x,z
y,-x+y,z
-x,-y,-z
-x+y,-x,-z
y,-x+y,-z
x,y,-z
x-y,x,-z
-y,x-y,-z
loop_
_atom_site_type_symbol
_atom_site_label
_atom_site_fract_x
_atom_site_fract_y
_atom_site_fract_z
Si Si1 0.031967 0.182458 0.869612
Si Si2 0.440858 0.533411 0.204317
Si Si3 0.711921 0.578330 0.639054
Si Si4 0.546271 0.690328 0.634984
Si Si5 0.400820 0.773675 0.000000
Si Si6 0.737972 0.751792 0.366847
O O1 0.102113 0.158774 0.867459
O O2 0.037494 0.229888 0.749039
O O3 0.039041 0.223521 0.000000
O O4 0.500000 0.500000 0.157873
O O5 0.369272 0.463659 0.283465
O O6 0.495054 0.612520 0.284584
O O7 0.397574 0.562519 0.109549
O O8 0.691655 0.559145 0.500000
O O9 0.774270 0.547139 0.674200
O O10 0.755059 0.676497 0.648415
O O11 0.514726 0.672102 0.500000
O O12 0.640313 0.712758 0.632076
O O13 0.300962 0.721341 0.000000
O O14 0.767435 0.788316 0.500000
#
# Coordination Sequence:
#
# PCOD9581519 Si02
#       6
#    12  12  12  12   6  12
#     4  10  21  38  59  85 117 156 203 252 307 367
#     4  12  22  40  65  91 120 160 212 259 315 380
#     4  10  21  37  60  91 125 160 200 252 314 376
#     4  10  21  37  60  91 125 160 200 252 314 376
#     4  10  25  46  64  84 124 168 206 258 324 383
#     4  10  20  38  61  88 123 161 200 256 317 376
#
# _framework density 18.975552
#
# number of rings (size 3 to 8) (size 9 to 14) (size 15 to 20)
#    0.182    1.455    1.818    3.182    0.000    3.636 
#    4.364    0.000    0.000    1.091    0.000    0.000 
#    0.000    0.000    0.000    0.000    0.000    0.000 
#
# Total GULP energy -368129.316418 kJ/mol
# GULP energy per Si atom -5577.716915 kJ/mol
# Density = 1.893236 g / cm^3
# Si number density = 18.975552 Si / 1000 Ang^3
#
#
#
# Elastic Constant Matrix: (Units=GPa)
#
#
# Indices 1 2 3 4 5 6 
#
# 1 63.9096 4.4371 33.1698 0.0000 0.0000 0.0000
# 2 4.4371 63.9096 33.1698 0.0000 0.0000 0.0000
# 3 33.1698 33.1698 112.7654 0.0000 0.0000 0.0000
# 4 0.0000 0.0000 0.0000 53.0332 0.0000 0.0000
# 5 0.0000 0.0000 0.0000 0.0000 53.0332 0.0000
# 6 0.0000 0.0000 0.0000 0.0000 0.0000 29.7363
#
#
#
# Elastic Compliance Matrix: (Units=1/GPa)
#
#
# Indices 1 2 3 4 5 6 
#
# 1 0.018646 0.001832 -0.006024 0.000000 0.000000 0.000000
# 2 0.001832 0.018646 -0.006024 0.000000 0.000000 0.000000
# 3 -0.006024 -0.006024 0.012412 0.000000 0.000000 0.000000
# 4 0.000000 0.000000 0.000000 0.018856 0.000000 0.000000
# 5 0.000000 0.000000 0.000000 0.000000 0.018856 0.000000
# 6 0.000000 0.000000 0.000000 0.000000 0.000000 0.033629
#
#
# Mechanical properties :
#
#
# Convention : Reuss Voigt Hill
#
# Bulk Modulus (GPa) = 34.16086 42.45976 38.31031
# Shear Modulus (GPa) = 33.06141 38.48106 35.77123
#
# Velocity S-wave (km/s) = 4.17863 4.50814 4.34651
# Velocity P-wave (km/s) = 6.42829 7.03721 6.73963
#
# Compressibility (1/GPa) = 0.02927327
#
# Stress axis : x y z
#
# Youngs Moduli (GPa) = 53.63021 53.63021 80.56972
#
# Poissons Ratio (x) = -0.09824 0.48532
# Poissons Ratio (y) = -0.09824 0.48532
# Poissons Ratio (z) = 0.32304 0.32304
#
# Static dielectric constant tensor:
#      x y z
#    x 1.646930 0.000000 0.000000 
#    y 0.000000 1.646930 0.000000 
#    z 0.000000 0.000000 1.691640 
# 
# From -- ./inp_files/1053.got.cif
#   From: 2010.05.17/outbox.cif.g08.bks.cpg/sg175_1_cif.got.tgz:1053.got - 2010.05.20 11:23:22.
