data_PCOD9581846
_publ_section_title
;
Structure prediction by ZEFSAII (Michael W. Deem and Ramdas Pophale) SiO2 
 PCOD9581846
Probable space group: P 63/M
;
_chemical_formula_sum "Si O2"
_cell_formula_units_Z 36
_cell_length_a 15.477203
_cell_length_b 15.477203
_cell_length_c 7.594123
_cell_angle_alpha 90.000000
_cell_angle_beta 90.000000
_cell_angle_gamma 120.000000
_cell_volume 1575.408616
_symmetry_space_group_name_H-M "P 63/M"
_symmetry_group_IT_number 176
_symmetry_cell_setting 'hexagonal'
loop_
_space_group_symop_operation_xyz
x,y,z
x-y,x,1/2+z
-y,x-y,z
-x,-y,1/2+z
-x+y,-x,z
y,-x+y,1/2+z
-x,-y,-z
-x+y,-x,1/2-z
y,-x+y,-z
x,y,1/2-z
x-y,x,-z
-y,x-y,1/2-z
loop_
_atom_site_type_symbol
_atom_site_label
_atom_site_fract_x
_atom_site_fract_y
_atom_site_fract_z
Si Si1 0.159258 0.217958 0.548564
Si Si2 0.201506 0.762485 0.966059
Si Si3 0.424311 0.885345 0.960601
O O1 0.181288 0.139331 0.454036
O O2 0.191830 0.221397 0.750000
O O3 0.214687 0.330230 0.474941
O O4 0.199711 0.764956 0.750000
O O5 0.312097 0.843980 0.026076
O O6 0.177777 0.653150 0.022245
O O7 0.416300 0.873938 0.750000
O O8 0.500000 0.000000 0.000000
#
# Coordination Sequence:
#
# PCOD9581846 Si02
#       3
#    12  12  12
#     4  11  22  37  55  79 107 140 177 219 265 313
#     4   9  19  34  56  81 108 140 176 213 260 314
#     4  10  19  35  56  80 107 140 177 216 258 311
#
# _framework density 22.851213999999999
#
# number of rings (size 3 to 8) (size 9 to 14) (size 15 to 20)
#    0.000    2.000    0.000    4.000    0.000    2.667 
#    0.000    5.000    0.000    0.000    0.000    0.000 
#    0.000    0.000    0.000    0.000    0.000    0.000 
#
# Total GULP energy -201313.846976 kJ/mol
# GULP energy per Si atom -5592.051305 kJ/mol
# Density = 2.279920 g / cm^3
# Si number density = 22.851214 Si / 1000 Ang^3
#
#
#
# Elastic Constant Matrix: (Units=GPa)
#
#
# Indices 1 2 3 4 5 6 
#
# 1 59.8176 -29.6368 -6.5053 0.0000 0.0000 0.0000
# 2 -29.6368 59.8176 -6.5053 0.0000 0.0000 0.0000
# 3 -6.5053 -6.5053 51.0360 0.0000 0.0000 0.0000
# 4 0.0000 0.0000 0.0000 -19.8249 0.0000 0.0000
# 5 0.0000 0.0000 0.0000 0.0000 -19.8249 0.0000
# 6 0.0000 0.0000 0.0000 0.0000 0.0000 44.7272
#
#
#
# Elastic Compliance Matrix: (Units=1/GPa)
#
#
# Indices 1 2 3 4 5 6 
#
# 1 0.023120 0.011941 0.004469 0.000000 0.000000 0.000000
# 2 0.011941 0.023120 0.004469 0.000000 0.000000 0.000000
# 3 0.004469 0.004469 0.020733 0.000000 0.000000 0.000000
# 4 0.000000 0.000000 0.000000 -0.050442 0.000000 0.000000
# 5 0.000000 0.000000 0.000000 0.000000 -0.050442 0.000000
# 6 0.000000 0.000000 0.000000 0.000000 0.000000 0.022358
#
#
# Mechanical properties :
#
#
# Convention : Reuss Voigt Hill
#
# Bulk Modulus (GPa) = 9.19714 9.48626 9.34170
# Shear Modulus (GPa) = -292.96146 15.23671 -138.86237
#
# Velocity S-wave (km/s) = -11.33500 2.58501 -7.80384
# Velocity P-wave (km/s) = 12.93353 3.61525 8.78083
#
# Compressibility (1/GPa) = 0.10872941
#
# Stress axis : x y z
#
# Youngs Moduli (GPa) = 43.25345 43.25345 48.23163
#
# Poissons Ratio (x) = -0.51647 -0.21554
# Poissons Ratio (y) = -0.51647 -0.21554
# Poissons Ratio (z) = -0.19330 -0.19330
#
# Static dielectric constant tensor:
#      x y z
#    x 1.634660 0.000000 0.000000 
#    y 0.000000 1.634660 0.000000 
#    z 0.000000 0.000000 1.881080 
# 
# From -- ./inp_files/351.got.cif
#   From: 2010.05.17/outbox.cif.g08.bks.cpg/sg176_1_cif.got.tgz:351.got - 2010.06.03 11:36:45.
