data_PCOD9581362
_publ_section_title
;
Structure prediction by ZEFSAII (Michael W. Deem and Ramdas Pophale) SiO2 
 PCOD9581362
Probable space group: P 6/M
;
_chemical_formula_sum "Si O2"
_cell_formula_units_Z 54
_cell_length_a 10.764512
_cell_length_b 10.764512
_cell_length_c 24.876539
_cell_angle_alpha 90.000000
_cell_angle_beta 90.000000
_cell_angle_gamma 120.000000
_cell_volume 2496.371882
_symmetry_space_group_name_H-M "P 6/M"
_symmetry_group_IT_number 175
_symmetry_cell_setting 'hexagonal'
loop_
_space_group_symop_operation_xyz
x,y,z
x-y,x,z
-y,x-y,z
-x,-y,z
-x+y,-x,z
y,-x+y,z
-x,-y,-z
-x+y,-x,-z
y,-x+y,-z
x,y,-z
x-y,x,-z
-y,x-y,-z
loop_
_atom_site_type_symbol
_atom_site_label
_atom_site_fract_x
_atom_site_fract_y
_atom_site_fract_z
Si Si1 0.673920 0.931776 0.825664
Si Si2 0.659699 0.491412 0.721108
Si Si3 0.256911 0.325674 0.500000
Si Si4 0.327734 0.071953 0.057522
Si Si5 0.933077 0.258706 0.383308
O O1 0.722814 0.812389 0.822668
O O2 0.571873 0.904955 0.775539
O O3 0.600496 0.913120 0.884434
O O4 0.530747 0.328750 0.721044
O O5 0.666498 0.572226 0.666824
O O6 0.275566 0.186618 0.500000
O O7 0.314202 0.398512 0.442113
O O8 0.276404 0.189365 0.057510
O O9 0.405131 0.090025 0.000000
O O10 0.090592 0.277396 0.380310
#
# Coordination Sequence:
#
# PCOD9581362 Si02
#       5
#    12  12   6  12  12
#     4  10  19  32  54  81 106 129 161 211 263 310
#     4  10  24  40  50  68  95 144 187 214 247 291
#     4   8  15  28  50  82 112 134 153 186 250 316
#     4   8  13  22  40  70 105 133 153 184 244 316
#     4  10  19  34  58  85 110 131 159 205 257 308
#
# _framework density 21.631391000000001
#
# number of rings (size 3 to 8) (size 9 to 14) (size 15 to 20)
#    0.444    2.222    0.000    2.111    0.000    8.000 
#    0.000    3.333    0.000    5.333    0.000    6.222 
#    0.000    0.000    0.000    0.000    0.000    0.000 
#
# Total GULP energy -301120.935559 kJ/mol
# GULP energy per Si atom -5576.313621 kJ/mol
# Density = 2.158216 g / cm^3
# Si number density = 21.631391 Si / 1000 Ang^3
#
#
#
# Elastic Constant Matrix: (Units=GPa)
#
#
# Indices 1 2 3 4 5 6 
#
# 1 68.5792 9.8080 55.9883 0.0000 0.0000 0.0000
# 2 9.8080 68.5792 55.9883 0.0000 0.0000 0.0000
# 3 55.9883 55.9883 257.8408 0.0000 0.0000 0.0000
# 4 0.0000 0.0000 0.0000 -33.0083 0.0000 0.0000
# 5 0.0000 0.0000 0.0000 0.0000 -33.0083 0.0000
# 6 0.0000 0.0000 0.0000 0.0000 0.0000 29.3856
#
#
#
# Elastic Compliance Matrix: (Units=1/GPa)
#
#
# Indices 1 2 3 4 5 6 
#
# 1 0.017754 0.000739 -0.004016 0.000000 0.000000 0.000000
# 2 0.000739 0.017754 -0.004016 0.000000 0.000000 0.000000
# 3 -0.004016 -0.004016 0.005622 0.000000 0.000000 0.000000
# 4 0.000000 0.000000 0.000000 -0.030295 0.000000 0.000000
# 5 0.000000 0.000000 0.000000 0.000000 -0.030295 0.000000
# 6 0.000000 0.000000 0.000000 0.000000 0.000000 0.034030
#
#
# Mechanical properties :
#
#
# Convention : Reuss Voigt Hill
#
# Bulk Modulus (GPa) = 37.66937 70.95204 54.31070
# Shear Modulus (GPa) = 131.56462 10.88812 71.22637
#
# Velocity S-wave (km/s) = 7.80725 2.24598 5.74446
# Velocity P-wave (km/s) = 9.93594 6.29266 8.31626
#
# Compressibility (1/GPa) = 0.02654677
#
# Stress axis : x y z
#
# Youngs Moduli (GPa) = 56.32385 56.32385 177.86099
#
# Poissons Ratio (x) = -0.04164 0.71425
# Poissons Ratio (y) = -0.04164 0.71425
# Poissons Ratio (z) = 0.22619 0.22619
#
# Static dielectric constant tensor:
#      x y z
#    x 1.755780 0.000000 0.000000 
#    y 0.000000 1.755780 0.000000 
#    z 0.000000 0.000000 1.846980 
# 
# From -- ./inp_files/3198.got.cif
#   From: 2010.05.17/outbox.cif.g08.bks.cpg/sg175_2_cif.got.tgz:3198.got - 2010.05.20 11:23:22.
