data_PCOD9581466
_publ_section_title
;
Structure prediction by ZEFSAII (Michael W. Deem and Ramdas Pophale) SiO2 
 PCOD9581466
Probable space group: P 6/M
;
_chemical_formula_sum "Si O2"
_cell_formula_units_Z 52
_cell_length_a 18.626692
_cell_length_b 18.626692
_cell_length_c 8.901910
_cell_angle_alpha 90.000000
_cell_angle_beta 90.000000
_cell_angle_gamma 120.000000
_cell_volume 2674.762943
_symmetry_space_group_name_H-M "P 6/M"
_symmetry_group_IT_number 175
_symmetry_cell_setting 'hexagonal'
loop_
_space_group_symop_operation_xyz
x,y,z
x-y,x,z
-y,x-y,z
-x,-y,z
-x+y,-x,z
y,-x+y,z
-x,-y,-z
-x+y,-x,-z
y,-x+y,-z
x,y,-z
x-y,x,-z
-y,x-y,-z
loop_
_atom_site_type_symbol
_atom_site_label
_atom_site_fract_x
_atom_site_fract_y
_atom_site_fract_z
Si Si1 0.964800 0.652105 0.318672
Si Si2 0.653550 0.182682 0.676900
Si Si3 0.177536 0.150463 0.683096
Si Si4 0.922945 0.406258 0.169443
Si Si5 0.333335 0.666667 0.176084
O O1 0.975294 0.652446 0.500000
O O2 0.880151 0.566613 0.281700
O O3 0.961422 0.733579 0.274438
O O4 0.039925 0.647644 0.239038
O O5 0.664471 0.197688 0.500000
O O6 0.556637 0.137619 0.721212
O O7 0.693091 0.268728 0.763240
O O8 0.102487 0.164419 0.732727
O O9 0.176220 0.148913 0.500000
O O10 0.000000 0.500000 0.158246
O O11 0.889553 0.379944 0.000000
O O12 0.333334 0.666668 0.000000
#
# Coordination Sequence:
#
# PCOD9581466 Si02
#       5
#    12  12  12  12   4
#     4   9  18  32  53  81 109 140 182 228 272 324
#     4  10  20  35  53  75 106 145 187 231 280 330
#     4   9  17  30  50  78 110 141 173 215 270 329
#     4   9  17  31  52  77 106 140 177 221 271 320
#     4  12  25  38  52  75 109 149 190 231 280 335
#
# _framework density 19.440975000000002
#
# number of rings (size 3 to 8) (size 9 to 14) (size 15 to 20)
#    0.000    2.538    0.000    2.308    0.000    6.462 
#    0.000    4.615    0.000    1.385    0.000    0.000 
#    0.000    1.846    0.000    0.000    0.000    0.000 
#
# Total GULP energy -290037.934674 kJ/mol
# GULP energy per Si atom -5577.652590 kJ/mol
# Density = 1.939673 g / cm^3
# Si number density = 19.440975 Si / 1000 Ang^3
#
#
#
# Elastic Constant Matrix: (Units=GPa)
#
#
# Indices 1 2 3 4 5 6 
#
# 1 129.5270 79.5171 27.7524 0.0000 0.0000 0.0003
# 2 79.5171 129.5251 27.7517 0.0000 0.0000 0.0001
# 3 27.7524 27.7517 38.8479 0.0000 0.0000 0.0009
# 4 0.0000 0.0000 0.0000 7.9729 -0.0001 0.0000
# 5 0.0000 0.0000 0.0000 -0.0001 7.9735 0.0000
# 6 0.0003 0.0001 0.0009 0.0000 0.0000 25.0031
#
#
#
# Elastic Compliance Matrix: (Units=1/GPa)
#
#
# Indices 1 2 3 4 5 6 
#
# 1 0.012950 -0.007046 -0.004217 0.000000 0.000000 0.000000
# 2 -0.007046 0.012950 -0.004217 0.000000 0.000000 0.000000
# 3 -0.004217 -0.004217 0.031767 0.000000 0.000000 -0.000001
# 4 0.000000 0.000000 0.000000 0.125424 0.000002 0.000000
# 5 0.000000 0.000000 0.000000 0.000002 0.125415 0.000000
# 6 0.000000 0.000000 -0.000001 0.000000 0.000000 0.039995
#
#
# Mechanical properties :
#
#
# Convention : Reuss Voigt Hill
#
# Bulk Modulus (GPa) = 37.44669 63.10469 50.27569
# Shear Modulus (GPa) = 12.87448 19.04849 15.96149
#
# Velocity S-wave (km/s) = 2.57618 3.13359 2.86846
# Velocity P-wave (km/s) = 5.30589 6.75445 6.07351
#
# Compressibility (1/GPa) = 0.02670463
#
# Stress axis : x y z
#
# Youngs Moduli (GPa) = 77.22072 77.22013 31.47934
#
# Poissons Ratio (x) = 0.54413 0.13276
# Poissons Ratio (y) = 0.54413 0.13275
# Poissons Ratio (z) = 0.32567 0.32565
#
# Static dielectric constant tensor:
#      x y z
#    x 1.690350 0.000000 0.000000 
#    y 0.000000 1.690350 0.000000 
#    z 0.000000 0.000000 1.653800 
# 
# From -- ./inp_files/625.got.cif
#   From: 2010.05.17/outbox.cif.g08.bks.cpg/sg175_1_cif.got.tgz:625.got - 2010.05.20 11:23:22.
