data_PCOD9581317
_publ_section_title
;
Structure prediction by ZEFSAII (Michael W. Deem and Ramdas Pophale) SiO2 
 PCOD9581317
Probable space group: P 6/M
;
_chemical_formula_sum "Si O2"
_cell_formula_units_Z 96
_cell_length_a 14.219675
_cell_length_b 14.219675
_cell_length_c 31.446803
_cell_angle_alpha 90.000000
_cell_angle_beta 90.000000
_cell_angle_gamma 120.000000
_cell_volume 5506.637305
_symmetry_space_group_name_H-M "P 6/M"
_symmetry_group_IT_number 175
_symmetry_cell_setting 'hexagonal'
loop_
_space_group_symop_operation_xyz
x,y,z
x-y,x,z
-y,x-y,z
-x,-y,z
-x+y,-x,z
y,-x+y,z
-x,-y,-z
-x+y,-x,-z
y,-x+y,-z
x,y,-z
x-y,x,-z
-y,x-y,-z
loop_
_atom_site_type_symbol
_atom_site_label
_atom_site_fract_x
_atom_site_fract_y
_atom_site_fract_z
Si Si1 0.125914 0.588788 0.247489
Si Si2 0.090287 0.255752 0.954375
Si Si3 0.416434 0.236171 0.623723
Si Si4 0.586550 0.764757 0.781222
Si Si5 0.081734 0.254988 0.298216
Si Si6 0.411131 0.537070 0.654899
Si Si7 0.090839 0.253129 0.550365
Si Si8 0.741840 0.833295 0.139741
O O1 0.179430 0.526367 0.224717
O O2 0.144058 0.696220 0.224205
O O3 0.165747 0.618884 0.296314
O O4 0.000000 0.500000 0.249173
O O5 0.163707 0.199272 0.954529
O O6 0.109072 0.308767 0.907873
O O7 0.111582 0.316151 0.000000
O O8 0.330445 0.220986 0.660323
O O9 0.527897 0.347224 0.632032
O O10 0.448705 0.144108 0.630916
O O11 0.359238 0.226203 0.579118
O O12 0.666129 0.777417 0.742342
O O13 0.651000 0.778214 0.824299
O O14 0.161497 0.204903 0.297669
O O15 0.500000 0.500000 0.656549
O O16 0.166250 0.200552 0.560028
O O17 0.098839 0.276360 0.500000
O O18 0.833273 0.797609 0.144135
#
# Coordination Sequence:
#
# PCOD9581317 Si02
#       8
#    12  12  12  12  12  12  12  12
#     4  11  21  36  53  71  97 134 177 219 264 314
#     4   8  13  22  39  65  99 140 182 217 252 307
#     4  12  23  38  60  83 110 143 186 230 268 311
#     4  12  23  36  54  74 101 136 180 227 273 321
#     4  12  23  36  54  80 113 144 174 211 262 327
#     4  11  21  36  56  78 102 136 178 224 272 309
#     4  10  21  39  63  91 122 153 182 214 259 322
#     4  10  19  31  48  75 112 149 179 213 265 329
#
# _framework density 17.433508
#
# number of rings (size 3 to 8) (size 9 to 14) (size 15 to 20)
#    0.000    1.250    2.500    5.500    0.000    2.000 
#    0.000    3.125    0.000    2.250    0.000    0.875 
#    0.000    5.000    0.000    0.000    0.000    0.000 
#
# Total GULP energy -535963.374499 kJ/mol
# GULP energy per Si atom -5582.951818 kJ/mol
# Density = 1.739383 g / cm^3
# Si number density = 17.433508 Si / 1000 Ang^3
#
#
#
# Elastic Constant Matrix: (Units=GPa)
#
#
# Indices 1 2 3 4 5 6 
#
# 1 65.4786 -21.9402 16.5755 0.0000 0.0000 0.0000
# 2 -21.9402 65.4786 16.5755 0.0000 0.0000 0.0000
# 3 16.5755 16.5755 80.8662 0.0000 0.0000 0.0000
# 4 0.0000 0.0000 0.0000 4.5842 0.0000 0.0000
# 5 0.0000 0.0000 0.0000 0.0000 4.5842 0.0000
# 6 0.0000 0.0000 0.0000 0.0000 0.0000 43.7094
#
#
#
# Elastic Compliance Matrix: (Units=1/GPa)
#
#
# Indices 1 2 3 4 5 6 
#
# 1 0.019328 0.007888 -0.005579 0.000000 0.000000 0.000000
# 2 0.007888 0.019328 -0.005579 0.000000 0.000000 0.000000
# 3 -0.005579 -0.005579 0.014653 0.000000 0.000000 0.000000
# 4 0.000000 0.000000 0.000000 0.218139 0.000000 0.000000
# 5 0.000000 0.000000 0.000000 0.000000 0.218139 0.000000
# 6 0.000000 0.000000 0.000000 0.000000 0.000000 0.022878
#
#
# Mechanical properties :
#
#
# Convention : Reuss Voigt Hill
#
# Bulk Modulus (GPa) = 21.38100 26.02723 23.70411
# Shear Modulus (GPa) = 9.35291 23.94973 16.65132
#
# Velocity S-wave (km/s) = 2.31874 3.71047 3.09388
# Velocity P-wave (km/s) = 4.41131 5.77223 5.13704
#
# Compressibility (1/GPa) = 0.04677049
#
# Stress axis : x y z
#
# Youngs Moduli (GPa) = 51.73973 51.73973 68.24528
#
# Poissons Ratio (x) = -0.40814 0.38071
# Poissons Ratio (y) = -0.40814 0.38071
# Poissons Ratio (z) = 0.28863 0.28863
#
# Static dielectric constant tensor:
#      x y z
#    x 1.615130 0.000000 0.000000 
#    y 0.000000 1.615130 0.000000 
#    z 0.000000 0.000000 1.607990 
# 
# From -- ./inp_files/3334.got.cif
#   From: 2010.05.17/outbox.cif.g08.bks.cpg/sg175_2_cif.got.tgz:3334.got - 2010.05.20 11:23:22.
