data_PCOD9581302
_publ_section_title
;
Structure prediction by ZEFSAII (Michael W. Deem and Ramdas Pophale) SiO2 
 PCOD9581302
Probable space group: P 6/M
;
_chemical_formula_sum "Si O2"
_cell_formula_units_Z 54
_cell_length_a 9.795670
_cell_length_b 9.795670
_cell_length_c 25.913577
_cell_angle_alpha 90.000000
_cell_angle_beta 90.000000
_cell_angle_gamma 120.000000
_cell_volume 2153.407836
_symmetry_space_group_name_H-M "P 6/M"
_symmetry_group_IT_number 175
_symmetry_cell_setting 'hexagonal'
loop_
_space_group_symop_operation_xyz
x,y,z
x-y,x,z
-y,x-y,z
-x,-y,z
-x+y,-x,z
y,-x+y,z
-x,-y,-z
-x+y,-x,-z
y,-x+y,-z
x,y,-z
x-y,x,-z
-y,x-y,-z
loop_
_atom_site_type_symbol
_atom_site_label
_atom_site_fract_x
_atom_site_fract_y
_atom_site_fract_z
Si Si1 0.096880 0.737544 0.329309
Si Si2 0.370580 0.112636 0.110173
Si Si3 0.164370 0.684142 0.555796
Si Si4 0.257369 0.370670 0.000000
Si Si5 0.260653 0.370311 0.779720
O O1 0.112786 0.686127 0.386262
O O2 0.130145 0.674071 0.275515
O O3 0.921393 0.704128 0.327180
O O4 0.297975 0.228927 0.110153
O O5 0.456988 0.138315 0.055081
O O6 0.457084 0.136610 0.165208
O O7 0.178361 0.526952 0.554272
O O8 0.101595 0.702374 0.500000
O O9 0.297745 0.229288 0.000000
O O10 0.299422 0.227612 0.780065
#
# Coordination Sequence:
#
# PCOD9581302 Si02
#       5
#    12  12  12   6  12
#     4  10  19  30  46  69  96 122 145 173 213 262
#     4   8  11  14  20  32  54  87 128 167 197 227
#     4   8  18  37  54  69  84 108 147 184 216 252
#     4   8  11  12  16  28  48  80 124 170 202 220
#     4   8  13  20  30  46  71 104 136 163 196 243
#
# _framework density 25.076530000000002
#
# number of rings (size 3 to 8) (size 9 to 14) (size 15 to 20)
#    0.444    3.111    0.000    0.778    0.000    7.111 
#    0.000    2.222    0.000    1.333    0.000    0.000 
#    0.000    0.000    0.000    2.000    0.000   44.444 
#
# Total GULP energy -300621.927454 kJ/mol
# GULP energy per Si atom -5567.072731 kJ/mol
# Density = 2.501945 g / cm^3
# Si number density = 25.076530 Si / 1000 Ang^3
#
#
#
# Elastic Constant Matrix: (Units=GPa)
#
#
# Indices 1 2 3 4 5 6 
#
# 1 65.1414 -4.5701 34.3793 0.0000 0.0000 0.0000
# 2 -4.5701 65.1414 34.3793 0.0000 0.0000 0.0000
# 3 34.3793 34.3793 410.2545 0.0000 0.0000 0.0000
# 4 0.0000 0.0000 0.0000 -189.5702 0.0000 0.0000
# 5 0.0000 0.0000 0.0000 0.0000 -189.5702 0.0000
# 6 0.0000 0.0000 0.0000 0.0000 0.0000 34.8558
#
#
#
# Elastic Compliance Matrix: (Units=1/GPa)
#
#
# Indices 1 2 3 4 5 6 
#
# 1 0.016295 0.001950 -0.001529 0.000000 0.000000 0.000000
# 2 0.001950 0.016295 -0.001529 0.000000 0.000000 0.000000
# 3 -0.001529 -0.001529 0.002694 0.000000 0.000000 0.000000
# 4 0.000000 0.000000 0.000000 -0.005275 0.000000 0.000000
# 5 0.000000 0.000000 0.000000 0.000000 -0.005275 0.000000
# 6 0.000000 0.000000 0.000000 0.000000 0.000000 0.028690
#
#
# Mechanical properties :
#
#
# Convention : Reuss Voigt Hill
#
# Bulk Modulus (GPa) = 30.24061 74.32384 52.28222
# Shear Modulus (GPa) = 75.00599 -37.10032 18.95284
#
# Velocity S-wave (km/s) = 5.47501 -3.85058 2.75216
# Velocity P-wave (km/s) = 7.21479 3.15181 5.56718
#
# Compressibility (1/GPa) = 0.03306812
#
# Stress axis : x y z
#
# Youngs Moduli (GPa) = 61.36874 61.36874 371.22816
#
# Poissons Ratio (x) = -0.11968 0.56758
# Poissons Ratio (y) = -0.11968 0.56758
# Poissons Ratio (z) = 0.09383 0.09383
#
# Static dielectric constant tensor:
#      x y z
#    x 1.988670 0.000000 0.000000 
#    y 0.000000 1.988670 0.000000 
#    z 0.000000 0.000000 2.114580 
# 
# From -- ./inp_files/3284.got.cif
#   From: 2010.05.17/outbox.cif.g08.bks.cpg/sg175_2_cif.got.tgz:3284.got - 2010.05.20 11:23:22.
