data_PCOD9581030
_publ_section_title
;
Structure prediction by ZEFSAII (Michael W. Deem and Ramdas Pophale) SiO2 
 PCOD9581030
Probable space group: P 63
;
_chemical_formula_sum "Si O2"
_cell_formula_units_Z 42
_cell_length_a 13.625626
_cell_length_b 13.625626
_cell_length_c 9.655363
_cell_angle_alpha 90.000000
_cell_angle_beta 90.000000
_cell_angle_gamma 120.000000
_cell_volume 1552.430498
_symmetry_space_group_name_H-M "P 63"
_symmetry_group_IT_number 173
_symmetry_cell_setting 'hexagonal'
loop_
_space_group_symop_operation_xyz
x,y,z
x-y,x,1/2+z
-y,x-y,z
-x,-y,1/2+z
-x+y,-x,z
y,-x+y,1/2+z
loop_
_atom_site_type_symbol
_atom_site_label
_atom_site_fract_x
_atom_site_fract_y
_atom_site_fract_z
Si Si1 0.424673 0.240702 0.810960
Si Si2 0.574388 0.487374 0.874599
Si Si3 0.401372 0.028608 0.176598
Si Si4 0.050792 0.307195 0.566985
Si Si5 0.971940 0.859606 0.299855
Si Si6 0.468162 0.679740 0.733056
Si Si7 0.638707 0.834283 0.906321
O O1 0.532847 0.352966 0.876924
O O2 0.452350 0.142595 0.790067
O O3 0.389224 0.289869 0.681966
O O4 0.332179 0.203914 0.931801
O O5 0.470829 0.481442 0.788387
O O6 0.601008 0.547876 0.022916
O O7 0.570563 0.224974 0.205136
O O8 0.356526 0.103145 0.256388
O O9 0.031071 0.200004 0.655543
O O10 0.116939 0.426316 0.647835
O O11 0.927877 0.278552 0.512599
O O12 0.925466 0.753946 0.405645
O O13 0.886678 0.909900 0.310958
O O14 0.521869 0.717132 0.887117
#
# Coordination Sequence:
#
# PCOD9581030 Si02
#       7
#     6   6   6   6   6   6   6
#     4   9  21  34  69 101 136 194 251 294 372 477
#     4  10  19  41  68 101 142 196 250 304 379 456
#     4   9  22  37  68 103 145 186 249 320 363 456
#     4  10  20  36  64  99 134 181 249 315 358 454
#     4   9  21  40  66  92 130 185 238 312 389 453
#     4   9  21  37  70  97 142 195 243 298 364 466
#     4  10  20  39  63  99 139 179 244 315 367 454
#
# _framework density 27.054352000000002
#
# number of rings (size 3 to 8) (size 9 to 14) (size 15 to 20)
#    1.429    1.143    0.000    2.000    4.000    1.143 
#    0.000    2.857   22.000    0.000    0.000    0.000 
#    0.000    0.000    0.000    0.000    0.000    0.000 
#
# Total GULP energy -234460.504319 kJ/mol
# GULP energy per Si atom -5582.392960 kJ/mol
# Density = 2.699277 g / cm^3
# Si number density = 27.054352 Si / 1000 Ang^3
#
#
#
# Elastic Constant Matrix: (Units=GPa)
#
#
# Indices 1 2 3 4 5 6 
#
# 1 106.8212 27.1882 31.5966 0.0000 0.0000 0.0000
# 2 27.1882 106.8212 31.5966 0.0000 0.0000 0.0000
# 3 31.5966 31.5966 90.8723 0.0000 0.0000 0.0000
# 4 0.0000 0.0000 0.0000 38.5711 0.0000 0.0000
# 5 0.0000 0.0000 0.0000 0.0000 38.5711 0.0000
# 6 0.0000 0.0000 0.0000 0.0000 0.0000 39.8165
#
#
#
# Elastic Compliance Matrix: (Units=1/GPa)
#
#
# Indices 1 2 3 4 5 6 
#
# 1 0.010742 -0.001816 -0.003103 0.000000 0.000000 0.000000
# 2 -0.001816 0.010742 -0.003103 0.000000 0.000000 0.000000
# 3 -0.003103 -0.003103 0.013163 0.000000 0.000000 0.000000
# 4 0.000000 0.000000 0.000000 0.025926 0.000000 0.000000
# 5 0.000000 0.000000 0.000000 0.000000 0.025926 0.000000
# 6 0.000000 0.000000 0.000000 0.000000 0.000000 0.025115
#
#
# Mechanical properties :
#
#
# Convention : Reuss Voigt Hill
#
# Bulk Modulus (GPa) = 53.76343 53.91972 53.84158
# Shear Modulus (GPa) = 37.35267 37.66729 37.50998
#
# Velocity S-wave (km/s) = 3.71975 3.73538 3.72757
# Velocity P-wave (km/s) = 6.19388 6.21108 6.20249
#
# Compressibility (1/GPa) = 0.01860000
#
# Stress axis : x y z
#
# Youngs Moduli (GPa) = 93.09589 93.09589 75.97273
#
# Poissons Ratio (x) = 0.16906 0.23578
# Poissons Ratio (y) = 0.16906 0.23578
# Poissons Ratio (z) = 0.28892 0.28892
#
# Static dielectric constant tensor:
#      x y z
#    x 2.242280 0.000000 0.000000 
#    y 0.000000 2.242280 0.000000 
#    z 0.000000 0.000000 2.132820 
# 
# From -- ./inp_files/920.got.cif
#   From: 2010.05.17/outbox.cif.g08.bks.cpg/sg173_cif.got.tgz:920.got - 2010.05.20 11:21:53.
