data_PCOD9581585
_publ_section_title
;
Structure prediction by ZEFSAII (Michael W. Deem and Ramdas Pophale) SiO2 
 PCOD9581585
Probable space group: P 6/M
;
_chemical_formula_sum "Si O2"
_cell_formula_units_Z 48
_cell_length_a 17.317447
_cell_length_b 17.317447
_cell_length_c 7.957576
_cell_angle_alpha 90.000000
_cell_angle_beta 90.000000
_cell_angle_gamma 120.000000
_cell_volume 2066.708193
_symmetry_space_group_name_H-M "P 6/M"
_symmetry_group_IT_number 175
_symmetry_cell_setting 'hexagonal'
loop_
_space_group_symop_operation_xyz
x,y,z
x-y,x,z
-y,x-y,z
-x,-y,z
-x+y,-x,z
y,-x+y,z
-x,-y,-z
-x+y,-x,-z
y,-x+y,-z
x,y,-z
x-y,x,-z
-y,x-y,-z
loop_
_atom_site_type_symbol
_atom_site_label
_atom_site_fract_x
_atom_site_fract_y
_atom_site_fract_z
Si Si1 0.656622 0.659281 0.296748
Si Si2 0.041307 0.194660 0.705265
Si Si3 0.717601 0.525890 0.308237
Si Si4 0.385075 0.853311 0.189167
O O1 0.652620 0.654994 0.500000
O O2 0.711130 0.762561 0.244502
O O3 0.710610 0.609990 0.244085
O O4 0.556659 0.610972 0.230371
O O5 0.042481 0.194396 0.500000
O O6 0.117501 0.173947 0.760010
O O7 0.752103 0.544963 0.500000
O O8 0.615794 0.445282 0.305149
O O9 0.778657 0.496911 0.209612
O O10 0.415481 0.854125 0.000000
#
# Coordination Sequence:
#
# PCOD9581585 Si02
#       4
#    12  12  12  12
#     4  10  21  38  60  85 115 155 201 246 292 349
#     4   9  16  28  50  82 117 150 188 237 290 340
#     4  11  23  41  64  87 116 155 200 244 290 350
#     4  12  25  40  60  88 122 154 191 242 300 357
#
# _framework density 23.225339999999999
#
# number of rings (size 3 to 8) (size 9 to 14) (size 15 to 20)
#    0.000    1.500    0.000    6.000    0.000   10.000 
#    0.000    0.000    0.000    0.000    0.000    0.000 
#    0.000    4.000    0.000    0.000    0.000    0.000 
#
# Total GULP energy -268688.721290 kJ/mol
# GULP energy per Si atom -5597.681694 kJ/mol
# Density = 2.317248 g / cm^3
# Si number density = 23.225340 Si / 1000 Ang^3
#
#
#
# Elastic Constant Matrix: (Units=GPa)
#
#
# Indices 1 2 3 4 5 6 
#
# 1 81.9332 -2.0806 -3.7737 0.0000 0.0000 0.0000
# 2 -2.0806 81.9332 -3.7737 0.0000 0.0000 0.0000
# 3 -3.7737 -3.7737 38.9163 0.0000 0.0000 0.0000
# 4 0.0000 0.0000 0.0000 -5.3033 0.0000 0.0000
# 5 0.0000 0.0000 0.0000 0.0000 -5.3033 0.0000
# 6 0.0000 0.0000 0.0000 0.0000 0.0000 42.0069
#
#
#
# Elastic Compliance Matrix: (Units=1/GPa)
#
#
# Indices 1 2 3 4 5 6 
#
# 1 0.012271 0.000368 0.001226 0.000000 0.000000 0.000000
# 2 0.000368 0.012271 0.001226 0.000000 0.000000 0.000000
# 3 0.001226 0.001226 0.025934 0.000000 0.000000 0.000000
# 4 0.000000 0.000000 0.000000 -0.188561 0.000000 0.000000
# 5 0.000000 0.000000 0.000000 0.000000 -0.188561 0.000000
# 6 0.000000 0.000000 0.000000 0.000000 0.000000 0.023806
#
#
# Mechanical properties :
#
#
# Convention : Reuss Voigt Hill
#
# Bulk Modulus (GPa) = 17.82084 20.39185 19.10635
# Shear Modulus (GPa) = -17.25483 20.44075 1.59296
#
# Velocity S-wave (km/s) = -2.72863 2.96988 0.82907
# Velocity P-wave (km/s) = 1.49585 4.53423 3.02669
#
# Compressibility (1/GPa) = 0.05611407
#
# Stress axis : x y z
#
# Youngs Moduli (GPa) = 81.49384 81.49384 38.55964
#
# Poissons Ratio (x) = -0.02999 -0.04726
# Poissons Ratio (y) = -0.02999 -0.04726
# Poissons Ratio (z) = -0.09988 -0.09988
#
# Static dielectric constant tensor:
#      x y z
#    x 1.841050 0.000000 0.000000 
#    y 0.000000 1.841050 0.000000 
#    z 0.000000 0.000000 1.831340 
# 
# From -- ./inp_files/515.got.cif
#   From: 2010.05.17/outbox.cif.g08.bks.cpg/sg175_1_cif.got.tgz:515.got - 2010.05.20 11:23:22.
