data_PCOD9581274
_publ_section_title
;
Structure prediction by ZEFSAII (Michael W. Deem and Ramdas Pophale) SiO2 
 PCOD9581274
Probable space group: P 6/M
;
_chemical_formula_sum "Si O2"
_cell_formula_units_Z 84
_cell_length_a 17.094545
_cell_length_b 17.094545
_cell_length_c 16.221247
_cell_angle_alpha 90.000000
_cell_angle_beta 90.000000
_cell_angle_gamma 120.000000
_cell_volume 4105.158791
_symmetry_space_group_name_H-M "P 6/M"
_symmetry_group_IT_number 175
_symmetry_cell_setting 'hexagonal'
loop_
_space_group_symop_operation_xyz
x,y,z
x-y,x,z
-y,x-y,z
-x,-y,z
-x+y,-x,z
y,-x+y,z
-x,-y,-z
-x+y,-x,-z
y,-x+y,-z
x,y,-z
x-y,x,-z
-y,x-y,-z
loop_
_atom_site_type_symbol
_atom_site_label
_atom_site_fract_x
_atom_site_fract_y
_atom_site_fract_z
Si Si1 0.419179 0.217995 0.409926
Si Si2 0.072485 0.467519 0.907287
Si Si3 0.917564 0.349594 0.690848
Si Si4 0.087067 0.211764 0.374408
Si Si5 0.890502 0.179034 0.794830
Si Si6 0.371997 0.874389 0.724447
Si Si7 0.281645 0.236978 0.092050
O O1 0.456688 0.256650 0.500000
O O2 0.420461 0.125432 0.393101
O O3 0.312857 0.187226 0.408482
O O4 0.472386 0.286435 0.334401
O O5 0.131944 0.494053 0.823996
O O6 0.017716 0.358759 0.910077
O O7 0.000000 0.500000 0.895844
O O8 0.114193 0.496209 0.000000
O O9 0.901729 0.268599 0.752217
O O10 0.867997 0.406661 0.708026
O O11 0.023765 0.420602 0.698014
O O12 0.147258 0.165359 0.395515
O O13 0.107962 0.234152 0.277030
O O14 0.810574 0.138603 0.860207
O O15 0.975552 0.201403 0.851294
O O16 0.254793 0.202961 0.000000
#
# Coordination Sequence:
#
# PCOD9581274 Si02
#       7
#    12  12  12  12  12  12  12
#     4  11  25  42  64  94 126 164 211 268 328 397
#     4  10  18  32  58  92 125 157 204 258 311 375
#     4  10  22  37  66  90 118 162 209 254 313 392
#     4  11  22  38  62  87 121 168 216 269 326 385
#     4  11  19  36  55  85 123 165 217 265 313 380
#     4  11  20  42  65  91 126 166 204 258 326 383
#     4  11  21  32  53  85 125 168 213 268 322 376
#
# _framework density 20.462060000000001
#
# number of rings (size 3 to 8) (size 9 to 14) (size 15 to 20)
#    0.000    1.286    4.286    4.000    0.000    2.857 
#    0.857    2.143    0.000    1.714    0.000    2.000 
#    0.000    0.000    0.000    0.000    0.000    0.000 
#
# Total GULP energy -468017.846570 kJ/mol
# GULP energy per Si atom -5571.641031 kJ/mol
# Density = 2.041549 g / cm^3
# Si number density = 20.462060 Si / 1000 Ang^3
#
#
#
# Elastic Constant Matrix: (Units=GPa)
#
#
# Indices 1 2 3 4 5 6 
#
# 1 53.1747 -1.6067 15.9234 0.0000 0.0000 0.0000
# 2 -1.6067 53.1747 15.9234 0.0000 0.0000 0.0000
# 3 15.9234 15.9234 143.7631 0.0000 0.0000 0.0000
# 4 0.0000 0.0000 0.0000 6.4426 0.0000 0.0000
# 5 0.0000 0.0000 0.0000 0.0000 6.4426 0.0000
# 6 0.0000 0.0000 0.0000 0.0000 0.0000 27.3907
#
#
#
# Elastic Compliance Matrix: (Units=1/GPa)
#
#
# Indices 1 2 3 4 5 6 
#
# 1 0.019535 0.001281 -0.002306 0.000000 0.000000 0.000000
# 2 0.001281 0.019535 -0.002306 0.000000 0.000000 0.000000
# 3 -0.002306 -0.002306 0.007467 0.000000 0.000000 0.000000
# 4 0.000000 0.000000 0.000000 0.155216 0.000000 0.000000
# 5 0.000000 0.000000 0.000000 0.000000 0.155216 0.000000
# 6 0.000000 0.000000 0.000000 0.000000 0.000000 0.036509
#
#
# Mechanical properties :
#
#
# Convention : Reuss Voigt Hill
#
# Bulk Modulus (GPa) = 25.07790 34.51030 29.79410
# Shear Modulus (GPa) = 12.09394 22.71337 17.40365
#
# Velocity S-wave (km/s) = 2.43377 3.33532 2.91955
# Velocity P-wave (km/s) = 4.49222 5.63334 5.09483
#
# Compressibility (1/GPa) = 0.03987575
#
# Stress axis : x y z
#
# Youngs Moduli (GPa) = 51.19009 51.19009 133.92938
#
# Poissons Ratio (x) = -0.06556 0.30878
# Poissons Ratio (y) = -0.06556 0.30878
# Poissons Ratio (z) = 0.11802 0.11802
#
# Static dielectric constant tensor:
#      x y z
#    x 1.766330 0.000000 0.000000 
#    y 0.000000 1.766330 0.000000 
#    z 0.000000 0.000000 1.797380 
# 
# From -- ./inp_files/2638.got.cif
#   From: 2010.05.17/outbox.cif.g08.bks.cpg/sg175_2_cif.got.tgz:2638.got - 2010.05.20 11:23:22.
