data_PCOD9581540
_publ_section_title
;
Structure prediction by ZEFSAII (Michael W. Deem and Ramdas Pophale) SiO2 
 PCOD9581540
Probable space group: P 6/M
;
_chemical_formula_sum "Si O2"
_cell_formula_units_Z 76
_cell_length_a 18.615565
_cell_length_b 18.615565
_cell_length_c 13.429501
_cell_angle_alpha 90.000000
_cell_angle_beta 90.000000
_cell_angle_gamma 120.000000
_cell_volume 4030.351756
_symmetry_space_group_name_H-M "P 6/M"
_symmetry_group_IT_number 175
_symmetry_cell_setting 'hexagonal'
loop_
_space_group_symop_operation_xyz
x,y,z
x-y,x,z
-y,x-y,z
-x,-y,z
-x+y,-x,z
y,-x+y,z
-x,-y,-z
-x+y,-x,-z
y,-x+y,-z
x,y,-z
x-y,x,-z
-y,x-y,-z
loop_
_atom_site_type_symbol
_atom_site_label
_atom_site_fract_x
_atom_site_fract_y
_atom_site_fract_z
Si Si1 0.077934 0.713687 0.825647
Si Si2 0.039846 0.707892 0.387038
Si Si3 0.816615 0.963667 0.120305
Si Si4 0.781594 0.518882 0.197215
Si Si5 0.666668 0.333334 0.876972
Si Si6 0.950197 0.541041 0.111018
Si Si7 0.369450 0.216612 0.611704
O O1 0.061774 0.675319 0.713205
O O2 0.053807 0.784985 0.830733
O O3 0.173968 0.754041 0.853527
O O4 0.015323 0.638168 0.892331
O O5 0.042820 0.677559 0.500000
O O6 0.116580 0.802205 0.385066
O O7 0.945537 0.686162 0.371264
O O8 0.837591 0.891973 0.146376
O O9 0.806070 0.961412 0.000000
O O10 0.711969 0.426289 0.168267
O O11 0.867828 0.528154 0.161827
O O12 0.802052 0.555896 0.309624
O O13 0.666667 0.333334 0.000000
O O14 0.000000 0.500000 0.159303
O O15 0.925744 0.504928 0.000000
O O16 0.403688 0.239176 0.500000
#
# Coordination Sequence:
#
# PCOD9581540 Si02
#       7
#    12  12  12  12   4  12  12
#     4  11  21  35  58  87 112 147 193 244 295 347
#     4   9  18  33  56  87 118 155 197 241 295 350
#     4  10  21  35  52  76 111 152 193 237 288 345
#     4  11  23  41  62  87 119 158 197 246 301 368
#     4  12  27  45  64  86 118 162 198 237 304 377
#     4  11  23  38  57  83 115 151 194 247 298 353
#     4   9  18  36  63  91 122 159 203 254 304 359
#
# _framework density 18.856915999999998
#
# number of rings (size 3 to 8) (size 9 to 14) (size 15 to 20)
#    0.000    1.737    1.579    3.000    2.211    5.684 
#    0.000    0.789    0.000    4.105    0.000    2.211 
#    0.000    0.000    0.000    0.000    0.000    0.000 
#
# Total GULP energy -423142.965237 kJ/mol
# GULP energy per Si atom -5567.670595 kJ/mol
# Density = 1.881400 g / cm^3
# Si number density = 18.856916 Si / 1000 Ang^3
#
#
#
# Elastic Constant Matrix: (Units=GPa)
#
#
# Indices 1 2 3 4 5 6 
#
# 1 103.1444 35.6065 28.9045 0.0000 0.0000 -0.0008
# 2 35.6065 103.1435 28.9042 0.0000 0.0000 -0.0006
# 3 28.9045 28.9042 73.1855 0.0000 0.0000 -0.0004
# 4 0.0000 0.0000 0.0000 15.7674 -0.0005 0.0000
# 5 0.0000 0.0000 0.0000 -0.0005 15.7674 0.0000
# 6 -0.0008 -0.0006 -0.0004 0.0000 0.0000 33.7687
#
#
#
# Elastic Compliance Matrix: (Units=1/GPa)
#
#
# Indices 1 2 3 4 5 6 
#
# 1 0.011717 -0.003090 -0.003407 0.000000 0.000000 0.000000
# 2 -0.003090 0.011717 -0.003407 0.000000 0.000000 0.000000
# 3 -0.003407 -0.003407 0.016355 0.000000 0.000000 0.000000
# 4 0.000000 0.000000 0.000000 0.063422 0.000002 0.000000
# 5 0.000000 0.000000 0.000000 0.000002 0.063422 0.000000
# 6 0.000000 0.000000 0.000000 0.000000 0.000000 0.029613
#
#
# Mechanical properties :
#
#
# Convention : Reuss Voigt Hill
#
# Bulk Modulus (GPa) = 50.04955 51.81155 50.93055
# Shear Modulus (GPa) = 22.45030 25.46456 23.95743
#
# Velocity S-wave (km/s) = 3.45419 3.67878 3.56825
# Velocity P-wave (km/s) = 6.51981 6.75132 6.63658
#
# Compressibility (1/GPa) = 0.01998020
#
# Stress axis : x y z
#
# Youngs Moduli (GPa) = 85.34892 85.34832 61.14281
#
# Poissons Ratio (x) = 0.26372 0.20832
# Poissons Ratio (y) = 0.26372 0.20832
# Poissons Ratio (z) = 0.29079 0.29079
#
# Static dielectric constant tensor:
#      x y z
#    x 1.644480 0.000000 0.000000 
#    y 0.000000 1.644480 0.000000 
#    z 0.000000 0.000000 1.727610 
# 
# From -- ./inp_files/2549.got.cif
#   From: 2010.05.17/outbox.cif.g08.bks.cpg/sg175_2_cif.got.tgz:2549.got - 2010.05.20 11:23:22.
