data_PCOD9581475
_publ_section_title
;
Structure prediction by ZEFSAII (Michael W. Deem and Ramdas Pophale) SiO2 
 PCOD9581475
Probable space group: P 6/M
;
_chemical_formula_sum "Si O2"
_cell_formula_units_Z 60
_cell_length_a 16.400937
_cell_length_b 16.400937
_cell_length_c 13.737464
_cell_angle_alpha 90.000000
_cell_angle_beta 90.000000
_cell_angle_gamma 120.000000
_cell_volume 3200.180833
_symmetry_space_group_name_H-M "P 6/M"
_symmetry_group_IT_number 175
_symmetry_cell_setting 'hexagonal'
loop_
_space_group_symop_operation_xyz
x,y,z
x-y,x,z
-y,x-y,z
-x,-y,z
-x+y,-x,z
y,-x+y,z
-x,-y,-z
-x+y,-x,-z
y,-x+y,-z
x,y,-z
x-y,x,-z
-y,x-y,-z
loop_
_atom_site_type_symbol
_atom_site_label
_atom_site_fract_x
_atom_site_fract_y
_atom_site_fract_z
Si Si1 0.627990 0.478084 0.707996
Si Si2 0.826094 0.532604 0.614871
Si Si3 0.409606 0.893997 0.890569
Si Si4 0.977863 0.182318 0.109033
Si Si5 0.025981 0.346736 0.751740
O O1 0.725404 0.494711 0.665744
O O2 0.542922 0.401542 0.642201
O O3 0.602378 0.437233 0.817973
O O4 0.631226 0.577435 0.714164
O O5 0.818537 0.539118 0.500000
O O6 0.901954 0.631153 0.663675
O O7 0.332794 0.910399 0.835005
O O8 0.500000 0.000000 0.895101
O O9 0.384224 0.858053 0.000000
O O10 0.076794 0.184821 0.115742
O O11 0.976707 0.247232 0.194937
O O12 0.973092 0.218362 0.000000
#
# Coordination Sequence:
#
# PCOD9581475 Si02
#       5
#    12  12  12  12  12
#     4  10  21  36  54  79 110 143 186 232 277 332
#     4  11  22  36  55  77 106 146 189 235 285 331
#     4   8  15  30  52  76 105 140 172 210 263 320
#     4  10  20  35  57  85 116 148 180 216 263 323
#     4  10  20  35  55  81 110 140 184 233 274 323
#
# _framework density 18.748940000000001
#
# number of rings (size 3 to 8) (size 9 to 14) (size 15 to 20)
#    0.000    2.200    0.000    4.800    0.000    4.000 
#    0.000    5.000    0.000    0.000    0.000    0.000 
#    0.000    3.200    0.000    0.000    0.000    0.000 
#
# Total GULP energy -334698.028577 kJ/mol
# GULP energy per Si atom -5578.300476 kJ/mol
# Density = 1.870627 g / cm^3
# Si number density = 18.748940 Si / 1000 Ang^3
#
#
#
# Elastic Constant Matrix: (Units=GPa)
#
#
# Indices 1 2 3 4 5 6 
#
# 1 45.4948 5.5561 28.1408 0.0000 0.0000 0.0000
# 2 5.5561 45.4948 28.1408 0.0000 0.0000 0.0000
# 3 28.1408 28.1408 136.7378 0.0000 0.0000 0.0000
# 4 0.0000 0.0000 0.0000 21.2191 0.0000 0.0000
# 5 0.0000 0.0000 0.0000 0.0000 21.2191 0.0000
# 6 0.0000 0.0000 0.0000 0.0000 0.0000 19.9693
#
#
#
# Elastic Compliance Matrix: (Units=1/GPa)
#
#
# Indices 1 2 3 4 5 6 
#
# 1 0.025188 0.000149 -0.005214 0.000000 0.000000 0.000000
# 2 0.000149 0.025188 -0.005214 0.000000 0.000000 0.000000
# 3 -0.005214 -0.005214 0.009460 0.000000 0.000000 0.000000
# 4 0.000000 0.000000 0.000000 0.047127 0.000000 0.000000
# 5 0.000000 0.000000 0.000000 0.000000 0.047127 0.000000
# 6 0.000000 0.000000 0.000000 0.000000 0.000000 0.050077
#
#
# Mechanical properties :
#
#
# Convention : Reuss Voigt Hill
#
# Bulk Modulus (GPa) = 25.46091 39.04478 32.25284
# Shear Modulus (GPa) = 21.02453 23.54080 22.28266
#
# Velocity S-wave (km/s) = 3.35232 3.54726 3.45117
# Velocity P-wave (km/s) = 5.34729 6.13577 5.75505
#
# Compressibility (1/GPa) = 0.03927590
#
# Stress axis : x y z
#
# Youngs Moduli (GPa) = 39.70196 39.70196 105.71359
#
# Poissons Ratio (x) = -0.00593 0.55123
# Poissons Ratio (y) = -0.00593 0.55123
# Poissons Ratio (z) = 0.20702 0.20702
#
# Static dielectric constant tensor:
#      x y z
#    x 1.659980 0.000000 0.000000 
#    y 0.000000 1.659980 0.000000 
#    z 0.000000 0.000000 1.659350 
# 
# From -- ./inp_files/2363.got.cif
#   From: 2010.05.17/outbox.cif.g08.bks.cpg/sg175_2_cif.got.tgz:2363.got - 2010.05.20 11:23:22.
