data_PCOD9581951
_publ_section_title
;
Structure prediction by ZEFSAII (Michael W. Deem and Ramdas Pophale) SiO2 
 PCOD9581951
Probable space group: P 63/M
;
_chemical_formula_sum "Si O2"
_cell_formula_units_Z 66
_cell_length_a 12.022772
_cell_length_b 12.022772
_cell_length_c 26.834958
_cell_angle_alpha 90.000000
_cell_angle_beta 90.000000
_cell_angle_gamma 120.000000
_cell_volume 3359.237997
_symmetry_space_group_name_H-M "P 63/M"
_symmetry_group_IT_number 176
_symmetry_cell_setting 'hexagonal'
loop_
_space_group_symop_operation_xyz
x,y,z
x-y,x,1/2+z
-y,x-y,z
-x,-y,1/2+z
-x+y,-x,z
y,-x+y,1/2+z
-x,-y,-z
-x+y,-x,1/2-z
y,-x+y,-z
x,y,1/2-z
x-y,x,-z
-y,x-y,1/2-z
loop_
_atom_site_type_symbol
_atom_site_label
_atom_site_fract_x
_atom_site_fract_y
_atom_site_fract_z
Si Si1 0.162700 0.129958 0.750000
Si Si2 0.551283 0.931745 0.192506
Si Si3 0.354012 0.420918 0.922784
Si Si4 0.618513 0.723788 0.333182
Si Si5 0.092816 0.404897 0.893994
Si Si6 0.264961 0.028008 0.984252
O O1 0.254976 0.201012 0.797810
O O2 0.026467 0.130140 0.750000
O O3 0.580307 0.929034 0.250000
O O4 0.550004 0.809633 0.167144
O O5 0.416077 0.928564 0.187922
O O6 0.661984 0.052728 0.163303
O O7 0.351494 0.309958 0.887836
O O8 0.236418 0.437250 0.903441
O O9 0.483833 0.552342 0.914255
O O10 0.330855 0.383444 0.980582
O O11 0.002869 0.280912 0.927413
O O12 0.145847 0.902744 0.007524
#
# Coordination Sequence:
#
# PCOD9581951 Si02
#       6
#     6  12  12  12  12  12
#     4  10  24  38  58  88 126 164 198 246 300 366
#     4  11  21  37  60  85 118 157 206 250 297 354
#     4  10  22  38  60  85 118 151 202 248 303 368
#     4  11  22  39  60  90 119 164 207 253 307 354
#     4  10  22  37  59  82 114 155 192 246 301 363
#     4  10  20  38  59  85 115 149 190 243 303 364
#
# _framework density 19.647313
#
# number of rings (size 3 to 8) (size 9 to 14) (size 15 to 20)
#    0.182    1.455    1.818    2.545    2.545    0.000 
#    0.000    0.000    0.000   11.636    0.000    0.000 
#    0.000    0.000    0.000    0.000    0.000    0.000 
#
# Total GULP energy -368253.744845 kJ/mol
# GULP energy per Si atom -5579.602195 kJ/mol
# Density = 1.960260 g / cm^3
# Si number density = 19.647313 Si / 1000 Ang^3
#
#
#
# Elastic Constant Matrix: (Units=GPa)
#
#
# Indices 1 2 3 4 5 6 
#
# 1 76.7615 20.9509 6.4457 0.0000 0.0000 0.0000
# 2 20.9509 76.7615 6.4457 0.0000 0.0000 0.0000
# 3 6.4457 6.4457 21.2096 0.0000 0.0000 0.0000
# 4 0.0000 0.0000 0.0000 -995.7572 0.0000 0.0000
# 5 0.0000 0.0000 0.0000 0.0000 -995.7571 0.0000
# 6 0.0000 0.0000 0.0000 0.0000 0.0000 27.9053
#
#
#
# Elastic Compliance Matrix: (Units=1/GPa)
#
#
# Indices 1 2 3 4 5 6 
#
# 1 0.014290 -0.003628 -0.003240 0.000000 0.000000 0.000000
# 2 -0.003628 0.014290 -0.003240 0.000000 0.000000 0.000000
# 3 -0.003240 -0.003240 0.049118 0.000000 0.000000 0.000000
# 4 0.000000 0.000000 0.000000 -0.001004 0.000000 0.000000
# 5 0.000000 0.000000 0.000000 0.000000 -0.001004 0.000000
# 6 0.000000 0.000000 0.000000 0.000000 0.000000 0.035835
#
#
# Mechanical properties :
#
#
# Convention : Reuss Voigt Hill
#
# Bulk Modulus (GPa) = 17.39715 26.93523 22.16619
# Shear Modulus (GPa) = 33.13431 -383.32912 -175.09740
#
# Velocity S-wave (km/s) = 4.11110 -13.98316 -9.45060
# Velocity P-wave (km/s) = 5.60436 15.71514 10.38164
#
# Compressibility (1/GPa) = 0.05748067
#
# Stress axis : x y z
#
# Youngs Moduli (GPa) = 69.98066 69.98066 20.35917
#
# Poissons Ratio (x) = 0.25390 0.06597
# Poissons Ratio (y) = 0.25390 0.06597
# Poissons Ratio (z) = 0.22674 0.22674
#
# Static dielectric constant tensor:
#      x y z
#    x 1.681250 0.000000 0.000000 
#    y 0.000000 1.681250 0.000000 
#    z 0.000000 0.000000 1.791960 
# 
# From -- ./inp_files/4477.got.cif
#   From: 2010.05.17/outbox.cif.g08.bks.cpg/sg176_3_cif.got.tgz:4477.got - 2010.06.03 11:36:45.
