data_PCOD9581760
_publ_section_title
;
Structure prediction by ZEFSAII (Michael W. Deem and Ramdas Pophale) SiO2 
 PCOD9581760
Probable space group: P 63/M
;
_chemical_formula_sum "Si O2"
_cell_formula_units_Z 78
_cell_length_a 21.416769
_cell_length_b 21.416769
_cell_length_c 8.489656
_cell_angle_alpha 90.000000
_cell_angle_beta 90.000000
_cell_angle_gamma 120.000000
_cell_volume 3372.318846
_symmetry_space_group_name_H-M "P 63/M"
_symmetry_group_IT_number 176
_symmetry_cell_setting 'hexagonal'
loop_
_space_group_symop_operation_xyz
x,y,z
x-y,x,1/2+z
-y,x-y,z
-x,-y,1/2+z
-x+y,-x,z
y,-x+y,1/2+z
-x,-y,-z
-x+y,-x,1/2-z
y,-x+y,-z
x,y,1/2-z
x-y,x,-z
-y,x-y,1/2-z
loop_
_atom_site_type_symbol
_atom_site_label
_atom_site_fract_x
_atom_site_fract_y
_atom_site_fract_z
Si Si1 0.551792 0.323671 0.916151
Si Si2 0.567801 0.625748 0.424346
Si Si3 0.515183 0.591768 0.750000
Si Si4 0.485973 0.139658 0.250000
Si Si5 0.875638 0.162679 0.929841
Si Si6 0.688390 0.234119 0.250000
Si Si7 0.032366 0.285560 0.933762
Si Si8 0.291583 0.446172 0.420076
O O1 0.592077 0.350642 0.750000
O O2 0.491680 0.348291 0.916269
O O3 0.510343 0.236967 0.917401
O O4 0.587821 0.345003 0.087149
O O5 0.565964 0.594788 0.250000
O O6 0.546470 0.581017 0.587329
O O7 0.646548 0.693526 0.459423
O O8 0.429369 0.544592 0.750000
O O9 0.521501 0.671926 0.750000
O O10 0.513697 0.225797 0.250000
O O11 0.447591 0.115668 0.420292
O O12 0.873328 0.137246 0.750000
O O13 0.842470 0.215543 0.926320
O O14 0.957807 0.215123 0.977567
O O15 0.826914 0.097350 0.041952
O O16 0.026303 0.301987 0.750000
O O17 0.326064 0.447775 0.250000
#
# Coordination Sequence:
#
# PCOD9581760 Si02
#       8
#    12  12   6   6  12   6  12  12
#     4   8  13  23  45  71  94 132 178 230 280 346
#     4  10  18  32  55  80 112 152 198 247 308 358
#     4  10  20  34  52  82 115 147 201 254 299 381
#     4  10  20  32  54  82 109 149 201 246 301 379
#     4  10  22  38  58  93 131 162 204 261 313 373
#     4   8  16  28  44  68 104 140 176 234 290 340
#     4  11  22  36  61  94 129 163 204 260 313 372
#     4   9  17  32  53  78 111 147 194 245 301 356
#
# _framework density 23.129486
#
# number of rings (size 3 to 8) (size 9 to 14) (size 15 to 20)
#    0.000    2.462    2.308    0.462    1.077    1.846 
#    0.462    0.000    0.000    1.231    0.000    0.000 
#    0.000    0.000    0.000    0.000    0.000    0.000 
#
# Total GULP energy -435733.685836 kJ/mol
# GULP energy per Si atom -5586.329306 kJ/mol
# Density = 2.307684 g / cm^3
# Si number density = 23.129486 Si / 1000 Ang^3
#
#
#
# Elastic Constant Matrix: (Units=GPa)
#
#
# Indices 1 2 3 4 5 6 
#
# 1 68.8247 29.4531 28.8104 0.0000 0.0000 0.0000
# 2 29.4531 68.8247 28.8104 0.0000 0.0000 0.0000
# 3 28.8104 28.8104 230.5205 0.0000 0.0000 0.0000
# 4 0.0000 0.0000 0.0000 11.7298 0.0000 0.0000
# 5 0.0000 0.0000 0.0000 0.0000 11.7298 0.0000
# 6 0.0000 0.0000 0.0000 0.0000 0.0000 19.6858
#
#
#
# Elastic Compliance Matrix: (Units=1/GPa)
#
#
# Indices 1 2 3 4 5 6 
#
# 1 0.018189 -0.007210 -0.001372 0.000000 0.000000 0.000000
# 2 -0.007210 0.018189 -0.001372 0.000000 0.000000 0.000000
# 3 -0.001372 -0.001372 0.004681 0.000000 0.000000 0.000000
# 4 0.000000 0.000000 0.000000 0.085253 0.000000 0.000000
# 5 0.000000 0.000000 0.000000 0.000000 0.085253 0.000000
# 6 0.000000 0.000000 0.000000 0.000000 0.000000 0.050798
#
#
# Mechanical properties :
#
#
# Convention : Reuss Voigt Hill
#
# Bulk Modulus (GPa) = 47.27773 60.25750 53.76761
# Shear Modulus (GPa) = 17.28172 27.36881 22.32526
#
# Velocity S-wave (km/s) = 2.73641 3.44362 3.11018
# Velocity P-wave (km/s) = 5.51985 6.47458 6.01618
#
# Compressibility (1/GPa) = 0.02115161
#
# Stress axis : x y z
#
# Youngs Moduli (GPa) = 54.97710 54.97710 213.62881
#
# Poissons Ratio (x) = 0.39636 0.29315
# Poissons Ratio (y) = 0.39636 0.29315
# Poissons Ratio (z) = 0.07544 0.07544
#
# Static dielectric constant tensor:
#      x y z
#    x 1.851970 0.000000 0.000000 
#    y 0.000000 1.851970 0.000000 
#    z 0.000000 0.000000 1.964150 
# 
# From -- ./inp_files/1354.got.cif
#   From: 2010.05.17/outbox.cif.g08.bks.cpg/sg176_1_cif.got.tgz:1354.got - 2010.06.03 11:36:45.
