data_PCOD9581474
_publ_section_title
;
Structure prediction by ZEFSAII (Michael W. Deem and Ramdas Pophale) SiO2 
 PCOD9581474
Probable space group: P 6/M
;
_chemical_formula_sum "Si O2"
_cell_formula_units_Z 46
_cell_length_a 20.940732
_cell_length_b 20.940732
_cell_length_c 7.212030
_cell_angle_alpha 90.000000
_cell_angle_beta 90.000000
_cell_angle_gamma 120.000000
_cell_volume 2738.872868
_symmetry_space_group_name_H-M "P 6/M"
_symmetry_group_IT_number 175
_symmetry_cell_setting 'hexagonal'
loop_
_space_group_symop_operation_xyz
x,y,z
x-y,x,z
-y,x-y,z
-x,-y,z
-x+y,-x,z
y,-x+y,z
-x,-y,-z
-x+y,-x,-z
y,-x+y,-z
x,y,-z
x-y,x,-z
-y,x-y,-z
loop_
_atom_site_type_symbol
_atom_site_label
_atom_site_fract_x
_atom_site_fract_y
_atom_site_fract_z
Si Si1 0.085340 0.426228 0.000000
Si Si2 0.311225 0.082987 0.279098
Si Si3 0.666668 0.333335 0.724873
Si Si4 0.311217 0.228257 0.279098
Si Si5 0.599088 0.198159 0.000000
Si Si6 0.085376 0.659136 0.000000
O O1 0.095166 0.384034 0.825012
O O2 0.145161 0.511376 0.000000
O O3 0.999981 0.406617 0.000000
O O4 0.322068 0.086327 0.500000
O O5 0.294210 0.147116 0.226480
O O6 0.248054 0.000012 0.231547
O O7 0.384043 0.095198 0.174988
O O8 0.666667 0.333334 0.500000
O O9 0.626055 0.252074 0.820327
O O10 0.322060 0.235761 0.500000
O O11 0.511388 0.145197 0.000000
#
# Coordination Sequence:
#
# PCOD9581474 Si02
#       6
#     6  12   4  12   6   6
#     4  10  20  35  55  80 106 131 167 216 265 310
#     4   9  18  31  50  76 105 138 174 212 256 304
#     4  10  26  43  55  77 106 142 182 214 250 311
#     4   9  18  31  50  76 105 138 174 212 256 304
#     4  10  23  40  58  78 102 134 178 212 262 316
#     4  10  20  35  55  80 106 131 167 216 265 310
#
# _framework density 16.795228999999999
#
# number of rings (size 3 to 8) (size 9 to 14) (size 15 to 20)
#    0.000    2.609    0.000    1.174    7.304    2.087 
#    0.000    0.000    0.000    8.348    0.000    3.652 
#    0.000    6.261    0.000    0.522    0.000    0.000 
#
# Total GULP energy -256383.364730 kJ/mol
# GULP energy per Si atom -5573.551407 kJ/mol
# Density = 1.675700 g / cm^3
# Si number density = 16.795229 Si / 1000 Ang^3
#
#
#
# Elastic Constant Matrix: (Units=GPa)
#
#
# Indices 1 2 3 4 5 6 
#
# 1 158.2692 103.2780 50.2337 0.0000 0.0000 0.0001
# 2 103.2780 158.2683 50.2334 0.0000 0.0000 0.0000
# 3 50.2337 50.2334 105.2919 0.0000 0.0000 0.0000
# 4 0.0000 0.0000 0.0000 13.8183 0.0000 0.0000
# 5 0.0000 0.0000 0.0000 0.0000 13.8185 0.0000
# 6 0.0001 0.0000 0.0000 0.0000 0.0000 27.4957
#
#
#
# Elastic Compliance Matrix: (Units=1/GPa)
#
#
# Indices 1 2 3 4 5 6 
#
# 1 0.011433 -0.006752 -0.002233 0.000000 0.000000 0.000000
# 2 -0.006752 0.011433 -0.002233 0.000000 0.000000 0.000000
# 3 -0.002233 -0.002233 0.011628 0.000000 0.000000 0.000000
# 4 0.000000 0.000000 0.000000 0.072368 0.000000 0.000000
# 5 0.000000 0.000000 0.000000 0.000000 0.072367 0.000000
# 6 0.000000 0.000000 0.000000 0.000000 0.000000 0.036369
#
#
# Mechanical properties :
#
#
# Convention : Reuss Voigt Hill
#
# Bulk Modulus (GPa) = 82.93595 92.14661 87.54128
# Shear Modulus (GPa) = 20.65648 25.56546 23.11097
#
# Velocity S-wave (km/s) = 3.51080 3.90575 3.71353
# Velocity P-wave (km/s) = 8.11925 8.67892 8.40375
#
# Compressibility (1/GPa) = 0.01205750
#
# Stress axis : x y z
#
# Youngs Moduli (GPa) = 87.46556 87.46514 85.99586
#
# Poissons Ratio (x) = 0.59055 0.19206
# Poissons Ratio (y) = 0.59055 0.19206
# Poissons Ratio (z) = 0.19535 0.19534
#
# Static dielectric constant tensor:
#      x y z
#    x 1.558490 0.000000 0.000000 
#    y 0.000000 1.558500 0.000000 
#    z 0.000000 0.000000 1.588600 
# 
# From -- ./inp_files/614.got.cif
#   From: 2010.05.17/outbox.cif.g08.bks.cpg/sg175_1_cif.got.tgz:614.got - 2010.05.20 11:23:22.
