data_PCOD9581829
_publ_section_title
;
Structure prediction by ZEFSAII (Michael W. Deem and Ramdas Pophale) SiO2 
 PCOD9581829
Probable space group: P 63/M
;
_chemical_formula_sum "Si O2"
_cell_formula_units_Z 72
_cell_length_a 23.696669
_cell_length_b 23.696669
_cell_length_c 7.844453
_cell_angle_alpha 90.000000
_cell_angle_beta 90.000000
_cell_angle_gamma 120.000000
_cell_volume 3814.765985
_symmetry_space_group_name_H-M "P 63/M"
_symmetry_group_IT_number 176
_symmetry_cell_setting 'hexagonal'
loop_
_space_group_symop_operation_xyz
x,y,z
x-y,x,1/2+z
-y,x-y,z
-x,-y,1/2+z
-x+y,-x,z
y,-x+y,1/2+z
-x,-y,-z
-x+y,-x,1/2-z
y,-x+y,-z
x,y,1/2-z
x-y,x,-z
-y,x-y,1/2-z
loop_
_atom_site_type_symbol
_atom_site_label
_atom_site_fract_x
_atom_site_fract_y
_atom_site_fract_z
Si Si1 0.863803 0.887471 0.446576
Si Si2 0.929788 0.397683 0.454145
Si Si3 0.079483 0.482717 0.455633
Si Si4 0.254468 0.249168 0.958717
Si Si5 0.377069 0.124630 0.044616
Si Si6 0.871407 0.609931 0.954895
O O1 0.877729 0.951832 0.544426
O O2 0.850982 0.896555 0.250000
O O3 0.802246 0.821579 0.513719
O O4 0.933635 0.394388 0.250000
O O5 0.900561 0.444325 0.493527
O O6 0.890860 0.323657 0.517611
O O7 0.004850 0.435620 0.517397
O O8 0.077867 0.480870 0.250000
O O9 0.122999 0.451974 0.515410
O O10 0.253800 0.249439 0.750000
O O11 0.242549 0.307489 0.015093
O O12 0.324309 0.260157 0.014233
O O13 0.376107 0.121422 0.250000
O O14 0.388648 0.195133 0.998844
O O15 0.875380 0.610602 0.750000
#
# Coordination Sequence:
#
# PCOD9581829 Si02
#       6
#    12  12  12  12  12  12
#     4  11  22  36  53  70  91 123 166 213 256 305
#     4   9  17  31  52  75 102 133 165 203 249 298
#     4   9  17  31  52  75 102 133 165 203 249 298
#     4   9  18  34  53  72 100 135 166 203 258 309
#     4  10  19  33  52  76 106 139 170 206 253 303
#     4  10  19  33  52  76 106 139 170 206 253 303
#
# _framework density 18.874027000000002
#
# number of rings (size 3 to 8) (size 9 to 14) (size 15 to 20)
#    0.000    2.333    1.667    1.667    0.000    1.333 
#    0.000    2.500    0.000    0.667    0.000    0.000 
#    0.000    0.000    0.000    0.000    0.000    0.000 
#
# Total GULP energy -401787.996083 kJ/mol
# GULP energy per Si atom -5580.388834 kJ/mol
# Density = 1.883107 g / cm^3
# Si number density = 18.874027 Si / 1000 Ang^3
#
#
#
# Elastic Constant Matrix: (Units=GPa)
#
#
# Indices 1 2 3 4 5 6 
#
# 1 62.2394 5.6382 -7.6127 0.0000 0.0000 0.0000
# 2 5.6382 62.2394 -7.6127 0.0000 0.0000 0.0000
# 3 -7.6127 -7.6127 19.6616 0.0000 0.0000 0.0000
# 4 0.0000 0.0000 0.0000 9.9246 0.0000 0.0000
# 5 0.0000 0.0000 0.0000 0.0000 9.9246 0.0000
# 6 0.0000 0.0000 0.0000 0.0000 0.0000 28.3006
#
#
#
# Elastic Compliance Matrix: (Units=1/GPa)
#
#
# Indices 1 2 3 4 5 6 
#
# 1 0.016901 -0.000767 0.006247 0.000000 0.000000 0.000000
# 2 -0.000767 0.016901 0.006247 0.000000 0.000000 0.000000
# 3 0.006247 0.006247 0.055698 0.000000 0.000000 0.000000
# 4 0.000000 0.000000 0.000000 0.100760 0.000000 0.000000
# 5 0.000000 0.000000 0.000000 0.000000 0.100760 0.000000
# 6 0.000000 0.000000 0.000000 0.000000 0.000000 0.035335
#
#
# Mechanical properties :
#
#
# Convention : Reuss Voigt Hill
#
# Bulk Modulus (GPa) = 8.85331 13.88511 11.36921
# Shear Modulus (GPa) = 14.68205 19.87845 17.28025
#
# Velocity S-wave (km/s) = 2.79211 3.24885 3.02910
# Velocity P-wave (km/s) = 3.88528 4.63099 4.27443
#
# Compressibility (1/GPa) = 0.11295213
#
# Stress axis : x y z
#
# Youngs Moduli (GPa) = 59.16976 59.16976 17.95396
#
# Poissons Ratio (x) = 0.04538 -0.11215
# Poissons Ratio (y) = 0.04538 -0.11215
# Poissons Ratio (z) = -0.36962 -0.36962
#
# Static dielectric constant tensor:
#      x y z
#    x 1.646670 0.000000 0.000000 
#    y 0.000000 1.646670 0.000000 
#    z 0.000000 0.000000 1.697720 
# 
# From -- ./inp_files/1226.got.cif
#   From: 2010.05.17/outbox.cif.g08.bks.cpg/sg176_1_cif.got.tgz:1226.got - 2010.06.03 11:36:45.
