data_PCOD9581275
_publ_section_title
;
Structure prediction by ZEFSAII (Michael W. Deem and Ramdas Pophale) SiO2 
 PCOD9581275
Probable space group: P 6/M
;
_chemical_formula_sum "Si O2"
_cell_formula_units_Z 84
_cell_length_a 17.567563
_cell_length_b 17.567563
_cell_length_c 14.610630
_cell_angle_alpha 90.000000
_cell_angle_beta 90.000000
_cell_angle_gamma 120.000000
_cell_volume 3905.014167
_symmetry_space_group_name_H-M "P 6/M"
_symmetry_group_IT_number 175
_symmetry_cell_setting 'hexagonal'
loop_
_space_group_symop_operation_xyz
x,y,z
x-y,x,z
-y,x-y,z
-x,-y,z
-x+y,-x,z
y,-x+y,z
-x,-y,-z
-x+y,-x,-z
y,-x+y,-z
x,y,-z
x-y,x,-z
-y,x-y,-z
loop_
_atom_site_type_symbol
_atom_site_label
_atom_site_fract_x
_atom_site_fract_y
_atom_site_fract_z
Si Si1 0.447100 0.101430 0.099842
Si Si2 0.494691 0.862303 0.700372
Si Si3 0.478267 0.306332 0.701311
Si Si4 0.576004 0.734094 0.900703
Si Si5 0.026030 0.838072 0.704146
Si Si6 0.235702 0.994212 0.101411
Si Si7 0.331968 0.999079 0.608026
O O1 0.489522 0.099657 0.195587
O O2 0.461302 0.199526 0.096095
O O3 0.341760 0.040195 0.107723
O O4 0.474719 0.084098 0.000000
O O5 0.511934 0.779900 0.696463
O O6 0.395027 0.829614 0.672829
O O7 0.567192 0.939728 0.638438
O O8 0.459263 0.318154 0.807556
O O9 0.396925 0.297353 0.643499
O O10 0.682041 0.790204 0.892494
O O11 0.556654 0.688270 0.000000
O O12 0.021751 0.822773 0.813659
O O13 0.034963 0.759998 0.658791
O O14 0.932459 0.827019 0.678014
O O15 0.212971 0.011550 0.000000
O O16 0.322688 0.000832 0.500000
#
# Coordination Sequence:
#
# PCOD9581275 Si02
#       7
#    12  12  12  12  12  12  12
#     4   9  17  31  54  87 127 170 212 250 294 358
#     4  11  23  41  66  99 135 170 211 264 323 381
#     4  11  23  41  66  99 135 170 211 264 323 381
#     4   9  17  31  54  87 127 170 212 250 294 358
#     4  12  25  43  67  98 132 167 209 263 323 383
#     4  10  18  32  59  93 128 170 217 261 304 359
#     4  12  27  48  72  92 118 164 219 269 324 396
#
# _framework density 21.510805000000001
#
# number of rings (size 3 to 8) (size 9 to 14) (size 15 to 20)
#    0.000    1.429    2.857    2.571    0.000    5.714 
#    0.000    0.000    0.000    9.429    0.000    0.000 
#    0.000    0.000    0.000    0.000    0.000    0.000 
#
# Total GULP energy -469417.730553 kJ/mol
# GULP energy per Si atom -5588.306316 kJ/mol
# Density = 2.146185 g / cm^3
# Si number density = 21.510805 Si / 1000 Ang^3
#
#
#
# Elastic Constant Matrix: (Units=GPa)
#
#
# Indices 1 2 3 4 5 6 
#
# 1 67.9148 6.0785 13.8322 0.0000 0.0000 0.0000
# 2 6.0785 67.9148 13.8322 0.0000 0.0000 0.0000
# 3 13.8322 13.8322 99.4489 0.0000 0.0000 0.0000
# 4 0.0000 0.0000 0.0000 -9.5201 0.0000 0.0000
# 5 0.0000 0.0000 0.0000 0.0000 -9.5201 0.0000
# 6 0.0000 0.0000 0.0000 0.0000 0.0000 30.9182
#
#
#
# Elastic Compliance Matrix: (Units=1/GPa)
#
#
# Indices 1 2 3 4 5 6 
#
# 1 0.015214 -0.000958 -0.001983 0.000000 0.000000 0.000000
# 2 -0.000958 0.015214 -0.001983 0.000000 0.000000 0.000000
# 3 -0.001983 -0.001983 0.010607 0.000000 0.000000 0.000000
# 4 0.000000 0.000000 0.000000 -0.105041 0.000000 0.000000
# 5 0.000000 0.000000 0.000000 0.000000 -0.105041 0.000000
# 6 0.000000 0.000000 0.000000 0.000000 0.000000 0.032343
#
#
# Mechanical properties :
#
#
# Convention : Reuss Voigt Hill
#
# Bulk Modulus (GPa) = 32.06385 33.64045 32.85215
# Shear Modulus (GPa) = -42.93302 15.81130 -13.56086
#
# Velocity S-wave (km/s) = -4.47238 2.71410 -2.51354
# Velocity P-wave (km/s) = 3.42509 5.04922 2.62330
#
# Compressibility (1/GPa) = 0.03118777
#
# Stress axis : x y z
#
# Youngs Moduli (GPa) = 65.72933 65.72933 94.27737
#
# Poissons Ratio (x) = 0.06296 0.18694
# Poissons Ratio (y) = 0.06296 0.18694
# Poissons Ratio (z) = 0.13033 0.13033
#
# Static dielectric constant tensor:
#      x y z
#    x 1.806750 0.000000 0.000000 
#    y 0.000000 1.806750 0.000000 
#    z 0.000000 0.000000 1.780570 
# 
# From -- ./inp_files/2633.got.cif
#   From: 2010.05.17/outbox.cif.g08.bks.cpg/sg175_2_cif.got.tgz:2633.got - 2010.05.20 11:23:22.
