data_PCOD9581704
_publ_section_title
;
Structure prediction by ZEFSAII (Michael W. Deem and Ramdas Pophale) SiO2 
 PCOD9581704
Probable space group: P 6/M
;
_chemical_formula_sum "Si O2"
_cell_formula_units_Z 42
_cell_length_a 16.904747
_cell_length_b 16.904747
_cell_length_c 7.923366
_cell_angle_alpha 90.000000
_cell_angle_beta 90.000000
_cell_angle_gamma 120.000000
_cell_volume 1960.910175
_symmetry_space_group_name_H-M "P 6/M"
_symmetry_group_IT_number 175
_symmetry_cell_setting 'hexagonal'
loop_
_space_group_symop_operation_xyz
x,y,z
x-y,x,z
-y,x-y,z
-x,-y,z
-x+y,-x,z
y,-x+y,z
-x,-y,-z
-x+y,-x,-z
y,-x+y,-z
x,y,-z
x-y,x,-z
-y,x-y,-z
loop_
_atom_site_type_symbol
_atom_site_label
_atom_site_fract_x
_atom_site_fract_y
_atom_site_fract_z
Si Si1 0.840699 0.187458 0.684557
Si Si2 0.438199 0.352395 0.802704
Si Si3 0.370770 0.499774 0.196539
Si Si4 0.926013 0.142093 0.000000
O O1 0.878080 0.187836 0.500000
O O2 0.737274 0.105595 0.704768
O O3 0.828841 0.276055 0.707622
O O4 0.900311 0.181313 0.835754
O O5 0.543578 0.405381 0.742632
O O6 0.405793 0.426581 0.798235
O O7 0.436798 0.326651 0.000000
O O8 0.354301 0.511839 0.000000
O O9 0.032327 0.171834 0.000000
#
# Coordination Sequence:
#
# PCOD9581704 Si02
#       4
#    12  12  12   6
#     4  12  24  39  65  99 130 168 214 262 320 395
#     4   9  18  36  62  89 120 160 204 251 303 362
#     4   9  18  36  62  89 120 160 204 251 303 362
#     4  12  27  48  70  94 126 166 218 284 349 406
#
# _framework density 21.418627000000001
#
# number of rings (size 3 to 8) (size 9 to 14) (size 15 to 20)
#    0.000    1.714    2.857    3.571    0.000    5.714 
#    1.714    2.857    0.000    1.714    0.000    0.000 
#    0.000    0.000    0.000    0.000    0.000    0.000 
#
# Total GULP energy -234585.414572 kJ/mol
# GULP energy per Si atom -5585.367014 kJ/mol
# Density = 2.136988 g / cm^3
# Si number density = 21.418627 Si / 1000 Ang^3
#
#
#
# Elastic Constant Matrix: (Units=GPa)
#
#
# Indices 1 2 3 4 5 6 
#
# 1 66.8042 4.2282 27.1154 0.0000 0.0000 0.0000
# 2 4.2282 66.8042 27.1154 0.0000 0.0000 0.0000
# 3 27.1154 27.1154 118.3957 0.0000 0.0000 0.0000
# 4 0.0000 0.0000 0.0000 -22.7547 0.0000 0.0000
# 5 0.0000 0.0000 0.0000 0.0000 -22.7547 0.0000
# 6 0.0000 0.0000 0.0000 0.0000 0.0000 31.2880
#
#
#
# Elastic Compliance Matrix: (Units=1/GPa)
#
#
# Indices 1 2 3 4 5 6 
#
# 1 0.016521 0.000540 -0.003907 0.000000 0.000000 0.000000
# 2 0.000540 0.016521 -0.003907 0.000000 0.000000 0.000000
# 3 -0.003907 -0.003907 0.010236 0.000000 0.000000 0.000000
# 4 0.000000 0.000000 0.000000 -0.043947 0.000000 0.000000
# 5 0.000000 0.000000 0.000000 0.000000 -0.043947 0.000000
# 6 0.000000 0.000000 0.000000 0.000000 0.000000 0.031961
#
#
# Mechanical properties :
#
#
# Convention : Reuss Voigt Hill
#
# Bulk Modulus (GPa) = 34.80821 40.99136 37.89978
# Shear Modulus (GPa) = 435.90894 10.05874 222.98384
#
# Velocity S-wave (km/s) = 14.28147 2.16944 10.21437
# Velocity P-wave (km/s) = 16.97745 5.04529 12.52376
#
# Compressibility (1/GPa) = 0.02872886
#
# Stress axis : x y z
#
# Youngs Moduli (GPa) = 60.52929 60.52929 97.69404
#
# Poissons Ratio (x) = -0.03271 0.38173
# Poissons Ratio (y) = -0.03271 0.38173
# Poissons Ratio (z) = 0.23651 0.23651
#
# Static dielectric constant tensor:
#      x y z
#    x 1.822890 0.000000 0.000000 
#    y 0.000000 1.822890 0.000000 
#    z 0.000000 0.000000 1.790600 
# 
# From -- ./inp_files/441.got.cif
#   From: 2010.05.17/outbox.cif.g08.bks.cpg/sg175_1_cif.got.tgz:441.got - 2010.05.20 11:23:22.
