data_PCOD9581051
_publ_section_title
;
Structure prediction by ZEFSAII (Michael W. Deem and Ramdas Pophale) SiO2 
 PCOD9581051
Probable space group: P 63
;
_chemical_formula_sum "Si O2"
_cell_formula_units_Z 36
_cell_length_a 8.482608
_cell_length_b 8.482608
_cell_length_c 29.910733
_cell_angle_alpha 90.000000
_cell_angle_beta 90.000000
_cell_angle_gamma 120.000000
_cell_volume 1863.873713
_symmetry_space_group_name_H-M "P 63"
_symmetry_group_IT_number 173
_symmetry_cell_setting 'hexagonal'
loop_
_space_group_symop_operation_xyz
x,y,z
x-y,x,1/2+z
-y,x-y,z
-x,-y,1/2+z
-x+y,-x,z
y,-x+y,1/2+z
loop_
_atom_site_type_symbol
_atom_site_label
_atom_site_fract_x
_atom_site_fract_y
_atom_site_fract_z
Si Si1 0.343920 0.464584 0.669150
Si Si2 0.671221 0.128180 0.484935
Si Si3 0.670587 0.127873 0.751767
Si Si4 0.998684 0.666195 0.387615
Si Si5 0.464605 0.120570 0.067537
Si Si6 0.666940 0.668252 0.349241
O O1 0.507056 0.676171 0.673829
O O2 0.363018 0.344851 0.707134
O O3 0.348151 0.405424 0.618350
O O4 0.837670 0.335972 0.483675
O O5 0.673694 0.024165 0.440781
O O6 0.655415 0.018611 0.529640
O O7 0.837404 0.335444 0.752975
O O8 0.671359 0.024121 0.796114
O O9 0.867255 0.729961 0.366082
O O10 0.200305 0.803467 0.371197
O O11 0.936176 0.467706 0.368013
O O12 0.676252 0.169172 0.062848
#
# Coordination Sequence:
#
# PCOD9581051 Si02
#       6
#     6   6   6   6   6   6
#     4   8  18  35  57  85 113 152 200 245 304 364
#     4  10  21  36  55  90 117 154 207 247 311 364
#     4  10  21  36  55  90 117 154 207 247 311 364
#     4  12  24  42  60  88 125 165 211 265 316 380
#     4   8  18  35  57  85 113 152 200 245 304 364
#     4  12  24  42  60  88 125 165 211 265 316 380
#
# _framework density 19.314613000000001
#
# number of rings (size 3 to 8) (size 9 to 14) (size 15 to 20)
#    1.333    0.667    3.333    1.000    4.667    1.333 
#    0.000    0.000    0.000    1.333    0.000    0.000 
#    0.000    0.000    0.000    0.000    0.000    0.000 
#
# Total GULP energy -200515.478576 kJ/mol
# GULP energy per Si atom -5569.874405 kJ/mol
# Density = 1.927065 g / cm^3
# Si number density = 19.314613 Si / 1000 Ang^3
#
#
#
# Elastic Constant Matrix: (Units=GPa)
#
#
# Indices 1 2 3 4 5 6 
#
# 1 42.4968 1.9959 36.5851 0.0000 0.0000 0.0000
# 2 1.9959 42.4968 36.5851 0.0000 0.0000 0.0000
# 3 36.5851 36.5851 191.1231 0.0000 0.0000 0.0000
# 4 0.0000 0.0000 0.0000-1098.2479 0.0004 0.0000
# 5 0.0000 0.0000 0.0000 0.0004-1098.2484 0.0000
# 6 0.0000 0.0000 0.0000 0.0000 0.0000 20.2505
#
#
#
# Elastic Compliance Matrix: (Units=1/GPa)
#
#
# Indices 1 2 3 4 5 6 
#
# 1 0.028746 0.004055 -0.006279 0.000000 0.000000 0.000000
# 2 0.004055 0.028746 -0.006279 0.000000 0.000000 0.000000
# 3 -0.006279 -0.006279 0.007636 0.000000 0.000000 0.000000
# 4 0.000000 0.000000 0.000000 -0.000911 0.000000 0.000000
# 5 0.000000 0.000000 0.000000 0.000000 -0.000911 0.000000
# 6 0.000000 0.000000 0.000000 0.000000 0.000000 0.049382
#
#
# Mechanical properties :
#
#
# Convention : Reuss Voigt Hill
#
# Bulk Modulus (GPa) = 20.77986 47.38323 34.08154
# Shear Modulus (GPa) = 34.30886 -421.85244 -193.77179
#
# Velocity S-wave (km/s) = 4.21921 -14.79477 -10.02705
# Velocity P-wave (km/s) = 5.87517 16.34813 10.78758
#
# Compressibility (1/GPa) = 0.04812352
#
# Stress axis : x y z
#
# Youngs Moduli (GPa) = 34.78723 34.78723 130.95722
#
# Poissons Ratio (x) = -0.14108 0.82227
# Poissons Ratio (y) = -0.14108 0.82227
# Poissons Ratio (z) = 0.21843 0.21843
#
# Static dielectric constant tensor:
#      x y z
#    x 2.743970 0.000000 0.000000 
#    y 0.000000 2.743980 0.000000 
#    z 0.000000 0.000000 1.639180 
# 
# From -- ./inp_files/1482.got.cif
#   From: 2010.05.17/outbox.cif.g08.bks.cpg/sg173_cif.got.tgz:1482.got - 2010.05.20 11:21:53.
