data_PCOD9581904
_publ_section_title
;
Structure prediction by ZEFSAII (Michael W. Deem and Ramdas Pophale) SiO2 
 PCOD9581904
Probable space group: P 63/M
;
_chemical_formula_sum "Si O2"
_cell_formula_units_Z 46
_cell_length_a 13.976051
_cell_length_b 13.976051
_cell_length_c 14.506635
_cell_angle_alpha 90.000000
_cell_angle_beta 90.000000
_cell_angle_gamma 120.000000
_cell_volume 2453.953162
_symmetry_space_group_name_H-M "P 63/M"
_symmetry_group_IT_number 176
_symmetry_cell_setting 'hexagonal'
loop_
_space_group_symop_operation_xyz
x,y,z
x-y,x,1/2+z
-y,x-y,z
-x,-y,1/2+z
-x+y,-x,z
y,-x+y,1/2+z
-x,-y,-z
-x+y,-x,1/2-z
y,-x+y,-z
x,y,1/2-z
x-y,x,-z
-y,x-y,1/2-z
loop_
_atom_site_type_symbol
_atom_site_label
_atom_site_fract_x
_atom_site_fract_y
_atom_site_fract_z
Si Si1 0.897301 0.102699 0.250000
Si Si2 0.000000 0.000000 0.113039
Si Si3 0.936093 0.287104 0.750000
Si Si4 0.712896 0.063907 0.750000
Si Si5 0.110088 0.444155 0.050709
Si Si6 0.444155 0.110087 0.550709
O O1 0.938766 0.061234 0.339277
O O2 0.952554 0.234298 0.250000
O O3 0.765702 0.047446 0.250000
O O4 0.000000 0.000000 0.000000
O O5 0.841231 0.158769 0.750000
O O6 0.916278 0.338202 0.658900
O O7 0.661798 0.083722 0.658901
O O8 0.217243 0.434486 0.029778
O O9 0.129970 0.564985 0.026226
O O10 0.000000 0.354355 1.000000
#
# Coordination Sequence:
#
# PCOD9581904 Si02
#       6
#     6   4   6   6  12  12
#     4  10  20  36  48  84 120 154 202 244 276 378
#     4  10  20  34  52  74 124 172 194 232 289 356
#     4  10  20  36  55  81 115 150 196 241 294 347
#     4  10  20  36  55  81 115 150 196 241 294 347
#     4  10  22  39  61  88 117 155 199 246 298 356
#     4  10  22  39  61  88 117 155 199 246 298 356
#
# _framework density 18.745262
#
# number of rings (size 3 to 8) (size 9 to 14) (size 15 to 20)
#    0.000    2.087    2.609    1.304    3.652    2.087 
#    0.000    2.609    0.000    0.522    0.000    0.000 
#    0.000    0.000    0.000    0.000    0.000    0.000 
#
# Total GULP energy -256668.910813 kJ/mol
# GULP energy per Si atom -5579.758931 kJ/mol
# Density = 1.870260 g / cm^3
# Si number density = 18.745262 Si / 1000 Ang^3
#
#
#
# Elastic Constant Matrix: (Units=GPa)
#
#
# Indices 1 2 3 4 5 6 
#
# 1 96.9043 57.2301 20.2747 0.0000 0.0000 0.0000
# 2 57.2301 96.9043 20.2747 0.0000 0.0000 0.0000
# 3 20.2747 20.2747 84.4293 0.0000 0.0000 0.0000
# 4 0.0000 0.0000 0.0000 16.2028 0.0000 0.0000
# 5 0.0000 0.0000 0.0000 0.0000 16.2028 0.0000
# 6 0.0000 0.0000 0.0000 0.0000 0.0000 19.8371
#
#
#
# Elastic Compliance Matrix: (Units=1/GPa)
#
#
# Indices 1 2 3 4 5 6 
#
# 1 0.016065 -0.009140 -0.001663 0.000000 0.000000 0.000000
# 2 -0.009140 0.016065 -0.001663 0.000000 0.000000 0.000000
# 3 -0.001663 -0.001663 0.012643 0.000000 0.000000 0.000000
# 4 0.000000 0.000000 0.000000 0.061718 0.000000 0.000000
# 5 0.000000 0.000000 0.000000 0.000000 0.061718 0.000000
# 6 0.000000 0.000000 0.000000 0.000000 0.000000 0.050411
#
#
# Mechanical properties :
#
#
# Convention : Reuss Voigt Hill
#
# Bulk Modulus (GPa) = 50.39945 52.64411 51.52178
# Shear Modulus (GPa) = 19.98674 22.47908 21.23291
#
# Velocity S-wave (km/s) = 3.26886 3.46669 3.36922
# Velocity P-wave (km/s) = 6.41811 6.64596 6.53303
#
# Compressibility (1/GPa) = 0.01984149
#
# Stress axis : x y z
#
# Youngs Moduli (GPa) = 62.24580 62.24580 79.09546
#
# Poissons Ratio (x) = 0.56893 0.13154
# Poissons Ratio (y) = 0.56893 0.13154
# Poissons Ratio (z) = 0.10352 0.10352
#
# Static dielectric constant tensor:
#      x y z
#    x 1.654670 0.000000 0.000000 
#    y 0.000000 1.654670 0.000000 
#    z 0.000000 0.000000 1.669140 
# 
# From -- ./inp_files/2531.got.cif
#   From: 2010.05.17/outbox.cif.g08.bks.cpg/sg176_2_cif.got.tgz:2531.got - 2010.06.03 11:36:45.
