data_PCOD9581394
_publ_section_title
;
Structure prediction by ZEFSAII (Michael W. Deem and Ramdas Pophale) SiO2 
 PCOD9581394
Probable space group: P 6/M
;
_chemical_formula_sum "Si O2"
_cell_formula_units_Z 46
_cell_length_a 18.346310
_cell_length_b 18.346310
_cell_length_c 9.252546
_cell_angle_alpha 90.000000
_cell_angle_beta 90.000000
_cell_angle_gamma 120.000000
_cell_volume 2697.052123
_symmetry_space_group_name_H-M "P 6/M"
_symmetry_group_IT_number 175
_symmetry_cell_setting 'hexagonal'
loop_
_space_group_symop_operation_xyz
x,y,z
x-y,x,z
-y,x-y,z
-x,-y,z
-x+y,-x,z
y,-x+y,z
-x,-y,-z
-x+y,-x,-z
y,-x+y,-z
x,y,-z
x-y,x,-z
-y,x-y,-z
loop_
_atom_site_type_symbol
_atom_site_label
_atom_site_fract_x
_atom_site_fract_y
_atom_site_fract_z
Si Si1 0.333333 0.666667 0.825476
Si Si2 0.794106 0.273856 0.826164
Si Si3 0.351488 0.268120 0.163462
Si Si4 0.152480 0.962285 0.000000
Si Si5 0.402323 0.437190 0.672361
O O1 0.430667 0.715230 0.781317
O O2 0.333334 0.666668 0.000000
O O3 0.777449 0.180879 0.793465
O O4 0.876210 0.344424 0.748136
O O5 0.805132 0.285143 0.000000
O O6 0.253157 0.201357 0.134793
O O7 0.371389 0.343895 0.268523
O O8 0.382190 0.303949 0.000000
O O9 0.165299 0.055225 0.000000
O O10 0.500000 0.500000 0.709312
O O11 0.393742 0.436543 0.500000
#
# Coordination Sequence:
#
# PCOD9581394 Si02
#       5
#     4  12  12   6  12
#     4   9  18  30  52  80 109 141 190 227 277 318
#     4  10  19  35  56  80 107 142 183 234 274 325
#     4   9  20  35  58  81 108 141 183 235 279 331
#     4  10  19  34  57  86 112 136 170 222 282 340
#     4  11  23  36  52  78 113 151 188 226 276 332
#
# _framework density 17.055657
#
# number of rings (size 3 to 8) (size 9 to 14) (size 15 to 20)
#    0.783    1.304    0.000    4.043    0.000    5.217 
#    0.000    1.304    0.000    0.000    0.000    0.000 
#    0.000    4.174    0.000    0.000    0.000    0.000 
#
# Total GULP energy -256401.039298 kJ/mol
# GULP energy per Si atom -5573.935637 kJ/mol
# Density = 1.701684 g / cm^3
# Si number density = 17.055657 Si / 1000 Ang^3
#
#
#
# Elastic Constant Matrix: (Units=GPa)
#
#
# Indices 1 2 3 4 5 6 
#
# 1 122.8524 54.9561 24.6577 0.0000 0.0000 -0.0005
# 2 54.9561 122.8519 24.6576 0.0000 0.0000 -0.0005
# 3 24.6577 24.6576 18.5246 0.0000 0.0000 -0.0004
# 4 0.0000 0.0000 0.0000 9.9485 -0.0001 0.0000
# 5 0.0000 0.0000 0.0000 -0.0001 9.9484 0.0000
# 6 -0.0005 -0.0005 -0.0004 0.0000 0.0000 33.9482
#
#
#
# Elastic Compliance Matrix: (Units=1/GPa)
#
#
# Indices 1 2 3 4 5 6 
#
# 1 0.011822 -0.002907 -0.011867 0.000000 0.000000 0.000000
# 2 -0.002907 0.011822 -0.011867 0.000000 0.000000 0.000000
# 3 -0.011867 -0.011867 0.085574 0.000000 0.000000 0.000001
# 4 0.000000 0.000000 0.000000 0.100518 0.000001 0.000000
# 5 0.000000 0.000000 0.000000 0.000001 0.100519 0.000000
# 6 0.000000 0.000000 0.000001 0.000000 0.000000 0.029457
#
#
# Mechanical properties :
#
#
# Convention : Reuss Voigt Hill
#
# Bulk Modulus (GPa) = 17.87730 52.53020 35.20375
# Shear Modulus (GPa) = 12.14657 21.43284 16.78971
#
# Velocity S-wave (km/s) = 2.67155 3.54876 3.14093
# Velocity P-wave (km/s) = 4.47445 6.90346 5.81715
#
# Compressibility (1/GPa) = 0.05593686
#
# Stress axis : x y z
#
# Youngs Moduli (GPa) = 84.58906 84.58866 11.68574
#
# Poissons Ratio (x) = 0.24586 0.13868
# Poissons Ratio (y) = 0.24586 0.13868
# Poissons Ratio (z) = 1.00382 1.00382
#
# Static dielectric constant tensor:
#      x y z
#    x 1.574510 0.000000 0.000000 
#    y 0.000000 1.574510 0.000000 
#    z 0.000000 0.000000 1.559670 
# 
# From -- ./inp_files/598.got.cif
#   From: 2010.05.17/outbox.cif.g08.bks.cpg/sg175_1_cif.got.tgz:598.got - 2010.05.20 11:23:22.
