data_PCOD9581637
_publ_section_title
;
Structure prediction by ZEFSAII (Michael W. Deem and Ramdas Pophale) SiO2 
 PCOD9581637
Probable space group: P 6/M
;
_chemical_formula_sum "Si O2"
_cell_formula_units_Z 46
_cell_length_a 18.193659
_cell_length_b 18.193659
_cell_length_c 7.717431
_cell_angle_alpha 90.000000
_cell_angle_beta 90.000000
_cell_angle_gamma 120.000000
_cell_volume 2212.297294
_symmetry_space_group_name_H-M "P 6/M"
_symmetry_group_IT_number 175
_symmetry_cell_setting 'hexagonal'
loop_
_space_group_symop_operation_xyz
x,y,z
x-y,x,z
-y,x-y,z
-x,-y,z
-x+y,-x,z
y,-x+y,z
-x,-y,-z
-x+y,-x,-z
y,-x+y,-z
x,y,-z
x-y,x,-z
-y,x-y,-z
loop_
_atom_site_type_symbol
_atom_site_label
_atom_site_fract_x
_atom_site_fract_y
_atom_site_fract_z
Si Si1 0.245453 0.920748 0.697120
Si Si2 0.194282 0.144651 0.000000
Si Si3 0.666668 0.333335 0.787757
Si Si4 0.777101 0.254430 0.201993
Si Si5 0.556955 0.960094 0.290980
O O1 0.235910 0.943073 0.500000
O O2 0.188106 0.935535 0.832080
O O3 0.222371 0.823086 0.703937
O O4 0.344167 0.977821 0.749126
O O5 0.117048 0.162653 0.000000
O O6 0.569533 0.293685 0.731800
O O7 0.666667 0.333334 0.000000
O O8 0.867549 0.339626 0.217701
O O9 0.759950 0.230253 0.000000
O O10 0.549274 0.952346 0.500000
O O11 0.500000 0.000000 0.230546
#
# Coordination Sequence:
#
# PCOD9581637 Si02
#       5
#    12   6   4  12  12
#     4  11  24  43  68  98 133 171 218 273 325 387
#     4  12  27  48  73 100 128 164 210 266 340 412
#     4   9  21  36  55  92 136 178 221 268 313 371
#     4  11  21  37  61  90 128 170 218 266 317 379
#     4  10  22  39  60  91 131 175 222 269 321 381
#
# _framework density 20.792866
#
# number of rings (size 3 to 8) (size 9 to 14) (size 15 to 20)
#    0.000    1.304    1.304    4.043    1.826    3.652 
#    0.000    3.913    0.000    1.565    0.000    0.000 
#    0.000    0.000    0.000    0.000    0.000    0.000 
#
# Total GULP energy -257460.796462 kJ/mol
# GULP energy per Si atom -5596.973836 kJ/mol
# Density = 2.074554 g / cm^3
# Si number density = 20.792866 Si / 1000 Ang^3
#
#
#
# Elastic Constant Matrix: (Units=GPa)
#
#
# Indices 1 2 3 4 5 6 
#
# 1 127.6377 40.7029 49.1433 0.0000 0.0000 0.0012
# 2 40.7029 127.6426 49.1434 0.0000 0.0000 0.0016
# 3 49.1433 49.1434 78.6836 0.0000 0.0000 0.0001
# 4 0.0000 0.0000 0.0000 -29.3319 0.0027 0.0000
# 5 0.0000 0.0000 0.0000 0.0027 -29.3224 0.0000
# 6 0.0012 0.0016 0.0001 0.0000 0.0000 43.4678
#
#
#
# Elastic Compliance Matrix: (Units=1/GPa)
#
#
# Indices 1 2 3 4 5 6 
#
# 1 0.010426 -0.001076 -0.005840 0.000000 0.000000 0.000000
# 2 -0.001076 0.010426 -0.005839 0.000000 0.000000 0.000000
# 3 -0.005840 -0.005839 0.020003 0.000000 0.000000 0.000000
# 4 0.000000 0.000000 0.000000 -0.034093 -0.000003 0.000000
# 5 0.000000 0.000000 0.000000 -0.000003 -0.034104 0.000000
# 6 0.000000 0.000000 0.000000 0.000000 0.000000 0.023006
#
#
# Mechanical properties :
#
#
# Convention : Reuss Voigt Hill
#
# Bulk Modulus (GPa) = 65.16884 67.99367 66.58126
# Shear Modulus (GPa) = 190.18046 9.96098 100.07072
#
# Velocity S-wave (km/s) = 9.57407 2.19111 6.94492
# Velocity P-wave (km/s) = 12.39464 6.25882 9.81835
#
# Compressibility (1/GPa) = 0.01534476
#
# Stress axis : x y z
#
# Youngs Moduli (GPa) = 95.91090 95.91566 49.99133
#
# Poissons Ratio (x) = 0.10325 0.29193
# Poissons Ratio (y) = 0.10324 0.29192
# Poissons Ratio (z) = 0.56009 0.56008
#
# Static dielectric constant tensor:
#      x y z
#    x 1.710570 0.000000 0.000000 
#    y 0.000000 1.710560 0.000000 
#    z 0.000000 0.000000 1.752030 
# 
# From -- ./inp_files/547.got.cif
#   From: 2010.05.17/outbox.cif.g08.bks.cpg/sg175_1_cif.got.tgz:547.got - 2010.05.20 11:23:22.
