data_PCOD9581797
_publ_section_title
;
Structure prediction by ZEFSAII (Michael W. Deem and Ramdas Pophale) SiO2 
 PCOD9581797
Probable space group: P 63/M
;
_chemical_formula_sum "Si O2"
_cell_formula_units_Z 72
_cell_length_a 23.483699
_cell_length_b 23.483699
_cell_length_c 7.538366
_cell_angle_alpha 90.000000
_cell_angle_beta 90.000000
_cell_angle_gamma 120.000000
_cell_volume 3600.317998
_symmetry_space_group_name_H-M "P 63/M"
_symmetry_group_IT_number 176
_symmetry_cell_setting 'hexagonal'
loop_
_space_group_symop_operation_xyz
x,y,z
x-y,x,1/2+z
-y,x-y,z
-x,-y,1/2+z
-x+y,-x,z
y,-x+y,1/2+z
-x,-y,-z
-x+y,-x,1/2-z
y,-x+y,-z
x,y,1/2-z
x-y,x,-z
-y,x-y,1/2-z
loop_
_atom_site_type_symbol
_atom_site_label
_atom_site_fract_x
_atom_site_fract_y
_atom_site_fract_z
Si Si1 0.491579 0.401866 0.042336
Si Si2 0.397935 0.461226 0.533725
Si Si3 0.745003 0.754289 0.536011
Si Si4 0.262247 0.869648 0.531966
Si Si5 0.373723 0.124210 0.460278
Si Si6 0.892687 0.034390 0.451955
O O1 0.503659 0.397521 0.250000
O O2 0.558461 0.463280 0.970789
O O3 0.457541 0.328066 0.969975
O O4 0.436931 0.424371 0.025523
O O5 0.398472 0.460873 0.750000
O O6 0.322946 0.422614 0.470479
O O7 0.746370 0.756911 0.750000
O O8 0.671832 0.734267 0.477181
O O9 0.764506 0.700169 0.485347
O O10 0.796302 0.827421 0.472411
O O11 0.262625 0.869867 0.750000
O O12 0.193629 0.808253 0.471101
O O13 0.385381 0.133157 0.250000
O O14 0.901848 0.059223 0.250000
O O15 0.960136 0.081605 0.548611
#
# Coordination Sequence:
#
# PCOD9581797 Si02
#       6
#    12  12  12  12  12  12
#     4   9  16  29  49  68  93 125 157 190 232 286
#     4   9  17  28  46  73  96 119 154 198 239 273
#     4  10  20  34  50  70  94 126 164 197 243 298
#     4   9  17  30  48  68  95 131 159 187 235 292
#     4  10  19  31  48  71 100 128 159 200 243 285
#     4  11  23  38  55  72  93 122 164 209 253 302
#
# _framework density 19.998232999999999
#
# number of rings (size 3 to 8) (size 9 to 14) (size 15 to 20)
#    0.000    2.333    1.667    1.667    0.000    2.667 
#    0.000    1.667    0.000    0.667    0.000    4.667 
#    0.000    0.000    0.000    3.833    0.000    4.667 
#
# Total GULP energy -401903.743450 kJ/mol
# GULP energy per Si atom -5581.996437 kJ/mol
# Density = 1.995272 g / cm^3
# Si number density = 19.998233 Si / 1000 Ang^3
#
#
#
# Elastic Constant Matrix: (Units=GPa)
#
#
# Indices 1 2 3 4 5 6 
#
# 1 43.3492 -14.2596 -8.1421 0.0000 0.0000 0.0000
# 2 -14.2596 43.3492 -8.1421 0.0000 0.0000 0.0000
# 3 -8.1421 -8.1421 48.2987 0.0000 0.0000 0.0000
# 4 0.0000 0.0000 0.0000 -2.5942 0.0000 0.0000
# 5 0.0000 0.0000 0.0000 0.0000 -2.5942 0.0000
# 6 0.0000 0.0000 0.0000 0.0000 0.0000 28.8044
#
#
#
# Elastic Compliance Matrix: (Units=1/GPa)
#
#
# Indices 1 2 3 4 5 6 
#
# 1 0.027658 0.010300 0.006399 0.000000 0.000000 0.000000
# 2 0.010300 0.027658 0.006399 0.000000 0.000000 0.000000
# 3 0.006399 0.006399 0.022862 0.000000 0.000000 0.000000
# 4 0.000000 0.000000 0.000000 -0.385480 0.000000 0.000000
# 5 0.000000 0.000000 0.000000 0.000000 -0.385480 0.000000
# 6 0.000000 0.000000 0.000000 0.000000 0.000000 0.034717
#
#
# Mechanical properties :
#
#
# Convention : Reuss Voigt Hill
#
# Bulk Modulus (GPa) = 8.04022 8.21220 8.12621
# Shear Modulus (GPa) = -7.54372 15.75926 4.10777
#
# Velocity S-wave (km/s) = -1.94432 2.81024 1.43476
# Velocity P-wave (km/s) = 1.00564 3.82692 2.61094
#
# Compressibility (1/GPa) = 0.12437471
#
# Stress axis : x y z
#
# Youngs Moduli (GPa) = 36.15526 36.15526 43.74084
#
# Poissons Ratio (x) = -0.37240 -0.27989
# Poissons Ratio (y) = -0.37240 -0.27989
# Poissons Ratio (z) = -0.23136 -0.23136
#
# Static dielectric constant tensor:
#      x y z
#    x 1.698240 0.000000 0.000000 
#    y 0.000000 1.698240 0.000000 
#    z 0.000000 0.000000 2.313010 
# 
# From -- ./inp_files/1196.got.cif
#   From: 2010.05.17/outbox.cif.g08.bks.cpg/sg176_1_cif.got.tgz:1196.got - 2010.06.03 11:36:45.
