data_PCOD9581624
_publ_section_title
;
Structure prediction by ZEFSAII (Michael W. Deem and Ramdas Pophale) SiO2 
 PCOD9581624
Probable space group: P 6/M
;
_chemical_formula_sum "Si O2"
_cell_formula_units_Z 54
_cell_length_a 9.642359
_cell_length_b 9.642359
_cell_length_c 26.418149
_cell_angle_alpha 90.000000
_cell_angle_beta 90.000000
_cell_angle_gamma 120.000000
_cell_volume 2127.157321
_symmetry_space_group_name_H-M "P 6/M"
_symmetry_group_IT_number 175
_symmetry_cell_setting 'hexagonal'
loop_
_space_group_symop_operation_xyz
x,y,z
x-y,x,z
-y,x-y,z
-x,-y,z
-x+y,-x,z
y,-x+y,z
-x,-y,-z
-x+y,-x,-z
y,-x+y,-z
x,y,-z
x-y,x,-z
-y,x-y,-z
loop_
_atom_site_type_symbol
_atom_site_label
_atom_site_fract_x
_atom_site_fract_y
_atom_site_fract_z
Si Si1 0.734411 0.104894 0.337101
Si Si2 0.738205 0.112910 0.446078
Si Si3 0.500000 0.000000 0.250000
Si Si4 0.734411 0.629517 0.162899
Si Si5 0.261795 0.374704 0.053922
O O1 0.676724 0.134490 0.391749
O O2 0.922730 0.224566 0.335053
O O3 0.640931 0.111066 0.288605
O O4 0.675875 0.138887 0.500000
O O5 0.929308 0.230616 0.446069
O O6 0.529866 0.888935 0.211395
O O7 0.698164 0.775434 0.164947
O O8 0.676724 0.542233 0.108251
O O9 0.301308 0.230616 0.053931
O O10 0.324125 0.463012 0.000000
#
# Coordination Sequence:
#
# PCOD9581624 Si02
#       5
#    12  12   6  12  12
#     4  10  21  40  63  88 114 148 192 238 287 339
#     4   8  13  24  49  84 116 140 170 221 284 343
#     4  12  24  36  48  80 116 148 196 234 280 324
#     4  10  21  40  63  88 114 148 192 238 287 339
#     4   8  13  24  49  84 116 140 170 221 284 343
#
# _framework density 25.385992999999999
#
# number of rings (size 3 to 8) (size 9 to 14) (size 15 to 20)
#    0.000    2.667    0.000    2.222    0.000    5.333 
#   10.667    3.333    0.000    0.000    0.000    0.000 
#    0.000    0.000    0.000    0.000    0.000    0.000 
#
# Total GULP energy -301810.799821 kJ/mol
# GULP energy per Si atom -5589.088886 kJ/mol
# Density = 2.532821 g / cm^3
# Si number density = 25.385993 Si / 1000 Ang^3
#
#
#
# Elastic Constant Matrix: (Units=GPa)
#
#
# Indices 1 2 3 4 5 6 
#
# 1 89.1713 25.7638 53.7237 0.0000 0.0000 0.0000
# 2 25.7638 89.1713 53.7237 0.0000 0.0000 0.0000
# 3 53.7237 53.7237 343.1557 0.0000 0.0000 0.0000
# 4 0.0000 0.0000 0.0000 -8.6866 0.0000 0.0000
# 5 0.0000 0.0000 0.0000 0.0000 -8.6866 0.0000
# 6 0.0000 0.0000 0.0000 0.0000 0.0000 31.7038
#
#
#
# Elastic Compliance Matrix: (Units=1/GPa)
#
#
# Indices 1 2 3 4 5 6 
#
# 1 0.012982 -0.002789 -0.001596 0.000000 0.000000 0.000000
# 2 -0.002789 0.012982 -0.001596 0.000000 0.000000 0.000000
# 3 -0.001596 -0.001596 0.003414 0.000000 0.000000 0.000000
# 4 0.000000 0.000000 0.000000 -0.115120 0.000000 0.000000
# 5 0.000000 0.000000 0.000000 0.000000 -0.115120 0.000000
# 6 0.000000 0.000000 0.000000 0.000000 0.000000 0.031542
#
#
# Mechanical properties :
#
#
# Convention : Reuss Voigt Hill
#
# Bulk Modulus (GPa) = 57.41974 87.54674 72.48324
# Shear Modulus (GPa) = -32.99133 28.75195 -2.11969
#
# Velocity S-wave (km/s) = -3.60889 3.36905 -0.91477
# Velocity P-wave (km/s) = 2.30268 7.04948 5.24392
#
# Compressibility (1/GPa) = 0.01741561
#
# Stress axis : x y z
#
# Youngs Moduli (GPa) = 77.03189 77.03189 292.93194
#
# Poissons Ratio (x) = 0.21487 0.46743
# Poissons Ratio (y) = 0.21487 0.46743
# Poissons Ratio (z) = 0.12292 0.12292
#
# Static dielectric constant tensor:
#      x y z
#    x 1.980510 0.000000 0.000000 
#    y 0.000000 1.980510 0.000000 
#    z 0.000000 0.000000 2.086530 
# 
# From -- ./inp_files/3286.got.cif
#   From: 2010.05.17/outbox.cif.g08.bks.cpg/sg175_2_cif.got.tgz:3286.got - 2010.05.20 11:23:22.
