data_PCOD9581702
_publ_section_title
;
Structure prediction by ZEFSAII (Michael W. Deem and Ramdas Pophale) SiO2 
 PCOD9581702
Probable space group: P 6/M
;
_chemical_formula_sum "Si O2"
_cell_formula_units_Z 72
_cell_length_a 21.455733
_cell_length_b 21.455733
_cell_length_c 9.261354
_cell_angle_alpha 90.000000
_cell_angle_beta 90.000000
_cell_angle_gamma 120.000000
_cell_volume 3692.256201
_symmetry_space_group_name_H-M "P 6/M"
_symmetry_group_IT_number 175
_symmetry_cell_setting 'hexagonal'
loop_
_space_group_symop_operation_xyz
x,y,z
x-y,x,z
-y,x-y,z
-x,-y,z
-x+y,-x,z
y,-x+y,z
-x,-y,-z
-x+y,-x,-z
y,-x+y,-z
x,y,-z
x-y,x,-z
-y,x-y,-z
loop_
_atom_site_type_symbol
_atom_site_label
_atom_site_fract_x
_atom_site_fract_y
_atom_site_fract_z
Si Si1 0.753337 0.231835 0.171321
Si Si2 0.343205 0.350205 0.167612
Si Si3 0.801078 0.117884 0.824594
Si Si4 0.873587 0.354975 0.670548
Si Si5 0.594774 0.108236 0.164399
Si Si6 0.166072 0.077801 0.176156
O O1 0.784564 0.180056 0.219748
O O2 0.795279 0.304506 0.260156
O O3 0.667616 0.184044 0.189290
O O4 0.767363 0.246329 0.000000
O O5 0.307963 0.267365 0.215456
O O6 0.328500 0.402676 0.263188
O O7 0.429444 0.381209 0.171831
O O8 0.322857 0.351991 0.000000
O O9 0.875839 0.125039 0.777690
O O10 0.799897 0.118335 0.000000
O O11 0.871852 0.351116 0.500000
O O12 0.902120 0.435731 0.726245
O O13 0.568856 0.106535 0.000000
O O14 0.126750 0.121904 0.221846
O O15 0.166245 0.076782 0.000000
#
# Coordination Sequence:
#
# PCOD9581702 Si02
#       6
#    12  12  12  12  12  12
#     4   9  19  37  58  78 104 139 185 232 270 313
#     4   9  18  34  57  81 106 136 179 230 272 315
#     4   8  16  30  51  78 102 137 184 230 276 314
#     4  12  24  34  52  83 114 145 177 211 270 334
#     4   9  19  38  59  80 103 137 183 228 273 315
#     4   9  16  24  38  68 111 149 176 213 272 331
#
# _framework density 19.50027
#
# number of rings (size 3 to 8) (size 9 to 14) (size 15 to 20)
#    0.000    2.667    0.000    4.167    2.333    4.000 
#    1.000    2.500    0.000    0.000    0.000    0.000 
#    0.000    0.000    0.000    1.500    0.000    1.667 
#
# Total GULP energy -401820.730641 kJ/mol
# GULP energy per Si atom -5580.843481 kJ/mol
# Density = 1.945589 g / cm^3
# Si number density = 19.500270 Si / 1000 Ang^3
#
#
#
# Elastic Constant Matrix: (Units=GPa)
#
#
# Indices 1 2 3 4 5 6 
#
# 1 32.1065 -1.9128 8.7855 0.0000 0.0000 0.0000
# 2 -1.9128 32.1065 8.7855 0.0000 0.0000 0.0000
# 3 8.7855 8.7855 47.5271 0.0000 0.0000 0.0000
# 4 0.0000 0.0000 0.0000 -7.1699 0.0000 0.0000
# 5 0.0000 0.0000 0.0000 0.0000 -7.1699 0.0000
# 6 0.0000 0.0000 0.0000 0.0000 0.0000 17.0096
#
#
#
# Elastic Compliance Matrix: (Units=1/GPa)
#
#
# Indices 1 2 3 4 5 6 
#
# 1 0.033253 0.003858 -0.006860 0.000000 0.000000 0.000000
# 2 0.003858 0.033253 -0.006860 0.000000 0.000000 0.000000
# 3 -0.006860 -0.006860 0.023577 0.000000 0.000000 0.000000
# 4 0.000000 0.000000 0.000000 -0.139471 0.000000 0.000000
# 5 0.000000 0.000000 0.000000 0.000000 -0.139471 0.000000
# 6 0.000000 0.000000 0.000000 0.000000 0.000000 0.058790
#
#
# Mechanical properties :
#
#
# Convention : Reuss Voigt Hill
#
# Bulk Modulus (GPa) = 14.21272 15.89518 15.05395
# Shear Modulus (GPa) = -57.54348 6.93939 -25.30205
#
# Velocity S-wave (km/s) = -5.43812 1.88848 -3.60602
# Velocity P-wave (km/s) = 5.66803 3.59501 3.09859
#
# Compressibility (1/GPa) = 0.07035952
#
# Stress axis : x y z
#
# Youngs Moduli (GPa) = 30.07206 30.07206 42.41437
#
# Poissons Ratio (x) = -0.11603 0.29097
# Poissons Ratio (y) = -0.11603 0.29097
# Poissons Ratio (z) = 0.20630 0.20630
#
# Static dielectric constant tensor:
#      x y z
#    x 1.706120 0.000000 0.000000 
#    y 0.000000 1.706120 0.000000 
#    z 0.000000 0.000000 1.634850 
# 
# From -- ./inp_files/1170.got.cif
#   From: 2010.05.17/outbox.cif.g08.bks.cpg/sg175_1_cif.got.tgz:1170.got - 2010.05.20 11:23:22.
