data_PCOD9581932
_publ_section_title
;
Structure prediction by ZEFSAII (Michael W. Deem and Ramdas Pophale) SiO2 
 PCOD9581932
Probable space group: P 63/M
;
_chemical_formula_sum "Si O2"
_cell_formula_units_Z 72
_cell_length_a 22.783141
_cell_length_b 22.783141
_cell_length_c 8.525563
_cell_angle_alpha 90.000000
_cell_angle_beta 90.000000
_cell_angle_gamma 120.000000
_cell_volume 3832.488810
_symmetry_space_group_name_H-M "P 63/M"
_symmetry_group_IT_number 176
_symmetry_cell_setting 'hexagonal'
loop_
_space_group_symop_operation_xyz
x,y,z
x-y,x,1/2+z
-y,x-y,z
-x,-y,1/2+z
-x+y,-x,z
y,-x+y,1/2+z
-x,-y,-z
-x+y,-x,1/2-z
y,-x+y,-z
x,y,1/2-z
x-y,x,-z
-y,x-y,1/2-z
loop_
_atom_site_type_symbol
_atom_site_label
_atom_site_fract_x
_atom_site_fract_y
_atom_site_fract_z
Si Si1 0.493577 0.403984 0.562370
Si Si2 0.391489 0.460549 0.563147
Si Si3 0.744730 0.757806 0.435839
Si Si4 0.265207 0.871483 0.563941
Si Si5 0.365006 0.122187 0.564016
Si Si6 0.857794 0.895257 0.931954
O O1 0.499590 0.403457 0.750000
O O2 0.438110 0.427156 0.525139
O O3 0.563625 0.461474 0.488736
O O4 0.463601 0.329302 0.492707
O O5 0.379806 0.454910 0.750000
O O6 0.320155 0.420440 0.476158
O O7 0.754268 0.765435 0.250000
O O8 0.666732 0.729618 0.478963
O O9 0.767809 0.705901 0.497576
O O10 0.787824 0.830233 0.518250
O O11 0.268127 0.881653 0.750000
O O12 0.193559 0.808147 0.515009
O O13 0.358975 0.127419 0.750000
O O14 0.856498 0.911928 0.750000
O O15 0.874970 0.960144 0.035895
#
# Coordination Sequence:
#
# PCOD9581932 Si02
#       6
#    12  12  12  12  12  12
#     4  10  20  36  60  89 122 156 195 242 293 348
#     4  10  20  36  60  89 122 156 195 242 293 348
#     4  12  24  41  60  85 118 154 196 246 302 360
#     4  12  24  39  60  88 123 162 202 247 299 354
#     4  12  24  39  60  88 123 162 202 247 299 354
#     4  12  25  43  62  83 108 144 191 244 299 358
#
# _framework density 18.786747999999999
#
# number of rings (size 3 to 8) (size 9 to 14) (size 15 to 20)
#    0.000    0.667    1.667    8.167    0.000    1.333 
#    0.000    0.000    0.000    0.667    0.000    4.667 
#    0.000    0.000    0.000    0.000    0.000    0.000 
#
# Total GULP energy -402999.581226 kJ/mol
# GULP energy per Si atom -5597.216406 kJ/mol
# Density = 1.874399 g / cm^3
# Si number density = 18.786748 Si / 1000 Ang^3
#
#
#
# Elastic Constant Matrix: (Units=GPa)
#
#
# Indices 1 2 3 4 5 6 
#
# 1 45.3851 -6.5029 -3.6340 0.0000 0.0000 0.0000
# 2 -6.5029 45.3851 -3.6340 0.0000 0.0000 0.0000
# 3 -3.6340 -3.6340 67.6109 0.0000 0.0000 0.0000
# 4 0.0000 0.0000 0.0000 31.5443 0.0000 0.0000
# 5 0.0000 0.0000 0.0000 0.0000 31.5443 0.0000
# 6 0.0000 0.0000 0.0000 0.0000 0.0000 25.9440
#
#
#
# Elastic Compliance Matrix: (Units=1/GPa)
#
#
# Indices 1 2 3 4 5 6 
#
# 1 0.022626 0.003354 0.001396 0.000000 0.000000 0.000000
# 2 0.003354 0.022626 0.001396 0.000000 0.000000 0.000000
# 3 0.001396 0.001396 0.014941 0.000000 0.000000 0.000000
# 4 0.000000 0.000000 0.000000 0.031701 0.000000 0.000000
# 5 0.000000 0.000000 0.000000 0.000000 0.031701 0.000000
# 6 0.000000 0.000000 0.000000 0.000000 0.000000 0.038545
#
#
# Mechanical properties :
#
#
# Convention : Reuss Voigt Hill
#
# Bulk Modulus (GPa) = 13.79588 14.53773 14.16681
# Shear Modulus (GPa) = 28.73414 29.28331 29.00873
#
# Velocity S-wave (km/s) = 3.91511 3.95235 3.93377
# Velocity P-wave (km/s) = 5.27227 5.34632 5.30943
#
# Compressibility (1/GPa) = 0.07248541
#
# Stress axis : x y z
#
# Youngs Moduli (GPa) = 44.19698 44.19698 66.93163
#
# Poissons Ratio (x) = -0.14822 -0.09346
# Poissons Ratio (y) = -0.14822 -0.09346
# Poissons Ratio (z) = -0.06171 -0.06171
#
# Static dielectric constant tensor:
#      x y z
#    x 1.646540 0.000000 0.000000 
#    y 0.000000 1.646540 0.000000 
#    z 0.000000 0.000000 1.623010 
# 
# From -- ./inp_files/1197.got.cif
#   From: 2010.05.17/outbox.cif.g08.bks.cpg/sg176_1_cif.got.tgz:1197.got - 2010.06.03 11:36:45.
