data_PCOD9581625
_publ_section_title
;
Structure prediction by ZEFSAII (Michael W. Deem and Ramdas Pophale) SiO2 
 PCOD9581625
Probable space group: P 6/M
;
_chemical_formula_sum "Si O2"
_cell_formula_units_Z 52
_cell_length_a 15.313182
_cell_length_b 15.313182
_cell_length_c 12.541430
_cell_angle_alpha 90.000000
_cell_angle_beta 90.000000
_cell_angle_gamma 120.000000
_cell_volume 2546.880561
_symmetry_space_group_name_H-M "P 6/M"
_symmetry_group_IT_number 175
_symmetry_cell_setting 'hexagonal'
loop_
_space_group_symop_operation_xyz
x,y,z
x-y,x,z
-y,x-y,z
-x,-y,z
-x+y,-x,z
y,-x+y,z
-x,-y,-z
-x+y,-x,-z
y,-x+y,-z
x,y,-z
x-y,x,-z
-y,x-y,-z
loop_
_atom_site_type_symbol
_atom_site_label
_atom_site_fract_x
_atom_site_fract_y
_atom_site_fract_z
Si Si1 0.000000 0.500000 0.695497
Si Si2 0.804229 0.792788 0.872032
Si Si3 0.838004 0.553487 0.624665
Si Si4 0.666667 0.333335 0.372641
Si Si5 0.583046 0.870264 0.792863
Si Si6 0.750834 0.285867 0.000000
O O1 0.058602 0.450242 0.635029
O O2 0.086381 0.597225 0.757298
O O3 0.801959 0.891961 0.840963
O O4 0.719213 0.687685 0.825830
O O5 0.796454 0.786376 0.000000
O O6 0.825915 0.571635 0.500000
O O7 0.753513 0.441098 0.659364
O O8 0.799167 0.610279 0.702920
O O9 0.666667 0.333334 0.500000
O O10 0.533241 0.798355 0.895454
O O11 0.773819 0.402313 0.000000
#
# Coordination Sequence:
#
# PCOD9581625 Si02
#       6
#     6  12  12   4  12   6
#     4  12  25  37  66  94 132 171 223 264 324 394
#     4  10  21  40  64  89 119 159 209 265 319 376
#     4  11  23  40  63  91 126 167 216 268 322 383
#     4   9  18  36  60  79 116 157 198 258 310 362
#     4  12  23  42  60  94 130 172 210 269 325 388
#     4  10  24  39  60  86 127 178 218 254 310 395
#
# _framework density 20.417133
#
# number of rings (size 3 to 8) (size 9 to 14) (size 15 to 20)
#    0.231    0.923    3.462    3.346    0.000    2.308 
#    0.000    0.000    0.000    0.000    0.000    0.000 
#    0.000    3.692    0.000    0.000    0.000    0.000 
#
# Total GULP energy -289778.369048 kJ/mol
# GULP energy per Si atom -5572.660943 kJ/mol
# Density = 2.037066 g / cm^3
# Si number density = 20.417133 Si / 1000 Ang^3
#
#
#
# Elastic Constant Matrix: (Units=GPa)
#
#
# Indices 1 2 3 4 5 6 
#
# 1 69.9894 -20.1618 28.1360 0.0000 0.0000 -0.0026
# 2 -20.1618 69.9942 28.1381 0.0000 0.0000 0.0054
# 3 28.1360 28.1381 107.2734 0.0000 0.0000 -0.0002
# 4 0.0000 0.0000 0.0000 23.3488 0.0001 0.0000
# 5 0.0000 0.0000 0.0000 0.0001 23.3485 0.0000
# 6 -0.0026 0.0054 -0.0002 0.0000 0.0000 45.0721
#
#
#
# Elastic Compliance Matrix: (Units=1/GPa)
#
#
# Indices 1 2 3 4 5 6 
#
# 1 0.019804 0.008711 -0.007479 0.000000 0.000000 0.000000
# 2 0.008711 0.019803 -0.007479 0.000000 0.000000 -0.000002
# 3 -0.007479 -0.007479 0.013245 0.000000 0.000000 0.000001
# 4 0.000000 0.000000 0.000000 0.042829 0.000000 0.000000
# 5 0.000000 0.000000 0.000000 0.000000 0.042829 0.000000
# 6 0.000000 -0.000002 0.000001 0.000000 0.000000 0.022187
#
#
# Mechanical properties :
#
#
# Convention : Reuss Voigt Hill
#
# Bulk Modulus (GPa) = 24.77822 35.49793 30.13808
# Shear Modulus (GPa) = 26.78898 32.43020 29.60959
#
# Velocity S-wave (km/s) = 3.62620 3.98977 3.81232
# Velocity P-wave (km/s) = 5.44929 6.21679 5.84565
#
# Compressibility (1/GPa) = 0.04035802
#
# Stress axis : x y z
#
# Youngs Moduli (GPa) = 50.49481 50.49785 75.49762
#
# Poissons Ratio (x) = -0.43990 0.56466
# Poissons Ratio (y) = -0.43987 0.56466
# Poissons Ratio (z) = 0.37766 0.37768
#
# Static dielectric constant tensor:
#      x y z
#    x 2.388850 -0.001600 0.000000 
#    y -0.001600 2.392360 0.000000 
#    z 0.000000 0.000000 1.734840 
# 
# From -- ./inp_files/2342.got.cif
#   From: 2010.05.17/outbox.cif.g08.bks.cpg/sg175_2_cif.got.tgz:2342.got - 2010.05.20 11:23:22.
