data_PCOD9581259
_publ_section_title
;
Structure prediction by ZEFSAII (Michael W. Deem and Ramdas Pophale) SiO2 
 PCOD9581259
Probable space group: P 6/M
;
_chemical_formula_sum "Si O2"
_cell_formula_units_Z 96
_cell_length_a 26.643498
_cell_length_b 26.643498
_cell_length_c 7.443429
_cell_angle_alpha 90.000000
_cell_angle_beta 90.000000
_cell_angle_gamma 120.000000
_cell_volume 4576.001589
_symmetry_space_group_name_H-M "P 6/M"
_symmetry_group_IT_number 175
_symmetry_cell_setting 'hexagonal'
loop_
_space_group_symop_operation_xyz
x,y,z
x-y,x,z
-y,x-y,z
-x,-y,z
-x+y,-x,z
y,-x+y,z
-x,-y,-z
-x+y,-x,-z
y,-x+y,-z
x,y,-z
x-y,x,-z
-y,x-y,-z
loop_
_atom_site_type_symbol
_atom_site_label
_atom_site_fract_x
_atom_site_fract_y
_atom_site_fract_z
Si Si1 0.543544 0.315815 0.215622
Si Si2 0.340732 0.338599 0.280559
Si Si3 0.713844 0.127412 0.285182
Si Si4 0.349384 0.158188 0.718845
Si Si5 0.963368 0.210340 0.718861
Si Si6 0.649338 0.435043 0.211274
Si Si7 0.114441 0.119557 0.280601
Si Si8 0.560667 0.882142 0.716038
O O1 0.478997 0.302814 0.250899
O O2 0.593434 0.378150 0.284472
O O3 0.553696 0.264478 0.286187
O O4 0.547982 0.315873 0.000000
O O5 0.339356 0.339210 0.500000
O O6 0.392765 0.329567 0.219375
O O7 0.278007 0.284253 0.227277
O O8 0.346991 0.399125 0.221627
O O9 0.716333 0.123739 0.500000
O O10 0.778074 0.145833 0.218140
O O11 0.347960 0.157487 0.500000
O O12 0.288298 0.103893 0.774364
O O13 0.402258 0.148105 0.772583
O O14 0.964859 0.210364 0.500000
O O15 0.989174 0.169883 0.777413
O O16 0.648392 0.494500 0.227522
O O17 0.650567 0.424045 0.000000
O O18 0.116886 0.062395 0.225376
O O19 0.114867 0.119600 0.500000
O O20 0.560254 0.881832 0.500000
#
# Coordination Sequence:
#
# PCOD9581259 Si02
#       8
#    12  12  12  12  12  12  12  12
#     4  10  21  36  53  75 100 127 158 196 239 283
#     4   8  16  28  45  68  96 123 152 196 248 293
#     4  10  18  30  50  75 100 125 158 200 246 287
#     4   8  14  24  42  65  90 116 148 193 242 281
#     4   8  14  23  36  57  82 113 153 198 244 286
#     4  10  20  35  54  73  96 126 160 195 235 285
#     4   9  16  22  28  41  71 117 167 207 239 280
#     4   9  16  31  50  71  97 127 158 196 241 285
#
# _framework density 20.979012999999998
#
# number of rings (size 3 to 8) (size 9 to 14) (size 15 to 20)
#    0.000    3.000    1.250    1.875    1.750    2.000 
#    0.000    1.250    0.000    5.250    0.000    0.000 
#    0.000    0.000    0.000    0.000    0.000    0.000 
#
# Total GULP energy -535494.094497 kJ/mol
# GULP energy per Si atom -5578.063484 kJ/mol
# Density = 2.093126 g / cm^3
# Si number density = 20.979013 Si / 1000 Ang^3
#
#
#
# Elastic Constant Matrix: (Units=GPa)
#
#
# Indices 1 2 3 4 5 6 
#
# 1 111.5501 66.8508 -1.1197 0.0000 0.0000 0.0000
# 2 66.8508 111.5501 -1.1197 0.0000 0.0000 0.0000
# 3 -1.1197 -1.1197 59.5146 0.0000 0.0000 0.0000
# 4 0.0000 0.0000 0.0000 11.9749 0.0000 0.0000
# 5 0.0000 0.0000 0.0000 0.0000 11.9749 0.0000
# 6 0.0000 0.0000 0.0000 0.0000 0.0000 22.3497
#
#
#
# Elastic Compliance Matrix: (Units=1/GPa)
#
#
# Indices 1 2 3 4 5 6 
#
# 1 0.013989 -0.008383 0.000105 0.000000 0.000000 0.000000
# 2 -0.008383 0.013989 0.000105 0.000000 0.000000 0.000000
# 3 0.000105 0.000105 0.016807 0.000000 0.000000 0.000000
# 4 0.000000 0.000000 0.000000 0.083508 0.000000 0.000000
# 5 0.000000 0.000000 0.000000 0.000000 0.083508 0.000000
# 6 0.000000 0.000000 0.000000 0.000000 0.000000 0.044743
#
#
# Mechanical properties :
#
#
# Convention : Reuss Voigt Hill
#
# Bulk Modulus (GPa) = 35.15945 45.75973 40.45959
# Shear Modulus (GPa) = 17.70739 23.79346 20.75042
#
# Velocity S-wave (km/s) = 2.90841 3.37138 3.14841
# Velocity P-wave (km/s) = 5.29851 6.08395 5.70476
#
# Compressibility (1/GPa) = 0.02844186
#
# Stress axis : x y z
#
# Youngs Moduli (GPa) = 71.48376 71.48376 59.50056
#
# Poissons Ratio (x) = 0.59921 -0.00628
# Poissons Ratio (y) = 0.59921 -0.00628
# Poissons Ratio (z) = -0.00754 -0.00754
#
# Static dielectric constant tensor:
#      x y z
#    x 1.737210 0.000000 0.000000 
#    y 0.000000 1.737210 0.000000 
#    z 0.000000 0.000000 1.832070 
# 
# From -- ./inp_files/2140.got.cif
#   From: 2010.05.17/outbox.cif.g08.bks.cpg/sg175_2_cif.got.tgz:2140.got - 2010.05.20 11:23:22.
