data_PCOD9581076
_publ_section_title
;
Structure prediction by ZEFSAII (Michael W. Deem and Ramdas Pophale) SiO2 
 PCOD9581076
Probable space group: P 63
;
_chemical_formula_sum "Si O2"
_cell_formula_units_Z 48
_cell_length_a 17.294408
_cell_length_b 17.294408
_cell_length_c 8.340394
_cell_angle_alpha 90.000000
_cell_angle_beta 90.000000
_cell_angle_gamma 120.000000
_cell_volume 2160.372297
_symmetry_space_group_name_H-M "P 63"
_symmetry_group_IT_number 173
_symmetry_cell_setting 'hexagonal'
loop_
_space_group_symop_operation_xyz
x,y,z
x-y,x,1/2+z
-y,x-y,z
-x,-y,1/2+z
-x+y,-x,z
y,-x+y,1/2+z
loop_
_atom_site_type_symbol
_atom_site_label
_atom_site_fract_x
_atom_site_fract_y
_atom_site_fract_z
Si Si1 0.247144 0.812637 0.253410
Si Si2 0.720765 0.878275 0.834195
Si Si3 0.366802 0.025933 0.499085
Si Si4 0.405675 0.068892 0.866651
Si Si5 0.736694 0.210808 0.392500
Si Si6 0.737841 0.761577 0.091265
Si Si7 0.600841 0.449834 0.303397
Si Si8 0.122599 0.527318 0.445418
O O1 0.170319 0.745122 0.372168
O O2 0.337765 0.813663 0.309945
O O3 0.236916 0.900092 0.209857
O O4 0.229213 0.771172 0.074435
O O5 0.621157 0.793042 0.803636
O O6 0.764339 0.941562 0.679501
O O7 0.702076 0.945237 0.939625
O O8 0.764267 0.835910 0.951039
O O9 0.372078 0.038356 0.688187
O O10 0.455932 0.081298 0.387208
O O11 0.348435 0.927050 0.474616
O O12 0.334251 0.015727 0.003298
O O13 0.496856 0.066540 0.874387
O O14 0.630917 0.149031 0.393451
O O15 0.759236 0.304283 0.317247
O O16 0.573525 0.428751 0.118034
#
# Coordination Sequence:
#
# PCOD9581076 Si02
#       8
#     6   6   6   6   6   6   6   6
#     4  11  25  45  64 101 142 190 247 310 362 446
#     4  10  22  44  68 100 146 182 243 308 376 453
#     4  11  22  42  64 101 135 185 245 293 362 436
#     4  12  25  43  69 102 145 193 246 304 372 438
#     4  10  22  41  60  84 134 189 243 299 362 426
#     4  11  24  45  72 101 147 190 243 319 386 457
#     4  11  23  40  60  87 130 187 239 289 353 411
#     4  12  27  36  69  98 143 192 246 300 351 427
#
# _framework density 22.218392000000001
#
# number of rings (size 3 to 8) (size 9 to 14) (size 15 to 20)
#    0.000    1.000    5.000    3.250   12.250    0.000 
#    0.750    0.000    0.000    0.000    0.000    0.000 
#   12.500    0.000    0.000    0.000    0.000    0.000 
#
# Total GULP energy -267455.128403 kJ/mol
# GULP energy per Si atom -5571.981842 kJ/mol
# Density = 2.216782 g / cm^3
# Si number density = 22.218392 Si / 1000 Ang^3
#
#
#
# Elastic Constant Matrix: (Units=GPa)
#
#
# Indices 1 2 3 4 5 6 
#
# 1 63.9687 16.5321 19.5407 0.0000 0.0000 0.0000
# 2 16.5321 63.9687 19.5407 0.0000 0.0000 0.0000
# 3 19.5407 19.5407 60.4389 0.0000 0.0000 0.0000
# 4 0.0000 0.0000 0.0000 31.0895 0.0000 0.0000
# 5 0.0000 0.0000 0.0000 0.0000 31.0895 0.0000
# 6 0.0000 0.0000 0.0000 0.0000 0.0000 23.7183
#
#
#
# Elastic Compliance Matrix: (Units=1/GPa)
#
#
# Indices 1 2 3 4 5 6 
#
# 1 0.017908 -0.003173 -0.004764 0.000000 0.000000 0.000000
# 2 -0.003173 0.017908 -0.004764 0.000000 0.000000 0.000000
# 3 -0.004764 -0.004764 0.019626 0.000000 0.000000 0.000000
# 4 0.000000 0.000000 0.000000 0.032165 0.000000 0.000000
# 5 0.000000 0.000000 0.000000 0.000000 0.032165 0.000000
# 6 0.000000 0.000000 0.000000 0.000000 0.000000 0.042162
#
#
# Mechanical properties :
#
#
# Convention : Reuss Voigt Hill
#
# Bulk Modulus (GPa) = 33.28878 33.28927 33.28902
# Shear Modulus (GPa) = 25.33578 26.03031 25.68305
#
# Velocity S-wave (km/s) = 3.38051 3.42653 3.40360
# Velocity P-wave (km/s) = 5.50020 5.53806 5.51916
#
# Compressibility (1/GPa) = 0.03004015
#
# Stress axis : x y z
#
# Youngs Moduli (GPa) = 55.84116 55.84116 50.95223
#
# Poissons Ratio (x) = 0.17718 0.24274
# Poissons Ratio (y) = 0.17718 0.24274
# Poissons Ratio (z) = 0.26603 0.26603
#
# Static dielectric constant tensor:
#      x y z
#    x 2.069940 0.000000 0.000000 
#    y 0.000000 2.069940 0.000000 
#    z 0.000000 0.000000 1.871170 
# 
# From -- ./inp_files/673.got.cif
#   From: 2010.05.17/outbox.cif.g08.bks.cpg/sg173_cif.got.tgz:673.got - 2010.05.20 11:21:53.
