data_PCOD9581456
_publ_section_title
;
Structure prediction by ZEFSAII (Michael W. Deem and Ramdas Pophale) SiO2 
 PCOD9581456
Probable space group: P 6/M
;
_chemical_formula_sum "Si O2"
_cell_formula_units_Z 36
_cell_length_a 14.140549
_cell_length_b 14.140549
_cell_length_c 9.278738
_cell_angle_alpha 90.000000
_cell_angle_beta 90.000000
_cell_angle_gamma 120.000000
_cell_volume 1606.763974
_symmetry_space_group_name_H-M "P 6/M"
_symmetry_group_IT_number 175
_symmetry_cell_setting 'hexagonal'
loop_
_space_group_symop_operation_xyz
x,y,z
x-y,x,z
-y,x-y,z
-x,-y,z
-x+y,-x,z
y,-x+y,z
-x,-y,-z
-x+y,-x,-z
y,-x+y,-z
x,y,-z
x-y,x,-z
-y,x-y,-z
loop_
_atom_site_type_symbol
_atom_site_label
_atom_site_fract_x
_atom_site_fract_y
_atom_site_fract_z
Si Si1 0.640679 0.157787 0.000000
Si Si2 0.545510 0.207887 0.500000
Si Si3 0.080816 0.258952 0.500000
Si Si4 0.928910 0.311089 0.000000
Si Si5 0.204036 0.786394 0.745334
O O1 0.515539 0.126557 0.000000
O O2 0.699332 0.209018 0.846593
O O3 0.656473 0.053538 0.000000
O O4 0.667680 0.231868 0.500000
O O5 0.477697 0.157726 0.642519
O O6 0.164651 0.210613 0.500000
O O7 0.115136 0.339132 0.640022
O O8 0.888222 0.236355 0.860896
#
# Coordination Sequence:
#
# PCOD9581456 Si02
#       5
#     6   6   6   6  12
#     4  10  20  34  53  79 111 145 178 218 270 335
#     4   9  18  30  49  76 108 140 177 214 258 319
#     4  11  23  40  61  82 108 146 197 254 305 347
#     4  10  20  34  53  79 111 145 178 218 270 335
#     4  10  20  35  54  80 109 144 183 229 278 334
#
# _framework density 22.405280999999999
#
# number of rings (size 3 to 8) (size 9 to 14) (size 15 to 20)
#    0.333    1.667    0.000    4.167    0.000    0.000 
#    8.000    0.000    0.000   16.000    0.000   11.667 
#    0.000    0.000    0.000    0.000    0.000    0.000 
#
# Total GULP energy -200576.774340 kJ/mol
# GULP energy per Si atom -5571.577065 kJ/mol
# Density = 2.235429 g / cm^3
# Si number density = 22.405281 Si / 1000 Ang^3
#
#
#
# Elastic Constant Matrix: (Units=GPa)
#
#
# Indices 1 2 3 4 5 6 
#
# 1 59.3248 -0.3014 15.9289 0.0000 0.0000 0.0000
# 2 -0.3014 59.3248 15.9289 0.0000 0.0000 0.0000
# 3 15.9289 15.9289 159.7582 0.0000 0.0000 0.0000
# 4 0.0000 0.0000 0.0000 12.4230 0.0000 0.0000
# 5 0.0000 0.0000 0.0000 0.0000 12.4230 0.0000
# 6 0.0000 0.0000 0.0000 0.0000 0.0000 29.8131
#
#
#
# Elastic Compliance Matrix: (Units=1/GPa)
#
#
# Indices 1 2 3 4 5 6 
#
# 1 0.017339 0.000567 -0.001785 0.000000 0.000000 0.000000
# 2 0.000567 0.017339 -0.001785 0.000000 0.000000 0.000000
# 3 -0.001785 -0.001785 0.006615 0.000000 0.000000 0.000000
# 4 0.000000 0.000000 0.000000 0.080496 0.000000 0.000000
# 5 0.000000 0.000000 0.000000 0.000000 0.080496 0.000000
# 6 0.000000 0.000000 0.000000 0.000000 0.000000 0.033542
#
#
# Mechanical properties :
#
#
# Convention : Reuss Voigt Hill
#
# Bulk Modulus (GPa) = 28.33966 37.94674 33.14320
# Shear Modulus (GPa) = 19.71642 27.38857 23.55250
#
# Velocity S-wave (km/s) = 2.96968 3.50010 3.24574
# Velocity P-wave (km/s) = 4.94315 5.77127 5.37319
#
# Compressibility (1/GPa) = 0.03528624
#
# Stress axis : x y z
#
# Youngs Moduli (GPa) = 57.67474 57.67474 151.16056
#
# Poissons Ratio (x) = -0.03273 0.26987
# Poissons Ratio (y) = -0.03273 0.26987
# Poissons Ratio (z) = 0.10297 0.10297
#
# Static dielectric constant tensor:
#      x y z
#    x 1.841870 0.000000 0.000000 
#    y 0.000000 1.841870 0.000000 
#    z 0.000000 0.000000 1.865920 
# 
# From -- ./inp_files/398.got.cif
#   From: 2010.05.17/outbox.cif.g08.bks.cpg/sg175_1_cif.got.tgz:398.got - 2010.05.20 11:23:22.
