data_PCOD9581993
_publ_section_title
;
Structure prediction by ZEFSAII (Michael W. Deem and Ramdas Pophale) SiO2 
 PCOD9581993
Probable space group: P 63/M
;
_chemical_formula_sum "Si O2"
_cell_formula_units_Z 78
_cell_length_a 24.013942
_cell_length_b 24.013942
_cell_length_c 8.644499
_cell_angle_alpha 90.000000
_cell_angle_beta 90.000000
_cell_angle_gamma 120.000000
_cell_volume 4317.152349
_symmetry_space_group_name_H-M "P 63/M"
_symmetry_group_IT_number 176
_symmetry_cell_setting 'hexagonal'
loop_
_space_group_symop_operation_xyz
x,y,z
x-y,x,1/2+z
-y,x-y,z
-x,-y,1/2+z
-x+y,-x,z
y,-x+y,1/2+z
-x,-y,-z
-x+y,-x,1/2-z
y,-x+y,-z
x,y,1/2-z
x-y,x,-z
-y,x-y,1/2-z
loop_
_atom_site_type_symbol
_atom_site_label
_atom_site_fract_x
_atom_site_fract_y
_atom_site_fract_z
Si Si1 0.103829 0.403159 0.932569
Si Si2 0.353188 0.606847 0.750000
Si Si3 0.215598 0.954390 0.065232
Si Si4 0.187606 0.771088 0.431413
Si Si5 0.816525 0.361964 0.926796
Si Si6 0.502752 0.562083 0.073367
Si Si7 0.271645 0.094424 0.936187
O O1 0.097850 0.396606 0.750000
O O2 0.064239 0.332056 0.005680
O O3 0.177951 0.429906 0.981228
O O4 0.078652 0.450114 0.988554
O O5 0.401030 0.683462 0.750000
O O6 0.361062 0.580856 0.584691
O O7 0.217017 0.954486 0.250000
O O8 0.145579 0.895853 0.016376
O O9 0.232453 0.023915 0.005783
O O10 0.199316 0.789369 0.250000
O O11 0.172084 0.698452 0.444126
O O12 0.129246 0.781976 0.481331
O O13 0.787602 0.355146 0.750000
O O14 0.880790 0.430519 0.927345
O O15 0.524961 0.568788 0.250000
O O16 0.500000 0.500000 0.000000
O O17 0.268143 0.088798 0.750000
#
# Coordination Sequence:
#
# PCOD9581993 Si02
#       7
#    12   6  12  12  12  12  12
#     4  11  23  37  60  86 117 156 198 244 298 358
#     4  10  26  42  62  92 120 150 208 254 298 372
#     4  10  21  38  59  89 122 156 195 241 292 347
#     4   9  20  39  60  85 116 155 198 249 303 356
#     4  10  24  42  63  86 121 160 198 252 315 362
#     4  11  25  42  60  87 117 156 199 246 306 365
#     4   9  19  36  59  86 122 154 192 243 292 347
#
# _framework density 18.067464999999999
#
# number of rings (size 3 to 8) (size 9 to 14) (size 15 to 20)
#    0.154    1.846    0.000    3.231    7.538    3.692 
#    0.000    0.000    0.000    0.308    0.000    0.000 
#    0.000    0.000    0.000    0.000    0.000    0.000 
#
# Total GULP energy -435075.751133 kJ/mol
# GULP energy per Si atom -5577.894245 kJ/mol
# Density = 1.802634 g / cm^3
# Si number density = 18.067465 Si / 1000 Ang^3
#
#
#
# Elastic Constant Matrix: (Units=GPa)
#
#
# Indices 1 2 3 4 5 6 
#
# 1 109.1126 69.1288 50.6710 0.0000 0.0000 0.0000
# 2 69.1288 109.1126 50.6710 0.0000 0.0000 0.0000
# 3 50.6710 50.6710 102.8681 0.0000 0.0000 0.0000
# 4 0.0000 0.0000 0.0000 32.4684 0.0000 0.0000
# 5 0.0000 0.0000 0.0000 0.0000 32.4684 0.0000
# 6 0.0000 0.0000 0.0000 0.0000 0.0000 19.9919
#
#
#
# Elastic Compliance Matrix: (Units=1/GPa)
#
#
# Indices 1 2 3 4 5 6 
#
# 1 0.016402 -0.008609 -0.003839 0.000000 0.000000 0.000000
# 2 -0.008609 0.016402 -0.003839 0.000000 0.000000 0.000000
# 3 -0.003839 -0.003839 0.013503 0.000000 0.000000 0.000000
# 4 0.000000 0.000000 0.000000 0.030799 0.000000 0.000000
# 5 0.000000 0.000000 0.000000 0.000000 0.030799 0.000000
# 6 0.000000 0.000000 0.000000 0.000000 0.000000 0.050020
#
#
# Mechanical properties :
#
#
# Convention : Reuss Voigt Hill
#
# Bulk Modulus (GPa) = 72.81147 73.55943 73.18545
# Shear Modulus (GPa) = 25.63125 27.02723 26.32924
#
# Velocity S-wave (km/s) = 3.77057 3.87189 3.82157
# Velocity P-wave (km/s) = 7.70348 7.79685 7.75030
#
# Compressibility (1/GPa) = 0.01373410
#
# Stress axis : x y z
#
# Youngs Moduli (GPa) = 60.96997 60.96997 74.05828
#
# Poissons Ratio (x) = 0.52487 0.28428
# Poissons Ratio (y) = 0.52487 0.28428
# Poissons Ratio (z) = 0.23404 0.23404
#
# Static dielectric constant tensor:
#      x y z
#    x 1.598200 0.000000 0.000000 
#    y 0.000000 1.598200 0.000000 
#    z 0.000000 0.000000 1.641850 
# 
# From -- ./inp_files/1326.got.cif
#   From: 2010.05.17/outbox.cif.g08.bks.cpg/sg176_1_cif.got.tgz:1326.got - 2010.06.03 11:36:45.
