data_PCOD9581696
_publ_section_title
;
Structure prediction by ZEFSAII (Michael W. Deem and Ramdas Pophale) SiO2 
 PCOD9581696
Probable space group: P 6/M
;
_chemical_formula_sum "Si O2"
_cell_formula_units_Z 48
_cell_length_a 17.346698
_cell_length_b 17.346698
_cell_length_c 8.693527
_cell_angle_alpha 90.000000
_cell_angle_beta 90.000000
_cell_angle_gamma 120.000000
_cell_volume 2265.480218
_symmetry_space_group_name_H-M "P 6/M"
_symmetry_group_IT_number 175
_symmetry_cell_setting 'hexagonal'
loop_
_space_group_symop_operation_xyz
x,y,z
x-y,x,z
-y,x-y,z
-x,-y,z
-x+y,-x,z
y,-x+y,z
-x,-y,-z
-x+y,-x,-z
y,-x+y,-z
x,y,-z
x-y,x,-z
-y,x-y,-z
loop_
_atom_site_type_symbol
_atom_site_label
_atom_site_fract_x
_atom_site_fract_y
_atom_site_fract_z
Si Si1 0.051814 0.444807 0.167809
Si Si2 0.181870 0.998221 0.500000
Si Si3 0.858748 0.486192 0.500000
Si Si4 0.097743 0.883599 0.000000
Si Si5 0.711743 0.530558 0.500000
Si Si6 0.075735 0.752775 0.249648
O O1 0.098652 0.465318 0.336556
O O2 0.000000 0.500000 0.169135
O O3 0.980979 0.340322 0.165276
O O4 0.101584 0.466431 0.000000
O O5 0.174106 0.086514 0.500000
O O6 0.241845 0.006791 0.355710
O O7 0.760663 0.473543 0.500000
O O8 0.859866 0.393985 0.500000
O O9 0.119118 0.839251 0.856703
O O10 0.990138 0.841903 0.000000
O O11 0.743287 0.597285 0.355443
#
# Coordination Sequence:
#
# PCOD9581696 Si02
#       6
#    12   6   6   6   6  12
#     4  11  23  43  72 104 133 177 229 294 358 406
#     4  11  24  41  62  89 128 177 230 285 344 410
#     4  12  24  45  70  98 148 187 231 290 361 426
#     4  12  27  46  69 100 144 188 234 294 363 431
#     4  11  26  43  68 100 140 190 232 292 365 428
#     4  11  24  41  65 101 130 173 237 292 349 418
#
# _framework density 21.187560000000001
#
# number of rings (size 3 to 8) (size 9 to 14) (size 15 to 20)
#    0.000    0.750    3.750    3.875   10.500    0.000 
#    0.000    2.500    0.000    0.000    0.000    0.000 
#    0.000    0.000    0.000    0.000    0.000    0.000 
#
# Total GULP energy -268106.699343 kJ/mol
# GULP energy per Si atom -5585.556236 kJ/mol
# Density = 2.113934 g / cm^3
# Si number density = 21.187560 Si / 1000 Ang^3
#
#
#
# Elastic Constant Matrix: (Units=GPa)
#
#
# Indices 1 2 3 4 5 6 
#
# 1 100.3909 38.5433 32.9187 0.0000 0.0000 0.0000
# 2 38.5433 100.3909 32.9187 0.0000 0.0000 0.0000
# 3 32.9187 32.9187 163.7530 0.0000 0.0000 0.0000
# 4 0.0000 0.0000 0.0000 33.5855 0.0000 0.0000
# 5 0.0000 0.0000 0.0000 0.0000 33.5855 0.0000
# 6 0.0000 0.0000 0.0000 0.0000 0.0000 30.9238
#
#
#
# Elastic Compliance Matrix: (Units=1/GPa)
#
#
# Indices 1 2 3 4 5 6 
#
# 1 0.012062 -0.004107 -0.001599 0.000000 0.000000 0.000000
# 2 -0.004107 0.012062 -0.001599 0.000000 0.000000 0.000000
# 3 -0.001599 -0.001599 0.006750 0.000000 0.000000 0.000000
# 4 0.000000 0.000000 0.000000 0.029775 0.000000 0.000000
# 5 0.000000 0.000000 0.000000 0.000000 0.029775 0.000000
# 6 0.000000 0.000000 0.000000 0.000000 0.000000 0.032338
#
#
# Mechanical properties :
#
#
# Convention : Reuss Voigt Hill
#
# Bulk Modulus (GPa) = 61.48666 63.69958 62.59312
# Shear Modulus (GPa) = 35.01580 36.96256 35.98918
#
# Velocity S-wave (km/s) = 4.06970 4.18130 4.12588
# Velocity P-wave (km/s) = 7.15307 7.31033 7.23213
#
# Compressibility (1/GPa) = 0.01626369
#
# Stress axis : x y z
#
# Youngs Moduli (GPa) = 82.90404 82.90404 148.15359
#
# Poissons Ratio (x) = 0.34046 0.23694
# Poissons Ratio (y) = 0.34046 0.23694
# Poissons Ratio (z) = 0.13259 0.13259
#
# Static dielectric constant tensor:
#      x y z
#    x 1.726170 0.000000 0.000000 
#    y 0.000000 1.726170 0.000000 
#    z 0.000000 0.000000 0.115930 
# 
# From -- ./inp_files/667.got.cif
#   From: 2010.05.17/outbox.cif.g08.bks.cpg/sg175_1_cif.got.tgz:667.got - 2010.05.20 11:23:22.
