data_PCOD9581508
_publ_section_title
;
Structure prediction by ZEFSAII (Michael W. Deem and Ramdas Pophale) SiO2 
 PCOD9581508
Probable space group: P 6/M
;
_chemical_formula_sum "Si O2"
_cell_formula_units_Z 84
_cell_length_a 18.943984
_cell_length_b 18.943984
_cell_length_c 13.572640
_cell_angle_alpha 90.000000
_cell_angle_beta 90.000000
_cell_angle_gamma 120.000000
_cell_volume 4218.301314
_symmetry_space_group_name_H-M "P 6/M"
_symmetry_group_IT_number 175
_symmetry_cell_setting 'hexagonal'
loop_
_space_group_symop_operation_xyz
x,y,z
x-y,x,z
-y,x-y,z
-x,-y,z
-x+y,-x,z
y,-x+y,z
-x,-y,-z
-x+y,-x,-z
y,-x+y,-z
x,y,-z
x-y,x,-z
-y,x-y,-z
loop_
_atom_site_type_symbol
_atom_site_label
_atom_site_fract_x
_atom_site_fract_y
_atom_site_fract_z
Si Si1 0.174281 0.018494 0.308943
Si Si2 0.497134 0.083771 0.607993
Si Si3 0.755336 0.754239 0.111238
Si Si4 0.285587 0.430284 0.110290
Si Si5 0.455816 0.553815 0.186964
Si Si6 0.983546 0.674782 0.386501
Si Si7 0.867028 0.596682 0.202068
O O1 0.161389 0.093933 0.330647
O O2 0.198803 0.021638 0.193951
O O3 0.248754 0.018847 0.366409
O O4 0.519401 0.123419 0.500000
O O5 0.551952 0.128267 0.701714
O O6 0.500000 0.000000 0.600502
O O7 0.402497 0.052759 0.630468
O O8 0.719309 0.656912 0.121068
O O9 0.678526 0.765372 0.136541
O O10 0.784095 0.778790 0.000000
O O11 0.376404 0.504980 0.121080
O O12 0.227356 0.432778 0.193647
O O13 0.255002 0.432031 0.000000
O O14 0.500000 0.500000 0.187851
O O15 0.524493 0.644514 0.161519
O O16 0.956932 0.654488 0.500000
O O17 0.911107 0.624931 0.308257
#
# Coordination Sequence:
#
# PCOD9581508 Si02
#       7
#    12  12  12  12  12  12  12
#     4  11  24  41  59  82 119 163 208 253 302 358
#     4   9  16  30  58  95 124 147 184 240 302 354
#     4  10  20  37  61  86 112 147 198 259 312 357
#     4  11  24  38  56  86 122 158 200 253 309 356
#     4  11  19  38  62  87 118 159 204 244 291 368
#     4  10  20  36  62  92 120 151 195 248 299 353
#     4  11  21  37  60  87 121 155 196 248 301 357
#
# _framework density 19.913229000000001
#
# number of rings (size 3 to 8) (size 9 to 14) (size 15 to 20)
#    0.000    1.571    4.286    3.143    0.000    3.714 
#    0.857    2.143    0.000    1.714    0.000    0.000 
#    0.000    0.000    0.000    0.000    0.000    0.000 
#
# Total GULP energy -468996.145772 kJ/mol
# GULP energy per Si atom -5583.287450 kJ/mol
# Density = 1.986791 g / cm^3
# Si number density = 19.913229 Si / 1000 Ang^3
#
#
#
# Elastic Constant Matrix: (Units=GPa)
#
#
# Indices 1 2 3 4 5 6 
#
# 1 59.5010 15.0358 -15.6402 0.0000 0.0000 0.0000
# 2 15.0358 59.5010 -15.6402 0.0000 0.0000 0.0000
# 3 -15.6402 -15.6402 34.8888 0.0000 0.0000 0.0000
# 4 0.0000 0.0000 0.0000 17.7833 0.0000 0.0000
# 5 0.0000 0.0000 0.0000 0.0000 17.7833 0.0000
# 6 0.0000 0.0000 0.0000 0.0000 0.0000 22.2326
#
#
#
# Elastic Compliance Matrix: (Units=1/GPa)
#
#
# Indices 1 2 3 4 5 6 
#
# 1 0.019507 -0.002982 0.007408 0.000000 0.000000 0.000000
# 2 -0.002982 0.019507 0.007408 0.000000 0.000000 0.000000
# 3 0.007408 0.007408 0.035304 0.000000 0.000000 0.000000
# 4 0.000000 0.000000 0.000000 0.056233 0.000000 0.000000
# 5 0.000000 0.000000 0.000000 0.000000 0.056233 0.000000
# 6 0.000000 0.000000 0.000000 0.000000 0.000000 0.044979
#
#
# Mechanical properties :
#
#
# Convention : Reuss Voigt Hill
#
# Bulk Modulus (GPa) = 10.20550 13.48906 11.84728
# Shear Modulus (GPa) = 20.76779 22.90221 21.83500
#
# Velocity S-wave (km/s) = 3.23292 3.39499 3.31495
# Velocity P-wave (km/s) = 4.36713 4.70708 4.54029
#
# Compressibility (1/GPa) = 0.09798636
#
# Stress axis : x y z
#
# Youngs Moduli (GPa) = 51.26294 51.26294 28.32516
#
# Poissons Ratio (x) = 0.15288 -0.20983
# Poissons Ratio (y) = 0.15288 -0.20983
# Poissons Ratio (z) = -0.37976 -0.37976
#
# Static dielectric constant tensor:
#      x y z
#    x 1.701710 0.000000 0.000000 
#    y 0.000000 1.701710 0.000000 
#    z 0.000000 0.000000 1.752840 
# 
# From -- ./inp_files/2612.got.cif
#   From: 2010.05.17/outbox.cif.g08.bks.cpg/sg175_2_cif.got.tgz:2612.got - 2010.05.20 11:23:22.
