data_PCOD9581155
_publ_section_title
;
Structure prediction by ZEFSAII (Michael W. Deem and Ramdas Pophale) SiO2 
 PCOD9581155
Probable space group: P -6
;
_chemical_formula_sum "Si O2"
_cell_formula_units_Z 32
_cell_length_a 14.879237
_cell_length_b 14.879237
_cell_length_c 8.386124
_cell_angle_alpha 90.000000
_cell_angle_beta 90.000000
_cell_angle_gamma 120.000000
_cell_volume 1607.878523
_symmetry_space_group_name_H-M "P -6"
_symmetry_group_IT_number 174
_symmetry_cell_setting 'hexagonal'
loop_
_space_group_symop_operation_xyz
x,y,z
-x+y,-x,-z
-y,x-y,z
x,y,-z
-x+y,-x,z
-y,x-y,-z
loop_
_atom_site_type_symbol
_atom_site_label
_atom_site_fract_x
_atom_site_fract_y
_atom_site_fract_z
Si Si1 0.544232 0.867332 0.308664
Si Si2 0.445870 0.175439 0.807245
Si Si3 0.084168 0.853389 0.687664
Si Si4 0.862231 0.782797 0.187430
Si Si5 0.333334 0.666668 0.189818
Si Si6 0.596742 0.093092 0.193922
O O1 0.542524 0.864487 0.500000
O O2 0.650842 0.870754 0.255714
O O3 0.439462 0.767873 0.247733
O O4 0.557610 0.977298 0.254103
O O5 0.327920 0.092280 0.770133
O O6 0.464555 0.286979 0.753551
O O7 0.523776 0.138202 0.750154
O O8 0.457519 0.183307 0.000000
O O9 0.105694 0.873048 0.500000
O O10 0.961423 0.797158 0.717612
O O11 0.131373 0.962683 0.776073
O O12 0.884935 0.782466 0.000000
O O13 0.333334 0.666668 0.000000
O O14 0.596041 0.089108 0.000000
#
# Coordination Sequence:
#
# PCOD9581155 Si02
#       6
#     6   6   6   6   2   6
#     4  11  25  45  66  93 128 166 209 263 318 376
#     4   9  19  34  60  94 125 157 201 253 304 362
#     4  11  24  42  63  89 126 169 207 252 317 382
#     4  11  22  38  61  93 125 158 206 259 307 364
#     4  12  28  47  70  93 118 164 217 267 316 371
#     4  10  19  38  64  94 128 166 208 254 310 371
#
# _framework density 19.902000000000001
#
# number of rings (size 3 to 8) (size 9 to 14) (size 15 to 20)
#    0.000    1.500    1.875    3.000    2.625    3.750 
#    0.000    1.875    0.000    0.000    0.000    0.000 
#    0.000    0.000    0.000    0.000    0.000    0.000 
#
# Total GULP energy -178753.019074 kJ/mol
# GULP energy per Si atom -5586.031846 kJ/mol
# Density = 1.985670 g / cm^3
# Si number density = 19.902000 Si / 1000 Ang^3
#
#
#
# Elastic Constant Matrix: (Units=GPa)
#
#
# Indices 1 2 3 4 5 6 
#
# 1 99.7423 18.8369 4.2275 0.0000 0.0000 0.0001
# 2 18.8369 99.7414 4.2273 0.0000 0.0000 0.0004
# 3 4.2275 4.2273 25.4337 0.0000 0.0000 0.0001
# 4 0.0000 0.0000 0.0000 19.4944 0.0000 0.0000
# 5 0.0000 0.0000 0.0000 0.0000 19.4943 0.0000
# 6 0.0001 0.0004 0.0001 0.0000 0.0000 40.4526
#
#
#
# Elastic Compliance Matrix: (Units=1/GPa)
#
#
# Indices 1 2 3 4 5 6 
#
# 1 0.010447 -0.001913 -0.001419 0.000000 0.000000 0.000000
# 2 -0.001913 0.010447 -0.001418 0.000000 0.000000 0.000000
# 3 -0.001419 -0.001418 0.039789 0.000000 0.000000 0.000000
# 4 0.000000 0.000000 0.000000 0.051297 0.000000 0.000000
# 5 0.000000 0.000000 0.000000 0.000000 0.051297 0.000000
# 6 0.000000 0.000000 0.000000 0.000000 0.000000 0.024720
#
#
# Mechanical properties :
#
#
# Convention : Reuss Voigt Hill
#
# Bulk Modulus (GPa) = 19.53733 31.05563 25.29648
# Shear Modulus (GPa) = 23.30360 29.06332 26.18346
#
# Velocity S-wave (km/s) = 3.42558 3.82556 3.63108
# Velocity P-wave (km/s) = 5.04819 5.92886 5.50616
#
# Compressibility (1/GPa) = 0.05118408
#
# Stress axis : x y z
#
# Youngs Moduli (GPa) = 95.71925 95.71838 25.13233
#
# Poissons Ratio (x) = 0.18310 0.03565
# Poissons Ratio (y) = 0.18310 0.03565
# Poissons Ratio (z) = 0.13578 0.13577
#
# Static dielectric constant tensor:
#      x y z
#    x 1.681640 0.000000 0.000000 
#    y 0.000000 1.681640 0.000000 
#    z 0.000000 0.000000 1.688110 
# 
# From -- ./inp_files/355.got.cif
#   From: 2010.05.17/outbox.cif.g08.bks.cpg/sg174_cif.got.tgz:355.got - 2010.05.20 11:22:48.
