data_PCOD9581807
_publ_section_title
;
Structure prediction by ZEFSAII (Michael W. Deem and Ramdas Pophale) SiO2 
 PCOD9581807
Probable space group: P 63/M
;
_chemical_formula_sum "Si O2"
_cell_formula_units_Z 96
_cell_length_a 14.739223
_cell_length_b 14.739223
_cell_length_c 30.099382
_cell_angle_alpha 90.000000
_cell_angle_beta 90.000000
_cell_angle_gamma 120.000000
_cell_volume 5662.880404
_symmetry_space_group_name_H-M "P 63/M"
_symmetry_group_IT_number 176
_symmetry_cell_setting 'hexagonal'
loop_
_space_group_symop_operation_xyz
x,y,z
x-y,x,1/2+z
-y,x-y,z
-x,-y,1/2+z
-x+y,-x,z
y,-x+y,1/2+z
-x,-y,-z
-x+y,-x,1/2-z
y,-x+y,-z
x,y,1/2-z
x-y,x,-z
-y,x-y,1/2-z
loop_
_atom_site_type_symbol
_atom_site_label
_atom_site_fract_x
_atom_site_fract_y
_atom_site_fract_z
Si Si1 0.389336 0.516068 0.471028
Si Si2 0.263989 0.842602 0.445408
Si Si3 0.822043 0.055981 0.013905
Si Si4 0.373562 0.477450 0.699462
Si Si5 0.226510 0.876285 0.603483
Si Si6 0.708402 0.139745 0.302482
Si Si7 0.471811 0.572645 0.938879
Si Si8 0.979067 0.342290 0.117282
O O1 0.277503 0.455318 0.448472
O O2 0.470659 0.626930 0.450105
O O3 0.440614 0.443596 0.464145
O O4 0.386179 0.545764 0.522525
O O5 0.243245 0.903241 0.485114
O O6 0.277230 0.911112 0.402328
O O7 0.788928 0.053849 0.065682
O O8 0.943372 0.143730 0.003981
O O9 0.377789 0.451601 0.750000
O O10 0.265169 0.478661 0.692707
O O11 0.474209 0.590368 0.690942
O O12 0.365220 0.386111 0.668675
O O13 0.261862 0.909719 0.655170
O O14 0.314703 0.850275 0.584150
O O15 0.112748 0.773635 0.606194
O O16 0.718490 0.114054 0.250000
O O17 0.417367 0.477074 0.904772
#
# Coordination Sequence:
#
# PCOD9581807 Si02
#       8
#    12  12  12  12  12  12  12  12
#     4  10  21  32  49  69 102 142 177 222 264 320
#     4  11  21  36  53  76 108 143 189 228 274 332
#     4  12  24  40  58  81 111 155 194 242 287 341
#     4   9  16  28  46  73 108 143 184 232 283 345
#     4  11  19  34  51  74 109 146 182 230 282 326
#     4   9  17  28  47  75 107 144 184 227 281 344
#     4  10  19  32  45  70 100 136 179 214 264 327
#     4  10  20  32  48  76 105 143 184 223 279 333
#
# _framework density 16.952503
#
# number of rings (size 3 to 8) (size 9 to 14) (size 15 to 20)
#    0.000    1.750    3.750    2.125    1.750    1.000 
#    0.750    0.000    0.000    0.000    0.000    7.875 
#    0.000    0.000    0.000    0.000    0.000    0.000 
#
# Total GULP energy -534498.547729 kJ/mol
# GULP energy per Si atom -5567.693206 kJ/mol
# Density = 1.691392 g / cm^3
# Si number density = 16.952503 Si / 1000 Ang^3
#
#
#
# Elastic Constant Matrix: (Units=GPa)
#
#
# Indices 1 2 3 4 5 6 
#
# 1 54.9925 11.3649 28.3048 0.0000 0.0000 0.0000
# 2 11.3649 54.9925 28.3048 0.0000 0.0000 0.0000
# 3 28.3048 28.3048 110.7585 0.0000 0.0000 0.0000
# 4 0.0000 0.0000 0.0000 21.8936 0.0000 0.0000
# 5 0.0000 0.0000 0.0000 0.0000 21.8936 0.0000
# 6 0.0000 0.0000 0.0000 0.0000 0.0000 21.8138
#
#
#
# Elastic Compliance Matrix: (Units=1/GPa)
#
#
# Indices 1 2 3 4 5 6 
#
# 1 0.021096 -0.001825 -0.004925 0.000000 0.000000 0.000000
# 2 -0.001825 0.021096 -0.004925 0.000000 0.000000 0.000000
# 3 -0.004925 -0.004925 0.011546 0.000000 0.000000 0.000000
# 4 0.000000 0.000000 0.000000 0.045676 0.000000 0.000000
# 5 0.000000 0.000000 0.000000 0.000000 0.045676 0.000000
# 6 0.000000 0.000000 0.000000 0.000000 0.000000 0.045843
#
#
# Mechanical properties :
#
#
# Convention : Reuss Voigt Hill
#
# Bulk Modulus (GPa) = 32.90670 39.63250 36.26960
# Shear Modulus (GPa) = 22.28055 23.30479 22.79267
#
# Velocity S-wave (km/s) = 3.62925 3.71173 3.67072
# Velocity P-wave (km/s) = 6.08401 6.46518 6.27749
#
# Compressibility (1/GPa) = 0.03038895
#
# Stress axis : x y z
#
# Youngs Moduli (GPa) = 47.40172 47.40172 86.61167
#
# Poissons Ratio (x) = 0.08651 0.42655
# Poissons Ratio (y) = 0.08651 0.42655
# Poissons Ratio (z) = 0.23345 0.23345
#
# Static dielectric constant tensor:
#      x y z
#    x 1.590230 0.000000 0.000000 
#    y 0.000000 1.590230 0.000000 
#    z 0.000000 0.000000 1.643300 
# 
# From -- ./inp_files/4548.got.cif
#   From: 2010.05.17/outbox.cif.g08.bks.cpg/sg176_3_cif.got.tgz:4548.got - 2010.06.03 11:36:45.
