data_PCOD9581321
_publ_section_title
;
Structure prediction by ZEFSAII (Michael W. Deem and Ramdas Pophale) SiO2 
 PCOD9581321
Probable space group: P 6/M
;
_chemical_formula_sum "Si O2"
_cell_formula_units_Z 46
_cell_length_a 14.414695
_cell_length_b 14.414695
_cell_length_c 13.589777
_cell_angle_alpha 90.000000
_cell_angle_beta 90.000000
_cell_angle_gamma 120.000000
_cell_volume 2445.422350
_symmetry_space_group_name_H-M "P 6/M"
_symmetry_group_IT_number 175
_symmetry_cell_setting 'hexagonal'
loop_
_space_group_symop_operation_xyz
x,y,z
x-y,x,z
-y,x-y,z
-x,-y,z
-x+y,-x,z
y,-x+y,z
-x,-y,-z
-x+y,-x,-z
y,-x+y,-z
x,y,-z
x-y,x,-z
-y,x-y,-z
loop_
_atom_site_type_symbol
_atom_site_label
_atom_site_fract_x
_atom_site_fract_y
_atom_site_fract_z
Si Si1 0.333334 0.666667 0.883559
Si Si2 0.065669 0.244134 0.500000
Si Si3 0.527583 0.748329 0.256224
Si Si4 0.249623 0.177211 0.716299
Si Si5 0.124163 0.589337 0.614739
O O1 0.277565 0.548225 0.836389
O O2 0.333334 0.666668 0.000000
O O3 0.145953 0.199049 0.500000
O O4 0.080589 0.297340 0.605129
O O5 0.641034 0.763014 0.222972
O O6 0.543032 0.850113 0.320083
O O7 0.460750 0.648523 0.329977
O O8 0.153863 0.203100 0.728006
O O9 0.155343 0.617210 0.500000
O O10 0.000000 0.500000 0.616759
#
# Coordination Sequence:
#
# PCOD9581321 Si02
#       5
#     4   6  12  12  12
#     4   9  21  42  64  80  97 126 168 234 295 341
#     4   8  15  24  38  62  98 146 190 216 231 262
#     4  10  20  34  53  77 105 133 179 225 267 323
#     4  10  19  31  49  75 111 150 186 216 249 296
#     4  10  20  31  47  73 107 144 178 212 260 316
#
# _framework density 18.810656000000002
#
# number of rings (size 3 to 8) (size 9 to 14) (size 15 to 20)
#    0.000    2.348    0.000    3.261    3.652    2.087 
#    0.000    0.000    0.000   28.174    0.000    0.000 
#    0.000    2.087    0.000    0.000    0.000    0.000 
#
# Total GULP energy -256409.126528 kJ/mol
# GULP energy per Si atom -5574.111446 kJ/mol
# Density = 1.876784 g / cm^3
# Si number density = 18.810656 Si / 1000 Ang^3
#
#
#
# Elastic Constant Matrix: (Units=GPa)
#
#
# Indices 1 2 3 4 5 6 
#
# 1 61.5925 -2.5790 23.5157 0.0000 0.0000 0.0001
# 2 -2.5790 61.5924 23.5156 0.0000 0.0000 0.0000
# 3 23.5157 23.5156 100.2676 0.0000 0.0000 0.0002
# 4 0.0000 0.0000 0.0000 11.3501 0.0001 0.0000
# 5 0.0000 0.0000 0.0000 0.0001 11.3504 0.0000
# 6 0.0001 0.0000 0.0002 0.0000 0.0000 32.0857
#
#
#
# Elastic Compliance Matrix: (Units=1/GPa)
#
#
# Indices 1 2 3 4 5 6 
#
# 1 0.018212 0.002629 -0.004888 0.000000 0.000000 0.000000
# 2 0.002629 0.018212 -0.004888 0.000000 0.000000 0.000000
# 3 -0.004888 -0.004888 0.012266 0.000000 0.000000 0.000000
# 4 0.000000 0.000000 0.000000 0.088105 -0.000001 0.000000
# 5 0.000000 0.000000 0.000000 -0.000001 0.088103 0.000000
# 6 0.000000 0.000000 0.000000 0.000000 0.000000 0.031167
#
#
# Mechanical properties :
#
#
# Convention : Reuss Voigt Hill
#
# Bulk Modulus (GPa) = 29.07292 34.70633 31.88963
# Shear Modulus (GPa) = 17.74161 22.89056 20.31608
#
# Velocity S-wave (km/s) = 3.07444 3.49218 3.28995
# Velocity P-wave (km/s) = 5.30019 5.89499 5.60548
#
# Compressibility (1/GPa) = 0.03439627
#
# Stress axis : x y z
#
# Youngs Moduli (GPa) = 54.90909 54.90898 81.52656
#
# Poissons Ratio (x) = -0.14434 0.39848
# Poissons Ratio (y) = -0.14434 0.39848
# Poissons Ratio (z) = 0.26838 0.26838
#
# Static dielectric constant tensor:
#      x y z
#    x 1.692910 0.000000 0.000000 
#    y 0.000000 1.692920 0.000000 
#    z 0.000000 0.000000 1.636000 
# 
# From -- ./inp_files/1628.got.cif
#   From: 2010.05.17/outbox.cif.g08.bks.cpg/sg175_1_cif.got.tgz:1628.got - 2010.05.20 11:23:22.
