data_PCOD9581448
_publ_section_title
;
Structure prediction by ZEFSAII (Michael W. Deem and Ramdas Pophale) SiO2 
 PCOD9581448
Probable space group: P 6/M
;
_chemical_formula_sum "Si O2"
_cell_formula_units_Z 90
_cell_length_a 26.626385
_cell_length_b 26.626385
_cell_length_c 7.806048
_cell_angle_alpha 90.000000
_cell_angle_beta 90.000000
_cell_angle_gamma 120.000000
_cell_volume 4792.766421
_symmetry_space_group_name_H-M "P 6/M"
_symmetry_group_IT_number 175
_symmetry_cell_setting 'hexagonal'
loop_
_space_group_symop_operation_xyz
x,y,z
x-y,x,z
-y,x-y,z
-x,-y,z
-x+y,-x,z
y,-x+y,z
-x,-y,-z
-x+y,-x,-z
y,-x+y,-z
x,y,-z
x-y,x,-z
-y,x-y,-z
loop_
_atom_site_type_symbol
_atom_site_label
_atom_site_fract_x
_atom_site_fract_y
_atom_site_fract_z
Si Si1 0.360976 0.259842 0.707140
Si Si2 0.622613 0.845678 0.290304
Si Si3 0.794646 0.418100 0.692577
Si Si4 0.035315 0.593152 0.802832
Si Si5 0.526608 0.618086 0.203671
Si Si6 0.677949 0.974512 0.708019
Si Si7 0.667203 0.504511 0.696516
Si Si8 0.274719 0.596231 0.000000
O O1 0.362980 0.259413 0.500000
O O2 0.362512 0.203078 0.768035
O O3 0.418383 0.318009 0.767403
O O4 0.306360 0.268547 0.753997
O O5 0.620461 0.843905 0.500000
O O6 0.670281 0.912203 0.245161
O O7 0.559095 0.833747 0.226871
O O8 0.770823 0.408005 0.500000
O O9 0.858628 0.472987 0.698238
O O10 0.801786 0.363800 0.750842
O O11 0.758066 0.432711 0.826336
O O12 0.027022 0.649234 0.791842
O O13 0.095623 0.616068 0.708360
O O14 0.973151 0.542762 0.739710
O O15 0.043032 0.581323 0.000000
O O16 0.514206 0.610365 0.000000
O O17 0.671251 0.973985 0.500000
O O18 0.682315 0.503360 0.500000
O O19 0.341772 0.618878 0.000000
#
# Coordination Sequence:
#
# PCOD9581448 Si02
#       8
#    12  12  12  12  12  12  12   6
#     4   9  16  27  47  71  91 126 167 195 244 302
#     4   8  14  27  45  68  94 120 157 200 238 286
#     4  11  23  40  62  82 102 128 161 206 257 307
#     4   9  17  28  47  71 100 138 161 189 241 291
#     4  10  20  34  49  73 107 131 163 207 243 288
#     4   8  14  26  42  62  95 126 156 199 237 286
#     4   9  19  33  49  73 102 129 162 202 240 293
#     4  10  26  48  64  79  96 120 154 202 260 316
#
# _framework density 18.778299000000001
#
# number of rings (size 3 to 8) (size 9 to 14) (size 15 to 20)
#    0.133    2.667    0.667    1.600    0.933    3.733 
#    0.000    6.667    0.000    0.000    0.000    0.000 
#    0.000    0.000    0.000    0.400    0.000   12.800 
#
# Total GULP energy -501243.797995 kJ/mol
# GULP energy per Si atom -5569.375533 kJ/mol
# Density = 1.873556 g / cm^3
# Si number density = 18.778299 Si / 1000 Ang^3
#
#
#
# Elastic Constant Matrix: (Units=GPa)
#
#
# Indices 1 2 3 4 5 6 
#
# 1 68.8679 22.9683 14.3617 0.0000 0.0000 0.0000
# 2 22.9683 68.8679 14.3617 0.0000 0.0000 0.0000
# 3 14.3617 14.3617 35.4339 0.0000 0.0000 0.0000
# 4 0.0000 0.0000 0.0000 3.9832 0.0000 0.0000
# 5 0.0000 0.0000 0.0000 0.0000 3.9832 0.0000
# 6 0.0000 0.0000 0.0000 0.0000 0.0000 22.9498
#
#
#
# Elastic Compliance Matrix: (Units=1/GPa)
#
#
# Indices 1 2 3 4 5 6 
#
# 1 0.017128 -0.004658 -0.005054 0.000000 0.000000 0.000000
# 2 -0.004658 0.017128 -0.005054 0.000000 0.000000 0.000000
# 3 -0.005054 -0.005054 0.032319 0.000000 0.000000 0.000000
# 4 0.000000 0.000000 0.000000 0.251057 0.000000 0.000000
# 5 0.000000 0.000000 0.000000 0.000000 0.251057 0.000000
# 6 0.000000 0.000000 0.000000 0.000000 0.000000 0.043573
#
#
# Mechanical properties :
#
#
# Convention : Reuss Voigt Hill
#
# Bulk Modulus (GPa) = 26.99669 30.72811 28.86240
# Shear Modulus (GPa) = 7.64360 14.28177 10.96269
#
# Velocity S-wave (km/s) = 2.01972 2.76079 2.41881
# Velocity P-wave (km/s) = 4.45497 5.15381 4.81708
#
# Compressibility (1/GPa) = 0.03704158
#
# Stress axis : x y z
#
# Youngs Moduli (GPa) = 58.38331 58.38331 30.94200
#
# Poissons Ratio (x) = 0.27198 0.15638
# Poissons Ratio (y) = 0.27198 0.15638
# Poissons Ratio (z) = 0.29507 0.29507
#
# Static dielectric constant tensor:
#      x y z
#    x 1.687140 0.000000 0.000000 
#    y 0.000000 1.687140 0.000000 
#    z 0.000000 0.000000 1.721090 
# 
# From -- ./inp_files/1452.got.cif
#   From: 2010.05.17/outbox.cif.g08.bks.cpg/sg175_1_cif.got.tgz:1452.got - 2010.05.20 11:23:22.
