data_PCOD9581338
_publ_section_title
;
Structure prediction by ZEFSAII (Michael W. Deem and Ramdas Pophale) SiO2 
 PCOD9581338
Probable space group: P 6/M
;
_chemical_formula_sum "Si O2"
_cell_formula_units_Z 34
_cell_length_a 13.463720
_cell_length_b 13.463720
_cell_length_c 13.081445
_cell_angle_alpha 90.000000
_cell_angle_beta 90.000000
_cell_angle_gamma 120.000000
_cell_volume 2053.603017
_symmetry_space_group_name_H-M "P 6/M"
_symmetry_group_IT_number 175
_symmetry_cell_setting 'hexagonal'
loop_
_space_group_symop_operation_xyz
x,y,z
x-y,x,z
-y,x-y,z
-x,-y,z
-x+y,-x,z
y,-x+y,z
-x,-y,-z
-x+y,-x,-z
y,-x+y,-z
x,y,-z
x-y,x,-z
-y,x-y,-z
loop_
_atom_site_type_symbol
_atom_site_label
_atom_site_fract_x
_atom_site_fract_y
_atom_site_fract_z
Si Si1 0.666667 0.333334 0.376123
Si Si2 0.364888 0.910479 0.379618
Si Si3 0.218973 0.965296 0.775437
Si Si4 0.251706 0.217455 0.000000
O O1 0.666667 0.333334 0.500000
O O2 0.555132 0.340157 0.345247
O O3 0.334473 0.904074 0.500000
O O4 0.293441 0.950591 0.311489
O O5 0.500000 0.000000 0.370653
O O6 0.087858 0.862212 0.767344
O O7 0.264869 0.958220 0.889234
O O8 0.135009 0.221499 0.000000
#
# Coordination Sequence:
#
# PCOD9581338 Si02
#       4
#     4  12  12   6
#     4   9  18  33  51  70  95 130 168 201 238 287
#     4  10  20  34  52  73  97 128 166 205 244 289
#     4  10  19  32  51  75 102 130 161 199 243 291
#     4   8  15  28  47  70  96 128 163 196 234 284
#
# _framework density 16.556266999999998
#
# number of rings (size 3 to 8) (size 9 to 14) (size 15 to 20)
#    0.000    2.471    0.000    2.647    0.000    7.059 
#    0.000    0.882    0.000    4.235    0.000    0.000 
#    0.000    0.000    0.000    0.000    0.000    0.000 
#
# Total GULP energy -189394.533567 kJ/mol
# GULP energy per Si atom -5570.427458 kJ/mol
# Density = 1.651858 g / cm^3
# Si number density = 16.556267 Si / 1000 Ang^3
#
#
#
# Elastic Constant Matrix: (Units=GPa)
#
#
# Indices 1 2 3 4 5 6 
#
# 1 135.0059 -38.8717 60.7509 0.0000 0.0000 -0.0005
# 2 -38.8717 135.0070 60.7510 0.0000 0.0000 0.0019
# 3 60.7509 60.7510 122.0131 0.0000 0.0000 -0.0004
# 4 0.0000 0.0000 0.0000 23.1464 -0.0002 0.0000
# 5 0.0000 0.0000 0.0000 -0.0002 23.1465 0.0000
# 6 -0.0005 0.0019 -0.0004 0.0000 0.0000 86.9347
#
#
#
# Elastic Compliance Matrix: (Units=1/GPa)
#
#
# Indices 1 2 3 4 5 6 
#
# 1 0.016905 0.011154 -0.013971 0.000000 0.000000 0.000000
# 2 0.011154 0.016905 -0.013971 0.000000 0.000000 0.000000
# 3 -0.013971 -0.013971 0.022108 0.000000 0.000000 0.000000
# 4 0.000000 0.000000 0.000000 0.043203 0.000000 0.000000
# 5 0.000000 0.000000 0.000000 0.000000 0.043203 0.000000
# 6 0.000000 0.000000 0.000000 0.000000 0.000000 0.011503
#
#
# Mechanical properties :
#
#
# Convention : Reuss Voigt Hill
#
# Bulk Modulus (GPa) = 44.75580 61.92071 53.33826
# Shear Modulus (GPa) = 25.66054 47.27192 36.46623
#
# Velocity S-wave (km/s) = 3.94115 5.34923 4.69824
# Velocity P-wave (km/s) = 6.91386 8.69676 7.85605
#
# Compressibility (1/GPa) = 0.02234347
#
# Stress axis : x y z
#
# Youngs Moduli (GPa) = 59.15246 59.15305 45.23186
#
# Poissons Ratio (x) = -0.65981 0.63194
# Poissons Ratio (y) = -0.65980 0.63193
# Poissons Ratio (z) = 0.82642 0.82643
#
# Static dielectric constant tensor:
#      x y z
#    x 1.535710 0.000000 0.000000 
#    y 0.000000 1.535710 0.000000 
#    z 0.000000 0.000000 1.589210 
# 
# From -- ./inp_files/2205.got.cif
#   From: 2010.05.17/outbox.cif.g08.bks.cpg/sg175_2_cif.got.tgz:2205.got - 2010.05.20 11:23:22.
