data_PCOD9581546
_publ_section_title
;
Structure prediction by ZEFSAII (Michael W. Deem and Ramdas Pophale) SiO2 
 PCOD9581546
Probable space group: P 6/M
;
_chemical_formula_sum "Si O2"
_cell_formula_units_Z 84
_cell_length_a 19.222861
_cell_length_b 19.222861
_cell_length_c 14.401965
_cell_angle_alpha 90.000000
_cell_angle_beta 90.000000
_cell_angle_gamma 120.000000
_cell_volume 4608.806068
_symmetry_space_group_name_H-M "P 6/M"
_symmetry_group_IT_number 175
_symmetry_cell_setting 'hexagonal'
loop_
_space_group_symop_operation_xyz
x,y,z
x-y,x,z
-y,x-y,z
-x,-y,z
-x+y,-x,z
y,-x+y,z
-x,-y,-z
-x+y,-x,-z
y,-x+y,-z
x,y,-z
x-y,x,-z
-y,x-y,-z
loop_
_atom_site_type_symbol
_atom_site_label
_atom_site_fract_x
_atom_site_fract_y
_atom_site_fract_z
Si Si1 0.000000 0.282360 0.750000
Si Si2 0.540679 0.444283 0.390443
Si Si3 0.854163 0.311208 0.738794
Si Si4 0.173674 0.149941 0.389607
Si Si5 0.457045 0.311208 0.761206
Si Si6 0.444283 0.540679 0.109557
Si Si7 0.149941 0.173674 0.889607
O O1 0.074909 0.366762 0.779773
O O2 0.925091 0.291853 0.720227
O O3 0.029083 0.246935 0.667427
O O4 0.970917 0.217852 0.832573
O O5 0.500000 0.500000 0.376310
O O6 0.544390 0.432550 0.500000
O O7 0.628075 0.487913 0.342139
O O8 0.487162 0.362807 0.333646
O O9 0.769028 0.230972 0.750000
O O10 0.875645 0.362807 0.833646
O O11 0.157355 0.061557 0.366840
O O12 0.187448 0.161411 0.500000
O O13 0.512087 0.371925 0.842139
O O14 0.500000 0.500000 0.123690
O O15 0.432550 0.544390 0.000000
O O16 0.157355 0.095798 0.866840
O O17 0.161411 0.187448 0.000000
#
# Coordination Sequence:
#
# PCOD9581546 Si02
#       7
#    12  12  12  12  12  12  12
#     4  12  22  37  57  88 120 154 194 238 296 354
#     4  10  21  43  68  89 119 162 207 245 298 369
#     4  11  22  39  64  92 123 156 194 246 301 355
#     4  10  21  36  53  76 111 156 202 246 292 343
#     4  11  22  39  64  92 123 156 194 246 301 355
#     4  10  21  43  68  89 119 162 207 245 298 369
#     4  10  21  36  53  76 111 156 202 246 292 343
#
# _framework density 18.225978000000001
#
# number of rings (size 3 to 8) (size 9 to 14) (size 15 to 20)
#    0.000    1.429    2.857    3.714    0.000    4.571 
#    6.857    1.429    0.000    0.000    0.000    0.000 
#    0.000    0.000    0.000    0.000    0.000    0.000 
#
# Total GULP energy -469370.809367 kJ/mol
# GULP energy per Si atom -5587.747731 kJ/mol
# Density = 1.818449 g / cm^3
# Si number density = 18.225978 Si / 1000 Ang^3
#
#
#
# Elastic Constant Matrix: (Units=GPa)
#
#
# Indices 1 2 3 4 5 6 
#
# 1 59.9455 0.9784 3.9429 0.0000 0.0000 0.0000
# 2 0.9784 59.9455 3.9429 0.0000 0.0000 0.0000
# 3 3.9429 3.9429 79.3065 0.0000 0.0000 0.0000
# 4 0.0000 0.0000 0.0000 15.0724 0.0000 0.0000
# 5 0.0000 0.0000 0.0000 0.0000 15.0724 0.0000
# 6 0.0000 0.0000 0.0000 0.0000 0.0000 29.4836
#
#
#
# Elastic Compliance Matrix: (Units=1/GPa)
#
#
# Indices 1 2 3 4 5 6 
#
# 1 0.016739 -0.000219 -0.000821 0.000000 0.000000 0.000000
# 2 -0.000219 0.016739 -0.000821 0.000000 0.000000 0.000000
# 3 -0.000821 -0.000821 0.012691 0.000000 0.000000 0.000000
# 4 0.000000 0.000000 0.000000 0.066347 0.000000 0.000000
# 5 0.000000 0.000000 0.000000 0.000000 0.066347 0.000000
# 6 0.000000 0.000000 0.000000 0.000000 0.000000 0.033917
#
#
# Mechanical properties :
#
#
# Convention : Reuss Voigt Hill
#
# Bulk Modulus (GPa) = 23.55930 24.10288 23.83109
# Shear Modulus (GPa) = 21.67762 24.61455 23.14608
#
# Velocity S-wave (km/s) = 3.45248 3.67893 3.56750
# Velocity P-wave (km/s) = 5.37095 5.59457 5.48390
#
# Compressibility (1/GPa) = 0.04244608
#
# Stress axis : x y z
#
# Youngs Moduli (GPa) = 59.73924 59.73924 78.79611
#
# Poissons Ratio (x) = 0.01309 0.06472
# Poissons Ratio (y) = 0.01309 0.06472
# Poissons Ratio (z) = 0.04907 0.04907
#
# Static dielectric constant tensor:
#      x y z
#    x 1.612100 0.000000 0.000000 
#    y 0.000000 1.612100 0.000000 
#    z 0.000000 0.000000 1.623160 
# 
# From -- ./inp_files/2605.got.cif
#   From: 2010.05.17/outbox.cif.g08.bks.cpg/sg175_2_cif.got.tgz:2605.got - 2010.05.20 11:23:22.
