data_PCOD9581788
_publ_section_title
;
Structure prediction by ZEFSAII (Michael W. Deem and Ramdas Pophale) SiO2 
 PCOD9581788
Probable space group: P 63/M
;
_chemical_formula_sum "Si O2"
_cell_formula_units_Z 72
_cell_length_a 24.173751
_cell_length_b 24.173751
_cell_length_c 9.047180
_cell_angle_alpha 90.000000
_cell_angle_beta 90.000000
_cell_angle_gamma 120.000000
_cell_volume 4578.592067
_symmetry_space_group_name_H-M "P 63/M"
_symmetry_group_IT_number 176
_symmetry_cell_setting 'hexagonal'
loop_
_space_group_symop_operation_xyz
x,y,z
x-y,x,1/2+z
-y,x-y,z
-x,-y,1/2+z
-x+y,-x,z
y,-x+y,1/2+z
-x,-y,-z
-x+y,-x,1/2-z
y,-x+y,-z
x,y,1/2-z
x-y,x,-z
-y,x-y,1/2-z
loop_
_atom_site_type_symbol
_atom_site_label
_atom_site_fract_x
_atom_site_fract_y
_atom_site_fract_z
Si Si1 0.934164 0.737590 0.425701
Si Si2 0.598537 0.075677 0.425825
Si Si3 0.397279 0.136641 0.573365
Si Si4 0.865994 0.599849 0.926264
Si Si5 0.193702 0.260459 0.925354
Si Si6 0.925374 0.406743 0.926421
O O1 0.939342 0.731563 0.250000
O O2 0.910980 0.669204 0.501783
O O3 0.878142 0.754019 0.453241
O O4 0.001492 0.788406 0.493418
O O5 0.605386 0.084587 0.250000
O O6 0.666289 0.116035 0.504487
O O7 0.545560 0.091312 0.487608
O O8 0.569606 0.999936 0.456839
O O9 0.385219 0.125693 0.750000
O O10 0.416359 0.209760 0.543683
O O11 0.331577 0.092245 0.488178
O O12 0.450116 0.117610 0.534052
O O13 0.875218 0.603572 0.750000
O O14 0.202713 0.259350 0.750000
O O15 0.919993 0.413915 0.750000
#
# Coordination Sequence:
#
# PCOD9581788 Si02
#       6
#    12  12  12  12  12  12
#     4  10  20  33  49  71  99 128 159 197 238 281
#     4  10  19  30  47  71  97 125 155 192 239 283
#     4   9  18  32  50  71  96 127 159 194 236 280
#     4  10  19  31  49  72  97 126 160 196 235 281
#     4  10  20  32  49  73  98 127 161 195 235 283
#     4   9  18  32  48  67  93 124 158 193 231 279
#
# _framework density 15.725358
#
# number of rings (size 3 to 8) (size 9 to 14) (size 15 to 20)
#    0.000    2.333    0.000    3.000    0.000    5.333 
#    0.000    0.000    0.000    1.000    0.000    2.333 
#    0.000    0.000    0.000    0.000    0.000    0.000 
#
# Total GULP energy -401736.871419 kJ/mol
# GULP energy per Si atom -5579.678770 kJ/mol
# Density = 1.568957 g / cm^3
# Si number density = 15.725358 Si / 1000 Ang^3
#
#
#
# Elastic Constant Matrix: (Units=GPa)
#
#
# Indices 1 2 3 4 5 6 
#
# 1 109.3432 71.5871 66.6012 0.0000 0.0000 0.0000
# 2 71.5871 109.3432 66.6012 0.0000 0.0000 0.0000
# 3 66.6012 66.6012 71.7460 0.0000 0.0000 0.0000
# 4 0.0000 0.0000 0.0000 26.5342 0.0000 0.0000
# 5 0.0000 0.0000 0.0000 0.0000 26.5342 0.0000
# 6 0.0000 0.0000 0.0000 0.0000 0.0000 18.8780
#
#
#
# Elastic Compliance Matrix: (Units=1/GPa)
#
#
# Indices 1 2 3 4 5 6 
#
# 1 0.021972 -0.004514 -0.016206 0.000000 0.000000 0.000000
# 2 -0.004514 0.021972 -0.016206 0.000000 0.000000 0.000000
# 3 -0.016206 -0.016206 0.044026 0.000000 0.000000 0.000000
# 4 0.000000 0.000000 0.000000 0.037687 0.000000 0.000000
# 5 0.000000 0.000000 0.000000 0.000000 0.037687 0.000000
# 6 0.000000 0.000000 0.000000 0.000000 0.000000 0.052972
#
#
# Mechanical properties :
#
#
# Convention : Reuss Voigt Hill
#
# Bulk Modulus (GPa) = 70.83354 77.77901 74.30627
# Shear Modulus (GPa) = 16.95634 20.09880 18.52757
#
# Velocity S-wave (km/s) = 3.28728 3.57895 3.43621
# Velocity P-wave (km/s) = 7.71688 8.16375 7.94346
#
# Compressibility (1/GPa) = 0.01411761
#
# Stress axis : x y z
#
# Youngs Moduli (GPa) = 45.51250 45.51250 22.71370
#
# Poissons Ratio (x) = 0.20544 0.36810
# Poissons Ratio (y) = 0.20544 0.36810
# Poissons Ratio (z) = 0.73759 0.73759
#
# Static dielectric constant tensor:
#      x y z
#    x 1.507740 0.000000 0.000000 
#    y 0.000000 1.507740 0.000000 
#    z 0.000000 0.000000 1.520660 
# 
# From -- ./inp_files/1163.got.cif
#   From: 2010.05.17/outbox.cif.g08.bks.cpg/sg176_1_cif.got.tgz:1163.got - 2010.06.03 11:36:45.
