data_PCOD9581819
_publ_section_title
;
Structure prediction by ZEFSAII (Michael W. Deem and Ramdas Pophale) SiO2 
 PCOD9581819
Probable space group: P 63/M
;
_chemical_formula_sum "Si O2"
_cell_formula_units_Z 96
_cell_length_a 14.344843
_cell_length_b 14.344843
_cell_length_c 26.374254
_cell_angle_alpha 90.000000
_cell_angle_beta 90.000000
_cell_angle_gamma 120.000000
_cell_volume 4700.049316
_symmetry_space_group_name_H-M "P 63/M"
_symmetry_group_IT_number 176
_symmetry_cell_setting 'hexagonal'
loop_
_space_group_symop_operation_xyz
x,y,z
x-y,x,1/2+z
-y,x-y,z
-x,-y,1/2+z
-x+y,-x,z
y,-x+y,1/2+z
-x,-y,-z
-x+y,-x,1/2-z
y,-x+y,-z
x,y,1/2-z
x-y,x,-z
-y,x-y,1/2-z
loop_
_atom_site_type_symbol
_atom_site_label
_atom_site_fract_x
_atom_site_fract_y
_atom_site_fract_z
Si Si1 0.534258 0.250452 0.407659
Si Si2 0.722431 0.082844 0.306292
Si Si3 0.631228 0.098010 0.850153
Si Si4 0.674265 0.935963 0.048807
Si Si5 0.563249 0.863846 0.345008
Si Si6 0.473316 0.869709 0.808522
Si Si7 0.143930 0.290480 0.906629
Si Si8 0.286927 0.950580 0.448610
O O1 0.623848 0.219028 0.423563
O O2 0.530096 0.216626 0.348225
O O3 0.414137 0.196949 0.425586
O O4 0.764028 0.120529 0.250000
O O5 0.627541 0.110857 0.317634
O O6 0.815211 0.123251 0.348234
O O7 0.653525 0.953575 0.309387
O O8 0.551407 0.143749 0.838807
O O9 0.751706 0.191583 0.838424
O O10 0.639668 0.069457 0.909006
O O11 0.579306 0.984457 0.820553
O O12 0.600742 0.912634 0.098233
O O13 0.662284 0.821009 0.037414
O O14 0.793858 0.028547 0.066305
O O15 0.652787 0.986737 0.999287
O O16 0.469350 0.838430 0.750000
O O17 0.222494 0.245127 0.918904
#
# Coordination Sequence:
#
# PCOD9581819 Si02
#       8
#    12  12  12  12  12  12  12  12
#     4  10  20  34  55  85 119 161 189 229 300 367
#     4   9  18  34  55  82 115 153 192 239 298 354
#     4  10  20  36  56  82 117 157 202 246 298 353
#     4  10  22  38  59  85 111 150 197 250 303 359
#     4   9  20  35  57  80 115 158 197 244 291 352
#     4  10  19  32  52  85 121 155 197 242 294 359
#     4  11  20  37  61  82 121 151 193 246 302 367
#     4  11  21  38  60  85 114 148 200 250 310 364
#
# _framework density 20.425317
#
# number of rings (size 3 to 8) (size 9 to 14) (size 15 to 20)
#    0.250    1.750    3.750    0.250    0.000    2.000 
#    0.750    0.625    0.000    2.250    0.000    0.000 
#    0.000    0.000    0.000    0.000    0.000    0.000 
#
# Total GULP energy -534836.399629 kJ/mol
# GULP energy per Si atom -5571.212496 kJ/mol
# Density = 2.037883 g / cm^3
# Si number density = 20.425317 Si / 1000 Ang^3
#
#
#
# Elastic Constant Matrix: (Units=GPa)
#
#
# Indices 1 2 3 4 5 6 
#
# 1 48.2925 -3.3332 -0.8721 0.0000 0.0000 0.0000
# 2 -3.3332 48.2925 -0.8721 0.0000 0.0000 0.0000
# 3 -0.8721 -0.8721 60.7032 0.0000 0.0000 0.0000
# 4 0.0000 0.0000 0.0000 18.1568 0.0000 0.0000
# 5 0.0000 0.0000 0.0000 0.0000 18.1568 0.0000
# 6 0.0000 0.0000 0.0000 0.0000 0.0000 25.8128
#
#
#
# Elastic Compliance Matrix: (Units=1/GPa)
#
#
# Indices 1 2 3 4 5 6 
#
# 1 0.020812 0.001442 0.000320 0.000000 0.000000 0.000000
# 2 0.001442 0.020812 0.000320 0.000000 0.000000 0.000000
# 3 0.000320 0.000320 0.016483 0.000000 0.000000 0.000000
# 4 0.000000 0.000000 0.000000 0.055076 0.000000 0.000000
# 5 0.000000 0.000000 0.000000 0.000000 0.055076 0.000000
# 6 0.000000 0.000000 0.000000 0.000000 0.000000 0.038740
#
#
# Mechanical properties :
#
#
# Convention : Reuss Voigt Hill
#
# Bulk Modulus (GPa) = 16.05881 16.34817 16.20349
# Shear Modulus (GPa) = 22.36202 23.24966 22.80584
#
# Velocity S-wave (km/s) = 3.31239 3.37750 3.34510
# Velocity P-wave (km/s) = 4.74432 4.81988 4.78225
#
# Compressibility (1/GPa) = 0.06227111
#
# Stress axis : x y z
#
# Youngs Moduli (GPa) = 48.04816 48.04816 60.66935
#
# Poissons Ratio (x) = -0.06930 -0.01940
# Poissons Ratio (y) = -0.06930 -0.01940
# Poissons Ratio (z) = -0.01536 -0.01536
#
# Static dielectric constant tensor:
#      x y z
#    x 1.736260 0.000000 0.000000 
#    y 0.000000 1.736260 0.000000 
#    z 0.000000 0.000000 1.777090 
# 
# From -- ./inp_files/4339.got.cif
#   From: 2010.05.17/outbox.cif.g08.bks.cpg/sg176_3_cif.got.tgz:4339.got - 2010.06.03 11:36:45.
