data_PCOD9581845
_publ_section_title
;
Structure prediction by ZEFSAII (Michael W. Deem and Ramdas Pophale) SiO2 
 PCOD9581845
Probable space group: P 63/M
;
_chemical_formula_sum "Si O2"
_cell_formula_units_Z 66
_cell_length_a 16.557450
_cell_length_b 16.557450
_cell_length_c 14.446183
_cell_angle_alpha 90.000000
_cell_angle_beta 90.000000
_cell_angle_gamma 120.000000
_cell_volume 3429.814628
_symmetry_space_group_name_H-M "P 63/M"
_symmetry_group_IT_number 176
_symmetry_cell_setting 'hexagonal'
loop_
_space_group_symop_operation_xyz
x,y,z
x-y,x,1/2+z
-y,x-y,z
-x,-y,1/2+z
-x+y,-x,z
y,-x+y,1/2+z
-x,-y,-z
-x+y,-x,1/2-z
y,-x+y,-z
x,y,1/2-z
x-y,x,-z
-y,x-y,1/2-z
loop_
_atom_site_type_symbol
_atom_site_label
_atom_site_fract_x
_atom_site_fract_y
_atom_site_fract_z
Si Si1 0.062201 0.854096 0.009320
Si Si2 0.214249 0.829325 0.572044
Si Si3 0.363527 0.896232 0.428111
Si Si4 0.566911 0.344217 0.750000
Si Si5 0.974540 0.308782 0.644064
Si Si6 0.475654 0.103760 0.027907
O O1 0.046640 0.789136 0.098465
O O2 0.115876 0.826260 0.933809
O O3 0.962810 0.833651 0.973384
O O4 0.264657 0.868237 0.472792
O O5 0.285219 0.912117 0.638333
O O6 0.184921 0.721197 0.574821
O O7 0.350961 0.836303 0.338826
O O8 0.420494 0.871939 0.503846
O O9 0.424281 0.007364 0.414743
O O10 0.575614 0.251346 0.750000
O O11 0.944443 0.302154 0.750000
O O12 0.926043 0.346332 0.571573
#
# Coordination Sequence:
#
# PCOD9581845 Si02
#       6
#    12  12  12   6  12  12
#     4   9  17  32  54  76 105 148 184 220 277 337
#     4   9  18  35  54  74 112 147 186 222 278 336
#     4  10  19  35  54  82 109 147 183 222 280 338
#     4  10  22  34  52  86 120 136 170 240 292 322
#     4   9  18  33  55  80 107 143 186 229 275 326
#     4   9  19  34  57  77 109 150 184 221 273 342
#
# _framework density 19.243022
#
# number of rings (size 3 to 8) (size 9 to 14) (size 15 to 20)
#    0.182    2.545    0.000    2.364    1.273    0.000 
#    9.273    3.636    0.000    0.000    0.000    0.000 
#    0.000    0.000    0.000    0.000    0.000    0.000 
#
# Total GULP energy -367683.607285 kJ/mol
# GULP energy per Si atom -5570.963747 kJ/mol
# Density = 1.919922 g / cm^3
# Si number density = 19.243022 Si / 1000 Ang^3
#
#
#
# Elastic Constant Matrix: (Units=GPa)
#
#
# Indices 1 2 3 4 5 6 
#
# 1 70.2219 1.8835 14.6748 0.0000 0.0000 0.0000
# 2 1.8835 70.2219 14.6748 0.0000 0.0000 0.0000
# 3 14.6748 14.6748 69.1865 0.0000 0.0000 0.0000
# 4 0.0000 0.0000 0.0000 10.1832 0.0000 0.0000
# 5 0.0000 0.0000 0.0000 0.0000 10.1832 0.0000
# 6 0.0000 0.0000 0.0000 0.0000 0.0000 34.1692
#
#
#
# Elastic Compliance Matrix: (Units=1/GPa)
#
#
# Indices 1 2 3 4 5 6 
#
# 1 0.014906 0.000273 -0.003220 0.000000 0.000000 0.000000
# 2 0.000273 0.014906 -0.003220 0.000000 0.000000 0.000000
# 3 -0.003220 -0.003220 0.015819 0.000000 0.000000 0.000000
# 4 0.000000 0.000000 0.000000 0.098201 0.000000 0.000000
# 5 0.000000 0.000000 0.000000 0.000000 0.098201 0.000000
# 6 0.000000 0.000000 0.000000 0.000000 0.000000 0.029266
#
#
# Mechanical properties :
#
#
# Convention : Reuss Voigt Hill
#
# Bulk Modulus (GPa) = 30.03061 30.23295 30.13178
# Shear Modulus (GPa) = 16.96455 22.80026 19.88241
#
# Velocity S-wave (km/s) = 2.97239 3.44591 3.21787
# Velocity P-wave (km/s) = 5.23641 5.61940 5.43128
#
# Compressibility (1/GPa) = 0.03329936
#
# Stress axis : x y z
#
# Youngs Moduli (GPa) = 67.08684 67.08684 63.21332
#
# Poissons Ratio (x) = -0.01831 0.20352
# Poissons Ratio (y) = -0.01831 0.20352
# Poissons Ratio (z) = 0.21599 0.21599
#
# Static dielectric constant tensor:
#      x y z
#    x 1.708160 0.000000 0.000000 
#    y 0.000000 1.708160 0.000000 
#    z 0.000000 0.000000 1.647370 
# 
# From -- ./inp_files/2815.got.cif
#   From: 2010.05.17/outbox.cif.g08.bks.cpg/sg176_2_cif.got.tgz:2815.got - 2010.06.03 11:36:45.
