data_PCOD9581907
_publ_section_title
;
Structure prediction by ZEFSAII (Michael W. Deem and Ramdas Pophale) SiO2 
 PCOD9581907
Probable space group: P 63/M
;
_chemical_formula_sum "Si O2"
_cell_formula_units_Z 68
_cell_length_a 18.987660
_cell_length_b 18.987660
_cell_length_c 13.506248
_cell_angle_alpha 90.000000
_cell_angle_beta 90.000000
_cell_angle_gamma 120.000000
_cell_volume 4217.045089
_symmetry_space_group_name_H-M "P 63/M"
_symmetry_group_IT_number 176
_symmetry_cell_setting 'hexagonal'
loop_
_space_group_symop_operation_xyz
x,y,z
x-y,x,1/2+z
-y,x-y,z
-x,-y,1/2+z
-x+y,-x,z
y,-x+y,1/2+z
-x,-y,-z
-x+y,-x,1/2-z
y,-x+y,-z
x,y,1/2-z
x-y,x,-z
-y,x-y,1/2-z
loop_
_atom_site_type_symbol
_atom_site_label
_atom_site_fract_x
_atom_site_fract_y
_atom_site_fract_z
Si Si1 0.399287 0.276448 0.367229
Si Si2 0.250138 0.003272 0.505412
Si Si3 0.333335 0.666667 0.629089
Si Si4 0.569265 0.422225 0.130160
Si Si5 0.000000 0.000000 0.883384
Si Si6 0.292034 0.403859 0.632673
Si Si7 0.190782 0.099234 0.638766
O O1 0.381272 0.279396 0.250000
O O2 0.322888 0.255106 0.436080
O O3 0.475712 0.363441 0.397706
O O4 0.422254 0.205010 0.375418
O O5 0.173913 0.966813 0.430985
O O6 0.329366 0.056846 0.438819
O O7 0.234486 0.055679 0.586496
O O8 0.333334 0.666668 0.750000
O O9 0.240454 0.618669 0.596197
O O10 0.569852 0.421105 0.250000
O O11 0.623052 0.516624 0.103094
O O12 0.962124 0.055979 0.854702
O O13 0.000000 0.000000 0.000000
O O14 0.295551 0.385834 0.750000
O O15 0.221303 0.126281 0.750000
#
# Coordination Sequence:
#
# PCOD9581907 Si02
#       7
#    12  12   4  12   4  12  12
#     4  10  20  34  54  79 108 139 172 220 274 322
#     4  12  22  38  52  74 112 144 182 222 264 326
#     4   9  12  21  45  72 102 126 151 194 247 306
#     4   9  16  29  52  81 105 131 167 208 264 322
#     4  12  22  41  55  79 104 136 190 242 271 325
#     4  10  20  34  54  79 108 139 172 220 274 322
#     4  12  24  38  57  77 105 148 191 231 275 321
#
# _framework density 16.125033999999999
#
# number of rings (size 3 to 8) (size 9 to 14) (size 15 to 20)
#    0.000    1.412    5.294    1.588    0.000    0.706 
#    0.000    0.000    0.000    0.000    0.000    0.000 
#    0.000    0.000    0.000    0.000    0.000    0.000 
#
# Total GULP energy -379174.854213 kJ/mol
# GULP energy per Si atom -5576.100797 kJ/mol
# Density = 1.608833 g / cm^3
# Si number density = 16.125034 Si / 1000 Ang^3
#
#
#
# Elastic Constant Matrix: (Units=GPa)
#
#
# Indices 1 2 3 4 5 6 
#
# 1 41.9555 -13.3056 13.5156 0.0000 0.0000 -0.0004
# 2 -13.3056 41.9549 13.5158 0.0000 0.0000 -0.0003
# 3 13.5156 13.5158 64.4393 0.0000 0.0000 0.0001
# 4 0.0000 0.0000 0.0000 -10.2036 -0.0001 0.0000
# 5 0.0000 0.0000 0.0000 -0.0001 -10.2035 0.0000
# 6 -0.0004 -0.0003 0.0001 0.0000 0.0000 27.6303
#
#
#
# Elastic Compliance Matrix: (Units=1/GPa)
#
#
# Indices 1 2 3 4 5 6 
#
# 1 0.030806 0.012710 -0.009127 0.000000 0.000000 0.000001
# 2 0.012710 0.030806 -0.009127 0.000000 0.000000 0.000000
# 3 -0.009127 -0.009127 0.019347 0.000000 0.000000 0.000000
# 4 0.000000 0.000000 0.000000 -0.098004 0.000001 0.000000
# 5 0.000000 0.000000 0.000000 0.000001 -0.098005 0.000000
# 6 0.000001 0.000000 0.000000 0.000000 0.000000 0.036192
#
#
# Mechanical properties :
#
#
# Convention : Reuss Voigt Hill
#
# Bulk Modulus (GPa) = 14.31213 19.53346 16.92279
# Shear Modulus (GPa) = -112.41224 10.41956 -50.99634
#
# Velocity S-wave (km/s) = -8.35848 2.54475 -5.62976
# Velocity P-wave (km/s) = 9.17918 4.55789 5.63396
#
# Compressibility (1/GPa) = 0.06987082
#
# Stress axis : x y z
#
# Youngs Moduli (GPa) = 32.46131 32.46084 51.68698
#
# Poissons Ratio (x) = -0.41258 0.47176
# Poissons Ratio (y) = -0.41259 0.47176
# Poissons Ratio (z) = 0.29628 0.29628
#
# Static dielectric constant tensor:
#      x y z
#    x 1.545300 0.000000 0.000000 
#    y 0.000000 1.545290 0.000000 
#    z 0.000000 0.000000 1.519860 
# 
# From -- ./inp_files/2833.got.cif
#   From: 2010.05.17/outbox.cif.g08.bks.cpg/sg176_2_cif.got.tgz:2833.got - 2010.06.03 11:36:45.
