data_PCOD9581601
_publ_section_title
;
Structure prediction by ZEFSAII (Michael W. Deem and Ramdas Pophale) SiO2 
 PCOD9581601
Probable space group: P 6/M
;
_chemical_formula_sum "Si O2"
_cell_formula_units_Z 84
_cell_length_a 18.144406
_cell_length_b 18.144406
_cell_length_c 14.044283
_cell_angle_alpha 90.000000
_cell_angle_beta 90.000000
_cell_angle_gamma 120.000000
_cell_volume 4004.199565
_symmetry_space_group_name_H-M "P 6/M"
_symmetry_group_IT_number 175
_symmetry_cell_setting 'hexagonal'
loop_
_space_group_symop_operation_xyz
x,y,z
x-y,x,z
-y,x-y,z
-x,-y,z
-x+y,-x,z
y,-x+y,z
-x,-y,-z
-x+y,-x,-z
y,-x+y,-z
x,y,-z
x-y,x,-z
-y,x-y,-z
loop_
_atom_site_type_symbol
_atom_site_label
_atom_site_fract_x
_atom_site_fract_y
_atom_site_fract_z
Si Si1 0.948638 0.139961 0.884857
Si Si2 0.577266 0.097453 0.603794
Si Si3 0.528191 0.099935 0.194235
Si Si4 0.816730 0.843558 0.614962
Si Si5 0.383760 0.145149 0.825274
Si Si6 0.431801 0.319949 0.897506
Si Si7 0.634415 0.733561 0.302289
O O1 0.918797 0.204624 0.849627
O O2 0.043981 0.165419 0.855207
O O3 0.948648 0.141311 0.000000
O O4 0.580749 0.135695 0.500000
O O5 0.559237 0.134899 0.698871
O O6 0.664996 0.098585 0.626030
O O7 0.500000 0.000000 0.600611
O O8 0.416919 0.225249 0.103472
O O9 0.609029 0.137956 0.124159
O O10 0.500000 0.000000 0.192933
O O11 0.832762 0.936448 0.641909
O O12 0.809207 0.837223 0.500000
O O13 0.728972 0.772765 0.660023
O O14 0.383793 0.189851 0.724161
O O15 0.450176 0.112793 0.830135
O O16 0.380989 0.313561 0.800167
O O17 0.404098 0.336914 0.000000
#
# Coordination Sequence:
#
# PCOD9581601 Si02
#       7
#    12  12  12  12  12  12  12
#     4  10  22  39  62  89 126 176 233 290 342 397
#     4   9  18  36  63  94 127 162 202 256 323 393
#     4  10  22  40  66  96 129 166 214 272 328 398
#     4  10  21  38  63  95 132 175 226 284 346 407
#     4  10  23  40  62  94 130 172 220 280 337 392
#     4   9  21  41  62  90 126 171 216 267 330 392
#     4   9  21  38  61  91 129 168 212 270 321 395
#
# _framework density 20.977976000000002
#
# number of rings (size 3 to 8) (size 9 to 14) (size 15 to 20)
#    0.857    1.571    0.000    1.143    2.000    7.143 
#    0.857    2.857    0.000    1.714    0.000    0.000 
#    0.000    1.143    0.000    0.000    0.000    0.000 
#
# Total GULP energy -468537.225977 kJ/mol
# GULP energy per Si atom -5577.824119 kJ/mol
# Density = 2.093023 g / cm^3
# Si number density = 20.977976 Si / 1000 Ang^3
#
#
#
# Elastic Constant Matrix: (Units=GPa)
#
#
# Indices 1 2 3 4 5 6 
#
# 1 114.1827 54.6685 14.4749 0.0000 0.0000 0.0000
# 2 54.6685 114.1827 14.4749 0.0000 0.0000 0.0000
# 3 14.4749 14.4749 73.5081 0.0000 0.0000 0.0000
# 4 0.0000 0.0000 0.0000 30.3594 0.0000 0.0000
# 5 0.0000 0.0000 0.0000 0.0000 30.3594 0.0000
# 6 0.0000 0.0000 0.0000 0.0000 0.0000 29.7571
#
#
#
# Elastic Compliance Matrix: (Units=1/GPa)
#
#
# Indices 1 2 3 4 5 6 
#
# 1 0.011466 -0.005337 -0.001207 0.000000 0.000000 0.000000
# 2 -0.005337 0.011466 -0.001207 0.000000 0.000000 0.000000
# 3 -0.001207 -0.001207 0.014079 0.000000 0.000000 0.000000
# 4 0.000000 0.000000 0.000000 0.032939 0.000000 0.000000
# 5 0.000000 0.000000 0.000000 0.000000 0.032939 0.000000
# 6 0.000000 0.000000 0.000000 0.000000 0.000000 0.033605
#
#
# Mechanical properties :
#
#
# Convention : Reuss Voigt Hill
#
# Bulk Modulus (GPa) = 46.48987 52.12336 49.30661
# Shear Modulus (GPa) = 31.41384 32.64551 32.02967
#
# Velocity S-wave (km/s) = 3.87391 3.94912 3.91170
# Velocity P-wave (km/s) = 6.49761 6.75979 6.63000
#
# Compressibility (1/GPa) = 0.02151006
#
# Stress axis : x y z
#
# Youngs Moduli (GPa) = 87.21424 87.21424 71.02632
#
# Poissons Ratio (x) = 0.46544 0.08573
# Poissons Ratio (y) = 0.46544 0.08573
# Poissons Ratio (z) = 0.10526 0.10526
#
# Static dielectric constant tensor:
#      x y z
#    x 1.751150 0.000000 0.000000 
#    y 0.000000 1.751150 0.000000 
#    z 0.000000 0.000000 1.815130 
# 
# From -- ./inp_files/2629.got.cif
#   From: 2010.05.17/outbox.cif.g08.bks.cpg/sg175_2_cif.got.tgz:2629.got - 2010.05.20 11:23:22.
