data_PCOD9581636
_publ_section_title
;
Structure prediction by ZEFSAII (Michael W. Deem and Ramdas Pophale) SiO2 
 PCOD9581636
Probable space group: P 6/M
;
_chemical_formula_sum "Si O2"
_cell_formula_units_Z 40
_cell_length_a 15.587980
_cell_length_b 15.587980
_cell_length_c 7.418601
_cell_angle_alpha 90.000000
_cell_angle_beta 90.000000
_cell_angle_gamma 120.000000
_cell_volume 1561.105757
_symmetry_space_group_name_H-M "P 6/M"
_symmetry_group_IT_number 175
_symmetry_cell_setting 'hexagonal'
loop_
_space_group_symop_operation_xyz
x,y,z
x-y,x,z
-y,x-y,z
-x,-y,z
-x+y,-x,z
y,-x+y,z
-x,-y,-z
-x+y,-x,-z
y,-x+y,-z
x,y,-z
x-y,x,-z
-y,x-y,-z
loop_
_atom_site_type_symbol
_atom_site_label
_atom_site_fract_x
_atom_site_fract_y
_atom_site_fract_z
Si Si1 0.865150 0.494258 0.780659
Si Si2 0.666668 0.333334 0.779548
Si Si3 0.338606 0.403308 0.783885
Si Si4 0.777174 0.916778 0.713935
O O1 0.751804 0.441724 0.722348
O O2 0.950013 0.601137 0.718525
O O3 0.895389 0.411938 0.728578
O O4 0.865572 0.499506 0.000000
O O5 0.666667 0.333334 0.000000
O O6 0.223771 0.337135 0.739164
O O7 0.341391 0.408058 0.000000
O O8 0.792041 0.920346 0.500000
O O9 0.843846 0.029460 0.786218
#
# Coordination Sequence:
#
# PCOD9581636 Si02
#       4
#    12   4  12  12
#     4   8  16  29  46  76 114 142 169 205 249 299
#     4   9  15  24  45  72 106 149 175 192 238 311
#     4   9  18  33  53  80 108 134 169 216 257 294
#     4  10  22  39  57  75  98 132 172 213 260 316
#
# _framework density 25.622862000000001
#
# number of rings (size 3 to 8) (size 9 to 14) (size 15 to 20)
#    0.000    3.000    0.000    2.100    4.200    2.400 
#    0.000    3.000    0.000    1.800    0.000    0.000 
#    0.000    0.000    0.000    0.000    0.000    0.000 
#
# Total GULP energy -223311.372875 kJ/mol
# GULP energy per Si atom -5582.784322 kJ/mol
# Density = 2.556454 g / cm^3
# Si number density = 25.622862 Si / 1000 Ang^3
#
#
#
# Elastic Constant Matrix: (Units=GPa)
#
#
# Indices 1 2 3 4 5 6 
#
# 1 80.0671 -5.0195 -7.8055 0.0000 0.0000 -0.0006
# 2 -5.0195 80.0714 -7.8054 0.0000 0.0000 -0.0005
# 3 -7.8055 -7.8054 78.9409 0.0000 0.0000 -0.0001
# 4 0.0000 0.0000 0.0000 16.4596 -0.0003 0.0000
# 5 0.0000 0.0000 0.0000 -0.0003 16.4590 0.0000
# 6 -0.0006 -0.0005 -0.0001 0.0000 0.0000 42.5456
#
#
#
# Elastic Compliance Matrix: (Units=1/GPa)
#
#
# Indices 1 2 3 4 5 6 
#
# 1 0.012679 0.000926 0.001345 0.000000 0.000000 0.000000
# 2 0.000926 0.012678 0.001345 0.000000 0.000000 0.000000
# 3 0.001345 0.001345 0.012934 0.000000 0.000000 0.000000
# 4 0.000000 0.000000 0.000000 0.060755 0.000001 0.000000
# 5 0.000000 0.000000 0.000000 0.000001 0.060757 0.000000
# 6 0.000000 0.000000 0.000000 0.000000 0.000000 0.023504
#
#
# Mechanical properties :
#
#
# Convention : Reuss Voigt Hill
#
# Bulk Modulus (GPa) = 21.96696 21.97985 21.97340
# Shear Modulus (GPa) = 26.14398 32.40681 29.27539
#
# Velocity S-wave (km/s) = 3.19774 3.56021 3.38383
# Velocity P-wave (km/s) = 4.71443 5.04945 4.88481
#
# Compressibility (1/GPa) = 0.04552292
#
# Stress axis : x y z
#
# Youngs Moduli (GPa) = 78.87234 78.87665 77.31728
#
# Poissons Ratio (x) = -0.07303 -0.10401
# Poissons Ratio (y) = -0.07303 -0.10400
# Poissons Ratio (z) = -0.10610 -0.10610
#
# Static dielectric constant tensor:
#      x y z
#    x 2.039950 0.000000 0.000000 
#    y 0.000000 2.039940 0.000000 
#    z 0.000000 0.000000 1.992310 
# 
# From -- ./inp_files/418.got.cif
#   From: 2010.05.17/outbox.cif.g08.bks.cpg/sg175_1_cif.got.tgz:418.got - 2010.05.20 11:23:22.
