data_PCOD9581573
_publ_section_title
;
Structure prediction by ZEFSAII (Michael W. Deem and Ramdas Pophale) SiO2 
 PCOD9581573
Probable space group: P 6/M
;
_chemical_formula_sum "Si O2"
_cell_formula_units_Z 42
_cell_length_a 17.132844
_cell_length_b 17.132844
_cell_length_c 7.940633
_cell_angle_alpha 90.000000
_cell_angle_beta 90.000000
_cell_angle_gamma 120.000000
_cell_volume 2018.574009
_symmetry_space_group_name_H-M "P 6/M"
_symmetry_group_IT_number 175
_symmetry_cell_setting 'hexagonal'
loop_
_space_group_symop_operation_xyz
x,y,z
x-y,x,z
-y,x-y,z
-x,-y,z
-x+y,-x,z
y,-x+y,z
-x,-y,-z
-x+y,-x,-z
y,-x+y,-z
x,y,-z
x-y,x,-z
-y,x-y,-z
loop_
_atom_site_type_symbol
_atom_site_label
_atom_site_fract_x
_atom_site_fract_y
_atom_site_fract_z
Si Si1 0.838210 0.188487 0.690414
Si Si2 0.440133 0.351368 0.808613
Si Si3 0.384598 0.495119 0.300163
Si Si4 0.785239 0.920687 0.000000
O O1 0.874253 0.196648 0.500000
O O2 0.734478 0.110697 0.697968
O O3 0.832101 0.278279 0.728512
O O4 0.894757 0.172660 0.833534
O O5 0.546471 0.405527 0.766355
O O6 0.410788 0.425845 0.782785
O O7 0.425632 0.319658 0.000000
O O8 0.400295 0.497554 0.500000
O O9 0.831842 0.858530 0.000000
#
# Coordination Sequence:
#
# PCOD9581573 Si02
#       4
#    12  12  12   6
#     4  11  24  42  66  97 130 172 220 265 320 397
#     4  11  21  35  61  91 125 163 206 256 309 370
#     4  10  21  37  60  88 125 166 207 253 307 371
#     4  12  27  46  70  98 130 168 218 286 355 412
#
# _framework density 20.806766
#
# number of rings (size 3 to 8) (size 9 to 14) (size 15 to 20)
#    0.000    1.143    1.429    7.000    4.000    3.429 
#    1.714    0.000    0.000    1.714    0.000    0.000 
#    0.000    0.000    0.000    0.000    0.000    0.000 
#
# Total GULP energy -234559.342988 kJ/mol
# GULP energy per Si atom -5584.746262 kJ/mol
# Density = 2.075941 g / cm^3
# Si number density = 20.806766 Si / 1000 Ang^3
#
#
#
# Elastic Constant Matrix: (Units=GPa)
#
#
# Indices 1 2 3 4 5 6 
#
# 1 50.3967 -4.8904 15.6536 0.0000 0.0000 0.0000
# 2 -4.8904 50.3967 15.6536 0.0000 0.0000 0.0000
# 3 15.6536 15.6536 119.5870 0.0000 0.0000 0.0000
# 4 0.0000 0.0000 0.0000 36.5376 0.0000 0.0000
# 5 0.0000 0.0000 0.0000 0.0000 36.5376 0.0000
# 6 0.0000 0.0000 0.0000 0.0000 0.0000 27.6435
#
#
#
# Elastic Compliance Matrix: (Units=1/GPa)
#
#
# Indices 1 2 3 4 5 6 
#
# 1 0.021119 0.003031 -0.003161 0.000000 0.000000 0.000000
# 2 0.003031 0.021119 -0.003161 0.000000 0.000000 0.000000
# 3 -0.003161 -0.003161 0.009190 0.000000 0.000000 0.000000
# 4 0.000000 0.000000 0.000000 0.027369 0.000000 0.000000
# 5 0.000000 0.000000 0.000000 0.000000 0.027369 0.000000
# 6 0.000000 0.000000 0.000000 0.000000 0.000000 0.036175
#
#
# Mechanical properties :
#
#
# Convention : Reuss Voigt Hill
#
# Bulk Modulus (GPa) = 22.29918 30.35710 26.32814
# Shear Modulus (GPa) = 30.51194 33.07464 31.79329
#
# Velocity S-wave (km/s) = 3.83357 3.99132 3.91324
# Velocity P-wave (km/s) = 5.50777 5.98853 5.75318
#
# Compressibility (1/GPa) = 0.04484469
#
# Stress axis : x y z
#
# Youngs Moduli (GPa) = 47.35163 47.35163 108.81776
#
# Poissons Ratio (x) = -0.14353 0.34399
# Poissons Ratio (y) = -0.14353 0.34399
# Poissons Ratio (z) = 0.14968 0.14968
#
# Static dielectric constant tensor:
#      x y z
#    x 1.809580 0.000000 0.000000 
#    y 0.000000 1.809580 0.000000 
#    z 0.000000 0.000000 1.736570 
# 
# From -- ./inp_files/433.got.cif
#   From: 2010.05.17/outbox.cif.g08.bks.cpg/sg175_1_cif.got.tgz:433.got - 2010.05.20 11:23:22.
