data_PCOD9581176
_publ_section_title
;
Structure prediction by ZEFSAII (Michael W. Deem and Ramdas Pophale) SiO2 
 PCOD9581176
Probable space group: P -6
;
_chemical_formula_sum "Si O2"
_cell_formula_units_Z 32
_cell_length_a 14.703464
_cell_length_b 14.703464
_cell_length_c 8.759653
_cell_angle_alpha 90.000000
_cell_angle_beta 90.000000
_cell_angle_gamma 120.000000
_cell_volume 1640.049135
_symmetry_space_group_name_H-M "P -6"
_symmetry_group_IT_number 174
_symmetry_cell_setting 'hexagonal'
loop_
_space_group_symop_operation_xyz
x,y,z
-x+y,-x,-z
-y,x-y,z
x,y,-z
-x+y,-x,z
-y,x-y,-z
loop_
_atom_site_type_symbol
_atom_site_label
_atom_site_fract_x
_atom_site_fract_y
_atom_site_fract_z
Si Si1 0.153805 0.219592 0.316538
Si Si2 0.410079 0.798920 0.182582
Si Si3 0.446679 0.228321 0.684077
Si Si4 0.666668 0.333335 0.181774
Si Si5 0.014110 0.614369 0.681593
Si Si6 0.934895 0.161596 0.182806
O O1 0.143387 0.207825 0.500000
O O2 0.262092 0.326126 0.281590
O O3 0.168761 0.126152 0.247847
O O4 0.053045 0.215870 0.243492
O O5 0.286689 0.732734 0.226468
O O6 0.485941 0.911711 0.250622
O O7 0.414457 0.807290 0.000000
O O8 0.445940 0.222567 0.500000
O O9 0.554685 0.246536 0.751863
O O10 0.436898 0.330135 0.730657
O O11 0.344225 0.128164 0.750461
O O12 0.666667 0.333334 0.000000
O O13 0.013271 0.603605 0.500000
O O14 0.931504 0.159850 0.000000
#
# Coordination Sequence:
#
# PCOD9581176 Si02
#       6
#     6   6   6   2   6   6
#     4  10  20  35  54  78 115 156 191 231 289 354
#     4   8  17  33  51  75 108 144 174 212 270 331
#     4  10  22  42  63  83 114 154 195 242 302 359
#     4  12  25  44  67  93 115 149 202 255 304 350
#     4   9  19  35  57  83 107 143 189 231 276 335
#     4  11  21  35  56  88 119 152 197 247 295 349
#
# _framework density 19.511609
#
# number of rings (size 3 to 8) (size 9 to 14) (size 15 to 20)
#    0.375    1.875    0.000    4.875    0.000    5.250 
#    3.375    0.000    0.000    0.000    0.000    0.000 
#    0.000    0.000    0.000    0.000    0.000    0.000 
#
# Total GULP energy -178529.926671 kJ/mol
# GULP energy per Si atom -5579.060208 kJ/mol
# Density = 1.946720 g / cm^3
# Si number density = 19.511609 Si / 1000 Ang^3
#
#
#
# Elastic Constant Matrix: (Units=GPa)
#
#
# Indices 1 2 3 4 5 6 
#
# 1 55.1988 20.6102 26.6812 0.0000 0.0000 -0.0008
# 2 20.6102 55.1973 26.6812 0.0000 0.0000 -0.0008
# 3 26.6812 26.6812 76.1019 0.0000 0.0000 -0.0001
# 4 0.0000 0.0000 0.0000 -11.3817 0.0000 0.0000
# 5 0.0000 0.0000 0.0000 0.0000 -11.3837 0.0000
# 6 -0.0008 -0.0008 -0.0001 0.0000 0.0000 17.2936
#
#
#
# Elastic Compliance Matrix: (Units=1/GPa)
#
#
# Indices 1 2 3 4 5 6 
#
# 1 0.023212 -0.005699 -0.006140 0.000000 0.000000 0.000001
# 2 -0.005699 0.023213 -0.006140 0.000000 0.000000 0.000001
# 3 -0.006140 -0.006140 0.017446 0.000000 0.000000 0.000000
# 4 0.000000 0.000000 0.000000 -0.087861 0.000000 0.000000
# 5 0.000000 0.000000 0.000000 0.000000 -0.087845 0.000000
# 6 0.000001 0.000001 0.000000 0.000000 0.000000 0.057825
#
#
# Mechanical properties :
#
#
# Convention : Reuss Voigt Hill
#
# Bulk Modulus (GPa) = 35.82715 37.16035 36.49375
# Shear Modulus (GPa) = -571.66500 6.40733 -282.62884
#
# Velocity S-wave (km/s) = -17.13544 1.81411 -12.04849
# Velocity P-wave (km/s) = 19.31569 4.84506 13.22160
#
# Compressibility (1/GPa) = 0.02791179
#
# Stress axis : x y z
#
# Youngs Moduli (GPa) = 43.08074 43.07941 57.32067
#
# Poissons Ratio (x) = 0.24552 0.35195
# Poissons Ratio (y) = 0.24553 0.35196
# Poissons Ratio (z) = 0.26452 0.26452
#
# Static dielectric constant tensor:
#      x y z
#    x 1.701880 0.000000 0.000000 
#    y 0.000000 1.701880 0.000000 
#    z 0.000000 0.000000 1.646290 
# 
# From -- ./inp_files/361.got.cif
#   From: 2010.05.17/outbox.cif.g08.bks.cpg/sg174_cif.got.tgz:361.got - 2010.05.20 11:22:48.
