data_PCOD9581265
_publ_section_title
;
Structure prediction by ZEFSAII (Michael W. Deem and Ramdas Pophale) SiO2 
 PCOD9581265
Probable space group: P 6/M
;
_chemical_formula_sum "Si O2"
_cell_formula_units_Z 54
_cell_length_a 20.307711
_cell_length_b 20.307711
_cell_length_c 8.389430
_cell_angle_alpha 90.000000
_cell_angle_beta 90.000000
_cell_angle_gamma 120.000000
_cell_volume 2996.298211
_symmetry_space_group_name_H-M "P 6/M"
_symmetry_group_IT_number 175
_symmetry_cell_setting 'hexagonal'
loop_
_space_group_symop_operation_xyz
x,y,z
x-y,x,z
-y,x-y,z
-x,-y,z
-x+y,-x,z
y,-x+y,z
-x,-y,-z
-x+y,-x,-z
y,-x+y,-z
x,y,-z
x-y,x,-z
-y,x-y,-z
loop_
_atom_site_type_symbol
_atom_site_label
_atom_site_fract_x
_atom_site_fract_y
_atom_site_fract_z
Si Si1 0.147180 0.412909 0.321615
Si Si2 0.894589 0.260544 0.809987
Si Si3 0.434860 0.418418 0.191398
Si Si4 0.038494 0.169295 0.000000
Si Si5 0.020616 0.235800 0.674733
O O1 0.172577 0.442719 0.500000
O O2 0.216809 0.411704 0.231191
O O3 0.098307 0.447889 0.246650
O O4 0.081202 0.324895 0.332740
O O5 0.937357 0.224601 0.711407
O O6 0.945608 0.350536 0.769669
O O7 0.903401 0.252155 0.000000
O O8 0.500000 0.500000 0.252299
O O9 0.437747 0.418649 0.000000
O O10 0.045145 0.210964 0.834115
O O11 0.099093 0.143478 0.000000
O O12 0.020233 0.202353 0.500000
#
# Coordination Sequence:
#
# PCOD9581265 Si02
#       5
#    12  12  12   6  12
#     4  10  20  32  52  81 110 138 174 222 273 328
#     4  10  18  31  55  82 107 137 175 223 276 327
#     4   9  19  35  54  78 110 146 184 227 279 337
#     4  12  25  38  52  68  95 134 174 212 256 312
#     4  10  21  36  54  78 104 131 169 221 275 321
#
# _framework density 18.022238000000002
#
# number of rings (size 3 to 8) (size 9 to 14) (size 15 to 20)
#    0.000    2.000    1.111    2.778    3.111    4.000 
#    0.000    0.000    0.000    2.222    0.000    3.111 
#    0.000    0.000    0.000    0.000    0.000    0.000 
#
# Total GULP energy -300846.981249 kJ/mol
# GULP energy per Si atom -5571.240394 kJ/mol
# Density = 1.798122 g / cm^3
# Si number density = 18.022238 Si / 1000 Ang^3
#
#
#
# Elastic Constant Matrix: (Units=GPa)
#
#
# Indices 1 2 3 4 5 6 
#
# 1 72.9960 11.6634 25.8779 0.0000 0.0000 0.0000
# 2 11.6634 72.9960 25.8779 0.0000 0.0000 0.0000
# 3 25.8779 25.8779 99.8036 0.0000 0.0000 0.0000
# 4 0.0000 0.0000 0.0000 88.0774 0.0000 0.0000
# 5 0.0000 0.0000 0.0000 0.0000 88.0774 0.0000
# 6 0.0000 0.0000 0.0000 0.0000 0.0000 30.6663
#
#
#
# Elastic Compliance Matrix: (Units=1/GPa)
#
#
# Indices 1 2 3 4 5 6 
#
# 1 0.015171 -0.001134 -0.003640 0.000000 0.000000 0.000000
# 2 -0.001134 0.015171 -0.003640 0.000000 0.000000 0.000000
# 3 -0.003640 -0.003640 0.011907 0.000000 0.000000 0.000000
# 4 0.000000 0.000000 0.000000 0.011354 0.000000 0.000000
# 5 0.000000 0.000000 0.000000 0.000000 0.011354 0.000000
# 6 0.000000 0.000000 0.000000 0.000000 0.000000 0.032609
#
#
# Mechanical properties :
#
#
# Convention : Reuss Voigt Hill
#
# Bulk Modulus (GPa) = 39.33494 41.40381 40.36938
# Shear Modulus (GPa) = 40.69493 53.52264 47.10878
#
# Velocity S-wave (km/s) = 4.75704 5.45551 5.11820
# Velocity P-wave (km/s) = 7.21427 7.91878 7.57472
#
# Compressibility (1/GPa) = 0.02542269
#
# Stress axis : x y z
#
# Youngs Moduli (GPa) = 65.91601 65.91601 83.98337
#
# Poissons Ratio (x) = 0.07473 0.30567
# Poissons Ratio (y) = 0.07473 0.30567
# Poissons Ratio (z) = 0.23991 0.23991
#
# Static dielectric constant tensor:
#      x y z
#    x 1.626790 0.000000 0.000000 
#    y 0.000000 1.626790 0.000000 
#    z 0.000000 0.000000 2.471450 
# 
# From -- ./inp_files/774.got.cif
#   From: 2010.05.17/outbox.cif.g08.bks.cpg/sg175_1_cif.got.tgz:774.got - 2010.05.20 11:23:22.
