data_PCOD9581974
_publ_section_title
;
Structure prediction by ZEFSAII (Michael W. Deem and Ramdas Pophale) SiO2 
 PCOD9581974
Probable space group: P 63/M
;
_chemical_formula_sum "Si O2"
_cell_formula_units_Z 46
_cell_length_a 14.163284
_cell_length_b 14.163284
_cell_length_c 11.254781
_cell_angle_alpha 90.000000
_cell_angle_beta 90.000000
_cell_angle_gamma 120.000000
_cell_volume 1955.219895
_symmetry_space_group_name_H-M "P 63/M"
_symmetry_group_IT_number 176
_symmetry_cell_setting 'hexagonal'
loop_
_space_group_symop_operation_xyz
x,y,z
x-y,x,1/2+z
-y,x-y,z
-x,-y,1/2+z
-x+y,-x,z
y,-x+y,1/2+z
-x,-y,-z
-x+y,-x,1/2-z
y,-x+y,-z
x,y,1/2-z
x-y,x,-z
-y,x-y,1/2-z
loop_
_atom_site_type_symbol
_atom_site_label
_atom_site_fract_x
_atom_site_fract_y
_atom_site_fract_z
Si Si1 0.805770 0.760859 0.750000
Si Si2 0.560870 0.363776 0.250000
Si Si3 0.046381 0.819210 0.750000
Si Si4 0.666668 0.333334 0.611070
Si Si5 0.475781 0.347331 0.503440
Si Si6 0.914495 0.267539 0.002777
O O1 0.835190 0.885733 0.750000
O O2 0.747385 0.707925 0.624560
O O3 0.917414 0.760258 0.750000
O O4 0.554943 0.245895 0.250000
O O5 0.506372 0.373089 0.366553
O O6 0.077193 0.787690 0.624591
O O7 0.666667 0.333334 0.750000
O O8 0.590774 0.382479 0.567665
O O9 0.394566 0.392363 0.533816
O O10 0.417156 0.215697 0.518517
#
# Coordination Sequence:
#
# PCOD9581974 Si02
#       6
#     6   6   6   4  12  12
#     4  12  22  43  65 109 146 189 237 280 344 423
#     4  10  20  48  74  96 130 176 234 312 344 400
#     4  12  22  43  65 109 146 189 237 280 344 423
#     4  12  30  49  68 103 141 177 244 314 352 408
#     4  12  24  50  71 103 143 182 234 292 353 423
#     4  12  26  41  75 102 144 188 232 287 350 423
#
# _framework density 23.526767
#
# number of rings (size 3 to 8) (size 9 to 14) (size 15 to 20)
#    0.261    0.000    7.826    1.826    3.652    1.043 
#    0.000    2.609    0.000    0.000    0.000    0.000 
#    0.000    0.000    0.000    0.000    0.000    0.000 
#
# Total GULP energy -256667.612121 kJ/mol
# GULP energy per Si atom -5579.730698 kJ/mol
# Density = 2.347322 g / cm^3
# Si number density = 23.526767 Si / 1000 Ang^3
#
#
#
# Elastic Constant Matrix: (Units=GPa)
#
#
# Indices 1 2 3 4 5 6 
#
# 1 88.4007 6.5259 21.0783 0.0000 0.0000 -0.0002
# 2 6.5259 88.3977 21.0773 0.0000 0.0000 0.0007
# 3 21.0783 21.0773 158.7792 0.0000 0.0000 0.0000
# 4 0.0000 0.0000 0.0000 44.7607 0.0006 0.0000
# 5 0.0000 0.0000 0.0000 0.0006 44.7608 0.0000
# 6 -0.0002 0.0007 0.0000 0.0000 0.0000 40.9366
#
#
#
# Elastic Compliance Matrix: (Units=1/GPa)
#
#
# Indices 1 2 3 4 5 6 
#
# 1 0.011704 -0.000510 -0.001486 0.000000 0.000000 0.000000
# 2 -0.000510 0.011704 -0.001486 0.000000 0.000000 0.000000
# 3 -0.001486 -0.001486 0.006693 0.000000 0.000000 0.000000
# 4 0.000000 0.000000 0.000000 0.022341 0.000000 0.000000
# 5 0.000000 0.000000 0.000000 0.000000 0.022341 0.000000
# 6 0.000000 0.000000 0.000000 0.000000 0.000000 0.024428
#
#
# Mechanical properties :
#
#
# Convention : Reuss Voigt Hill
#
# Bulk Modulus (GPa) = 43.21994 48.10452 45.66223
# Shear Modulus (GPa) = 43.90304 45.21805 44.56055
#
# Velocity S-wave (km/s) = 4.32451 4.38880 4.35677
# Velocity P-wave (km/s) = 6.58374 6.79509 6.69025
#
# Compressibility (1/GPa) = 0.02313747
#
# Stress axis : x y z
#
# Youngs Moduli (GPa) = 85.44020 85.43743 149.41874
#
# Poissons Ratio (x) = 0.04355 0.22205
# Poissons Ratio (y) = 0.04355 0.22205
# Poissons Ratio (z) = 0.12697 0.12697
#
# Static dielectric constant tensor:
#      x y z
#    x 1.949630 0.000000 0.000000 
#    y 0.000000 1.949640 0.000000 
#    z 0.000000 0.000000 1.807350 
# 
# From -- ./inp_files/1730.got.cif
#   From: 2010.05.17/outbox.cif.g08.bks.cpg/sg176_1_cif.got.tgz:1730.got - 2010.06.03 11:36:45.
