data_PCOD9581628
_publ_section_title
;
Structure prediction by ZEFSAII (Michael W. Deem and Ramdas Pophale) SiO2 
 PCOD9581628
Probable space group: P 6/M
;
_chemical_formula_sum "Si O2"
_cell_formula_units_Z 60
_cell_length_a 15.664839
_cell_length_b 15.664839
_cell_length_c 12.834854
_cell_angle_alpha 90.000000
_cell_angle_beta 90.000000
_cell_angle_gamma 120.000000
_cell_volume 2727.554492
_symmetry_space_group_name_H-M "P 6/M"
_symmetry_group_IT_number 175
_symmetry_cell_setting 'hexagonal'
loop_
_space_group_symop_operation_xyz
x,y,z
x-y,x,z
-y,x-y,z
-x,-y,z
-x+y,-x,z
y,-x+y,z
-x,-y,-z
-x+y,-x,-z
y,-x+y,-z
x,y,-z
x-y,x,-z
-y,x-y,-z
loop_
_atom_site_type_symbol
_atom_site_label
_atom_site_fract_x
_atom_site_fract_y
_atom_site_fract_z
Si Si1 0.240872 0.447627 0.196630
Si Si2 0.974548 0.789771 0.625844
Si Si3 0.687045 0.121280 0.623558
Si Si4 0.772019 0.916914 0.125228
Si Si5 0.575057 0.107619 0.816894
O O1 0.221937 0.451724 0.320831
O O2 0.212566 0.338412 0.165506
O O3 0.162838 0.474725 0.144978
O O4 0.351469 0.526304 0.169091
O O5 0.881039 0.801354 0.656866
O O6 0.974546 0.792091 0.500000
O O7 0.954493 0.680580 0.650645
O O8 0.678208 0.126976 0.500000
O O9 0.592762 0.097042 0.693226
O O10 0.814125 0.844652 0.154439
O O11 0.767678 0.915223 0.000000
O O12 0.500000 0.000000 0.859561
#
# Coordination Sequence:
#
# PCOD9581628 Si02
#       5
#    12  12  12  12  12
#     4  10  22  40  61  88 126 164 212 267 321 376
#     4   9  17  30  48  73 108 152 201 253 311 378
#     4   9  22  36  55  83 118 161 213 268 321 371
#     4  10  21  40  70 104 136 167 202 250 316 397
#     4  10  22  38  60  83 114 161 207 263 315 371
#
# _framework density 21.997727000000001
#
# number of rings (size 3 to 8) (size 9 to 14) (size 15 to 20)
#    1.200    1.200    0.000    2.000    2.800    2.800 
#    0.000    1.000    0.000    6.000    0.000    0.000 
#    0.000    0.000    0.000    0.000    0.000    0.000 
#
# Total GULP energy -334838.772868 kJ/mol
# GULP energy per Si atom -5580.646214 kJ/mol
# Density = 2.194766 g / cm^3
# Si number density = 21.997727 Si / 1000 Ang^3
#
#
#
# Elastic Constant Matrix: (Units=GPa)
#
#
# Indices 1 2 3 4 5 6 
#
# 1 82.6738 14.0399 -0.6963 0.0000 0.0000 0.0000
# 2 14.0399 82.6738 -0.6963 0.0000 0.0000 0.0000
# 3 -0.6963 -0.6963 30.5710 0.0000 0.0000 0.0000
# 4 0.0000 0.0000 0.0000 8.8092 0.0000 0.0000
# 5 0.0000 0.0000 0.0000 0.0000 8.8092 0.0000
# 6 0.0000 0.0000 0.0000 0.0000 0.0000 34.3170
#
#
#
# Elastic Compliance Matrix: (Units=1/GPa)
#
#
# Indices 1 2 3 4 5 6 
#
# 1 0.012457 -0.002113 0.000236 0.000000 0.000000 0.000000
# 2 -0.002113 0.012457 0.000236 0.000000 0.000000 0.000000
# 3 0.000236 0.000236 0.032721 0.000000 0.000000 0.000000
# 4 0.000000 0.000000 0.000000 0.113518 0.000000 0.000000
# 5 0.000000 0.000000 0.000000 0.000000 0.113518 0.000000
# 6 0.000000 0.000000 0.000000 0.000000 0.000000 0.029140
#
#
# Mechanical properties :
#
#
# Convention : Reuss Voigt Hill
#
# Bulk Modulus (GPa) = 18.39922 24.57925 21.48924
# Shear Modulus (GPa) = 14.91597 22.60517 18.76057
#
# Velocity S-wave (km/s) = 2.60680 3.20912 2.92351
# Velocity P-wave (km/s) = 4.17646 4.99290 4.60282
#
# Compressibility (1/GPa) = 0.05435014
#
# Stress axis : x y z
#
# Youngs Moduli (GPa) = 80.27862 80.27862 30.56100
#
# Poissons Ratio (x) = 0.16966 -0.00720
# Poissons Ratio (y) = 0.16966 -0.00720
# Poissons Ratio (z) = -0.01891 -0.01891
#
# Static dielectric constant tensor:
#      x y z
#    x 1.768150 0.000000 0.000000 
#    y 0.000000 1.768150 0.000000 
#    z 0.000000 0.000000 1.882940 
# 
# From -- ./inp_files/2383.got.cif
#   From: 2010.05.17/outbox.cif.g08.bks.cpg/sg175_2_cif.got.tgz:2383.got - 2010.05.20 11:23:22.
