data_PCOD9581017
_publ_section_title
;
Structure prediction by ZEFSAII (Michael W. Deem and Ramdas Pophale) SiO2 
 PCOD9581017
Probable space group: P 63
;
_chemical_formula_sum "Si O2"
_cell_formula_units_Z 42
_cell_length_a 19.069927
_cell_length_b 19.069927
_cell_length_c 8.695350
_cell_angle_alpha 90.000000
_cell_angle_beta 90.000000
_cell_angle_gamma 120.000000
_cell_volume 2738.519013
_symmetry_space_group_name_H-M "P 63"
_symmetry_group_IT_number 173
_symmetry_cell_setting 'hexagonal'
loop_
_space_group_symop_operation_xyz
x,y,z
x-y,x,1/2+z
-y,x-y,z
-x,-y,1/2+z
-x+y,-x,z
y,-x+y,1/2+z
loop_
_atom_site_type_symbol
_atom_site_label
_atom_site_fract_x
_atom_site_fract_y
_atom_site_fract_z
Si Si1 0.850341 0.394576 0.697710
Si Si2 0.578330 0.941204 0.628854
Si Si3 0.193459 0.665892 0.860430
Si Si4 0.801999 0.475471 0.220099
Si Si5 0.573815 0.670224 0.298388
Si Si6 0.208153 0.747166 0.430298
Si Si7 0.029416 0.459791 0.605382
O O1 0.814214 0.369101 0.528194
O O2 0.860242 0.479875 0.746161
O O3 0.800656 0.323806 0.818790
O O4 0.941391 0.409111 0.678141
O O5 0.541063 0.889577 0.786085
O O6 0.586371 0.878754 0.516337
O O7 0.507243 0.958088 0.568562
O O8 0.654168 0.027480 0.673937
O O9 0.260254 0.759263 0.851376
O O10 0.220620 0.616612 0.746770
O O11 0.898924 0.524410 0.222272
O O12 0.771270 0.494268 0.061275
O O13 0.590860 0.759695 0.337907
O O14 0.575641 0.624043 0.453953
#
# Coordination Sequence:
#
# PCOD9581017 Si02
#       7
#     6   6   6   6   6   6   6
#     4  11  21  32  48  70  92 115 165 217 244 294
#     4   9  17  33  50  62  85 127 155 198 254 302
#     4  10  19  32  46  66  90 119 158 199 252 302
#     4   9  20  33  49  62  89 127 151 199 264 308
#     4  10  19  33  49  67  91 124 162 208 257 301
#     4  10  21  34  46  71  93 118 163 215 256 298
#     4   9  17  33  50  64  84 122 166 196 249 303
#
# _framework density 15.336755999999999
#
# number of rings (size 3 to 8) (size 9 to 14) (size 15 to 20)
#    0.000    2.286    2.857    0.286    4.000    0.000 
#    0.857    0.000    0.000    0.000    0.000    0.000 
#    0.000    0.000    0.000    0.000    0.000    0.000 
#
# Total GULP energy -233997.892516 kJ/mol
# GULP energy per Si atom -5571.378393 kJ/mol
# Density = 1.530185 g / cm^3
# Si number density = 15.336756 Si / 1000 Ang^3
#
#
#
# Elastic Constant Matrix: (Units=GPa)
#
#
# Indices 1 2 3 4 5 6 
#
# 1 63.5934 27.8482 16.6330 0.0000 0.0000 0.0000
# 2 27.8482 63.5934 16.6330 0.0000 0.0000 0.0000
# 3 16.6330 16.6330 42.5584 0.0000 0.0000 0.0000
# 4 0.0000 0.0000 0.0000 21.1918 0.0000 0.0000
# 5 0.0000 0.0000 0.0000 0.0000 21.1918 0.0000
# 6 0.0000 0.0000 0.0000 0.0000 0.0000 17.8726
#
#
#
# Elastic Compliance Matrix: (Units=1/GPa)
#
#
# Indices 1 2 3 4 5 6 
#
# 1 0.020362 -0.007614 -0.004982 0.000000 0.000000 0.000000
# 2 -0.007614 0.020362 -0.004982 0.000000 0.000000 0.000000
# 3 -0.004982 -0.004982 0.027392 0.000000 0.000000 0.000000
# 4 0.000000 0.000000 0.000000 0.047188 0.000000 0.000000
# 5 0.000000 0.000000 0.000000 0.000000 0.047188 0.000000
# 6 0.000000 0.000000 0.000000 0.000000 0.000000 0.055952
#
#
# Mechanical properties :
#
#
# Convention : Reuss Voigt Hill
#
# Bulk Modulus (GPa) = 30.34084 32.44150 31.39117
# Shear Modulus (GPa) = 18.89735 19.29329 19.09532
#
# Velocity S-wave (km/s) = 3.51402 3.55065 3.53238
# Velocity P-wave (km/s) = 6.02416 6.16507 6.09502
#
# Compressibility (1/GPa) = 0.03295888
#
# Stress axis : x y z
#
# Youngs Moduli (GPa) = 49.11070 49.11070 36.50735
#
# Poissons Ratio (x) = 0.37391 0.18190
# Poissons Ratio (y) = 0.37391 0.18190
# Poissons Ratio (z) = 0.24469 0.24469
#
# Static dielectric constant tensor:
#      x y z
#    x 1.524620 0.000000 0.000000 
#    y 0.000000 1.524620 0.000000 
#    z 0.000000 0.000000 1.571610 
# 
# From -- ./inp_files/626.got.cif
#   From: 2010.05.17/outbox.cif.g08.bks.cpg/sg173_cif.got.tgz:626.got - 2010.05.20 11:21:53.
