data_PCOD9581271
_publ_section_title
;
Structure prediction by ZEFSAII (Michael W. Deem and Ramdas Pophale) SiO2 
 PCOD9581271
Probable space group: P 6/M
;
_chemical_formula_sum "Si O2"
_cell_formula_units_Z 90
_cell_length_a 27.252501
_cell_length_b 27.252501
_cell_length_c 8.617301
_cell_angle_alpha 90.000000
_cell_angle_beta 90.000000
_cell_angle_gamma 120.000000
_cell_volume 5542.613857
_symmetry_space_group_name_H-M "P 6/M"
_symmetry_group_IT_number 175
_symmetry_cell_setting 'hexagonal'
loop_
_space_group_symop_operation_xyz
x,y,z
x-y,x,z
-y,x-y,z
-x,-y,z
-x+y,-x,z
y,-x+y,z
-x,-y,-z
-x+y,-x,-z
y,-x+y,-z
x,y,-z
x-y,x,-z
-y,x-y,-z
loop_
_atom_site_type_symbol
_atom_site_label
_atom_site_fract_x
_atom_site_fract_y
_atom_site_fract_z
Si Si1 0.226104 0.669142 0.816140
Si Si2 0.136495 0.067822 0.000000
Si Si3 0.841763 0.567265 0.312590
Si Si4 0.876532 0.750680 0.824996
Si Si5 0.249581 0.937348 0.312470
Si Si6 0.558659 0.337002 0.686557
Si Si7 0.436454 0.160875 0.313311
Si Si8 0.934158 0.248145 0.312465
O O1 0.215503 0.608641 0.761164
O O2 0.282965 0.718229 0.734289
O O3 0.175707 0.680561 0.766208
O O4 0.234394 0.675037 0.000000
O O5 0.098940 0.098549 0.000000
O O6 0.181425 0.090331 0.144572
O O7 0.846053 0.566961 0.500000
O O8 0.896501 0.623682 0.254933
O O9 0.825984 0.504549 0.260602
O O10 0.786765 0.572920 0.278645
O O11 0.913213 0.728318 0.738140
O O12 0.815883 0.725290 0.745038
O O13 0.866506 0.726743 0.000000
O O14 0.250704 0.936776 0.500000
O O15 0.287520 0.001565 0.258739
O O16 0.561876 0.341892 0.500000
O O17 0.443025 0.159526 0.500000
O O18 0.379140 0.105308 0.263483
O O19 0.932781 0.246724 0.500000
#
# Coordination Sequence:
#
# PCOD9581271 Si02
#       8
#    12   6  12  12  12  12  12  12
#     4  11  21  32  48  74 103 130 169 217 256 298
#     4  10  21  36  52  70 100 142 184 218 254 310
#     4   8  15  29  49  71  97 125 162 205 247 301
#     4  10  21  32  49  73 108 132 165 209 260 312
#     4  10  18  32  54  79 103 130 165 211 262 305
#     4  10  19  33  51  70  98 137 170 204 254 312
#     4   9  17  32  49  70  99 134 168 203 252 314
#     4  10  19  32  54  78 103 133 167 209 258 310
#
# _framework density 16.237826999999999
#
# number of rings (size 3 to 8) (size 9 to 14) (size 15 to 20)
#    0.400    1.867    1.333    3.933    0.000    0.533 
#    0.000    0.667    0.000    0.800    0.000    5.600 
#    0.000    6.400    0.000    0.000    0.000    0.000 
#
# Total GULP energy -501441.540423 kJ/mol
# GULP energy per Si atom -5571.572671 kJ/mol
# Density = 1.620087 g / cm^3
# Si number density = 16.237827 Si / 1000 Ang^3
#
#
#
# Elastic Constant Matrix: (Units=GPa)
#
#
# Indices 1 2 3 4 5 6 
#
# 1 132.7121 73.0035 12.5248 0.0000 0.0000 0.0000
# 2 73.0035 132.7121 12.5248 0.0000 0.0000 0.0000
# 3 12.5248 12.5248 19.1416 0.0000 0.0000 0.0000
# 4 0.0000 0.0000 0.0000 10.7776 0.0000 0.0000
# 5 0.0000 0.0000 0.0000 0.0000 10.7776 0.0000
# 6 0.0000 0.0000 0.0000 0.0000 0.0000 29.8543
#
#
#
# Elastic Compliance Matrix: (Units=1/GPa)
#
#
# Indices 1 2 3 4 5 6 
#
# 1 0.011015 -0.005733 -0.003456 0.000000 0.000000 0.000000
# 2 -0.005733 0.011015 -0.003456 0.000000 0.000000 0.000000
# 3 -0.003456 -0.003456 0.056765 0.000000 0.000000 0.000000
# 4 0.000000 0.000000 0.000000 0.092785 0.000000 0.000000
# 5 0.000000 0.000000 0.000000 0.000000 0.092785 0.000000
# 6 0.000000 0.000000 0.000000 0.000000 0.000000 0.033496
#
#
# Mechanical properties :
#
#
# Convention : Reuss Voigt Hill
#
# Bulk Modulus (GPa) = 18.69002 53.40800 36.04901
# Shear Modulus (GPa) = 14.66335 22.71609 18.68972
#
# Velocity S-wave (km/s) = 3.00832 3.74433 3.39632
# Velocity P-wave (km/s) = 4.85817 7.18720 6.13423
#
# Compressibility (1/GPa) = 0.05350449
#
# Stress axis : x y z
#
# Youngs Moduli (GPa) = 90.78564 90.78564 17.61650
#
# Poissons Ratio (x) = 0.52048 0.06088
# Poissons Ratio (y) = 0.52048 0.06088
# Poissons Ratio (z) = 0.31376 0.31376
#
# Static dielectric constant tensor:
#      x y z
#    x 1.540990 0.000000 0.000000 
#    y 0.000000 1.540990 0.000000 
#    z 0.000000 0.000000 1.551430 
# 
# From -- ./inp_files/1450.got.cif
#   From: 2010.05.17/outbox.cif.g08.bks.cpg/sg175_1_cif.got.tgz:1450.got - 2010.05.20 11:23:22.
