data_PCOD9581422
_publ_section_title
;
Structure prediction by ZEFSAII (Michael W. Deem and Ramdas Pophale) SiO2 
 PCOD9581422
Probable space group: P 6/M
;
_chemical_formula_sum "Si O2"
_cell_formula_units_Z 84
_cell_length_a 14.803299
_cell_length_b 14.803299
_cell_length_c 22.673483
_cell_angle_alpha 90.000000
_cell_angle_beta 90.000000
_cell_angle_gamma 120.000000
_cell_volume 4302.945978
_symmetry_space_group_name_H-M "P 6/M"
_symmetry_group_IT_number 175
_symmetry_cell_setting 'hexagonal'
loop_
_space_group_symop_operation_xyz
x,y,z
x-y,x,z
-y,x-y,z
-x,-y,z
-x+y,-x,z
y,-x+y,z
-x,-y,-z
-x+y,-x,-z
y,-x+y,-z
x,y,-z
x-y,x,-z
-y,x-y,-z
loop_
_atom_site_type_symbol
_atom_site_label
_atom_site_fract_x
_atom_site_fract_y
_atom_site_fract_z
Si Si1 0.832886 0.068187 0.129914
Si Si2 0.252267 0.946880 0.000000
Si Si3 0.452083 0.179810 0.000000
Si Si4 0.983395 0.637383 0.209870
Si Si5 0.037888 0.805724 0.563223
Si Si6 0.433898 0.641083 0.783442
Si Si7 0.591150 0.481982 0.890052
Si Si8 0.962737 0.196633 0.694000
O O1 0.756431 0.087929 0.170187
O O2 0.951203 0.147121 0.143581
O O3 0.810490 0.069650 0.060568
O O4 0.270081 0.848046 0.000000
O O5 0.347656 0.063724 0.000000
O O6 0.505875 0.176381 0.940184
O O7 0.901911 0.526826 0.240154
O O8 0.040834 0.726595 0.257858
O O9 0.060243 0.630556 0.161855
O O10 0.926035 0.798321 0.562983
O O11 0.046891 0.759736 0.500000
O O12 0.045468 0.765913 0.627837
O O13 0.438867 0.750217 0.769053
O O14 0.442583 0.622287 0.853166
O O15 0.500000 0.500000 0.917022
O O16 0.076591 0.205771 0.700497
#
# Coordination Sequence:
#
# PCOD9581422 Si02
#       8
#    12   6   6  12  12  12  12  12
#     4  12  23  36  51  71  99 135 170 205 240 294
#     4  12  22  32  51  72  89 126 158 199 239 292
#     4  12  23  36  56  75  95 120 165 199 256 315
#     4  11  22  36  56  75 103 133 168 207 264 312
#     4   8  13  23  39  63  99 144 188 221 249 283
#     4   9  23  38  60  76  97 124 159 212 264 318
#     4  10  22  40  57  76  95 124 158 206 264 322
#     4  10  20  30  47  75 111 150 185 218 250 294
#
# _framework density 19.521508000000001
#
# number of rings (size 3 to 8) (size 9 to 14) (size 15 to 20)
#    0.286    1.429    2.857    1.500    6.000    1.714 
#    0.000    2.857    0.000    0.000    0.000    0.000 
#    0.000    6.286    0.000    0.429    0.000    0.000 
#
# Total GULP energy -468236.257909 kJ/mol
# GULP energy per Si atom -5574.241166 kJ/mol
# Density = 1.947708 g / cm^3
# Si number density = 19.521508 Si / 1000 Ang^3
#
#
#
# Elastic Constant Matrix: (Units=GPa)
#
#
# Indices 1 2 3 4 5 6 
#
# 1 62.8604 -6.1492 24.7181 0.0000 0.0000 0.0000
# 2 -6.1492 62.8604 24.7181 0.0000 0.0000 0.0000
# 3 24.7181 24.7181 98.3064 0.0000 0.0000 0.0000
# 4 0.0000 0.0000 0.0000 -10.2007 0.0000 0.0000
# 5 0.0000 0.0000 0.0000 0.0000 -10.2007 0.0000
# 6 0.0000 0.0000 0.0000 0.0000 0.0000 34.5048
#
#
#
# Elastic Compliance Matrix: (Units=1/GPa)
#
#
# Indices 1 2 3 4 5 6 
#
# 1 0.018537 0.004046 -0.005678 0.000000 0.000000 0.000000
# 2 0.004046 0.018537 -0.005678 0.000000 0.000000 0.000000
# 3 -0.005678 -0.005678 0.013028 0.000000 0.000000 0.000000
# 4 0.000000 0.000000 0.000000 -0.098032 0.000000 0.000000
# 5 0.000000 0.000000 0.000000 0.000000 -0.098032 0.000000
# 6 0.000000 0.000000 0.000000 0.000000 0.000000 0.028981
#
#
# Mechanical properties :
#
#
# Convention : Reuss Voigt Hill
#
# Bulk Modulus (GPa) = 28.18426 34.51125 31.34775
# Shear Modulus (GPa) = -55.22816 14.87003 -20.17907
#
# Velocity S-wave (km/s) = -5.32469 2.76293 -3.21858
# Velocity P-wave (km/s) = 4.83055 5.28160 1.51015
#
# Compressibility (1/GPa) = 0.03548080
#
# Stress axis : x y z
#
# Youngs Moduli (GPa) = 53.94648 53.94648 76.75920
#
# Poissons Ratio (x) = -0.21828 0.43586
# Poissons Ratio (y) = -0.21828 0.43586
# Poissons Ratio (z) = 0.30632 0.30632
#
# Static dielectric constant tensor:
#      x y z
#    x 1.743240 0.000000 0.000000 
#    y 0.000000 1.743240 0.000000 
#    z 0.000000 0.000000 1.711060 
# 
# From -- ./inp_files/3263.got.cif
#   From: 2010.05.17/outbox.cif.g08.bks.cpg/sg175_2_cif.got.tgz:3263.got - 2010.05.20 11:23:22.
