data_PCOD9581990
_publ_section_title
;
Structure prediction by ZEFSAII (Michael W. Deem and Ramdas Pophale) SiO2 
 PCOD9581990
Probable space group: P 63/M
;
_chemical_formula_sum "Si O2"
_cell_formula_units_Z 46
_cell_length_a 14.342265
_cell_length_b 14.342265
_cell_length_c 13.826171
_cell_angle_alpha 90.000000
_cell_angle_beta 90.000000
_cell_angle_gamma 120.000000
_cell_volume 2463.020581
_symmetry_space_group_name_H-M "P 63/M"
_symmetry_group_IT_number 176
_symmetry_cell_setting 'hexagonal'
loop_
_space_group_symop_operation_xyz
x,y,z
x-y,x,1/2+z
-y,x-y,z
-x,-y,1/2+z
-x+y,-x,z
y,-x+y,1/2+z
-x,-y,-z
-x+y,-x,1/2-z
y,-x+y,-z
x,y,1/2-z
x-y,x,-z
-y,x-y,1/2-z
loop_
_atom_site_type_symbol
_atom_site_label
_atom_site_fract_x
_atom_site_fract_y
_atom_site_fract_z
Si Si1 0.875675 0.209230 0.359025
Si Si2 0.333333 0.666667 0.865227
Si Si3 0.977640 0.536578 0.863461
Si Si4 0.888669 0.870432 0.250000
Si Si5 0.334224 0.871607 0.547397
O O1 0.826631 0.194562 0.250000
O O2 0.935540 0.336317 0.379922
O O3 0.780457 0.138648 0.432174
O O4 0.961260 0.169090 0.340975
O O5 0.333334 0.666668 0.750000
O O6 0.441968 0.676534 0.905016
O O7 0.952928 0.522005 0.750000
O O8 0.029816 0.465849 0.899373
O O9 0.881680 0.515416 0.935367
O O10 0.016141 0.908463 0.250000
#
# Coordination Sequence:
#
# PCOD9581990 Si02
#       5
#    12   4  12   6  12
#     4   9  18  36  61  86 113 157 203 245 296 359
#     4  12  21  36  67  89 118 156 198 243 289 362
#     4  10  21  38  57  86 126 153 193 257 299 358
#     4   8  18  38  58  82 118 156 198 256 302 348
#     4  11  21  35  61  93 119 154 200 246 304 365
#
# _framework density 18.676255000000001
#
# number of rings (size 3 to 8) (size 9 to 14) (size 15 to 20)
#    1.043    1.043    2.609    2.348    0.000    0.000 
#    4.696    1.304    0.000    1.565    0.000    0.000 
#    0.000    0.000    0.000    0.000    0.000    0.000 
#
# Total GULP energy -256088.998047 kJ/mol
# GULP energy per Si atom -5567.152131 kJ/mol
# Density = 1.863375 g / cm^3
# Si number density = 18.676255 Si / 1000 Ang^3
#
#
#
# Elastic Constant Matrix: (Units=GPa)
#
#
# Indices 1 2 3 4 5 6 
#
# 1 21.6617 6.9447 15.0674 0.0000 0.0000 -0.0013
# 2 6.9447 21.6620 15.0660 0.0000 0.0000 0.0006
# 3 15.0674 15.0660 106.5731 0.0000 0.0000 -0.0010
# 4 0.0000 0.0000 0.0000 25.0199 -0.0001 0.0000
# 5 0.0000 0.0000 0.0000 -0.0001 25.0200 0.0000
# 6 -0.0013 0.0006 -0.0010 0.0000 0.0000 7.3587
#
#
#
# Elastic Compliance Matrix: (Units=1/GPa)
#
#
# Indices 1 2 3 4 5 6 
#
# 1 0.054512 -0.013437 -0.005807 0.000000 0.000000 0.000010
# 2 -0.013437 0.054510 -0.005806 0.000000 0.000000 -0.000007
# 3 -0.005807 -0.005806 0.011025 0.000000 0.000000 0.000001
# 4 0.000000 0.000000 0.000000 0.039968 0.000000 0.000000
# 5 0.000000 0.000000 0.000000 0.000000 0.039968 0.000000
# 6 0.000010 -0.000007 0.000001 0.000000 0.000000 0.135894
#
#
# Mechanical properties :
#
#
# Convention : Reuss Voigt Hill
#
# Bulk Modulus (GPa) = 14.29683 24.89477 19.59580
# Shear Modulus (GPa) = 12.21617 19.00096 15.60856
#
# Velocity S-wave (km/s) = 2.56032 3.19311 2.89406
# Velocity P-wave (km/s) = 4.05117 5.19164 4.65646
#
# Compressibility (1/GPa) = 0.06994559
#
# Stress axis : x y z
#
# Youngs Moduli (GPa) = 18.34465 18.34531 90.70217
#
# Poissons Ratio (x) = 0.24651 0.52674
# Poissons Ratio (y) = 0.24650 0.52663
# Poissons Ratio (z) = 0.10653 0.10652
#
# Static dielectric constant tensor:
#      x y z
#    x 1.666100 0.000000 0.000000 
#    y 0.000000 1.666100 0.000000 
#    z 0.000000 0.000000 1.655650 
# 
# From -- ./inp_files/1719.got.cif
#   From: 2010.05.17/outbox.cif.g08.bks.cpg/sg176_1_cif.got.tgz:1719.got - 2010.06.03 11:36:45.
