data_PCOD9581381
_publ_section_title
;
Structure prediction by ZEFSAII (Michael W. Deem and Ramdas Pophale) SiO2 
 PCOD9581381
Probable space group: P 6/M
;
_chemical_formula_sum "Si O2"
_cell_formula_units_Z 84
_cell_length_a 14.105909
_cell_length_b 14.105909
_cell_length_c 26.110936
_cell_angle_alpha 90.000000
_cell_angle_beta 90.000000
_cell_angle_gamma 120.000000
_cell_volume 4499.406461
_symmetry_space_group_name_H-M "P 6/M"
_symmetry_group_IT_number 175
_symmetry_cell_setting 'hexagonal'
loop_
_space_group_symop_operation_xyz
x,y,z
x-y,x,z
-y,x-y,z
-x,-y,z
-x+y,-x,z
y,-x+y,z
-x,-y,-z
-x+y,-x,-z
y,-x+y,-z
x,y,-z
x-y,x,-z
-y,x-y,-z
loop_
_atom_site_type_symbol
_atom_site_label
_atom_site_fract_x
_atom_site_fract_y
_atom_site_fract_z
Si Si1 0.177177 0.255554 0.304836
Si Si2 0.127094 0.539443 0.749878
Si Si3 0.161624 0.261944 0.886830
Si Si4 0.589141 0.824509 0.400919
Si Si5 0.873079 0.461579 0.632507
Si Si6 0.766061 0.586764 0.210239
Si Si7 0.840840 0.742430 0.000000
Si Si8 0.167518 0.259911 0.500000
O O1 0.206786 0.160022 0.306963
O O2 0.230006 0.338948 0.351946
O O3 0.222148 0.326452 0.253431
O O4 0.169604 0.554158 0.691220
O O5 0.144162 0.448399 0.777619
O O6 0.178221 0.652820 0.780383
O O7 0.000000 0.500000 0.746655
O O8 0.201971 0.172862 0.881371
O O9 0.216296 0.354587 0.843853
O O10 0.193212 0.312732 0.944289
O O11 0.553845 0.697963 0.393820
O O12 0.473780 0.821682 0.397796
O O13 0.662101 0.877084 0.450565
O O14 0.000000 0.500000 0.634958
O O15 0.803448 0.832099 0.000000
O O16 0.203607 0.168102 0.500000
#
# Coordination Sequence:
#
# PCOD9581381 Si02
#       8
#    12  12  12  12  12  12   6   6
#     4  12  23  38  58  87 122 159 196 240 297 365
#     4  11  21  36  56  81 112 149 189 239 300 356
#     4  10  19  33  54  86 124 163 202 246 299 362
#     4  12  25  42  67  92 122 159 202 246 297 351
#     4  11  21  39  63  86 114 150 194 247 295 346
#     4  12  23  36  58  83 115 153 199 251 307 362
#     4   8  15  28  50  78 116 162 206 246 293 352
#     4  12  27  48  70  96 128 166 203 240 292 366
#
# _framework density 18.669128000000001
#
# number of rings (size 3 to 8) (size 9 to 14) (size 15 to 20)
#    0.000    0.857    2.857    6.143    0.000    1.714 
#    0.000    4.286    0.000    0.857    0.000    4.000 
#    0.000    0.000    0.000    0.000    0.000    0.000 
#
# Total GULP energy -469424.118450 kJ/mol
# GULP energy per Si atom -5588.382363 kJ/mol
# Density = 1.862664 g / cm^3
# Si number density = 18.669128 Si / 1000 Ang^3
#
#
#
# Elastic Constant Matrix: (Units=GPa)
#
#
# Indices 1 2 3 4 5 6 
#
# 1 73.3657 -11.4868 24.4060 0.0000 0.0000 0.0000
# 2 -11.4868 73.3657 24.4060 0.0000 0.0000 0.0000
# 3 24.4060 24.4060 141.8254 0.0000 0.0000 0.0000
# 4 0.0000 0.0000 0.0000 -176.4610 0.0000 0.0000
# 5 0.0000 0.0000 0.0000 0.0000 -176.4610 0.0000
# 6 0.0000 0.0000 0.0000 0.0000 0.0000 42.4263
#
#
#
# Elastic Compliance Matrix: (Units=1/GPa)
#
#
# Indices 1 2 3 4 5 6 
#
# 1 0.015242 0.003457 -0.003218 0.000000 0.000000 0.000000
# 2 0.003457 0.015242 -0.003218 0.000000 0.000000 0.000000
# 3 -0.003218 -0.003218 0.008158 0.000000 0.000000 0.000000
# 4 0.000000 0.000000 0.000000 -0.005667 0.000000 0.000000
# 5 0.000000 0.000000 0.000000 0.000000 -0.005667 0.000000
# 6 0.000000 0.000000 0.000000 0.000000 0.000000 0.023570
#
#
# Mechanical properties :
#
#
# Convention : Reuss Voigt Hill
#
# Bulk Modulus (GPa) = 30.59507 40.35634 35.47571
# Shear Modulus (GPa) = 73.82124 -45.35036 14.23544
#
# Velocity S-wave (km/s) = 6.29506 -4.93400 2.76436
# Velocity P-wave (km/s) = 8.32229 3.28567 5.40671
#
# Compressibility (1/GPa) = 0.03268500
#
# Stress axis : x y z
#
# Youngs Moduli (GPa) = 65.60812 65.60812 122.57326
#
# Poissons Ratio (x) = -0.22680 0.39441
# Poissons Ratio (y) = -0.22680 0.39441
# Poissons Ratio (z) = 0.21111 0.21111
#
# Static dielectric constant tensor:
#      x y z
#    x 1.678380 0.000000 0.000000 
#    y 0.000000 1.678380 0.000000 
#    z 0.000000 0.000000 1.642840 
# 
# From -- ./inp_files/3266.got.cif
#   From: 2010.05.17/outbox.cif.g08.bks.cpg/sg175_2_cif.got.tgz:3266.got - 2010.05.20 11:23:22.
