data_PCOD9581534
_publ_section_title
;
Structure prediction by ZEFSAII (Michael W. Deem and Ramdas Pophale) SiO2 
 PCOD9581534
Probable space group: P 6/M
;
_chemical_formula_sum "Si O2"
_cell_formula_units_Z 60
_cell_length_a 14.683346
_cell_length_b 14.683346
_cell_length_c 14.975641
_cell_angle_alpha 90.000000
_cell_angle_beta 90.000000
_cell_angle_gamma 120.000000
_cell_volume 2796.186390
_symmetry_space_group_name_H-M "P 6/M"
_symmetry_group_IT_number 175
_symmetry_cell_setting 'hexagonal'
loop_
_space_group_symop_operation_xyz
x,y,z
x-y,x,z
-y,x-y,z
-x,-y,z
-x+y,-x,z
y,-x+y,z
-x,-y,-z
-x+y,-x,-z
y,-x+y,-z
x,y,-z
x-y,x,-z
-y,x-y,-z
loop_
_atom_site_type_symbol
_atom_site_label
_atom_site_fract_x
_atom_site_fract_y
_atom_site_fract_z
Si Si1 0.570270 0.207297 0.251352
Si Si2 0.888736 0.495390 0.097411
Si Si3 0.028700 0.229325 0.602246
Si Si4 0.984842 0.339008 0.758361
Si Si5 0.755703 0.928122 0.100541
O O1 0.692492 0.251842 0.279243
O O2 0.577793 0.191869 0.144442
O O3 0.472989 0.094715 0.276292
O O4 0.000000 0.500000 0.086983
O O5 0.924411 0.584493 0.172931
O O6 0.856686 0.513865 0.000000
O O7 0.033530 0.265530 0.500000
O O8 0.031640 0.309142 0.675351
O O9 0.122811 0.205188 0.614408
O O10 0.914070 0.237490 0.820687
O O11 0.801846 0.850223 0.108258
O O12 0.710330 0.916421 0.000000
#
# Coordination Sequence:
#
# PCOD9581534 Si02
#       5
#    12  12  12  12  12
#     4   9  22  37  56  82 114 161 198 243 292 346
#     4   9  19  36  54  79 116 156 197 242 290 345
#     4  10  22  39  63  92 123 155 194 246 308 377
#     4  11  21  36  60  85 113 150 198 246 298 353
#     4  10  21  34  50  75 109 148 185 227 283 353
#
# _framework density 21.457798
#
# number of rings (size 3 to 8) (size 9 to 14) (size 15 to 20)
#    0.400    1.800    0.000    2.200    5.600    3.200 
#    0.000    2.000    0.000    6.600    0.000    0.000 
#    0.000    0.000    0.000    0.000    0.000    0.000 
#
# Total GULP energy -334303.052332 kJ/mol
# GULP energy per Si atom -5571.717539 kJ/mol
# Density = 2.140896 g / cm^3
# Si number density = 21.457798 Si / 1000 Ang^3
#
#
#
# Elastic Constant Matrix: (Units=GPa)
#
#
# Indices 1 2 3 4 5 6 
#
# 1 60.1812 7.3206 34.4219 0.0000 0.0000 0.0000
# 2 7.3206 60.1812 34.4219 0.0000 0.0000 0.0000
# 3 34.4219 34.4219 111.7125 0.0000 0.0000 0.0000
# 4 0.0000 0.0000 0.0000 14.3446 0.0000 0.0000
# 5 0.0000 0.0000 0.0000 0.0000 14.3446 0.0000
# 6 0.0000 0.0000 0.0000 0.0000 0.0000 26.4303
#
#
#
# Elastic Compliance Matrix: (Units=1/GPa)
#
#
# Indices 1 2 3 4 5 6 
#
# 1 0.020261 0.001343 -0.006657 0.000000 0.000000 0.000000
# 2 0.001343 0.020261 -0.006657 0.000000 0.000000 0.000000
# 3 -0.006657 -0.006657 0.013054 0.000000 0.000000 0.000000
# 4 0.000000 0.000000 0.000000 0.069713 0.000000 0.000000
# 5 0.000000 0.000000 0.000000 0.000000 0.069713 0.000000
# 6 0.000000 0.000000 0.000000 0.000000 0.000000 0.037835
#
#
# Mechanical properties :
#
#
# Convention : Reuss Voigt Hill
#
# Bulk Modulus (GPa) = 33.74503 42.71150 38.22827
# Shear Modulus (GPa) = 18.89254 21.41791 20.15523
#
# Velocity S-wave (km/s) = 2.97046 3.16276 3.06812
# Velocity P-wave (km/s) = 5.24645 5.76936 5.51411
#
# Compressibility (1/GPa) = 0.02963400
#
# Stress axis : x y z
#
# Youngs Moduli (GPa) = 49.35704 49.35704 76.60640
#
# Poissons Ratio (x) = -0.06628 0.50994
# Poissons Ratio (y) = -0.06628 0.50994
# Poissons Ratio (z) = 0.32855 0.32855
#
# Static dielectric constant tensor:
#      x y z
#    x 1.855990 0.000000 0.000000 
#    y 0.000000 1.855990 0.000000 
#    z 0.000000 0.000000 1.762850 
# 
# From -- ./inp_files/2350.got.cif
#   From: 2010.05.17/outbox.cif.g08.bks.cpg/sg175_2_cif.got.tgz:2350.got - 2010.05.20 11:23:22.
