data_PCOD9581991
_publ_section_title
;
Structure prediction by ZEFSAII (Michael W. Deem and Ramdas Pophale) SiO2 
 PCOD9581991
Probable space group: P 63/M
;
_chemical_formula_sum "Si O2"
_cell_formula_units_Z 42
_cell_length_a 15.819857
_cell_length_b 15.819857
_cell_length_c 10.964568
_cell_angle_alpha 90.000000
_cell_angle_beta 90.000000
_cell_angle_gamma 120.000000
_cell_volume 2376.442244
_symmetry_space_group_name_H-M "P 63/M"
_symmetry_group_IT_number 176
_symmetry_cell_setting 'hexagonal'
loop_
_space_group_symop_operation_xyz
x,y,z
x-y,x,1/2+z
-y,x-y,z
-x,-y,1/2+z
-x+y,-x,z
y,-x+y,1/2+z
-x,-y,-z
-x+y,-x,1/2-z
y,-x+y,-z
x,y,1/2-z
x-y,x,-z
-y,x-y,1/2-z
loop_
_atom_site_type_symbol
_atom_site_label
_atom_site_fract_x
_atom_site_fract_y
_atom_site_fract_z
Si Si1 0.908918 0.636609 0.390063
Si Si2 0.595653 0.868574 0.477362
Si Si3 0.468618 0.925826 0.886776
Si Si4 0.456809 0.759062 0.250000
O O1 0.906334 0.663818 0.250000
O O2 0.837240 0.652458 0.475877
O O3 0.871835 0.520110 0.393017
O O4 0.020755 0.690029 0.435231
O O5 0.526255 0.869172 0.585587
O O6 0.523409 0.809627 0.366750
O O7 0.493744 0.969873 0.750000
O O8 0.500000 0.000000 0.000000
O O9 0.358748 0.767870 0.250000
#
# Coordination Sequence:
#
# PCOD9581991 Si02
#       4
#    12  12  12   6
#     4  10  21  38  58  85 122 157 203 258 304 373
#     4  11  20  39  58  87 119 160 209 251 310 363
#     4   9  19  34  56  81 116 156 197 244 299 359
#     4  10  22  36  58  86 124 160 206 254 302 364
#
# _framework density 17.673477999999999
#
# number of rings (size 3 to 8) (size 9 to 14) (size 15 to 20)
#    0.286    1.714    1.429    2.571    2.000    0.000 
#   14.571    0.000    0.000    0.571    0.000    0.000 
#    0.000    0.000    0.000    0.000    0.000    0.000 
#
# Total GULP energy -233960.320796 kJ/mol
# GULP energy per Si atom -5570.483828 kJ/mol
# Density = 1.763325 g / cm^3
# Si number density = 17.673478 Si / 1000 Ang^3
#
#
#
# Elastic Constant Matrix: (Units=GPa)
#
#
# Indices 1 2 3 4 5 6 
#
# 1 85.4279 50.1771 43.5307 0.0000 0.0000 0.0000
# 2 50.1771 85.4279 43.5307 0.0000 0.0000 0.0000
# 3 43.5307 43.5307 123.1854 0.0000 0.0000 0.0000
# 4 0.0000 0.0000 0.0000 18.4607 0.0000 0.0000
# 5 0.0000 0.0000 0.0000 0.0000 18.4607 0.0000
# 6 0.0000 0.0000 0.0000 0.0000 0.0000 17.6254
#
#
#
# Elastic Compliance Matrix: (Units=1/GPa)
#
#
# Indices 1 2 3 4 5 6 
#
# 1 0.018953 -0.009415 -0.003371 0.000000 0.000000 0.000000
# 2 -0.009415 0.018953 -0.003371 0.000000 0.000000 0.000000
# 3 -0.003371 -0.003371 0.010500 0.000000 0.000000 0.000000
# 4 0.000000 0.000000 0.000000 0.054169 0.000000 0.000000
# 5 0.000000 0.000000 0.000000 0.000000 0.054169 0.000000
# 6 0.000000 0.000000 0.000000 0.000000 0.000000 0.056736
#
#
# Mechanical properties :
#
#
# Convention : Reuss Voigt Hill
#
# Bulk Modulus (GPa) = 62.13388 63.16869 62.65128
# Shear Modulus (GPa) = 19.90777 21.36287 20.63532
#
# Velocity S-wave (km/s) = 3.35986 3.48048 3.42070
# Velocity P-wave (km/s) = 7.09115 7.20912 7.15038
#
# Compressibility (1/GPa) = 0.01609428
#
# Stress axis : x y z
#
# Youngs Moduli (GPa) = 52.76133 52.76133 95.23776
#
# Poissons Ratio (x) = 0.49674 0.32101
# Poissons Ratio (y) = 0.49674 0.32101
# Poissons Ratio (z) = 0.17784 0.17784
#
# Static dielectric constant tensor:
#      x y z
#    x 1.626520 0.000000 0.000000 
#    y 0.000000 1.626520 0.000000 
#    z 0.000000 0.000000 1.616030 
# 
# From -- ./inp_files/1603.got.cif
#   From: 2010.05.17/outbox.cif.g08.bks.cpg/sg176_1_cif.got.tgz:1603.got - 2010.06.03 11:36:45.
