data_PCOD9581067
_publ_section_title
;
Structure prediction by ZEFSAII (Michael W. Deem and Ramdas Pophale) SiO2 
 PCOD9581067
Probable space group: P 63
;
_chemical_formula_sum "Si O2"
_cell_formula_units_Z 30
_cell_length_a 8.446791
_cell_length_b 8.446791
_cell_length_c 24.518653
_cell_angle_alpha 90.000000
_cell_angle_beta 90.000000
_cell_angle_gamma 120.000000
_cell_volume 1514.993383
_symmetry_space_group_name_H-M "P 63"
_symmetry_group_IT_number 173
_symmetry_cell_setting 'hexagonal'
loop_
_space_group_symop_operation_xyz
x,y,z
x-y,x,1/2+z
-y,x-y,z
-x,-y,1/2+z
-x+y,-x,z
y,-x+y,1/2+z
loop_
_atom_site_type_symbol
_atom_site_label
_atom_site_fract_x
_atom_site_fract_y
_atom_site_fract_z
Si Si1 0.194714 0.220370 0.618430
Si Si2 0.305543 0.445992 0.727333
Si Si3 0.329794 0.340049 0.953635
Si Si4 0.974465 0.194990 0.336271
Si Si5 0.326356 0.337135 0.500415
O O1 0.281686 0.330479 0.673350
O O2 0.296887 0.333501 0.564994
O O3 0.180266 0.021412 0.617103
O O4 0.490697 0.642686 0.727568
O O5 0.279969 0.327876 0.780862
O O6 0.299493 0.335988 0.889105
O O7 0.470317 0.533131 0.979310
O O8 0.396426 0.199882 0.970272
O O9 0.133597 0.266950 0.981505
O O10 0.158708 0.179976 0.338467
#
# Coordination Sequence:
#
# PCOD9581067 Si02
#       5
#     6   6   6   6   6
#     4  10  21  42  68  87 130 182 229 267 347 420
#     4  10  24  36  62 102 124 162 226 286 340 398
#     4  12  24  42  65 101 136 181 231 290 350 417
#     4  10  21  42  68  87 130 182 229 267 347 420
#     4  12  24  42  65 101 136 181 231 290 350 417
#
# _framework density 19.802068999999999
#
# number of rings (size 3 to 8) (size 9 to 14) (size 15 to 20)
#    1.200    0.000    4.000    2.400    5.600    0.000 
#    0.000    0.000    0.000    6.400    0.000    0.000 
#    0.000    0.000    0.000    0.000    0.000    0.000 
#
# Total GULP energy -167356.500285 kJ/mol
# GULP energy per Si atom -5578.550009 kJ/mol
# Density = 1.975700 g / cm^3
# Si number density = 19.802069 Si / 1000 Ang^3
#
#
#
# Elastic Constant Matrix: (Units=GPa)
#
#
# Indices 1 2 3 4 5 6 
#
# 1 61.7878 5.0210 43.8781 0.0000 0.0000 0.0000
# 2 5.0210 61.7878 43.8781 0.0000 0.0000 0.0000
# 3 43.8781 43.8781 234.0775 0.0000 0.0000 0.0000
# 4 0.0000 0.0000 0.0000 -4.5795 0.0000 0.0000
# 5 0.0000 0.0000 0.0000 0.0000 -4.5795 0.0000
# 6 0.0000 0.0000 0.0000 0.0000 0.0000 28.3834
#
#
#
# Elastic Compliance Matrix: (Units=1/GPa)
#
#
# Indices 1 2 3 4 5 6 
#
# 1 0.018737 0.001121 -0.003722 0.000000 0.000000 0.000000
# 2 0.001121 0.018737 -0.003722 0.000000 0.000000 0.000000
# 3 -0.003722 -0.003722 0.005668 0.000000 0.000000 0.000000
# 4 0.000000 0.000000 0.000000 -0.218366 0.000000 0.000000
# 5 0.000000 0.000000 0.000000 0.000000 -0.218366 0.000000
# 6 0.000000 0.000000 0.000000 0.000000 0.000000 0.035232
#
#
# Mechanical properties :
#
#
# Convention : Reuss Voigt Hill
#
# Bulk Modulus (GPa) = 32.79400 60.35638 46.57519
# Shear Modulus (GPa) = -14.90108 21.50327 3.30110
#
# Velocity S-wave (km/s) = -2.74615 3.29889 1.29254
# Velocity P-wave (km/s) = 2.55768 6.71239 5.07927
#
# Compressibility (1/GPa) = 0.03049338
#
# Stress axis : x y z
#
# Youngs Moduli (GPa) = 53.37110 53.37110 176.44171
#
# Poissons Ratio (x) = -0.05982 0.65677
# Poissons Ratio (y) = -0.05982 0.65677
# Poissons Ratio (z) = 0.19866 0.19866
#
# Static dielectric constant tensor:
#      x y z
#    x 1.767710 0.000000 0.000000 
#    y 0.000000 1.767710 0.000000 
#    z 0.000000 0.000000 1.653590 
# 
# From -- ./inp_files/1424.got.cif
#   From: 2010.05.17/outbox.cif.g08.bks.cpg/sg173_cif.got.tgz:1424.got - 2010.05.20 11:21:53.
