data_PCOD9581547
_publ_section_title
;
Structure prediction by ZEFSAII (Michael W. Deem and Ramdas Pophale) SiO2 
 PCOD9581547
Probable space group: P 6/M
;
_chemical_formula_sum "Si O2"
_cell_formula_units_Z 54
_cell_length_a 16.920813
_cell_length_b 16.920813
_cell_length_c 12.925649
_cell_angle_alpha 90.000000
_cell_angle_beta 90.000000
_cell_angle_gamma 120.000000
_cell_volume 3204.980872
_symmetry_space_group_name_H-M "P 6/M"
_symmetry_group_IT_number 175
_symmetry_cell_setting 'hexagonal'
loop_
_space_group_symop_operation_xyz
x,y,z
x-y,x,z
-y,x-y,z
-x,-y,z
-x+y,-x,z
y,-x+y,z
-x,-y,-z
-x+y,-x,-z
y,-x+y,-z
x,y,-z
x-y,x,-z
-y,x-y,-z
loop_
_atom_site_type_symbol
_atom_site_label
_atom_site_fract_x
_atom_site_fract_y
_atom_site_fract_z
Si Si1 0.218069 0.138697 0.500000
Si Si2 0.351504 0.437343 0.380199
Si Si3 0.348979 0.187847 0.302720
Si Si4 0.786311 0.864714 0.879003
Si Si5 0.128927 0.498439 0.619177
O O1 0.142858 0.171046 0.500000
O O2 0.283077 0.177594 0.399137
O O3 0.320906 0.432078 0.500000
O O4 0.264902 0.371070 0.312928
O O5 0.425284 0.404506 0.380450
O O6 0.406106 0.543650 0.347728
O O7 0.298002 0.184582 0.198298
O O8 0.447615 0.277549 0.316517
O O9 0.859796 0.832736 0.859574
O O10 0.760395 0.848059 0.000000
O O11 0.160533 0.509021 0.500000
#
# Coordination Sequence:
#
# PCOD9581547 Si02
#       5
#     6  12  12  12  12
#     4  12  23  32  46  74 110 142 170 212 269 324
#     4   9  17  30  47  69  99 132 163 202 255 314
#     4  12  20  32  53  76 100 138 178 218 261 325
#     4  10  21  36  54  76 106 146 190 230 263 305
#     4   9  17  30  47  69  99 132 163 202 255 314
#
# _framework density 16.848773999999999
#
# number of rings (size 3 to 8) (size 9 to 14) (size 15 to 20)
#    0.000    1.778    2.222    5.667    0.000    0.889 
#    1.333    2.222    0.000    1.333    0.000    6.222 
#    0.000    0.000    0.000    0.000    0.000    0.000 
#
# Total GULP energy -301257.032831 kJ/mol
# GULP energy per Si atom -5578.833941 kJ/mol
# Density = 1.681043 g / cm^3
# Si number density = 16.848774 Si / 1000 Ang^3
#
#
#
# Elastic Constant Matrix: (Units=GPa)
#
#
# Indices 1 2 3 4 5 6 
#
# 1 54.8832 -5.3520 16.9429 0.0000 0.0000 0.0000
# 2 -5.3520 54.8832 16.9429 0.0000 0.0000 0.0000
# 3 16.9429 16.9429 44.3432 0.0000 0.0000 0.0000
# 4 0.0000 0.0000 0.0000 11.5815 0.0000 0.0000
# 5 0.0000 0.0000 0.0000 0.0000 11.5815 0.0000
# 6 0.0000 0.0000 0.0000 0.0000 0.0000 30.1176
#
#
#
# Elastic Compliance Matrix: (Units=1/GPa)
#
#
# Indices 1 2 3 4 5 6 
#
# 1 0.021968 0.005366 -0.010444 0.000000 0.000000 0.000000
# 2 0.005366 0.021968 -0.010444 0.000000 0.000000 0.000000
# 3 -0.010444 -0.010444 0.030532 0.000000 0.000000 0.000000
# 4 0.000000 0.000000 0.000000 0.086345 0.000000 0.000000
# 5 0.000000 0.000000 0.000000 0.000000 0.086345 0.000000
# 6 0.000000 0.000000 0.000000 0.000000 0.000000 0.033203
#
#
# Mechanical properties :
#
#
# Convention : Reuss Voigt Hill
#
# Bulk Modulus (GPa) = 23.02824 23.46412 23.24618
# Shear Modulus (GPa) = 15.34310 19.02784 17.18547
#
# Velocity S-wave (km/s) = 3.02095 3.36420 3.19718
# Velocity P-wave (km/s) = 5.08581 5.38952 5.23987
#
# Compressibility (1/GPa) = 0.04342494
#
# Stress axis : x y z
#
# Youngs Moduli (GPa) = 45.52083 45.52083 32.75210
#
# Poissons Ratio (x) = -0.24428 0.34206
# Poissons Ratio (y) = -0.24428 0.34206
# Poissons Ratio (z) = 0.47542 0.47542
#
# Static dielectric constant tensor:
#      x y z
#    x 1.615350 0.000000 0.000000 
#    y 0.000000 1.615350 0.000000 
#    z 0.000000 0.000000 1.541020 
# 
# From -- ./inp_files/1734.got.cif
#   From: 2010.05.17/outbox.cif.g08.bks.cpg/sg175_1_cif.got.tgz:1734.got - 2010.05.20 11:23:22.
