data_PCOD9581613
_publ_section_title
;
Structure prediction by ZEFSAII (Michael W. Deem and Ramdas Pophale) SiO2 
 PCOD9581613
Probable space group: P 6/M
;
_chemical_formula_sum "Si O2"
_cell_formula_units_Z 60
_cell_length_a 17.401807
_cell_length_b 17.401807
_cell_length_c 11.524853
_cell_angle_alpha 90.000000
_cell_angle_beta 90.000000
_cell_angle_gamma 120.000000
_cell_volume 3022.419355
_symmetry_space_group_name_H-M "P 6/M"
_symmetry_group_IT_number 175
_symmetry_cell_setting 'hexagonal'
loop_
_space_group_symop_operation_xyz
x,y,z
x-y,x,z
-y,x-y,z
-x,-y,z
-x+y,-x,z
y,-x+y,z
-x,-y,-z
-x+y,-x,-z
y,-x+y,-z
x,y,-z
x-y,x,-z
-y,x-y,-z
loop_
_atom_site_type_symbol
_atom_site_label
_atom_site_fract_x
_atom_site_fract_y
_atom_site_fract_z
Si Si1 0.026175 0.837808 0.360176
Si Si2 0.150491 0.639567 0.637725
Si Si3 0.360310 0.406717 0.000000
Si Si4 0.334163 0.342293 0.750612
Si Si5 0.690757 0.186708 0.751986
Si Si6 0.537816 0.388852 0.000000
O O1 0.026984 0.836596 0.500000
O O2 0.034001 0.756003 0.314220
O O3 0.932170 0.825707 0.322085
O O4 0.155505 0.653321 0.500000
O O5 0.055405 0.618137 0.686945
O O6 0.222495 0.728584 0.703483
O O7 0.170350 0.562054 0.671655
O O8 0.314091 0.359497 0.118669
O O9 0.451060 0.401361 0.000000
O O10 0.383716 0.508834 0.000000
O O11 0.400233 0.302748 0.750400
O O12 0.663072 0.196277 0.883101
#
# Coordination Sequence:
#
# PCOD9581613 Si02
#       6
#    12  12   6  12  12   6
#     4  10  21  39  63  93 128 166 209 256 308 369
#     4  12  25  39  58  86 124 165 202 251 313 373
#     4   9  18  37  63  91 120 148 199 261 310 355
#     4  11  22  39  65  91 119 160 209 261 310 365
#     4  11  24  41  61  88 122 161 207 260 316 373
#     4   9  18  39  65  87 114 158 203 253 308 371
#
# _framework density 19.851647
#
# number of rings (size 3 to 8) (size 9 to 14) (size 15 to 20)
#    0.000    1.400    2.000    3.600    0.000    8.000 
#    0.000    3.000    0.000    0.000    0.000    1.400 
#    0.000    0.000    0.000    0.000    0.000    0.000 
#
# Total GULP energy -335536.168115 kJ/mol
# GULP energy per Si atom -5592.269469 kJ/mol
# Density = 1.980646 g / cm^3
# Si number density = 19.851647 Si / 1000 Ang^3
#
#
#
# Elastic Constant Matrix: (Units=GPa)
#
#
# Indices 1 2 3 4 5 6 
#
# 1 51.1655 -5.7133 3.8027 0.0000 0.0000 0.0000
# 2 -5.7133 51.1655 3.8027 0.0000 0.0000 0.0000
# 3 3.8027 3.8027 95.1246 0.0000 0.0000 0.0000
# 4 0.0000 0.0000 0.0000 -2.5996 0.0000 0.0000
# 5 0.0000 0.0000 0.0000 0.0000 -2.5996 0.0000
# 6 0.0000 0.0000 0.0000 0.0000 0.0000 28.4394
#
#
#
# Elastic Compliance Matrix: (Units=1/GPa)
#
#
# Indices 1 2 3 4 5 6 
#
# 1 0.019865 0.002284 -0.000885 0.000000 0.000000 0.000000
# 2 0.002284 0.019865 -0.000885 0.000000 0.000000 0.000000
# 3 -0.000885 -0.000885 0.010583 0.000000 0.000000 0.000000
# 4 0.000000 0.000000 0.000000 -0.384674 0.000000 0.000000
# 5 0.000000 0.000000 0.000000 0.000000 -0.384674 0.000000
# 6 0.000000 0.000000 0.000000 0.000000 0.000000 0.035162
#
#
# Mechanical properties :
#
#
# Convention : Reuss Voigt Hill
#
# Bulk Modulus (GPa) = 19.47793 22.35998 20.91896
# Shear Modulus (GPa) = -7.48744 17.68561 5.09908
#
# Velocity S-wave (km/s) = -1.94419 2.98801 1.60442
# Velocity P-wave (km/s) = 2.18934 4.81584 3.74069
#
# Compressibility (1/GPa) = 0.05134016
#
# Stress axis : x y z
#
# Youngs Moduli (GPa) = 50.33910 50.33910 94.48826
#
# Poissons Ratio (x) = -0.11498 0.08366
# Poissons Ratio (y) = -0.11498 0.08366
# Poissons Ratio (z) = 0.04457 0.04457
#
# Static dielectric constant tensor:
#      x y z
#    x 1.677260 0.000000 0.000000 
#    y 0.000000 1.677260 0.000000 
#    z 0.000000 0.000000 1.684170 
# 
# From -- ./inp_files/1838.got.cif
#   From: 2010.05.17/outbox.cif.g08.bks.cpg/sg175_1_cif.got.tgz:1838.got - 2010.05.20 11:23:22.
