data_PCOD9581068
_publ_section_title
;
Structure prediction by ZEFSAII (Michael W. Deem and Ramdas Pophale) SiO2 
 PCOD9581068
Probable space group: P 63
;
_chemical_formula_sum "Si O2"
_cell_formula_units_Z 24
_cell_length_a 10.846945
_cell_length_b 10.846945
_cell_length_c 8.017877
_cell_angle_alpha 90.000000
_cell_angle_beta 90.000000
_cell_angle_gamma 120.000000
_cell_volume 816.967721
_symmetry_space_group_name_H-M "P 63"
_symmetry_group_IT_number 173
_symmetry_cell_setting 'hexagonal'
loop_
_space_group_symop_operation_xyz
x,y,z
x-y,x,1/2+z
-y,x-y,z
-x,-y,1/2+z
-x+y,-x,z
y,-x+y,1/2+z
loop_
_atom_site_type_symbol
_atom_site_label
_atom_site_fract_x
_atom_site_fract_y
_atom_site_fract_z
Si Si1 0.717497 0.764677 0.849350
Si Si2 0.717497 0.764677 0.470175
Si Si3 0.143387 0.577298 0.362809
Si Si4 0.422702 0.566089 0.956716
O O1 0.689884 0.789924 0.659763
O O2 0.597300 0.602232 0.906016
O O3 0.481074 0.736855 0.907250
O O4 0.754351 0.893869 0.969867
O O5 0.754351 0.893869 0.349658
O O6 0.597300 0.602232 0.413509
O O7 0.255782 0.518926 0.412275
O O8 0.138008 0.575874 0.159763
#
# Coordination Sequence:
#
# PCOD9581068 Si02
#       4
#     6   6   6   6
#     4  12  25  46  74 110 153 203 261 326 396 478
#     4  12  25  46  74 110 153 203 261 326 396 478
#     4  10  21  43  74 111 151 199 263 320 397 458
#     4  10  21  43  74 111 151 199 263 320 397 458
#
# _framework density 29.376926000000001
#
# number of rings (size 3 to 8) (size 9 to 14) (size 15 to 20)
#    1.000    0.000    5.000    2.000    0.000    2.000 
#    0.000    0.000    0.000    0.000    0.000    0.000 
#    0.000    0.000    0.000    0.000    0.000    0.000 
#
# Total GULP energy -134223.277696 kJ/mol
# GULP energy per Si atom -5592.636571 kJ/mol
# Density = 2.931006 g / cm^3
# Si number density = 29.376926 Si / 1000 Ang^3
#
#
#
# Elastic Constant Matrix: (Units=GPa)
#
#
# Indices 1 2 3 4 5 6 
#
# 1 218.4881 113.1038 47.2092 0.0000 0.0000 0.0000
# 2 113.1038 218.4881 47.2092 0.0000 0.0000 0.0000
# 3 47.2092 47.2092 159.5798 0.0000 0.0000 0.0000
# 4 0.0000 0.0000 0.0000 59.7996 0.0000 0.0000
# 5 0.0000 0.0000 0.0000 0.0000 59.7996 0.0000
# 6 0.0000 0.0000 0.0000 0.0000 0.0000 52.6921
#
#
#
# Elastic Compliance Matrix: (Units=1/GPa)
#
#
# Indices 1 2 3 4 5 6 
#
# 1 0.006391 -0.003098 -0.000974 0.000000 0.000000 0.000000
# 2 -0.003098 0.006391 -0.000974 0.000000 0.000000 0.000000
# 3 -0.000974 -0.000974 0.006843 0.000000 0.000000 0.000000
# 4 0.000000 0.000000 0.000000 0.016723 0.000000 0.000000
# 5 0.000000 0.000000 0.000000 0.000000 0.016723 0.000000
# 6 0.000000 0.000000 0.000000 0.000000 0.000000 0.018978
#
#
# Mechanical properties :
#
#
# Convention : Reuss Voigt Hill
#
# Bulk Modulus (GPa) = 104.90671 112.40004 108.65338
# Shear Modulus (GPa) = 58.60389 60.39387 59.49888
#
# Velocity S-wave (km/s) = 4.47127 4.53904 4.50528
# Velocity P-wave (km/s) = 7.90218 8.11264 8.00810
#
# Compressibility (1/GPa) = 0.00953228
#
# Stress axis : x y z
#
# Youngs Moduli (GPa) = 156.46705 156.46705 146.13737
#
# Poissons Ratio (x) = 0.48473 0.14237
# Poissons Ratio (y) = 0.48473 0.14237
# Poissons Ratio (z) = 0.15243 0.15243
#
# Static dielectric constant tensor:
#      x y z
#    x 2.602140 0.000000 0.000000 
#    y 0.000000 2.602140 0.000000 
#    z 0.000000 0.000000 1.895750 
# 
# From -- ./inp_files/410.got.cif
#   From: 2010.05.17/outbox.cif.g08.bks.cpg/sg173_cif.got.tgz:410.got - 2010.05.20 11:21:53.
