data_PCOD9581254
_publ_section_title
;
Structure prediction by ZEFSAII (Michael W. Deem and Ramdas Pophale) SiO2 
 PCOD9581254
Probable space group: P 6/M
;
_chemical_formula_sum "Si O2"
_cell_formula_units_Z 72
_cell_length_a 22.458661
_cell_length_b 22.458661
_cell_length_c 10.514768
_cell_angle_alpha 90.000000
_cell_angle_beta 90.000000
_cell_angle_gamma 120.000000
_cell_volume 4593.016928
_symmetry_space_group_name_H-M "P 6/M"
_symmetry_group_IT_number 175
_symmetry_cell_setting 'hexagonal'
loop_
_space_group_symop_operation_xyz
x,y,z
x-y,x,z
-y,x-y,z
-x,-y,z
-x+y,-x,z
y,-x+y,z
-x,-y,-z
-x+y,-x,-z
y,-x+y,-z
x,y,-z
x-y,x,-z
-y,x-y,-z
loop_
_atom_site_type_symbol
_atom_site_label
_atom_site_fract_x
_atom_site_fract_y
_atom_site_fract_z
Si Si1 0.473363 0.666227 0.847915
Si Si2 0.290368 0.074549 0.000000
Si Si3 0.381417 0.119117 0.753856
Si Si4 0.526637 0.192865 0.152085
Si Si5 0.923123 0.703037 0.500000
Si Si6 0.381417 0.262300 0.753856
Si Si7 0.925451 0.709632 0.000000
Si Si8 0.703037 0.923123 0.500000
O O1 0.462262 0.731131 0.821556
O O2 0.404703 0.595297 0.819192
O O3 0.540786 0.677106 0.774279
O O4 0.487083 0.668700 0.000000
O O5 0.335209 0.081448 0.875960
O O6 0.276785 0.138393 0.000000
O O7 0.223331 1.000000 0.000000
O O8 0.459214 0.136320 0.774279
O O9 0.387648 0.193824 0.755285
O O10 0.342499 0.084902 0.624222
O O11 0.512917 0.181617 0.000000
O O12 0.915098 0.657501 0.624222
O O13 0.859023 0.718045 0.500000
O O14 1.000000 0.768444 0.500000
O O15 0.335209 0.253761 0.875960
#
# Coordination Sequence:
#
# PCOD9581254 Si02
#       8
#    12   6  12  12   6  12   6   6
#     4   9  15  25  44  70  98 126 161 204 247 282
#     4  10  18  30  49  70  91 115 147 187 227 271
#     4   9  17  30  47  69  95 124 156 192 232 273
#     4   9  15  25  44  70  98 126 161 204 247 282
#     4  10  20  34  53  74  95 121 153 189 231 279
#     4   9  17  30  47  69  95 124 156 192 232 273
#     4  10  18  30  49  70  91 115 147 187 227 271
#     4  10  20  34  53  74  95 121 153 189 231 279
#
# _framework density 15.675972
#
# number of rings (size 3 to 8) (size 9 to 14) (size 15 to 20)
#    0.000    2.667    1.667    1.333    0.000    1.333 
#    0.000    0.833    0.000    6.333    0.000    2.333 
#    0.000    8.000    0.000    0.000    0.000    1.333 
#
# Total GULP energy -400816.704762 kJ/mol
# GULP energy per Si atom -5566.898677 kJ/mol
# Density = 1.564029 g / cm^3
# Si number density = 15.675972 Si / 1000 Ang^3
#
#
#
# Elastic Constant Matrix: (Units=GPa)
#
#
# Indices 1 2 3 4 5 6 
#
# 1 90.5396 55.1243 36.6750 0.0000 0.0000 0.0000
# 2 55.1243 90.5396 36.6750 0.0000 0.0000 0.0000
# 3 36.6750 36.6750 104.1378 0.0000 0.0000 0.0000
# 4 0.0000 0.0000 0.0000 -61.7983 0.0000 0.0000
# 5 0.0000 0.0000 0.0000 0.0000 -61.7983 0.0000
# 6 0.0000 0.0000 0.0000 0.0000 0.0000 17.7077
#
#
#
# Elastic Compliance Matrix: (Units=1/GPa)
#
#
# Indices 1 2 3 4 5 6 
#
# 1 0.018291 -0.009946 -0.002939 0.000000 0.000000 0.000000
# 2 -0.009946 0.018291 -0.002939 0.000000 0.000000 0.000000
# 3 -0.002939 -0.002939 0.011673 0.000000 0.000000 0.000000
# 4 0.000000 0.000000 0.000000 -0.016182 0.000000 0.000000
# 5 0.000000 0.000000 0.000000 0.000000 -0.016182 0.000000
# 6 0.000000 0.000000 0.000000 0.000000 0.000000 0.056473
#
#
# Mechanical properties :
#
#
# Convention : Reuss Voigt Hill
#
# Bulk Modulus (GPa) = 60.21536 60.24059 60.22798
# Shear Modulus (GPa) = 45.64282 -10.72826 17.45728
#
# Velocity S-wave (km/s) = 5.40182 -2.61890 3.34073
# Velocity P-wave (km/s) = 8.79785 5.41915 7.30648
#
# Compressibility (1/GPa) = 0.01660706
#
# Stress axis : x y z
#
# Youngs Moduli (GPa) = 54.67257 54.67257 85.66984
#
# Poissons Ratio (x) = 0.54376 0.25178
# Poissons Ratio (y) = 0.54376 0.25178
# Poissons Ratio (z) = 0.16068 0.16068
#
# Static dielectric constant tensor:
#      x y z
#    x 1.523890 0.000000 0.000000 
#    y 0.000000 1.523890 0.000000 
#    z 0.000000 0.000000 1.530910 
# 
# From -- ./inp_files/1973.got.cif
#   From: 2010.05.17/outbox.cif.g08.bks.cpg/sg175_1_cif.got.tgz:1973.got - 2010.05.20 11:23:22.
