data_PCOD9581808
_publ_section_title
;
Structure prediction by ZEFSAII (Michael W. Deem and Ramdas Pophale) SiO2 
 PCOD9581808
Probable space group: P 63/M
;
_chemical_formula_sum "Si O2"
_cell_formula_units_Z 68
_cell_length_a 18.160960
_cell_length_b 18.160960
_cell_length_c 15.660945
_cell_angle_alpha 90.000000
_cell_angle_beta 90.000000
_cell_angle_gamma 120.000000
_cell_volume 4473.281201
_symmetry_space_group_name_H-M "P 63/M"
_symmetry_group_IT_number 176
_symmetry_cell_setting 'hexagonal'
loop_
_space_group_symop_operation_xyz
x,y,z
x-y,x,1/2+z
-y,x-y,z
-x,-y,1/2+z
-x+y,-x,z
y,-x+y,1/2+z
-x,-y,-z
-x+y,-x,1/2-z
y,-x+y,-z
x,y,1/2-z
x-y,x,-z
-y,x-y,1/2-z
loop_
_atom_site_type_symbol
_atom_site_label
_atom_site_fract_x
_atom_site_fract_y
_atom_site_fract_z
Si Si1 0.330921 0.430793 0.010493
Si Si2 0.666668 0.333334 0.850014
Si Si3 0.156271 0.542037 0.416517
Si Si4 0.795975 0.524674 0.425438
Si Si5 0.333334 0.666668 0.646513
Si Si6 0.558452 0.542074 0.157316
Si Si7 0.610784 0.643017 0.654070
O O1 0.383082 0.520699 0.059151
O O2 0.332007 0.364182 0.078535
O O3 0.247369 0.428215 0.973117
O O4 0.383666 0.437610 0.925321
O O5 0.666667 0.333334 0.750000
O O6 0.667525 0.251078 0.883130
O O7 0.152355 0.494214 0.502800
O O8 0.084847 0.482622 0.350316
O O9 0.724678 0.431321 0.387907
O O10 0.869602 0.584544 0.359893
O O11 0.333334 0.666668 0.750000
O O12 0.599955 0.551170 0.250000
O O13 0.479570 0.446027 0.151129
O O14 0.645586 0.648900 0.750000
#
# Coordination Sequence:
#
# PCOD9581808 Si02
#       7
#    12   4  12  12   4  12  12
#     4  11  20  33  51  65  92 123 156 204 250 290
#     4  12  22  29  43  69  91 119 169 211 239 283
#     4  11  18  33  45  61  91 125 155 202 248 280
#     4  12  19  33  51  66  92 130 160 203 258 290
#     4  12  22  29  43  75 100 122 172 226 257 280
#     4  10  19  32  48  65  88 122 158 196 247 294
#     4  10  20  34  50  69  91 123 162 199 245 298
#
# _framework density 15.201370000000001
#
# number of rings (size 3 to 8) (size 9 to 14) (size 15 to 20)
#    0.000    1.059    7.059    2.118    0.000    3.529 
#    0.000    0.000    0.000    0.000    0.000    0.000 
#    0.000    0.000    0.000    0.529    0.000    0.529 
#
# Total GULP energy -378863.035827 kJ/mol
# GULP energy per Si atom -5571.515233 kJ/mol
# Density = 1.516677 g / cm^3
# Si number density = 15.201370 Si / 1000 Ang^3
#
#
#
# Elastic Constant Matrix: (Units=GPa)
#
#
# Indices 1 2 3 4 5 6 
#
# 1 48.8462 13.7555 18.7780 0.0000 0.0000 0.0017
# 2 13.7555 48.8457 18.7794 0.0000 0.0000 -0.0009
# 3 18.7780 18.7794 103.7915 0.0000 0.0000 0.0000
# 4 0.0000 0.0000 0.0000 7.3658 0.0003 0.0000
# 5 0.0000 0.0000 0.0000 0.0003 7.3659 0.0000
# 6 0.0017 -0.0009 0.0000 0.0000 0.0000 17.5467
#
#
#
# Elastic Compliance Matrix: (Units=1/GPa)
#
#
# Indices 1 2 3 4 5 6 
#
# 1 0.023208 -0.005289 -0.003242 0.000000 0.000000 -0.000003
# 2 -0.005289 0.023209 -0.003242 0.000000 0.000000 0.000002
# 3 -0.003242 -0.003242 0.010808 0.000000 0.000000 0.000000
# 4 0.000000 0.000000 0.000000 0.135763 -0.000005 0.000000
# 5 0.000000 0.000000 0.000000 -0.000005 0.135761 0.000000
# 6 -0.000003 0.000002 0.000000 0.000000 0.000000 0.056991
#
#
# Mechanical properties :
#
#
# Convention : Reuss Voigt Hill
#
# Bulk Modulus (GPa) = 29.69309 33.78992 31.74150
# Shear Modulus (GPa) = 11.89028 16.46705 14.17866
#
# Velocity S-wave (km/s) = 2.79979 3.29486 3.05736
# Velocity P-wave (km/s) = 5.47972 6.06228 5.77835
#
# Compressibility (1/GPa) = 0.03367787
#
# Stress axis : x y z
#
# Youngs Moduli (GPa) = 43.08826 43.08730 92.52533
#
# Poissons Ratio (x) = 0.22790 0.29995
# Poissons Ratio (y) = 0.22791 0.29999
# Poissons Ratio (z) = 0.13968 0.13970
#
# Static dielectric constant tensor:
#      x y z
#    x 1.488950 -0.000010 0.000000 
#    y -0.000010 1.488970 0.000000 
#    z 0.000000 0.000000 1.567820 
# 
# From -- ./inp_files/2823.got.cif
#   From: 2010.05.17/outbox.cif.g08.bks.cpg/sg176_2_cif.got.tgz:2823.got - 2010.06.03 11:36:45.
