data_PCOD9581531
_publ_section_title
;
Structure prediction by ZEFSAII (Michael W. Deem and Ramdas Pophale) SiO2 
 PCOD9581531
Probable space group: P 6/M
;
_chemical_formula_sum "Si O2"
_cell_formula_units_Z 60
_cell_length_a 17.544666
_cell_length_b 17.544666
_cell_length_c 14.311612
_cell_angle_alpha 90.000000
_cell_angle_beta 90.000000
_cell_angle_gamma 120.000000
_cell_volume 3815.130475
_symmetry_space_group_name_H-M "P 6/M"
_symmetry_group_IT_number 175
_symmetry_cell_setting 'hexagonal'
loop_
_space_group_symop_operation_xyz
x,y,z
x-y,x,z
-y,x-y,z
-x,-y,z
-x+y,-x,z
y,-x+y,z
-x,-y,-z
-x+y,-x,-z
y,-x+y,-z
x,y,-z
x-y,x,-z
-y,x-y,-z
loop_
_atom_site_type_symbol
_atom_site_label
_atom_site_fract_x
_atom_site_fract_y
_atom_site_fract_z
Si Si1 0.005802 0.658017 0.610577
Si Si2 0.841880 0.811037 0.386289
Si Si3 0.809121 0.511237 0.389770
Si Si4 0.369100 0.517289 0.698985
Si Si5 0.778454 0.361751 0.894599
O O1 0.024940 0.656693 0.500000
O O2 0.054735 0.616608 0.666865
O O3 0.040185 0.758302 0.640087
O O4 0.900740 0.602127 0.621378
O O5 0.936025 0.826322 0.355651
O O6 0.842659 0.812035 0.500000
O O7 0.787774 0.498612 0.500000
O O8 0.728420 0.507854 0.335008
O O9 0.827271 0.435453 0.352308
O O10 0.376866 0.534757 0.809549
O O11 0.734479 0.424141 0.885672
O O12 0.812804 0.370455 0.000000
#
# Coordination Sequence:
#
# PCOD9581531 Si02
#       5
#    12  12  12  12  12
#     4  10  21  32  42  63 101 134 153 187 244 287
#     4   9  16  28  45  64  86 120 164 201 228 264
#     4  11  21  31  45  68  95 127 164 197 225 269
#     4  12  19  32  49  68  89 123 163 196 230 279
#     4   8  15  31  51  71  89 109 151 204 247 279
#
# _framework density 15.726853999999999
#
# number of rings (size 3 to 8) (size 9 to 14) (size 15 to 20)
#    0.400    1.600    2.000    4.200    0.000    5.600 
#    0.000    0.000    0.000    3.600    0.000    0.000 
#    0.000    0.000    0.000    0.400    0.000    7.400 
#
# Total GULP energy -334527.174856 kJ/mol
# GULP energy per Si atom -5575.452914 kJ/mol
# Density = 1.569106 g / cm^3
# Si number density = 15.726854 Si / 1000 Ang^3
#
#
#
# Elastic Constant Matrix: (Units=GPa)
#
#
# Indices 1 2 3 4 5 6 
#
# 1 36.5331 -7.8456 3.4481 0.0000 0.0000 0.0000
# 2 -7.8456 36.5331 3.4481 0.0000 0.0000 0.0000
# 3 3.4481 3.4481 59.0523 0.0000 0.0000 0.0000
# 4 0.0000 0.0000 0.0000 9.7629 0.0000 0.0000
# 5 0.0000 0.0000 0.0000 0.0000 9.7629 0.0000
# 6 0.0000 0.0000 0.0000 0.0000 0.0000 22.1893
#
#
#
# Elastic Compliance Matrix: (Units=1/GPa)
#
#
# Indices 1 2 3 4 5 6 
#
# 1 0.028944 0.006411 -0.002064 0.000000 0.000000 0.000000
# 2 0.006411 0.028944 -0.002064 0.000000 0.000000 0.000000
# 3 -0.002064 -0.002064 0.017175 0.000000 0.000000 0.000000
# 4 0.000000 0.000000 0.000000 0.102428 0.000000 0.000000
# 5 0.000000 0.000000 0.000000 0.000000 0.102428 0.000000
# 6 0.000000 0.000000 0.000000 0.000000 0.000000 0.045067
#
#
# Mechanical properties :
#
#
# Convention : Reuss Voigt Hill
#
# Bulk Modulus (GPa) = 12.55856 14.46885 13.51371
# Shear Modulus (GPa) = 14.41067 17.21423 15.81245
#
# Velocity S-wave (km/s) = 3.03035 3.31203 3.17431
# Velocity P-wave (km/s) = 4.49964 4.88325 4.69536
#
# Compressibility (1/GPa) = 0.07962695
#
# Stress axis : x y z
#
# Youngs Moduli (GPa) = 34.54951 34.54951 58.22342
#
# Poissons Ratio (x) = -0.22148 0.12019
# Poissons Ratio (y) = -0.22148 0.12019
# Poissons Ratio (z) = 0.07132 0.07132
#
# Static dielectric constant tensor:
#      x y z
#    x 1.535920 0.000000 0.000000 
#    y 0.000000 1.535920 0.000000 
#    z 0.000000 0.000000 1.497400 
# 
# From -- ./inp_files/2443.got.cif
#   From: 2010.05.17/outbox.cif.g08.bks.cpg/sg175_2_cif.got.tgz:2443.got - 2010.05.20 11:23:22.
