data_PCOD9581893
_publ_section_title
;
Structure prediction by ZEFSAII (Michael W. Deem and Ramdas Pophale) SiO2 
 PCOD9581893
Probable space group: P 63/M
;
_chemical_formula_sum "Si O2"
_cell_formula_units_Z 72
_cell_length_a 22.625470
_cell_length_b 22.625470
_cell_length_c 7.430677
_cell_angle_alpha 90.000000
_cell_angle_beta 90.000000
_cell_angle_gamma 120.000000
_cell_volume 3294.232401
_symmetry_space_group_name_H-M "P 63/M"
_symmetry_group_IT_number 176
_symmetry_cell_setting 'hexagonal'
loop_
_space_group_symop_operation_xyz
x,y,z
x-y,x,1/2+z
-y,x-y,z
-x,-y,1/2+z
-x+y,-x,z
y,-x+y,1/2+z
-x,-y,-z
-x+y,-x,1/2-z
y,-x+y,-z
x,y,1/2-z
x-y,x,-z
-y,x-y,1/2-z
loop_
_atom_site_type_symbol
_atom_site_label
_atom_site_fract_x
_atom_site_fract_y
_atom_site_fract_z
Si Si1 0.887665 0.850309 0.454462
Si Si2 0.627667 0.779450 0.469470
Si Si3 0.702357 0.606374 0.533268
Si Si4 0.456976 0.812690 0.030394
Si Si5 0.791008 0.477590 0.969248
Si Si6 0.247133 0.989279 0.040167
O O1 0.872254 0.912770 0.454122
O O2 0.897199 0.834157 0.250000
O O3 0.818846 0.786595 0.535247
O O4 0.629238 0.778781 0.250000
O O5 0.622587 0.844929 0.523046
O O6 0.555688 0.714278 0.524228
O O7 0.695031 0.780901 0.536865
O O8 0.700441 0.606490 0.750000
O O9 0.651391 0.528955 0.473636
O O10 0.698239 0.671264 0.470955
O O11 0.456482 0.812873 0.250000
O O12 0.458333 0.744138 0.977908
O O13 0.388340 0.810188 0.968758
O O14 0.790848 0.476525 0.750000
O O15 0.227583 0.981210 0.250000
#
# Coordination Sequence:
#
# PCOD9581893 Si02
#       6
#    12  12  12  12  12  12
#     4  11  23  38  56  77 101 126 155 192 234 280
#     4   8  15  28  44  62  88 121 151 182 225 274
#     4   9  17  30  47  67  92 119 150 192 236 274
#     4   8  13  21  38  66  94 119 149 189 236 278
#     4   8  12  20  37  62  92 120 147 185 231 275
#     4  10  20  33  49  68  90 123 162 190 220 269
#
# _framework density 21.856382
#
# number of rings (size 3 to 8) (size 9 to 14) (size 15 to 20)
#    0.000    3.000    0.000    4.000    0.000    4.000 
#    0.000    1.667    0.000    0.000    0.000    4.667 
#    0.000    0.000    0.000    0.000    0.000    0.000 
#
# Total GULP energy -401756.525744 kJ/mol
# GULP energy per Si atom -5579.951746 kJ/mol
# Density = 2.180664 g / cm^3
# Si number density = 21.856382 Si / 1000 Ang^3
#
#
#
# Elastic Constant Matrix: (Units=GPa)
#
#
# Indices 1 2 3 4 5 6 
#
# 1 54.9080 -12.0598 1.4298 0.0000 0.0000 0.0000
# 2 -12.0598 54.9080 1.4298 0.0000 0.0000 0.0000
# 3 1.4298 1.4298 68.8480 0.0000 0.0000 0.0000
# 4 0.0000 0.0000 0.0000 1.1192 0.0000 0.0000
# 5 0.0000 0.0000 0.0000 0.0000 1.1192 0.0000
# 6 0.0000 0.0000 0.0000 0.0000 0.0000 33.4839
#
#
#
# Elastic Compliance Matrix: (Units=1/GPa)
#
#
# Indices 1 2 3 4 5 6 
#
# 1 0.019152 0.004219 -0.000485 0.000000 0.000000 0.000000
# 2 0.004219 0.019152 -0.000485 0.000000 0.000000 0.000000
# 3 -0.000485 -0.000485 0.014545 0.000000 0.000000 0.000000
# 4 0.000000 0.000000 0.000000 0.893482 0.000000 0.000000
# 5 0.000000 0.000000 0.000000 0.000000 0.893482 0.000000
# 6 0.000000 0.000000 0.000000 0.000000 0.000000 0.029865
#
#
# Mechanical properties :
#
#
# Convention : Reuss Voigt Hill
#
# Bulk Modulus (GPa) = 16.85070 17.80707 17.32889
# Shear Modulus (GPa) = 2.65539 19.66873 11.16206
#
# Velocity S-wave (km/s) = 1.10343 3.00310 2.26232
# Velocity P-wave (km/s) = 3.05776 4.49331 3.84316
#
# Compressibility (1/GPa) = 0.05934470
#
# Stress axis : x y z
#
# Youngs Moduli (GPa) = 52.21500 52.21500 68.75256
#
# Poissons Ratio (x) = -0.22030 0.03337
# Poissons Ratio (y) = -0.22030 0.03337
# Poissons Ratio (z) = 0.02534 0.02534
#
# Static dielectric constant tensor:
#      x y z
#    x 1.796290 0.000000 0.000000 
#    y 0.000000 1.796290 0.000000 
#    z 0.000000 0.000000 1.837200 
# 
# From -- ./inp_files/1176.got.cif
#   From: 2010.05.17/outbox.cif.g08.bks.cpg/sg176_1_cif.got.tgz:1176.got - 2010.06.03 11:36:45.
