data_PCOD9581009
_publ_section_title
;
Structure prediction by ZEFSAII (Michael W. Deem and Ramdas Pophale) SiO2 
 PCOD9581009
Probable space group: P 63
;
_chemical_formula_sum "Si O2"
_cell_formula_units_Z 36
_cell_length_a 18.143796
_cell_length_b 18.143796
_cell_length_c 5.547371
_cell_angle_alpha 90.000000
_cell_angle_beta 90.000000
_cell_angle_gamma 120.000000
_cell_volume 1581.518047
_symmetry_space_group_name_H-M "P 63"
_symmetry_group_IT_number 173
_symmetry_cell_setting 'hexagonal'
loop_
_space_group_symop_operation_xyz
x,y,z
x-y,x,1/2+z
-y,x-y,z
-x,-y,1/2+z
-x+y,-x,z
y,-x+y,1/2+z
loop_
_atom_site_type_symbol
_atom_site_label
_atom_site_fract_x
_atom_site_fract_y
_atom_site_fract_z
Si Si1 0.248084 0.825594 0.622350
Si Si2 0.524582 0.152383 0.185499
Si Si3 0.394338 0.778346 0.183578
Si Si4 0.778029 0.070013 0.515610
Si Si5 0.000075 0.634974 0.901050
Si Si6 0.092025 0.782619 0.253887
O O1 0.222894 0.729254 0.681663
O O2 0.166738 0.805988 0.449664
O O3 0.249295 0.869925 0.874133
O O4 0.332565 0.904604 0.500265
O O5 0.582281 0.175784 0.425644
O O6 0.448222 0.056232 0.238152
O O7 0.565981 0.165613 0.921654
O O8 0.292310 0.717381 0.195539
O O9 0.714773 0.020531 0.732972
O O10 0.765292 0.995643 0.347070
O O11 0.871541 0.136651 0.585328
O O12 0.064252 0.694008 0.113237
#
# Coordination Sequence:
#
# PCOD9581009 Si02
#       6
#     6   6   6   6   6   6
#     4  10  21  31  53  92 127 154 203 253 311 376
#     4  12  20  40  70  90 126 170 199 262 331 350
#     4  10  25  44  66  98 114 155 223 262 292 376
#     4  10  18  30  48  76 136 140 218 240 322 350
#     4  10  21  31  53  92 127 154 203 253 311 376
#     4  10  17  32  44  78 124 167 192 268 297 364
#
# _framework density 22.762938999999999
#
# number of rings (size 3 to 8) (size 9 to 14) (size 15 to 20)
#    0.333    1.333    3.333    2.000    4.667    0.000 
#    0.000    0.000    0.000    4.000    0.000    0.000 
#  525.000    0.000    0.000    0.000    0.000    0.000 
#
# Total GULP energy -200673.749992 kJ/mol
# GULP energy per Si atom -5574.270833 kJ/mol
# Density = 2.271113 g / cm^3
# Si number density = 22.762939 Si / 1000 Ang^3
#
#
#
# Elastic Constant Matrix: (Units=GPa)
#
#
# Indices 1 2 3 4 5 6 
#
# 1 48.9320 -10.1308 -0.1118 0.0000 0.0000 0.0000
# 2 -10.1308 48.9320 -0.1118 0.0000 0.0000 0.0000
# 3 -0.1118 -0.1118 82.5447 0.0000 0.0000 0.0000
# 4 0.0000 0.0000 0.0000 14.7685 0.0000 0.0000
# 5 0.0000 0.0000 0.0000 0.0000 14.7685 0.0000
# 6 0.0000 0.0000 0.0000 0.0000 0.0000 29.5314
#
#
#
# Elastic Compliance Matrix: (Units=1/GPa)
#
#
# Indices 1 2 3 4 5 6 
#
# 1 0.021352 0.004421 0.000035 0.000000 0.000000 0.000000
# 2 0.004421 0.021352 0.000035 0.000000 0.000000 0.000000
# 3 0.000035 0.000035 0.012115 0.000000 0.000000 0.000000
# 4 0.000000 0.000000 0.000000 0.067712 0.000000 0.000000
# 5 0.000000 0.000000 0.000000 0.000000 0.067712 0.000000
# 6 0.000000 0.000000 0.000000 0.000000 0.000000 0.033862
#
#
# Mechanical properties :
#
#
# Convention : Reuss Voigt Hill
#
# Bulk Modulus (GPa) = 15.67406 17.74441 16.70924
# Shear Modulus (GPa) = 21.15155 24.53123 22.84139
#
# Velocity S-wave (km/s) = 3.05160 3.28637 3.17116
# Velocity P-wave (km/s) = 4.39512 4.71302 4.55684
#
# Compressibility (1/GPa) = 0.06379966
#
# Stress axis : x y z
#
# Youngs Moduli (GPa) = 46.83427 46.83428 82.54401
#
# Poissons Ratio (x) = -0.20704 -0.00288
# Poissons Ratio (y) = -0.20704 -0.00288
# Poissons Ratio (z) = -0.00164 -0.00164
#
# Static dielectric constant tensor:
#      x y z
#    x 1.836770 0.000000 0.000000 
#    y 0.000000 1.836770 0.000000 
#    z 0.000000 0.000000 1.959880 
# 
# From -- ./inp_files/153.got.cif
#   From: 2010.05.17/outbox.cif.g08.bks.cpg/sg173_cif.got.tgz:153.got - 2010.05.20 11:21:53.
