data_PCOD9581320
_publ_section_title
;
Structure prediction by ZEFSAII (Michael W. Deem and Ramdas Pophale) SiO2 
 PCOD9581320
Probable space group: P 6/M
;
_chemical_formula_sum "Si O2"
_cell_formula_units_Z 96
_cell_length_a 22.753491
_cell_length_b 22.753491
_cell_length_c 12.628623
_cell_angle_alpha 90.000000
_cell_angle_beta 90.000000
_cell_angle_gamma 120.000000
_cell_volume 5662.167432
_symmetry_space_group_name_H-M "P 6/M"
_symmetry_group_IT_number 175
_symmetry_cell_setting 'hexagonal'
loop_
_space_group_symop_operation_xyz
x,y,z
x-y,x,z
-y,x-y,z
-x,-y,z
-x+y,-x,z
y,-x+y,z
-x,-y,-z
-x+y,-x,-z
y,-x+y,-z
x,y,-z
x-y,x,-z
-y,x-y,-z
loop_
_atom_site_type_symbol
_atom_site_label
_atom_site_fract_x
_atom_site_fract_y
_atom_site_fract_z
Si Si1 0.989190 0.343712 0.204076
Si Si2 0.580416 0.546753 0.385955
Si Si3 0.476533 0.681521 0.622259
Si Si4 0.595574 0.736813 0.786816
Si Si5 0.651399 0.461320 0.673854
Si Si6 0.264918 0.028766 0.618893
Si Si7 0.881280 0.708728 0.618019
Si Si8 0.288787 0.449932 0.120635
O O1 0.992115 0.401144 0.280967
O O2 0.975149 0.285470 0.289191
O O3 0.919312 0.312906 0.136804
O O4 0.066259 0.374124 0.159590
O O5 0.500000 0.500000 0.386110
O O6 0.598418 0.583572 0.500000
O O7 0.620462 0.504897 0.378085
O O8 0.491387 0.671252 0.500000
O O9 0.531809 0.690274 0.710124
O O10 0.405282 0.616860 0.657087
O O11 0.473472 0.751081 0.626904
O O12 0.652682 0.786754 0.704682
O O13 0.577800 0.786315 0.855060
O O14 0.669802 0.490553 0.793753
O O15 0.293705 0.034210 0.500000
O O16 0.258733 0.093925 0.634922
O O17 0.195260 0.959370 0.622226
O O18 0.866901 0.677015 0.500000
O O19 0.302906 0.473605 0.000000
#
# Coordination Sequence:
#
# PCOD9581320 Si02
#       8
#    12  12  12  12  12  12  12  12
#     4  10  19  32  51  74 100 129 164 206 253 302
#     4  10  19  31  49  75 108 139 163 193 244 306
#     4  11  20  33  54  79 108 135 162 198 248 308
#     4  10  20  33  52  79 104 129 166 210 253 304
#     4  10  22  36  52  78 105 136 172 213 251 298
#     4   9  16  26  44  70 104 138 169 200 245 303
#     4   9  16  27  44  72 106 140 168 200 248 304
#     4  10  22  40  56  72  98 133 172 217 260 299
#
# _framework density 16.954639
#
# number of rings (size 3 to 8) (size 9 to 14) (size 15 to 20)
#    0.000    2.125    1.250    2.875    0.000    3.000 
#    0.000    2.500    0.000   13.000    0.000    1.750 
#    0.000    0.000    0.000    0.000    0.000   11.375 
#
# Total GULP energy -534479.985184 kJ/mol
# GULP energy per Si atom -5567.499846 kJ/mol
# Density = 1.691605 g / cm^3
# Si number density = 16.954639 Si / 1000 Ang^3
#
#
#
# Elastic Constant Matrix: (Units=GPa)
#
#
# Indices 1 2 3 4 5 6 
#
# 1 59.7020 21.8080 12.4874 0.0000 0.0000 0.0000
# 2 21.8080 59.7020 12.4874 0.0000 0.0000 0.0000
# 3 12.4874 12.4874 75.4436 0.0000 0.0000 0.0000
# 4 0.0000 0.0000 0.0000 9.6284 0.0000 0.0000
# 5 0.0000 0.0000 0.0000 0.0000 9.6284 0.0000
# 6 0.0000 0.0000 0.0000 0.0000 0.0000 18.9470
#
#
#
# Elastic Compliance Matrix: (Units=1/GPa)
#
#
# Indices 1 2 3 4 5 6 
#
# 1 0.019657 -0.006733 -0.002139 0.000000 0.000000 0.000000
# 2 -0.006733 0.019657 -0.002139 0.000000 0.000000 0.000000
# 3 -0.002139 -0.002139 0.013963 0.000000 0.000000 0.000000
# 4 0.000000 0.000000 0.000000 0.103860 0.000000 0.000000
# 5 0.000000 0.000000 0.000000 0.000000 0.103860 0.000000
# 6 0.000000 0.000000 0.000000 0.000000 0.000000 0.052779
#
#
# Mechanical properties :
#
#
# Convention : Reuss Voigt Hill
#
# Bulk Modulus (GPa) = 31.99569 32.04591 32.02080
# Shear Modulus (GPa) = 14.44191 17.51175 15.97683
#
# Velocity S-wave (km/s) = 2.92172 3.21730 3.07307
# Velocity P-wave (km/s) = 5.50402 5.72218 5.61416
#
# Compressibility (1/GPa) = 0.03125421
#
# Stress axis : x y z
#
# Youngs Moduli (GPa) = 50.87347 50.87347 71.61747
#
# Poissons Ratio (x) = 0.34252 0.15320
# Poissons Ratio (y) = 0.34252 0.15320
# Poissons Ratio (z) = 0.10883 0.10883
#
# Static dielectric constant tensor:
#      x y z
#    x 1.590590 0.000000 0.000000 
#    y 0.000000 1.590590 0.000000 
#    z 0.000000 0.000000 1.565840 
# 
# From -- ./inp_files/2175.got.cif
#   From: 2010.05.17/outbox.cif.g08.bks.cpg/sg175_2_cif.got.tgz:2175.got - 2010.05.20 11:23:22.
