data_PCOD9581367
_publ_section_title
;
Structure prediction by ZEFSAII (Michael W. Deem and Ramdas Pophale) SiO2 
 PCOD9581367
Probable space group: P 6/M
;
_chemical_formula_sum "Si O2"
_cell_formula_units_Z 72
_cell_length_a 15.119606
_cell_length_b 15.119606
_cell_length_c 19.943545
_cell_angle_alpha 90.000000
_cell_angle_beta 90.000000
_cell_angle_gamma 120.000000
_cell_volume 3948.334488
_symmetry_space_group_name_H-M "P 6/M"
_symmetry_group_IT_number 175
_symmetry_cell_setting 'hexagonal'
loop_
_space_group_symop_operation_xyz
x,y,z
x-y,x,z
-y,x-y,z
-x,-y,z
-x+y,-x,z
y,-x+y,z
-x,-y,-z
-x+y,-x,-z
y,-x+y,-z
x,y,-z
x-y,x,-z
-y,x-y,-z
loop_
_atom_site_type_symbol
_atom_site_label
_atom_site_fract_x
_atom_site_fract_y
_atom_site_fract_z
Si Si1 0.191908 0.448337 0.923237
Si Si2 0.765637 0.865182 0.848519
Si Si3 0.582771 0.478922 0.112068
Si Si4 0.808807 0.156574 0.714400
Si Si5 0.241582 0.145752 0.425780
Si Si6 0.415860 0.025818 0.256823
O O1 0.138575 0.340726 0.886100
O O2 0.311402 0.486289 0.923348
O O3 0.169672 0.526411 0.881908
O O4 0.157347 0.442020 0.000000
O O5 0.835752 0.818436 0.866919
O O6 0.742992 0.862547 0.768899
O O7 0.500000 0.500000 0.076874
O O8 0.607263 0.543814 0.180954
O O9 0.811930 0.126155 0.638015
O O10 0.879042 0.281334 0.717192
O O11 0.690411 0.082263 0.737265
O O12 0.160456 0.184105 0.421594
O O13 0.290911 0.175589 0.500000
O O14 0.500000 0.000000 0.287243
#
# Coordination Sequence:
#
# PCOD9581367 Si02
#       6
#    12  12  12  12  12  12
#     4  12  25  42  63  87 119 159 203 265 338 398
#     4  12  23  39  60  88 120 163 206 258 313 388
#     4  11  24  42  63  89 119 155 208 265 332 401
#     4  12  20  41  65  91 132 165 220 271 324 395
#     4  10  19  32  58  97 140 177 210 260 322 386
#     4  11  24  40  65  97 127 171 217 275 333 395
#
# _framework density 18.235538999999999
#
# number of rings (size 3 to 8) (size 9 to 14) (size 15 to 20)
#    0.000    0.667    5.000    4.167    0.000    4.000 
#    1.000    1.667    0.000    3.000    0.000    0.000 
#    0.000    0.000    0.000    0.000    0.000    0.000 
#
# Total GULP energy -401294.781962 kJ/mol
# GULP energy per Si atom -5573.538638 kJ/mol
# Density = 1.819403 g / cm^3
# Si number density = 18.235539 Si / 1000 Ang^3
#
#
#
# Elastic Constant Matrix: (Units=GPa)
#
#
# Indices 1 2 3 4 5 6 
#
# 1 112.8700 50.5297 39.0077 0.0000 0.0000 0.0000
# 2 50.5297 112.8700 39.0077 0.0000 0.0000 0.0000
# 3 39.0077 39.0077 122.5433 0.0000 0.0000 0.0000
# 4 0.0000 0.0000 0.0000 -35.7532 0.0000 0.0000
# 5 0.0000 0.0000 0.0000 0.0000 -35.7532 0.0000
# 6 0.0000 0.0000 0.0000 0.0000 0.0000 31.1701
#
#
#
# Elastic Compliance Matrix: (Units=1/GPa)
#
#
# Indices 1 2 3 4 5 6 
#
# 1 0.011629 -0.004412 -0.002297 0.000000 0.000000 0.000000
# 2 -0.004412 0.011629 -0.002297 0.000000 0.000000 0.000000
# 3 -0.002297 -0.002297 0.009623 0.000000 0.000000 0.000000
# 4 0.000000 0.000000 0.000000 -0.027970 0.000000 0.000000
# 5 0.000000 0.000000 0.000000 0.000000 -0.027970 0.000000
# 6 0.000000 0.000000 0.000000 0.000000 0.000000 0.032082
#
#
# Mechanical properties :
#
#
# Convention : Reuss Voigt Hill
#
# Bulk Modulus (GPa) = 67.26069 67.26370 67.26219
# Shear Modulus (GPa) = 156.28640 6.58196 81.43418
#
# Velocity S-wave (km/s) = 9.26770 1.90191 6.68983
# Velocity P-wave (km/s) = 12.30792 6.46445 9.83041
#
# Compressibility (1/GPa) = 0.01486753
#
# Stress axis : x y z
#
# Youngs Moduli (GPa) = 85.99274 85.99274 103.91901
#
# Poissons Ratio (x) = 0.37941 0.23873
# Poissons Ratio (y) = 0.37941 0.23873
# Poissons Ratio (z) = 0.19754 0.19754
#
# Static dielectric constant tensor:
#      x y z
#    x 1.654030 0.000000 0.000000 
#    y 0.000000 1.654030 0.000000 
#    z 0.000000 0.000000 1.632770 
# 
# From -- ./inp_files/2866.got.cif
#   From: 2010.05.17/outbox.cif.g08.bks.cpg/sg175_2_cif.got.tgz:2866.got - 2010.05.20 11:23:22.
