data_PCOD9581964
_publ_section_title
;
Structure prediction by ZEFSAII (Michael W. Deem and Ramdas Pophale) SiO2 
 PCOD9581964
Probable space group: P 63/M
;
_chemical_formula_sum "Si O2"
_cell_formula_units_Z 36
_cell_length_a 11.219224
_cell_length_b 11.219224
_cell_length_c 14.513745
_cell_angle_alpha 90.000000
_cell_angle_beta 90.000000
_cell_angle_gamma 120.000000
_cell_volume 1582.106659
_symmetry_space_group_name_H-M "P 63/M"
_symmetry_group_IT_number 176
_symmetry_cell_setting 'hexagonal'
loop_
_space_group_symop_operation_xyz
x,y,z
x-y,x,1/2+z
-y,x-y,z
-x,-y,1/2+z
-x+y,-x,z
y,-x+y,1/2+z
-x,-y,-z
-x+y,-x,1/2-z
y,-x+y,-z
x,y,1/2-z
x-y,x,-z
-y,x-y,1/2-z
loop_
_atom_site_type_symbol
_atom_site_label
_atom_site_fract_x
_atom_site_fract_y
_atom_site_fract_z
Si Si1 0.022519 0.757370 0.951440
Si Si2 0.472106 0.839510 0.049578
Si Si3 0.154095 0.994437 0.250000
Si Si4 0.837076 0.362674 0.750000
O O1 0.994448 0.767898 0.844458
O O2 0.065464 0.642623 0.972717
O O3 0.899932 0.746209 0.014431
O O4 0.308392 0.777640 0.044595
O O5 0.528204 0.902094 0.151026
O O6 0.130915 0.126836 0.250000
O O7 0.780424 0.470789 0.750000
#
# Coordination Sequence:
#
# PCOD9581964 Si02
#       4
#    12  12   6   6
#     4  12  22  37  62  87 115 153 201 253 298 346
#     4   8  18  36  56  88 124 160 195 238 293 354
#     4  10  20  40  59  82 120 145 208 240 308 366
#     4   6  10  28  57  80 110 155 196 230 266 326
#
# _framework density 22.754470999999999
#
# number of rings (size 3 to 8) (size 9 to 14) (size 15 to 20)
#    1.333    1.333    3.333    0.333    0.000    4.000 
#    0.000    1.667    0.000    0.000    0.000    0.000 
#    0.000    0.000    0.000    0.000    0.000    0.000 
#
# Total GULP energy -200715.249041 kJ/mol
# GULP energy per Si atom -5575.423584 kJ/mol
# Density = 2.270268 g / cm^3
# Si number density = 22.754471 Si / 1000 Ang^3
#
#
#
# Elastic Constant Matrix: (Units=GPa)
#
#
# Indices 1 2 3 4 5 6 
#
# 1 63.0228 -6.1540 24.8946 0.0000 0.0000 0.0000
# 2 -6.1540 63.0228 24.8946 0.0000 0.0000 0.0000
# 3 24.8946 24.8946 160.5376 0.0000 0.0000 0.0000
# 4 0.0000 0.0000 0.0000 34.2124 0.0000 0.0000
# 5 0.0000 0.0000 0.0000 0.0000 34.2124 0.0000
# 6 0.0000 0.0000 0.0000 0.0000 0.0000 34.5884
#
#
#
# Elastic Compliance Matrix: (Units=1/GPa)
#
#
# Indices 1 2 3 4 5 6 
#
# 1 0.017401 0.002946 -0.003155 0.000000 0.000000 0.000000
# 2 0.002946 0.017401 -0.003155 0.000000 0.000000 0.000000
# 3 -0.003155 -0.003155 0.007208 0.000000 0.000000 0.000000
# 4 0.000000 0.000000 0.000000 0.029229 0.000000 0.000000
# 5 0.000000 0.000000 0.000000 0.000000 0.029229 0.000000
# 6 0.000000 0.000000 0.000000 0.000000 0.000000 0.028911
#
#
# Mechanical properties :
#
#
# Convention : Reuss Voigt Hill
#
# Bulk Modulus (GPa) = 28.34437 41.53928 34.94182
# Shear Modulus (GPa) = 33.81359 36.79919 35.30639
#
# Velocity S-wave (km/s) = 3.85907 4.02584 3.94334
# Velocity P-wave (km/s) = 5.68685 6.31704 6.01021
#
# Compressibility (1/GPa) = 0.03528038
#
# Stress axis : x y z
#
# Youngs Moduli (GPa) = 57.46727 57.46727 138.74215
#
# Poissons Ratio (x) = -0.16927 0.43775
# Poissons Ratio (y) = -0.16927 0.43775
# Poissons Ratio (z) = 0.18132 0.18132
#
# Static dielectric constant tensor:
#      x y z
#    x 1.961870 0.000000 0.000000 
#    y 0.000000 1.961870 0.000000 
#    z 0.000000 0.000000 1.776130 
# 
# From -- ./inp_files/2388.got.cif
#   From: 2010.05.17/outbox.cif.g08.bks.cpg/sg176_2_cif.got.tgz:2388.got - 2010.06.03 11:36:45.
