data_PCOD9581031
_publ_section_title
;
Structure prediction by ZEFSAII (Michael W. Deem and Ramdas Pophale) SiO2 
 PCOD9581031
Probable space group: P 63
;
_chemical_formula_sum "Si O2"
_cell_formula_units_Z 48
_cell_length_a 17.500395
_cell_length_b 17.500395
_cell_length_c 9.048798
_cell_angle_alpha 90.000000
_cell_angle_beta 90.000000
_cell_angle_gamma 120.000000
_cell_volume 2400.033079
_symmetry_space_group_name_H-M "P 63"
_symmetry_group_IT_number 173
_symmetry_cell_setting 'hexagonal'
loop_
_space_group_symop_operation_xyz
x,y,z
x-y,x,1/2+z
-y,x-y,z
-x,-y,1/2+z
-x+y,-x,z
y,-x+y,1/2+z
loop_
_atom_site_type_symbol
_atom_site_label
_atom_site_fract_x
_atom_site_fract_y
_atom_site_fract_z
Si Si1 0.852345 0.019030 0.622180
Si Si2 0.328695 0.993275 0.117659
Si Si3 0.393124 0.458387 0.371873
Si Si4 0.843679 0.359269 0.574081
Si Si5 0.845806 0.018596 0.267845
Si Si6 0.709420 0.088846 0.203629
Si Si7 0.519266 0.696896 0.962172
Si Si8 0.392838 0.979001 0.433346
O O1 0.752291 0.993618 0.656153
O O2 0.860264 0.021966 0.444309
O O3 0.921217 0.110967 0.699983
O O4 0.862091 0.939675 0.688781
O O5 0.289842 0.898351 0.037982
O O6 0.374610 0.985330 0.263443
O O7 0.398087 0.066815 0.004852
O O8 0.366541 0.507749 0.250615
O O9 0.403060 0.385828 0.274605
O O10 0.484717 0.530720 0.443425
O O11 0.846970 0.444205 0.498777
O O12 0.755647 0.272053 0.532996
O O13 0.924634 0.353486 0.502440
O O14 0.779703 0.056578 0.234293
O O15 0.725971 0.175181 0.293370
O O16 0.691209 0.087824 0.030028
#
# Coordination Sequence:
#
# PCOD9581031 Si02
#       8
#     6   6   6   6   6   6   6   6
#     4  12  28  46  71  95 136 175 225 271 338 402
#     4  11  23  39  67 101 131 163 234 273 326 394
#     4  10  19  42  63  96 125 172 215 276 324 392
#     4  11  23  38  70  88 136 177 219 269 344 395
#     4  12  27  49  68  98 134 179 219 275 336 405
#     4  10  23  40  65  97 136 161 228 273 327 394
#     4  11  22  43  59  99 131 177 221 275 327 416
#     4  11  21  39  69  96 127 180 213 278 334 380
#
# _framework density 19.999722999999999
#
# number of rings (size 3 to 8) (size 9 to 14) (size 15 to 20)
#    0.000    1.000    6.250    2.000    8.750    0.000 
#    0.000    0.000    0.000    0.000    0.000    0.000 
#    0.000    0.000    0.000    0.000    0.000    0.000 
#
# Total GULP energy -267826.367052 kJ/mol
# GULP energy per Si atom -5579.715980 kJ/mol
# Density = 1.995420 g / cm^3
# Si number density = 19.999723 Si / 1000 Ang^3
#
#
#
# Elastic Constant Matrix: (Units=GPa)
#
#
# Indices 1 2 3 4 5 6 
#
# 1 64.2400 17.5938 18.4222 0.0000 0.0000 0.0000
# 2 17.5938 64.2400 18.4222 0.0000 0.0000 0.0000
# 3 18.4222 18.4222 61.1138 0.0000 0.0000 0.0000
# 4 0.0000 0.0000 0.0000 23.3417 0.0000 0.0000
# 5 0.0000 0.0000 0.0000 0.0000 23.3417 0.0000
# 6 0.0000 0.0000 0.0000 0.0000 0.0000 23.3231
#
#
#
# Elastic Compliance Matrix: (Units=1/GPa)
#
#
# Indices 1 2 3 4 5 6 
#
# 1 0.017788 -0.003650 -0.004262 0.000000 0.000000 0.000000
# 2 -0.003650 0.017788 -0.004262 0.000000 0.000000 0.000000
# 3 -0.004262 -0.004262 0.018932 0.000000 0.000000 0.000000
# 4 0.000000 0.000000 0.000000 0.042842 0.000000 0.000000
# 5 0.000000 0.000000 0.000000 0.000000 0.042842 0.000000
# 6 0.000000 0.000000 0.000000 0.000000 0.000000 0.042876
#
#
# Mechanical properties :
#
#
# Convention : Reuss Voigt Hill
#
# Bulk Modulus (GPa) = 33.15436 33.16336 33.15886
# Shear Modulus (GPa) = 22.99168 23.01166 23.00167
#
# Velocity S-wave (km/s) = 3.39425 3.39573 3.39499
# Velocity P-wave (km/s) = 5.65462 5.65619 5.65540
#
# Compressibility (1/GPa) = 0.03016194
#
# Stress axis : x y z
#
# Youngs Moduli (GPa) = 56.21644 56.21644 52.81945
#
# Poissons Ratio (x) = 0.20517 0.22512
# Poissons Ratio (y) = 0.20517 0.22512
# Poissons Ratio (z) = 0.23960 0.23960
#
# Static dielectric constant tensor:
#      x y z
#    x 1.720340 0.000000 0.000000 
#    y 0.000000 1.720340 0.000000 
#    z 0.000000 0.000000 1.764150 
# 
# From -- ./inp_files/677.got.cif
#   From: 2010.05.17/outbox.cif.g08.bks.cpg/sg173_cif.got.tgz:677.got - 2010.05.20 11:21:53.
