data_PCOD9581113
_publ_section_title
;
Structure prediction by ZEFSAII (Michael W. Deem and Ramdas Pophale) SiO2 
 PCOD9581113
Probable space group: P 63
;
_chemical_formula_sum "Si O2"
_cell_formula_units_Z 34
_cell_length_a 10.189789
_cell_length_b 10.189789
_cell_length_c 14.882114
_cell_angle_alpha 90.000000
_cell_angle_beta 90.000000
_cell_angle_gamma 120.000000
_cell_volume 1338.214222
_symmetry_space_group_name_H-M "P 63"
_symmetry_group_IT_number 173
_symmetry_cell_setting 'hexagonal'
loop_
_space_group_symop_operation_xyz
x,y,z
x-y,x,1/2+z
-y,x-y,z
-x,-y,1/2+z
-x+y,-x,z
y,-x+y,1/2+z
loop_
_atom_site_type_symbol
_atom_site_label
_atom_site_fract_x
_atom_site_fract_y
_atom_site_fract_z
Si Si1 0.251624 0.235702 0.790160
Si Si2 0.226702 0.315608 0.590061
Si Si3 0.018046 0.536957 0.286944
Si Si4 0.562728 0.978695 0.094742
Si Si5 0.770380 0.029118 0.402604
Si Si6 0.666668 0.333335 0.506436
Si Si7 0.666668 0.333335 0.294210
O O1 0.200878 0.238798 0.688329
O O2 0.432615 0.340550 0.793812
O O3 0.191635 0.317186 0.858968
O O4 0.197656 0.077250 0.837218
O O5 0.401279 0.453120 0.590003
O O6 0.104287 0.369360 0.572358
O O7 0.216490 0.210807 0.506117
O O8 0.073462 0.637496 0.197831
O O9 0.022588 0.619984 0.378315
O O10 0.839599 0.428217 0.263318
O O11 0.477546 0.822364 0.040085
O O12 0.666668 0.333334 0.400639
#
# Coordination Sequence:
#
# PCOD9581113 Si02
#       7
#     6   6   6   6   6   2   2
#     4  11  27  48  70 110 155 198 252 314 393 462
#     4  11  26  47  79 110 158 210 264 319 394 478
#     4  11  23  45  75 101 150 195 253 306 390 460
#     4  11  25  49  72 118 156 208 259 333 391 474
#     4  12  26  46  75 110 146 204 255 319 376 469
#     4  12  30  42  81 126 163 191 277 336 402 453
#     4  12  21  45  78 105 142 212 250 303 384 504
#
# _framework density 25.406991000000001
#
# number of rings (size 3 to 8) (size 9 to 14) (size 15 to 20)
#    0.000    0.706    3.529    2.824    9.882    1.412 
#    1.059    0.000    0.000    0.706    0.000    0.000 
#    0.000    0.000    0.000    0.000    0.000    0.000 
#
# Total GULP energy -190462.942045 kJ/mol
# GULP energy per Si atom -5601.851237 kJ/mol
# Density = 2.534916 g / cm^3
# Si number density = 25.406991 Si / 1000 Ang^3
#
#
#
# Elastic Constant Matrix: (Units=GPa)
#
#
# Indices 1 2 3 4 5 6 
#
# 1 82.4595 23.9396 30.1379 0.0000 0.0000 -0.0002
# 2 23.9396 82.4589 30.1382 0.0000 0.0000 -0.0006
# 3 30.1379 30.1382 203.8932 0.0000 0.0000 -0.0001
# 4 0.0000 0.0000 0.0000 33.0218 -0.0001 0.0000
# 5 0.0000 0.0000 0.0000 -0.0001 33.0219 0.0000
# 6 -0.0002 -0.0006 -0.0001 0.0000 0.0000 29.2601
#
#
#
# Elastic Compliance Matrix: (Units=1/GPa)
#
#
# Indices 1 2 3 4 5 6 
#
# 1 0.013673 -0.003415 -0.001516 0.000000 0.000000 0.000000
# 2 -0.003415 0.013673 -0.001516 0.000000 0.000000 0.000000
# 3 -0.001516 -0.001516 0.005353 0.000000 0.000000 0.000000
# 4 0.000000 0.000000 0.000000 0.030283 0.000000 0.000000
# 5 0.000000 0.000000 0.000000 0.000000 0.030283 0.000000
# 6 0.000000 0.000000 0.000000 0.000000 0.000000 0.034176
#
#
# Mechanical properties :
#
#
# Convention : Reuss Voigt Hill
#
# Bulk Modulus (GPa) = 50.49723 59.69364 55.09544
# Shear Modulus (GPa) = 34.02810 38.03382 36.03096
#
# Velocity S-wave (km/s) = 3.66364 3.87328 3.76992
# Velocity P-wave (km/s) = 6.14938 6.59917 6.37824
#
# Compressibility (1/GPa) = 0.01980307
#
# Stress axis : x y z
#
# Youngs Moduli (GPa) = 73.13760 73.13694 186.81964
#
# Poissons Ratio (x) = 0.24979 0.28325
# Poissons Ratio (y) = 0.24979 0.28326
# Poissons Ratio (z) = 0.11089 0.11089
#
# Static dielectric constant tensor:
#      x y z
#    x 2.051770 0.000000 0.000000 
#    y 0.000000 2.051770 0.000000 
#    z 0.000000 0.000000 1.956120 
# 
# From -- ./inp_files/1096.got.cif
#   From: 2010.05.17/outbox.cif.g08.bks.cpg/sg173_cif.got.tgz:1096.got - 2010.05.20 11:21:53.
