data_PCOD9581542
_publ_section_title
;
Structure prediction by ZEFSAII (Michael W. Deem and Ramdas Pophale) SiO2 
 PCOD9581542
Probable space group: P 6/M
;
_chemical_formula_sum "Si O2"
_cell_formula_units_Z 66
_cell_length_a 18.697102
_cell_length_b 18.697102
_cell_length_c 10.849612
_cell_angle_alpha 90.000000
_cell_angle_beta 90.000000
_cell_angle_gamma 120.000000
_cell_volume 3284.682780
_symmetry_space_group_name_H-M "P 6/M"
_symmetry_group_IT_number 175
_symmetry_cell_setting 'hexagonal'
loop_
_space_group_symop_operation_xyz
x,y,z
x-y,x,z
-y,x-y,z
-x,-y,z
-x+y,-x,z
y,-x+y,z
-x,-y,-z
-x+y,-x,-z
y,-x+y,-z
x,y,-z
x-y,x,-z
-y,x-y,-z
loop_
_atom_site_type_symbol
_atom_site_label
_atom_site_fract_x
_atom_site_fract_y
_atom_site_fract_z
Si Si1 0.551238 0.099395 0.132554
Si Si2 0.446524 0.072622 0.635591
Si Si3 0.862353 0.179838 0.359155
Si Si4 0.130559 0.193000 0.862767
Si Si5 0.571189 0.330986 0.500000
Si Si6 0.557518 0.676687 0.697260
O O1 0.509727 0.114390 0.251965
O O2 0.644918 0.126479 0.168255
O O3 0.500000 0.000000 0.123325
O O4 0.544909 0.133149 0.000000
O O5 0.484947 0.083515 0.500000
O O6 0.385363 0.109087 0.635851
O O7 0.390817 0.973593 0.655545
O O8 0.869899 0.154980 0.500000
O O9 0.915270 0.167824 0.254100
O O10 0.766684 0.130457 0.318000
O O11 0.154254 0.121926 0.856526
O O12 0.157821 0.233029 0.000000
O O13 0.591685 0.256276 0.500000
O O14 0.514468 0.325040 0.614300
#
# Coordination Sequence:
#
# PCOD9581542 Si02
#       6
#    12  12  12  12   6  12
#     4   9  21  37  57  83 114 152 197 244 296 358
#     4  10  21  35  61  90 117 156 200 250 305 368
#     4  11  23  37  61  94 126 156 204 259 319 372
#     4  10  22  41  64  90 124 169 214 255 305 374
#     4  10  24  36  61  89 119 154 207 250 295 358
#     4  11  21  38  60  83 122 156 199 249 311 359
#
# _framework density 20.093264000000001
#
# number of rings (size 3 to 8) (size 9 to 14) (size 15 to 20)
#    0.182    1.636    1.818    1.273    3.818    5.455 
#    0.000    3.636    0.000    1.091    0.000    0.000 
#    0.000    0.000    0.000    0.000    0.000    0.000 
#
# Total GULP energy -368224.286420 kJ/mol
# GULP energy per Si atom -5579.155855 kJ/mol
# Density = 2.004753 g / cm^3
# Si number density = 20.093264 Si / 1000 Ang^3
#
#
#
# Elastic Constant Matrix: (Units=GPa)
#
#
# Indices 1 2 3 4 5 6 
#
# 1 52.0057 -14.3896 24.6638 0.0000 0.0000 0.0000
# 2 -14.3896 52.0057 24.6638 0.0000 0.0000 0.0000
# 3 24.6638 24.6638 166.3795 0.0000 0.0000 0.0000
# 4 0.0000 0.0000 0.0000 17.3992 0.0000 0.0000
# 5 0.0000 0.0000 0.0000 0.0000 17.3992 0.0000
# 6 0.0000 0.0000 0.0000 0.0000 0.0000 33.1976
#
#
#
# Elastic Compliance Matrix: (Units=1/GPa)
#
#
# Indices 1 2 3 4 5 6 
#
# 1 0.024030 0.008969 -0.004892 0.000000 0.000000 0.000000
# 2 0.008969 0.024030 -0.004892 0.000000 0.000000 0.000000
# 3 -0.004892 -0.004892 0.007461 0.000000 0.000000 0.000000
# 4 0.000000 0.000000 0.000000 0.057474 0.000000 0.000000
# 5 0.000000 0.000000 0.000000 0.000000 0.057474 0.000000
# 6 0.000000 0.000000 0.000000 0.000000 0.000000 0.030123
#
#
# Mechanical properties :
#
#
# Convention : Reuss Voigt Hill
#
# Bulk Modulus (GPa) = 18.55565 37.80742 28.18153
# Shear Modulus (GPa) = 22.70821 29.29605 26.00213
#
# Velocity S-wave (km/s) = 3.36540 3.82252 3.60122
# Velocity P-wave (km/s) = 4.93519 6.19185 5.59889
#
# Compressibility (1/GPa) = 0.05389195
#
# Stress axis : x y z
#
# Youngs Moduli (GPa) = 41.61427 41.61427 134.03678
#
# Poissons Ratio (x) = -0.37323 0.65567
# Poissons Ratio (y) = -0.37323 0.65567
# Poissons Ratio (z) = 0.20357 0.20357
#
# Static dielectric constant tensor:
#      x y z
#    x 1.720990 0.000000 0.000000 
#    y 0.000000 1.720990 0.000000 
#    z 0.000000 0.000000 1.758340 
# 
# From -- ./inp_files/989.got.cif
#   From: 2010.05.17/outbox.cif.g08.bks.cpg/sg175_1_cif.got.tgz:989.got - 2010.05.20 11:23:22.
