data_PCOD9581290
_publ_section_title
;
Structure prediction by ZEFSAII (Michael W. Deem and Ramdas Pophale) SiO2 
 PCOD9581290
Probable space group: P 6/M
;
_chemical_formula_sum "Si O2"
_cell_formula_units_Z 72
_cell_length_a 16.746687
_cell_length_b 16.746687
_cell_length_c 21.866265
_cell_angle_alpha 90.000000
_cell_angle_beta 90.000000
_cell_angle_gamma 120.000000
_cell_volume 5310.837894
_symmetry_space_group_name_H-M "P 6/M"
_symmetry_group_IT_number 175
_symmetry_cell_setting 'hexagonal'
loop_
_space_group_symop_operation_xyz
x,y,z
x-y,x,z
-y,x-y,z
-x,-y,z
-x+y,-x,z
y,-x+y,z
-x,-y,-z
-x+y,-x,-z
y,-x+y,-z
x,y,-z
x-y,x,-z
-y,x-y,-z
loop_
_atom_site_type_symbol
_atom_site_label
_atom_site_fract_x
_atom_site_fract_y
_atom_site_fract_z
Si Si1 0.021279 0.820684 0.631638
Si Si2 0.970373 0.174633 0.000000
Si Si3 0.166007 0.464982 0.072098
Si Si4 0.978774 0.180308 0.766316
Si Si5 0.798394 0.978611 0.500000
Si Si6 0.368642 0.500154 0.072102
Si Si7 0.297586 0.302314 0.882774
O O1 0.925247 0.820301 0.631470
O O2 0.025727 0.782803 0.698335
O O3 0.026286 0.778535 0.566000
O O4 0.069625 0.181270 0.000000
O O5 0.964826 0.227081 0.939859
O O6 0.274085 0.502452 0.079049
O O7 0.142077 0.544124 0.088157
O O8 0.103147 0.372084 0.109180
O O9 0.143641 0.442076 0.000000
O O10 0.075831 0.181694 0.771618
O O11 0.974784 0.242035 0.820391
O O12 0.894247 0.075322 0.500000
O O13 0.354602 0.412448 0.109507
O O14 0.377839 0.483546 0.000000
#
# Coordination Sequence:
#
# PCOD9581290 Si02
#       7
#    12   6  12  12   6  12  12
#     4   8  13  20  31  47  67  92 124 159 195 228
#     4  12  23  34  43  54  72 100 136 172 201 226
#     4  10  19  32  48  65  80  96 120 156 201 246
#     4  10  19  29  39  52  73 104 138 170 199 231
#     4   8  11  16  28  46  66  88 117 156 194 228
#     4  10  19  32  48  65  80  96 120 156 201 246
#     4  12  21  31  45  58  78 102 131 163 196 231
#
# _framework density 13.557183
#
# number of rings (size 3 to 8) (size 9 to 14) (size 15 to 20)
#    0.000    2.000    1.667    4.333    0.000    5.333 
#    0.000    1.667    0.000    0.000    0.000    0.000 
#    0.000    0.000    0.000    3.000    0.000    6.333 
#
# Total GULP energy -401165.982364 kJ/mol
# GULP energy per Si atom -5571.749755 kJ/mol
# Density = 1.352633 g / cm^3
# Si number density = 13.557183 Si / 1000 Ang^3
#
#
#
# Elastic Constant Matrix: (Units=GPa)
#
#
# Indices 1 2 3 4 5 6 
#
# 1 38.3866 0.4523 18.1518 0.0000 0.0000 0.0000
# 2 0.4523 38.3866 18.1518 0.0000 0.0000 0.0000
# 3 18.1518 18.1518 110.5333 0.0000 0.0000 0.0000
# 4 0.0000 0.0000 0.0000 7.6802 0.0000 0.0000
# 5 0.0000 0.0000 0.0000 0.0000 7.6802 0.0000
# 6 0.0000 0.0000 0.0000 0.0000 0.0000 18.9671
#
#
#
# Elastic Compliance Matrix: (Units=1/GPa)
#
#
# Indices 1 2 3 4 5 6 
#
# 1 0.028389 0.002027 -0.004995 0.000000 0.000000 0.000000
# 2 0.002027 0.028389 -0.004995 0.000000 0.000000 0.000000
# 3 -0.004995 -0.004995 0.010688 0.000000 0.000000 0.000000
# 4 0.000000 0.000000 0.000000 0.130206 0.000000 0.000000
# 5 0.000000 0.000000 0.000000 0.000000 0.130206 0.000000
# 6 0.000000 0.000000 0.000000 0.000000 0.000000 0.052723
#
#
# Mechanical properties :
#
#
# Convention : Reuss Voigt Hill
#
# Bulk Modulus (GPa) = 19.40228 28.97978 24.19103
# Shear Modulus (GPa) = 12.08592 16.90219 14.49405
#
# Velocity S-wave (km/s) = 2.98900 3.53474 3.27326
# Velocity P-wave (km/s) = 5.12393 6.17103 5.67169
#
# Compressibility (1/GPa) = 0.05154034
#
# Stress axis : x y z
#
# Youngs Moduli (GPa) = 35.22509 35.22509 93.56645
#
# Poissons Ratio (x) = -0.07142 0.46736
# Poissons Ratio (y) = -0.07142 0.46736
# Poissons Ratio (z) = 0.17595 0.17595
#
# Static dielectric constant tensor:
#      x y z
#    x 1.442150 0.000000 0.000000 
#    y 0.000000 1.442150 0.000000 
#    z 0.000000 0.000000 1.477540 
# 
# From -- ./inp_files/3131.got.cif
#   From: 2010.05.17/outbox.cif.g08.bks.cpg/sg175_2_cif.got.tgz:3131.got - 2010.05.20 11:23:22.
