data_PCOD9581179
_publ_section_title
;
Structure prediction by ZEFSAII (Michael W. Deem and Ramdas Pophale) SiO2 
 PCOD9581179
Probable space group: P -6
;
_chemical_formula_sum "Si O2"
_cell_formula_units_Z 28
_cell_length_a 12.682103
_cell_length_b 12.682103
_cell_length_c 8.634829
_cell_angle_alpha 90.000000
_cell_angle_beta 90.000000
_cell_angle_gamma 120.000000
_cell_volume 1202.726625
_symmetry_space_group_name_H-M "P -6"
_symmetry_group_IT_number 174
_symmetry_cell_setting 'hexagonal'
loop_
_space_group_symop_operation_xyz
x,y,z
-x+y,-x,-z
-y,x-y,z
x,y,-z
-x+y,-x,z
-y,x-y,-z
loop_
_atom_site_type_symbol
_atom_site_label
_atom_site_fract_x
_atom_site_fract_y
_atom_site_fract_z
Si Si1 0.333334 0.666668 0.182652
Si Si2 0.000000 0.000000 0.315628
Si Si3 0.612785 0.181148 0.812173
Si Si4 0.576543 0.716443 0.317294
Si Si5 0.658910 0.981785 0.813798
Si Si6 0.939453 0.188713 0.816525
O O1 0.443205 0.648785 0.241962
O O2 0.333334 0.666668 0.000000
O O3 0.112963 0.990941 0.250690
O O4 0.000000 0.000000 0.500000
O O5 0.750876 0.289232 0.769875
O O6 0.587716 0.051297 0.757196
O O7 0.608625 0.173364 0.000000
O O8 0.565878 0.701711 0.500000
O O9 0.676801 0.684473 0.255113
O O10 0.625859 0.858066 0.271115
O O11 0.798777 0.088348 0.789786
O O12 0.641082 0.956913 0.000000
O O13 0.956134 0.204611 0.000000
#
# Coordination Sequence:
#
# PCOD9581179 Si02
#       6
#     2   2   6   6   6   6
#     4  12  28  53  76  93 127 179 241 291 340 416
#     4  12  22  35  58  90 130 170 205 273 352 404
#     4   7  13  28  51  82 118 149 187 243 304 365
#     4  12  26  44  66  95 134 176 223 280 347 405
#     4  10  20  35  62  95 126 166 218 269 324 390
#     4  11  22  37  61  95 133 172 220 274 331 406
#
# _framework density 23.280435000000001
#
# number of rings (size 3 to 8) (size 9 to 14) (size 15 to 20)
#    0.429    1.286    2.143    3.857    0.000    2.571 
#    0.000    4.286    0.000    1.286    0.000    0.000 
#    0.000    0.000    0.000    0.000    0.000    0.000 
#
# Total GULP energy -156442.621268 kJ/mol
# GULP energy per Si atom -5587.236474 kJ/mol
# Density = 2.322745 g / cm^3
# Si number density = 23.280435 Si / 1000 Ang^3
#
#
#
# Elastic Constant Matrix: (Units=GPa)
#
#
# Indices 1 2 3 4 5 6 
#
# 1 91.1296 9.9080 27.5812 0.0000 0.0000 -0.0004
# 2 9.9080 91.1313 27.5822 0.0000 0.0000 -0.0008
# 3 27.5812 27.5822 79.4462 0.0000 0.0000 -0.0003
# 4 0.0000 0.0000 0.0000 25.3572 -0.0003 0.0000
# 5 0.0000 0.0000 0.0000 -0.0003 25.3574 0.0000
# 6 -0.0004 -0.0008 -0.0003 0.0000 0.0000 40.6114
#
#
#
# Elastic Compliance Matrix: (Units=1/GPa)
#
#
# Indices 1 2 3 4 5 6 
#
# 1 0.012262 -0.000050 -0.004240 0.000000 0.000000 0.000000
# 2 -0.000050 0.012262 -0.004240 0.000000 0.000000 0.000000
# 3 -0.004240 -0.004240 0.015531 0.000000 0.000000 0.000000
# 4 0.000000 0.000000 0.000000 0.039436 0.000000 0.000000
# 5 0.000000 0.000000 0.000000 0.000000 0.039436 0.000000
# 6 0.000000 0.000000 0.000000 0.000000 0.000000 0.024624
#
#
# Mechanical properties :
#
#
# Convention : Reuss Voigt Hill
#
# Bulk Modulus (GPa) = 43.48559 43.53887 43.51223
# Shear Modulus (GPa) = 29.71323 31.37423 30.54373
#
# Velocity S-wave (km/s) = 3.57643 3.67504 3.62607
# Velocity P-wave (km/s) = 5.98114 6.06221 6.02181
#
# Compressibility (1/GPa) = 0.02299613
#
# Stress axis : x y z
#
# Youngs Moduli (GPa) = 81.55286 81.55393 64.38757
#
# Poissons Ratio (x) = 0.00408 0.27298
# Poissons Ratio (y) = 0.00408 0.27298
# Poissons Ratio (z) = 0.34575 0.34577
#
# Static dielectric constant tensor:
#      x y z
#    x 1.931500 0.000000 0.000000 
#    y 0.000000 1.931500 0.000000 
#    z 0.000000 0.000000 1.769950 
# 
# From -- ./inp_files/276.got.cif
#   From: 2010.05.17/outbox.cif.g08.bks.cpg/sg174_cif.got.tgz:276.got - 2010.05.20 11:22:48.
