data_PCOD9581286
_publ_section_title
;
Structure prediction by ZEFSAII (Michael W. Deem and Ramdas Pophale) SiO2 
 PCOD9581286
Probable space group: P 6/M
;
_chemical_formula_sum "Si O2"
_cell_formula_units_Z 72
_cell_length_a 23.702236
_cell_length_b 23.702236
_cell_length_c 8.079241
_cell_angle_alpha 90.000000
_cell_angle_beta 90.000000
_cell_angle_gamma 120.000000
_cell_volume 3930.789894
_symmetry_space_group_name_H-M "P 6/M"
_symmetry_group_IT_number 175
_symmetry_cell_setting 'hexagonal'
loop_
_space_group_symop_operation_xyz
x,y,z
x-y,x,z
-y,x-y,z
-x,-y,z
-x+y,-x,z
y,-x+y,z
-x,-y,-z
-x+y,-x,-z
y,-x+y,-z
x,y,-z
x-y,x,-z
-y,x-y,-z
loop_
_atom_site_type_symbol
_atom_site_label
_atom_site_fract_x
_atom_site_fract_y
_atom_site_fract_z
Si Si1 0.387705 0.258705 0.800044
Si Si2 0.001754 0.871701 0.700093
Si Si3 0.259677 0.390038 0.797132
Si Si4 0.741538 0.740505 0.199263
Si Si5 0.064784 0.465924 0.691012
Si Si6 0.482514 0.079424 0.192992
O O1 0.392696 0.196583 0.742763
O O2 0.321177 0.255756 0.740954
O O3 0.445696 0.328871 0.746061
O O4 0.386056 0.256644 0.000000
O O5 0.936448 0.870273 0.758655
O O6 0.001748 0.873569 0.500000
O O7 0.002397 0.807391 0.753378
O O8 0.257175 0.323560 0.742011
O O9 0.329247 0.450187 0.745160
O O10 0.259938 0.389836 0.000000
O O11 0.737246 0.736443 0.000000
O O12 0.048216 0.449083 0.500000
O O13 0.087649 0.541547 0.716818
O O14 0.997190 0.425245 0.790996
O O15 0.498861 0.093677 0.000000
#
# Coordination Sequence:
#
# PCOD9581286 Si02
#       6
#    12  12  12  12  12  12
#     4  10  19  34  55  78 108 142 177 214 259 315
#     4  10  21  36  51  67  92 131 177 221 267 321
#     4   9  18  32  54  82 106 136 177 216 256 311
#     4  10  19  34  54  77 104 133 169 219 270 314
#     4  11  21  33  51  80 111 138 173 215 262 313
#     4  10  18  34  57  79 105 139 177 217 264 309
#
# _framework density 18.316931
#
# number of rings (size 3 to 8) (size 9 to 14) (size 15 to 20)
#    0.000    2.000    1.667    4.167    0.000    3.333 
#    0.000    2.500    0.000    1.667    0.000    2.333 
#    0.000    0.000    0.000    0.000    0.000    0.000 
#
# Total GULP energy -401989.852426 kJ/mol
# GULP energy per Si atom -5583.192395 kJ/mol
# Density = 1.827524 g / cm^3
# Si number density = 18.316931 Si / 1000 Ang^3
#
#
#
# Elastic Constant Matrix: (Units=GPa)
#
#
# Indices 1 2 3 4 5 6 
#
# 1 134.9181 79.0322 -0.5657 0.0000 0.0000 0.0000
# 2 79.0322 134.9181 -0.5657 0.0000 0.0000 0.0000
# 3 -0.5657 -0.5657 14.1414 0.0000 0.0000 0.0000
# 4 0.0000 0.0000 0.0000 -13.8504 0.0000 0.0000
# 5 0.0000 0.0000 0.0000 0.0000 -13.8504 0.0000
# 6 0.0000 0.0000 0.0000 0.0000 0.0000 27.9430
#
#
#
# Elastic Compliance Matrix: (Units=1/GPa)
#
#
# Indices 1 2 3 4 5 6 
#
# 1 0.011284 -0.006609 0.000187 0.000000 0.000000 0.000000
# 2 -0.006609 0.011284 0.000187 0.000000 0.000000 0.000000
# 3 0.000187 0.000187 0.070729 0.000000 0.000000 0.000000
# 4 0.000000 0.000000 0.000000 -0.072200 0.000000 0.000000
# 5 0.000000 0.000000 0.000000 0.000000 -0.072200 0.000000
# 6 0.000000 0.000000 0.000000 0.000000 0.000000 0.035787
#
#
# Mechanical properties :
#
#
# Convention : Reuss Voigt Hill
#
# Bulk Modulus (GPa) = 12.37202 48.86433 30.61817
# Shear Modulus (GPa) = 207.48509 13.78689 110.63599
#
# Velocity S-wave (km/s) = 10.65462 2.74649 7.78024
# Velocity P-wave (km/s) = 12.57499 6.06569 9.87226
#
# Compressibility (1/GPa) = 0.08082755
#
# Stress axis : x y z
#
# Youngs Moduli (GPa) = 88.61884 88.61884 14.13837
#
# Poissons Ratio (x) = 0.58571 -0.00264
# Poissons Ratio (y) = 0.58571 -0.00264
# Poissons Ratio (z) = -0.01657 -0.01657
#
# Static dielectric constant tensor:
#      x y z
#    x 1.617320 0.000000 0.000000 
#    y 0.000000 1.617320 0.000000 
#    z 0.000000 0.000000 1.637430 
# 
# From -- ./inp_files/1150.got.cif
#   From: 2010.05.17/outbox.cif.g08.bks.cpg/sg175_1_cif.got.tgz:1150.got - 2010.05.20 11:23:22.
