data_PCOD9581753
_publ_section_title
;
Structure prediction by ZEFSAII (Michael W. Deem and Ramdas Pophale) SiO2 
 PCOD9581753
Probable space group: P 63/M
;
_chemical_formula_sum "Si O2"
_cell_formula_units_Z 56
_cell_length_a 14.764445
_cell_length_b 14.764445
_cell_length_c 13.709787
_cell_angle_alpha 90.000000
_cell_angle_beta 90.000000
_cell_angle_gamma 120.000000
_cell_volume 2588.186645
_symmetry_space_group_name_H-M "P 63/M"
_symmetry_group_IT_number 176
_symmetry_cell_setting 'hexagonal'
loop_
_space_group_symop_operation_xyz
x,y,z
x-y,x,1/2+z
-y,x-y,z
-x,-y,1/2+z
-x+y,-x,z
y,-x+y,1/2+z
-x,-y,-z
-x+y,-x,1/2-z
y,-x+y,-z
x,y,1/2-z
x-y,x,-z
-y,x-y,1/2-z
loop_
_atom_site_type_symbol
_atom_site_label
_atom_site_fract_x
_atom_site_fract_y
_atom_site_fract_z
Si Si1 0.688597 0.025361 0.130319
Si Si2 0.765316 0.878335 0.359722
Si Si3 0.333334 0.666668 0.868632
Si Si4 0.323425 0.093378 0.369448
Si Si5 0.095438 0.562792 0.631406
Si Si6 0.000000 0.000000 0.385084
O O1 0.690231 0.023989 0.250000
O O2 0.794011 0.132808 0.101045
O O3 0.584222 0.026671 0.100200
O O4 0.697892 0.925924 0.096892
O O5 0.724881 0.844165 0.250000
O O6 0.775877 0.783804 0.403320
O O7 0.885116 0.972798 0.353379
O O8 0.333334 0.666668 0.750000
O O9 0.385929 0.786065 0.899591
O O10 0.320416 0.096131 0.250000
O O11 0.419074 0.075341 0.396275
O O12 0.093323 0.561103 0.750000
O O13 0.000000 0.000000 0.500000
#
# Coordination Sequence:
#
# PCOD9581753 Si02
#       6
#    12  12   4  12  12   4
#     4   9  15  22  37  58  82 116 146 173 211 260
#     4  10  18  30  45  62  90 124 152 175 217 280
#     4   9  12  15  27  45  75 105 120 147 195 255
#     4   9  15  22  37  58  82 116 146 173 211 260
#     4   9  14  20  31  56  86 107 133 167 213 257
#     4  12  22  29  43  69  94 116 148 195 232 260
#
# _framework density 21.636769999999999
#
# number of rings (size 3 to 8) (size 9 to 14) (size 15 to 20)
#    0.000    2.571    4.286    0.643    0.000    0.000 
#    0.000    0.000    0.000    0.857    0.000    7.500 
#    0.000    0.000    0.000    0.000    0.000    0.000 
#
# Total GULP energy -312532.114698 kJ/mol
# GULP energy per Si atom -5580.930620 kJ/mol
# Density = 2.158752 g / cm^3
# Si number density = 21.636770 Si / 1000 Ang^3
#
#
#
# Elastic Constant Matrix: (Units=GPa)
#
#
# Indices 1 2 3 4 5 6 
#
# 1 85.9179 18.4312 -8.2153 0.0000 0.0000 -0.0005
# 2 18.4312 85.9171 -8.2153 0.0000 0.0000 -0.0004
# 3 -8.2153 -8.2153 62.6264 0.0000 0.0000 0.0001
# 4 0.0000 0.0000 0.0000 8.7817 0.0000 0.0000
# 5 0.0000 0.0000 0.0000 0.0000 8.7817 0.0000
# 6 -0.0005 -0.0004 0.0001 0.0000 0.0000 33.7429
#
#
#
# Elastic Compliance Matrix: (Units=1/GPa)
#
#
# Indices 1 2 3 4 5 6 
#
# 1 0.012302 -0.002516 0.001284 0.000000 0.000000 0.000000
# 2 -0.002516 0.012302 0.001284 0.000000 0.000000 0.000000
# 3 0.001284 0.001284 0.016304 0.000000 0.000000 0.000000
# 4 0.000000 0.000000 0.000000 0.113873 0.000000 0.000000
# 5 0.000000 0.000000 0.000000 0.000000 0.113873 0.000000
# 6 0.000000 0.000000 0.000000 0.000000 0.000000 0.029636
#
#
# Mechanical properties :
#
#
# Convention : Reuss Voigt Hill
#
# Bulk Modulus (GPa) = 24.38441 26.49584 25.44012
# Shear Modulus (GPa) = 16.03294 25.75864 20.89579
#
# Velocity S-wave (km/s) = 2.72509 3.45411 3.11103
# Velocity P-wave (km/s) = 4.60390 5.30850 4.96870
#
# Compressibility (1/GPa) = 0.04100981
#
# Stress axis : x y z
#
# Youngs Moduli (GPa) = 81.29061 81.28986 61.33278
#
# Poissons Ratio (x) = 0.20454 -0.07873
# Poissons Ratio (y) = 0.20455 -0.07873
# Poissons Ratio (z) = -0.10435 -0.10435
#
# Static dielectric constant tensor:
#      x y z
#    x 1.780120 0.000000 0.000000 
#    y 0.000000 1.780120 0.000000 
#    z 0.000000 0.000000 1.837230 
# 
# From -- ./inp_files/3281.got.cif
#   From: 2010.05.17/outbox.cif.g08.bks.cpg/sg176_2_cif.got.tgz:3281.got - 2010.06.03 11:36:45.
