data_PCOD9581273
_publ_section_title
;
Structure prediction by ZEFSAII (Michael W. Deem and Ramdas Pophale) SiO2 
 PCOD9581273
Probable space group: P 6/M
;
_chemical_formula_sum "Si O2"
_cell_formula_units_Z 78
_cell_length_a 22.803110
_cell_length_b 22.803110
_cell_length_c 7.445384
_cell_angle_alpha 90.000000
_cell_angle_beta 90.000000
_cell_angle_gamma 120.000000
_cell_volume 3352.786490
_symmetry_space_group_name_H-M "P 6/M"
_symmetry_group_IT_number 175
_symmetry_cell_setting 'hexagonal'
loop_
_space_group_symop_operation_xyz
x,y,z
x-y,x,z
-y,x-y,z
-x,-y,z
-x+y,-x,z
y,-x+y,z
-x,-y,-z
-x+y,-x,-z
y,-x+y,-z
x,y,-z
x-y,x,-z
-y,x-y,-z
loop_
_atom_site_type_symbol
_atom_site_label
_atom_site_fract_x
_atom_site_fract_y
_atom_site_fract_z
Si Si1 0.734357 0.977842 0.780896
Si Si2 0.534554 0.211150 0.795277
Si Si3 0.836110 0.129010 0.217415
Si Si4 0.173711 0.443326 0.291994
Si Si5 0.417907 0.591145 0.500000
Si Si6 0.069840 0.481329 0.796133
Si Si7 0.416454 0.063505 0.782624
O O1 0.742549 0.914199 0.726923
O O2 0.659528 0.960510 0.720391
O O3 0.792290 0.051581 0.720704
O O4 0.734165 0.979416 0.000000
O O5 0.502365 0.259655 0.788674
O O6 0.592687 0.224938 0.657975
O O7 0.470769 0.139006 0.725393
O O8 0.551088 0.204798 0.000000
O O9 0.797470 0.168446 0.278511
O O10 0.834760 0.129292 0.000000
O O11 0.174432 0.463300 0.500000
O O12 0.107393 0.436561 0.200340
O O13 0.461727 0.578687 0.658361
O O14 0.993554 0.429186 0.736047
O O15 0.070380 0.505075 0.000000
O O16 0.414892 0.065387 0.000000
#
# Coordination Sequence:
#
# PCOD9581273 Si02
#       7
#    12  12  12  12   6  12  12
#     4   9  16  28  52  86 122 162 214 264 313 381
#     4  11  23  41  63  87 124 163 201 255 308 366
#     4  10  18  32  56  85 121 167 213 265 325 378
#     4  12  22  38  60  94 120 153 207 259 318 376
#     4  12  26  43  58  88 122 158 212 232 296 378
#     4  11  23  41  63  87 124 163 201 255 308 366
#     4   9  18  33  58  91 119 160 210 247 306 382
#
# _framework density 23.264233000000001
#
# number of rings (size 3 to 8) (size 9 to 14) (size 15 to 20)
#    0.000    1.538    4.615    1.846    0.000    1.846 
#    0.000    4.615    0.000    2.769    0.000    6.462 
#    0.000    0.000    0.000    1.385    0.000    1.538 
#
# Total GULP energy -435044.769212 kJ/mol
# GULP energy per Si atom -5577.497041 kJ/mol
# Density = 2.321128 g / cm^3
# Si number density = 23.264233 Si / 1000 Ang^3
#
#
#
# Elastic Constant Matrix: (Units=GPa)
#
#
# Indices 1 2 3 4 5 6 
#
# 1 57.7623 12.6221 1.9114 0.0000 0.0000 0.0000
# 2 12.6221 57.7623 1.9114 0.0000 0.0000 0.0000
# 3 1.9114 1.9114 129.7116 0.0000 0.0000 0.0000
# 4 0.0000 0.0000 0.0000 3.4750 0.0000 0.0000
# 5 0.0000 0.0000 0.0000 0.0000 3.4750 0.0000
# 6 0.0000 0.0000 0.0000 0.0000 0.0000 22.5701
#
#
#
# Elastic Compliance Matrix: (Units=1/GPa)
#
#
# Indices 1 2 3 4 5 6 
#
# 1 0.018186 -0.003967 -0.000210 0.000000 0.000000 0.000000
# 2 -0.003967 0.018186 -0.000210 0.000000 0.000000 0.000000
# 3 -0.000210 -0.000210 0.007716 0.000000 0.000000 0.000000
# 4 0.000000 0.000000 0.000000 0.287767 0.000000 0.000000
# 5 0.000000 0.000000 0.000000 0.000000 0.287767 0.000000
# 6 0.000000 0.000000 0.000000 0.000000 0.000000 0.044306
#
#
# Mechanical properties :
#
#
# Convention : Reuss Voigt Hill
#
# Bulk Modulus (GPa) = 28.31607 30.90288 29.60948
# Shear Modulus (GPa) = 7.30490 21.15679 14.23084
#
# Velocity S-wave (km/s) = 1.77392 3.01892 2.47595
# Velocity P-wave (km/s) = 4.04891 5.04620 4.57481
#
# Compressibility (1/GPa) = 0.03531563
#
# Stress axis : x y z
#
# Youngs Moduli (GPa) = 54.98693 54.98693 129.60777
#
# Poissons Ratio (x) = 0.21814 0.02716
# Poissons Ratio (y) = 0.21814 0.02716
# Poissons Ratio (z) = 0.01152 0.01152
#
# Static dielectric constant tensor:
#      x y z
#    x 1.975810 0.000000 0.000000 
#    y 0.000000 1.975810 0.000000 
#    z 0.000000 0.000000 1.902500 
# 
# From -- ./inp_files/1300.got.cif
#   From: 2010.05.17/outbox.cif.g08.bks.cpg/sg175_1_cif.got.tgz:1300.got - 2010.05.20 11:23:22.
