data_PCOD9581212
_publ_section_title
;
Structure prediction by ZEFSAII (Michael W. Deem and Ramdas Pophale) SiO2 
 PCOD9581212
Probable space group: P -6
;
_chemical_formula_sum "Si O2"
_cell_formula_units_Z 32
_cell_length_a 14.904662
_cell_length_b 14.904662
_cell_length_c 8.713333
_cell_angle_alpha 90.000000
_cell_angle_beta 90.000000
_cell_angle_gamma 120.000000
_cell_volume 1676.328803
_symmetry_space_group_name_H-M "P -6"
_symmetry_group_IT_number 174
_symmetry_cell_setting 'hexagonal'
loop_
_space_group_symop_operation_xyz
x,y,z
-x+y,-x,-z
-y,x-y,z
x,y,-z
-x+y,-x,z
-y,x-y,-z
loop_
_atom_site_type_symbol
_atom_site_label
_atom_site_fract_x
_atom_site_fract_y
_atom_site_fract_z
Si Si1 0.160501 0.234205 0.814059
Si Si2 0.384441 0.585678 0.182760
Si Si3 0.448890 0.244947 0.816146
Si Si4 0.666667 0.333333 0.318519
Si Si5 0.016982 0.621264 0.681146
Si Si6 0.931786 0.158896 0.185573
O O1 0.259452 0.328867 0.736595
O O2 0.167928 0.131492 0.778940
O O3 0.049770 0.215760 0.761424
O O4 0.170147 0.248566 0.000000
O O5 0.444033 0.708944 0.216631
O O6 0.416848 0.513234 0.270138
O O7 0.391448 0.573723 0.000000
O O8 0.552370 0.257775 0.744669
O O9 0.435382 0.341637 0.765060
O O10 0.345163 0.141368 0.763218
O O11 0.454001 0.243737 0.000000
O O12 0.666667 0.333334 0.500000
O O13 0.000426 0.613364 0.500000
O O14 0.936252 0.165409 0.000000
#
# Coordination Sequence:
#
# PCOD9581212 Si02
#       6
#     6   6   6   2   6   6
#     4   9  16  30  53  79 111 146 186 232 279 333
#     4   8  17  35  57  78 102 137 180 223 268 329
#     4  10  21  40  63  83 108 149 199 244 286 343
#     4  12  25  44  64  87 115 149 190 252 316 356
#     4  11  21  34  53  82 116 149 181 228 288 341
#     4   8  15  29  54  85 110 142 188 235 277 326
#
# _framework density 19.089333
#
# number of rings (size 3 to 8) (size 9 to 14) (size 15 to 20)
#    0.375    2.250    0.000    4.312    0.000    2.250 
#    3.375    4.688    0.000    0.000    0.000    0.000 
#    0.000    0.000    0.000    0.000    0.000    0.000 
#
# Total GULP energy -178409.698881 kJ/mol
# GULP energy per Si atom -5575.303090 kJ/mol
# Density = 1.904588 g / cm^3
# Si number density = 19.089333 Si / 1000 Ang^3
#
#
#
# Elastic Constant Matrix: (Units=GPa)
#
#
# Indices 1 2 3 4 5 6 
#
# 1 46.1027 14.7973 11.3483 0.0000 0.0000 -0.0002
# 2 14.7973 46.1033 11.3485 0.0000 0.0000 -0.0001
# 3 11.3483 11.3485 56.7354 0.0000 0.0000 -0.0001
# 4 0.0000 0.0000 0.0000 -15.5131 0.0001 0.0000
# 5 0.0000 0.0000 0.0000 0.0001 -15.5125 0.0000
# 6 -0.0002 -0.0001 -0.0001 0.0000 0.0000 15.6528
#
#
#
# Elastic Compliance Matrix: (Units=1/GPa)
#
#
# Indices 1 2 3 4 5 6 
#
# 1 0.024843 -0.007100 -0.003549 0.000000 0.000000 0.000000
# 2 -0.007100 0.024843 -0.003549 0.000000 0.000000 0.000000
# 3 -0.003549 -0.003549 0.019045 0.000000 0.000000 0.000000
# 4 0.000000 0.000000 0.000000 -0.064462 0.000000 0.000000
# 5 0.000000 0.000000 0.000000 0.000000 -0.064464 0.000000
# 6 0.000000 0.000000 0.000000 0.000000 0.000000 0.063887
#
#
# Mechanical properties :
#
#
# Convention : Reuss Voigt Hill
#
# Bulk Modulus (GPa) = 24.79214 24.88105 24.83660
# Shear Modulus (GPa) = 109.80888 4.35524 57.08206
#
# Velocity S-wave (km/s) = 7.59267 1.51210 5.47426
# Velocity P-wave (km/s) = 9.48053 4.01384 7.27981
#
# Compressibility (1/GPa) = 0.04033536
#
# Stress axis : x y z
#
# Youngs Moduli (GPa) = 40.25251 40.25298 52.50592
#
# Poissons Ratio (x) = 0.28580 0.18634
# Poissons Ratio (y) = 0.28579 0.18635
# Poissons Ratio (z) = 0.14286 0.14286
#
# Static dielectric constant tensor:
#      x y z
#    x 1.677390 0.000000 0.000000 
#    y 0.000000 1.677390 0.000000 
#    z 0.000000 0.000000 1.636070 
# 
# From -- ./inp_files/342.got.cif
#   From: 2010.05.17/outbox.cif.g08.bks.cpg/sg174_cif.got.tgz:342.got - 2010.05.20 11:22:48.
