data_PCOD9581653
_publ_section_title
;
Structure prediction by ZEFSAII (Michael W. Deem and Ramdas Pophale) SiO2 
 PCOD9581653
Probable space group: P 6/M
;
_chemical_formula_sum "Si O2"
_cell_formula_units_Z 42
_cell_length_a 13.875708
_cell_length_b 13.875708
_cell_length_c 10.886750
_cell_angle_alpha 90.000000
_cell_angle_beta 90.000000
_cell_angle_gamma 120.000000
_cell_volume 1815.261454
_symmetry_space_group_name_H-M "P 6/M"
_symmetry_group_IT_number 175
_symmetry_cell_setting 'hexagonal'
loop_
_space_group_symop_operation_xyz
x,y,z
x-y,x,z
-y,x-y,z
-x,-y,z
-x+y,-x,z
y,-x+y,z
-x,-y,-z
-x+y,-x,-z
y,-x+y,-z
x,y,-z
x-y,x,-z
-y,x-y,-z
loop_
_atom_site_type_symbol
_atom_site_label
_atom_site_fract_x
_atom_site_fract_y
_atom_site_fract_z
Si Si1 0.938278 0.368195 0.865166
Si Si2 0.530055 0.218085 0.638054
Si Si3 0.954773 0.752203 0.500000
Si Si4 0.246678 0.207149 0.767817
O O1 0.853108 0.310808 0.752020
O O2 0.000000 0.500000 0.849422
O O3 0.030655 0.330733 0.859092
O O4 0.883689 0.339179 0.000000
O O5 0.649914 0.222758 0.645061
O O6 0.482522 0.178524 0.500000
O O7 0.862539 0.788707 0.500000
O O8 0.945520 0.698928 0.631799
O O9 0.134689 0.214909 0.780721
#
# Coordination Sequence:
#
# PCOD9581653 Si02
#       4
#    12  12   6  12
#     4  11  26  42  60  93 133 173 219 265 322 396
#     4   8  19  41  66  94 121 159 215 274 326 390
#     4   8  15  32  57  92 126 166 212 262 322 382
#     4  10  22  41  66  97 132 173 218 273 328 392
#
# _framework density 23.137162
#
# number of rings (size 3 to 8) (size 9 to 14) (size 15 to 20)
#    0.571    2.000    0.000    0.429    6.000    5.143 
#    0.000    0.000    0.000    1.714    0.000    0.000 
#    0.000    0.000    0.000    0.000    0.000    0.000 
#
# Total GULP energy -234419.219823 kJ/mol
# GULP energy per Si atom -5581.409996 kJ/mol
# Density = 2.308450 g / cm^3
# Si number density = 23.137162 Si / 1000 Ang^3
#
#
#
# Elastic Constant Matrix: (Units=GPa)
#
#
# Indices 1 2 3 4 5 6 
#
# 1 69.3517 39.1233 28.4987 0.0000 0.0000 0.0000
# 2 39.1233 69.3517 28.4987 0.0000 0.0000 0.0000
# 3 28.4987 28.4987 151.0560 0.0000 0.0000 0.0000
# 4 0.0000 0.0000 0.0000 2.1479 0.0000 0.0000
# 5 0.0000 0.0000 0.0000 0.0000 2.1479 0.0000
# 6 0.0000 0.0000 0.0000 0.0000 0.0000 15.1142
#
#
#
# Elastic Compliance Matrix: (Units=1/GPa)
#
#
# Indices 1 2 3 4 5 6 
#
# 1 0.021657 -0.011424 -0.001931 0.000000 0.000000 0.000000
# 2 -0.011424 0.021657 -0.001931 0.000000 0.000000 0.000000
# 3 -0.001931 -0.001931 0.007349 0.000000 0.000000 0.000000
# 4 0.000000 0.000000 0.000000 0.465581 0.000000 0.000000
# 5 0.000000 0.000000 0.000000 0.000000 0.465581 0.000000
# 6 0.000000 0.000000 0.000000 0.000000 0.000000 0.066163
#
#
# Mechanical properties :
#
#
# Convention : Reuss Voigt Hill
#
# Bulk Modulus (GPa) = 49.77015 53.55562 51.66289
# Shear Modulus (GPa) = 4.60720 16.79122 10.69921
#
# Velocity S-wave (km/s) = 1.41265 2.69685 2.15274
# Velocity P-wave (km/s) = 4.92122 5.73538 5.34383
#
# Compressibility (1/GPa) = 0.02009236
#
# Stress axis : x y z
#
# Youngs Moduli (GPa) = 46.17379 46.17379 136.08150
#
# Poissons Ratio (x) = 0.52750 0.26272
# Poissons Ratio (y) = 0.52750 0.26272
# Poissons Ratio (z) = 0.08914 0.08914
#
# Static dielectric constant tensor:
#      x y z
#    x 1.868390 0.000000 0.000000 
#    y 0.000000 1.868390 0.000000 
#    z 0.000000 0.000000 1.909580 
# 
# From -- ./inp_files/1584.got.cif
#   From: 2010.05.17/outbox.cif.g08.bks.cpg/sg175_1_cif.got.tgz:1584.got - 2010.05.20 11:23:22.
