data_PCOD9581754
_publ_section_title
;
Structure prediction by ZEFSAII (Michael W. Deem and Ramdas Pophale) SiO2 
 PCOD9581754
Probable space group: P 63/M
;
_chemical_formula_sum "Si O2"
_cell_formula_units_Z 84
_cell_length_a 19.863748
_cell_length_b 19.863748
_cell_length_c 11.557904
_cell_angle_alpha 90.000000
_cell_angle_beta 90.000000
_cell_angle_gamma 120.000000
_cell_volume 3949.408972
_symmetry_space_group_name_H-M "P 63/M"
_symmetry_group_IT_number 176
_symmetry_cell_setting 'hexagonal'
loop_
_space_group_symop_operation_xyz
x,y,z
x-y,x,1/2+z
-y,x-y,z
-x,-y,1/2+z
-x+y,-x,z
y,-x+y,1/2+z
-x,-y,-z
-x+y,-x,1/2-z
y,-x+y,-z
x,y,1/2-z
x-y,x,-z
-y,x-y,1/2-z
loop_
_atom_site_type_symbol
_atom_site_label
_atom_site_fract_x
_atom_site_fract_y
_atom_site_fract_z
Si Si1 0.536249 0.785169 0.622306
Si Si2 0.760001 0.048216 0.549786
Si Si3 0.276073 0.117616 0.375220
Si Si4 0.070909 0.520393 0.122515
Si Si5 0.433176 0.537410 0.877954
Si Si6 0.331655 0.376507 0.124303
Si Si7 0.796322 0.571448 0.876069
O O1 0.514781 0.745210 0.750000
O O2 0.629685 0.840081 0.625345
O O3 0.523058 0.745869 0.495611
O O4 0.493818 0.835882 0.616938
O O5 0.838510 0.095447 0.474500
O O6 0.684574 0.010890 0.467630
O O7 0.754648 0.114483 0.621689
O O8 0.756622 0.973832 0.608777
O O9 0.251341 0.131588 0.250000
O O10 0.105636 0.522162 0.250000
O O11 0.057580 0.594720 0.119835
O O12 0.983729 0.448046 0.121586
O O13 0.109178 0.527108 0.997231
O O14 0.462357 0.573914 0.750000
O O15 0.332619 0.343700 0.250000
O O16 0.257595 0.388677 0.116818
O O17 0.777447 0.531339 0.750000
#
# Coordination Sequence:
#
# PCOD9581754 Si02
#       7
#    12  12  12  12  12  12  12
#     4   9  16  28  43  62  90 118 145 174 207 258
#     4  11  18  33  46  65  85 111 145 189 237 286
#     4  10  20  31  46  66  86 111 145 185 230 283
#     4   9  16  25  39  60  87 118 148 174 199 236
#     4   9  15  23  38  61  87 119 150 171 195 233
#     4  10  18  30  45  64  89 115 147 185 225 277
#     4  10  19  30  46  66  85 110 145 186 229 274
#
# _framework density 21.269006000000001
#
# number of rings (size 3 to 8) (size 9 to 14) (size 15 to 20)
#    0.000    2.286    4.286    0.857    0.000    0.571 
#    0.000    0.714    0.000    0.286    0.000    0.000 
#    0.000    0.000    0.000    6.857    2.286  119.429 
#
# Total GULP energy -468021.400436 kJ/mol
# GULP energy per Si atom -5571.683339 kJ/mol
# Density = 2.122060 g / cm^3
# Si number density = 21.269006 Si / 1000 Ang^3
#
#
#
# Elastic Constant Matrix: (Units=GPa)
#
#
# Indices 1 2 3 4 5 6 
#
# 1 31.7855 38.4901 18.4388 0.0000 0.0000 0.0000
# 2 38.4901 31.7855 18.4388 0.0000 0.0000 0.0000
# 3 18.4388 18.4388 232.5658 0.0000 0.0000 0.0000
# 4 0.0000 0.0000 0.0000 -15.6494 0.0000 0.0000
# 5 0.0000 0.0000 0.0000 0.0000 -15.6494 0.0000
# 6 0.0000 0.0000 0.0000 0.0000 0.0000 -3.3523
#
#
#
# Elastic Compliance Matrix: (Units=1/GPa)
#
#
# Indices 1 2 3 4 5 6 
#
# 1 -0.067152 0.081999 -0.001177 0.000000 0.000000 0.000000
# 2 0.081999 -0.067152 -0.001177 0.000000 0.000000 0.000000
# 3 -0.001177 -0.001177 0.004487 0.000000 0.000000 0.000000
# 4 0.000000 0.000000 0.000000 -0.063900 0.000000 0.000000
# 5 0.000000 0.000000 0.000000 0.000000 -0.063900 0.000000
# 6 0.000000 0.000000 0.000000 0.000000 0.000000 -0.298303
#
#
# Mechanical properties :
#
#
# Convention : Reuss Voigt Hill
#
# Bulk Modulus (GPa) = 33.92976 49.65249 41.79112
# Shear Modulus (GPa) = -7.08831 7.78772 0.34971
#
# Velocity S-wave (km/s) = -1.82755 1.91559 0.40593
# Velocity P-wave (km/s) = 3.39618 5.31868 4.46220
#
# Compressibility (1/GPa) = 0.02947266
#
# Stress axis : x y z
#
# Youngs Moduli (GPa) = -14.89159 -14.89159 222.88986
#
# Poissons Ratio (x) = 1.22110 0.26238
# Poissons Ratio (y) = 1.22110 0.26238
# Poissons Ratio (z) = -0.01753 -0.01753
#
# Static dielectric constant tensor:
#      x y z
#    x 1.733630 0.000000 0.000000 
#    y 0.000000 1.733630 0.000000 
#    z 0.000000 0.000000 1.915590 
# 
# From -- ./inp_files/2030.got.cif
#   From: 2010.05.17/outbox.cif.g08.bks.cpg/sg176_2_cif.got.tgz:2030.got - 2010.06.03 11:36:45.
