data_PCOD9581751
_publ_section_title
;
Structure prediction by ZEFSAII (Michael W. Deem and Ramdas Pophale) SiO2 
 PCOD9581751
Probable space group: P 63/M
;
_chemical_formula_sum "Si O2"
_cell_formula_units_Z 70
_cell_length_a 15.508497
_cell_length_b 15.508497
_cell_length_c 20.917084
_cell_angle_alpha 90.000000
_cell_angle_beta 90.000000
_cell_angle_gamma 120.000000
_cell_volume 4356.835803
_symmetry_space_group_name_H-M "P 63/M"
_symmetry_group_IT_number 176
_symmetry_cell_setting 'hexagonal'
loop_
_space_group_symop_operation_xyz
x,y,z
x-y,x,1/2+z
-y,x-y,z
-x,-y,1/2+z
-x+y,-x,z
y,-x+y,1/2+z
-x,-y,-z
-x+y,-x,1/2-z
y,-x+y,-z
x,y,1/2-z
x-y,x,-z
-y,x-y,1/2-z
loop_
_atom_site_type_symbol
_atom_site_label
_atom_site_fract_x
_atom_site_fract_y
_atom_site_fract_z
Si Si1 0.476935 0.523065 0.750000
Si Si2 0.340877 0.273264 0.622356
Si Si3 0.067617 0.726739 0.377643
Si Si4 0.666668 0.333335 0.825989
Si Si5 0.068689 0.343412 0.750000
Si Si6 0.999998 0.202844 0.500000
Si Si7 0.931308 0.274722 0.250000
Si Si8 0.104539 0.552269 0.368868
O O1 0.538593 0.642323 0.750000
O O2 0.357677 0.461408 0.750000
O O3 0.514637 0.485362 0.809278
O O4 0.350781 0.175392 0.634735
O O5 0.267183 0.250468 0.563427
O O6 0.299714 0.299174 0.686608
O O7 0.448379 0.364759 0.601246
O O8 0.083626 0.635244 0.398752
O O9 0.000543 0.700828 0.313392
O O10 0.016720 0.749534 0.436573
O O11 0.666667 0.333334 0.750000
O O12 0.609856 0.219703 0.848808
O O13 0.163345 0.326693 0.750000
O O14 0.096428 0.192859 0.508885
#
# Coordination Sequence:
#
# PCOD9581751 Si02
#       8
#     6  12  12   4   6  12   6  12
#     4   8  18  30  44  72 100 126 164 200 240 294
#     4  10  20  33  52  77 104 131 166 207 251 307
#     4  10  20  33  52  77 104 131 166 207 251 307
#     4  12  18  24  51  81 114 141 156 193 257 322
#     4  10  19  33  52  73  99 130 164 209 253 291
#     4  10  21  37  54  72  96 134 176 217 257 302
#     4  10  19  33  52  73  99 130 164 209 253 291
#     4  10  18  29  48  77 106 133 161 196 250 308
#
# _framework density 16.066706
#
# number of rings (size 3 to 8) (size 9 to 14) (size 15 to 20)
#    0.000    2.057    2.571    1.714    0.000    0.686 
#    0.514    0.000    0.000    4.800    0.000    0.000 
#    0.000    0.000    0.000    0.000    0.000    0.000 
#
# Total GULP energy -389815.868929 kJ/mol
# GULP energy per Si atom -5568.798128 kJ/mol
# Density = 1.603014 g / cm^3
# Si number density = 16.066706 Si / 1000 Ang^3
#
#
#
# Elastic Constant Matrix: (Units=GPa)
#
#
# Indices 1 2 3 4 5 6 
#
# 1 132.5271 70.2449 62.6435 0.0000 0.0000 -0.0008
# 2 70.2449 132.5274 62.6429 0.0000 0.0000 0.0009
# 3 62.6435 62.6429 77.3775 0.0000 0.0000 0.0002
# 4 0.0000 0.0000 0.0000 13.4530 0.0001 0.0000
# 5 0.0000 0.0000 0.0000 0.0001 13.4532 0.0000
# 6 -0.0008 0.0009 0.0002 0.0000 0.0000 31.1378
#
#
#
# Elastic Compliance Matrix: (Units=1/GPa)
#
#
# Indices 1 2 3 4 5 6 
#
# 1 0.012962 -0.003094 -0.007989 0.000000 0.000000 0.000000
# 2 -0.003094 0.012962 -0.007988 0.000000 0.000000 0.000000
# 3 -0.007989 -0.007988 0.025858 0.000000 0.000000 0.000000
# 4 0.000000 0.000000 0.000000 0.074333 0.000000 0.000000
# 5 0.000000 0.000000 0.000000 0.000000 0.074332 0.000000
# 6 0.000000 0.000000 0.000000 0.000000 0.000000 0.032115
#
#
# Mechanical properties :
#
#
# Convention : Reuss Voigt Hill
#
# Bulk Modulus (GPa) = 73.31784 81.49940 77.40862
# Shear Modulus (GPa) = 18.16529 21.40219 19.78374
#
# Velocity S-wave (km/s) = 3.36611 3.65373 3.51287
# Velocity P-wave (km/s) = 7.80001 8.28465 8.04598
#
# Compressibility (1/GPa) = 0.01363924
#
# Stress axis : x y z
#
# Youngs Moduli (GPa) = 77.14969 77.15096 38.67232
#
# Poissons Ratio (x) = 0.23872 0.30894
# Poissons Ratio (y) = 0.23872 0.30893
# Poissons Ratio (z) = 0.61632 0.61631
#
# Static dielectric constant tensor:
#      x y z
#    x 1.538000 0.000000 0.000000 
#    y 0.000000 1.538010 0.000000 
#    z 0.000000 0.000000 1.515050 
# 
# From -- ./inp_files/3439.got.cif
#   From: 2010.05.17/outbox.cif.g08.bks.cpg/sg176_2_cif.got.tgz:3439.got - 2010.06.03 11:36:45.
