data_PCOD9581617
_publ_section_title
;
Structure prediction by ZEFSAII (Michael W. Deem and Ramdas Pophale) SiO2 
 PCOD9581617
Probable space group: P 6/M
;
_chemical_formula_sum "Si O2"
_cell_formula_units_Z 60
_cell_length_a 14.617378
_cell_length_b 14.617378
_cell_length_c 14.278247
_cell_angle_alpha 90.000000
_cell_angle_beta 90.000000
_cell_angle_gamma 120.000000
_cell_volume 2642.070962
_symmetry_space_group_name_H-M "P 6/M"
_symmetry_group_IT_number 175
_symmetry_cell_setting 'hexagonal'
loop_
_space_group_symop_operation_xyz
x,y,z
x-y,x,z
-y,x-y,z
-x,-y,z
-x+y,-x,z
y,-x+y,z
-x,-y,-z
-x+y,-x,-z
y,-x+y,-z
x,y,-z
x-y,x,-z
-y,x-y,-z
loop_
_atom_site_type_symbol
_atom_site_label
_atom_site_fract_x
_atom_site_fract_y
_atom_site_fract_z
Si Si1 0.478566 0.593302 0.606528
Si Si2 0.384851 0.969158 0.892286
Si Si3 0.200691 0.733116 0.693540
Si Si4 0.930822 0.175876 0.389020
Si Si5 0.801038 0.257584 0.106959
O O1 0.500000 0.500000 0.633527
O O2 0.512852 0.622922 0.500000
O O3 0.353936 0.543799 0.619870
O O4 0.536411 0.694941 0.669860
O O5 0.375898 0.073908 0.891932
O O6 0.500000 0.000000 0.849401
O O7 0.276581 0.864450 0.868752
O O8 0.396339 0.944498 0.000000
O O9 0.104706 0.755593 0.674289
O O10 0.209018 0.690974 0.796447
O O11 0.922345 0.197708 0.500000
O O12 0.051185 0.203186 0.373330
O O13 0.778935 0.281353 0.000000
#
# Coordination Sequence:
#
# PCOD9581617 Si02
#       5
#    12  12  12  12  12
#     4  11  25  44  65  92 127 167 213 264 325 395
#     4   9  20  42  66  91 131 173 218 278 338 393
#     4  12  25  39  65  91 127 170 215 260 310 387
#     4  10  21  39  64  93 122 154 201 266 333 390
#     4  10  24  41  64  95 131 175 218 276 336 387
#
# _framework density 22.709457
#
# number of rings (size 3 to 8) (size 9 to 14) (size 15 to 20)
#    0.000    1.600    0.000    3.600    8.400    4.000 
#    1.200    0.000    0.000    0.400    0.000    2.800 
#    0.000    0.000    0.000    0.000    0.000    0.000 
#
# Total GULP energy -334495.260480 kJ/mol
# GULP energy per Si atom -5574.921008 kJ/mol
# Density = 2.265777 g / cm^3
# Si number density = 22.709457 Si / 1000 Ang^3
#
#
#
# Elastic Constant Matrix: (Units=GPa)
#
#
# Indices 1 2 3 4 5 6 
#
# 1 104.2659 31.7764 8.8184 0.0000 0.0000 0.0000
# 2 31.7764 104.2659 8.8184 0.0000 0.0000 0.0000
# 3 8.8184 8.8184 127.4921 0.0000 0.0000 0.0000
# 4 0.0000 0.0000 0.0000 -4.7535 0.0000 0.0000
# 5 0.0000 0.0000 0.0000 0.0000 -4.7535 0.0000
# 6 0.0000 0.0000 0.0000 0.0000 0.0000 36.2447
#
#
#
# Elastic Compliance Matrix: (Units=1/GPa)
#
#
# Indices 1 2 3 4 5 6 
#
# 1 0.010606 -0.003189 -0.000513 0.000000 0.000000 0.000000
# 2 -0.003189 0.010606 -0.000513 0.000000 0.000000 0.000000
# 3 -0.000513 -0.000513 0.007915 0.000000 0.000000 0.000000
# 4 0.000000 0.000000 0.000000 -0.210372 0.000000 0.000000
# 5 0.000000 0.000000 0.000000 0.000000 -0.210372 0.000000
# 6 0.000000 0.000000 0.000000 0.000000 0.000000 0.027590
#
#
# Mechanical properties :
#
#
# Convention : Reuss Voigt Hill
#
# Bulk Modulus (GPa) = 48.31667 48.31671 48.31669
# Shear Modulus (GPa) = -14.33907 24.45492 5.05793
#
# Velocity S-wave (km/s) = -2.51552 3.28512 1.49401
# Velocity P-wave (km/s) = 3.58958 5.97591 4.92933
#
# Compressibility (1/GPa) = 0.02069679
#
# Stress axis : x y z
#
# Youngs Moduli (GPa) = 94.28501 94.28501 126.34889
#
# Poissons Ratio (x) = 0.30067 0.06482
# Poissons Ratio (y) = 0.30067 0.06482
# Poissons Ratio (z) = 0.04837 0.04837
#
# Static dielectric constant tensor:
#      x y z
#    x 1.930150 0.000000 0.000000 
#    y 0.000000 1.930150 0.000000 
#    z 0.000000 0.000000 1.885150 
# 
# From -- ./inp_files/2386.got.cif
#   From: 2010.05.17/outbox.cif.g08.bks.cpg/sg175_2_cif.got.tgz:2386.got - 2010.05.20 11:23:22.
