data_PCOD9581465
_publ_section_title
;
Structure prediction by ZEFSAII (Michael W. Deem and Ramdas Pophale) SiO2 
 PCOD9581465
Probable space group: P 6/M
;
_chemical_formula_sum "Si O2"
_cell_formula_units_Z 72
_cell_length_a 24.440751
_cell_length_b 24.440751
_cell_length_c 8.844182
_cell_angle_alpha 90.000000
_cell_angle_beta 90.000000
_cell_angle_gamma 120.000000
_cell_volume 4575.277034
_symmetry_space_group_name_H-M "P 6/M"
_symmetry_group_IT_number 175
_symmetry_cell_setting 'hexagonal'
loop_
_space_group_symop_operation_xyz
x,y,z
x-y,x,z
-y,x-y,z
-x,-y,z
-x+y,-x,z
y,-x+y,z
-x,-y,-z
-x+y,-x,-z
y,-x+y,-z
x,y,-z
x-y,x,-z
-y,x-y,-z
loop_
_atom_site_type_symbol
_atom_site_label
_atom_site_fract_x
_atom_site_fract_y
_atom_site_fract_z
Si Si1 0.518151 0.253593 0.672346
Si Si2 0.820662 0.634878 0.327167
Si Si3 0.509852 0.136727 0.820802
Si Si4 0.933211 0.303123 0.317873
Si Si5 0.627348 0.139716 0.681787
Si Si6 0.070326 0.372333 0.820589
O O1 0.539388 0.252684 0.500000
O O2 0.441709 0.220000 0.668977
O O3 0.532531 0.209511 0.777421
O O4 0.538590 0.324643 0.718931
O O5 0.841162 0.655611 0.500000
O O6 0.770163 0.655001 0.277072
O O7 0.880074 0.650273 0.224584
O O8 0.439942 0.095060 0.751609
O O9 0.558878 0.119689 0.744949
O O10 0.507926 0.128800 0.000000
O O11 0.932606 0.307446 0.500000
O O12 0.002881 0.328975 0.255770
O O13 0.627299 0.134184 0.500000
O O14 0.656046 0.099317 0.754368
O O15 0.064426 0.373688 0.000000
#
# Coordination Sequence:
#
# PCOD9581465 Si02
#       6
#    12  12  12  12  12  12
#     4   8  16  32  50  64  81 114 154 187 229 291
#     4   8  16  32  52  70  91 123 157 187 221 272
#     4  11  21  32  48  70  94 116 149 202 256 295
#     4  10  20  35  53  71  95 129 165 192 226 286
#     4  10  20  35  51  65  88 123 160 195 239 298
#     4  11  21  32  50  76 101 123 154 197 243 284
#
# _framework density 15.736751999999999
#
# number of rings (size 3 to 8) (size 9 to 14) (size 15 to 20)
#    0.000    2.333    0.000    6.000    0.000    8.000 
#    1.000    3.333    0.000    0.000    0.000    0.000 
#    0.000    0.000    0.000    0.500    0.000    9.667 
#
# Total GULP energy -401498.131891 kJ/mol
# GULP energy per Si atom -5576.362943 kJ/mol
# Density = 1.570093 g / cm^3
# Si number density = 15.736752 Si / 1000 Ang^3
#
#
#
# Elastic Constant Matrix: (Units=GPa)
#
#
# Indices 1 2 3 4 5 6 
#
# 1 74.2783 47.3846 41.9446 0.0000 0.0000 0.0000
# 2 47.3846 74.2783 41.9446 0.0000 0.0000 0.0000
# 3 41.9446 41.9446 85.5351 0.0000 0.0000 0.0000
# 4 0.0000 0.0000 0.0000 10.5047 0.0000 0.0000
# 5 0.0000 0.0000 0.0000 0.0000 10.5047 0.0000
# 6 0.0000 0.0000 0.0000 0.0000 0.0000 13.4469
#
#
#
# Elastic Compliance Matrix: (Units=1/GPa)
#
#
# Indices 1 2 3 4 5 6 
#
# 1 0.024801 -0.012382 -0.006090 0.000000 0.000000 0.000000
# 2 -0.012382 0.024801 -0.006090 0.000000 0.000000 0.000000
# 3 -0.006090 -0.006090 0.017664 0.000000 0.000000 0.000000
# 4 0.000000 0.000000 0.000000 0.095195 0.000000 0.000000
# 5 0.000000 0.000000 0.000000 0.000000 0.095195 0.000000
# 6 0.000000 0.000000 0.000000 0.000000 0.000000 0.074367
#
#
# Mechanical properties :
#
#
# Convention : Reuss Voigt Hill
#
# Bulk Modulus (GPa) = 55.12196 55.18214 55.15205
# Shear Modulus (GPa) = 12.91341 13.74578 13.32959
#
# Velocity S-wave (km/s) = 2.86770 2.95868 2.91355
# Velocity P-wave (km/s) = 6.78738 6.84205 6.81477
#
# Compressibility (1/GPa) = 0.01814159
#
# Stress axis : x y z
#
# Youngs Moduli (GPa) = 40.32108 40.32108 56.61334
#
# Poissons Ratio (x) = 0.49927 0.34476
# Poissons Ratio (y) = 0.49927 0.34476
# Poissons Ratio (z) = 0.24555 0.24555
#
# Static dielectric constant tensor:
#      x y z
#    x 1.530000 0.000000 0.000000 
#    y 0.000000 1.530000 0.000000 
#    z 0.000000 0.000000 1.519970 
# 
# From -- ./inp_files/1188.got.cif
#   From: 2010.05.17/outbox.cif.g08.bks.cpg/sg175_1_cif.got.tgz:1188.got - 2010.05.20 11:23:22.
