data_PCOD9581834
_publ_section_title
;
Structure prediction by ZEFSAII (Michael W. Deem and Ramdas Pophale) SiO2 
 PCOD9581834
Probable space group: P 63/M
;
_chemical_formula_sum "Si O2"
_cell_formula_units_Z 46
_cell_length_a 15.114736
_cell_length_b 15.114736
_cell_length_c 11.930285
_cell_angle_alpha 90.000000
_cell_angle_beta 90.000000
_cell_angle_gamma 120.000000
_cell_volume 2360.383566
_symmetry_space_group_name_H-M "P 63/M"
_symmetry_group_IT_number 176
_symmetry_cell_setting 'hexagonal'
loop_
_space_group_symop_operation_xyz
x,y,z
x-y,x,1/2+z
-y,x-y,z
-x,-y,1/2+z
-x+y,-x,z
y,-x+y,1/2+z
-x,-y,-z
-x+y,-x,1/2-z
y,-x+y,-z
x,y,1/2-z
x-y,x,-z
-y,x-y,1/2-z
loop_
_atom_site_type_symbol
_atom_site_label
_atom_site_fract_x
_atom_site_fract_y
_atom_site_fract_z
Si Si1 0.107792 0.389373 0.543986
Si Si2 0.637815 0.894795 0.377477
Si Si3 0.333334 0.666668 0.383985
Si Si4 0.461288 0.691286 0.750000
Si Si5 0.109656 0.531673 0.120987
O O1 0.178855 0.362708 0.467532
O O2 0.172816 0.469675 0.642317
O O3 0.055901 0.438881 0.463740
O O4 0.011950 0.290475 0.597812
O O5 0.646568 0.864531 0.250000
O O6 0.530557 0.895836 0.380638
O O7 0.333334 0.666668 0.250000
O O8 0.346136 0.773168 0.416678
O O9 0.417153 0.770332 0.750000
O O10 0.092012 0.496773 0.250000
#
# Coordination Sequence:
#
# PCOD9581834 Si02
#       5
#    12  12   4   6  12
#     4  12  22  42  60  89 127 167 214 266 317 372
#     4  11  24  41  62  91 124 163 216 268 315 386
#     4   9  15  27  51  82 119 163 204 240 280 338
#     4  10  24  38  60  86 134 178 208 250 322 374
#     4  10  19  33  59  87 121 166 214 248 296 364
#
# _framework density 19.488357000000001
#
# number of rings (size 3 to 8) (size 9 to 14) (size 15 to 20)
#    0.261    1.043    3.913    3.130    0.000    0.000 
#    4.696    0.000    0.000    0.522    0.000    0.000 
#    0.000    0.000    0.000    0.000    0.000    0.000 
#
# Total GULP energy -256447.655071 kJ/mol
# GULP energy per Si atom -5574.949023 kJ/mol
# Density = 1.944400 g / cm^3
# Si number density = 19.488357 Si / 1000 Ang^3
#
#
#
# Elastic Constant Matrix: (Units=GPa)
#
#
# Indices 1 2 3 4 5 6 
#
# 1 58.8078 33.1329 52.0385 0.0000 0.0000 0.0001
# 2 33.1329 58.8071 52.0382 0.0000 0.0000 -0.0008
# 3 52.0385 52.0382 164.0110 0.0000 0.0000 0.0004
# 4 0.0000 0.0000 0.0000 7.8887 0.0000 0.0000
# 5 0.0000 0.0000 0.0000 0.0000 7.8883 0.0000
# 6 0.0001 -0.0008 0.0004 0.0000 0.0000 12.8383
#
#
#
# Elastic Compliance Matrix: (Units=1/GPa)
#
#
# Indices 1 2 3 4 5 6 
#
# 1 0.027961 -0.010988 -0.005385 0.000000 0.000000 -0.000001
# 2 -0.010988 0.027961 -0.005385 0.000000 0.000000 0.000002
# 3 -0.005385 -0.005385 0.009514 0.000000 0.000000 -0.000001
# 4 0.000000 0.000000 0.000000 0.126764 0.000000 0.000000
# 5 0.000000 0.000000 0.000000 0.000000 0.126770 0.000000
# 6 -0.000001 0.000002 -0.000001 0.000000 0.000000 0.077892
#
#
# Mechanical properties :
#
#
# Convention : Reuss Voigt Hill
#
# Bulk Modulus (GPa) = 45.62248 61.78280 53.70264
# Shear Modulus (GPa) = 11.16856 15.35081 13.25969
#
# Velocity S-wave (km/s) = 2.39652 2.80963 2.61126
# Velocity P-wave (km/s) = 5.57842 6.50358 6.05868
#
# Compressibility (1/GPa) = 0.02191902
#
# Stress axis : x y z
#
# Youngs Moduli (GPa) = 35.76456 35.76410 105.10337
#
# Poissons Ratio (x) = 0.39298 0.56600
# Poissons Ratio (y) = 0.39299 0.56600
# Poissons Ratio (z) = 0.19260 0.19260
#
# Static dielectric constant tensor:
#      x y z
#    x 1.772210 -0.000010 0.000000 
#    y -0.000010 1.772210 0.000000 
#    z 0.000000 0.000000 1.711400 
# 
# From -- ./inp_files/1709.got.cif
#   From: 2010.05.17/outbox.cif.g08.bks.cpg/sg176_1_cif.got.tgz:1709.got - 2010.06.03 11:36:45.
