data_PCOD9581241
_publ_section_title
;
Structure prediction by ZEFSAII (Michael W. Deem and Ramdas Pophale) SiO2 
 PCOD9581241
Probable space group: P 6/M
;
_chemical_formula_sum "Si O2"
_cell_formula_units_Z 90
_cell_length_a 27.655180
_cell_length_b 27.655180
_cell_length_c 7.495840
_cell_angle_alpha 90.000000
_cell_angle_beta 90.000000
_cell_angle_gamma 120.000000
_cell_volume 4964.824697
_symmetry_space_group_name_H-M "P 6/M"
_symmetry_group_IT_number 175
_symmetry_cell_setting 'hexagonal'
loop_
_space_group_symop_operation_xyz
x,y,z
x-y,x,z
-y,x-y,z
-x,-y,z
-x+y,-x,z
y,-x+y,z
-x,-y,-z
-x+y,-x,-z
y,-x+y,-z
x,y,-z
x-y,x,-z
-y,x-y,-z
loop_
_atom_site_type_symbol
_atom_site_label
_atom_site_fract_x
_atom_site_fract_y
_atom_site_fract_z
Si Si1 0.141779 0.911082 0.205798
Si Si2 0.863816 0.923632 0.500000
Si Si3 0.928452 0.511117 0.716438
Si Si4 0.940071 0.412173 0.716468
Si Si5 0.278984 0.266889 0.714669
Si Si6 0.645032 0.827509 0.206691
Si Si7 0.705124 0.620873 0.297360
Si Si8 0.106130 0.403562 0.285480
O O1 0.101539 0.922482 0.331328
O O2 0.205183 0.963784 0.209429
O O3 0.152109 0.860577 0.272233
O O4 0.122641 0.900624 0.000000
O O5 0.905773 0.897683 0.500000
O O6 0.923920 0.508385 0.500000
O O7 0.913871 0.449815 0.780362
O O8 0.896931 0.543171 0.781389
O O9 0.993945 0.552219 0.755522
O O10 0.934090 0.409928 0.500000
O O11 0.918709 0.349683 0.783092
O O12 0.271694 0.259189 0.500000
O O13 0.269670 0.316656 0.778401
O O14 0.344277 0.292297 0.760457
O O15 0.613825 0.855457 0.300451
O O16 0.606400 0.761428 0.222691
O O17 0.650877 0.842359 0.000000
O O18 0.688193 0.625831 0.500000
O O19 0.107613 0.406177 0.500000
#
# Coordination Sequence:
#
# PCOD9581241 Si02
#       8
#    12   6  12  12  12  12  12  12
#     4  10  23  41  63  89 112 139 176 218 265 328
#     4  12  29  50  72  88 108 134 171 225 279 335
#     4   8  12  21  41  66  98 128 164 202 235 280
#     4   8  13  22  38  70 102 131 162 198 238 283
#     4   9  16  28  49  77 109 140 174 206 249 306
#     4  10  22  34  46  71 106 138 171 212 261 311
#     4  10  18  27  47  74 106 139 168 203 251 310
#     4   9  15  27  46  68  93 133 171 206 244 296
#
# _framework density 18.127528000000002
#
# number of rings (size 3 to 8) (size 9 to 14) (size 15 to 20)
#    0.000    2.667    2.000    1.267    3.733    1.067 
#    0.000    0.000    0.000    1.600    0.000    1.867 
#    1.333    0.000    2.400    0.000    0.800    0.000 
#
# Total GULP energy -501274.709661 kJ/mol
# GULP energy per Si atom -5569.718996 kJ/mol
# Density = 1.808627 g / cm^3
# Si number density = 18.127528 Si / 1000 Ang^3
#
#
#
# Elastic Constant Matrix: (Units=GPa)
#
#
# Indices 1 2 3 4 5 6 
#
# 1 87.6035 58.5353 16.1142 0.0000 0.0000 0.0000
# 2 58.5353 87.6035 16.1142 0.0000 0.0000 0.0000
# 3 16.1142 16.1142 46.5878 0.0000 0.0000 0.0000
# 4 0.0000 0.0000 0.0000 11.5590 0.0000 0.0000
# 5 0.0000 0.0000 0.0000 0.0000 11.5590 0.0000
# 6 0.0000 0.0000 0.0000 0.0000 0.0000 14.5341
#
#
#
# Elastic Compliance Matrix: (Units=1/GPa)
#
#
# Indices 1 2 3 4 5 6 
#
# 1 0.020905 -0.013497 -0.002562 0.000000 0.000000 0.000000
# 2 -0.013497 0.020905 -0.002562 0.000000 0.000000 0.000000
# 3 -0.002562 -0.002562 0.023237 0.000000 0.000000 0.000000
# 4 0.000000 0.000000 0.000000 0.086512 0.000000 0.000000
# 5 0.000000 0.000000 0.000000 0.000000 0.086512 0.000000
# 6 0.000000 0.000000 0.000000 0.000000 0.000000 0.068804
#
#
# Mechanical properties :
#
#
# Convention : Reuss Voigt Hill
#
# Bulk Modulus (GPa) = 35.96611 44.81356 40.38984
# Shear Modulus (GPa) = 14.14879 16.26583 15.20731
#
# Velocity S-wave (km/s) = 2.79680 2.99875 2.89953
# Velocity P-wave (km/s) = 5.50574 6.06341 5.79129
#
# Compressibility (1/GPa) = 0.02780395
#
# Stress axis : x y z
#
# Youngs Moduli (GPa) = 47.83568 47.83568 43.03408
#
# Poissons Ratio (x) = 0.64564 0.11027
# Poissons Ratio (y) = 0.64564 0.11027
# Poissons Ratio (z) = 0.12257 0.12257
#
# Static dielectric constant tensor:
#      x y z
#    x 1.654570 0.000000 0.000000 
#    y 0.000000 1.654570 0.000000 
#    z 0.000000 0.000000 1.694940 
# 
# From -- ./inp_files/1434.got.cif
#   From: 2010.05.17/outbox.cif.g08.bks.cpg/sg175_1_cif.got.tgz:1434.got - 2010.05.20 11:23:22.
