data_PCOD9581117
_publ_section_title
;
Structure prediction by ZEFSAII (Michael W. Deem and Ramdas Pophale) SiO2 
 PCOD9581117
Probable space group: P 63
;
_chemical_formula_sum "Si O2"
_cell_formula_units_Z 24
_cell_length_a 8.703996
_cell_length_b 8.703996
_cell_length_c 19.488604
_cell_angle_alpha 90.000000
_cell_angle_beta 90.000000
_cell_angle_gamma 120.000000
_cell_volume 1278.641301
_symmetry_space_group_name_H-M "P 63"
_symmetry_group_IT_number 173
_symmetry_cell_setting 'hexagonal'
loop_
_space_group_symop_operation_xyz
x,y,z
x-y,x,1/2+z
-y,x-y,z
-x,-y,1/2+z
-x+y,-x,z
y,-x+y,1/2+z
loop_
_atom_site_type_symbol
_atom_site_label
_atom_site_fract_x
_atom_site_fract_y
_atom_site_fract_z
Si Si1 0.869027 0.332305 0.318580
Si Si2 0.462968 0.131301 0.163911
Si Si3 0.665723 0.668509 0.462866
Si Si4 0.331243 0.997328 0.019581
O O1 0.832116 0.497958 0.325123
O O2 0.931290 0.331607 0.241237
O O3 0.985686 0.331392 0.380667
O O4 0.665344 0.167656 0.157299
O O5 0.345957 0.014581 0.101754
O O6 0.525862 0.474984 0.491500
O O7 0.615469 0.810924 0.489105
O O8 0.855756 0.717056 0.493062
#
# Coordination Sequence:
#
# PCOD9581117 Si02
#       4
#     6   6   6   6
#     4   8  15  33  59  85 114 154 192 236 300 352
#     4   8  15  33  59  85 114 154 192 236 300 352
#     4  12  22  38  59  89 120 154 200 244 294 347
#     4  12  22  38  59  89 120 154 200 244 294 347
#
# _framework density 18.769924
#
# number of rings (size 3 to 8) (size 9 to 14) (size 15 to 20)
#    1.000    1.000    5.000    1.500    0.000    0.000 
#    0.000    5.000    0.000    0.000    0.000    0.000 
#    0.000    0.000    0.000    0.000    0.000    0.000 
#
# Total GULP energy -133696.454983 kJ/mol
# GULP energy per Si atom -5570.685624 kJ/mol
# Density = 1.872720 g / cm^3
# Si number density = 18.769924 Si / 1000 Ang^3
#
#
#
# Elastic Constant Matrix: (Units=GPa)
#
#
# Indices 1 2 3 4 5 6 
#
# 1 31.2356 -8.4873 18.7758 0.0000 0.0000 0.0000
# 2 -8.4873 31.2356 18.7758 0.0000 0.0000 0.0000
# 3 18.7758 18.7758 191.6817 0.0000 0.0000 0.0000
# 4 0.0000 0.0000 0.0000 18.6477 0.0000 0.0000
# 5 0.0000 0.0000 0.0000 0.0000 18.6477 0.0000
# 6 0.0000 0.0000 0.0000 0.0000 0.0000 19.8615
#
#
#
# Elastic Compliance Matrix: (Units=1/GPa)
#
#
# Indices 1 2 3 4 5 6 
#
# 1 0.038806 0.013632 -0.005137 0.000000 0.000000 0.000000
# 2 0.013632 0.038806 -0.005137 0.000000 0.000000 0.000000
# 3 -0.005137 -0.005137 0.006223 0.000000 0.000000 0.000000
# 4 0.000000 0.000000 0.000000 0.053626 0.000000 0.000000
# 5 0.000000 0.000000 0.000000 0.000000 0.053626 0.000000
# 6 0.000000 0.000000 0.000000 0.000000 0.000000 0.050349
#
#
# Mechanical properties :
#
#
# Convention : Reuss Voigt Hill
#
# Bulk Modulus (GPa) = 11.04312 34.69795 22.87054
# Shear Modulus (GPa) = 18.87483 26.43730 22.65607
#
# Velocity S-wave (km/s) = 3.17454 3.75706 3.47802
# Velocity P-wave (km/s) = 4.39695 6.11120 5.32353
#
# Compressibility (1/GPa) = 0.09055410
#
# Stress axis : x y z
#
# Youngs Moduli (GPa) = 25.76895 25.76895 160.68765
#
# Poissons Ratio (x) = -0.35128 0.82537
# Poissons Ratio (y) = -0.35128 0.82537
# Poissons Ratio (z) = 0.13236 0.13236
#
# Static dielectric constant tensor:
#      x y z
#    x 1.625910 0.000000 0.000000 
#    y 0.000000 1.625910 0.000000 
#    z 0.000000 0.000000 1.649930 
# 
# From -- ./inp_files/1336.got.cif
#   From: 2010.05.17/outbox.cif.g08.bks.cpg/sg173_cif.got.tgz:1336.got - 2010.05.20 11:21:53.
