data_PCOD9581019
_publ_section_title
;
Structure prediction by ZEFSAII (Michael W. Deem and Ramdas Pophale) SiO2 
 PCOD9581019
Probable space group: P 63
;
_chemical_formula_sum "Si O2"
_cell_formula_units_Z 40
_cell_length_a 14.235370
_cell_length_b 14.235370
_cell_length_c 13.177410
_cell_angle_alpha 90.000000
_cell_angle_beta 90.000000
_cell_angle_gamma 120.000000
_cell_volume 2312.587691
_symmetry_space_group_name_H-M "P 63"
_symmetry_group_IT_number 173
_symmetry_cell_setting 'hexagonal'
loop_
_space_group_symop_operation_xyz
x,y,z
x-y,x,1/2+z
-y,x-y,z
-x,-y,1/2+z
-x+y,-x,z
y,-x+y,1/2+z
loop_
_atom_site_type_symbol
_atom_site_label
_atom_site_fract_x
_atom_site_fract_y
_atom_site_fract_z
Si Si1 0.666667 0.333334 0.827686
Si Si2 0.059823 0.379890 0.205067
Si Si3 0.105426 0.562041 0.369792
Si Si4 0.111978 0.495577 0.798017
Si Si5 0.587556 0.862315 0.849094
Si Si6 0.532745 0.024575 0.090594
Si Si7 0.577760 0.830676 0.072713
Si Si8 0.333334 0.666668 0.084112
O O1 0.563144 0.225409 0.868515
O O2 0.666668 0.333334 0.706398
O O3 0.106851 0.479896 0.285275
O O4 0.014439 0.421543 0.113034
O O5 0.155458 0.366158 0.154350
O O6 0.956330 0.289928 0.269739
O O7 0.010549 0.584631 0.335648
O O8 0.072588 0.506932 0.479261
O O9 0.134706 0.608727 0.849562
O O10 0.189744 0.449034 0.818171
O O11 0.110380 0.513840 0.678273
O O12 0.632935 0.873846 0.963167
O O13 0.552575 0.923820 0.108735
O O14 0.458271 0.726533 0.051288
#
# Coordination Sequence:
#
# PCOD9581019 Si02
#       8
#     2   6   6   6   6   6   6   2
#     4  12  21  33  51  73 125 157 183 237 279 349
#     4  10  21  31  50  76 105 139 199 241 286 352
#     4  10  20  34  46  80 109 150 193 232 282 357
#     4  10  20  34  51  74 109 147 193 239 280 350
#     4  10  20  34  50  75 107 146 193 246 283 346
#     4  10  19  33  48  72 109 142 187 234 284 351
#     4  12  17  31  53  74 104 145 185 245 289 341
#     4  12  18  24  51  76  92 142 189 222 297 334
#
# _framework density 17.296643
#
# number of rings (size 3 to 8) (size 9 to 14) (size 15 to 20)
#    0.000    1.800    6.000    3.000    0.000    2.400 
#    0.000    0.000    0.000    0.000    0.000    0.000 
#    1.500    0.000    0.900    0.000    0.000    0.000 
#
# Total GULP energy -222723.977855 kJ/mol
# GULP energy per Si atom -5568.099446 kJ/mol
# Density = 1.725727 g / cm^3
# Si number density = 17.296643 Si / 1000 Ang^3
#
#
#
# Elastic Constant Matrix: (Units=GPa)
#
#
# Indices 1 2 3 4 5 6 
#
# 1 61.8382 17.3926 23.1276 0.0000 0.0000 -0.0002
# 2 17.3926 61.8382 23.1277 0.0000 0.0000 -0.0002
# 3 23.1276 23.1277 106.2588 0.0000 0.0000 -0.0001
# 4 0.0000 0.0000 0.0000 24.7946 0.0000 0.0000
# 5 0.0000 0.0000 0.0000 0.0000 24.7945 0.0000
# 6 -0.0002 -0.0002 -0.0001 0.0000 0.0000 22.2229
#
#
#
# Elastic Compliance Matrix: (Units=1/GPa)
#
#
# Indices 1 2 3 4 5 6 
#
# 1 0.018479 -0.004020 -0.003147 0.000000 0.000000 0.000000
# 2 -0.004020 0.018479 -0.003147 0.000000 0.000000 0.000000
# 3 -0.003147 -0.003147 0.010781 0.000000 0.000000 0.000000
# 4 0.000000 0.000000 0.000000 0.040331 0.000000 0.000000
# 5 0.000000 0.000000 0.000000 0.000000 0.040331 0.000000
# 6 0.000000 0.000000 0.000000 0.000000 0.000000 0.044999
#
#
# Mechanical properties :
#
#
# Convention : Reuss Voigt Hill
#
# Bulk Modulus (GPa) = 36.88655 39.69234 38.28945
# Shear Modulus (GPa) = 24.62255 25.44821 25.03538
#
# Velocity S-wave (km/s) = 3.77708 3.83989 3.80862
# Velocity P-wave (km/s) = 6.35562 6.53127 6.44404
#
# Compressibility (1/GPa) = 0.02711015
#
# Stress axis : x y z
#
# Youngs Moduli (GPa) = 54.11549 54.11545 92.75681
#
# Poissons Ratio (x) = 0.21757 0.29190
# Poissons Ratio (y) = 0.21757 0.29190
# Poissons Ratio (z) = 0.17030 0.17030
#
# Static dielectric constant tensor:
#      x y z
#    x 1.620450 0.000000 0.000000 
#    y 0.000000 1.620450 0.000000 
#    z 0.000000 0.000000 1.648770 
# 
# From -- ./inp_files/878.got.cif
#   From: 2010.05.17/outbox.cif.g08.bks.cpg/sg173_cif.got.tgz:878.got - 2010.05.20 11:21:53.
