data_PCOD9581424
_publ_section_title
;
Structure prediction by ZEFSAII (Michael W. Deem and Ramdas Pophale) SiO2 
 PCOD9581424
Probable space group: P 6/M
;
_chemical_formula_sum "Si O2"
_cell_formula_units_Z 48
_cell_length_a 16.609490
_cell_length_b 16.609490
_cell_length_c 8.668462
_cell_angle_alpha 90.000000
_cell_angle_beta 90.000000
_cell_angle_gamma 120.000000
_cell_volume 2071.024690
_symmetry_space_group_name_H-M "P 6/M"
_symmetry_group_IT_number 175
_symmetry_cell_setting 'hexagonal'
loop_
_space_group_symop_operation_xyz
x,y,z
x-y,x,z
-y,x-y,z
-x,-y,z
-x+y,-x,z
y,-x+y,z
-x,-y,-z
-x+y,-x,-z
y,-x+y,-z
x,y,-z
x-y,x,-z
-y,x-y,-z
loop_
_atom_site_type_symbol
_atom_site_label
_atom_site_fract_x
_atom_site_fract_y
_atom_site_fract_z
Si Si1 0.460572 0.240911 0.818297
Si Si2 0.952601 0.315501 0.681045
Si Si3 0.874789 0.429846 0.819900
Si Si4 0.023453 0.195817 0.814191
O O1 0.384204 0.151780 0.725716
O O2 0.497257 0.343956 0.755403
O O3 0.544988 0.217938 0.813756
O O4 0.433223 0.233842 0.000000
O O5 0.965533 0.323794 0.500000
O O6 0.948667 0.404213 0.747817
O O7 0.021747 0.287084 0.758957
O O8 0.896039 0.451625 0.000000
O O9 0.107622 0.181535 0.762472
O O10 0.024689 0.197370 0.000000
#
# Coordination Sequence:
#
# PCOD9581424 Si02
#       4
#    12  12  12  12
#     4   8  14  26  45  71 104 146 194 235 266 304
#     4  10  20  31  47  79 120 154 181 219 278 340
#     4   8  14  26  45  71 104 146 194 235 266 304
#     4  10  21  40  66  90 108 132 176 233 289 346
#
# _framework density 23.176931
#
# number of rings (size 3 to 8) (size 9 to 14) (size 15 to 20)
#    1.500    1.500    0.000    2.250    0.000    5.000 
#    0.000    0.000    0.000    3.000    0.000   10.500 
#    0.000    0.000    0.000    0.000    0.000    0.000 
#
# Total GULP energy -267728.968781 kJ/mol
# GULP energy per Si atom -5577.686850 kJ/mol
# Density = 2.312418 g / cm^3
# Si number density = 23.176931 Si / 1000 Ang^3
#
#
#
# Elastic Constant Matrix: (Units=GPa)
#
#
# Indices 1 2 3 4 5 6 
#
# 1 124.4790 38.9082 -1.0466 0.0000 0.0000 0.0000
# 2 38.9082 124.4790 -1.0466 0.0000 0.0000 0.0000
# 3 -1.0466 -1.0466 36.3869 0.0000 0.0000 0.0000
# 4 0.0000 0.0000 0.0000 -7.6054 0.0000 0.0000
# 5 0.0000 0.0000 0.0000 0.0000 -7.6054 0.0000
# 6 0.0000 0.0000 0.0000 0.0000 0.0000 42.7854
#
#
#
# Elastic Compliance Matrix: (Units=1/GPa)
#
#
# Indices 1 2 3 4 5 6 
#
# 1 0.008904 -0.002782 0.000176 0.000000 0.000000 0.000000
# 2 -0.002782 0.008904 0.000176 0.000000 0.000000 0.000000
# 3 0.000176 0.000176 0.027493 0.000000 0.000000 0.000000
# 4 0.000000 0.000000 0.000000 -0.131486 0.000000 0.000000
# 5 0.000000 0.000000 0.000000 0.000000 -0.131486 0.000000
# 6 0.000000 0.000000 0.000000 0.000000 0.000000 0.023372
#
#
# Mechanical properties :
#
#
# Convention : Reuss Voigt Hill
#
# Bulk Modulus (GPa) = 24.72656 39.88608 32.30632
# Shear Modulus (GPa) = -28.41598 22.08359 -3.16620
#
# Velocity S-wave (km/s) = -3.50529 3.09014 -1.17007
# Velocity P-wave (km/s) = 2.38558 5.47528 3.48480
#
# Compressibility (1/GPa) = 0.04044234
#
# Stress axis : x y z
#
# Youngs Moduli (GPa) = 112.30332 112.30332 36.37354
#
# Poissons Ratio (x) = 0.31240 -0.00641
# Poissons Ratio (y) = 0.31240 -0.00641
# Poissons Ratio (z) = -0.01978 -0.01978
#
# Static dielectric constant tensor:
#      x y z
#    x 1.939870 0.000000 0.000000 
#    y 0.000000 1.939870 0.000000 
#    z 0.000000 0.000000 1.777010 
# 
# From -- ./inp_files/528.got.cif
#   From: 2010.05.17/outbox.cif.g08.bks.cpg/sg175_1_cif.got.tgz:528.got - 2010.05.20 11:23:22.
