data_PCOD9581828
_publ_section_title
;
Structure prediction by ZEFSAII (Michael W. Deem and Ramdas Pophale) SiO2 
 PCOD9581828
Probable space group: P 63/M
;
_chemical_formula_sum "Si O2"
_cell_formula_units_Z 84
_cell_length_a 14.524195
_cell_length_b 14.524195
_cell_length_c 24.488018
_cell_angle_alpha 90.000000
_cell_angle_beta 90.000000
_cell_angle_gamma 120.000000
_cell_volume 4473.715988
_symmetry_space_group_name_H-M "P 63/M"
_symmetry_group_IT_number 176
_symmetry_cell_setting 'hexagonal'
loop_
_space_group_symop_operation_xyz
x,y,z
x-y,x,1/2+z
-y,x-y,z
-x,-y,1/2+z
-x+y,-x,z
y,-x+y,1/2+z
-x,-y,-z
-x+y,-x,1/2-z
y,-x+y,-z
x,y,1/2-z
x-y,x,-z
-y,x-y,1/2-z
loop_
_atom_site_type_symbol
_atom_site_label
_atom_site_fract_x
_atom_site_fract_y
_atom_site_fract_z
Si Si1 0.870742 0.478333 0.545189
Si Si2 0.669530 0.033527 0.359571
Si Si3 0.471696 0.372514 0.250000
Si Si4 0.463772 0.890614 0.567875
Si Si5 0.818029 0.761666 0.483104
Si Si6 0.844393 0.260506 0.573372
Si Si7 0.646138 0.887713 0.870457
Si Si8 0.871995 0.295290 0.250000
O O1 0.828318 0.434457 0.484393
O O2 0.847798 0.372770 0.576285
O O3 0.823903 0.545623 0.571354
O O4 0.996923 0.553989 0.544950
O O5 0.620226 0.030446 0.301798
O O6 0.610457 0.077487 0.398553
O O7 0.790706 0.123935 0.361256
O O8 0.653853 0.921695 0.378693
O O9 0.592522 0.467132 0.250000
O O10 0.457663 0.253834 0.250000
O O11 0.527878 0.849028 0.603996
O O12 0.795946 0.853532 0.506469
O O13 0.755209 0.654079 0.519314
O O14 0.778552 0.729801 0.420000
O O15 0.638676 0.922858 0.807785
#
# Coordination Sequence:
#
# PCOD9581828 Si02
#       8
#    12  12   6  12  12  12  12   6
#     4  10  21  32  52  82 118 159 195 239 310 377
#     4  10  21  35  56  84 120 164 201 259 320 377
#     4  10  19  36  56  87 121 165 219 264 326 384
#     4  10  19  33  51  80 117 150 200 244 301 372
#     4  12  24  41  65  93 130 168 216 274 333 388
#     4  11  21  37  57  86 125 164 203 256 315 384
#     4  11  20  38  57  87 125 163 206 261 319 382
#     4  10  21  34  60  87 123 167 211 264 320 386
#
# _framework density 18.776337999999999
#
# number of rings (size 3 to 8) (size 9 to 14) (size 15 to 20)
#    0.000    1.429    4.286    2.286    2.000    0.000 
#    0.857    0.000    0.000    7.714    0.000    0.000 
#    0.000    0.000    0.000    0.000    0.000    0.000 
#
# Total GULP energy -467685.772162 kJ/mol
# GULP energy per Si atom -5567.687764 kJ/mol
# Density = 1.873360 g / cm^3
# Si number density = 18.776338 Si / 1000 Ang^3
#
#
#
# Elastic Constant Matrix: (Units=GPa)
#
#
# Indices 1 2 3 4 5 6 
#
# 1 69.7556 13.5463 11.6270 0.0000 0.0000 0.0000
# 2 13.5463 69.7556 11.6270 0.0000 0.0000 0.0000
# 3 11.6270 11.6270 83.4827 0.0000 0.0000 0.0000
# 4 0.0000 0.0000 0.0000 25.5604 0.0000 0.0000
# 5 0.0000 0.0000 0.0000 0.0000 25.5604 0.0000
# 6 0.0000 0.0000 0.0000 0.0000 0.0000 28.1046
#
#
#
# Elastic Compliance Matrix: (Units=1/GPa)
#
#
# Indices 1 2 3 4 5 6 
#
# 1 0.015140 -0.002650 -0.001740 0.000000 0.000000 0.000000
# 2 -0.002650 0.015140 -0.001740 0.000000 0.000000 0.000000
# 3 -0.001740 -0.001740 0.012463 0.000000 0.000000 0.000000
# 4 0.000000 0.000000 0.000000 0.039123 0.000000 0.000000
# 5 0.000000 0.000000 0.000000 0.000000 0.039123 0.000000
# 6 0.000000 0.000000 0.000000 0.000000 0.000000 0.035581
#
#
# Mechanical properties :
#
#
# Convention : Reuss Voigt Hill
#
# Bulk Modulus (GPa) = 32.80288 32.95494 32.87891
# Shear Modulus (GPa) = 27.93427 28.25800 28.09614
#
# Velocity S-wave (km/s) = 3.86131 3.88362 3.87248
# Velocity P-wave (km/s) = 6.11456 6.13998 6.12728
#
# Compressibility (1/GPa) = 0.03048513
#
# Stress axis : x y z
#
# Youngs Moduli (GPa) = 66.04847 66.04847 80.23704
#
# Poissons Ratio (x) = 0.17505 0.13958
# Poissons Ratio (y) = 0.17505 0.13958
# Poissons Ratio (z) = 0.11489 0.11489
#
# Static dielectric constant tensor:
#      x y z
#    x 1.679580 0.000000 0.000000 
#    y 0.000000 1.679580 0.000000 
#    z 0.000000 0.000000 1.768260 
# 
# From -- ./inp_files/4115.got.cif
#   From: 2010.05.17/outbox.cif.g08.bks.cpg/sg176_3_cif.got.tgz:4115.got - 2010.06.03 11:36:45.
