data_PCOD9581118
_publ_section_title
;
Structure prediction by ZEFSAII (Michael W. Deem and Ramdas Pophale) SiO2 
 PCOD9581118
Probable space group: P 63
;
_chemical_formula_sum "Si O2"
_cell_formula_units_Z 36
_cell_length_a 8.507238
_cell_length_b 8.507238
_cell_length_c 27.170393
_cell_angle_alpha 90.000000
_cell_angle_beta 90.000000
_cell_angle_gamma 120.000000
_cell_volume 1702.957140
_symmetry_space_group_name_H-M "P 63"
_symmetry_group_IT_number 173
_symmetry_cell_setting 'hexagonal'
loop_
_space_group_symop_operation_xyz
x,y,z
x-y,x,1/2+z
-y,x-y,z
-x,-y,1/2+z
-x+y,-x,z
y,-x+y,1/2+z
loop_
_atom_site_type_symbol
_atom_site_label
_atom_site_fract_x
_atom_site_fract_y
_atom_site_fract_z
Si Si1 0.470099 0.906483 0.445200
Si Si2 0.640168 0.007617 0.343284
Si Si3 0.632551 0.992383 0.154000
Si Si4 0.687460 0.690492 0.304748
Si Si5 0.312540 0.003032 0.192537
Si Si6 0.093517 0.529901 0.552084
O O1 0.250830 0.777865 0.443462
O O2 0.565193 0.018976 0.396974
O O3 0.499011 0.998022 0.498642
O O4 0.612019 0.810999 0.329624
O O5 0.518381 0.047533 0.306066
O O6 0.850574 0.146686 0.335646
O O7 0.546217 0.981024 0.100310
O O8 0.801020 0.189001 0.167660
O O9 0.470848 0.952467 0.191218
O O10 0.703888 0.853314 0.161639
O O11 0.746728 0.746728 0.248642
O O12 0.250830 0.472965 0.553822
#
# Coordination Sequence:
#
# PCOD9581118 Si02
#       6
#     6   6   6   6   6   6
#     4   8  15  35  68  91 116 160 203 261 332 388
#     4  12  23  42  63  94 130 173 220 272 329 392
#     4  12  23  42  63  94 130 173 220 272 329 392
#     4  12  24  39  61  91 130 174 221 267 325 393
#     4  12  24  39  61  91 130 174 221 267 325 393
#     4   8  15  35  68  91 116 160 203 261 332 388
#
# _framework density 21.139697999999999
#
# number of rings (size 3 to 8) (size 9 to 14) (size 15 to 20)
#    0.667    0.667    3.333    5.000    0.000    0.000 
#    0.000    1.667    0.000    0.000    0.000    0.000 
#    0.000    0.000    0.000    0.000    0.000    0.000 
#
# Total GULP energy -200644.603603 kJ/mol
# GULP energy per Si atom -5573.461211 kJ/mol
# Density = 2.109158 g / cm^3
# Si number density = 21.139698 Si / 1000 Ang^3
#
#
#
# Elastic Constant Matrix: (Units=GPa)
#
#
# Indices 1 2 3 4 5 6 
#
# 1 51.9911 -2.8563 14.7462 0.0000 0.0000 0.0000
# 2 -2.8563 51.9911 14.7462 0.0000 0.0000 0.0000
# 3 14.7462 14.7462 191.5610 0.0000 0.0000 0.0000
# 4 0.0000 0.0000 0.0000 18.6040 0.0000 0.0000
# 5 0.0000 0.0000 0.0000 0.0000 18.6040 0.0000
# 6 0.0000 0.0000 0.0000 0.0000 0.0000 27.4237
#
#
#
# Elastic Compliance Matrix: (Units=1/GPa)
#
#
# Indices 1 2 3 4 5 6 
#
# 1 0.019785 0.001553 -0.001643 0.000000 0.000000 0.000000
# 2 0.001553 0.019785 -0.001643 0.000000 0.000000 0.000000
# 3 -0.001643 -0.001643 0.005473 0.000000 0.000000 0.000000
# 4 0.000000 0.000000 0.000000 0.053752 0.000000 0.000000
# 5 0.000000 0.000000 0.000000 0.000000 0.053752 0.000000
# 6 0.000000 0.000000 0.000000 0.000000 0.000000 0.036465
#
#
# Mechanical properties :
#
#
# Convention : Reuss Voigt Hill
#
# Bulk Modulus (GPa) = 24.05056 38.75723 31.40389
# Shear Modulus (GPa) = 24.23225 30.85348 27.54286
#
# Velocity S-wave (km/s) = 3.38937 3.82449 3.61348
# Velocity P-wave (km/s) = 5.16902 6.15435 5.68308
#
# Compressibility (1/GPa) = 0.04157908
#
# Stress axis : x y z
#
# Youngs Moduli (GPa) = 50.54264 50.54264 182.70984
#
# Poissons Ratio (x) = -0.07849 0.30012
# Poissons Ratio (y) = -0.07849 0.30012
# Poissons Ratio (z) = 0.08302 0.08302
#
# Static dielectric constant tensor:
#      x y z
#    x 1.787990 0.000000 0.000000 
#    y 0.000000 1.787990 0.000000 
#    z 0.000000 0.000000 1.827590 
# 
# From -- ./inp_files/1484.got.cif
#   From: 2010.05.17/outbox.cif.g08.bks.cpg/sg173_cif.got.tgz:1484.got - 2010.05.20 11:21:53.
