data_PCOD9581073
_publ_section_title
;
Structure prediction by ZEFSAII (Michael W. Deem and Ramdas Pophale) SiO2 
 PCOD9581073
Probable space group: P 63
;
_chemical_formula_sum "Si O2"
_cell_formula_units_Z 34
_cell_length_a 8.260259
_cell_length_b 8.260259
_cell_length_c 28.637148
_cell_angle_alpha 90.000000
_cell_angle_beta 90.000000
_cell_angle_gamma 120.000000
_cell_volume 1692.184549
_symmetry_space_group_name_H-M "P 63"
_symmetry_group_IT_number 173
_symmetry_cell_setting 'hexagonal'
loop_
_space_group_symop_operation_xyz
x,y,z
x-y,x,1/2+z
-y,x-y,z
-x,-y,1/2+z
-x+y,-x,z
y,-x+y,1/2+z
loop_
_atom_site_type_symbol
_atom_site_label
_atom_site_fract_x
_atom_site_fract_y
_atom_site_fract_z
Si Si1 0.964403 0.287761 0.211850
Si Si2 0.573802 0.480519 0.464017
Si Si3 0.333333 0.666668 0.426571
Si Si4 0.370993 0.014235 0.568852
Si Si5 0.333334 0.666668 0.315484
Si Si6 0.677735 0.974879 0.606242
Si Si7 0.344953 0.371489 0.249649
O O1 0.915560 0.222153 0.158607
O O2 0.138219 0.270596 0.228631
O O3 0.033229 0.506420 0.215152
O O4 0.795303 0.185863 0.248633
O O5 0.466529 0.256464 0.452302
O O6 0.468335 0.584663 0.443192
O O7 0.593752 0.526381 0.519275
O O8 0.333334 0.666667 0.370603
O O9 0.202456 0.803758 0.572337
O O10 0.527464 0.042746 0.605785
O O11 0.279403 0.136685 0.584465
O O12 0.345758 0.490199 0.294340
#
# Coordination Sequence:
#
# PCOD9581073 Si02
#       7
#     6   6   2   6   2   6   6
#     4  11  20  36  57  90 125 178 219 272 330 401
#     4  10  23  48  69 108 143 189 243 289 382 441
#     4  12  24  51  84 102 150 180 234 330 369 471
#     4  12  23  39  56  89 134 178 228 288 326 409
#     4   9  24  48  69 105 117 168 225 288 378 429
#     4  12  22  34  57  88 127 178 233 270 324 397
#     4  10  22  40  62  86 134 167 218 279 345 414
#
# _framework density 20.092371
#
# number of rings (size 3 to 8) (size 9 to 14) (size 15 to 20)
#    0.353    0.706    1.765    6.353    0.000    0.000 
#    7.412    0.000    0.000    0.000    0.000    0.000 
#    0.000    0.000    0.000    0.000    0.000    0.000 
#
# Total GULP energy -189437.007002 kJ/mol
# GULP energy per Si atom -5571.676677 kJ/mol
# Density = 2.004664 g / cm^3
# Si number density = 20.092371 Si / 1000 Ang^3
#
#
#
# Elastic Constant Matrix: (Units=GPa)
#
#
# Indices 1 2 3 4 5 6 
#
# 1 102.3888 33.3642 42.4714 0.0000 0.0000 -0.0001
# 2 33.3642 102.3896 42.4715 0.0000 0.0000 0.0000
# 3 42.4714 42.4715 109.6316 0.0000 0.0000 -0.0001
# 4 0.0000 0.0000 0.0000 14.7991 0.0000 0.0000
# 5 0.0000 0.0000 0.0000 0.0000 14.7990 0.0000
# 6 -0.0001 0.0000 -0.0001 0.0000 0.0000 34.5124
#
#
#
# Elastic Compliance Matrix: (Units=1/GPa)
#
#
# Indices 1 2 3 4 5 6 
#
# 1 0.012105 -0.002382 -0.003767 0.000000 0.000000 0.000000
# 2 -0.002382 0.012105 -0.003767 0.000000 0.000000 0.000000
# 3 -0.003767 -0.003767 0.012040 0.000000 0.000000 0.000000
# 4 0.000000 0.000000 0.000000 0.067571 0.000000 0.000000
# 5 0.000000 0.000000 0.000000 0.000000 0.067572 0.000000
# 6 0.000000 0.000000 0.000000 0.000000 0.000000 0.028975
#
#
# Mechanical properties :
#
#
# Convention : Reuss Voigt Hill
#
# Bulk Modulus (GPa) = 60.90404 61.22490 61.06447
# Shear Modulus (GPa) = 22.15584 25.89563 24.02574
#
# Velocity S-wave (km/s) = 3.32429 3.59392 3.46173
# Velocity P-wave (km/s) = 6.71658 6.91083 6.81440
#
# Compressibility (1/GPa) = 0.01641927
#
# Stress axis : x y z
#
# Youngs Moduli (GPa) = 82.60759 82.60840 83.05656
#
# Poissons Ratio (x) = 0.19678 0.31286
# Poissons Ratio (y) = 0.19678 0.31286
# Poissons Ratio (z) = 0.31117 0.31117
#
# Static dielectric constant tensor:
#      x y z
#    x 1.777090 0.000000 0.000000 
#    y 0.000000 1.777090 0.000000 
#    z 0.000000 0.000000 1.652310 
# 
# From -- ./inp_files/1488.got.cif
#   From: 2010.05.17/outbox.cif.g08.bks.cpg/sg173_cif.got.tgz:1488.got - 2010.05.20 11:21:53.
