data_PCOD9581421
_publ_section_title
;
Structure prediction by ZEFSAII (Michael W. Deem and Ramdas Pophale) SiO2 
 PCOD9581421
Probable space group: P 6/M
;
_chemical_formula_sum "Si O2"
_cell_formula_units_Z 78
_cell_length_a 22.561943
_cell_length_b 22.561943
_cell_length_c 7.841068
_cell_angle_alpha 90.000000
_cell_angle_beta 90.000000
_cell_angle_gamma 120.000000
_cell_volume 3456.677377
_symmetry_space_group_name_H-M "P 6/M"
_symmetry_group_IT_number 175
_symmetry_cell_setting 'hexagonal'
loop_
_space_group_symop_operation_xyz
x,y,z
x-y,x,z
-y,x-y,z
-x,-y,z
-x+y,-x,z
y,-x+y,z
-x,-y,-z
-x+y,-x,-z
y,-x+y,-z
x,y,-z
x-y,x,-z
-y,x-y,-z
loop_
_atom_site_type_symbol
_atom_site_label
_atom_site_fract_x
_atom_site_fract_y
_atom_site_fract_z
Si Si1 0.493808 0.817374 0.312726
Si Si2 0.309269 0.920948 0.794078
Si Si3 0.297846 0.159557 0.300080
Si Si4 0.304441 0.578622 0.000000
Si Si5 0.477037 0.555498 0.206614
Si Si6 0.111845 0.960737 0.708048
Si Si7 0.925266 0.284540 0.803503
O O1 0.476348 0.786309 0.500000
O O2 0.462173 0.866858 0.282774
O O3 0.574568 0.868916 0.294884
O O4 0.466160 0.760657 0.165761
O O5 0.233711 0.870664 0.728134
O O6 0.369391 0.906591 0.743247
O O7 0.331635 0.998313 0.738543
O O8 0.305836 0.919068 0.000000
O O9 0.290231 0.142718 0.500000
O O10 0.229901 0.160379 0.241661
O O11 0.305254 0.100642 0.207994
O O12 0.382572 0.643505 0.000000
O O13 0.500000 0.500000 0.254578
O O14 0.470633 0.552304 0.000000
O O15 0.112635 0.964079 0.500000
O O16 0.035920 0.904347 0.765385
O O17 0.923880 0.304725 0.000000
#
# Coordination Sequence:
#
# PCOD9581421 Si02
#       7
#    12  12  12   6  12  12  12
#     4  12  24  42  73 104 131 170 224 275 335 403
#     4  10  22  39  64  92 123 171 217 265 329 398
#     4  11  23  37  55  89 132 169 211 272 335 397
#     4  10  26  50  71  92 134 180 212 270 329 384
#     4  10  19  39  67  95 130 170 215 272 334 395
#     4   9  17  31  53  81 118 165 215 268 327 390
#     4  11  22  42  66  89 129 174 219 271 331 392
#
# _framework density 22.565023
#
# number of rings (size 3 to 8) (size 9 to 14) (size 15 to 20)
#    0.154    1.385    3.077    2.000    0.000    5.846 
#    0.000    0.000    0.000    0.000    0.000    0.000 
#    0.000    7.385    0.000    0.000    0.000    0.000 
#
# Total GULP energy -436415.489554 kJ/mol
# GULP energy per Si atom -5595.070379 kJ/mol
# Density = 2.251366 g / cm^3
# Si number density = 22.565023 Si / 1000 Ang^3
#
#
#
# Elastic Constant Matrix: (Units=GPa)
#
#
# Indices 1 2 3 4 5 6 
#
# 1 71.1312 -4.4695 1.1013 0.0000 0.0000 0.0000
# 2 -4.4695 71.1312 1.1013 0.0000 0.0000 0.0000
# 3 1.1013 1.1013 76.7567 0.0000 0.0000 0.0000
# 4 0.0000 0.0000 0.0000 6.4894 0.0000 0.0000
# 5 0.0000 0.0000 0.0000 0.0000 6.4894 0.0000
# 6 0.0000 0.0000 0.0000 0.0000 0.0000 37.8004
#
#
#
# Elastic Compliance Matrix: (Units=1/GPa)
#
#
# Indices 1 2 3 4 5 6 
#
# 1 0.014118 0.000890 -0.000215 0.000000 0.000000 0.000000
# 2 0.000890 0.014118 -0.000215 0.000000 0.000000 0.000000
# 3 -0.000215 -0.000215 0.013034 0.000000 0.000000 0.000000
# 4 0.000000 0.000000 0.000000 0.154099 0.000000 0.000000
# 5 0.000000 0.000000 0.000000 0.000000 0.154099 0.000000
# 6 0.000000 0.000000 0.000000 0.000000 0.000000 0.026455
#
#
# Mechanical properties :
#
#
# Convention : Reuss Voigt Hill
#
# Bulk Modulus (GPa) = 23.70260 23.83170 23.76715
# Shear Modulus (GPa) = 12.85130 24.90822 18.87976
#
# Velocity S-wave (km/s) = 2.38906 3.32602 2.89568
# Velocity P-wave (km/s) = 4.25876 5.03330 4.66214
#
# Compressibility (1/GPa) = 0.04218947
#
# Stress axis : x y z
#
# Youngs Moduli (GPa) = 70.83255 70.83255 76.72029
#
# Poissons Ratio (x) = -0.06307 0.01652
# Poissons Ratio (y) = -0.06307 0.01652
# Poissons Ratio (z) = 0.01525 0.01525
#
# Static dielectric constant tensor:
#      x y z
#    x 1.810070 0.000000 0.000000 
#    y 0.000000 1.810070 0.000000 
#    z 0.000000 0.000000 1.825840 
# 
# From -- ./inp_files/1297.got.cif
#   From: 2010.05.17/outbox.cif.g08.bks.cpg/sg175_1_cif.got.tgz:1297.got - 2010.05.20 11:23:22.
