data_PCOD9581855
_publ_section_title
;
Structure prediction by ZEFSAII (Michael W. Deem and Ramdas Pophale) SiO2 
 PCOD9581855
Probable space group: P 63/M
;
_chemical_formula_sum "Si O2"
_cell_formula_units_Z 66
_cell_length_a 14.488496
_cell_length_b 14.488496
_cell_length_c 19.815919
_cell_angle_alpha 90.000000
_cell_angle_beta 90.000000
_cell_angle_gamma 120.000000
_cell_volume 3602.396073
_symmetry_space_group_name_H-M "P 63/M"
_symmetry_group_IT_number 176
_symmetry_cell_setting 'hexagonal'
loop_
_space_group_symop_operation_xyz
x,y,z
x-y,x,1/2+z
-y,x-y,z
-x,-y,1/2+z
-x+y,-x,z
y,-x+y,1/2+z
-x,-y,-z
-x+y,-x,1/2-z
y,-x+y,-z
x,y,1/2-z
x-y,x,-z
-y,x-y,1/2-z
loop_
_atom_site_type_symbol
_atom_site_label
_atom_site_fract_x
_atom_site_fract_y
_atom_site_fract_z
Si Si1 0.984196 0.214210 0.390465
Si Si2 0.975204 0.105209 0.250000
Si Si3 0.166294 0.841013 0.489890
Si Si4 0.636697 0.102720 0.171405
Si Si5 0.597249 0.994847 0.464944
Si Si6 0.692747 0.558689 0.171486
O O1 0.145719 0.245120 0.550867
O O2 0.966164 0.155177 0.319667
O O3 0.100259 0.259978 0.422525
O O4 0.088646 0.109145 0.250000
O O5 0.290409 0.905881 0.509219
O O6 0.042796 0.692315 0.626207
O O7 0.111820 0.714527 0.479924
O O8 0.628607 0.069765 0.250000
O O9 0.600471 0.011798 0.115686
O O10 0.557199 0.149379 0.160942
O O11 0.757027 0.197134 0.159339
O O12 0.500000 0.000000 0.500000
O O13 0.690295 0.584538 0.250000
#
# Coordination Sequence:
#
# PCOD9581855 Si02
#       6
#    12   6  12  12  12  12
#     4  11  21  41  59  86 121 163 200 245 312 363
#     4  10  26  36  56  88 116 156 208 258 294 370
#     4  10  24  40  63  88 123 165 202 253 309 375
#     4  10  20  34  59  91 120 156 202 249 308 364
#     4  11  23  42  63  91 125 164 209 255 309 373
#     4  10  19  35  58  88 124 158 197 257 307 363
#
# _framework density 18.321138999999999
#
# number of rings (size 3 to 8) (size 9 to 14) (size 15 to 20)
#    0.182    1.455    2.727    2.545    5.091    1.455 
#    2.727    0.909    0.000    0.000    0.000    0.000 
#    0.000    0.000    0.000    0.000    0.000    0.000 
#
# Total GULP energy -367974.955751 kJ/mol
# GULP energy per Si atom -5575.378117 kJ/mol
# Density = 1.827944 g / cm^3
# Si number density = 18.321139 Si / 1000 Ang^3
#
#
#
# Elastic Constant Matrix: (Units=GPa)
#
#
# Indices 1 2 3 4 5 6 
#
# 1 85.8406 26.4390 29.7115 0.0000 0.0000 0.0000
# 2 26.4390 85.8406 29.7115 0.0000 0.0000 0.0000
# 3 29.7115 29.7115 104.5379 0.0000 0.0000 0.0000
# 4 0.0000 0.0000 0.0000 29.3760 0.0000 0.0000
# 5 0.0000 0.0000 0.0000 0.0000 29.3760 0.0000
# 6 0.0000 0.0000 0.0000 0.0000 0.0000 29.7008
#
#
#
# Elastic Compliance Matrix: (Units=1/GPa)
#
#
# Indices 1 2 3 4 5 6 
#
# 1 0.013659 -0.003176 -0.002980 0.000000 0.000000 0.000000
# 2 -0.003176 0.013659 -0.002980 0.000000 0.000000 0.000000
# 3 -0.002980 -0.002980 0.011260 0.000000 0.000000 0.000000
# 4 0.000000 0.000000 0.000000 0.034041 0.000000 0.000000
# 5 0.000000 0.000000 0.000000 0.000000 0.034041 0.000000
# 6 0.000000 0.000000 0.000000 0.000000 0.000000 0.033669
#
#
# Mechanical properties :
#
#
# Convention : Reuss Voigt Hill
#
# Bulk Modulus (GPa) = 49.24179 49.77144 49.50662
# Shear Modulus (GPa) = 30.23563 30.38106 30.30834
#
# Velocity S-wave (km/s) = 4.06681 4.07658 4.07170
# Velocity P-wave (km/s) = 6.99910 7.02731 7.01322
#
# Compressibility (1/GPa) = 0.02030795
#
# Stress axis : x y z
#
# Youngs Moduli (GPa) = 73.21245 73.21245 88.81336
#
# Poissons Ratio (x) = 0.23250 0.26462
# Poissons Ratio (y) = 0.23250 0.26462
# Poissons Ratio (z) = 0.21814 0.21814
#
# Static dielectric constant tensor:
#      x y z
#    x 1.631910 0.000000 0.000000 
#    y 0.000000 1.631910 0.000000 
#    z 0.000000 0.000000 1.678110 
# 
# From -- ./inp_files/2811.got.cif
#   From: 2010.05.17/outbox.cif.g08.bks.cpg/sg176_2_cif.got.tgz:2811.got - 2010.06.03 11:36:45.
