data_PCOD9581366
_publ_section_title
;
Structure prediction by ZEFSAII (Michael W. Deem and Ramdas Pophale) SiO2 
 PCOD9581366
Probable space group: P 6/M
;
_chemical_formula_sum "Si O2"
_cell_formula_units_Z 84
_cell_length_a 14.756474
_cell_length_b 14.756474
_cell_length_c 23.915117
_cell_angle_alpha 90.000000
_cell_angle_beta 90.000000
_cell_angle_gamma 120.000000
_cell_volume 4509.914781
_symmetry_space_group_name_H-M "P 6/M"
_symmetry_group_IT_number 175
_symmetry_cell_setting 'hexagonal'
loop_
_space_group_symop_operation_xyz
x,y,z
x-y,x,z
-y,x-y,z
-x,-y,z
-x+y,-x,z
y,-x+y,z
-x,-y,-z
-x+y,-x,-z
y,-x+y,-z
x,y,-z
x-y,x,-z
-y,x-y,-z
loop_
_atom_site_type_symbol
_atom_site_label
_atom_site_fract_x
_atom_site_fract_y
_atom_site_fract_z
Si Si1 0.243081 0.814085 0.146446
Si Si2 0.843213 0.646500 0.322304
Si Si3 0.235824 0.118439 0.778036
Si Si4 0.421160 0.035642 0.286320
Si Si5 0.241420 0.174287 0.933559
Si Si6 0.149387 0.901424 0.436624
Si Si7 0.584695 0.479613 0.161542
O O1 0.182475 0.831486 0.197281
O O2 0.242747 0.893469 0.100317
O O3 0.171954 0.693205 0.129969
O O4 0.354315 0.832149 0.166963
O O5 0.871238 0.752326 0.288567
O O6 0.717156 0.579801 0.311742
O O7 0.866308 0.667574 0.387522
O O8 0.930455 0.622060 0.295744
O O9 0.176127 0.176764 0.796990
O O10 0.458936 0.066917 0.221375
O O11 0.500000 0.000000 0.310912
O O12 0.150758 0.202676 0.920967
O O13 0.260250 0.188684 0.000000
O O14 0.175251 0.884484 0.500000
O O15 0.024201 0.834264 0.430528
O O16 0.500000 0.500000 0.131226
#
# Coordination Sequence:
#
# PCOD9581366 Si02
#       7
#    12  12  12  12  12  12  12
#     4  12  23  40  59  83 119 159 204 261 313 361
#     4  12  20  39  59  83 124 157 204 262 314 378
#     4  12  21  33  53  84 120 157 187 240 309 391
#     4  11  24  39  59  87 120 164 208 258 319 381
#     4  10  21  39  65  95 127 162 199 242 300 375
#     4  10  19  32  56  89 127 165 201 247 308 385
#     4  11  23  38  57  84 115 155 205 254 313 371
#
# _framework density 18.625629
#
# number of rings (size 3 to 8) (size 9 to 14) (size 15 to 20)
#    0.000    0.857    4.286    5.000    0.000    1.143 
#    0.857    3.571    0.000    4.286    0.000    0.000 
#    0.000    0.000    0.000    0.000    0.000    0.000 
#
# Total GULP energy -468074.587579 kJ/mol
# GULP energy per Si atom -5572.316519 kJ/mol
# Density = 1.858324 g / cm^3
# Si number density = 18.625629 Si / 1000 Ang^3
#
#
#
# Elastic Constant Matrix: (Units=GPa)
#
#
# Indices 1 2 3 4 5 6 
#
# 1 91.9000 45.9344 12.2346 0.0000 0.0000 0.0000
# 2 45.9344 91.9000 12.2346 0.0000 0.0000 0.0000
# 3 12.2346 12.2346 76.5169 0.0000 0.0000 0.0000
# 4 0.0000 0.0000 0.0000 19.8346 0.0000 0.0000
# 5 0.0000 0.0000 0.0000 0.0000 19.8346 0.0000
# 6 0.0000 0.0000 0.0000 0.0000 0.0000 22.9828
#
#
#
# Elastic Compliance Matrix: (Units=1/GPa)
#
#
# Indices 1 2 3 4 5 6 
#
# 1 0.014611 -0.007144 -0.001194 0.000000 0.000000 0.000000
# 2 -0.007144 0.014611 -0.001194 0.000000 0.000000 0.000000
# 3 -0.001194 -0.001194 0.013451 0.000000 0.000000 0.000000
# 4 0.000000 0.000000 0.000000 0.050417 0.000000 0.000000
# 5 0.000000 0.000000 0.000000 0.000000 0.050417 0.000000
# 6 0.000000 0.000000 0.000000 0.000000 0.000000 0.043511
#
#
# Mechanical properties :
#
#
# Convention : Reuss Voigt Hill
#
# Bulk Modulus (GPa) = 42.35646 44.56934 43.46290
# Shear Modulus (GPa) = 23.36975 25.19130 24.28053
#
# Velocity S-wave (km/s) = 3.54603 3.68163 3.61447
# Velocity P-wave (km/s) = 6.28936 6.48487 6.38787
#
# Compressibility (1/GPa) = 0.02360915
#
# Stress axis : x y z
#
# Youngs Moduli (GPa) = 68.44060 68.44060 74.34499
#
# Poissons Ratio (x) = 0.48895 0.08876
# Poissons Ratio (y) = 0.48895 0.08876
# Poissons Ratio (z) = 0.08171 0.08171
#
# Static dielectric constant tensor:
#      x y z
#    x 1.682620 0.000000 0.000000 
#    y 0.000000 1.682620 0.000000 
#    z 0.000000 0.000000 1.685960 
# 
# From -- ./inp_files/3246.got.cif
#   From: 2010.05.17/outbox.cif.g08.bks.cpg/sg175_2_cif.got.tgz:3246.got - 2010.05.20 11:23:22.
