data_PCOD9581010
_publ_section_title
;
Structure prediction by ZEFSAII (Michael W. Deem and Ramdas Pophale) SiO2 
 PCOD9581010
Probable space group: P 63
;
_chemical_formula_sum "Si O2"
_cell_formula_units_Z 42
_cell_length_a 11.097940
_cell_length_b 11.097940
_cell_length_c 18.356653
_cell_angle_alpha 90.000000
_cell_angle_beta 90.000000
_cell_angle_gamma 120.000000
_cell_volume 1957.982812
_symmetry_space_group_name_H-M "P 63"
_symmetry_group_IT_number 173
_symmetry_cell_setting 'hexagonal'
loop_
_space_group_symop_operation_xyz
x,y,z
x-y,x,1/2+z
-y,x-y,z
-x,-y,1/2+z
-x+y,-x,z
y,-x+y,1/2+z
loop_
_atom_site_type_symbol
_atom_site_label
_atom_site_fract_x
_atom_site_fract_y
_atom_site_fract_z
Si Si1 0.910269 0.601839 0.390500
Si Si2 0.587227 0.967421 0.695102
Si Si3 0.645333 0.608267 0.355079
Si Si4 0.284539 0.933612 0.672632
Si Si5 0.081830 0.372783 0.511839
Si Si6 0.143760 0.168721 0.300896
Si Si7 0.982347 0.378718 0.036216
O O1 0.766775 0.568386 0.353278
O O2 0.961677 0.497266 0.367779
O O3 0.018998 0.757160 0.364720
O O4 0.900720 0.593785 0.477285
O O5 0.652108 0.028843 0.774075
O O6 0.433257 0.949383 0.692720
O O7 0.594089 0.825463 0.684334
O O8 0.650291 0.039084 0.617652
O O9 0.673999 0.695685 0.430211
O O10 0.279467 0.980978 0.589779
O O11 0.239297 0.016930 0.726941
O O12 0.072343 0.512162 0.524770
O O13 0.232597 0.386611 0.517093
O O14 0.136018 0.018210 0.306042
#
# Coordination Sequence:
#
# PCOD9581010 Si02
#       7
#     6   6   6   6   6   6   6
#     4  11  22  38  58  90 122 159 206 259 310 366
#     4  10  17  32  62  85 115 149 202 259 303 355
#     4  11  20  35  60  89 115 157 210 262 307 362
#     4  10  18  37  56  93 119 151 204 254 308 360
#     4   9  20  34  58  84 116 154 196 249 309 364
#     4  10  23  37  57  86 127 165 196 248 307 372
#     4   9  20  35  57  85 120 151 198 259 312 365
#
# _framework density 21.450648999999999
#
# number of rings (size 3 to 8) (size 9 to 14) (size 15 to 20)
#    0.286    1.714    2.857    0.857    2.000    2.286 
#    5.143    0.000    0.000    0.000    0.000    0.000 
#    1.429    0.000    0.000    0.000    0.000    0.000 
#
# Total GULP energy -233836.610230 kJ/mol
# GULP energy per Si atom -5567.538339 kJ/mol
# Density = 2.140183 g / cm^3
# Si number density = 21.450649 Si / 1000 Ang^3
#
#
#
# Elastic Constant Matrix: (Units=GPa)
#
#
# Indices 1 2 3 4 5 6 
#
# 1 46.7537 0.6395 19.1429 0.0000 0.0000 0.0000
# 2 0.6395 46.7537 19.1429 0.0000 0.0000 0.0000
# 3 19.1429 19.1429 224.3121 0.0000 0.0000 0.0000
# 4 0.0000 0.0000 0.0000 26.8238 0.0000 0.0000
# 5 0.0000 0.0000 0.0000 0.0000 26.8238 0.0000
# 6 0.0000 0.0000 0.0000 0.0000 0.0000 23.0571
#
#
#
# Elastic Compliance Matrix: (Units=1/GPa)
#
#
# Indices 1 2 3 4 5 6 
#
# 1 0.022174 0.000489 -0.001934 0.000000 0.000000 0.000000
# 2 0.000489 0.022174 -0.001934 0.000000 0.000000 0.000000
# 3 -0.001934 -0.001934 0.004788 0.000000 0.000000 0.000000
# 4 0.000000 0.000000 0.000000 0.037280 0.000000 0.000000
# 5 0.000000 0.000000 0.000000 0.000000 0.037280 0.000000
# 6 0.000000 0.000000 0.000000 0.000000 0.000000 0.043371
#
#
# Mechanical properties :
#
#
# Convention : Reuss Voigt Hill
#
# Bulk Modulus (GPa) = 23.59772 43.96333 33.78052
# Shear Modulus (GPa) = 26.60256 33.93388 30.26822
#
# Velocity S-wave (km/s) = 3.52543 3.98169 3.76049
# Velocity P-wave (km/s) = 5.25323 6.45586 5.88534
#
# Compressibility (1/GPa) = 0.04237698
#
# Stress axis : x y z
#
# Youngs Moduli (GPa) = 45.09809 45.09809 208.84788
#
# Poissons Ratio (x) = -0.02203 0.40392
# Poissons Ratio (y) = -0.02203 0.40392
# Poissons Ratio (z) = 0.08722 0.08722
#
# Static dielectric constant tensor:
#      x y z
#    x 1.793630 0.000000 0.000000 
#    y 0.000000 1.793630 0.000000 
#    z 0.000000 0.000000 1.850710 
# 
# From -- ./inp_files/1293.got.cif
#   From: 2010.05.17/outbox.cif.g08.bks.cpg/sg173_cif.got.tgz:1293.got - 2010.05.20 11:21:53.
