data_PCOD9581157
_publ_section_title
;
Structure prediction by ZEFSAII (Michael W. Deem and Ramdas Pophale) SiO2 
 PCOD9581157
Probable space group: P -6
;
_chemical_formula_sum "Si O2"
_cell_formula_units_Z 29
_cell_length_a 8.088842
_cell_length_b 8.088842
_cell_length_c 25.240282
_cell_angle_alpha 90.000000
_cell_angle_beta 90.000000
_cell_angle_gamma 120.000000
_cell_volume 1430.202521
_symmetry_space_group_name_H-M "P -6"
_symmetry_group_IT_number 174
_symmetry_cell_setting 'hexagonal'
loop_
_space_group_symop_operation_xyz
x,y,z
-x+y,-x,-z
-y,x-y,z
x,y,-z
-x+y,-x,z
-y,x-y,-z
loop_
_atom_site_type_symbol
_atom_site_label
_atom_site_fract_x
_atom_site_fract_y
_atom_site_fract_z
Si Si1 0.976821 0.675649 0.886409
Si Si2 0.088637 0.520312 0.387088
Si Si3 0.839948 0.578550 0.000000
Si Si4 0.579287 0.495169 0.272204
Si Si5 0.348132 0.982677 0.840515
Si Si6 0.666668 0.333335 0.563082
O O1 0.919719 0.459307 0.875143
O O2 0.858671 0.730486 0.846443
O O3 0.194599 0.793133 0.868828
O O4 0.931474 0.695928 0.946764
O O5 0.250793 0.461980 0.398908
O O6 0.039393 0.478508 0.324932
O O7 0.883938 0.415611 0.415788
O O8 0.609075 0.475953 0.000000
O O9 0.464878 0.263012 0.272244
O O10 0.559726 0.589954 0.218807
O O11 0.666667 0.333334 0.500000
#
# Coordination Sequence:
#
# PCOD9581157 Si02
#       6
#     6   6   3   6   6   2
#     4  12  24  41  64  88 127 161 217 279 342 426
#     4  10  24  43  73 112 151 196 260 314 369 441
#     4  10  20  42  70  80 108 170 216 274 360 414
#     4  10  19  40  72  91 143 191 227 285 364 424
#     4  12  24  41  60 102 126 170 217 275 346 422
#     4  12  24  51  78 105 162 216 255 319 380 436
#
# _framework density 20.276845999999999
#
# number of rings (size 3 to 8) (size 9 to 14) (size 15 to 20)
#    1.034    0.000    6.207    1.241    2.897    2.483 
#    1.241    0.000    0.000    0.000    0.000    0.000 
#    0.000    0.000    0.000    0.000    0.000    0.000 
#
# Total GULP energy -161594.654728 kJ/mol
# GULP energy per Si atom -5572.229473 kJ/mol
# Density = 2.023070 g / cm^3
# Si number density = 20.276846 Si / 1000 Ang^3
#
#
#
# Elastic Constant Matrix: (Units=GPa)
#
#
# Indices 1 2 3 4 5 6 
#
# 1 91.2407 32.0831 34.6772 0.0000 0.0000 -0.0002
# 2 32.0831 91.2399 34.6771 0.0000 0.0000 -0.0005
# 3 34.6772 34.6771 142.1631 0.0000 0.0000 -0.0001
# 4 0.0000 0.0000 0.0000 15.5122 0.0000 0.0000
# 5 0.0000 0.0000 0.0000 0.0000 15.5122 0.0000
# 6 -0.0002 -0.0005 -0.0001 0.0000 0.0000 29.5789
#
#
#
# Elastic Compliance Matrix: (Units=1/GPa)
#
#
# Indices 1 2 3 4 5 6 
#
# 1 0.013151 -0.003753 -0.002292 0.000000 0.000000 0.000000
# 2 -0.003753 0.013151 -0.002292 0.000000 0.000000 0.000000
# 3 -0.002292 -0.002292 0.008153 0.000000 0.000000 0.000000
# 4 0.000000 0.000000 0.000000 0.064465 0.000000 0.000000
# 5 0.000000 0.000000 0.000000 0.000000 0.064465 0.000000
# 6 0.000000 0.000000 0.000000 0.000000 0.000000 0.033808
#
#
# Mechanical properties :
#
#
# Convention : Reuss Voigt Hill
#
# Bulk Modulus (GPa) = 56.24664 58.61316 57.42990
# Shear Modulus (GPa) = 22.74845 27.00109 24.87477
#
# Velocity S-wave (km/s) = 3.35310 3.65310 3.50631
# Velocity P-wave (km/s) = 6.54145 6.83833 6.69154
#
# Compressibility (1/GPa) = 0.01777884
#
# Stress axis : x y z
#
# Youngs Moduli (GPa) = 76.04000 76.03936 122.66147
#
# Poissons Ratio (x) = 0.28538 0.28119
# Poissons Ratio (y) = 0.28538 0.28119
# Poissons Ratio (z) = 0.17431 0.17431
#
# Static dielectric constant tensor:
#      x y z
#    x 1.813550 0.000000 0.000000 
#    y 0.000000 1.813550 0.000000 
#    z 0.000000 0.000000 1.689180 
# 
# From -- ./inp_files/1074.got.cif
#   From: 2010.05.17/outbox.cif.g08.bks.cpg/sg174_cif.got.tgz:1074.got - 2010.05.20 11:22:48.
