data_PCOD9581128
_publ_section_title
;
Structure prediction by ZEFSAII (Michael W. Deem and Ramdas Pophale) SiO2 
 PCOD9581128
Probable space group: P -6
;
_chemical_formula_sum "Si O2"
_cell_formula_units_Z 32
_cell_length_a 14.970569
_cell_length_b 14.970569
_cell_length_c 7.414120
_cell_angle_alpha 90.000000
_cell_angle_beta 90.000000
_cell_angle_gamma 120.000000
_cell_volume 1439.020090
_symmetry_space_group_name_H-M "P -6"
_symmetry_group_IT_number 174
_symmetry_cell_setting 'hexagonal'
loop_
_space_group_symop_operation_xyz
x,y,z
-x+y,-x,-z
-y,x-y,z
x,y,-z
-x+y,-x,z
-y,x-y,-z
loop_
_atom_site_type_symbol
_atom_site_label
_atom_site_fract_x
_atom_site_fract_y
_atom_site_fract_z
Si Si1 0.870985 0.919548 0.781105
Si Si2 0.830871 0.267670 0.718443
Si Si3 0.333335 0.666667 0.276495
Si Si4 0.446043 0.555350 0.706650
Si Si5 0.270017 0.940828 0.206276
Si Si6 0.889014 0.494872 0.720207
O O1 0.756758 0.840161 0.715144
O O2 0.930771 0.040931 0.730055
O O3 0.865067 0.915280 0.000000
O O4 0.836579 0.265944 0.500000
O O5 0.934688 0.274755 0.789602
O O6 0.833779 0.374066 0.768028
O O7 0.723388 0.172434 0.779363
O O8 0.333334 0.666668 0.500000
O O9 0.219047 0.632688 0.213950
O O10 0.414516 0.526019 0.500000
O O11 0.559692 0.657716 0.706077
O O12 0.456762 0.462603 0.787213
O O13 0.255202 0.904768 0.000000
O O14 0.890632 0.497184 0.500000
#
# Coordination Sequence:
#
# PCOD9581128 Si02
#       6
#     6   6   2   6   6   6
#     4   7  13  28  47  64  87 122 158 185 220 287
#     4   9  16  28  47  69  97 129 163 198 239 293
#     4   9  18  36  58  74  94 135 181 215 250 297
#     4   9  18  34  53  71  97 131 169 209 250 296
#     4  10  18  30  49  73  97 124 159 202 249 293
#     4   8  14  26  46  69  92 125 164 197 234 290
#
# _framework density 22.237354
#
# number of rings (size 3 to 8) (size 9 to 14) (size 15 to 20)
#    0.375    3.000    0.000    2.062    0.000    1.500 
#    3.375    4.688    0.000    3.375    0.000    0.000 
#    0.000    0.000    0.000    0.000    0.000    0.000 
#
# Total GULP energy -178312.693507 kJ/mol
# GULP energy per Si atom -5572.271672 kJ/mol
# Density = 2.218674 g / cm^3
# Si number density = 22.237354 Si / 1000 Ang^3
#
#
#
# Elastic Constant Matrix: (Units=GPa)
#
#
# Indices 1 2 3 4 5 6 
#
# 1 42.7018 7.9424 -4.1373 0.0000 0.0000 0.0005
# 2 7.9424 42.7063 -4.1372 0.0000 0.0000 0.0008
# 3 -4.1373 -4.1372 73.9545 0.0000 0.0000 0.0001
# 4 0.0000 0.0000 0.0000 7.0744 0.0004 0.0000
# 5 0.0000 0.0000 0.0000 0.0004 7.0750 0.0000
# 6 0.0005 0.0008 0.0001 0.0000 0.0000 17.3804
#
#
#
# Elastic Compliance Matrix: (Units=1/GPa)
#
#
# Indices 1 2 3 4 5 6 
#
# 1 0.024348 -0.004420 0.001115 0.000000 0.000000 -0.000001
# 2 -0.004420 0.024346 0.001115 0.000000 0.000000 -0.000001
# 3 0.001115 0.001115 0.013647 0.000000 0.000000 0.000000
# 4 0.000000 0.000000 0.000000 0.141356 -0.000009 0.000000
# 5 0.000000 0.000000 0.000000 -0.000009 0.141343 0.000000
# 6 -0.000001 -0.000001 0.000000 0.000000 0.000000 0.057536
#
#
# Mechanical properties :
#
#
# Convention : Reuss Voigt Hill
#
# Bulk Modulus (GPa) = 17.25348 17.63316 17.44332
# Shear Modulus (GPa) = 11.72948 16.95226 14.34087
#
# Velocity S-wave (km/s) = 2.29916 2.76403 2.54224
# Velocity P-wave (km/s) = 3.85017 4.25831 4.05937
#
# Compressibility (1/GPa) = 0.05795932
#
# Stress axis : x y z
#
# Youngs Moduli (GPa) = 41.07053 41.07484 73.27862
#
# Poissons Ratio (x) = 0.18156 -0.08170
# Poissons Ratio (y) = 0.18154 -0.08168
# Poissons Ratio (z) = -0.04579 -0.04579
#
# Static dielectric constant tensor:
#      x y z
#    x 1.813710 0.000000 0.000000 
#    y 0.000000 1.813700 0.000000 
#    z 0.000000 0.000000 1.854680 
# 
# From -- ./inp_files/330.got.cif
#   From: 2010.05.17/outbox.cif.g08.bks.cpg/sg174_cif.got.tgz:330.got - 2010.05.20 11:22:48.
