data_PCOD9581326
_publ_section_title
;
Structure prediction by ZEFSAII (Michael W. Deem and Ramdas Pophale) SiO2 
 PCOD9581326
Probable space group: P 6/M
;
_chemical_formula_sum "Si O2"
_cell_formula_units_Z 72
_cell_length_a 23.396452
_cell_length_b 23.396452
_cell_length_c 7.675655
_cell_angle_alpha 90.000000
_cell_angle_beta 90.000000
_cell_angle_gamma 120.000000
_cell_volume 3638.698601
_symmetry_space_group_name_H-M "P 6/M"
_symmetry_group_IT_number 175
_symmetry_cell_setting 'hexagonal'
loop_
_space_group_symop_operation_xyz
x,y,z
x-y,x,z
-y,x-y,z
-x,-y,z
-x+y,-x,z
y,-x+y,z
-x,-y,-z
-x+y,-x,-z
y,-x+y,-z
x,y,-z
x-y,x,-z
-y,x-y,-z
loop_
_atom_site_type_symbol
_atom_site_label
_atom_site_fract_x
_atom_site_fract_y
_atom_site_fract_z
Si Si1 0.663069 0.203546 0.707494
Si Si2 0.203204 0.670332 0.713826
Si Si3 0.335991 0.927906 0.792088
Si Si4 0.599217 0.925223 0.294983
Si Si5 0.279805 0.202017 0.214517
Si Si6 0.266473 0.067706 0.201735
O O1 0.664624 0.213183 0.500000
O O2 0.601286 0.209307 0.773926
O O3 0.733779 0.261297 0.772988
O O4 0.652738 0.131387 0.738902
O O5 0.202630 0.669640 0.500000
O O6 0.134170 0.664048 0.769145
O O7 0.263706 0.913426 0.730914
O O8 0.388790 0.001295 0.729976
O O9 0.335954 0.930518 0.000000
O O10 0.603905 0.915262 0.500000
O O11 0.660637 0.923366 0.208637
O O12 0.268725 0.132233 0.277550
O O13 0.224109 0.218893 0.274888
O O14 0.280435 0.202293 0.000000
O O15 0.247438 0.065044 0.000000
#
# Coordination Sequence:
#
# PCOD9581326 Si02
#       6
#    12  12  12  12  12  12
#     4  10  19  35  55  74  97 129 164 202 241 288
#     4   9  19  33  53  76  98 126 164 202 243 289
#     4  10  20  34  50  73  99 128 162 200 246 293
#     4  10  19  32  49  73  98 123 155 197 243 290
#     4   8  15  27  46  67  92 123 157 192 234 284
#     4   9  16  29  47  69  94 125 159 195 237 286
#
# _framework density 19.787293999999999
#
# number of rings (size 3 to 8) (size 9 to 14) (size 15 to 20)
#    0.000    2.667    0.000    3.333    0.000    2.000 
#    0.000   10.000    0.000    0.333    0.000    2.333 
#    0.000    0.000    0.000    6.000    0.000    6.667 
#
# Total GULP energy -401723.040389 kJ/mol
# GULP energy per Si atom -5579.486672 kJ/mol
# Density = 1.974226 g / cm^3
# Si number density = 19.787294 Si / 1000 Ang^3
#
#
#
# Elastic Constant Matrix: (Units=GPa)
#
#
# Indices 1 2 3 4 5 6 
#
# 1 131.0038 98.0660 -5.4064 0.0000 0.0000 0.0000
# 2 98.0660 131.0038 -5.4064 0.0000 0.0000 0.0000
# 3 -5.4064 -5.4064 29.2151 0.0000 0.0000 0.0000
# 4 0.0000 0.0000 0.0000 10.0012 0.0000 0.0000
# 5 0.0000 0.0000 0.0000 0.0000 10.0012 0.0000
# 6 0.0000 0.0000 0.0000 0.0000 0.0000 16.4689
#
#
#
# Elastic Compliance Matrix: (Units=1/GPa)
#
#
# Indices 1 2 3 4 5 6 
#
# 1 0.017382 -0.012978 0.000815 0.000000 0.000000 0.000000
# 2 -0.012978 0.017382 0.000815 0.000000 0.000000 0.000000
# 3 0.000815 0.000815 0.034530 0.000000 0.000000 0.000000
# 4 0.000000 0.000000 0.000000 0.099988 0.000000 0.000000
# 5 0.000000 0.000000 0.000000 0.000000 0.099988 0.000000
# 6 0.000000 0.000000 0.000000 0.000000 0.000000 0.060720
#
#
# Mechanical properties :
#
#
# Convention : Reuss Voigt Hill
#
# Bulk Modulus (GPa) = 21.46004 51.74770 36.60387
# Shear Modulus (GPa) = 13.57879 20.89221 17.23550
#
# Velocity S-wave (km/s) = 2.62246 3.25289 2.95454
# Velocity P-wave (km/s) = 4.47645 6.34958 5.49344
#
# Compressibility (1/GPa) = 0.04659824
#
# Stress axis : x y z
#
# Youngs Moduli (GPa) = 57.53048 57.53048 28.95993
#
# Poissons Ratio (x) = 0.74664 -0.02360
# Poissons Ratio (y) = 0.74664 -0.02360
# Poissons Ratio (z) = -0.04689 -0.04689
#
# Static dielectric constant tensor:
#      x y z
#    x 1.688240 0.000000 0.000000 
#    y 0.000000 1.688240 0.000000 
#    z 0.000000 0.000000 1.762150 
# 
# From -- ./inp_files/1179.got.cif
#   From: 2010.05.17/outbox.cif.g08.bks.cpg/sg175_1_cif.got.tgz:1179.got - 2010.05.20 11:23:22.
