data_PCOD9581441
_publ_section_title
;
Structure prediction by ZEFSAII (Michael W. Deem and Ramdas Pophale) SiO2 
 PCOD9581441
Probable space group: P 6/M
;
_chemical_formula_sum "Si O2"
_cell_formula_units_Z 72
_cell_length_a 23.818540
_cell_length_b 23.818540
_cell_length_c 7.778973
_cell_angle_alpha 90.000000
_cell_angle_beta 90.000000
_cell_angle_gamma 120.000000
_cell_volume 3821.933885
_symmetry_space_group_name_H-M "P 6/M"
_symmetry_group_IT_number 175
_symmetry_cell_setting 'hexagonal'
loop_
_space_group_symop_operation_xyz
x,y,z
x-y,x,z
-y,x-y,z
-x,-y,z
-x+y,-x,z
y,-x+y,z
-x,-y,-z
-x+y,-x,-z
y,-x+y,-z
x,y,-z
x-y,x,-z
-y,x-y,-z
loop_
_atom_site_type_symbol
_atom_site_label
_atom_site_fract_x
_atom_site_fract_y
_atom_site_fract_z
Si Si1 0.525951 0.925869 0.707152
Si Si2 0.385501 0.256111 0.205644
Si Si3 0.743888 0.614498 0.205644
Si Si4 0.399918 0.925870 0.707152
Si Si5 0.999999 0.128769 0.707740
Si Si6 0.999999 0.259744 0.206244
O O1 0.525935 0.927349 0.500000
O O2 0.553236 0.879756 0.761207
O O3 0.454163 0.908327 0.765205
O O4 0.574644 1.000000 0.766596
O O5 0.390986 0.195493 0.273318
O O6 0.446762 0.326519 0.238791
O O7 0.321737 0.256434 0.274256
O O8 0.377903 0.248409 0.000000
O O9 0.743564 0.678261 0.274256
O O10 0.751589 0.622094 0.000000
O O11 0.401413 0.927349 0.500000
O O12 0.064843 0.129688 0.768921
O O13 0.999999 0.126113 0.500000
O O14 0.999998 0.193733 0.757973
O O15 1.000000 0.267326 0.000000
#
# Coordination Sequence:
#
# PCOD9581441 Si02
#       6
#    12  12  12  12  12  12
#     4   9  18  33  53  77 104 132 165 207 252 300
#     4  10  20  33  51  77 107 138 172 209 251 301
#     4  10  20  33  51  77 107 138 172 209 251 301
#     4   9  18  33  53  77 104 132 165 207 252 300
#     4  10  21  36  52  69  91 124 169 219 267 312
#     4  10  20  35  52  72 102 137 169 208 257 306
#
# _framework density 18.838630999999999
#
# number of rings (size 3 to 8) (size 9 to 14) (size 15 to 20)
#    0.000    2.333    1.667    2.167    0.000    5.333 
#    0.000    1.667    0.000    1.667    0.000    0.000 
#    0.000    0.000    0.000    0.000    0.000    0.000 
#
# Total GULP energy -401843.829769 kJ/mol
# GULP energy per Si atom -5581.164302 kJ/mol
# Density = 1.879575 g / cm^3
# Si number density = 18.838631 Si / 1000 Ang^3
#
#
#
# Elastic Constant Matrix: (Units=GPa)
#
#
# Indices 1 2 3 4 5 6 
#
# 1 160.9821 109.0667 4.0645 0.0000 0.0000 0.0000
# 2 109.0667 160.9821 4.0645 0.0000 0.0000 0.0000
# 3 4.0645 4.0645 23.1854 0.0000 0.0000 0.0000
# 4 0.0000 0.0000 0.0000 23.3488 0.0000 0.0000
# 5 0.0000 0.0000 0.0000 0.0000 23.3488 0.0000
# 6 0.0000 0.0000 0.0000 0.0000 0.0000 25.9577
#
#
#
# Elastic Compliance Matrix: (Units=1/GPa)
#
#
# Indices 1 2 3 4 5 6 
#
# 1 0.011492 -0.007770 -0.000653 0.000000 0.000000 0.000000
# 2 -0.007770 0.011492 -0.000653 0.000000 0.000000 0.000000
# 3 -0.000653 -0.000653 0.043359 0.000000 0.000000 0.000000
# 4 0.000000 0.000000 0.000000 0.042829 0.000000 0.000000
# 5 0.000000 0.000000 0.000000 0.000000 0.042829 0.000000
# 6 0.000000 0.000000 0.000000 0.000000 0.000000 0.038524
#
#
# Mechanical properties :
#
#
# Convention : Reuss Voigt Hill
#
# Bulk Modulus (GPa) = 20.74930 64.39343 42.57136
# Shear Modulus (GPa) = 22.24788 29.72799 25.98794
#
# Velocity S-wave (km/s) = 3.44025 3.97676 3.71819
# Velocity P-wave (km/s) = 5.17867 7.43922 6.40939
#
# Compressibility (1/GPa) = 0.04819440
#
# Stress axis : x y z
#
# Youngs Moduli (GPa) = 87.01406 87.01406 23.06302
#
# Poissons Ratio (x) = 0.67607 0.01505
# Poissons Ratio (y) = 0.67607 0.01505
# Poissons Ratio (z) = 0.05679 0.05679
#
# Static dielectric constant tensor:
#      x y z
#    x 1.644140 0.000000 0.000000 
#    y 0.000000 1.644140 0.000000 
#    z 0.000000 0.000000 1.694730 
# 
# From -- ./inp_files/1149.got.cif
#   From: 2010.05.17/outbox.cif.g08.bks.cpg/sg175_1_cif.got.tgz:1149.got - 2010.05.20 11:23:22.
