data_PCOD9581396
_publ_section_title
;
Structure prediction by ZEFSAII (Michael W. Deem and Ramdas Pophale) SiO2 
 PCOD9581396
Probable space group: P 6/M
;
_chemical_formula_sum "Si O2"
_cell_formula_units_Z 66
_cell_length_a 21.971132
_cell_length_b 21.971132
_cell_length_c 7.608078
_cell_angle_alpha 90.000000
_cell_angle_beta 90.000000
_cell_angle_gamma 120.000000
_cell_volume 3180.610254
_symmetry_space_group_name_H-M "P 6/M"
_symmetry_group_IT_number 175
_symmetry_cell_setting 'hexagonal'
loop_
_space_group_symop_operation_xyz
x,y,z
x-y,x,z
-y,x-y,z
-x,-y,z
-x+y,-x,z
y,-x+y,z
-x,-y,-z
-x+y,-x,-z
y,-x+y,-z
x,y,-z
x-y,x,-z
-y,x-y,-z
loop_
_atom_site_type_symbol
_atom_site_label
_atom_site_fract_x
_atom_site_fract_y
_atom_site_fract_z
Si Si1 0.795763 0.484532 0.215606
Si Si2 0.696436 0.606986 0.294330
Si Si3 0.637054 0.785024 0.789524
Si Si4 0.155066 0.019583 0.000000
Si Si5 0.545173 0.188786 0.794530
Si Si6 0.755676 0.759124 0.701871
O O1 0.849009 0.564865 0.267835
O O2 0.717111 0.464222 0.276134
O O3 0.813941 0.425957 0.277347
O O4 0.795509 0.485943 0.000000
O O5 0.681113 0.600739 0.500000
O O6 0.775580 0.623612 0.259252
O O7 0.647160 0.529614 0.218624
O O8 0.702465 0.679330 0.231392
O O9 0.707642 0.794850 0.707472
O O10 0.644541 0.784554 0.000000
O O11 0.200863 0.022142 0.830816
O O12 0.083551 0.944080 0.000000
O O13 0.560389 0.204931 0.000000
O O14 0.776122 0.756073 0.500000
#
# Coordination Sequence:
#
# PCOD9581396 Si02
#       6
#    12  12  12   6  12  12
#     4   8  15  27  48  79 109 147 198 253 305 354
#     4  10  21  35  53  80 115 151 195 246 297 351
#     4  10  19  34  58  84 112 149 198 249 297 350
#     4  12  27  46  72 100 129 158 192 232 282 346
#     4   9  16  29  51  76 110 152 200 253 307 360
#     4  11  24  41  64  93 125 160 197 240 290 348
#
# _framework density 20.750733
#
# number of rings (size 3 to 8) (size 9 to 14) (size 15 to 20)
#    0.000    2.182    0.909    3.727    2.545    3.636 
#    0.000    5.455    0.000    6.545    0.000    0.000 
#    0.000    0.000    0.000    0.000    0.000    0.000 
#
# Total GULP energy -368179.377948 kJ/mol
# GULP energy per Si atom -5578.475423 kJ/mol
# Density = 2.070350 g / cm^3
# Si number density = 20.750733 Si / 1000 Ang^3
#
#
#
# Elastic Constant Matrix: (Units=GPa)
#
#
# Indices 1 2 3 4 5 6 
#
# 1 72.6897 7.4448 41.8813 0.0000 0.0000 0.0000
# 2 7.4448 72.6897 41.8813 0.0000 0.0000 0.0000
# 3 41.8813 41.8813 147.6426 0.0000 0.0000 0.0000
# 4 0.0000 0.0000 0.0000 -132.6349 0.0000 0.0000
# 5 0.0000 0.0000 0.0000 0.0000 -132.6349 0.0000
# 6 0.0000 0.0000 0.0000 0.0000 0.0000 32.6224
#
#
#
# Elastic Compliance Matrix: (Units=1/GPa)
#
#
# Indices 1 2 3 4 5 6 
#
# 1 0.016533 0.001206 -0.005032 0.000000 0.000000 0.000000
# 2 0.001206 0.016533 -0.005032 0.000000 0.000000 0.000000
# 3 -0.005032 -0.005032 0.009628 0.000000 0.000000 0.000000
# 4 0.000000 0.000000 0.000000 -0.007539 0.000000 0.000000
# 5 0.000000 0.000000 0.000000 0.000000 -0.007539 0.000000
# 6 0.000000 0.000000 0.000000 0.000000 0.000000 0.030654
#
#
# Mechanical properties :
#
#
# Convention : Reuss Voigt Hill
#
# Bulk Modulus (GPa) = 40.03560 52.82633 46.43097
# Shear Modulus (GPa) = 59.30500 -33.07519 13.11491
#
# Velocity S-wave (km/s) = 5.35180 -3.99673 2.51673
# Velocity P-wave (km/s) = 7.58449 2.05288 5.55602
#
# Compressibility (1/GPa) = 0.02497777
#
# Stress axis : x y z
#
# Youngs Moduli (GPa) = 60.48579 60.48579 103.86500
#
# Poissons Ratio (x) = -0.07294 0.52264
# Poissons Ratio (y) = -0.07294 0.52264
# Poissons Ratio (z) = 0.30436 0.30436
#
# Static dielectric constant tensor:
#      x y z
#    x 1.750150 0.000000 0.000000 
#    y 0.000000 1.750150 0.000000 
#    z 0.000000 0.000000 1.772680 
# 
# From -- ./inp_files/997.got.cif
#   From: 2010.05.17/outbox.cif.g08.bks.cpg/sg175_1_cif.got.tgz:997.got - 2010.05.20 11:23:22.
