data_PCOD9581383
_publ_section_title
;
Structure prediction by ZEFSAII (Michael W. Deem and Ramdas Pophale) SiO2 
 PCOD9581383
Probable space group: P 6/M
;
_chemical_formula_sum "Si O2"
_cell_formula_units_Z 60
_cell_length_a 10.181485
_cell_length_b 10.181485
_cell_length_c 29.008254
_cell_angle_alpha 90.000000
_cell_angle_beta 90.000000
_cell_angle_gamma 120.000000
_cell_volume 2604.200829
_symmetry_space_group_name_H-M "P 6/M"
_symmetry_group_IT_number 175
_symmetry_cell_setting 'hexagonal'
loop_
_space_group_symop_operation_xyz
x,y,z
x-y,x,z
-y,x-y,z
-x,-y,z
-x+y,-x,z
y,-x+y,z
-x,-y,-z
-x+y,-x,-z
y,-x+y,-z
x,y,-z
x-y,x,-z
-y,x-y,-z
loop_
_atom_site_type_symbol
_atom_site_label
_atom_site_fract_x
_atom_site_fract_y
_atom_site_fract_z
Si Si1 0.351255 0.100403 0.000000
Si Si2 0.263670 0.918466 0.352166
Si Si3 0.355792 0.099059 0.899057
Si Si4 0.836790 0.501772 0.744928
Si Si5 0.500000 0.000000 0.172340
Si Si6 0.352411 0.259892 0.549228
O O1 0.284233 0.213132 0.000000
O O2 0.428494 0.121547 0.950364
O O3 0.330947 0.898512 0.304963
O O4 0.321917 0.889873 0.401323
O O5 0.086127 0.797149 0.351798
O O6 0.293312 0.216837 0.895029
O O7 0.474993 0.111936 0.860726
O O8 0.669271 0.477013 0.745927
O O9 0.919197 0.563290 0.793139
O O10 0.210933 0.290350 0.549156
O O11 0.435622 0.319844 0.500000
#
# Coordination Sequence:
#
# PCOD9581383 Si02
#       6
#     6  12  12  12   6  12
#     4   8  15  31  56  88 124 158 191 227 284 354
#     4  10  19  33  55  84 114 145 185 235 288 340
#     4  10  21  38  63  93 124 158 195 241 292 350
#     4  10  23  39  57  75 103 148 195 233 284 346
#     4  12  22  39  60  88 117 148 198 250 298 340
#     4   8  13  22  41  72 109 143 174 216 276 342
#
# _framework density 23.039698000000001
#
# number of rings (size 3 to 8) (size 9 to 14) (size 15 to 20)
#    0.400    2.000    0.000    3.100    0.000    4.400 
#    1.200    0.000    0.000    3.600    0.000    6.300 
#    0.000    0.000    0.000    0.000    0.000    0.000 
#
# Total GULP energy -334332.579775 kJ/mol
# GULP energy per Si atom -5572.209663 kJ/mol
# Density = 2.298726 g / cm^3
# Si number density = 23.039698 Si / 1000 Ang^3
#
#
#
# Elastic Constant Matrix: (Units=GPa)
#
#
# Indices 1 2 3 4 5 6 
#
# 1 39.8609 -1.0360 38.1779 0.0000 0.0000 0.0000
# 2 -1.0360 39.8609 38.1779 0.0000 0.0000 0.0000
# 3 38.1779 38.1779 262.6488 0.0000 0.0000 0.0000
# 4 0.0000 0.0000 0.0000 47.4150 0.0000 0.0000
# 5 0.0000 0.0000 0.0000 0.0000 47.4150 0.0000
# 6 0.0000 0.0000 0.0000 0.0000 0.0000 20.4484
#
#
#
# Elastic Compliance Matrix: (Units=1/GPa)
#
#
# Indices 1 2 3 4 5 6 
#
# 1 0.030259 0.005808 -0.005243 0.000000 0.000000 0.000000
# 2 0.005808 0.030259 -0.005243 0.000000 0.000000 0.000000
# 3 -0.005243 -0.005243 0.005331 0.000000 0.000000 0.000000
# 4 0.000000 0.000000 0.000000 0.021090 0.000000 0.000000
# 5 0.000000 0.000000 0.000000 0.000000 0.021090 0.000000
# 6 0.000000 0.000000 0.000000 0.000000 0.000000 0.048904
#
#
# Mechanical properties :
#
#
# Convention : Reuss Voigt Hill
#
# Bulk Modulus (GPa) = 17.70057 54.77889 36.23973
# Shear Modulus (GPa) = 27.00929 40.85908 33.93419
#
# Velocity S-wave (km/s) = 3.42759 4.21577 3.84195
# Velocity P-wave (km/s) = 4.83362 6.89380 5.95350
#
# Compressibility (1/GPa) = 0.05649534
#
# Stress axis : x y z
#
# Youngs Moduli (GPa) = 33.04751 33.04751 187.56554
#
# Poissons Ratio (x) = -0.19193 0.98333
# Poissons Ratio (y) = -0.19193 0.98333
# Poissons Ratio (z) = 0.17326 0.17326
#
# Static dielectric constant tensor:
#      x y z
#    x 1.893220 0.000000 0.000000 
#    y 0.000000 1.893220 0.000000 
#    z 0.000000 0.000000 1.950900 
# 
# From -- ./inp_files/3306.got.cif
#   From: 2010.05.17/outbox.cif.g08.bks.cpg/sg175_2_cif.got.tgz:3306.got - 2010.05.20 11:23:22.
