data_PCOD9581945
_publ_section_title
;
Structure prediction by ZEFSAII (Michael W. Deem and Ramdas Pophale) SiO2 
 PCOD9581945
Probable space group: P 63/M
;
_chemical_formula_sum "Si O2"
_cell_formula_units_Z 60
_cell_length_a 15.193713
_cell_length_b 15.193713
_cell_length_c 13.516663
_cell_angle_alpha 90.000000
_cell_angle_beta 90.000000
_cell_angle_gamma 120.000000
_cell_volume 2702.265116
_symmetry_space_group_name_H-M "P 63/M"
_symmetry_group_IT_number 176
_symmetry_cell_setting 'hexagonal'
loop_
_space_group_symop_operation_xyz
x,y,z
x-y,x,1/2+z
-y,x-y,z
-x,-y,1/2+z
-x+y,-x,z
y,-x+y,1/2+z
-x,-y,-z
-x+y,-x,1/2-z
y,-x+y,-z
x,y,1/2-z
x-y,x,-z
-y,x-y,1/2-z
loop_
_atom_site_type_symbol
_atom_site_label
_atom_site_fract_x
_atom_site_fract_y
_atom_site_fract_z
Si Si1 0.286177 0.005627 0.869334
Si Si2 0.817488 0.313741 0.136422
Si Si3 0.496680 0.365389 0.037693
Si Si4 0.253101 0.080050 0.138955
Si Si5 0.637360 0.765843 0.369167
O O1 0.285222 0.002909 0.750000
O O2 0.345710 0.950657 0.907556
O O3 0.166839 0.936453 0.899113
O O4 0.343248 0.123280 0.898540
O O5 0.814692 0.346170 0.250000
O O6 0.708035 0.240562 0.088964
O O7 0.883364 0.409005 0.064582
O O8 0.863813 0.239276 0.142288
O O9 0.457789 0.322884 0.927757
O O10 0.209815 0.056931 0.250000
O O11 0.228689 0.971260 0.099412
O O12 0.625737 0.751827 0.250000
#
# Coordination Sequence:
#
# PCOD9581945 Si02
#       5
#    12  12  12  12  12
#     4   9  19  37  60  86 120 163 209 254 308 368
#     4  10  20  37  61  92 120 144 198 269 314 357
#     4  11  22  36  65  92 117 157 205 254 318 370
#     4   8  17  36  59  84 118 161 205 253 306 354
#     4  10  22  40  57  86 133 169 203 256 311 379
#
# _framework density 22.203595
#
# number of rings (size 3 to 8) (size 9 to 14) (size 15 to 20)
#    0.000    2.400    0.000    3.400    5.600    0.800 
#    1.200    1.000    0.000    1.200    0.000    0.000 
#    0.000    0.000    0.000    0.000    0.000    0.000 
#
# Total GULP energy -334721.733860 kJ/mol
# GULP energy per Si atom -5578.695564 kJ/mol
# Density = 2.215306 g / cm^3
# Si number density = 22.203595 Si / 1000 Ang^3
#
#
#
# Elastic Constant Matrix: (Units=GPa)
#
#
# Indices 1 2 3 4 5 6 
#
# 1 50.3151 2.3899 25.6084 0.0000 0.0000 0.0000
# 2 2.3899 50.3151 25.6084 0.0000 0.0000 0.0000
# 3 25.6084 25.6084 131.8501 0.0000 0.0000 0.0000
# 4 0.0000 0.0000 0.0000 28.8328 0.0000 0.0000
# 5 0.0000 0.0000 0.0000 0.0000 28.8328 0.0000
# 6 0.0000 0.0000 0.0000 0.0000 0.0000 23.9626
#
#
#
# Elastic Compliance Matrix: (Units=1/GPa)
#
#
# Indices 1 2 3 4 5 6 
#
# 1 0.022127 0.001261 -0.004542 0.000000 0.000000 0.000000
# 2 0.001261 0.022127 -0.004542 0.000000 0.000000 0.000000
# 3 -0.004542 -0.004542 0.009349 0.000000 0.000000 0.000000
# 4 0.000000 0.000000 0.000000 0.034683 0.000000 0.000000
# 5 0.000000 0.000000 0.000000 0.000000 0.034683 0.000000
# 6 0.000000 0.000000 0.000000 0.000000 0.000000 0.041732
#
#
# Mechanical properties :
#
#
# Convention : Reuss Voigt Hill
#
# Bulk Modulus (GPa) = 26.34729 37.74371 32.04550
# Shear Modulus (GPa) = 25.90687 28.25055 27.07871
#
# Velocity S-wave (km/s) = 3.41953 3.57086 3.49601
# Velocity P-wave (km/s) = 5.24242 5.83414 5.54618
#
# Compressibility (1/GPa) = 0.03795456
#
# Stress axis : x y z
#
# Youngs Moduli (GPa) = 45.19408 45.19408 106.96478
#
# Poissons Ratio (x) = -0.05699 0.48588
# Poissons Ratio (y) = -0.05699 0.48588
# Poissons Ratio (z) = 0.20529 0.20529
#
# Static dielectric constant tensor:
#      x y z
#    x 1.856890 0.000000 0.000000 
#    y 0.000000 1.856890 0.000000 
#    z 0.000000 0.000000 1.883770 
# 
# From -- ./inp_files/2644.got.cif
#   From: 2010.05.17/outbox.cif.g08.bks.cpg/sg176_2_cif.got.tgz:2644.got - 2010.06.03 11:36:45.
