data_PCOD9581532
_publ_section_title
;
Structure prediction by ZEFSAII (Michael W. Deem and Ramdas Pophale) SiO2 
 PCOD9581532
Probable space group: P 6/M
;
_chemical_formula_sum "Si O2"
_cell_formula_units_Z 54
_cell_length_a 20.455236
_cell_length_b 20.455236
_cell_length_c 5.738671
_cell_angle_alpha 90.000000
_cell_angle_beta 90.000000
_cell_angle_gamma 120.000000
_cell_volume 2079.461806
_symmetry_space_group_name_H-M "P 6/M"
_symmetry_group_IT_number 175
_symmetry_cell_setting 'hexagonal'
loop_
_space_group_symop_operation_xyz
x,y,z
x-y,x,z
-y,x-y,z
-x,-y,z
-x+y,-x,z
y,-x+y,z
-x,-y,-z
-x+y,-x,-z
y,-x+y,-z
x,y,-z
x-y,x,-z
-y,x-y,-z
loop_
_atom_site_type_symbol
_atom_site_label
_atom_site_fract_x
_atom_site_fract_y
_atom_site_fract_z
Si Si1 0.521022 0.433893 0.249981
Si Si2 0.149483 0.984855 0.000000
Si Si3 0.688462 0.462082 0.749972
Si Si4 0.739473 0.705383 0.248284
Si Si5 0.163900 0.373011 0.749814
O O1 0.500000 0.500000 0.250031
O O2 0.494111 0.393000 0.500000
O O3 0.610960 0.465156 0.250343
O O4 0.494369 0.393014 0.000000
O O5 0.150354 0.064876 0.000000
O O6 0.203785 0.986925 0.787617
O O7 0.691606 0.428432 0.500000
O O8 0.760673 0.545286 0.749862
O O9 0.691525 0.428448 0.000000
O O10 0.701716 0.676820 0.500000
O O11 0.805822 0.685301 0.248809
O O12 0.698389 0.670155 0.000000
O O13 0.126103 0.364838 0.500000
O O14 0.125896 0.365003 0.000000
#
# Coordination Sequence:
#
# PCOD9581532 Si02
#       5
#    12   6  12  12  12
#     4   8  12  16  20  28  45  68  91 112 132 152
#     4  10  21  34  48  60  72  84  95 106 122 154
#     4   8  12  16  24  37  51  68  89 111 132 152
#     4   8  16  29  43  56  68  80  92 108 127 147
#     4   8  12  20  33  47  60  72  88 109 131 150
#
# _framework density 25.968257000000001
#
# number of rings (size 3 to 8) (size 9 to 14) (size 15 to 20)
#    0.667    3.111    0.000    0.111    0.000    0.889 
#    0.000    0.000    0.000    1.333    0.000    0.000 
#    0.000    0.000    0.000    0.000    0.000    0.000 
#
# Total GULP energy -300610.543412 kJ/mol
# GULP energy per Si atom -5566.861915 kJ/mol
# Density = 2.590915 g / cm^3
# Si number density = 25.968257 Si / 1000 Ang^3
#
#
#
# Elastic Constant Matrix: (Units=GPa)
#
#
# Indices 1 2 3 4 5 6 
#
# 1 85.7080 22.7795 0.3287 0.0000 0.0000 0.0000
# 2 22.7795 85.7080 0.3287 0.0000 0.0000 0.0000
# 3 0.3287 0.3287 376.0632 0.0000 0.0000 0.0000
# 4 0.0000 0.0000 0.0000 -19.4488 0.0000 0.0000
# 5 0.0000 0.0000 0.0000 0.0000 -19.4488 0.0000
# 6 0.0000 0.0000 0.0000 0.0000 0.0000 31.4643
#
#
#
# Elastic Compliance Matrix: (Units=1/GPa)
#
#
# Indices 1 2 3 4 5 6 
#
# 1 0.012554 -0.003337 -0.000008 0.000000 0.000000 0.000000
# 2 -0.003337 0.012554 -0.000008 0.000000 0.000000 0.000000
# 3 -0.000008 -0.000008 0.002659 0.000000 0.000000 0.000000
# 4 0.000000 0.000000 0.000000 -0.051417 0.000000 0.000000
# 5 0.000000 0.000000 0.000000 0.000000 -0.051417 0.000000
# 6 0.000000 0.000000 0.000000 0.000000 0.000000 0.031782
#
#
# Mechanical properties :
#
#
# Convention : Reuss Voigt Hill
#
# Bulk Modulus (GPa) = 47.47814 66.03922 56.75868
# Shear Modulus (GPa) = -169.16137 33.44946 -67.85596
#
# Velocity S-wave (km/s) = -8.07979 3.59289 -5.11733
# Velocity P-wave (km/s) = 8.28982 6.53435 3.60717
#
# Compressibility (1/GPa) = 0.02106233
#
# Stress axis : x y z
#
# Youngs Moduli (GPa) = 79.65349 79.65349 376.06118
#
# Poissons Ratio (x) = 0.26578 0.00303
# Poissons Ratio (y) = 0.26578 0.00303
# Poissons Ratio (z) = 0.00064 0.00064
#
# Static dielectric constant tensor:
#      x y z
#    x 1.943150 0.000000 0.000000 
#    y 0.000000 1.943150 0.000000 
#    z 0.000000 0.000000 2.151530 
# 
# From -- ./inp_files/170.got.cif
#   From: 2010.05.17/outbox.cif.g08.bks.cpg/sg175_1_cif.got.tgz:170.got - 2010.05.20 11:23:22.
