data_PCOD9581021
_publ_section_title
;
Structure prediction by ZEFSAII (Michael W. Deem and Ramdas Pophale) SiO2 
 PCOD9581021
Probable space group: P 63
;
_chemical_formula_sum "Si O2"
_cell_formula_units_Z 40
_cell_length_a 18.109007
_cell_length_b 18.109007
_cell_length_c 8.154013
_cell_angle_alpha 90.000000
_cell_angle_beta 90.000000
_cell_angle_gamma 120.000000
_cell_volume 2315.748036
_symmetry_space_group_name_H-M "P 63"
_symmetry_group_IT_number 173
_symmetry_cell_setting 'hexagonal'
loop_
_space_group_symop_operation_xyz
x,y,z
x-y,x,1/2+z
-y,x-y,z
-x,-y,1/2+z
-x+y,-x,z
y,-x+y,1/2+z
loop_
_atom_site_type_symbol
_atom_site_label
_atom_site_fract_x
_atom_site_fract_y
_atom_site_fract_z
Si Si1 0.912278 0.483260 0.604150
Si Si2 0.268046 0.471144 0.501164
Si Si3 0.679550 0.586283 0.703416
Si Si4 0.666666 0.333333 0.980291
Si Si5 0.582619 0.490873 0.230239
Si Si6 0.743804 0.218328 0.491550
Si Si7 0.578460 0.682962 0.671543
Si Si8 0.666667 0.333333 0.375452
O O1 0.901537 0.406814 0.715986
O O2 0.913968 0.445787 0.421208
O O3 0.838421 0.505897 0.617262
O O4 0.001373 0.562727 0.658355
O O5 0.281162 0.410010 0.378896
O O6 0.299756 0.567621 0.434377
O O7 0.324764 0.485792 0.665811
O O8 0.168375 0.422214 0.539175
O O9 0.738896 0.576378 0.568006
O O10 0.649041 0.654216 0.669152
O O11 0.666668 0.333334 0.179471
O O12 0.512845 0.402697 0.147367
O O13 0.723323 0.150968 0.344767
O O14 0.720380 0.290216 0.437636
#
# Coordination Sequence:
#
# PCOD9581021 Si02
#       8
#     6   6   6   2   6   6   6   2
#     4  10  20  34  52  75 111 142 188 234 277 322
#     4  12  21  34  54  76 107 146 188 241 273 318
#     4  11  25  35  52  83 108 141 193 238 284 326
#     4  12  21  31  56  79 102 142 212 235 267 319
#     4  10  19  34  53  77 106 149 185 230 281 319
#     4  11  20  35  54  73 108 149 188 238 271 324
#     4  10  22  39  52  75 109 147 186 231 283 334
#     4  12  18  34  53  82  93 160 206 217 288 316
#
# _framework density 17.273036999999999
#
# number of rings (size 3 to 8) (size 9 to 14) (size 15 to 20)
#    0.000    1.200    4.500    4.500    2.100    2.400 
#    0.000    1.500    0.000    0.000    0.000    0.000 
#    0.000    0.000    0.000   34.200    0.000    0.000 
#
# Total GULP energy -223182.678790 kJ/mol
# GULP energy per Si atom -5579.566970 kJ/mol
# Density = 1.723372 g / cm^3
# Si number density = 17.273037 Si / 1000 Ang^3
#
#
#
# Elastic Constant Matrix: (Units=GPa)
#
#
# Indices 1 2 3 4 5 6 
#
# 1 98.7254 56.0292 31.4317 0.0000 0.0000 0.0001
# 2 56.0292 98.7253 31.4316 0.0000 0.0000 0.0000
# 3 31.4317 31.4316 38.0968 0.0000 0.0000 0.0000
# 4 0.0000 0.0000 0.0000 27.5794 0.0000 0.0000
# 5 0.0000 0.0000 0.0000 0.0000 27.5794 0.0000
# 6 0.0001 0.0000 0.0000 0.0000 0.0000 21.3480
#
#
#
# Elastic Compliance Matrix: (Units=1/GPa)
#
#
# Indices 1 2 3 4 5 6 
#
# 1 0.016570 -0.006851 -0.008019 0.000000 0.000000 0.000000
# 2 -0.006851 0.016570 -0.008019 0.000000 0.000000 0.000000
# 3 -0.008019 -0.008019 0.039481 0.000000 0.000000 0.000000
# 4 0.000000 0.000000 0.000000 0.036259 0.000000 0.000000
# 5 0.000000 0.000000 0.000000 0.000000 0.036259 0.000000
# 6 0.000000 0.000000 0.000000 0.000000 0.000000 0.046843
#
#
# Mechanical properties :
#
#
# Convention : Reuss Voigt Hill
#
# Bulk Modulus (GPa) = 37.25241 52.59251 44.92246
# Shear Modulus (GPa) = 20.26694 23.07834 21.67264
#
# Velocity S-wave (km/s) = 3.42910 3.65922 3.54603
# Velocity P-wave (km/s) = 6.10671 6.95464 6.54443
#
# Compressibility (1/GPa) = 0.02684390
#
# Stress axis : x y z
#
# Youngs Moduli (GPa) = 60.34916 60.34913 25.32886
#
# Poissons Ratio (x) = 0.41346 0.20311
# Poissons Ratio (y) = 0.41346 0.20311
# Poissons Ratio (z) = 0.48393 0.48393
#
# Static dielectric constant tensor:
#      x y z
#    x 1.607610 0.000000 0.000000 
#    y 0.000000 1.607610 0.000000 
#    z 0.000000 0.000000 1.703890 
# 
# From -- ./inp_files/637.got.cif
#   From: 2010.05.17/outbox.cif.g08.bks.cpg/sg173_cif.got.tgz:637.got - 2010.05.20 11:21:53.
