data_PCOD9581229
_publ_section_title
;
Structure prediction by ZEFSAII (Michael W. Deem and Ramdas Pophale) SiO2 
 PCOD9581229
Probable space group: P 6/M
;
_chemical_formula_sum "Si O2"
_cell_formula_units_Z 76
_cell_length_a 17.727422
_cell_length_b 17.727422
_cell_length_c 16.272691
_cell_angle_alpha 90.000000
_cell_angle_beta 90.000000
_cell_angle_gamma 120.000000
_cell_volume 4428.750107
_symmetry_space_group_name_H-M "P 6/M"
_symmetry_group_IT_number 175
_symmetry_cell_setting 'hexagonal'
loop_
_space_group_symop_operation_xyz
x,y,z
x-y,x,z
-y,x-y,z
-x,-y,z
-x+y,-x,z
y,-x+y,z
-x,-y,-z
-x+y,-x,-z
y,-x+y,-z
x,y,-z
x-y,x,-z
-y,x-y,-z
loop_
_atom_site_type_symbol
_atom_site_label
_atom_site_fract_x
_atom_site_fract_y
_atom_site_fract_z
Si Si1 0.058750 0.853072 0.500000
Si Si2 0.903883 0.673831 0.235704
Si Si3 0.666668 0.333335 0.099475
Si Si4 0.966626 0.807338 0.905260
Si Si5 0.378022 0.598976 0.500000
Si Si6 0.201848 0.530872 0.224500
Si Si7 0.522803 0.173590 0.327595
Si Si8 0.240440 0.315639 0.336909
O O1 0.075065 0.808230 0.420359
O O2 0.957707 0.831350 0.500000
O O3 0.948932 0.730628 0.155857
O O4 0.857253 0.571935 0.215862
O O5 0.832936 0.696857 0.271043
O O6 0.977452 0.702281 0.304691
O O7 0.673675 0.254008 0.142202
O O8 0.666667 0.333334 0.000000
O O9 0.891842 0.831913 0.891651
O O10 0.962270 0.780695 0.000000
O O11 0.427519 0.703373 0.500000
O O12 0.391109 0.564177 0.414950
O O13 0.274732 0.543821 0.293700
O O14 0.149325 0.576490 0.259263
O O15 0.419806 0.117190 0.340176
#
# Coordination Sequence:
#
# PCOD9581229 Si02
#       8
#     6  12   4  12   6  12  12  12
#     4  12  24  42  60  84 117 157 202 249 293 347
#     4  11  21  37  58  81 108 153 189 230 286 346
#     4   9  18  36  60  88 116 148 186 231 282 348
#     4  10  20  35  57  85 113 140 180 233 287 345
#     4  10  15  26  54  78 105 135 178 228 274 319
#     4   9  19  34  56  82 113 145 192 232 275 334
#     4  10  18  34  53  82 111 149 186 238 284 327
#     4  11  23  37  58  77 113 154 192 236 291 340
#
# _framework density 17.160599000000001
#
# number of rings (size 3 to 8) (size 9 to 14) (size 15 to 20)
#    0.158    1.579    4.737    1.026    0.000    1.895 
#    0.000    0.789    0.000    1.895    0.000    4.421 
#    0.000    0.000    0.000    0.000    0.000    0.000 
#
# Total GULP energy -423517.589524 kJ/mol
# GULP energy per Si atom -5572.599862 kJ/mol
# Density = 1.712154 g / cm^3
# Si number density = 17.160599 Si / 1000 Ang^3
#
#
#
# Elastic Constant Matrix: (Units=GPa)
#
#
# Indices 1 2 3 4 5 6 
#
# 1 65.2230 27.5704 38.2821 0.0000 0.0000 0.0000
# 2 27.5704 65.2233 38.2822 0.0000 0.0000 0.0000
# 3 38.2821 38.2822 107.6993 0.0000 0.0000 0.0000
# 4 0.0000 0.0000 0.0000 16.0576 0.0001 0.0000
# 5 0.0000 0.0000 0.0000 0.0001 16.0575 0.0000
# 6 0.0000 0.0000 0.0000 0.0000 0.0000 18.8263
#
#
#
# Elastic Compliance Matrix: (Units=1/GPa)
#
#
# Indices 1 2 3 4 5 6 
#
# 1 0.020904 -0.005655 -0.005420 0.000000 0.000000 0.000000
# 2 -0.005655 0.020904 -0.005420 0.000000 0.000000 0.000000
# 3 -0.005420 -0.005420 0.013138 0.000000 0.000000 0.000000
# 4 0.000000 0.000000 0.000000 0.062276 0.000000 0.000000
# 5 0.000000 0.000000 0.000000 0.000000 0.062276 0.000000
# 6 0.000000 0.000000 0.000000 0.000000 0.000000 0.053117
#
#
# Mechanical properties :
#
#
# Convention : Reuss Voigt Hill
#
# Bulk Modulus (GPa) = 45.54749 49.60168 47.57459
# Shear Modulus (GPa) = 18.32010 19.12233 18.72122
#
# Velocity S-wave (km/s) = 3.27091 3.34176 3.30652
# Velocity P-wave (km/s) = 6.39255 6.62246 6.50852
#
# Compressibility (1/GPa) = 0.02195510
#
# Stress axis : x y z
#
# Youngs Moduli (GPa) = 47.83831 47.83849 76.11256
#
# Poissons Ratio (x) = 0.27052 0.41255
# Poissons Ratio (y) = 0.27052 0.41255
# Poissons Ratio (z) = 0.25930 0.25930
#
# Static dielectric constant tensor:
#      x y z
#    x 1.580300 0.000000 0.000000 
#    y 0.000000 1.580300 0.000000 
#    z 0.000000 0.000000 1.570280 
# 
# From -- ./inp_files/2576.got.cif
#   From: 2010.05.17/outbox.cif.g08.bks.cpg/sg175_2_cif.got.tgz:2576.got - 2010.05.20 11:23:22.
