data_PCOD9581099
_publ_section_title
;
Structure prediction by ZEFSAII (Michael W. Deem and Ramdas Pophale) SiO2 
 PCOD9581099
Probable space group: P 63
;
_chemical_formula_sum "Si O2"
_cell_formula_units_Z 34
_cell_length_a 14.827696
_cell_length_b 14.827696
_cell_length_c 7.399905
_cell_angle_alpha 90.000000
_cell_angle_beta 90.000000
_cell_angle_gamma 120.000000
_cell_volume 1408.977711
_symmetry_space_group_name_H-M "P 63"
_symmetry_group_IT_number 173
_symmetry_cell_setting 'hexagonal'
loop_
_space_group_symop_operation_xyz
x,y,z
x-y,x,1/2+z
-y,x-y,z
-x,-y,1/2+z
-x+y,-x,z
y,-x+y,1/2+z
loop_
_atom_site_type_symbol
_atom_site_label
_atom_site_fract_x
_atom_site_fract_y
_atom_site_fract_z
Si Si1 0.554025 0.112624 0.051840
Si Si2 0.838763 0.291670 0.705404
Si Si3 0.138725 0.217387 0.778435
Si Si4 0.333334 0.666668 0.643587
Si Si5 0.979845 0.370060 0.349279
Si Si6 0.666668 0.333334 0.709212
Si Si7 0.219741 0.080057 0.677076
O O1 0.614116 0.212704 0.181960
O O2 0.467523 0.030933 0.187800
O O3 0.495097 0.130152 0.882845
O O4 0.634952 0.084480 0.958108
O O5 0.900403 0.339301 0.518316
O O6 0.722647 0.268357 0.657466
O O7 0.865966 0.201987 0.753646
O O8 0.260033 0.305469 0.762410
O O9 0.142546 0.110967 0.771354
O O10 0.045081 0.210514 0.660450
O O11 0.106555 0.232065 0.977316
O O12 0.333334 0.666667 0.425373
#
# Coordination Sequence:
#
# PCOD9581099 Si02
#       7
#     6   6   6   2   6   2   6
#     4  11  23  44  66  97 139 177 231 284 342 411
#     4  10  24  43  69 103 138 184 227 289 346 416
#     4  11  26  44  71 104 138 185 234 294 358 427
#     4   9  24  40  68  97 133 185 220 283 341 409
#     4  11  25  42  70 102 136 187 232 284 350 413
#     4   9  21  46  71 100 139 182 232 280 344 412
#     4  11  25  45  69 101 141 182 234 292 361 422
#
# _framework density 24.130972
#
# number of rings (size 3 to 8) (size 9 to 14) (size 15 to 20)
#    0.000    1.412    1.765    1.412   12.353    2.824 
#    3.176    0.000    0.000    0.000    0.000    0.000 
#    0.000    0.000    0.000    0.000    0.000    0.000 
#
# Total GULP energy -189505.542721 kJ/mol
# GULP energy per Si atom -5573.692433 kJ/mol
# Density = 2.407605 g / cm^3
# Si number density = 24.130972 Si / 1000 Ang^3
#
#
#
# Elastic Constant Matrix: (Units=GPa)
#
#
# Indices 1 2 3 4 5 6 
#
# 1 98.6772 50.3305 -2.3335 0.0000 0.0000 -0.0001
# 2 50.3305 98.6779 -2.3330 0.0000 0.0000 0.0000
# 3 -2.3335 -2.3330 58.3136 0.0000 0.0000 -0.0003
# 4 0.0000 0.0000 0.0000 22.2222 0.0000 0.0000
# 5 0.0000 0.0000 0.0000 0.0000 22.2222 0.0000
# 6 -0.0001 0.0000 -0.0003 0.0000 0.0000 24.1735
#
#
#
# Elastic Compliance Matrix: (Units=1/GPa)
#
#
# Indices 1 2 3 4 5 6 
#
# 1 0.013702 -0.006982 0.000269 0.000000 0.000000 0.000000
# 2 -0.006982 0.013702 0.000269 0.000000 0.000000 0.000000
# 3 0.000269 0.000269 0.017170 0.000000 0.000000 0.000000
# 4 0.000000 0.000000 0.000000 0.045000 0.000000 0.000000
# 5 0.000000 0.000000 0.000000 0.000000 0.045000 0.000000
# 6 0.000000 0.000000 0.000000 0.000000 0.000000 0.041368
#
#
# Mechanical properties :
#
#
# Convention : Reuss Voigt Hill
#
# Bulk Modulus (GPa) = 31.56114 38.55520 35.05817
# Shear Modulus (GPa) = 25.07628 27.72389 26.40009
#
# Velocity S-wave (km/s) = 3.22712 3.39321 3.31121
# Velocity P-wave (km/s) = 5.19550 5.60036 5.40172
#
# Compressibility (1/GPa) = 0.03168454
#
# Stress axis : x y z
#
# Youngs Moduli (GPa) = 72.98372 72.98427 58.24056
#
# Poissons Ratio (x) = 0.50959 -0.01566
# Poissons Ratio (y) = 0.50958 -0.01565
# Poissons Ratio (z) = -0.01963 -0.01962
#
# Static dielectric constant tensor:
#      x y z
#    x 2.005270 0.000000 0.000000 
#    y 0.000000 2.005270 0.000000 
#    z 0.000000 0.000000 1.844510 
# 
# From -- ./inp_files/566.got.cif
#   From: 2010.05.17/outbox.cif.g08.bks.cpg/sg173_cif.got.tgz:566.got - 2010.05.20 11:21:53.
