data_PCOD9581026
_publ_section_title
;
Structure prediction by ZEFSAII (Michael W. Deem and Ramdas Pophale) SiO2 
 PCOD9581026
Probable space group: P 63
;
_chemical_formula_sum "Si O2"
_cell_formula_units_Z 42
_cell_length_a 15.772187
_cell_length_b 15.772187
_cell_length_c 9.575876
_cell_angle_alpha 90.000000
_cell_angle_beta 90.000000
_cell_angle_gamma 120.000000
_cell_volume 2062.970323
_symmetry_space_group_name_H-M "P 63"
_symmetry_group_IT_number 173
_symmetry_cell_setting 'hexagonal'
loop_
_space_group_symop_operation_xyz
x,y,z
x-y,x,1/2+z
-y,x-y,z
-x,-y,1/2+z
-x+y,-x,z
y,-x+y,1/2+z
loop_
_atom_site_type_symbol
_atom_site_label
_atom_site_fract_x
_atom_site_fract_y
_atom_site_fract_z
Si Si1 0.354095 0.853795 0.237040
Si Si2 0.470679 0.885238 0.485747
Si Si3 0.392299 0.130961 0.769241
Si Si4 0.083180 0.674913 0.741906
Si Si5 0.126080 0.200880 0.716009
Si Si6 0.530749 0.916204 0.039732
Si Si7 0.877493 0.809623 0.884176
O O1 0.375586 0.823350 0.389899
O O2 0.240760 0.783129 0.212113
O O3 0.429493 0.852535 0.124691
O O4 0.376521 0.966882 0.236893
O O5 0.555192 0.907033 0.374230
O O6 0.509540 0.859413 0.624017
O O7 0.464710 0.980994 0.520809
O O8 0.376317 0.067502 0.631377
O O9 0.305225 0.128743 0.853636
O O10 0.088377 0.778855 0.723718
O O11 0.121556 0.662946 0.890928
O O12 0.145119 0.122715 0.798007
O O13 0.107638 0.172699 0.550804
O O14 0.035030 0.191351 0.805352
#
# Coordination Sequence:
#
# PCOD9581026 Si02
#       7
#     6   6   6   6   6   6   6
#     4   9  19  38  64  94 125 164 217 269 326 409
#     4   9  19  40  61  93 127 168 209 269 332 392
#     4  11  21  39  68  95 130 174 225 268 332 409
#     4  10  19  38  65  93 132 166 214 271 326 400
#     4  12  26  44  66  93 140 177 234 284 339 393
#     4   9  21  37  64  94 131 168 210 265 335 389
#     4  12  27  44  66  96 133 183 231 284 336 394
#
# _framework density 20.358993999999999
#
# number of rings (size 3 to 8) (size 9 to 14) (size 15 to 20)
#    0.000    1.714    2.857    2.000    4.000    0.000 
#    6.857    1.429    0.000    0.000    0.000    0.000 
#    0.000    0.000    0.000    0.000    0.000    0.000 
#
# Total GULP energy -233885.559988 kJ/mol
# GULP energy per Si atom -5568.703809 kJ/mol
# Density = 2.031266 g / cm^3
# Si number density = 20.358994 Si / 1000 Ang^3
#
#
#
# Elastic Constant Matrix: (Units=GPa)
#
#
# Indices 1 2 3 4 5 6 
#
# 1 -22.4808 71.1683 18.6764 0.0000 0.0000 0.0000
# 2 71.1683 -22.4808 18.6764 0.0000 0.0000 0.0000
# 3 18.6764 18.6764 164.9587 0.0000 0.0000 0.0000
# 4 0.0000 0.0000 0.0000 44.6115 0.0000 0.0000
# 5 0.0000 0.0000 0.0000 0.0000 44.6115 0.0000
# 6 0.0000 0.0000 0.0000 0.0000 0.0000 -46.8245
#
#
#
# Elastic Compliance Matrix: (Units=1/GPa)
#
#
# Indices 1 2 3 4 5 6 
#
# 1 0.005907 0.016586 -0.002547 0.000000 0.000000 0.000000
# 2 0.016586 0.005907 -0.002547 0.000000 0.000000 0.000000
# 3 -0.002547 -0.002547 0.006639 0.000000 0.000000 0.000000
# 4 0.000000 0.000000 0.000000 0.022416 0.000000 0.000000
# 5 0.000000 0.000000 0.000000 0.000000 0.022416 0.000000
# 6 0.000000 0.000000 0.000000 0.000000 0.000000 -0.021356
#
#
# Mechanical properties :
#
#
# Convention : Reuss Voigt Hill
#
# Bulk Modulus (GPa) = 24.13238 37.44880 30.79059
# Shear Modulus (GPa) = 152.64049 9.24478 80.94263
#
# Velocity S-wave (km/s) = 8.66817 2.13325 6.31221
# Velocity P-wave (km/s) = 10.58594 4.94993 8.26329
#
# Compressibility (1/GPa) = 0.04143810
#
# Stress axis : x y z
#
# Youngs Moduli (GPa) = 169.28036 169.28036 150.63035
#
# Poissons Ratio (x) = -2.80760 0.38360
# Poissons Ratio (y) = -2.80760 0.38360
# Poissons Ratio (z) = 0.43109 0.43109
#
# Static dielectric constant tensor:
#      x y z
#    x 1.644700 0.000000 0.000000 
#    y 0.000000 1.644700 0.000000 
#    z 0.000000 0.000000 1.773340 
# 
# From -- ./inp_files/620.got.cif
#   From: 2010.05.17/outbox.cif.g08.bks.cpg/sg173_cif.got.tgz:620.got - 2010.05.20 11:21:53.
