data_PCOD9581463
_publ_section_title
;
Structure prediction by ZEFSAII (Michael W. Deem and Ramdas Pophale) SiO2 
 PCOD9581463
Probable space group: P 6/M
;
_chemical_formula_sum "Si O2"
_cell_formula_units_Z 60
_cell_length_a 22.469718
_cell_length_b 22.469718
_cell_length_c 7.904212
_cell_angle_alpha 90.000000
_cell_angle_beta 90.000000
_cell_angle_gamma 120.000000
_cell_volume 3456.085322
_symmetry_space_group_name_H-M "P 6/M"
_symmetry_group_IT_number 175
_symmetry_cell_setting 'hexagonal'
loop_
_space_group_symop_operation_xyz
x,y,z
x-y,x,z
-y,x-y,z
-x,-y,z
-x+y,-x,z
y,-x+y,z
-x,-y,-z
-x+y,-x,-z
y,-x+y,-z
x,y,-z
x-y,x,-z
-y,x-y,-z
loop_
_atom_site_type_symbol
_atom_site_label
_atom_site_fract_x
_atom_site_fract_y
_atom_site_fract_z
Si Si1 0.655365 0.195666 0.301879
Si Si2 0.387748 0.308418 0.301512
Si Si3 0.200966 0.676322 0.805158
Si Si4 0.784976 0.079096 0.000000
Si Si5 0.213174 0.293322 0.000000
Si Si6 0.383222 0.080064 0.309454
O O1 0.638450 0.190800 0.500000
O O2 0.663167 0.130172 0.256891
O O3 0.728322 0.263658 0.271260
O O4 0.594860 0.199240 0.206643
O O5 0.378282 0.285688 0.500000
O O6 0.340777 0.250106 0.166857
O O7 0.364202 0.365464 0.288785
O O8 0.135547 0.672800 0.714588
O O9 0.198641 0.694045 0.000000
O O10 0.864994 0.133364 0.000000
O O11 0.764448 0.999666 0.000000
O O12 0.248141 0.340137 0.834515
O O13 0.362047 0.086511 0.500000
#
# Coordination Sequence:
#
# PCOD9581463 Si02
#       6
#    12  12  12   6   6  12
#     4  11  23  39  55  74 102 144 186 228 278 324
#     4   9  21  37  58  83 107 139 178 226 276 324
#     4  12  24  37  53  78 106 141 184 228 276 327
#     4  10  20  34  59  80 119 139 183 215 270 314
#     4  10  20  36  55  88 109 151 175 225 262 320
#     4  10  20  38  58  82 111 139 178 224 277 329
#
# _framework density 17.360683000000002
#
# number of rings (size 3 to 8) (size 9 to 14) (size 15 to 20)
#    0.000    1.600    1.000    4.000    2.800    3.200 
#    0.000    4.000    0.000    0.200    0.000    0.000 
#    0.000    0.000    0.000   10.000    0.000    0.000 
#
# Total GULP energy -335055.972666 kJ/mol
# GULP energy per Si atom -5584.266211 kJ/mol
# Density = 1.732117 g / cm^3
# Si number density = 17.360683 Si / 1000 Ang^3
#
#
#
# Elastic Constant Matrix: (Units=GPa)
#
#
# Indices 1 2 3 4 5 6 
#
# 1 84.8295 75.9486 24.1426 0.0000 0.0000 0.0000
# 2 75.9486 84.8295 24.1426 0.0000 0.0000 0.0000
# 3 24.1426 24.1426 61.8249 0.0000 0.0000 0.0000
# 4 0.0000 0.0000 0.0000 14.6813 0.0000 0.0000
# 5 0.0000 0.0000 0.0000 0.0000 14.6813 0.0000
# 6 0.0000 0.0000 0.0000 0.0000 0.0000 4.4404
#
#
#
# Elastic Compliance Matrix: (Units=1/GPa)
#
#
# Indices 1 2 3 4 5 6 
#
# 1 0.059824 -0.052778 -0.002751 0.000000 0.000000 0.000000
# 2 -0.052778 0.059824 -0.002751 0.000000 0.000000 0.000000
# 3 -0.002751 -0.002751 0.018324 0.000000 0.000000 0.000000
# 4 0.000000 0.000000 0.000000 0.068114 0.000000 0.000000
# 5 0.000000 0.000000 0.000000 0.000000 0.068114 0.000000
# 6 0.000000 0.000000 0.000000 0.000000 0.000000 0.225204
#
#
# Mechanical properties :
#
#
# Convention : Reuss Voigt Hill
#
# Bulk Modulus (GPa) = 46.70752 53.32792 50.01772
# Shear Modulus (GPa) = 8.02437 13.91061 10.96749
#
# Velocity S-wave (km/s) = 2.15225 2.83374 2.51618
# Velocity P-wave (km/s) = 5.75664 6.44136 6.10860
#
# Compressibility (1/GPa) = 0.02140983
#
# Stress axis : x y z
#
# Youngs Moduli (GPa) = 16.71571 16.71571 54.57441
#
# Poissons Ratio (x) = 0.88222 0.15016
# Poissons Ratio (y) = 0.88222 0.15016
# Poissons Ratio (z) = 0.04599 0.04599
#
# Static dielectric constant tensor:
#      x y z
#    x 1.567340 0.000000 0.000000 
#    y 0.000000 1.567340 0.000000 
#    z 0.000000 0.000000 1.607640 
# 
# From -- ./inp_files/920.got.cif
#   From: 2010.05.17/outbox.cif.g08.bks.cpg/sg175_1_cif.got.tgz:920.got - 2010.05.20 11:23:22.
