data_PCOD9581036
_publ_section_title
;
Structure prediction by ZEFSAII (Michael W. Deem and Ramdas Pophale) SiO2 
 PCOD9581036
Probable space group: P 63
;
_chemical_formula_sum "Si O2"
_cell_formula_units_Z 48
_cell_length_a 18.654148
_cell_length_b 18.654148
_cell_length_c 8.732774
_cell_angle_alpha 90.000000
_cell_angle_beta 90.000000
_cell_angle_gamma 120.000000
_cell_volume 2631.683690
_symmetry_space_group_name_H-M "P 63"
_symmetry_group_IT_number 173
_symmetry_cell_setting 'hexagonal'
loop_
_space_group_symop_operation_xyz
x,y,z
x-y,x,1/2+z
-y,x-y,z
-x,-y,1/2+z
-x+y,-x,z
y,-x+y,1/2+z
loop_
_atom_site_type_symbol
_atom_site_label
_atom_site_fract_x
_atom_site_fract_y
_atom_site_fract_z
Si Si1 0.814319 0.913029 0.081520
Si Si2 0.811077 0.620986 0.581468
Si Si3 0.913029 0.098709 0.211980
Si Si4 0.906138 0.532854 0.079518
Si Si5 0.099596 0.620629 0.081099
Si Si6 0.532854 0.626717 0.213982
Si Si7 0.190091 0.811077 0.712032
Si Si8 0.900404 0.379371 0.212400
O O1 0.717262 0.865481 0.126362
O O2 0.856609 0.861743 0.143121
O O3 0.861743 0.005133 0.150378
O O4 0.819803 0.917913 0.896750
O O5 0.715648 0.566405 0.630994
O O6 0.861618 0.579488 0.645820
O O7 0.812625 0.619373 0.396750
O O8 0.865481 0.148218 0.167137
O O9 0.861618 0.579488 0.147680
O O10 0.871735 0.440155 0.141559
O O11 0.003257 0.583170 0.123128
O O12 0.900609 0.531424 0.896750
O O13 0.128265 0.559845 0.151941
O O14 0.104341 0.617576 0.896750
O O15 0.583170 0.579913 0.170371
O O16 0.149243 0.715648 0.662506
#
# Coordination Sequence:
#
# PCOD9581036 Si02
#       8
#     6   6   6   6   6   6   6   6
#     4  11  23  39  59  85 118 155 196 240 287 338
#     4  10  21  37  58  83 111 148 189 229 278 341
#     4  11  23  39  59  85 118 155 196 240 287 338
#     4  10  20  35  57  83 110 140 180 231 277 325
#     4   9  19  37  57  78 108 145 182 220 274 336
#     4  10  20  35  57  83 110 140 180 231 277 325
#     4  10  21  37  58  83 111 148 189 229 278 341
#     4   9  19  37  57  78 108 145 182 220 274 336
#
# _framework density 18.239274000000002
#
# number of rings (size 3 to 8) (size 9 to 14) (size 15 to 20)
#    0.000    2.000    0.000    3.250    0.000    6.000 
#    1.500    0.000    0.000    0.000    0.000    0.000 
#    0.000    0.000    0.000    0.000    0.000    0.000 
#
# Total GULP energy -268071.768875 kJ/mol
# GULP energy per Si atom -5584.828518 kJ/mol
# Density = 1.819776 g / cm^3
# Si number density = 18.239274 Si / 1000 Ang^3
#
#
#
# Elastic Constant Matrix: (Units=GPa)
#
#
# Indices 1 2 3 4 5 6 
#
# 1 53.4205 0.7558 16.1422 0.0000 0.0000 0.0000
# 2 0.7558 53.4205 16.1422 0.0000 0.0000 0.0000
# 3 16.1422 16.1422 19.8816 0.0000 0.0000 0.0000
# 4 0.0000 0.0000 0.0000 21.7298 0.0000 0.0000
# 5 0.0000 0.0000 0.0000 0.0000 21.7298 0.0000
# 6 0.0000 0.0000 0.0000 0.0000 0.0000 26.3323
#
#
#
# Elastic Compliance Matrix: (Units=1/GPa)
#
#
# Indices 1 2 3 4 5 6 
#
# 1 0.027374 0.008386 -0.029034 0.000000 0.000000 0.000000
# 2 0.008386 0.027374 -0.029034 0.000000 0.000000 0.000000
# 3 -0.029034 -0.029034 0.097444 0.000000 0.000000 0.000000
# 4 0.000000 0.000000 0.000000 0.046020 0.000000 0.000000
# 5 0.000000 0.000000 0.000000 0.000000 0.046020 0.000000
# 6 0.000000 0.000000 0.000000 0.000000 0.000000 0.037976
#
#
# Mechanical properties :
#
#
# Convention : Reuss Voigt Hill
#
# Bulk Modulus (GPa) = 18.92942 21.42255 20.17599
# Shear Modulus (GPa) = 12.52563 20.20388 16.36476
#
# Velocity S-wave (km/s) = 2.62341 3.33184 2.99862
# Velocity P-wave (km/s) = 4.42463 5.15484 4.80363
#
# Compressibility (1/GPa) = 0.05282781
#
# Stress axis : x y z
#
# Youngs Moduli (GPa) = 36.53096 36.53096 10.26230
#
# Poissons Ratio (x) = -0.30635 0.29796
# Poissons Ratio (y) = -0.30635 0.29796
# Poissons Ratio (z) = 1.06064 1.06064
#
# Static dielectric constant tensor:
#      x y z
#    x 1.605980 0.000000 0.000000 
#    y 0.000000 1.605980 0.000000 
#    z 0.000000 0.000000 1.613170 
# 
# From -- ./inp_files/676.got.cif
#   From: 2010.05.17/outbox.cif.g08.bks.cpg/sg173_cif.got.tgz:676.got - 2010.05.20 11:21:53.
