data_PCOD9581083
_publ_section_title
;
Structure prediction by ZEFSAII (Michael W. Deem and Ramdas Pophale) SiO2 
 PCOD9581083
Probable space group: P 63
;
_chemical_formula_sum "Si O2"
_cell_formula_units_Z 24
_cell_length_a 8.906646
_cell_length_b 8.906646
_cell_length_c 18.843463
_cell_angle_alpha 90.000000
_cell_angle_beta 90.000000
_cell_angle_gamma 120.000000
_cell_volume 1294.552696
_symmetry_space_group_name_H-M "P 63"
_symmetry_group_IT_number 173
_symmetry_cell_setting 'hexagonal'
loop_
_space_group_symop_operation_xyz
x,y,z
x-y,x,1/2+z
-y,x-y,z
-x,-y,1/2+z
-x+y,-x,z
y,-x+y,1/2+z
loop_
_atom_site_type_symbol
_atom_site_label
_atom_site_fract_x
_atom_site_fract_y
_atom_site_fract_z
Si Si1 0.686847 0.540073 0.127300
Si Si2 0.030734 0.818606 0.496276
Si Si3 0.988286 0.331263 0.285302
Si Si4 0.680544 0.665500 0.842304
O O1 0.514118 0.350458 0.122874
O O2 0.682080 0.617603 0.203086
O O3 0.721913 0.671922 0.063951
O O4 0.852789 0.827467 0.496673
O O5 0.049660 0.732223 0.424869
O O6 0.005439 0.502629 0.321013
O O7 0.834149 0.165180 0.323179
O O8 0.165687 0.331650 0.297130
#
# Coordination Sequence:
#
# PCOD9581083 Si02
#       4
#     6   6   6   6
#     4  10  23  41  63  97 134 177 221 277 348 404
#     4  10  23  41  63 101 131 179 225 272 353 407
#     4  12  24  44  68  99 137 184 232 286 340 412
#     4  12  24  44  68  99 138 180 236 287 337 415
#
# _framework density 18.539223
#
# number of rings (size 3 to 8) (size 9 to 14) (size 15 to 20)
#    1.000    0.000    5.000    1.500    7.000    0.000 
#    0.000    0.000    0.000    1.000    0.000    0.000 
#    0.000    0.000    0.000    0.000    0.000    0.000 
#
# Total GULP energy -133926.263531 kJ/mol
# GULP energy per Si atom -5580.260980 kJ/mol
# Density = 1.849703 g / cm^3
# Si number density = 18.539223 Si / 1000 Ang^3
#
#
#
# Elastic Constant Matrix: (Units=GPa)
#
#
# Indices 1 2 3 4 5 6 
#
# 1 124.1766 70.8114 63.3207 0.0000 0.0000 0.0000
# 2 70.8114 124.1766 63.3207 0.0000 0.0000 0.0000
# 3 63.3207 63.3207 197.4494 0.0000 0.0000 0.0000
# 4 0.0000 0.0000 0.0000 30.3191 0.0000 0.0000
# 5 0.0000 0.0000 0.0000 0.0000 30.3191 0.0000
# 6 0.0000 0.0000 0.0000 0.0000 0.0000 26.6826
#
#
#
# Elastic Compliance Matrix: (Units=1/GPa)
#
#
# Indices 1 2 3 4 5 6 
#
# 1 0.012608 -0.006131 -0.002077 0.000000 0.000000 0.000000
# 2 -0.006131 0.012608 -0.002077 0.000000 0.000000 0.000000
# 3 -0.002077 -0.002077 0.006397 0.000000 0.000000 0.000000
# 4 0.000000 0.000000 0.000000 0.032982 0.000000 0.000000
# 5 0.000000 0.000000 0.000000 0.000000 0.032982 0.000000
# 6 0.000000 0.000000 0.000000 0.000000 0.000000 0.037478
#
#
# Mechanical properties :
#
#
# Convention : Reuss Voigt Hill
#
# Bulk Modulus (GPa) = 90.55521 93.41203 91.98362
# Shear Modulus (GPa) = 31.38583 34.02083 32.70333
#
# Velocity S-wave (km/s) = 4.11900 4.28842 4.20457
# Velocity P-wave (km/s) = 8.46007 8.66120 8.56122
#
# Compressibility (1/GPa) = 0.01104299
#
# Stress axis : x y z
#
# Youngs Moduli (GPa) = 79.31305 79.31305 156.32367
#
# Poissons Ratio (x) = 0.48623 0.32474
# Poissons Ratio (y) = 0.48623 0.32474
# Poissons Ratio (z) = 0.16476 0.16476
#
# Static dielectric constant tensor:
#      x y z
#    x 1.647780 0.000000 0.000000 
#    y 0.000000 1.647780 0.000000 
#    z 0.000000 0.000000 1.612800 
# 
# From -- ./inp_files/1334.got.cif
#   From: 2010.05.17/outbox.cif.g08.bks.cpg/sg173_cif.got.tgz:1334.got - 2010.05.20 11:21:53.
