data_PCOD9581277
_publ_section_title
;
Structure prediction by ZEFSAII (Michael W. Deem and Ramdas Pophale) SiO2 
 PCOD9581277
Probable space group: P 6/M
;
_chemical_formula_sum "Si O2"
_cell_formula_units_Z 84
_cell_length_a 23.531127
_cell_length_b 23.531127
_cell_length_c 7.418748
_cell_angle_alpha 90.000000
_cell_angle_beta 90.000000
_cell_angle_gamma 120.000000
_cell_volume 3557.514726
_symmetry_space_group_name_H-M "P 6/M"
_symmetry_group_IT_number 175
_symmetry_cell_setting 'hexagonal'
loop_
_space_group_symop_operation_xyz
x,y,z
x-y,x,z
-y,x-y,z
-x,-y,z
-x+y,-x,z
y,-x+y,z
-x,-y,-z
-x+y,-x,-z
y,-x+y,-z
x,y,-z
x-y,x,-z
-y,x-y,-z
loop_
_atom_site_type_symbol
_atom_site_label
_atom_site_fract_x
_atom_site_fract_y
_atom_site_fract_z
Si Si1 0.782085 0.464018 0.782364
Si Si2 0.856084 0.159546 0.284740
Si Si3 0.934203 0.086631 0.720090
Si Si4 0.400411 0.286465 0.705242
Si Si5 0.348776 0.554811 0.218218
Si Si6 0.690753 0.588961 0.784312
Si Si7 0.019918 0.447744 0.294100
O O1 0.814577 0.536059 0.702691
O O2 0.705474 0.425722 0.737338
O O3 0.813481 0.420850 0.718603
O O4 0.787006 0.471124 0.000000
O O5 0.850278 0.150279 0.500000
O O6 0.899792 0.128389 0.220484
O O7 0.780528 0.122070 0.214599
O O8 0.888197 0.237705 0.255646
O O9 0.934624 0.087333 0.500000
O O10 0.010350 0.119392 0.775635
O O11 0.381067 0.292359 0.500000
O O12 0.432928 0.358851 0.792619
O O13 0.319192 0.480580 0.277017
O O14 0.353421 0.555051 0.000000
O O15 0.626138 0.585611 0.705980
O O16 0.684275 0.587685 0.000000
O O17 0.041153 0.470701 0.500000
O O18 0.000000 0.500000 0.216532
#
# Coordination Sequence:
#
# PCOD9581277 Si02
#       7
#    12  12  12  12  12  12  12
#     4  10  18  33  54  75 104 143 187 239 295 348
#     4  10  21  36  57  84 116 158 194 234 292 356
#     4   9  18  33  59  93 124 151 186 235 292 356
#     4  10  21  36  54  79 111 148 194 238 286 346
#     4   9  18  31  51  77 103 138 185 237 292 346
#     4  11  22  37  56  83 115 148 195 247 291 342
#     4  10  22  39  59  84 116 157 198 243 296 351
#
# _framework density 23.611991
#
# number of rings (size 3 to 8) (size 9 to 14) (size 15 to 20)
#    0.000    2.143    1.429    1.714    2.000    2.571 
#    0.000    1.429    0.000    0.000    0.000    0.000 
#    0.000    1.143    0.000    0.000    0.000    0.000 
#
# Total GULP energy -468596.546287 kJ/mol
# GULP energy per Si atom -5578.530313 kJ/mol
# Density = 2.355825 g / cm^3
# Si number density = 23.611991 Si / 1000 Ang^3
#
#
#
# Elastic Constant Matrix: (Units=GPa)
#
#
# Indices 1 2 3 4 5 6 
#
# 1 159.7363 67.4626 3.8547 0.0000 0.0000 0.0000
# 2 67.4626 159.7363 3.8547 0.0000 0.0000 0.0000
# 3 3.8547 3.8547 82.0769 0.0000 0.0000 0.0000
# 4 0.0000 0.0000 0.0000 -8.1673 0.0000 0.0000
# 5 0.0000 0.0000 0.0000 0.0000 -8.1673 0.0000
# 6 0.0000 0.0000 0.0000 0.0000 0.0000 46.1369
#
#
#
# Elastic Compliance Matrix: (Units=1/GPa)
#
#
# Indices 1 2 3 4 5 6 
#
# 1 0.007623 -0.003214 -0.000207 0.000000 0.000000 0.000000
# 2 -0.003214 0.007623 -0.000207 0.000000 0.000000 0.000000
# 3 -0.000207 -0.000207 0.012203 0.000000 0.000000 0.000000
# 4 0.000000 0.000000 0.000000 -0.122439 0.000000 0.000000
# 5 0.000000 0.000000 0.000000 0.000000 -0.122439 0.000000
# 6 0.000000 0.000000 0.000000 0.000000 0.000000 0.021675
#
#
# Mechanical properties :
#
#
# Convention : Reuss Voigt Hill
#
# Bulk Modulus (GPa) = 49.52484 61.32151 55.42317
# Shear Modulus (GPa) = -27.50776 27.71895 0.10560
#
# Velocity S-wave (km/s) = -3.41690 3.42999 0.21171
# Velocity P-wave (km/s) = 2.33517 6.45859 4.85625
#
# Compressibility (1/GPa) = 0.02019189
#
# Stress axis : x y z
#
# Youngs Moduli (GPa) = 131.18390 131.18390 81.94612
#
# Poissons Ratio (x) = 0.42168 0.01697
# Poissons Ratio (y) = 0.42168 0.01697
# Poissons Ratio (z) = 0.02716 0.02716
#
# Static dielectric constant tensor:
#      x y z
#    x 1.960180 0.000000 0.000000 
#    y 0.000000 1.960180 0.000000 
#    z 0.000000 0.000000 1.927220 
# 
# From -- ./inp_files/2019.got.cif
#   From: 2010.05.17/outbox.cif.g08.bks.cpg/sg175_2_cif.got.tgz:2019.got - 2010.05.20 11:23:22.
