data_PCOD9581108
_publ_section_title
;
Structure prediction by ZEFSAII (Michael W. Deem and Ramdas Pophale) SiO2 
 PCOD9581108
Probable space group: P 63
;
_chemical_formula_sum "Si O2"
_cell_formula_units_Z 48
_cell_length_a 16.493264
_cell_length_b 16.493264
_cell_length_c 10.120992
_cell_angle_alpha 90.000000
_cell_angle_beta 90.000000
_cell_angle_gamma 120.000000
_cell_volume 2384.333136
_symmetry_space_group_name_H-M "P 63"
_symmetry_group_IT_number 173
_symmetry_cell_setting 'hexagonal'
loop_
_space_group_symop_operation_xyz
x,y,z
x-y,x,1/2+z
-y,x-y,z
-x,-y,1/2+z
-x+y,-x,z
y,-x+y,1/2+z
loop_
_atom_site_type_symbol
_atom_site_label
_atom_site_fract_x
_atom_site_fract_y
_atom_site_fract_z
Si Si1 0.433542 0.544460 0.014430
Si Si2 0.768591 0.735392 0.166578
Si Si3 0.875849 0.617624 0.812499
Si Si4 0.765107 0.210225 0.523591
Si Si5 0.092393 0.976986 0.000778
Si Si6 0.709316 0.629418 0.905984
Si Si7 0.801480 0.086766 0.314403
Si Si8 0.534573 0.060239 0.817442
O O1 0.478537 0.656160 0.001540
O O2 0.321489 0.491985 0.015421
O O3 0.468057 0.527411 0.157666
O O4 0.470533 0.509188 0.892747
O O5 0.704508 0.724772 0.290890
O O6 0.820882 0.843333 0.119429
O O7 0.847997 0.709481 0.195882
O O8 0.703029 0.669871 0.048289
O O9 0.826051 0.596099 0.669166
O O10 0.810772 0.640321 0.901235
O O11 0.883738 0.528027 0.851681
O O12 0.794967 0.156830 0.419117
O O13 0.981491 0.905130 0.003068
O O14 0.138228 0.957522 0.874656
O O15 0.698927 0.697626 0.800419
O O16 0.630161 0.524866 0.875039
#
# Coordination Sequence:
#
# PCOD9581108 Si02
#       8
#     6   6   6   6   6   6   6   6
#     4  11  23  42  71  99 130 176 219 283 341 411
#     4  11  24  40  64  94 137 171 220 278 328 396
#     4  11  23  41  64  96 125 172 221 267 329 405
#     4  11  21  42  65  98 124 166 222 269 338 405
#     4   9  22  37  54  87 127 179 221 260 316 374
#     4  11  23  44  63  97 132 168 223 270 333 404
#     4  11  23  39  66  91 133 176 215 274 326 399
#     4  11  23  43  69  96 136 172 225 281 341 396
#
# _framework density 20.131415000000001
#
# number of rings (size 3 to 8) (size 9 to 14) (size 15 to 20)
#    0.250    1.000    5.000    1.750    5.250    1.000 
#    0.750    0.000    0.000    0.000    0.000    0.000 
#    0.000    0.000    0.000    0.000    0.000    0.000 
#
# Total GULP energy -267933.193832 kJ/mol
# GULP energy per Si atom -5581.941538 kJ/mol
# Density = 2.008559 g / cm^3
# Si number density = 20.131415 Si / 1000 Ang^3
#
#
#
# Elastic Constant Matrix: (Units=GPa)
#
#
# Indices 1 2 3 4 5 6 
#
# 1 86.2518 13.0517 36.6701 0.0000 0.0000 0.0000
# 2 13.0517 86.2518 36.6701 0.0000 0.0000 0.0000
# 3 36.6701 36.6701 55.4319 0.0000 0.0000 0.0000
# 4 0.0000 0.0000 0.0000 25.2728 0.0000 0.0000
# 5 0.0000 0.0000 0.0000 0.0000 25.2728 0.0000
# 6 0.0000 0.0000 0.0000 0.0000 0.0000 36.6001
#
#
#
# Elastic Compliance Matrix: (Units=1/GPa)
#
#
# Indices 1 2 3 4 5 6 
#
# 1 0.016676 0.003015 -0.013026 0.000000 0.000000 0.000000
# 2 0.003015 0.016676 -0.013026 0.000000 0.000000 0.000000
# 3 -0.013026 -0.013026 0.035274 0.000000 0.000000 0.000000
# 4 0.000000 0.000000 0.000000 0.039568 0.000000 0.000000
# 5 0.000000 0.000000 0.000000 0.000000 0.039568 0.000000
# 6 0.000000 0.000000 0.000000 0.000000 0.000000 0.027322
#
#
# Mechanical properties :
#
#
# Convention : Reuss Voigt Hill
#
# Bulk Modulus (GPa) = 44.34285 44.52438 44.43361
# Shear Modulus (GPa) = 21.86499 26.86536 24.36518
#
# Velocity S-wave (km/s) = 3.29920 3.65704 3.48272
# Velocity P-wave (km/s) = 6.04876 6.32430 6.18806
#
# Compressibility (1/GPa) = 0.02255155
#
# Stress axis : x y z
#
# Youngs Moduli (GPa) = 59.96728 59.96728 28.34929
#
# Poissons Ratio (x) = -0.18078 0.36927
# Poissons Ratio (y) = -0.18078 0.36927
# Poissons Ratio (z) = 0.78112 0.78112
#
# Static dielectric constant tensor:
#      x y z
#    x 1.717030 0.000000 0.000000 
#    y 0.000000 1.717030 0.000000 
#    z 0.000000 0.000000 1.714480 
# 
# From -- ./inp_files/934.got.cif
#   From: 2010.05.17/outbox.cif.g08.bks.cpg/sg173_cif.got.tgz:934.got - 2010.05.20 11:21:53.
