data_PCOD9581319
_publ_section_title
;
Structure prediction by ZEFSAII (Michael W. Deem and Ramdas Pophale) SiO2 
 PCOD9581319
Probable space group: P 6/M
;
_chemical_formula_sum "Si O2"
_cell_formula_units_Z 72
_cell_length_a 23.579544
_cell_length_b 23.579544
_cell_length_c 7.439600
_cell_angle_alpha 90.000000
_cell_angle_beta 90.000000
_cell_angle_gamma 120.000000
_cell_volume 3582.209833
_symmetry_space_group_name_H-M "P 6/M"
_symmetry_group_IT_number 175
_symmetry_cell_setting 'hexagonal'
loop_
_space_group_symop_operation_xyz
x,y,z
x-y,x,z
-y,x-y,z
-x,-y,z
-x+y,-x,z
y,-x+y,z
-x,-y,-z
-x+y,-x,-z
y,-x+y,-z
x,y,-z
x-y,x,-z
-y,x-y,-z
loop_
_atom_site_type_symbol
_atom_site_label
_atom_site_fract_x
_atom_site_fract_y
_atom_site_fract_z
Si Si1 0.534073 0.931025 0.281497
Si Si2 0.400655 0.260048 0.294382
Si Si3 0.749297 0.629607 0.282433
Si Si4 0.401597 0.917430 0.719790
Si Si5 0.140224 0.117772 0.780329
Si Si6 0.019388 0.266671 0.789844
O O1 0.534309 0.930748 0.500000
O O2 0.571887 0.893901 0.222526
O O3 0.458997 0.903096 0.225165
O O4 0.573914 0.007406 0.226994
O O5 0.420370 0.258212 0.500000
O O6 0.381825 0.189419 0.216228
O O7 0.457476 0.328007 0.214513
O O8 0.335811 0.266701 0.296809
O O9 0.750619 0.630555 0.500000
O O10 0.754301 0.697900 0.229101
O O11 0.399951 0.916698 0.500000
O O12 0.081078 0.128808 0.723469
O O13 0.208996 0.178141 0.720127
O O14 0.140749 0.118530 0.000000
O O15 0.035801 0.275583 0.000000
#
# Coordination Sequence:
#
# PCOD9581319 Si02
#       6
#    12  12  12  12  12  12
#     4   8  13  24  45  69  91 117 151 189 227 274
#     4  10  19  31  49  72  97 125 160 200 241 290
#     4  10  19  31  49  72  97 125 160 200 241 290
#     4   8  13  24  45  69  91 117 151 189 227 274
#     4   9  17  29  44  60  79 108 148 189 228 274
#     4  11  21  32  46  67  98 129 156 195 244 294
#
# _framework density 20.099326000000001
#
# number of rings (size 3 to 8) (size 9 to 14) (size 15 to 20)
#    0.000    2.667    1.667    2.667    0.000    2.667 
#    0.000    0.000    0.000    2.667    0.000    4.667 
#    0.000    8.000    0.000    0.000    0.000    0.000 
#
# Total GULP energy -401848.626121 kJ/mol
# GULP energy per Si atom -5581.230918 kJ/mol
# Density = 2.005358 g / cm^3
# Si number density = 20.099326 Si / 1000 Ang^3
#
#
#
# Elastic Constant Matrix: (Units=GPa)
#
#
# Indices 1 2 3 4 5 6 
#
# 1 48.5802 -11.4396 -2.4597 0.0000 0.0000 0.0000
# 2 -11.4396 48.5802 -2.4597 0.0000 0.0000 0.0000
# 3 -2.4597 -2.4597 64.6139 0.0000 0.0000 0.0000
# 4 0.0000 0.0000 0.0000 17.4729 0.0000 0.0000
# 5 0.0000 0.0000 0.0000 0.0000 17.4729 0.0000
# 6 0.0000 0.0000 0.0000 0.0000 0.0000 30.0099
#
#
#
# Elastic Compliance Matrix: (Units=1/GPa)
#
#
# Indices 1 2 3 4 5 6 
#
# 1 0.021861 0.005200 0.001030 0.000000 0.000000 0.000000
# 2 0.005200 0.021861 0.001030 0.000000 0.000000 0.000000
# 3 0.001030 0.001030 0.015555 0.000000 0.000000 0.000000
# 4 0.000000 0.000000 0.000000 0.057231 0.000000 0.000000
# 5 0.000000 0.000000 0.000000 0.000000 0.057231 0.000000
# 6 0.000000 0.000000 0.000000 0.000000 0.000000 0.033322
#
#
# Mechanical properties :
#
#
# Convention : Reuss Voigt Hill
#
# Bulk Modulus (GPa) = 13.55051 14.33959 13.94505
# Shear Modulus (GPa) = 23.02650 24.86670 23.94660
#
# Velocity S-wave (km/s) = 3.38840 3.52119 3.45543
# Velocity P-wave (km/s) = 4.69731 4.86637 4.78259
#
# Compressibility (1/GPa) = 0.07379795
#
# Stress axis : x y z
#
# Youngs Moduli (GPa) = 45.74319 45.74319 64.28813
#
# Poissons Ratio (x) = -0.23786 -0.06623
# Poissons Ratio (y) = -0.23786 -0.06623
# Poissons Ratio (z) = -0.04712 -0.04712
#
# Static dielectric constant tensor:
#      x y z
#    x 1.697130 0.000000 0.000000 
#    y 0.000000 1.697130 0.000000 
#    z 0.000000 0.000000 1.778350 
# 
# From -- ./inp_files/1205.got.cif
#   From: 2010.05.17/outbox.cif.g08.bks.cpg/sg175_1_cif.got.tgz:1205.got - 2010.05.20 11:23:22.
