data_PCOD9581787
_publ_section_title
;
Structure prediction by ZEFSAII (Michael W. Deem and Ramdas Pophale) SiO2 
 PCOD9581787
Probable space group: P 63/M
;
_chemical_formula_sum "Si O2"
_cell_formula_units_Z 72
_cell_length_a 24.338323
_cell_length_b 24.338323
_cell_length_c 9.048992
_cell_angle_alpha 90.000000
_cell_angle_beta 90.000000
_cell_angle_gamma 120.000000
_cell_volume 4642.074828
_symmetry_space_group_name_H-M "P 63/M"
_symmetry_group_IT_number 176
_symmetry_cell_setting 'hexagonal'
loop_
_space_group_symop_operation_xyz
x,y,z
x-y,x,1/2+z
-y,x-y,z
-x,-y,1/2+z
-x+y,-x,z
y,-x+y,1/2+z
-x,-y,-z
-x+y,-x,1/2-z
y,-x+y,-z
x,y,1/2-z
x-y,x,-z
-y,x-y,1/2-z
loop_
_atom_site_type_symbol
_atom_site_label
_atom_site_fract_x
_atom_site_fract_y
_atom_site_fract_z
Si Si1 0.812919 0.073972 0.427218
Si Si2 0.409791 0.259425 0.073250
Si Si3 0.529569 0.595636 0.573094
Si Si4 0.589657 0.855748 0.426573
Si Si5 0.529129 0.929824 0.926027
Si Si6 0.071645 0.809805 0.427839
O O1 0.820931 0.076116 0.250000
O O2 0.765276 0.100884 0.459217
O O3 0.879385 0.122822 0.501614
O O4 0.781630 0.001098 0.475644
O O5 0.414939 0.253014 0.250000
O O6 0.451479 0.333095 0.033129
O O7 0.427321 0.212680 0.988871
O O8 0.539955 0.594550 0.750000
O O9 0.573722 0.574013 0.489939
O O10 0.456994 0.542546 0.542039
O O11 0.584214 0.854410 0.250000
O O12 0.547978 0.882478 0.498526
O O13 0.664188 0.902299 0.465504
O O14 0.536534 0.929595 0.750000
O O15 0.074040 0.815674 0.250000
#
# Coordination Sequence:
#
# PCOD9581787 Si02
#       6
#    12  12  12  12  12  12
#     4   9  17  29  46  67  90 117 147 181 222 266
#     4   9  17  31  49  68  92 121 153 188 229 277
#     4   9  18  32  49  69  95 125 154 190 234 276
#     4  10  19  31  47  68  95 124 153 189 233 275
#     4  10  19  30  47  71  96 124 158 191 227 275
#     4   9  18  31  46  66  92 120 149 182 223 268
#
# _framework density 15.510306
#
# number of rings (size 3 to 8) (size 9 to 14) (size 15 to 20)
#    0.000    2.667    0.000    2.000    0.000    5.333 
#    0.000    3.333    0.000    1.000    0.000    2.333 
#    0.000    0.000    0.000    0.000    0.000    0.000 
#
# Total GULP energy -401446.394444 kJ/mol
# GULP energy per Si atom -5575.644367 kJ/mol
# Density = 1.547500 g / cm^3
# Si number density = 15.510306 Si / 1000 Ang^3
#
#
#
# Elastic Constant Matrix: (Units=GPa)
#
#
# Indices 1 2 3 4 5 6 
#
# 1 130.6983 85.8410 52.7197 0.0000 0.0000 0.0000
# 2 85.8410 130.6983 52.7197 0.0000 0.0000 0.0000
# 3 52.7197 52.7197 35.2417 0.0000 0.0000 0.0000
# 4 0.0000 0.0000 0.0000 26.6908 0.0000 0.0000
# 5 0.0000 0.0000 0.0000 0.0000 26.6908 0.0000
# 6 0.0000 0.0000 0.0000 0.0000 0.0000 22.4287
#
#
#
# Elastic Compliance Matrix: (Units=1/GPa)
#
#
# Indices 1 2 3 4 5 6 
#
# 1 0.019649 -0.002644 -0.025438 0.000000 0.000000 0.000000
# 2 -0.002644 0.019649 -0.025438 0.000000 0.000000 0.000000
# 3 -0.025438 -0.025438 0.104483 0.000000 0.000000 0.000000
# 4 0.000000 0.000000 0.000000 0.037466 0.000000 0.000000
# 5 0.000000 0.000000 0.000000 0.000000 0.037466 0.000000
# 6 0.000000 0.000000 0.000000 0.000000 0.000000 0.044586
#
#
# Mechanical properties :
#
#
# Convention : Reuss Voigt Hill
#
# Bulk Modulus (GPa) = 27.21796 75.46656 51.34226
# Shear Modulus (GPa) = 13.06898 22.18591 17.62744
#
# Velocity S-wave (km/s) = 2.90591 3.78616 3.37486
# Velocity P-wave (km/s) = 5.37080 8.23861 6.95414
#
# Compressibility (1/GPa) = 0.03674044
#
# Stress axis : x y z
#
# Youngs Moduli (GPa) = 50.89386 50.89386 9.57094
#
# Poissons Ratio (x) = 0.13457 0.24346
# Poissons Ratio (y) = 0.13457 0.24346
# Poissons Ratio (z) = 1.29463 1.29463
#
# Static dielectric constant tensor:
#      x y z
#    x 1.500070 0.000000 0.000000 
#    y 0.000000 1.500070 0.000000 
#    z 0.000000 0.000000 1.517070 
# 
# From -- ./inp_files/1165.got.cif
#   From: 2010.05.17/outbox.cif.g08.bks.cpg/sg176_1_cif.got.tgz:1165.got - 2010.06.03 11:36:45.
