data_PCOD9581350
_publ_section_title
;
Structure prediction by ZEFSAII (Michael W. Deem and Ramdas Pophale) SiO2 
 PCOD9581350
Probable space group: P 6/M
;
_chemical_formula_sum "Si O2"
_cell_formula_units_Z 60
_cell_length_a 10.502958
_cell_length_b 10.502958
_cell_length_c 27.996660
_cell_angle_alpha 90.000000
_cell_angle_beta 90.000000
_cell_angle_gamma 120.000000
_cell_volume 2674.607835
_symmetry_space_group_name_H-M "P 6/M"
_symmetry_group_IT_number 175
_symmetry_cell_setting 'hexagonal'
loop_
_space_group_symop_operation_xyz
x,y,z
x-y,x,z
-y,x-y,z
-x,-y,z
-x+y,-x,z
y,-x+y,z
-x,-y,-z
-x+y,-x,-z
y,-x+y,-z
x,y,-z
x-y,x,-z
-y,x-y,-z
loop_
_atom_site_type_symbol
_atom_site_label
_atom_site_fract_x
_atom_site_fract_y
_atom_site_fract_z
Si Si1 0.339688 0.254910 0.704477
Si Si2 0.834635 0.495615 0.904299
Si Si3 0.672329 0.734805 0.000000
Si Si4 0.657931 0.748207 0.500000
Si Si5 0.252659 0.910924 0.602285
Si Si6 0.335272 0.259440 0.192401
O O1 0.201093 0.281689 0.704447
O O2 0.420667 0.312635 0.653457
O O3 0.414610 0.314431 0.755885
O O4 0.670365 0.472210 0.905558
O O5 0.900423 0.567800 0.853876
O O6 0.911741 0.579459 0.952113
O O7 0.813979 0.718447 0.000000
O O8 0.794965 0.718364 0.500000
O O9 0.578347 0.689394 0.551144
O O10 0.077584 0.795672 0.602264
O O11 0.195401 0.282126 0.190541
#
# Coordination Sequence:
#
# PCOD9581350 Si02
#       6
#    12  12   6   6  12  12
#     4   8  13  20  32  52  78 111 148 190 240 291
#     4  10  24  42  57  83 104 142 179 206 238 283
#     4  12  25  42  66  92 117 138 162 202 246 288
#     4   8  11  12  16  28  52  92 138 184 222 262
#     4   8  11  14  20  34  60  96 141 184 225 274
#     4  10  19  32  52  76 103 132 166 212 260 304
#
# _framework density 22.433195999999999
#
# number of rings (size 3 to 8) (size 9 to 14) (size 15 to 20)
#    0.400    2.400    0.000    2.600    0.000    8.800 
#    0.000    2.000    0.000    0.000    0.000    0.000 
#    0.000    0.000    0.000    1.800    0.000   40.000 
#
# Total GULP energy -334437.525682 kJ/mol
# GULP energy per Si atom -5573.958761 kJ/mol
# Density = 2.238214 g / cm^3
# Si number density = 22.433196 Si / 1000 Ang^3
#
#
#
# Elastic Constant Matrix: (Units=GPa)
#
#
# Indices 1 2 3 4 5 6 
#
# 1 54.2852 8.7887 47.8353 0.0000 0.0000 0.0000
# 2 8.7887 54.2852 47.8353 0.0000 0.0000 0.0000
# 3 47.8353 47.8353 289.3999 0.0000 0.0000 0.0000
# 4 0.0000 0.0000 0.0000 -116.0239 0.0000 0.0000
# 5 0.0000 0.0000 0.0000 0.0000 -116.0239 0.0000
# 6 0.0000 0.0000 0.0000 0.0000 0.0000 22.7482
#
#
#
# Elastic Compliance Matrix: (Units=1/GPa)
#
#
# Indices 1 2 3 4 5 6 
#
# 1 0.021570 -0.000410 -0.003497 0.000000 0.000000 0.000000
# 2 -0.000410 0.021570 -0.003497 0.000000 0.000000 0.000000
# 3 -0.003497 -0.003497 0.004612 0.000000 0.000000 0.000000
# 4 0.000000 0.000000 0.000000 -0.008619 0.000000 0.000000
# 5 0.000000 0.000000 0.000000 0.000000 -0.008619 0.000000
# 6 0.000000 0.000000 0.000000 0.000000 0.000000 0.043960
#
#
# Mechanical properties :
#
#
# Convention : Reuss Voigt Hill
#
# Bulk Modulus (GPa) = 30.35774 67.43208 48.89491
# Shear Modulus (GPa) = 49.86894 -22.29252 13.78821
#
# Velocity S-wave (km/s) = 4.71998 -3.15577 2.48187
# Velocity P-wave (km/s) = 6.57770 4.10437 5.48234
#
# Compressibility (1/GPa) = 0.03294052
#
# Stress axis : x y z
#
# Youngs Moduli (GPa) = 46.36164 46.36164 216.84338
#
# Poissons Ratio (x) = 0.01902 0.75840
# Poissons Ratio (y) = 0.01902 0.75840
# Poissons Ratio (z) = 0.16215 0.16215
#
# Static dielectric constant tensor:
#      x y z
#    x 1.796720 0.000000 0.000000 
#    y 0.000000 1.796720 0.000000 
#    z 0.000000 0.000000 1.913600 
# 
# From -- ./inp_files/3304.got.cif
#   From: 2010.05.17/outbox.cif.g08.bks.cpg/sg175_2_cif.got.tgz:3304.got - 2010.05.20 11:23:22.
