data_PCOD9581029
_publ_section_title
;
Structure prediction by ZEFSAII (Michael W. Deem and Ramdas Pophale) SiO2 
 PCOD9581029
Probable space group: P 63
;
_chemical_formula_sum "Si O2"
_cell_formula_units_Z 48
_cell_length_a 13.911264
_cell_length_b 13.911264
_cell_length_c 12.794468
_cell_angle_alpha 90.000000
_cell_angle_beta 90.000000
_cell_angle_gamma 120.000000
_cell_volume 2144.302486
_symmetry_space_group_name_H-M "P 63"
_symmetry_group_IT_number 173
_symmetry_cell_setting 'hexagonal'
loop_
_space_group_symop_operation_xyz
x,y,z
x-y,x,1/2+z
-y,x-y,z
-x,-y,1/2+z
-x+y,-x,z
y,-x+y,1/2+z
loop_
_atom_site_type_symbol
_atom_site_label
_atom_site_fract_x
_atom_site_fract_y
_atom_site_fract_z
Si Si1 0.100942 0.884470 0.498140
Si Si2 0.886582 0.544318 0.411580
Si Si3 0.678455 0.162375 0.190019
Si Si4 0.238619 0.110021 0.417580
Si Si5 0.732116 0.206332 0.970166
Si Si6 0.533829 0.119051 0.844931
Si Si7 0.223099 0.294570 0.700425
Si Si8 0.440692 0.957093 0.135464
O O1 0.173363 0.826135 0.478165
O O2 0.041960 0.835010 0.608543
O O3 0.003543 0.845804 0.413336
O O4 0.185813 0.014202 0.503358
O O5 0.816947 0.471289 0.309962
O O6 0.856066 0.639773 0.435625
O O7 0.011017 0.596949 0.364132
O O8 0.898643 0.497273 0.522978
O O9 0.793251 0.160943 0.204348
O O10 0.569283 0.053667 0.147100
O O11 0.713219 0.238463 0.086431
O O12 0.243934 0.045343 0.315245
O O13 0.621686 0.108324 0.918876
O O14 0.777400 0.307345 0.890888
O O15 0.571659 0.126870 0.726791
O O16 0.352770 0.369811 0.668973
#
# Coordination Sequence:
#
# PCOD9581029 Si02
#       8
#     6   6   6   6   6   6   6   6
#     4  11  23  40  64  95 136 181 236 303 352 426
#     4  10  19  41  62  93 136 181 231 292 363 449
#     4   9  21  34  67  96 129 180 231 291 361 438
#     4  11  22  41  64  92 136 182 231 294 357 424
#     4  11  21  41  61 104 132 171 245 300 359 445
#     4  11  22  37  70  95 136 181 230 307 375 430
#     4  10  22  41  63  97 135 176 239 292 365 438
#     4  11  20  41  67  98 136 188 229 301 380 438
#
# _framework density 22.384900999999999
#
# number of rings (size 3 to 8) (size 9 to 14) (size 15 to 20)
#    0.000    1.500    3.750    2.000    0.000    1.000 
#    3.000    0.000    5.500    0.000    0.000    0.000 
#    0.000    0.000    0.000    0.000    0.000    0.000 
#
# Total GULP energy -267400.361799 kJ/mol
# GULP energy per Si atom -5570.840871 kJ/mol
# Density = 2.233395 g / cm^3
# Si number density = 22.384901 Si / 1000 Ang^3
#
#
#
# Elastic Constant Matrix: (Units=GPa)
#
#
# Indices 1 2 3 4 5 6 
#
# 1 41.7636 42.8297 44.9860 0.0000 0.0000 0.0000
# 2 42.8297 41.7636 44.9860 0.0000 0.0000 0.0000
# 3 44.9860 44.9860 159.2678 0.0000 0.0000 0.0000
# 4 0.0000 0.0000 0.0000 18.0157 0.0000 0.0000
# 5 0.0000 0.0000 0.0000 0.0000 18.0157 0.0000
# 6 0.0000 0.0000 0.0000 0.0000 0.0000 -0.5331
#
#
#
# Elastic Compliance Matrix: (Units=1/GPa)
#
#
# Indices 1 2 3 4 5 6 
#
# 1 -0.460544 0.477441 -0.004773 0.000000 0.000000 0.000000
# 2 0.477441 -0.460544 -0.004773 0.000000 0.000000 0.000000
# 3 -0.004773 -0.004773 0.008975 0.000000 0.000000 0.000000
# 4 0.000000 0.000000 0.000000 0.055507 0.000000 0.000000
# 5 0.000000 0.000000 0.000000 0.000000 0.055507 0.000000
# 6 0.000000 0.000000 0.000000 0.000000 0.000000 -1.875970
#
#
# Mechanical properties :
#
#
# Convention : Reuss Voigt Hill
#
# Bulk Modulus (GPa) = 42.23186 56.48874 49.36030
# Shear Modulus (GPa) = -1.38698 14.43254 6.52278
#
# Velocity S-wave (km/s) = -0.78800 2.54194 1.70887
# Velocity P-wave (km/s) = 4.25197 5.82282 5.09826
#
# Compressibility (1/GPa) = 0.02367880
#
# Stress axis : x y z
#
# Youngs Moduli (GPa) = -2.17135 -2.17135 111.42142
#
# Poissons Ratio (x) = 1.03669 0.53179
# Poissons Ratio (y) = 1.03669 0.53179
# Poissons Ratio (z) = -0.01036 -0.01036
#
# Static dielectric constant tensor:
#      x y z
#    x 1.930150 0.000000 0.000000 
#    y 0.000000 1.930150 0.000000 
#    z 0.000000 0.000000 1.920760 
# 
# From -- ./inp_files/948.got.cif
#   From: 2010.05.17/outbox.cif.g08.bks.cpg/sg173_cif.got.tgz:948.got - 2010.05.20 11:21:53.
