data_PCOD9581091
_publ_section_title
;
Structure prediction by ZEFSAII (Michael W. Deem and Ramdas Pophale) SiO2 
 PCOD9581091
Probable space group: P 63
;
_chemical_formula_sum "Si O2"
_cell_formula_units_Z 36
_cell_length_a 8.382253
_cell_length_b 8.382253
_cell_length_c 25.733428
_cell_angle_alpha 90.000000
_cell_angle_beta 90.000000
_cell_angle_gamma 120.000000
_cell_volume 1565.848732
_symmetry_space_group_name_H-M "P 63"
_symmetry_group_IT_number 173
_symmetry_cell_setting 'hexagonal'
loop_
_space_group_symop_operation_xyz
x,y,z
x-y,x,1/2+z
-y,x-y,z
-x,-y,1/2+z
-x+y,-x,z
y,-x+y,1/2+z
loop_
_atom_site_type_symbol
_atom_site_label
_atom_site_fract_x
_atom_site_fract_y
_atom_site_fract_z
Si Si1 0.329121 0.035881 0.111200
Si Si2 0.353437 0.023350 0.650759
Si Si3 0.974493 0.314320 0.312256
Si Si4 0.423730 0.248762 0.008016
Si Si5 0.974096 0.324827 0.768999
Si Si6 0.860892 0.302270 0.430464
O O1 0.286393 0.144337 0.155071
O O2 0.319479 0.143878 0.060463
O O3 0.525908 0.056074 0.124427
O O4 0.186388 0.821238 0.115714
O O5 0.409150 0.086188 0.709715
O O6 0.919749 0.286978 0.372342
O O7 0.935554 0.468429 0.289512
O O8 0.188868 0.387839 0.303579
O O9 0.859262 0.128713 0.279513
O O10 0.543445 0.144320 0.004643
O O11 0.293695 0.283959 0.968897
O O12 0.847671 0.490644 0.436187
#
# Coordination Sequence:
#
# PCOD9581091 Si02
#       6
#     6   6   6   6   6   6
#     4  12  25  48  71 108 148 194 261 309 384 447
#     4  12  24  44  73 105 150 201 246 312 375 451
#     4  12  25  45  70 112 153 197 255 307 373 455
#     4  10  23  46  72 106 143 191 246 310 386 442
#     4  12  24  42  70 108 153 199 250 304 372 452
#     4  10  23  47  76 111 143 198 246 308 384 455
#
# _framework density 22.990729000000002
#
# number of rings (size 3 to 8) (size 9 to 14) (size 15 to 20)
#    0.667    0.000    3.333    5.000    2.333    1.333 
#    0.000    0.000    0.000    0.667    0.000    0.000 
#    0.000    0.000    0.000    0.000    0.000    0.000 
#
# Total GULP energy -200533.676261 kJ/mol
# GULP energy per Si atom -5570.379896 kJ/mol
# Density = 2.293840 g / cm^3
# Si number density = 22.990729 Si / 1000 Ang^3
#
#
#
# Elastic Constant Matrix: (Units=GPa)
#
#
# Indices 1 2 3 4 5 6 
#
# 1 88.6818 -0.1831 50.8985 0.0000 0.0000 0.0000
# 2 -0.1831 88.6818 50.8985 0.0000 0.0000 0.0000
# 3 50.8985 50.8985 164.3982 0.0000 0.0000 0.0000
# 4 0.0000 0.0000 0.0000 -13.3281 0.0000 0.0000
# 5 0.0000 0.0000 0.0000 0.0000 -13.3281 0.0000
# 6 0.0000 0.0000 0.0000 0.0000 0.0000 44.4325
#
#
#
# Elastic Compliance Matrix: (Units=1/GPa)
#
#
# Indices 1 2 3 4 5 6 
#
# 1 0.014401 0.003148 -0.005433 0.000000 0.000000 0.000000
# 2 0.003148 0.014401 -0.005433 0.000000 0.000000 0.000000
# 3 -0.005433 -0.005433 0.009447 0.000000 0.000000 0.000000
# 4 0.000000 0.000000 0.000000 -0.075029 0.000000 0.000000
# 5 0.000000 0.000000 0.000000 0.000000 -0.075029 0.000000
# 6 0.000000 0.000000 0.000000 0.000000 0.000000 0.022506
#
#
# Mechanical properties :
#
#
# Convention : Reuss Voigt Hill
#
# Bulk Modulus (GPa) = 43.83558 60.55443 52.19501
# Shear Modulus (GPa) = -75.45843 19.56511 -27.94666
#
# Velocity S-wave (km/s) = -5.73520 2.92036 -3.49027
# Velocity P-wave (km/s) = 4.97480 6.14550 2.55132
#
# Compressibility (1/GPa) = 0.02281252
#
# Stress axis : x y z
#
# Youngs Moduli (GPa) = 69.43844 69.43844 105.85136
#
# Poissons Ratio (x) = -0.21861 0.57513
# Poissons Ratio (y) = -0.21861 0.57513
# Poissons Ratio (z) = 0.37729 0.37729
#
# Static dielectric constant tensor:
#      x y z
#    x 1.909560 0.000000 0.000000 
#    y 0.000000 1.909560 0.000000 
#    z 0.000000 0.000000 1.872800 
# 
# From -- ./inp_files/1476.got.cif
#   From: 2010.05.17/outbox.cif.g08.bks.cpg/sg173_cif.got.tgz:1476.got - 2010.05.20 11:21:53.
