data_PCOD9581294
_publ_section_title
;
Structure prediction by ZEFSAII (Michael W. Deem and Ramdas Pophale) SiO2 
 PCOD9581294
Probable space group: P 6/M
;
_chemical_formula_sum "Si O2"
_cell_formula_units_Z 84
_cell_length_a 15.854090
_cell_length_b 15.854090
_cell_length_c 22.306280
_cell_angle_alpha 90.000000
_cell_angle_beta 90.000000
_cell_angle_gamma 120.000000
_cell_volume 4855.572237
_symmetry_space_group_name_H-M "P 6/M"
_symmetry_group_IT_number 175
_symmetry_cell_setting 'hexagonal'
loop_
_space_group_symop_operation_xyz
x,y,z
x-y,x,z
-y,x-y,z
-x,-y,z
-x+y,-x,z
y,-x+y,z
-x,-y,-z
-x+y,-x,-z
y,-x+y,-z
x,y,-z
x-y,x,-z
-y,x-y,-z
loop_
_atom_site_type_symbol
_atom_site_label
_atom_site_fract_x
_atom_site_fract_y
_atom_site_fract_z
Si Si1 0.218359 0.128032 0.428587
Si Si2 0.213938 0.444598 0.404517
Si Si3 0.550414 0.111861 0.259892
Si Si4 0.440502 0.225416 0.739751
Si Si5 0.891944 0.765220 0.198282
Si Si6 0.893231 0.767949 0.064147
Si Si7 0.435383 0.546988 0.406295
O O1 0.158677 0.177876 0.403591
O O2 0.201859 0.118913 0.500000
O O3 0.333304 0.192240 0.420516
O O4 0.217450 0.446775 0.332317
O O5 0.323786 0.484008 0.426021
O O6 0.173493 0.514374 0.425317
O O7 0.489872 0.162987 0.239385
O O8 0.662642 0.167791 0.240134
O O9 0.548506 0.112523 0.333077
O O10 0.500000 0.000000 0.240898
O O11 0.328141 0.176007 0.758708
O O12 0.835355 0.826456 0.205701
O O13 0.871968 0.721755 0.130110
O O14 0.839726 0.830969 0.063678
O O15 0.867668 0.712386 0.000000
O O16 0.500000 0.500000 0.425360
#
# Coordination Sequence:
#
# PCOD9581294 Si02
#       7
#    12  12  12  12  12  12  12
#     4  10  21  37  55  73  94 124 162 197 224 258
#     4  10  19  33  52  72  95 121 151 189 234 281
#     4   9  17  29  44  63  88 117 149 183 220 266
#     4  10  19  31  48  69  92 120 154 193 235 274
#     4  10  19  29  42  65  98 130 156 185 227 281
#     4   8  13  22  37  57  83 118 157 191 223 266
#     4   9  17  29  47  70  92 115 144 180 224 273
#
# _framework density 17.299712
#
# number of rings (size 3 to 8) (size 9 to 14) (size 15 to 20)
#    0.000    2.571    0.000    2.714    0.000    8.000 
#    0.000    0.714    0.000    4.286    0.000    1.000 
#    0.000    5.714    0.000    0.000    0.000    0.000 
#
# Total GULP energy -468093.852469 kJ/mol
# GULP energy per Si atom -5572.545863 kJ/mol
# Density = 1.726034 g / cm^3
# Si number density = 17.299712 Si / 1000 Ang^3
#
#
#
# Elastic Constant Matrix: (Units=GPa)
#
#
# Indices 1 2 3 4 5 6 
#
# 1 59.8228 -4.3979 9.8640 0.0000 0.0000 0.0000
# 2 -4.3979 59.8228 9.8640 0.0000 0.0000 0.0000
# 3 9.8640 9.8640 32.4522 0.0000 0.0000 0.0000
# 4 0.0000 0.0000 0.0000 12.7623 0.0000 0.0000
# 5 0.0000 0.0000 0.0000 0.0000 12.7623 0.0000
# 6 0.0000 0.0000 0.0000 0.0000 0.0000 32.1103
#
#
#
# Elastic Compliance Matrix: (Units=1/GPa)
#
#
# Indices 1 2 3 4 5 6 
#
# 1 0.017901 0.002330 -0.006149 0.000000 0.000000 0.000000
# 2 0.002330 0.017901 -0.006149 0.000000 0.000000 0.000000
# 3 -0.006149 -0.006149 0.034553 0.000000 0.000000 0.000000
# 4 0.000000 0.000000 0.000000 0.078356 0.000000 0.000000
# 5 0.000000 0.000000 0.000000 0.000000 0.078356 0.000000
# 6 0.000000 0.000000 0.000000 0.000000 0.000000 0.031143
#
#
# Mechanical properties :
#
#
# Convention : Reuss Voigt Hill
#
# Bulk Modulus (GPa) = 19.83427 20.30644 20.07036
# Shear Modulus (GPa) = 16.95181 20.64481 18.79831
#
# Velocity S-wave (km/s) = 3.13371 3.45825 3.29998
# Velocity P-wave (km/s) = 4.95818 5.26398 5.11337
#
# Compressibility (1/GPa) = 0.05041779
#
# Stress axis : x y z
#
# Youngs Moduli (GPa) = 55.86190 55.86190 28.94116
#
# Poissons Ratio (x) = -0.13016 0.17797
# Poissons Ratio (y) = -0.13016 0.17797
# Poissons Ratio (z) = 0.34352 0.34352
#
# Static dielectric constant tensor:
#      x y z
#    x 1.579190 0.000000 0.000000 
#    y 0.000000 1.579190 0.000000 
#    z 0.000000 0.000000 1.632620 
# 
# From -- ./inp_files/3240.got.cif
#   From: 2010.05.17/outbox.cif.g08.bks.cpg/sg175_2_cif.got.tgz:3240.got - 2010.05.20 11:23:22.
