data_PCOD9581316
_publ_section_title
;
Structure prediction by ZEFSAII (Michael W. Deem and Ramdas Pophale) SiO2 
 PCOD9581316
Probable space group: P 6/M
;
_chemical_formula_sum "Si O2"
_cell_formula_units_Z 54
_cell_length_a 14.141706
_cell_length_b 14.141706
_cell_length_c 18.782067
_cell_angle_alpha 90.000000
_cell_angle_beta 90.000000
_cell_angle_gamma 120.000000
_cell_volume 3252.951780
_symmetry_space_group_name_H-M "P 6/M"
_symmetry_group_IT_number 175
_symmetry_cell_setting 'hexagonal'
loop_
_space_group_symop_operation_xyz
x,y,z
x-y,x,z
-y,x-y,z
-x,-y,z
-x+y,-x,z
y,-x+y,z
-x,-y,-z
-x+y,-x,-z
y,-x+y,-z
x,y,-z
x-y,x,-z
-y,x-y,-z
loop_
_atom_site_type_symbol
_atom_site_label
_atom_site_fract_x
_atom_site_fract_y
_atom_site_fract_z
Si Si1 0.176091 0.255448 0.000000
Si Si2 0.166360 0.259884 0.266037
Si Si3 0.589191 0.126513 0.918344
Si Si4 0.092336 0.834895 0.423609
Si Si5 0.235888 0.413658 0.132524
O O1 0.206215 0.160407 0.000000
O O2 0.224892 0.332426 0.931222
O O3 0.203057 0.168525 0.258686
O O4 0.199267 0.310814 0.345751
O O5 0.221470 0.351142 0.205735
O O6 0.527380 0.179764 0.878307
O O7 0.696891 0.143766 0.879468
O O8 0.500000 0.000000 0.921725
O O9 0.618437 0.167640 0.000000
O O10 0.114108 0.795880 0.500000
O O11 0.965575 0.800100 0.423864
#
# Coordination Sequence:
#
# PCOD9581316 Si02
#       5
#     6  12  12  12  12
#     4  12  23  36  52  74 104 134 159 184 230 304
#     4  10  19  31  48  75 110 142 167 194 236 297
#     4  11  21  36  53  68  87 119 162 209 251 286
#     4   8  13  22  39  65  99 138 173 198 223 268
#     4  12  23  36  54  72  94 124 165 212 258 295
#
# _framework density 16.600306
#
# number of rings (size 3 to 8) (size 9 to 14) (size 15 to 20)
#    0.000    1.556    2.222    5.000    0.000    2.667 
#    0.000    2.222    0.000    0.000    0.000    1.556 
#    0.000    8.889    0.000    0.000    0.000    0.000 
#
# Total GULP energy -301083.043772 kJ/mol
# GULP energy per Si atom -5575.611922 kJ/mol
# Density = 1.656252 g / cm^3
# Si number density = 16.600306 Si / 1000 Ang^3
#
#
#
# Elastic Constant Matrix: (Units=GPa)
#
#
# Indices 1 2 3 4 5 6 
#
# 1 37.8418 1.0296 18.9662 0.0000 0.0000 0.0000
# 2 1.0296 37.8418 18.9662 0.0000 0.0000 0.0000
# 3 18.9662 18.9662 157.3917 0.0000 0.0000 0.0000
# 4 0.0000 0.0000 0.0000 0.9559 0.0000 0.0000
# 5 0.0000 0.0000 0.0000 0.0000 0.9559 0.0000
# 6 0.0000 0.0000 0.0000 0.0000 0.0000 18.4061
#
#
#
# Elastic Compliance Matrix: (Units=1/GPa)
#
#
# Indices 1 2 3 4 5 6 
#
# 1 0.028160 0.000995 -0.003513 0.000000 0.000000 0.000000
# 2 0.000995 0.028160 -0.003513 0.000000 0.000000 0.000000
# 3 -0.003513 -0.003513 0.007200 0.000000 0.000000 0.000000
# 4 0.000000 0.000000 0.000000 1.046114 0.000000 0.000000
# 5 0.000000 0.000000 0.000000 0.000000 1.046114 0.000000
# 6 0.000000 0.000000 0.000000 0.000000 0.000000 0.054330
#
#
# Mechanical properties :
#
#
# Convention : Reuss Voigt Hill
#
# Bulk Modulus (GPa) = 19.43413 34.55547 26.99480
# Shear Modulus (GPa) = 2.23285 17.00447 9.61866
#
# Velocity S-wave (km/s) = 1.16103 3.20401 2.40974
# Velocity P-wave (km/s) = 3.67829 5.87784 4.90300
#
# Compressibility (1/GPa) = 0.05145588
#
# Stress axis : x y z
#
# Youngs Moduli (GPa) = 35.51195 35.51195 138.88367
#
# Poissons Ratio (x) = -0.03532 0.48792
# Poissons Ratio (y) = -0.03532 0.48792
# Poissons Ratio (z) = 0.12476 0.12476
#
# Static dielectric constant tensor:
#      x y z
#    x 1.576470 0.000000 0.000000 
#    y 0.000000 1.576470 0.000000 
#    z 0.000000 0.000000 1.600350 
# 
# From -- ./inp_files/2796.got.cif
#   From: 2010.05.17/outbox.cif.g08.bks.cpg/sg175_2_cif.got.tgz:2796.got - 2010.05.20 11:23:22.
