data_PCOD9581650
_publ_section_title
;
Structure prediction by ZEFSAII (Michael W. Deem and Ramdas Pophale) SiO2 
 PCOD9581650
Probable space group: P 6/M
;
_chemical_formula_sum "Si O2"
_cell_formula_units_Z 64
_cell_length_a 14.532056
_cell_length_b 14.532056
_cell_length_c 18.286644
_cell_angle_alpha 90.000000
_cell_angle_beta 90.000000
_cell_angle_gamma 120.000000
_cell_volume 3344.404256
_symmetry_space_group_name_H-M "P 6/M"
_symmetry_group_IT_number 175
_symmetry_cell_setting 'hexagonal'
loop_
_space_group_symop_operation_xyz
x,y,z
x-y,x,z
-y,x-y,z
-x,-y,z
-x+y,-x,z
y,-x+y,z
-x,-y,-z
-x+y,-x,-z
y,-x+y,-z
x,y,-z
x-y,x,-z
-y,x-y,-z
loop_
_atom_site_type_symbol
_atom_site_label
_atom_site_fract_x
_atom_site_fract_y
_atom_site_fract_z
Si Si1 0.666668 0.333335 0.914214
Si Si2 0.919330 0.168499 0.083718
Si Si3 0.387876 0.064811 0.792942
Si Si4 0.252660 0.472532 0.326064
Si Si5 0.841381 0.480831 0.810307
Si Si6 0.121136 0.530572 0.413377
O O1 0.767959 0.438796 0.881572
O O2 0.666667 0.333334 0.000000
O O3 0.897231 0.235154 0.144007
O O4 0.042337 0.199621 0.092140
O O5 0.906095 0.196472 0.000000
O O6 0.382561 0.112778 0.714011
O O7 0.513448 0.108848 0.802172
O O8 0.338138 0.938844 0.803510
O O9 0.233176 0.529398 0.257012
O O10 0.153361 0.449255 0.377621
O O11 0.355787 0.546292 0.374341
O O12 0.139227 0.538267 0.500000
O O13 0.000000 0.500000 0.399114
#
# Coordination Sequence:
#
# PCOD9581650 Si02
#       6
#     4  12  12  12  12  12
#     4  12  24  39  60  84 121 167 211 261 315 378
#     4  10  22  41  63  86 113 150 199 258 318 369
#     4  11  23  38  62  86 121 156 206 255 308 366
#     4  12  20  38  61  83 118 159 203 246 296 359
#     4  11  23  40  57  88 118 163 206 250 304 368
#     4  11  24  39  59  91 126 163 207 250 298 366
#
# _framework density 19.136443
#
# number of rings (size 3 to 8) (size 9 to 14) (size 15 to 20)
#    0.000    0.938    3.750    3.375    0.000    2.250 
#    0.000    1.875    0.000    0.000    0.000    0.000 
#    0.000    0.000    0.000    0.000    0.000   70.125 
#
# Total GULP energy -357083.113255 kJ/mol
# GULP energy per Si atom -5579.423645 kJ/mol
# Density = 1.909289 g / cm^3
# Si number density = 19.136443 Si / 1000 Ang^3
#
#
#
# Elastic Constant Matrix: (Units=GPa)
#
#
# Indices 1 2 3 4 5 6 
#
# 1 96.6260 35.4648 57.7548 0.0000 0.0000 0.0001
# 2 35.4648 96.6259 57.7548 0.0000 0.0000 0.0002
# 3 57.7548 57.7548 134.2692 0.0000 0.0000 0.0000
# 4 0.0000 0.0000 0.0000 29.0818 0.0001 0.0000
# 5 0.0000 0.0000 0.0000 0.0001 29.0818 0.0000
# 6 0.0001 0.0002 0.0000 0.0000 0.0000 30.5809
#
#
#
# Elastic Compliance Matrix: (Units=1/GPa)
#
#
# Indices 1 2 3 4 5 6 
#
# 1 0.014243 -0.002108 -0.005220 0.000000 0.000000 0.000000
# 2 -0.002108 0.014243 -0.005220 0.000000 0.000000 0.000000
# 3 -0.005220 -0.005220 0.011938 0.000000 0.000000 0.000000
# 4 0.000000 0.000000 0.000000 0.034386 0.000000 0.000000
# 5 0.000000 0.000000 0.000000 0.000000 0.034386 0.000000
# 6 0.000000 0.000000 0.000000 0.000000 0.000000 0.032700
#
#
# Mechanical properties :
#
#
# Convention : Reuss Voigt Hill
#
# Bulk Modulus (GPa) = 65.23488 69.94110 67.58799
# Shear Modulus (GPa) = 29.05296 29.51869 29.28582
#
# Velocity S-wave (km/s) = 3.90064 3.93178 3.91624
# Velocity P-wave (km/s) = 7.37902 7.56570 7.47294
#
# Compressibility (1/GPa) = 0.01532922
#
# Stress axis : x y z
#
# Youngs Moduli (GPa) = 70.21141 70.21135 83.76419
#
# Poissons Ratio (x) = 0.14797 0.43724
# Poissons Ratio (y) = 0.14797 0.43724
# Poissons Ratio (z) = 0.36649 0.36649
#
# Static dielectric constant tensor:
#      x y z
#    x 1.730810 0.000000 0.000000 
#    y 0.000000 1.730810 0.000000 
#    z 0.000000 0.000000 1.670390 
# 
# From -- ./inp_files/2835.got.cif
#   From: 2010.05.17/outbox.cif.g08.bks.cpg/sg175_2_cif.got.tgz:2835.got - 2010.05.20 11:23:22.
