data_PCOD9581520
_publ_section_title
;
Structure prediction by ZEFSAII (Michael W. Deem and Ramdas Pophale) SiO2 
 PCOD9581520
Probable space group: P 6/M
;
_chemical_formula_sum "Si O2"
_cell_formula_units_Z 36
_cell_length_a 13.621111
_cell_length_b 13.621111
_cell_length_c 12.726231
_cell_angle_alpha 90.000000
_cell_angle_beta 90.000000
_cell_angle_gamma 120.000000
_cell_volume 2044.821948
_symmetry_space_group_name_H-M "P 6/M"
_symmetry_group_IT_number 175
_symmetry_cell_setting 'hexagonal'
loop_
_space_group_symop_operation_xyz
x,y,z
x-y,x,z
-y,x-y,z
-x,-y,z
-x+y,-x,z
y,-x+y,z
-x,-y,-z
-x+y,-x,-z
y,-x+y,-z
x,y,-z
x-y,x,-z
-y,x-y,-z
loop_
_atom_site_type_symbol
_atom_site_label
_atom_site_fract_x
_atom_site_fract_y
_atom_site_fract_z
Si Si1 0.935276 0.741583 0.124949
Si Si2 0.885278 0.563595 0.300848
Si Si3 0.477159 0.128350 0.619113
O O1 0.842931 0.780276 0.149266
O O2 0.906973 0.630608 0.191886
O O3 0.930004 0.720292 0.000000
O O4 0.779494 0.561336 0.356409
O O5 0.858752 0.433894 0.301096
O O6 0.001826 0.628025 0.365717
O O7 0.521645 0.143421 0.500000
#
# Coordination Sequence:
#
# PCOD9581520 Si02
#       3
#    12  12  12
#     4  10  20  38  63  90 118 152 190 237 294 351
#     4  11  21  37  58  84 114 151 199 239 285 345
#     4  11  22  37  57  84 117 155 191 238 292 347
#
# _framework density 17.605446000000001
#
# number of rings (size 3 to 8) (size 9 to 14) (size 15 to 20)
#    0.000    1.333    3.333    5.000    0.000    1.333 
#    0.000    5.000    0.000    0.000    0.000    4.667 
#    0.000    0.000    0.000    0.000    0.000    0.000 
#
# Total GULP energy -200836.483714 kJ/mol
# GULP energy per Si atom -5578.791214 kJ/mol
# Density = 1.756538 g / cm^3
# Si number density = 17.605446 Si / 1000 Ang^3
#
#
#
# Elastic Constant Matrix: (Units=GPa)
#
#
# Indices 1 2 3 4 5 6 
#
# 1 107.7205 69.0192 41.1396 0.0000 0.0000 0.0000
# 2 69.0192 107.7205 41.1396 0.0000 0.0000 0.0000
# 3 41.1396 41.1396 79.1590 0.0000 0.0000 0.0000
# 4 0.0000 0.0000 0.0000 28.7886 0.0000 0.0000
# 5 0.0000 0.0000 0.0000 0.0000 28.7886 0.0000
# 6 0.0000 0.0000 0.0000 0.0000 0.0000 19.3507
#
#
#
# Elastic Compliance Matrix: (Units=1/GPa)
#
#
# Indices 1 2 3 4 5 6 
#
# 1 0.016651 -0.009188 -0.003879 0.000000 0.000000 0.000000
# 2 -0.009188 0.016651 -0.003879 0.000000 0.000000 0.000000
# 3 -0.003879 -0.003879 0.016665 0.000000 0.000000 0.000000
# 4 0.000000 0.000000 0.000000 0.034736 0.000000 0.000000
# 5 0.000000 0.000000 0.000000 0.000000 0.034736 0.000000
# 6 0.000000 0.000000 0.000000 0.000000 0.000000 0.051678
#
#
# Mechanical properties :
#
#
# Convention : Reuss Voigt Hill
#
# Bulk Modulus (GPa) = 62.20324 66.35523 64.27924
# Shear Modulus (GPa) = 23.76794 24.93900 24.35347
#
# Velocity S-wave (km/s) = 3.67827 3.76779 3.72330
# Velocity P-wave (km/s) = 7.31082 7.52996 7.42120
#
# Compressibility (1/GPa) = 0.01607633
#
# Stress axis : x y z
#
# Youngs Moduli (GPa) = 60.05501 60.05501 60.00690
#
# Poissons Ratio (x) = 0.55176 0.23277
# Poissons Ratio (y) = 0.55176 0.23277
# Poissons Ratio (z) = 0.23296 0.23296
#
# Static dielectric constant tensor:
#      x y z
#    x 1.599710 0.000000 0.000000 
#    y 0.000000 1.599710 0.000000 
#    z 0.000000 0.000000 1.579400 
# 
# From -- ./inp_files/2203.got.cif
#   From: 2010.05.17/outbox.cif.g08.bks.cpg/sg175_2_cif.got.tgz:2203.got - 2010.05.20 11:23:22.
