data_PCOD9581718
_publ_section_title
;
Structure prediction by ZEFSAII (Michael W. Deem and Ramdas Pophale) SiO2 
 PCOD9581718
Probable space group: P 6/M
;
_chemical_formula_sum "Si O2"
_cell_formula_units_Z 74
_cell_length_a 12.000000
_cell_length_b 12.000000
_cell_length_c 30.000000
_cell_angle_alpha 90.000000
_cell_angle_beta 90.000000
_cell_angle_gamma 120.000000
_cell_volume 3741.229744
_symmetry_space_group_name_H-M "P 6/M"
_symmetry_group_IT_number 175
_symmetry_cell_setting 'hexagonal'
loop_
_space_group_symop_operation_xyz
x,y,z
x-y,x,z
-y,x-y,z
-x,-y,z
-x+y,-x,z
y,-x+y,z
-x,-y,-z
-x+y,-x,-z
y,-x+y,-z
x,y,-z
x-y,x,-z
-y,x-y,-z
loop_
_atom_site_type_symbol
_atom_site_label
_atom_site_fract_x
_atom_site_fract_y
_atom_site_fract_z
Si Si1 0.902886 0.202986 0.951150
Si Si2 0.768216 0.711518 0.596414
Si Si3 0.735293 0.997664 0.779641
Si Si4 0.057294 0.765518 0.500000
Si Si5 0.666667 0.333334 0.822322
Si Si6 0.354711 0.436983 0.864364
Si Si7 0.333334 0.666668 0.716357
Si Si8 0.923241 0.348546 0.689456
O O1 0.881520 0.263537 0.906953
O O2 0.050637 0.239347 0.949594
O O3 0.881465 0.247641 0.000000
O O4 0.752482 0.835788 0.596586
O O5 0.712577 0.642144 0.548285
O O6 0.710542 0.640210 0.642591
O O7 0.747969 0.871850 0.780904
O O8 0.661099 0.996777 0.824457
O O9 0.664160 0.985524 0.732884
O O10 0.915930 0.750242 0.500000
O O11 0.789884 0.331653 0.840406
O O12 0.666668 0.333334 0.769429
O O13 0.500000 0.500000 0.881025
O O14 0.472485 0.775554 0.700206
O O15 0.000000 0.500000 0.683687
#
# Coordination Sequence:
#
# PCOD9581718 Si02
#       8
#    12  12  12   6   4  12   4  12
#     4  10  21  40  66  95 126 160 199 245 299 358
#     4  10  19  35  58  89 122 155 194 242 299 358
#     4  12  24  40  61  88 119 152 192 244 303 360
#     4   8  15  28  53  84 118 154 191 236 292 356
#     4  12  24  42  64  88 118 163 207 249 298 350
#     4  12  25  41  63  90 122 160 204 249 297 352
#     4  12  24  42  63  83 116 159 207 252 289 353
#     4  12  25  40  60  85 115 156 203 250 298 351
#
# _framework density 19.779592999999998
#
# number of rings (size 3 to 8) (size 9 to 14) (size 15 to 20)
#    0.000    0.973    1.622    6.892    0.000    2.270 
#    0.000    4.459    0.000    0.973    0.000    0.000 
#    0.000    0.000    0.000    0.000    0.000    0.000 
#
# Total GULP energy -413226.188217 kJ/mol
# GULP energy per Si atom -5584.137679 kJ/mol
# Density = 1.973457 g / cm^3
# Si number density = 19.779593 Si / 1000 Ang^3
#
#
#
# Elastic Constant Matrix: (Units=GPa)
#
#
# Indices 1 2 3 4 5 6 
#
# 1 44.2267 6.1205 -4.2601 0.0000 0.0000 0.0001
# 2 6.1205 44.2206 -4.2684 0.0000 0.0000 0.0011
# 3 -4.2601 -4.2684 43.9445 0.0000 0.0000 0.0025
# 4 0.0000 0.0000 0.0000 20.5506 0.0007 0.0000
# 5 0.0000 0.0000 0.0000 0.0007 20.5496 0.0000
# 6 0.0001 0.0011 0.0025 0.0000 0.0000 19.0509
#
#
#
# Elastic Compliance Matrix: (Units=1/GPa)
#
#
# Indices 1 2 3 4 5 6 
#
# 1 0.023218 -0.003025 0.001957 0.000000 0.000000 0.000000
# 2 -0.003025 0.023222 0.001962 0.000000 0.000000 -0.000002
# 3 0.001957 0.001962 0.023136 0.000000 0.000000 -0.000003
# 4 0.000000 0.000000 0.000000 0.048660 -0.000002 0.000000
# 5 0.000000 0.000000 0.000000 -0.000002 0.048663 0.000000
# 6 0.000000 -0.000002 -0.000003 0.000000 0.000000 0.052491
#
#
# Mechanical properties :
#
#
# Convention : Reuss Voigt Hill
#
# Bulk Modulus (GPa) = 14.01234 14.17507 14.09371
# Shear Modulus (GPa) = 20.71341 21.01685 20.86513
#
# Velocity S-wave (km/s) = 3.23957 3.26322 3.25142
# Velocity P-wave (km/s) = 4.59268 4.62387 4.60830
#
# Compressibility (1/GPa) = 0.07136568
#
# Stress axis : x y z
#
# Youngs Moduli (GPa) = 43.07024 43.06268 43.22209
#
# Poissons Ratio (x) = 0.13025 -0.08459
# Poissons Ratio (y) = 0.13027 -0.08482
# Poissons Ratio (z) = -0.08429 -0.08451
#
# Static dielectric constant tensor:
#      x y z
#    x 1.701100 0.000000 0.000000 
#    y 0.000000 1.701100 0.000000 
#    z 0.000000 0.000000 1.785220 
# 
# From -- ./inp_files/3392.got.cif
#   From: 2010.05.17/outbox.ucp.g08.bks.cvg/sg175_2_cif.got.tgz:3392.got - 2010.06.11 15:18:44.
