data_PCOD9581745
_publ_section_title
;
Structure prediction by ZEFSAII (Michael W. Deem and Ramdas Pophale) SiO2 
 PCOD9581745
Probable space group: P 63/M
;
_chemical_formula_sum "Si O2"
_cell_formula_units_Z 52
_cell_length_a 11.486638
_cell_length_b 11.486638
_cell_length_c 20.156699
_cell_angle_alpha 90.000000
_cell_angle_beta 90.000000
_cell_angle_gamma 120.000000
_cell_volume 2303.222589
_symmetry_space_group_name_H-M "P 63/M"
_symmetry_group_IT_number 176
_symmetry_cell_setting 'hexagonal'
loop_
_space_group_symop_operation_xyz
x,y,z
x-y,x,1/2+z
-y,x-y,z
-x,-y,1/2+z
-x+y,-x,z
y,-x+y,1/2+z
-x,-y,-z
-x+y,-x,1/2-z
y,-x+y,-z
x,y,1/2-z
x-y,x,-z
-y,x-y,1/2-z
loop_
_atom_site_type_symbol
_atom_site_label
_atom_site_fract_x
_atom_site_fract_y
_atom_site_fract_z
Si Si1 0.160621 0.854974 0.750000
Si Si2 0.696879 0.844587 0.250000
Si Si3 0.442757 0.050409 0.440823
Si Si4 0.000000 0.000000 0.081094
Si Si5 0.593926 0.715461 0.605616
Si Si6 0.847446 0.153782 0.606876
O O1 0.224830 0.849101 0.680128
O O2 0.007151 0.742785 0.750000
O O3 0.178169 0.003575 0.750000
O O4 0.629580 0.833584 0.179754
O O5 0.423969 0.181170 0.441993
O O6 0.566854 0.099594 0.389828
O O7 0.500000 0.000000 0.500000
O O8 0.299896 0.922804 0.422955
O O9 0.106554 0.958940 0.107470
O O10 0.000000 0.000000 0.000000
O O11 0.719313 0.700614 0.578332
#
# Coordination Sequence:
#
# PCOD9581745 Si02
#       6
#     6   6  12   4  12  12
#     4  10  19  39  75 109 151 187 247 322 381 453
#     4  10  17  37  71 107 143 171 245 316 377 437
#     4  12  28  46  72 105 157 201 257 308 382 474
#     4  12  24  37  74 106 144 180 250 311 376 450
#     4  11  26  46  71 112 145 205 254 315 390 450
#     4  11  23  45  74 110 141 193 252 324 383 447
#
# _framework density 22.577062000000002
#
# number of rings (size 3 to 8) (size 9 to 14) (size 15 to 20)
#    0.000    0.923    4.615    2.077    6.462    1.846 
#    1.385    0.000    0.000    0.000    0.000    0.000 
#    0.000    0.000    0.000    0.000    0.000    0.000 
#
# Total GULP energy -290158.760357 kJ/mol
# GULP energy per Si atom -5579.976161 kJ/mol
# Density = 2.252568 g / cm^3
# Si number density = 22.577062 Si / 1000 Ang^3
#
#
#
# Elastic Constant Matrix: (Units=GPa)
#
#
# Indices 1 2 3 4 5 6 
#
# 1 142.8873 53.8218 34.6486 0.0000 0.0000 0.0000
# 2 53.8218 142.8873 34.6486 0.0000 0.0000 0.0000
# 3 34.6486 34.6486 97.0853 0.0000 0.0000 0.0000
# 4 0.0000 0.0000 0.0000 30.9970 0.0000 0.0000
# 5 0.0000 0.0000 0.0000 0.0000 30.9970 0.0000
# 6 0.0000 0.0000 0.0000 0.0000 0.0000 44.5328
#
#
#
# Elastic Compliance Matrix: (Units=1/GPa)
#
#
# Indices 1 2 3 4 5 6 
#
# 1 0.008521 -0.002706 -0.002075 0.000000 0.000000 0.000000
# 2 -0.002706 0.008521 -0.002075 0.000000 0.000000 0.000000
# 3 -0.002075 -0.002075 0.011781 0.000000 0.000000 0.000000
# 4 0.000000 0.000000 0.000000 0.032261 0.000000 0.000000
# 5 0.000000 0.000000 0.000000 0.000000 0.032261 0.000000
# 6 0.000000 0.000000 0.000000 0.000000 0.000000 0.022455
#
#
# Mechanical properties :
#
#
# Convention : Reuss Voigt Hill
#
# Bulk Modulus (GPa) = 66.18106 69.89975 68.04040
# Shear Modulus (GPa) = 37.16037 38.62145 37.89091
#
# Velocity S-wave (km/s) = 4.06141 4.14049 4.10114
# Velocity P-wave (km/s) = 7.16732 7.34070 7.25453
#
# Compressibility (1/GPa) = 0.01511006
#
# Stress axis : x y z
#
# Youngs Moduli (GPa) = 117.35446 117.35446 84.87924
#
# Poissons Ratio (x) = 0.31762 0.17614
# Poissons Ratio (y) = 0.31762 0.17614
# Poissons Ratio (z) = 0.24353 0.24353
#
# Static dielectric constant tensor:
#      x y z
#    x 1.841180 0.000000 0.000000 
#    y 0.000000 1.841180 0.000000 
#    z 0.000000 0.000000 2.001140 
# 
# From -- ./inp_files/3723.got.cif
#   From: 2010.05.17/outbox.cif.g08.bks.cpg/sg176_2_cif.got.tgz:3723.got - 2010.06.03 11:36:45.
