data_PCOD9581728
_publ_section_title
;
Structure prediction by ZEFSAII (Michael W. Deem and Ramdas Pophale) SiO2 
 PCOD9581728
Probable space group: P 6/M
;
_chemical_formula_sum "Si O2"
_cell_formula_units_Z 66
_cell_length_a 21.000000
_cell_length_b 21.000000
_cell_length_c 9.000000
_cell_angle_alpha 90.000000
_cell_angle_beta 90.000000
_cell_angle_gamma 120.000000
_cell_volume 3437.254828
_symmetry_space_group_name_H-M "P 6/M"
_symmetry_group_IT_number 175
_symmetry_cell_setting 'hexagonal'
loop_
_space_group_symop_operation_xyz
x,y,z
x-y,x,z
-y,x-y,z
-x,-y,z
-x+y,-x,z
y,-x+y,z
-x,-y,-z
-x+y,-x,-z
y,-x+y,-z
x,y,-z
x-y,x,-z
-y,x-y,-z
loop_
_atom_site_type_symbol
_atom_site_label
_atom_site_fract_x
_atom_site_fract_y
_atom_site_fract_z
Si Si1 0.156074 0.341928 0.178150
Si Si2 0.341977 0.948699 0.673913
Si Si3 0.880819 0.314155 0.676020
Si Si4 0.592237 0.348292 0.000000
Si Si5 0.916067 0.087514 0.180946
Si Si6 0.562128 0.396511 0.322385
O O1 0.097462 0.364151 0.236398
O O2 0.236595 0.399046 0.240815
O O3 0.129685 0.257517 0.224899
O O4 0.158068 0.344544 0.000000
O O5 0.323129 0.947968 0.500000
O O6 0.389046 0.907143 0.682990
O O7 0.389071 0.033368 0.722463
O O8 0.877083 0.298327 0.500000
O O9 0.850440 0.370713 0.693693
O O10 0.679535 0.408448 0.000000
O O11 0.564082 0.356560 0.165582
O O12 0.001696 0.129680 0.228654
O O13 0.916657 0.087092 0.000000
O O14 0.567360 0.373344 0.500000
#
# Coordination Sequence:
#
# PCOD9581728 Si02
#       6
#    12  12  12   6  12  12
#     4  11  23  35  56  88 127 155 196 250 307 368
#     4  10  22  41  63  87 117 158 205 253 306 365
#     4  10  22  41  63  87 117 158 205 253 306 365
#     4  10  26  42  61  92 134 160 204 254 304 372
#     4   9  17  31  51  78 114 156 198 241 292 352
#     4  10  23  42  66  91 122 162 208 258 312 370
#
# _framework density 19.201370000000001
#
# number of rings (size 3 to 8) (size 9 to 14) (size 15 to 20)
#    0.182    1.818    0.000    2.364    5.091    5.818 
#    0.000    0.909    0.000    0.000    0.000    0.000 
#    0.000    8.727    0.000    0.000    0.000    0.000 
#
# Total GULP energy -367982.723914 kJ/mol
# GULP energy per Si atom -5575.495817 kJ/mol
# Density = 1.915767 g / cm^3
# Si number density = 19.201370 Si / 1000 Ang^3
#
#
#
# Elastic Constant Matrix: (Units=GPa)
#
#
# Indices 1 2 3 4 5 6 
#
# 1 48.4227 -27.7900 3.0261 0.0000 0.0000 0.0000
# 2 -27.7900 48.4227 3.0261 0.0000 0.0000 0.0000
# 3 3.0261 3.0261 70.5507 0.0000 0.0000 0.0000
# 4 0.0000 0.0000 0.0000 25.2931 0.0000 0.0000
# 5 0.0000 0.0000 0.0000 0.0000 25.2931 0.0000
# 6 0.0000 0.0000 0.0000 0.0000 0.0000 38.1063
#
#
#
# Elastic Compliance Matrix: (Units=1/GPa)
#
#
# Indices 1 2 3 4 5 6 
#
# 1 0.031103 0.017982 -0.002105 0.000000 0.000000 0.000000
# 2 0.017982 0.031103 -0.002105 0.000000 0.000000 0.000000
# 3 -0.002105 -0.002105 0.014355 0.000000 0.000000 0.000000
# 4 0.000000 0.000000 0.000000 0.039536 0.000000 0.000000
# 5 0.000000 0.000000 0.000000 0.000000 0.039536 0.000000
# 6 0.000000 0.000000 0.000000 0.000000 0.000000 0.026242
#
#
# Mechanical properties :
#
#
# Convention : Reuss Voigt Hill
#
# Bulk Modulus (GPa) = 9.60596 13.76893 11.68745
# Shear Modulus (GPa) = 26.45020 30.34743 28.39882
#
# Velocity S-wave (km/s) = 3.71552 3.97984 3.84995
# Velocity P-wave (km/s) = 4.83946 5.32027 5.08555
#
# Compressibility (1/GPa) = 0.10410208
#
# Stress axis : x y z
#
# Youngs Moduli (GPa) = 32.15150 32.15150 69.66305
#
# Poissons Ratio (x) = -0.57813 0.14666
# Poissons Ratio (y) = -0.57813 0.14666
# Poissons Ratio (z) = 0.06769 0.06769
#
# Static dielectric constant tensor:
#      x y z
#    x 1.665920 0.000000 0.000000 
#    y 0.000000 1.665920 0.000000 
#    z 0.000000 0.000000 1.677200 
# 
# From -- ./inp_files/982.got.cif
#   From: 2010.05.17/outbox.ucp.g08.bks.cvg/sg175_1_cif.got.tgz:982.got - 2010.06.11 15:18:44.
