data_PCOD9581370
_publ_section_title
;
Structure prediction by ZEFSAII (Michael W. Deem and Ramdas Pophale) SiO2 
 PCOD9581370
Probable space group: P 6/M
;
_chemical_formula_sum "Si O2"
_cell_formula_units_Z 72
_cell_length_a 24.570106
_cell_length_b 24.570106
_cell_length_c 7.841377
_cell_angle_alpha 90.000000
_cell_angle_beta 90.000000
_cell_angle_gamma 120.000000
_cell_volume 4099.557918
_symmetry_space_group_name_H-M "P 6/M"
_symmetry_group_IT_number 175
_symmetry_cell_setting 'hexagonal'
loop_
_space_group_symop_operation_xyz
x,y,z
x-y,x,z
-y,x-y,z
-x,-y,z
-x+y,-x,z
y,-x+y,z
-x,-y,-z
-x+y,-x,-z
y,-x+y,-z
x,y,-z
x-y,x,-z
-y,x-y,-z
loop_
_atom_site_type_symbol
_atom_site_label
_atom_site_fract_x
_atom_site_fract_y
_atom_site_fract_z
Si Si1 0.139492 0.400572 0.704930
Si Si2 0.255952 0.059937 0.696815
Si Si3 0.922319 0.741403 0.195445
Si Si4 0.738616 0.600753 0.290905
Si Si5 0.402400 0.927587 0.291604
Si Si6 0.073381 0.596874 0.707921
O O1 0.142961 0.406361 0.500000
O O2 0.092317 0.327433 0.744919
O O3 0.207924 0.414921 0.765624
O O4 0.114018 0.445312 0.770264
O O5 0.256138 0.042894 0.500000
O O6 0.241605 0.116949 0.707472
O O7 0.327550 0.089277 0.762608
O O8 0.206698 0.995919 0.785890
O O9 0.903295 0.736086 0.000000
O O10 0.739270 0.601463 0.500000
O O11 0.668265 0.552723 0.233891
O O12 0.401275 0.926277 0.500000
O O13 0.453205 0.907765 0.237306
O O14 0.431300 0.000590 0.242952
O O15 0.074711 0.597735 0.500000
#
# Coordination Sequence:
#
# PCOD9581370 Si02
#       6
#    12  12  12  12  12  12
#     4   9  16  27  42  62  86 117 152 186 225 279
#     4  10  19  33  51  70  92 123 157 188 222 272
#     4  11  21  32  47  71  98 122 148 187 233 273
#     4   8  14  23  39  61  85 110 143 185 227 268
#     4   8  13  20  34  55  80 107 141 180 219 262
#     4   8  12  19  32  55  81 105 135 180 225 258
#
# _framework density 17.56287
#
# number of rings (size 3 to 8) (size 9 to 14) (size 15 to 20)
#    0.000    3.000    0.000    5.000    0.000    2.667 
#    0.000    0.000    0.000    1.000    0.000   21.000 
#    0.000    0.000    0.000    0.000    0.000    0.000 
#
# Total GULP energy -401253.175925 kJ/mol
# GULP energy per Si atom -5572.960777 kJ/mol
# Density = 1.752290 g / cm^3
# Si number density = 17.562870 Si / 1000 Ang^3
#
#
#
# Elastic Constant Matrix: (Units=GPa)
#
#
# Indices 1 2 3 4 5 6 
#
# 1 99.3901 55.3920 1.2142 0.0000 0.0000 0.0000
# 2 55.3920 99.3901 1.2142 0.0000 0.0000 0.0000
# 3 1.2142 1.2142 22.1177 0.0000 0.0000 0.0000
# 4 0.0000 0.0000 0.0000 -7.5787 0.0000 0.0000
# 5 0.0000 0.0000 0.0000 0.0000 -7.5787 0.0000
# 6 0.0000 0.0000 0.0000 0.0000 0.0000 21.9991
#
#
#
# Elastic Compliance Matrix: (Units=1/GPa)
#
#
# Indices 1 2 3 4 5 6 
#
# 1 0.014597 -0.008131 -0.000355 0.000000 0.000000 0.000000
# 2 -0.008131 0.014597 -0.000355 0.000000 0.000000 0.000000
# 3 -0.000355 -0.000355 0.045252 0.000000 0.000000 0.000000
# 4 0.000000 0.000000 0.000000 -0.131948 0.000000 0.000000
# 5 0.000000 0.000000 0.000000 0.000000 -0.131948 0.000000
# 6 0.000000 0.000000 0.000000 0.000000 0.000000 0.045456
#
#
# Mechanical properties :
#
#
# Convention : Reuss Voigt Hill
#
# Bulk Modulus (GPa) = 17.61672 37.39317 27.50494
# Shear Modulus (GPa) = -46.55905 12.24016 -17.15945
#
# Velocity S-wave (km/s) = -5.15437 2.64281 -3.12914
# Velocity P-wave (km/s) = 5.03695 5.53623 1.62465
#
# Compressibility (1/GPa) = 0.05676425
#
# Stress axis : x y z
#
# Youngs Moduli (GPa) = 68.50604 68.50604 22.09866
#
# Poissons Ratio (x) = 0.55702 0.00784
# Poissons Ratio (y) = 0.55702 0.00784
# Poissons Ratio (z) = 0.02432 0.02432
#
# Static dielectric constant tensor:
#      x y z
#    x 1.597410 0.000000 0.000000 
#    y 0.000000 1.597410 0.000000 
#    z 0.000000 0.000000 1.634550 
# 
# From -- ./inp_files/1218.got.cif
#   From: 2010.05.17/outbox.cif.g08.bks.cpg/sg175_1_cif.got.tgz:1218.got - 2010.05.20 11:23:22.
