data_PCOD9581880
_publ_section_title
;
Structure prediction by ZEFSAII (Michael W. Deem and Ramdas Pophale) SiO2 
 PCOD9581880
Probable space group: P 63/M
;
_chemical_formula_sum "Si O2"
_cell_formula_units_Z 32
_cell_length_a 9.432039
_cell_length_b 9.432039
_cell_length_c 21.209728
_cell_angle_alpha 90.000000
_cell_angle_beta 90.000000
_cell_angle_gamma 120.000000
_cell_volume 1634.093515
_symmetry_space_group_name_H-M "P 63/M"
_symmetry_group_IT_number 176
_symmetry_cell_setting 'hexagonal'
loop_
_space_group_symop_operation_xyz
x,y,z
x-y,x,1/2+z
-y,x-y,z
-x,-y,1/2+z
-x+y,-x,z
y,-x+y,1/2+z
-x,-y,-z
-x+y,-x,1/2-z
y,-x+y,-z
x,y,1/2-z
x-y,x,-z
-y,x-y,1/2-z
loop_
_atom_site_type_symbol
_atom_site_label
_atom_site_fract_x
_atom_site_fract_y
_atom_site_fract_z
Si Si1 0.000000 0.000000 0.076472
Si Si2 0.666668 0.333335 0.824598
Si Si3 0.157807 0.675944 0.550040
Si Si4 0.364944 0.177885 0.911190
O O1 0.821886 0.964559 0.096805
O O2 0.000000 0.000000 0.000000
O O3 0.666667 0.333334 0.750000
O O4 0.488135 0.214382 0.854310
O O5 0.155493 0.710394 0.475236
O O6 0.994405 0.658128 0.578303
O O7 0.341323 0.821872 0.566766
#
# Coordination Sequence:
#
# PCOD9581880 Si02
#       4
#     4   4  12  12
#     4  12  24  33  70 110 142 153 201 271 374 409
#     4  12  30  48  66  84 129 198 238 254 310 405
#     4  10  20  29  59 103 132 160 196 265 351 387
#     4  12  21  40  63 101 141 164 208 277 334 406
#
# _framework density 19.582723999999999
#
# number of rings (size 3 to 8) (size 9 to 14) (size 15 to 20)
#    0.750    0.000    7.500    1.125    5.250    0.000 
#    0.000    1.875    0.000    0.000    0.000    0.000 
#    0.000    0.000    0.000    0.000    0.000    0.000 
#
# Total GULP energy -178542.835695 kJ/mol
# GULP energy per Si atom -5579.463615 kJ/mol
# Density = 1.953815 g / cm^3
# Si number density = 19.582724 Si / 1000 Ang^3
#
#
#
# Elastic Constant Matrix: (Units=GPa)
#
#
# Indices 1 2 3 4 5 6 
#
# 1 97.8036 5.5961 12.0717 0.0000 0.0000 -0.0008
# 2 5.5961 97.8030 12.0716 0.0000 0.0000 -0.0008
# 3 12.0717 12.0716 85.9668 0.0000 0.0000 -0.0003
# 4 0.0000 0.0000 0.0000 6.9317 -0.0001 0.0000
# 5 0.0000 0.0000 0.0000 -0.0001 6.9316 0.0000
# 6 -0.0008 -0.0008 -0.0003 0.0000 0.0000 46.1032
#
#
#
# Elastic Compliance Matrix: (Units=1/GPa)
#
#
# Indices 1 2 3 4 5 6 
#
# 1 0.010422 -0.000423 -0.001404 0.000000 0.000000 0.000000
# 2 -0.000423 0.010422 -0.001404 0.000000 0.000000 0.000000
# 3 -0.001404 -0.001404 0.012027 0.000000 0.000000 0.000000
# 4 0.000000 0.000000 0.000000 0.144265 0.000001 0.000000
# 5 0.000000 0.000000 0.000000 0.000001 0.144268 0.000000
# 6 0.000000 0.000000 0.000000 0.000000 0.000000 0.021690
#
#
# Mechanical properties :
#
#
# Convention : Reuss Voigt Hill
#
# Bulk Modulus (GPa) = 37.86655 37.89468 37.88062
# Shear Modulus (GPa) = 13.95247 28.78223 21.36735
#
# Velocity S-wave (km/s) = 2.67214 3.83793 3.30681
# Velocity P-wave (km/s) = 5.37579 6.24761 5.82803
#
# Compressibility (1/GPa) = 0.02640853
#
# Stress axis : x y z
#
# Youngs Moduli (GPa) = 95.95011 95.94959 83.14813
#
# Poissons Ratio (x) = 0.04059 0.11675
# Poissons Ratio (y) = 0.04059 0.11675
# Poissons Ratio (z) = 0.13472 0.13472
#
# Static dielectric constant tensor:
#      x y z
#    x 1.811310 0.000000 0.000000 
#    y 0.000000 1.811310 0.000000 
#    z 0.000000 0.000000 1.606880 
# 
# From -- ./inp_files/3587.got.cif
#   From: 2010.05.17/outbox.cif.g08.bks.cpg/sg176_2_cif.got.tgz:3587.got - 2010.06.03 11:36:45.
