data_PCOD9581315
_publ_section_title
;
Structure prediction by ZEFSAII (Michael W. Deem and Ramdas Pophale) SiO2 
 PCOD9581315
Probable space group: P 6/M
;
_chemical_formula_sum "Si O2"
_cell_formula_units_Z 96
_cell_length_a 14.198771
_cell_length_b 14.198771
_cell_length_c 32.374792
_cell_angle_alpha 90.000000
_cell_angle_beta 90.000000
_cell_angle_gamma 120.000000
_cell_volume 5652.481223
_symmetry_space_group_name_H-M "P 6/M"
_symmetry_group_IT_number 175
_symmetry_cell_setting 'hexagonal'
loop_
_space_group_symop_operation_xyz
x,y,z
x-y,x,z
-y,x-y,z
-x,-y,z
-x+y,-x,z
y,-x+y,z
-x,-y,-z
-x+y,-x,-z
y,-x+y,-z
x,y,-z
x-y,x,-z
-y,x-y,-z
loop_
_atom_site_type_symbol
_atom_site_label
_atom_site_fract_x
_atom_site_fract_y
_atom_site_fract_z
Si Si1 0.745014 0.825524 0.378119
Si Si2 0.912889 0.742557 0.224691
Si Si3 0.535499 0.125768 0.672669
Si Si4 0.256716 0.170339 0.044528
Si Si5 0.820006 0.584488 0.453260
Si Si6 0.762601 0.176545 0.698980
Si Si7 0.126091 0.589236 0.577849
Si Si8 0.744723 0.830691 0.866615
O O1 0.838843 0.794222 0.376195
O O2 0.674372 0.780727 0.419777
O O3 0.661653 0.773139 0.340005
O O4 0.835749 0.796337 0.228808
O O5 0.878345 0.652690 0.259950
O O6 0.896008 0.691557 0.178525
O O7 0.652116 0.180757 0.694351
O O8 0.445790 0.143897 0.695013
O O9 0.544674 0.164884 0.625216
O O10 0.500000 0.000000 0.671389
O O11 0.162680 0.202492 0.044495
O O12 0.315532 0.209346 0.089098
O O13 0.315607 0.209443 0.000000
O O14 0.854610 0.619216 0.500000
O O15 0.818554 0.472245 0.443560
O O16 0.695385 0.551480 0.445670
O O17 0.000000 0.500000 0.578962
O O18 0.838613 0.799200 0.866784
#
# Coordination Sequence:
#
# PCOD9581315 Si02
#       8
#    12  12  12  12  12  12  12  12
#     4  12  25  42  61  82 109 141 174 202 229 270
#     4  10  19  31  48  72 103 139 174 207 241 282
#     4  11  21  37  59  80  99 123 155 192 239 289
#     4   8  11  14  22  39  67 108 159 210 250 280
#     4  12  25  40  62  88 112 136 163 198 241 286
#     4  12  23  38  59  80 103 127 158 203 247 295
#     4  11  22  40  61  81 105 131 160 197 240 285
#     4   8  13  20  31  50  80 120 165 207 244 280
#
# _framework density 16.983692000000001
#
# number of rings (size 3 to 8) (size 9 to 14) (size 15 to 20)
#    0.000    1.500    2.500    4.375    0.000    5.000 
#    0.000    1.250    0.000    0.750    0.000    0.000 
#    0.000    0.000    0.000    1.125    0.000   23.750 
#
# Total GULP energy -535430.133875 kJ/mol
# GULP energy per Si atom -5577.397228 kJ/mol
# Density = 1.694504 g / cm^3
# Si number density = 16.983692 Si / 1000 Ang^3
#
#
#
# Elastic Constant Matrix: (Units=GPa)
#
#
# Indices 1 2 3 4 5 6 
#
# 1 42.8263 -3.8661 16.6202 0.0000 0.0000 0.0000
# 2 -3.8661 42.8263 16.6202 0.0000 0.0000 0.0000
# 3 16.6202 16.6202 155.6501 0.0000 0.0000 0.0000
# 4 0.0000 0.0000 0.0000 -89.4535 0.0000 0.0000
# 5 0.0000 0.0000 0.0000 0.0000 -89.4535 0.0000
# 6 0.0000 0.0000 0.0000 0.0000 0.0000 23.3462
#
#
#
# Elastic Compliance Matrix: (Units=1/GPa)
#
#
# Indices 1 2 3 4 5 6 
#
# 1 0.024828 0.003412 -0.003015 0.000000 0.000000 0.000000
# 2 0.003412 0.024828 -0.003015 0.000000 0.000000 0.000000
# 3 -0.003015 -0.003015 0.007069 0.000000 0.000000 0.000000
# 4 0.000000 0.000000 0.000000 -0.011179 0.000000 0.000000
# 5 0.000000 0.000000 0.000000 0.000000 -0.011179 0.000000
# 6 0.000000 0.000000 0.000000 0.000000 0.000000 0.042834
#
#
# Mechanical properties :
#
#
# Convention : Reuss Voigt Hill
#
# Bulk Modulus (GPa) = 19.42242 33.33903 26.38073
# Shear Modulus (GPa) = 50.19988 -16.98361 16.60814
#
# Velocity S-wave (km/s) = 5.44260 -3.16570 3.13051
# Velocity P-wave (km/s) = 7.13839 2.51206 5.35103
#
# Compressibility (1/GPa) = 0.05148689
#
# Stress axis : x y z
#
# Youngs Moduli (GPa) = 40.27646 40.27646 141.46981
#
# Poissons Ratio (x) = -0.13741 0.42660
# Poissons Ratio (y) = -0.13741 0.42660
# Poissons Ratio (z) = 0.12145 0.12145
#
# Static dielectric constant tensor:
#      x y z
#    x 1.595860 0.000000 0.000000 
#    y 0.000000 1.595860 0.000000 
#    z 0.000000 0.000000 1.630370 
# 
# From -- ./inp_files/3414.got.cif
#   From: 2010.05.17/outbox.cif.g08.bks.cpg/sg175_2_cif.got.tgz:3414.got - 2010.05.20 11:23:22.
