data_PCOD9581757
_publ_section_title
;
Structure prediction by ZEFSAII (Michael W. Deem and Ramdas Pophale) SiO2 
 PCOD9581757
Probable space group: P 63/M
;
_chemical_formula_sum "Si O2"
_cell_formula_units_Z 42
_cell_length_a 9.604085
_cell_length_b 9.604085
_cell_length_c 27.873082
_cell_angle_alpha 90.000000
_cell_angle_beta 90.000000
_cell_angle_gamma 120.000000
_cell_volume 2226.525197
_symmetry_space_group_name_H-M "P 63/M"
_symmetry_group_IT_number 176
_symmetry_cell_setting 'hexagonal'
loop_
_space_group_symop_operation_xyz
x,y,z
x-y,x,1/2+z
-y,x-y,z
-x,-y,1/2+z
-x+y,-x,z
y,-x+y,1/2+z
-x,-y,-z
-x+y,-x,1/2-z
y,-x+y,-z
x,y,1/2-z
x-y,x,-z
-y,x-y,1/2-z
loop_
_atom_site_type_symbol
_atom_site_label
_atom_site_fract_x
_atom_site_fract_y
_atom_site_fract_z
Si Si1 0.993653 0.475280 0.349444
Si Si2 0.333334 0.666668 0.690563
Si Si3 0.000000 0.000000 0.556797
Si Si4 0.475956 0.867698 0.250000
Si Si5 0.891620 0.185986 0.875487
Si Si6 0.000000 0.000000 0.192592
O O1 0.040304 0.568790 0.298692
O O2 0.021268 0.622284 0.383337
O O3 0.110659 0.408880 0.364668
O O4 0.818085 0.332463 0.334547
O O5 0.333334 0.666668 0.750000
O O6 0.919694 0.098069 0.579562
O O7 0.000000 0.000000 0.500000
O O8 0.282016 0.785962 0.250000
O O9 0.963196 0.132322 0.830784
O O10 0.000000 0.000000 0.250000
#
# Coordination Sequence:
#
# PCOD9581757 Si02
#       6
#    12   4   4   6  12   4
#     4  12  21  35  52  83 122 154 198 229 281 329
#     4  12  24  27  42  78 120 156 189 231 270 300
#     4  10  23  49  70  83 106 148 197 256 331 368
#     4  10  18  30  50  80 114 168 196 226 248 332
#     4  10  22  39  60  84 111 157 196 247 287 355
#     4  10  23  34  52  80 124 172 221 238 268 335
#
# _framework density 18.863472000000002
#
# number of rings (size 3 to 8) (size 9 to 14) (size 15 to 20)
#    0.286    1.143    4.286    4.000    4.000    2.286 
#    0.000    1.429    0.000    0.000    0.000    0.000 
#    0.000    0.000    0.000    0.000    0.000    0.000 
#
# Total GULP energy -233878.948177 kJ/mol
# GULP energy per Si atom -5568.546385 kJ/mol
# Density = 1.882054 g / cm^3
# Si number density = 18.863472 Si / 1000 Ang^3
#
#
#
# Elastic Constant Matrix: (Units=GPa)
#
#
# Indices 1 2 3 4 5 6 
#
# 1 88.6608 14.5779 23.0631 0.0000 0.0000 0.0002
# 2 14.5779 88.6602 23.0632 0.0000 0.0000 0.0003
# 3 23.0631 23.0632 110.7110 0.0000 0.0000 0.0000
# 4 0.0000 0.0000 0.0000 6.0598 -0.0001 0.0000
# 5 0.0000 0.0000 0.0000 -0.0001 6.0597 0.0000
# 6 0.0002 0.0003 0.0000 0.0000 0.0000 37.0412
#
#
#
# Elastic Compliance Matrix: (Units=1/GPa)
#
#
# Indices 1 2 3 4 5 6 
#
# 1 0.012089 -0.001409 -0.002225 0.000000 0.000000 0.000000
# 2 -0.001409 0.012089 -0.002225 0.000000 0.000000 0.000000
# 3 -0.002225 -0.002225 0.009960 0.000000 0.000000 0.000000
# 4 0.000000 0.000000 0.000000 0.165021 0.000002 0.000000
# 5 0.000000 0.000000 0.000000 0.000002 0.165025 0.000000
# 6 0.000000 0.000000 0.000000 0.000000 0.000000 0.026997
#
#
# Mechanical properties :
#
#
# Convention : Reuss Voigt Hill
#
# Bulk Modulus (GPa) = 44.60181 45.49338 45.04760
# Shear Modulus (GPa) = 12.18405 24.98733 18.58569
#
# Velocity S-wave (km/s) = 2.54423 3.64351 3.14231
# Velocity P-wave (km/s) = 5.68565 6.47068 6.09083
#
# Compressibility (1/GPa) = 0.02242061
#
# Stress axis : x y z
#
# Youngs Moduli (GPa) = 82.71721 82.71663 100.40655
#
# Poissons Ratio (x) = 0.11655 0.22340
# Poissons Ratio (y) = 0.11655 0.22340
# Poissons Ratio (z) = 0.18404 0.18404
#
# Static dielectric constant tensor:
#      x y z
#    x 1.738250 0.000000 0.000000 
#    y 0.000000 1.738250 0.000000 
#    z 0.000000 0.000000 1.598660 
# 
# From -- ./inp_files/4428.got.cif
#   From: 2010.05.17/outbox.cif.g08.bks.cpg/sg176_3_cif.got.tgz:4428.got - 2010.06.03 11:36:45.
