data_PCOD9581711
_publ_section_title
;
Structure prediction by ZEFSAII (Michael W. Deem and Ramdas Pophale) SiO2 
 PCOD9581711
Probable space group: P 6/M
;
_chemical_formula_sum "Si O2"
_cell_formula_units_Z 76
_cell_length_a 18.000000
_cell_length_b 18.000000
_cell_length_c 15.000000
_cell_angle_alpha 90.000000
_cell_angle_beta 90.000000
_cell_angle_gamma 120.000000
_cell_volume 4208.883462
_symmetry_space_group_name_H-M "P 6/M"
_symmetry_group_IT_number 175
_symmetry_cell_setting 'hexagonal'
loop_
_space_group_symop_operation_xyz
x,y,z
x-y,x,z
-y,x-y,z
-x,-y,z
-x+y,-x,z
y,-x+y,z
-x,-y,-z
-x+y,-x,-z
y,-x+y,-z
x,y,-z
x-y,x,-z
-y,x-y,-z
loop_
_atom_site_type_symbol
_atom_site_label
_atom_site_fract_x
_atom_site_fract_y
_atom_site_fract_z
Si Si1 0.124775 0.206118 0.000000
Si Si2 0.666668 0.333335 0.897922
Si Si3 0.481087 0.801677 0.209284
Si Si4 0.349231 0.771613 0.500000
Si Si5 0.061423 0.325048 0.274634
Si Si6 0.111302 0.785313 0.830670
Si Si7 0.840667 0.481954 0.692127
Si Si8 0.976628 0.820445 0.606151
O O1 0.020923 0.158274 0.000000
O O2 0.164517 0.269476 0.084476
O O3 0.592612 0.243306 0.863116
O O4 0.666667 0.333334 0.000000
O O5 0.572296 0.852708 0.161790
O O6 0.475312 0.722063 0.266744
O O7 0.447658 0.852793 0.269587
O O8 0.260675 0.679567 0.500000
O O9 0.356596 0.823428 0.587799
O O10 0.143854 0.323457 0.236321
O O11 0.085095 0.422649 0.285602
O O12 0.036717 0.270559 0.364986
O O13 0.982653 0.270737 0.209714
O O14 0.898386 0.832074 0.639955
O O15 0.977424 0.826008 0.500000
#
# Coordination Sequence:
#
# PCOD9581711 Si02
#       8
#     6   4  12   6  12  12  12  12
#     4  12  25  44  68  97 125 149 197 253 313 371
#     4   9  18  33  57  91 119 145 201 243 276 339
#     4   9  19  37  57  82 120 160 197 240 288 348
#     4  10  16  30  60  87 119 149 203 256 296 343
#     4  11  22  37  59  83 115 159 194 237 299 362
#     4  11  23  40  62  84 117 157 190 241 304 364
#     4  10  19  34  57  88 118 158 204 245 291 348
#     4  10  20  35  55  81 112 149 199 247 290 352
#
# _framework density 18.057044999999999
#
# number of rings (size 3 to 8) (size 9 to 14) (size 15 to 20)
#    0.158    1.579    4.737    0.553    2.211    1.263 
#    0.000    0.000    1.737    1.895    0.000    0.000 
#    0.000    0.000    0.000    0.000    0.000    0.000 
#
# Total GULP energy -423253.973148 kJ/mol
# GULP energy per Si atom -5569.131226 kJ/mol
# Density = 1.801595 g / cm^3
# Si number density = 18.057045 Si / 1000 Ang^3
#
#
#
# Elastic Constant Matrix: (Units=GPa)
#
#
# Indices 1 2 3 4 5 6 
#
# 1 77.5380 2.7912 12.5184 0.0000 0.0000 0.0044
# 2 2.7912 77.5317 12.5296 0.0000 0.0000 0.0034
# 3 12.5184 12.5296 73.8867 0.0000 0.0000 -0.0004
# 4 0.0000 0.0000 0.0000 8.5258 -0.0002 0.0000
# 5 0.0000 0.0000 0.0000 -0.0002 8.5256 0.0000
# 6 0.0044 0.0034 -0.0004 0.0000 0.0000 37.3122
#
#
#
# Elastic Compliance Matrix: (Units=1/GPa)
#
#
# Indices 1 2 3 4 5 6 
#
# 1 0.013261 -0.000118 -0.002227 0.000000 0.000000 -0.000002
# 2 -0.000118 0.013262 -0.002229 0.000000 0.000000 -0.000001
# 3 -0.002227 -0.002229 0.014290 0.000000 0.000000 0.000001
# 4 0.000000 0.000000 0.000000 0.117291 0.000002 0.000000
# 5 0.000000 0.000000 0.000000 0.000002 0.117293 0.000000
# 6 -0.000002 -0.000001 0.000001 0.000000 0.000000 0.026801
#
#
# Mechanical properties :
#
#
# Convention : Reuss Voigt Hill
#
# Bulk Modulus (GPa) = 31.57988 31.62610 31.60299
# Shear Modulus (GPa) = 15.53279 24.28054 19.90666
#
# Velocity S-wave (km/s) = 2.93611 3.67094 3.32389
# Velocity P-wave (km/s) = 5.38714 5.95989 5.68073
#
# Compressibility (1/GPa) = 0.03166573
#
# Stress axis : x y z
#
# Youngs Moduli (GPa) = 75.41114 75.40097 69.98136
#
# Poissons Ratio (x) = 0.00886 0.15583
# Poissons Ratio (y) = 0.00886 0.15600
# Poissons Ratio (z) = 0.16792 0.16808
#
# Static dielectric constant tensor:
#      x y z
#    x 1.457190 0.000340 0.000000 
#    y 0.000340 1.457570 0.000000 
#    z 0.000000 0.000000 1.622510 
# 
# From -- ./inp_files/2578.got.cif
#   From: 2010.05.17/outbox.ucp.g08.bks.cvg/sg175_2_cif.got.tgz:2578.got - 2010.06.11 15:18:44.
