data_PCOD9581749
_publ_section_title
;
Structure prediction by ZEFSAII (Michael W. Deem and Ramdas Pophale) SiO2 
 PCOD9581749
Probable space group: P 63/M
;
_chemical_formula_sum "Si O2"
_cell_formula_units_Z 96
_cell_length_a 28.928380
_cell_length_b 28.928380
_cell_length_c 7.567870
_cell_angle_alpha 90.000000
_cell_angle_beta 90.000000
_cell_angle_gamma 120.000000
_cell_volume 5484.695511
_symmetry_space_group_name_H-M "P 63/M"
_symmetry_group_IT_number 176
_symmetry_cell_setting 'hexagonal'
loop_
_space_group_symop_operation_xyz
x,y,z
x-y,x,1/2+z
-y,x-y,z
-x,-y,1/2+z
-x+y,-x,z
y,-x+y,1/2+z
-x,-y,-z
-x+y,-x,1/2-z
y,-x+y,-z
x,y,1/2-z
x-y,x,-z
-y,x-y,1/2-z
loop_
_atom_site_type_symbol
_atom_site_label
_atom_site_fract_x
_atom_site_fract_y
_atom_site_fract_z
Si Si1 0.582404 0.519770 0.962313
Si Si2 0.593146 0.701306 0.536280
Si Si3 0.476178 0.416285 0.038621
Si Si4 0.821341 0.182739 0.541790
Si Si5 0.590040 0.892190 0.035081
Si Si6 0.238088 0.124400 0.537529
Si Si7 0.999981 0.696151 0.464618
Si Si8 0.796708 0.992257 0.038432
O O1 0.585226 0.525353 0.750000
O O2 0.559204 0.557764 0.028583
O O3 0.642370 0.539373 0.026015
O O4 0.537316 0.459538 0.002369
O O5 0.592215 0.702053 0.750000
O O6 0.545021 0.644001 0.475473
O O7 0.601921 0.757980 0.477886
O O8 0.646415 0.701280 0.476372
O O9 0.469015 0.412581 0.250000
O O10 0.834270 0.187907 0.750000
O O11 0.850113 0.243079 0.469141
O O12 0.843915 0.144312 0.472183
O O13 0.585944 0.886844 0.250000
O O14 0.640238 0.949612 0.990188
O O15 0.241101 0.124370 0.750000
O O16 0.205029 0.154057 0.495792
O O17 0.208104 0.062891 0.474102
O O18 0.998166 0.696620 0.250000
O O19 0.006750 0.751413 0.529558
O O20 0.792192 0.987174 0.250000
#
# Coordination Sequence:
#
# PCOD9581749 Si02
#       8
#    12  12  12  12  12  12  12  12
#     4   9  16  27  45  65  85 116 155 184 209 250
#     4  10  18  29  45  64  90 125 158 181 212 268
#     4   9  17  28  43  64  89 118 150 183 215 251
#     4  10  19  29  44  67  94 120 150 190 227 261
#     4   9  15  27  45  64  89 123 156 181 213 263
#     4  10  20  32  47  70  94 117 150 190 231 275
#     4   9  14  24  44  65  86 120 157 179 207 262
#     4  10  19  32  50  67  89 122 154 186 226 276
#
# _framework density 17.503252
#
# number of rings (size 3 to 8) (size 9 to 14) (size 15 to 20)
#    0.000    2.500    3.750    0.000    0.000    1.000 
#    0.000    0.625    0.000    1.750    0.000    0.000 
#    1.250    0.000    0.750    0.000    1.000    0.000 
#
# Total GULP energy -534896.003530 kJ/mol
# GULP energy per Si atom -5571.833370 kJ/mol
# Density = 1.746341 g / cm^3
# Si number density = 17.503252 Si / 1000 Ang^3
#
#
#
# Elastic Constant Matrix: (Units=GPa)
#
#
# Indices 1 2 3 4 5 6 
#
# 1 99.0748 50.2168 -5.8727 0.0000 0.0000 0.0000
# 2 50.2168 99.0748 -5.8727 0.0000 0.0000 0.0000
# 3 -5.8727 -5.8727 36.3086 0.0000 0.0000 0.0000
# 4 0.0000 0.0000 0.0000 12.7366 0.0000 0.0000
# 5 0.0000 0.0000 0.0000 0.0000 12.7366 0.0000
# 6 0.0000 0.0000 0.0000 0.0000 0.0000 24.4290
#
#
#
# Elastic Compliance Matrix: (Units=1/GPa)
#
#
# Indices 1 2 3 4 5 6 
#
# 1 0.013626 -0.006841 0.001097 0.000000 0.000000 0.000000
# 2 -0.006841 0.013626 0.001097 0.000000 0.000000 0.000000
# 3 0.001097 0.001097 0.027897 0.000000 0.000000 0.000000
# 4 0.000000 0.000000 0.000000 0.078514 0.000000 0.000000
# 5 0.000000 0.000000 0.000000 0.000000 0.078514 0.000000
# 6 0.000000 0.000000 0.000000 0.000000 0.000000 0.040935
#
#
# Mechanical properties :
#
#
# Convention : Reuss Voigt Hill
#
# Bulk Modulus (GPa) = 21.80766 34.60010 28.20388
# Shear Modulus (GPa) = 18.00568 23.04623 20.52596
#
# Velocity S-wave (km/s) = 3.21082 3.63255 3.42818
# Velocity P-wave (km/s) = 5.12173 6.11593 5.64078
#
# Compressibility (1/GPa) = 0.04585544
#
# Stress axis : x y z
#
# Youngs Moduli (GPa) = 73.38884 73.38884 35.84661
#
# Poissons Ratio (x) = 0.50208 -0.03934
# Poissons Ratio (y) = 0.50208 -0.03934
# Poissons Ratio (z) = -0.08054 -0.08054
#
# Static dielectric constant tensor:
#      x y z
#    x 1.605640 0.000000 0.000000 
#    y 0.000000 1.605640 0.000000 
#    z 0.000000 0.000000 13.019800 
# 
# From -- ./inp_files/2184.got.cif
#   From: 2010.05.17/outbox.cif.g08.bks.cpg/sg176_2_cif.got.tgz:2184.got - 2010.06.03 11:36:45.
