data_PCOD9581395
_publ_section_title
;
Structure prediction by ZEFSAII (Michael W. Deem and Ramdas Pophale) SiO2 
 PCOD9581395
Probable space group: P 6/M
;
_chemical_formula_sum "Si O2"
_cell_formula_units_Z 54
_cell_length_a 10.437242
_cell_length_b 10.437242
_cell_length_c 25.964463
_cell_angle_alpha 90.000000
_cell_angle_beta 90.000000
_cell_angle_gamma 120.000000
_cell_volume 2449.522782
_symmetry_space_group_name_H-M "P 6/M"
_symmetry_group_IT_number 175
_symmetry_cell_setting 'hexagonal'
loop_
_space_group_symop_operation_xyz
x,y,z
x-y,x,z
-y,x-y,z
-x,-y,z
-x+y,-x,z
y,-x+y,z
-x,-y,-z
-x+y,-x,-z
y,-x+y,-z
x,y,-z
x-y,x,-z
-y,x-y,-z
loop_
_atom_site_type_symbol
_atom_site_label
_atom_site_fract_x
_atom_site_fract_y
_atom_site_fract_z
Si Si1 0.663872 0.925744 0.895390
Si Si2 0.916277 0.255851 0.215206
Si Si3 0.742423 0.655217 0.671354
Si Si4 0.165473 0.503019 0.500000
Si Si5 0.339689 0.504475 0.000000
Si Si6 0.500000 0.000000 0.592843
O O1 0.716379 0.804978 0.896883
O O2 0.570484 0.903888 0.946214
O O3 0.582480 0.900397 0.839851
O O4 0.081376 0.281502 0.215032
O O5 0.895939 0.308707 0.271020
O O6 0.917474 0.711080 0.666482
O O7 0.637587 0.535497 0.629488
O O8 0.326741 0.524722 0.500000
O O9 0.084903 0.446133 0.446042
O O10 0.474098 0.670937 0.000000
#
# Coordination Sequence:
#
# PCOD9581395 Si02
#       6
#    12  12  12   6   6   6
#     4  10  19  34  58  84 106 131 175 237 291 335
#     4   8  15  29  51  80 111 142 176 220 284 352
#     4  10  20  36  58  87 122 158 195 241 305 362
#     4   9  20  36  54  76 112 159 202 242 288 335
#     4  10  24  40  50  70 104 150 192 218 274 344
#     4  11  20  34  58  88 116 153 206 256 284 349
#
# _framework density 22.045112
#
# number of rings (size 3 to 8) (size 9 to 14) (size 15 to 20)
#    0.444    2.000    0.000    2.667    0.000    5.333 
#    1.333    7.778    0.000    0.000    0.000    7.778 
#    0.000    0.000    0.000    0.000    0.000    0.000 
#
# Total GULP energy -300943.813987 kJ/mol
# GULP energy per Si atom -5573.033592 kJ/mol
# Density = 2.199494 g / cm^3
# Si number density = 22.045112 Si / 1000 Ang^3
#
#
#
# Elastic Constant Matrix: (Units=GPa)
#
#
# Indices 1 2 3 4 5 6 
#
# 1 48.2755 -5.6989 36.4967 0.0000 0.0000 0.0000
# 2 -5.6989 48.2755 36.4967 0.0000 0.0000 0.0000
# 3 36.4967 36.4967 218.0695 0.0000 0.0000 0.0000
# 4 0.0000 0.0000 0.0000 -11.6997 0.0000 0.0000
# 5 0.0000 0.0000 0.0000 0.0000 -11.6997 0.0000
# 6 0.0000 0.0000 0.0000 0.0000 0.0000 26.9872
#
#
#
# Elastic Compliance Matrix: (Units=1/GPa)
#
#
# Indices 1 2 3 4 5 6 
#
# 1 0.025733 0.007205 -0.005513 0.000000 0.000000 0.000000
# 2 0.007205 0.025733 -0.005513 0.000000 0.000000 0.000000
# 3 -0.005513 -0.005513 0.006431 0.000000 0.000000 0.000000
# 4 0.000000 0.000000 0.000000 -0.085472 0.000000 0.000000
# 5 0.000000 0.000000 0.000000 0.000000 -0.085472 0.000000
# 6 0.000000 0.000000 0.000000 0.000000 0.000000 0.037055
#
#
# Mechanical properties :
#
#
# Convention : Reuss Voigt Hill
#
# Bulk Modulus (GPa) = 19.89797 49.91215 34.90506
# Shear Modulus (GPa) = -96.89591 17.20595 -39.84498
#
# Velocity S-wave (km/s) = -6.63693 2.79675 -4.25600
# Velocity P-wave (km/s) = 7.04885 5.75493 2.87811
#
# Compressibility (1/GPa) = 0.05025637
#
# Stress axis : x y z
#
# Youngs Moduli (GPa) = 38.86121 38.86121 155.49946
#
# Poissons Ratio (x) = -0.28001 0.85720
# Poissons Ratio (y) = -0.28001 0.85720
# Poissons Ratio (z) = 0.21423 0.21423
#
# Static dielectric constant tensor:
#      x y z
#    x 1.817900 0.000000 0.000000 
#    y 0.000000 1.817900 0.000000 
#    z 0.000000 0.000000 1.867250 
# 
# From -- ./inp_files/3216.got.cif
#   From: 2010.05.17/outbox.cif.g08.bks.cpg/sg175_2_cif.got.tgz:3216.got - 2010.05.20 11:23:22.
