data_PCOD9581620
_publ_section_title
;
Structure prediction by ZEFSAII (Michael W. Deem and Ramdas Pophale) SiO2 
 PCOD9581620
Probable space group: P 6/M
;
_chemical_formula_sum "Si O2"
_cell_formula_units_Z 72
_cell_length_a 14.293936
_cell_length_b 14.293936
_cell_length_c 20.532135
_cell_angle_alpha 90.000000
_cell_angle_beta 90.000000
_cell_angle_gamma 120.000000
_cell_volume 3633.025192
_symmetry_space_group_name_H-M "P 6/M"
_symmetry_group_IT_number 175
_symmetry_cell_setting 'hexagonal'
loop_
_space_group_symop_operation_xyz
x,y,z
x-y,x,z
-y,x-y,z
-x,-y,z
-x+y,-x,z
y,-x+y,z
-x,-y,-z
-x+y,-x,-z
y,-x+y,-z
x,y,-z
x-y,x,-z
-y,x-y,-z
loop_
_atom_site_type_symbol
_atom_site_label
_atom_site_fract_x
_atom_site_fract_y
_atom_site_fract_z
Si Si1 0.535293 0.410225 0.269804
Si Si2 0.874626 0.463235 0.120033
Si Si3 0.166051 0.250755 0.576984
Si Si4 0.416654 0.179023 0.312153
Si Si5 0.234971 0.415473 0.926682
Si Si6 0.171607 0.254323 0.192049
O O1 0.500000 0.500000 0.268609
O O2 0.542346 0.380023 0.194870
O O3 0.447929 0.303368 0.306033
O O4 0.652465 0.470843 0.302171
O O5 0.855327 0.550091 0.083144
O O6 0.819031 0.345747 0.088051
O O7 0.000000 0.500000 0.120876
O O8 0.200894 0.161921 0.591385
O O9 0.182533 0.275103 0.500000
O O10 0.230248 0.355075 0.621776
O O11 0.336341 0.113454 0.252691
O O12 0.217015 0.326655 0.872997
O O13 0.235487 0.379278 0.000000
O O14 0.204293 0.162025 0.194342
#
# Coordination Sequence:
#
# PCOD9581620 Si02
#       6
#    12  12  12  12  12  12
#     4  11  21  37  62  90 117 153 199 247 306 366
#     4  11  22  40  61  84 115 152 198 249 306 368
#     4  10  21  39  65  98 135 174 214 257 305 355
#     4  12  23  40  65  93 127 162 205 260 309 368
#     4  12  25  40  62  90 121 157 201 256 315 377
#     4  12  25  42  63  88 120 161 210 261 315 376
#
# _framework density 19.818194999999999
#
# number of rings (size 3 to 8) (size 9 to 14) (size 15 to 20)
#    0.000    0.667    3.333    5.500    0.000    4.000 
#    0.000    2.500    0.000    4.000    0.000    0.000 
#    0.000    0.000    0.000    0.000    0.000    0.000 
#
# Total GULP energy -402916.562128 kJ/mol
# GULP energy per Si atom -5596.063363 kJ/mol
# Density = 1.977309 g / cm^3
# Si number density = 19.818195 Si / 1000 Ang^3
#
#
#
# Elastic Constant Matrix: (Units=GPa)
#
#
# Indices 1 2 3 4 5 6 
#
# 1 65.5045 -7.0485 17.3414 0.0000 0.0000 0.0000
# 2 -7.0485 65.5045 17.3414 0.0000 0.0000 0.0000
# 3 17.3414 17.3414 64.2523 0.0000 0.0000 0.0000
# 4 0.0000 0.0000 0.0000 -44.2260 0.0000 0.0000
# 5 0.0000 0.0000 0.0000 0.0000 -44.2260 0.0000
# 6 0.0000 0.0000 0.0000 0.0000 0.0000 36.2765
#
#
#
# Elastic Compliance Matrix: (Units=1/GPa)
#
#
# Indices 1 2 3 4 5 6 
#
# 1 0.017076 0.003293 -0.005497 0.000000 0.000000 0.000000
# 2 0.003293 0.017076 -0.005497 0.000000 0.000000 0.000000
# 3 -0.005497 -0.005497 0.018531 0.000000 0.000000 0.000000
# 4 0.000000 0.000000 0.000000 -0.022611 0.000000 0.000000
# 5 0.000000 0.000000 0.000000 0.000000 -0.022611 0.000000
# 6 0.000000 0.000000 0.000000 0.000000 0.000000 0.027566
#
#
# Mechanical properties :
#
#
# Convention : Reuss Voigt Hill
#
# Bulk Modulus (GPa) = 26.82497 27.83663 27.33080
# Shear Modulus (GPa) = 79.54612 0.74003 40.14308
#
# Velocity S-wave (km/s) = 6.34232 0.61174 4.50551
# Velocity P-wave (km/s) = 8.19746 3.81778 6.39429
#
# Compressibility (1/GPa) = 0.03727870
#
# Stress axis : x y z
#
# Youngs Moduli (GPa) = 58.56245 58.56245 53.96343
#
# Poissons Ratio (x) = -0.19283 0.29666
# Poissons Ratio (y) = -0.19283 0.29666
# Poissons Ratio (z) = 0.32194 0.32194
#
# Static dielectric constant tensor:
#      x y z
#    x 1.729040 0.000000 0.000000 
#    y 0.000000 1.729040 0.000000 
#    z 0.000000 0.000000 1.673710 
# 
# From -- ./inp_files/2865.got.cif
#   From: 2010.05.17/outbox.cif.g08.bks.cpg/sg175_2_cif.got.tgz:2865.got - 2010.05.20 11:23:22.
