data_PCOD9581058
_publ_section_title
;
Structure prediction by ZEFSAII (Michael W. Deem and Ramdas Pophale) SiO2 
 PCOD9581058
Probable space group: P 63
;
_chemical_formula_sum "Si O2"
_cell_formula_units_Z 30
_cell_length_a 13.517629
_cell_length_b 13.517629
_cell_length_c 8.262133
_cell_angle_alpha 90.000000
_cell_angle_beta 90.000000
_cell_angle_gamma 120.000000
_cell_volume 1307.446296
_symmetry_space_group_name_H-M "P 63"
_symmetry_group_IT_number 173
_symmetry_cell_setting 'hexagonal'
loop_
_space_group_symop_operation_xyz
x,y,z
x-y,x,1/2+z
-y,x-y,z
-x,-y,1/2+z
-x+y,-x,z
y,-x+y,1/2+z
loop_
_atom_site_type_symbol
_atom_site_label
_atom_site_fract_x
_atom_site_fract_y
_atom_site_fract_z
Si Si1 0.643654 0.144770 0.169680
Si Si2 0.859531 0.235144 0.934682
Si Si3 0.711484 0.528672 0.374314
Si Si4 0.960478 0.676188 0.722253
Si Si5 0.531882 0.111473 0.684435
O O1 0.561119 0.192011 0.233733
O O2 0.716865 0.162930 0.333176
O O3 0.555850 0.016297 0.127677
O O4 0.741058 0.188854 0.034117
O O5 0.834844 0.136524 0.800851
O O6 0.874162 0.347809 0.844914
O O7 0.964140 0.265142 0.059430
O O8 0.705743 0.642993 0.349593
O O9 0.661291 0.470607 0.543779
O O10 0.891483 0.538623 0.704714
#
# Coordination Sequence:
#
# PCOD9581058 Si02
#       5
#     6   6   6   6   6
#     4  10  22  40  58  91 131 188 219 299 338 417
#     4  11  24  40  68  92 145 182 253 282 365 414
#     4  10  21  38  62  85 141 173 239 278 352 408
#     4  10  22  43  59  97 134 193 226 301 336 432
#     4  11  23  39  63  93 139 182 241 288 347 429
#
# _framework density 22.945491000000001
#
# number of rings (size 3 to 8) (size 9 to 14) (size 15 to 20)
#    0.000    1.600    2.000    2.800   11.200    0.000 
#    1.200    0.000    0.000    0.000    0.000    0.000 
#   76.000    0.000    0.000    0.000    0.000    0.000 
#
# Total GULP energy -167308.912673 kJ/mol
# GULP energy per Si atom -5576.963756 kJ/mol
# Density = 2.289327 g / cm^3
# Si number density = 22.945491 Si / 1000 Ang^3
#
#
#
# Elastic Constant Matrix: (Units=GPa)
#
#
# Indices 1 2 3 4 5 6 
#
# 1 73.9209 22.7027 34.3523 0.0000 0.0000 0.0000
# 2 22.7027 73.9209 34.3523 0.0000 0.0000 0.0000
# 3 34.3523 34.3523 123.6144 0.0000 0.0000 0.0000
# 4 0.0000 0.0000 0.0000 38.2732 0.0000 0.0000
# 5 0.0000 0.0000 0.0000 0.0000 38.2732 0.0000
# 6 0.0000 0.0000 0.0000 0.0000 0.0000 25.6091
#
#
#
# Elastic Compliance Matrix: (Units=1/GPa)
#
#
# Indices 1 2 3 4 5 6 
#
# 1 0.016211 -0.003313 -0.003584 0.000000 0.000000 0.000000
# 2 -0.003313 0.016211 -0.003584 0.000000 0.000000 0.000000
# 3 -0.003584 -0.003584 0.010082 0.000000 0.000000 0.000000
# 4 0.000000 0.000000 0.000000 0.026128 0.000000 0.000000
# 5 0.000000 0.000000 0.000000 0.000000 0.026128 0.000000
# 6 0.000000 0.000000 0.000000 0.000000 0.000000 0.039049
#
#
# Mechanical properties :
#
#
# Convention : Reuss Voigt Hill
#
# Bulk Modulus (GPa) = 46.42397 50.47456 48.44927
# Shear Modulus (GPa) = 30.87323 32.43437 31.65380
#
# Velocity S-wave (km/s) = 3.67209 3.76379 3.71822
# Velocity P-wave (km/s) = 6.18508 6.39793 6.29240
#
# Compressibility (1/GPa) = 0.02154060
#
# Stress axis : x y z
#
# Youngs Moduli (GPa) = 61.68571 61.68571 99.18804
#
# Poissons Ratio (x) = 0.20437 0.35553
# Poissons Ratio (y) = 0.20437 0.35553
# Poissons Ratio (z) = 0.22110 0.22110
#
# Static dielectric constant tensor:
#      x y z
#    x 1.913210 0.000000 0.000000 
#    y 0.000000 1.913210 0.000000 
#    z 0.000000 0.000000 1.989440 
# 
# From -- ./inp_files/478.got.cif
#   From: 2010.05.17/outbox.cif.g08.bks.cpg/sg173_cif.got.tgz:478.got - 2010.05.20 11:21:53.
