data_PCOD9581351
_publ_section_title
;
Structure prediction by ZEFSAII (Michael W. Deem and Ramdas Pophale) SiO2 
 PCOD9581351
Probable space group: P 6/M
;
_chemical_formula_sum "Si O2"
_cell_formula_units_Z 54
_cell_length_a 10.605977
_cell_length_b 10.605977
_cell_length_c 25.043274
_cell_angle_alpha 90.000000
_cell_angle_beta 90.000000
_cell_angle_gamma 120.000000
_cell_volume 2439.625133
_symmetry_space_group_name_H-M "P 6/M"
_symmetry_group_IT_number 175
_symmetry_cell_setting 'hexagonal'
loop_
_space_group_symop_operation_xyz
x,y,z
x-y,x,z
-y,x-y,z
-x,-y,z
-x+y,-x,z
y,-x+y,z
-x,-y,-z
-x+y,-x,-z
y,-x+y,-z
x,y,-z
x-y,x,-z
-y,x-y,-z
loop_
_atom_site_type_symbol
_atom_site_label
_atom_site_fract_x
_atom_site_fract_y
_atom_site_fract_z
Si Si1 0.661786 0.166973 0.605993
Si Si2 0.674461 0.737079 0.500000
Si Si3 0.335418 0.254146 0.828489
Si Si4 0.257760 0.925484 0.287130
Si Si5 0.252900 0.915637 0.057205
O O1 0.800728 0.330360 0.604466
O O2 0.669537 0.088775 0.553178
O O3 0.668296 0.100031 0.661972
O O4 0.814850 0.720439 0.500000
O O5 0.197386 0.279253 0.828516
O O6 0.409126 0.312372 0.770941
O O7 0.415232 0.312237 0.885546
O O8 0.086570 0.806550 0.289647
O O9 0.079921 0.800009 0.057184
O O10 0.311230 0.895330 0.000000
#
# Coordination Sequence:
#
# PCOD9581351 Si02
#       5
#    12   6  12  12  12
#     4  10  24  42  57  83 104 142 181 211 248 284
#     4  12  25  42  66  92 117 138 162 202 248 300
#     4   8  13  20  32  54  84 121 160 198 247 301
#     4  10  19  32  52  76 105 136 170 216 264 314
#     4   8  11  14  22  40  72 114 157 195 232 287
#
# _framework density 22.134547000000001
#
# number of rings (size 3 to 8) (size 9 to 14) (size 15 to 20)
#    0.444    2.222    0.000    2.778    0.000    8.889 
#    0.000    2.222    0.000    0.000    0.000    0.000 
#    0.000    1.778    0.000   17.333    0.000    2.222 
#
# Total GULP energy -301091.183143 kJ/mol
# GULP energy per Si atom -5575.762651 kJ/mol
# Density = 2.208417 g / cm^3
# Si number density = 22.134547 Si / 1000 Ang^3
#
#
#
# Elastic Constant Matrix: (Units=GPa)
#
#
# Indices 1 2 3 4 5 6 
#
# 1 61.8000 10.9423 48.8347 0.0000 0.0000 0.0000
# 2 10.9423 61.8000 48.8347 0.0000 0.0000 0.0000
# 3 48.8347 48.8347 272.7630 0.0000 0.0000 0.0000
# 4 0.0000 0.0000 0.0000 -71.1799 0.0000 0.0000
# 5 0.0000 0.0000 0.0000 0.0000 -71.1799 0.0000
# 6 0.0000 0.0000 0.0000 0.0000 0.0000 25.4288
#
#
#
# Elastic Compliance Matrix: (Units=1/GPa)
#
#
# Indices 1 2 3 4 5 6 
#
# 1 0.018880 -0.000783 -0.003240 0.000000 0.000000 0.000000
# 2 -0.000783 0.018880 -0.003240 0.000000 0.000000 0.000000
# 3 -0.003240 -0.003240 0.004826 0.000000 0.000000 0.000000
# 4 0.000000 0.000000 0.000000 -0.014049 0.000000 0.000000
# 5 0.000000 0.000000 0.000000 0.000000 -0.014049 0.000000
# 6 0.000000 0.000000 0.000000 0.000000 0.000000 0.039325
#
#
# Mechanical properties :
#
#
# Convention : Reuss Voigt Hill
#
# Bulk Modulus (GPa) = 35.63658 68.17625 51.90641
# Shear Modulus (GPa) = 64.35533 -4.20275 30.07629
#
# Velocity S-wave (km/s) = 5.39794 -1.37944 3.69018
# Velocity P-wave (km/s) = 7.41520 5.32265 6.45429
#
# Compressibility (1/GPa) = 0.02806106
#
# Stress axis : x y z
#
# Youngs Moduli (GPa) = 52.96565 52.96565 207.19393
#
# Poissons Ratio (x) = 0.04145 0.67134
# Poissons Ratio (y) = 0.04145 0.67134
# Poissons Ratio (z) = 0.17162 0.17162
#
# Static dielectric constant tensor:
#      x y z
#    x 1.783080 0.000000 0.000000 
#    y 0.000000 1.783080 0.000000 
#    z 0.000000 0.000000 1.883320 
# 
# From -- ./inp_files/3202.got.cif
#   From: 2010.05.17/outbox.cif.g08.bks.cpg/sg175_2_cif.got.tgz:3202.got - 2010.05.20 11:23:22.
