data_PCOD9581417
_publ_section_title
;
Structure prediction by ZEFSAII (Michael W. Deem and Ramdas Pophale) SiO2 
 PCOD9581417
Probable space group: P 6/M
;
_chemical_formula_sum "Si O2"
_cell_formula_units_Z 66
_cell_length_a 21.790952
_cell_length_b 21.790952
_cell_length_c 7.733623
_cell_angle_alpha 90.000000
_cell_angle_beta 90.000000
_cell_angle_gamma 120.000000
_cell_volume 3180.284972
_symmetry_space_group_name_H-M "P 6/M"
_symmetry_group_IT_number 175
_symmetry_cell_setting 'hexagonal'
loop_
_space_group_symop_operation_xyz
x,y,z
x-y,x,z
-y,x-y,z
-x,-y,z
-x+y,-x,z
y,-x+y,z
-x,-y,-z
-x+y,-x,-z
y,-x+y,-z
x,y,-z
x-y,x,-z
-y,x-y,-z
loop_
_atom_site_type_symbol
_atom_site_label
_atom_site_fract_x
_atom_site_fract_y
_atom_site_fract_z
Si Si1 0.796850 0.313761 0.709307
Si Si2 0.950022 0.835690 0.500000
Si Si3 0.718254 0.639400 0.204132
Si Si4 0.816102 0.462013 0.710846
Si Si5 0.695206 0.077815 0.700172
Si Si6 0.728178 0.849220 0.197639
O O1 0.796228 0.313907 0.500000
O O2 0.856115 0.294922 0.764163
O O3 0.814084 0.391024 0.771368
O O4 0.718758 0.253270 0.765279
O O5 0.897200 0.866745 0.500000
O O6 0.931675 0.786679 0.330432
O O7 0.658699 0.651920 0.288550
O O8 0.797962 0.696403 0.260528
O O9 0.715505 0.649894 0.000000
O O10 0.815371 0.458912 0.500000
O O11 0.884151 0.536393 0.761849
O O12 0.714809 0.099081 0.500000
O O13 0.768824 0.105524 0.798726
O O14 0.753777 0.867824 0.000000
#
# Coordination Sequence:
#
# PCOD9581417 Si02
#       6
#    12   6  12  12  12  12
#     4  10  19  37  61  87 121 162 211 264 318 384
#     4  12  27  46  72 102 136 176 220 268 328 398
#     4  11  24  39  59  90 125 164 208 263 325 380
#     4   9  19  34  59  90 119 158 209 262 318 379
#     4  11  21  37  63  94 124 161 211 265 321 380
#     4  11  24  43  67  98 133 170 218 270 324 389
#
# _framework density 20.752858
#
# number of rings (size 3 to 8) (size 9 to 14) (size 15 to 20)
#    0.000    1.455    2.727    2.636    2.545    4.364 
#    0.000    6.364    0.000    1.091    0.000    0.000 
#    0.000    0.000    0.000    0.000    0.000    0.000 
#
# Total GULP energy -369091.640544 kJ/mol
# GULP energy per Si atom -5592.297584 kJ/mol
# Density = 2.070562 g / cm^3
# Si number density = 20.752858 Si / 1000 Ang^3
#
#
#
# Elastic Constant Matrix: (Units=GPa)
#
#
# Indices 1 2 3 4 5 6 
#
# 1 76.5707 2.4517 3.0588 0.0000 0.0000 0.0000
# 2 2.4517 76.5707 3.0588 0.0000 0.0000 0.0000
# 3 3.0588 3.0588 55.0091 0.0000 0.0000 0.0000
# 4 0.0000 0.0000 0.0000 -4.3669 0.0000 0.0000
# 5 0.0000 0.0000 0.0000 0.0000 -4.3669 0.0000
# 6 0.0000 0.0000 0.0000 0.0000 0.0000 37.0595
#
#
#
# Elastic Compliance Matrix: (Units=1/GPa)
#
#
# Indices 1 2 3 4 5 6 
#
# 1 0.013101 -0.000391 -0.000707 0.000000 0.000000 0.000000
# 2 -0.000391 0.013101 -0.000707 0.000000 0.000000 0.000000
# 3 -0.000707 -0.000707 0.018257 0.000000 0.000000 0.000000
# 4 0.000000 0.000000 0.000000 -0.228997 0.000000 0.000000
# 5 0.000000 0.000000 0.000000 0.000000 -0.228997 0.000000
# 6 0.000000 0.000000 0.000000 0.000000 0.000000 0.026984
#
#
# Mechanical properties :
#
#
# Convention : Reuss Voigt Hill
#
# Bulk Modulus (GPa) = 24.48025 25.03213 24.75619
# Shear Modulus (GPa) = -13.53817 18.97056 2.71619
#
# Velocity S-wave (km/s) = -2.55689 3.02672 1.14528
# Velocity P-wave (km/s) = 1.76204 4.92980 3.70187
#
# Compressibility (1/GPa) = 0.04084926
#
# Stress axis : x y z
#
# Youngs Moduli (GPa) = 76.33245 76.33245 54.77233
#
# Poissons Ratio (x) = 0.02986 0.03871
# Poissons Ratio (y) = 0.02986 0.03871
# Poissons Ratio (z) = 0.05395 0.05395
#
# Static dielectric constant tensor:
#      x y z
#    x 1.717910 0.000000 0.000000 
#    y 0.000000 1.717910 0.000000 
#    z 0.000000 0.000000 1.774510 
# 
# From -- ./inp_files/1034.got.cif
#   From: 2010.05.17/outbox.cif.g08.bks.cpg/sg175_1_cif.got.tgz:1034.got - 2010.05.20 11:23:22.
