data_PCOD9581918
_publ_section_title
;
Structure prediction by ZEFSAII (Michael W. Deem and Ramdas Pophale) SiO2 
 PCOD9581918
Probable space group: P 63/M
;
_chemical_formula_sum "Si O2"
_cell_formula_units_Z 96
_cell_length_a 16.939707
_cell_length_b 16.939707
_cell_length_c 19.380866
_cell_angle_alpha 90.000000
_cell_angle_beta 90.000000
_cell_angle_gamma 120.000000
_cell_volume 4816.322938
_symmetry_space_group_name_H-M "P 63/M"
_symmetry_group_IT_number 176
_symmetry_cell_setting 'hexagonal'
loop_
_space_group_symop_operation_xyz
x,y,z
x-y,x,1/2+z
-y,x-y,z
-x,-y,1/2+z
-x+y,-x,z
y,-x+y,1/2+z
-x,-y,-z
-x+y,-x,1/2-z
y,-x+y,-z
x,y,1/2-z
x-y,x,-z
-y,x-y,1/2-z
loop_
_atom_site_type_symbol
_atom_site_label
_atom_site_fract_x
_atom_site_fract_y
_atom_site_fract_z
Si Si1 0.833847 0.353317 0.527824
Si Si2 0.419254 0.926245 0.827981
Si Si3 0.796062 0.103572 0.444547
Si Si4 0.950736 0.576649 0.830853
Si Si5 0.806223 0.479323 0.051136
Si Si6 0.021089 0.726797 0.326075
Si Si7 0.672187 0.962281 0.547295
Si Si8 0.533189 0.785662 0.329996
O O1 0.744409 0.293303 0.478832
O O2 0.857245 0.455296 0.509212
O O3 0.911890 0.330902 0.501738
O O4 0.803552 0.320668 0.606214
O O5 0.420113 0.895797 0.750000
O O6 0.388426 0.841440 0.879707
O O7 0.519234 0.010087 0.844892
O O8 0.356147 0.972529 0.828623
O O9 0.741240 0.156895 0.430780
O O10 0.897921 0.182575 0.448305
O O11 0.775126 0.026978 0.387873
O O12 0.749618 0.054538 0.514711
O O13 0.965770 0.601237 0.750000
O O14 0.843206 0.536723 0.842002
O O15 0.013076 0.661361 0.879434
O O16 0.004404 0.752197 0.250000
O O17 0.128224 0.764161 0.334104
O O18 0.501554 0.785465 0.250000
#
# Coordination Sequence:
#
# PCOD9581918 Si02
#       8
#    12  12  12  12  12  12  12  12
#     4  11  21  37  54  80 116 151 194 234 278 329
#     4   9  18  35  56  82 114 150 191 234 284 340
#     4  10  22  36  57  84 110 143 183 233 281 342
#     4  10  20  35  57  84 113 147 190 239 283 329
#     4  10  21  36  55  81 113 154 191 234 276 329
#     4   9  18  34  56  80 108 145 187 228 277 336
#     4  11  21  36  56  84 111 142 181 235 286 339
#     4  10  21  37  55  80 114 150 191 234 277 325
#
# _framework density 19.932217999999999
#
# number of rings (size 3 to 8) (size 9 to 14) (size 15 to 20)
#    0.000    2.000    2.500    1.750    0.000    3.000 
#    0.000    4.375    0.000    0.750    0.000    3.500 
#    0.000    0.000    0.000    0.000    0.000    0.000 
#
# Total GULP energy -535047.865841 kJ/mol
# GULP energy per Si atom -5573.415269 kJ/mol
# Density = 1.988685 g / cm^3
# Si number density = 19.932218 Si / 1000 Ang^3
#
#
#
# Elastic Constant Matrix: (Units=GPa)
#
#
# Indices 1 2 3 4 5 6 
#
# 1 64.1744 1.1462 54.2369 0.0000 0.0000 0.0000
# 2 1.1462 64.1744 54.2369 0.0000 0.0000 0.0000
# 3 54.2369 54.2369 149.7921 0.0000 0.0000 0.0000
# 4 0.0000 0.0000 0.0000 9.7649 0.0000 0.0000
# 5 0.0000 0.0000 0.0000 0.0000 9.7649 0.0000
# 6 0.0000 0.0000 0.0000 0.0000 0.0000 31.5141
#
#
#
# Elastic Compliance Matrix: (Units=1/GPa)
#
#
# Indices 1 2 3 4 5 6 
#
# 1 0.027131 0.011265 -0.013903 0.000000 0.000000 0.000000
# 2 0.011265 0.027131 -0.013903 0.000000 0.000000 0.000000
# 3 -0.013903 -0.013903 0.016744 0.000000 0.000000 0.000000
# 4 0.000000 0.000000 0.000000 0.102407 0.000000 0.000000
# 5 0.000000 0.000000 0.000000 0.000000 0.102407 0.000000
# 6 0.000000 0.000000 0.000000 0.000000 0.000000 0.031732
#
#
# Mechanical properties :
#
#
# Convention : Reuss Voigt Hill
#
# Bulk Modulus (GPa) = 26.36727 55.26455 40.81591
# Shear Modulus (GPa) = 14.15334 21.44352 17.79843
#
# Velocity S-wave (km/s) = 2.66761 3.28353 2.99146
# Velocity P-wave (km/s) = 4.76921 6.49322 5.69681
#
# Compressibility (1/GPa) = 0.03792581
#
# Stress axis : x y z
#
# Youngs Moduli (GPa) = 36.85815 36.85815 59.72429
#
# Poissons Ratio (x) = -0.41521 0.83032
# Poissons Ratio (y) = -0.41521 0.83032
# Poissons Ratio (z) = 0.51242 0.51242
#
# Static dielectric constant tensor:
#      x y z
#    x 1.774160 0.000000 0.000000 
#    y 0.000000 1.774160 0.000000 
#    z 0.000000 0.000000 1.763410 
# 
# From -- ./inp_files/3900.got.cif
#   From: 2010.05.17/outbox.cif.g08.bks.cpg/sg176_2_cif.got.tgz:3900.got - 2010.06.03 11:36:45.
