data_PCOD9581626
_publ_section_title
;
Structure prediction by ZEFSAII (Michael W. Deem and Ramdas Pophale) SiO2 
 PCOD9581626
Probable space group: P 6/M
;
_chemical_formula_sum "Si O2"
_cell_formula_units_Z 84
_cell_length_a 17.387306
_cell_length_b 17.387306
_cell_length_c 14.670098
_cell_angle_alpha 90.000000
_cell_angle_beta 90.000000
_cell_angle_gamma 120.000000
_cell_volume 3840.857914
_symmetry_space_group_name_H-M "P 6/M"
_symmetry_group_IT_number 175
_symmetry_cell_setting 'hexagonal'
loop_
_space_group_symop_operation_xyz
x,y,z
x-y,x,z
-y,x-y,z
-x,-y,z
-x+y,-x,z
y,-x+y,z
-x,-y,-z
-x+y,-x,-z
y,-x+y,-z
x,y,-z
x-y,x,-z
-y,x-y,-z
loop_
_atom_site_type_symbol
_atom_site_label
_atom_site_fract_x
_atom_site_fract_y
_atom_site_fract_z
Si Si1 0.669674 0.151101 0.902589
Si Si2 0.818917 0.816630 0.108635
Si Si3 0.755537 0.318362 0.358283
Si Si4 0.657117 0.656531 0.213668
Si Si5 0.333079 0.513447 0.846442
Si Si6 0.892960 0.797602 0.610395
Si Si7 0.630804 0.908636 0.602315
O O1 0.661867 0.089359 0.818769
O O2 0.762873 0.241114 0.898054
O O3 0.592717 0.175705 0.894989
O O4 0.661339 0.105202 0.000000
O O5 0.913212 0.823153 0.126744
O O6 0.742546 0.739717 0.168932
O O7 0.799873 0.797391 0.000000
O O8 0.755294 0.409273 0.382237
O O9 0.770108 0.319997 0.250034
O O10 0.831988 0.303339 0.397719
O O11 0.649548 0.566948 0.173316
O O12 0.667591 0.649377 0.321635
O O13 0.843582 0.850092 0.643681
O O14 0.900141 0.804932 0.500000
O O15 0.825626 0.694431 0.630276
O O16 0.657030 0.945632 0.500000
#
# Coordination Sequence:
#
# PCOD9581626 Si02
#       7
#    12  12  12  12  12  12  12
#     4  12  24  40  67  99 134 175 219 262 323 401
#     4  10  21  40  66  98 134 176 224 273 330 401
#     4   9  18  39  68  95 129 173 223 273 340 412
#     4  11  25  40  63  93 137 175 215 274 338 397
#     4  11  22  42  64  95 134 173 215 265 327 390
#     4   9  18  35  60  89 123 163 212 269 336 407
#     4  10  23  41  64  97 131 172 228 289 347 402
#
# _framework density 21.870113
#
# number of rings (size 3 to 8) (size 9 to 14) (size 15 to 20)
#    0.286    1.429    1.429    2.714    0.000    9.143 
#    0.000    0.000    0.000    8.571    0.000    0.000 
#    0.000    0.000    0.000    0.000    0.000    0.000 
#
# Total GULP energy -469542.053703 kJ/mol
# GULP energy per Si atom -5589.786354 kJ/mol
# Density = 2.182034 g / cm^3
# Si number density = 21.870113 Si / 1000 Ang^3
#
#
#
# Elastic Constant Matrix: (Units=GPa)
#
#
# Indices 1 2 3 4 5 6 
#
# 1 113.4408 42.5470 27.1525 0.0000 0.0000 0.0000
# 2 42.5470 113.4408 27.1525 0.0000 0.0000 0.0000
# 3 27.1525 27.1525 93.1072 0.0000 0.0000 0.0000
# 4 0.0000 0.0000 0.0000 31.2002 0.0000 0.0000
# 5 0.0000 0.0000 0.0000 0.0000 31.2002 0.0000
# 6 0.0000 0.0000 0.0000 0.0000 0.0000 35.4469
#
#
#
# Elastic Compliance Matrix: (Units=1/GPa)
#
#
# Indices 1 2 3 4 5 6 
#
# 1 0.010620 -0.003485 -0.002081 0.000000 0.000000 0.000000
# 2 -0.003485 0.010620 -0.002081 0.000000 0.000000 0.000000
# 3 -0.002081 -0.002081 0.011954 0.000000 0.000000 0.000000
# 4 0.000000 0.000000 0.000000 0.032051 0.000000 0.000000
# 5 0.000000 0.000000 0.000000 0.000000 0.032051 0.000000
# 6 0.000000 0.000000 0.000000 0.000000 0.000000 0.028211
#
#
# Mechanical properties :
#
#
# Convention : Reuss Voigt Hill
#
# Bulk Modulus (GPa) = 55.86260 57.07697 56.46979
# Shear Modulus (GPa) = 34.06720 34.44524 34.25622
#
# Velocity S-wave (km/s) = 3.95106 3.97292 3.96201
# Velocity P-wave (km/s) = 6.81270 6.87025 6.84153
#
# Compressibility (1/GPa) = 0.01790106
#
# Stress axis : x y z
#
# Youngs Moduli (GPa) = 94.15858 94.15858 83.65437
#
# Poissons Ratio (x) = 0.32816 0.17407
# Poissons Ratio (y) = 0.32816 0.17407
# Poissons Ratio (z) = 0.19593 0.19593
#
# Static dielectric constant tensor:
#      x y z
#    x 1.770540 0.000000 0.000000 
#    y 0.000000 1.770540 0.000000 
#    z 0.000000 0.000000 1.829500 
# 
# From -- ./inp_files/2606.got.cif
#   From: 2010.05.17/outbox.cif.g08.bks.cpg/sg175_2_cif.got.tgz:2606.got - 2010.05.20 11:23:22.
