data_PCOD9581967
_publ_section_title
;
Structure prediction by ZEFSAII (Michael W. Deem and Ramdas Pophale) SiO2 
 PCOD9581967
Probable space group: P 63/M
;
_chemical_formula_sum "Si O2"
_cell_formula_units_Z 84
_cell_length_a 17.417151
_cell_length_b 17.417151
_cell_length_c 17.521867
_cell_angle_alpha 90.000000
_cell_angle_beta 90.000000
_cell_angle_gamma 120.000000
_cell_volume 4603.257244
_symmetry_space_group_name_H-M "P 63/M"
_symmetry_group_IT_number 176
_symmetry_cell_setting 'hexagonal'
loop_
_space_group_symop_operation_xyz
x,y,z
x-y,x,1/2+z
-y,x-y,z
-x,-y,1/2+z
-x+y,-x,z
y,-x+y,1/2+z
-x,-y,-z
-x+y,-x,1/2-z
y,-x+y,-z
x,y,1/2-z
x-y,x,-z
-y,x-y,1/2-z
loop_
_atom_site_type_symbol
_atom_site_label
_atom_site_fract_x
_atom_site_fract_y
_atom_site_fract_z
Si Si1 0.427282 0.937490 0.659623
Si Si2 0.151302 0.951565 0.488076
Si Si3 0.244821 0.950946 0.165206
Si Si4 0.435124 0.122274 0.339339
Si Si5 0.467337 0.261788 0.894819
Si Si6 0.250695 0.858621 0.561898
Si Si7 0.544284 0.147230 0.660316
O O1 0.405033 0.921794 0.750000
O O2 0.479180 0.885149 0.638293
O O3 0.340875 0.910645 0.609741
O O4 0.496349 0.041688 0.650238
O O5 0.190428 0.961191 0.403097
O O6 0.203178 0.915859 0.541722
O O7 0.047776 0.878548 0.487717
O O8 0.217089 0.961506 0.250000
O O9 0.237164 0.855896 0.155887
O O10 0.348096 0.024951 0.155865
O O11 0.445139 0.149160 0.250000
O O12 0.415545 0.185919 0.390814
O O13 0.546619 0.354599 0.865690
O O14 0.494278 0.187308 0.886852
O O15 0.440865 0.270260 0.980591
O O16 0.540549 0.165442 0.750000
#
# Coordination Sequence:
#
# PCOD9581967 Si02
#       7
#    12  12  12  12  12  12  12
#     4  10  23  41  65  93 121 163 210 260 308 362
#     4  11  24  44  66  95 127 167 207 268 330 381
#     4  10  20  40  65  91 119 162 211 250 313 384
#     4  10  20  42  68  87 122 167 209 256 313 374
#     4  11  24  36  59  88 125 165 199 252 307 362
#     4  11  25  40  63  93 127 159 214 257 314 373
#     4  11  22  39  60  87 122 162 206 247 301 362
#
# _framework density 18.247948000000001
#
# number of rings (size 3 to 8) (size 9 to 14) (size 15 to 20)
#    0.000    1.429    2.857    2.143    6.000    0.571 
#    0.857    1.429    0.000    0.000    0.000    0.000 
#    0.000    0.000    0.000    0.000    0.000    0.000 
#
# Total GULP energy -469252.143888 kJ/mol
# GULP energy per Si atom -5586.335046 kJ/mol
# Density = 1.820642 g / cm^3
# Si number density = 18.247948 Si / 1000 Ang^3
#
#
#
# Elastic Constant Matrix: (Units=GPa)
#
#
# Indices 1 2 3 4 5 6 
#
# 1 78.3583 28.9573 40.3924 0.0000 0.0000 0.0000
# 2 28.9573 78.3583 40.3924 0.0000 0.0000 0.0000
# 3 40.3924 40.3924 79.0711 0.0000 0.0000 0.0000
# 4 0.0000 0.0000 0.0000 14.9875 0.0000 0.0000
# 5 0.0000 0.0000 0.0000 0.0000 14.9875 0.0000
# 6 0.0000 0.0000 0.0000 0.0000 0.0000 24.7005
#
#
#
# Elastic Compliance Matrix: (Units=1/GPa)
#
#
# Indices 1 2 3 4 5 6 
#
# 1 0.017692 -0.002551 -0.007734 0.000000 0.000000 0.000000
# 2 -0.002551 0.017692 -0.007734 0.000000 0.000000 0.000000
# 3 -0.007734 -0.007734 0.020549 0.000000 0.000000 0.000000
# 4 0.000000 0.000000 0.000000 0.066722 0.000000 0.000000
# 5 0.000000 0.000000 0.000000 0.000000 0.066722 0.000000
# 6 0.000000 0.000000 0.000000 0.000000 0.000000 0.040485
#
#
# Mechanical properties :
#
#
# Convention : Reuss Voigt Hill
#
# Bulk Modulus (GPa) = 50.27011 50.58576 50.42794
# Shear Modulus (GPa) = 18.34649 19.33814 18.84232
#
# Velocity S-wave (km/s) = 3.17424 3.25890 3.21685
# Velocity P-wave (km/s) = 6.40645 6.47627 6.44146
#
# Compressibility (1/GPa) = 0.01989254
#
# Stress axis : x y z
#
# Youngs Moduli (GPa) = 56.52427 56.52427 48.66460
#
# Poissons Ratio (x) = 0.14419 0.37639
# Poissons Ratio (y) = 0.14419 0.37639
# Poissons Ratio (z) = 0.43718 0.43718
#
# Static dielectric constant tensor:
#      x y z
#    x 1.612620 0.000000 0.000000 
#    y 0.000000 1.612620 0.000000 
#    z 0.000000 0.000000 1.622250 
# 
# From -- ./inp_files/2921.got.cif
#   From: 2010.05.17/outbox.cif.g08.bks.cpg/sg176_2_cif.got.tgz:2921.got - 2010.06.03 11:36:45.
