data_PCOD9581253
_publ_section_title
;
Structure prediction by ZEFSAII (Michael W. Deem and Ramdas Pophale) SiO2 
 PCOD9581253
Probable space group: P 6/M
;
_chemical_formula_sum "Si O2"
_cell_formula_units_Z 72
_cell_length_a 23.919840
_cell_length_b 23.919840
_cell_length_c 8.624237
_cell_angle_alpha 90.000000
_cell_angle_beta 90.000000
_cell_angle_gamma 120.000000
_cell_volume 4273.344006
_symmetry_space_group_name_H-M "P 6/M"
_symmetry_group_IT_number 175
_symmetry_cell_setting 'hexagonal'
loop_
_space_group_symop_operation_xyz
x,y,z
x-y,x,z
-y,x-y,z
-x,-y,z
-x+y,-x,z
y,-x+y,z
-x,-y,-z
-x+y,-x,-z
y,-x+y,-z
x,y,-z
x-y,x,-z
-y,x-y,-z
loop_
_atom_site_type_symbol
_atom_site_label
_atom_site_fract_x
_atom_site_fract_y
_atom_site_fract_z
Si Si1 0.596161 0.872827 0.822686
Si Si2 0.329599 0.789464 0.314882
Si Si3 0.543998 0.205510 0.187836
Si Si4 0.810583 0.075056 0.684380
Si Si5 0.140262 0.402631 0.177850
Si Si6 0.263000 0.063901 0.187250
O O1 0.526068 0.852183 0.755417
O O2 0.595778 0.804782 0.826282
O O3 0.666056 0.921532 0.753754
O O4 0.596551 0.893790 0.000000
O O5 0.329719 0.786309 0.500000
O O6 0.396877 0.801588 0.246686
O O7 0.272542 0.721125 0.249481
O O8 0.312551 0.843642 0.259789
O O9 0.542946 0.206961 0.000000
O O10 0.814450 0.074682 0.500000
O O11 0.756152 0.092761 0.735973
O O12 0.878058 0.131493 0.752310
O O13 0.790347 0.005558 0.754013
O O14 0.119689 0.400674 0.000000
O O15 0.265074 0.066210 0.000000
#
# Coordination Sequence:
#
# PCOD9581253 Si02
#       6
#    12  12  12  12  12  12
#     4   7  14  28  48  69  90 120 166 210 244 287
#     4  11  20  29  42  66  96 127 166 218 270 314
#     4  10  18  30  45  63  90 129 171 213 261 318
#     4  11  21  34  54  84 113 136 164 207 251 287
#     4   9  17  32  50  69  94 131 171 207 250 306
#     4  10  19  35  57  81 107 139 172 203 240 294
#
# _framework density 16.848631999999998
#
# number of rings (size 3 to 8) (size 9 to 14) (size 15 to 20)
#    0.000    2.333    0.000    6.833    0.000    0.000 
#    0.000    2.500    0.000    1.333    0.000    9.333 
#    0.000    0.000    0.000    0.000    0.000    0.000 
#
# Total GULP energy -401242.461345 kJ/mol
# GULP energy per Si atom -5572.811963 kJ/mol
# Density = 1.681028 g / cm^3
# Si number density = 16.848632 Si / 1000 Ang^3
#
#
#
# Elastic Constant Matrix: (Units=GPa)
#
#
# Indices 1 2 3 4 5 6 
#
# 1 101.2035 59.8172 40.7705 0.0000 0.0000 0.0000
# 2 59.8172 101.2035 40.7705 0.0000 0.0000 0.0000
# 3 40.7705 40.7705 112.3239 0.0000 0.0000 0.0000
# 4 0.0000 0.0000 0.0000 17.8666 0.0000 0.0000
# 5 0.0000 0.0000 0.0000 0.0000 17.8666 0.0000
# 6 0.0000 0.0000 0.0000 0.0000 0.0000 20.6932
#
#
#
# Elastic Compliance Matrix: (Units=1/GPa)
#
#
# Indices 1 2 3 4 5 6 
#
# 1 0.015886 -0.008277 -0.002762 0.000000 0.000000 0.000000
# 2 -0.008277 0.015886 -0.002762 0.000000 0.000000 0.000000
# 3 -0.002762 -0.002762 0.010908 0.000000 0.000000 0.000000
# 4 0.000000 0.000000 0.000000 0.055970 0.000000 0.000000
# 5 0.000000 0.000000 0.000000 0.000000 0.055970 0.000000
# 6 0.000000 0.000000 0.000000 0.000000 0.000000 0.048325
#
#
# Mechanical properties :
#
#
# Convention : Reuss Voigt Hill
#
# Bulk Modulus (GPa) = 66.32030 66.38302 66.35166
# Shear Modulus (GPa) = 21.22494 22.84348 22.03421
#
# Velocity S-wave (km/s) = 3.55314 3.68612 3.62024
# Velocity P-wave (km/s) = 7.50206 7.58959 7.54595
#
# Compressibility (1/GPa) = 0.01507834
#
# Stress axis : x y z
#
# Youngs Moduli (GPa) = 62.94943 62.94943 91.67768
#
# Poissons Ratio (x) = 0.52102 0.25320
# Poissons Ratio (y) = 0.52102 0.25320
# Poissons Ratio (z) = 0.17386 0.17386
#
# Static dielectric constant tensor:
#      x y z
#    x 1.572010 0.000000 0.000000 
#    y 0.000000 1.572010 0.000000 
#    z 0.000000 0.000000 1.565320 
# 
# From -- ./inp_files/1220.got.cif
#   From: 2010.05.17/outbox.cif.g08.bks.cpg/sg175_1_cif.got.tgz:1220.got - 2010.05.20 11:23:22.
