data_PCOD9581139
_publ_section_title
;
Structure prediction by ZEFSAII (Michael W. Deem and Ramdas Pophale) SiO2 
 PCOD9581139
Probable space group: P -6
;
_chemical_formula_sum "Si O2"
_cell_formula_units_Z 36
_cell_length_a 18.855111
_cell_length_b 18.855111
_cell_length_c 8.816456
_cell_angle_alpha 90.000000
_cell_angle_beta 90.000000
_cell_angle_gamma 120.000000
_cell_volume 2714.456354
_symmetry_space_group_name_H-M "P -6"
_symmetry_group_IT_number 174
_symmetry_cell_setting 'hexagonal'
loop_
_space_group_symop_operation_xyz
x,y,z
-x+y,-x,-z
-y,x-y,z
x,y,-z
-x+y,-x,z
-y,x-y,-z
loop_
_atom_site_type_symbol
_atom_site_label
_atom_site_fract_x
_atom_site_fract_y
_atom_site_fract_z
Si Si1 0.333982 0.831832 0.316288
Si Si2 0.418633 0.003781 0.824793
Si Si3 0.664777 0.489351 0.681345
Si Si4 0.587596 0.997412 0.174293
Si Si5 0.330726 0.502957 0.318121
Si Si6 0.507808 0.329412 0.816266
O O1 0.334740 0.836825 0.500000
O O2 0.409648 0.818120 0.271146
O O3 0.248732 0.754488 0.265702
O O4 0.352330 0.918143 0.247888
O O5 0.440178 0.085222 0.732633
O O6 0.503117 0.000493 0.821882
O O7 0.400405 0.010949 0.000000
O O8 0.665413 0.483811 0.500000
O O9 0.591420 0.404223 0.748955
O O10 0.748888 0.503417 0.752473
O O11 0.654123 0.088049 0.228378
O O12 0.567942 0.916424 0.264371
O O13 0.604955 0.987929 0.000000
O O14 0.329753 0.503493 0.500000
O O15 0.513393 0.332475 0.000000
#
# Coordination Sequence:
#
# PCOD9581139 Si02
#       6
#     6   6   6   6   6   6
#     4   9  16  26  39  57  78 103 133 165 198 233
#     4   9  17  29  41  54  74 102 130 160 198 235
#     4  11  20  29  42  60  78  99 130 166 198 233
#     4   8  16  28  40  53  72  98 128 158 192 230
#     4   9  16  25  39  56  77 102 130 163 197 229
#     4  10  19  31  43  56  77 104 131 162 197 234
#
# _framework density 13.262324
#
# number of rings (size 3 to 8) (size 9 to 14) (size 15 to 20)
#    0.000    2.667    0.000    4.167    0.000    6.667 
#    0.000    0.000    0.000    2.000    0.000    0.000 
#    0.000    0.000    0.000    1.000    0.000   16.000 
#
# Total GULP energy -200500.827694 kJ/mol
# GULP energy per Si atom -5569.467436 kJ/mol
# Density = 1.323214 g / cm^3
# Si number density = 13.262324 Si / 1000 Ang^3
#
#
#
# Elastic Constant Matrix: (Units=GPa)
#
#
# Indices 1 2 3 4 5 6 
#
# 1 92.5252 51.8155 33.8160 0.0000 0.0000 0.0000
# 2 51.8155 92.5252 33.8160 0.0000 0.0000 0.0000
# 3 33.8160 33.8160 54.8475 0.0000 0.0000 0.0000
# 4 0.0000 0.0000 0.0000 18.5922 0.0000 0.0000
# 5 0.0000 0.0000 0.0000 0.0000 18.5922 0.0000
# 6 0.0000 0.0000 0.0000 0.0000 0.0000 20.3549
#
#
#
# Elastic Compliance Matrix: (Units=1/GPa)
#
#
# Indices 1 2 3 4 5 6 
#
# 1 0.017153 -0.007411 -0.006007 0.000000 0.000000 0.000000
# 2 -0.007411 0.017153 -0.006007 0.000000 0.000000 0.000000
# 3 -0.006007 -0.006007 0.025639 0.000000 0.000000 0.000000
# 4 0.000000 0.000000 0.000000 0.053786 0.000000 0.000000
# 5 0.000000 0.000000 0.000000 0.000000 0.053786 0.000000
# 6 0.000000 0.000000 0.000000 0.000000 0.000000 0.049128
#
#
# Mechanical properties :
#
#
# Convention : Reuss Voigt Hill
#
# Bulk Modulus (GPa) = 47.39919 53.19921 50.29920
# Shear Modulus (GPa) = 19.04565 19.53789 19.29177
#
# Velocity S-wave (km/s) = 3.79367 3.84238 3.81810
# Velocity P-wave (km/s) = 7.41664 7.73856 7.57931
#
# Compressibility (1/GPa) = 0.02109741
#
# Stress axis : x y z
#
# Youngs Moduli (GPa) = 58.29762 58.29762 39.00270
#
# Poissons Ratio (x) = 0.43203 0.23428
# Poissons Ratio (y) = 0.43203 0.23428
# Poissons Ratio (z) = 0.35018 0.35018
#
# Static dielectric constant tensor:
#      x y z
#    x 1.427470 0.000000 0.000000 
#    y 0.000000 1.427470 0.000000 
#    z 0.000000 0.000000 1.448830 
# 
# From -- ./inp_files/406.got.cif
#   From: 2010.05.17/outbox.cif.g08.bks.cpg/sg174_cif.got.tgz:406.got - 2010.05.20 11:22:48.
