data_PCOD9581156
_publ_section_title
;
Structure prediction by ZEFSAII (Michael W. Deem and Ramdas Pophale) SiO2 
 PCOD9581156
Probable space group: P -6
;
_chemical_formula_sum "Si O2"
_cell_formula_units_Z 29
_cell_length_a 8.141113
_cell_length_b 8.141113
_cell_length_c 25.391373
_cell_angle_alpha 90.000000
_cell_angle_beta 90.000000
_cell_angle_gamma 120.000000
_cell_volume 1457.418851
_symmetry_space_group_name_H-M "P -6"
_symmetry_group_IT_number 174
_symmetry_cell_setting 'hexagonal'
loop_
_space_group_symop_operation_xyz
x,y,z
-x+y,-x,-z
-y,x-y,z
x,y,-z
-x+y,-x,z
-y,x-y,-z
loop_
_atom_site_type_symbol
_atom_site_label
_atom_site_fract_x
_atom_site_fract_y
_atom_site_fract_z
Si Si1 0.983681 0.666108 0.884043
Si Si2 0.088808 0.518313 0.388281
Si Si3 0.952822 0.766284 0.000000
Si Si4 0.589641 0.502045 0.274464
Si Si5 0.341441 0.986835 0.837328
Si Si6 0.666668 0.333334 0.562725
O O1 0.937996 0.667715 0.945029
O O2 0.070300 0.533158 0.874048
O O3 0.794671 0.590612 0.849936
O O4 0.129303 0.867114 0.858413
O O5 0.253383 0.463829 0.399634
O O6 0.036198 0.469476 0.326882
O O7 0.884012 0.415717 0.416741
O O8 0.155971 0.961410 0.000000
O O9 0.467214 0.271118 0.274590
O O10 0.578747 0.608590 0.222695
O O11 0.666667 0.333334 0.500000
#
# Coordination Sequence:
#
# PCOD9581156 Si02
#       6
#     6   6   3   6   6   2
#     4  12  24  41  64  85 127 158 217 272 335 415
#     4  10  24  43  73 109 148 194 249 297 364 434
#     4  10  20  42  64  82 112 160 204 270 346 408
#     4  10  19  40  69  92 143 181 222 285 353 416
#     4  12  24  41  60 101 122 171 213 275 336 415
#     4  12  24  51  78 102 159 207 249 325 356 406
#
# _framework density 19.898194
#
# number of rings (size 3 to 8) (size 9 to 14) (size 15 to 20)
#    1.034    0.000    6.207    1.241    2.897    2.483 
#    1.241    0.000    0.000    0.000    0.000    0.000 
#    0.000    0.000    0.000    0.000    0.000    0.000 
#
# Total GULP energy -161507.031585 kJ/mol
# GULP energy per Si atom -5569.207986 kJ/mol
# Density = 1.985290 g / cm^3
# Si number density = 19.898194 Si / 1000 Ang^3
#
#
#
# Elastic Constant Matrix: (Units=GPa)
#
#
# Indices 1 2 3 4 5 6 
#
# 1 84.8261 19.2564 33.5689 0.0000 0.0000 -0.0001
# 2 19.2564 84.8261 33.5686 0.0000 0.0000 -0.0003
# 3 33.5689 33.5686 146.9068 0.0000 0.0000 0.0001
# 4 0.0000 0.0000 0.0000 5278.2077 -7.9666 0.0000
# 5 0.0000 0.0000 0.0000 -7.9666 5306.3435 0.0000
# 6 -0.0001 -0.0003 0.0001 0.0000 0.0000 32.7847
#
#
#
# Elastic Compliance Matrix: (Units=1/GPa)
#
#
# Indices 1 2 3 4 5 6 
#
# 1 0.013260 -0.001991 -0.002575 0.000000 0.000000 0.000000
# 2 -0.001991 0.013260 -0.002575 0.000000 0.000000 0.000000
# 3 -0.002575 -0.002575 0.007984 0.000000 0.000000 0.000000
# 4 0.000000 0.000000 0.000000 0.000189 0.000000 0.000000
# 5 0.000000 0.000000 0.000000 0.000000 0.000188 0.000000
# 6 0.000000 0.000000 0.000000 0.000000 0.000000 0.030502
#
#
# Mechanical properties :
#
#
# Convention : Reuss Voigt Hill
#
# Bulk Modulus (GPa) = 49.45243 54.37186 51.91215
# Shear Modulus (GPa) = 57.86643 2138.81153 1098.33898
#
# Velocity S-wave (km/s) = 5.39855 32.82089 23.51973
# Velocity P-wave (km/s) = 7.98535 38.25788 27.63540
#
# Compressibility (1/GPa) = 0.02022145
#
# Stress axis : x y z
#
# Youngs Moduli (GPa) = 75.41575 75.41579 125.25356
#
# Poissons Ratio (x) = 0.15016 0.32252
# Poissons Ratio (y) = 0.15016 0.32252
# Poissons Ratio (z) = 0.19419 0.19419
#
# Static dielectric constant tensor:
#      x y z
#    x 1.352650 0.000010 0.000000 
#    y 0.000010 1.352660 0.000000 
#    z 0.000000 0.000000 1.676560 
# 
# From -- ./inp_files/1073.got.cif
#   From: 2010.05.17/outbox.cif.g08.bks.cpg/sg174_cif.got.tgz:1073.got - 2010.05.20 11:22:48.
