data_PCOD9581453
_publ_section_title
;
Structure prediction by ZEFSAII (Michael W. Deem and Ramdas Pophale) SiO2 
 PCOD9581453
Probable space group: P 6/M
;
_chemical_formula_sum "Si O2"
_cell_formula_units_Z 58
_cell_length_a 15.823694
_cell_length_b 15.823694
_cell_length_c 14.009696
_cell_angle_alpha 90.000000
_cell_angle_beta 90.000000
_cell_angle_gamma 120.000000
_cell_volume 3037.911340
_symmetry_space_group_name_H-M "P 6/M"
_symmetry_group_IT_number 175
_symmetry_cell_setting 'hexagonal'
loop_
_space_group_symop_operation_xyz
x,y,z
x-y,x,z
-y,x-y,z
-x,-y,z
-x+y,-x,z
y,-x+y,z
-x,-y,-z
-x+y,-x,-z
y,-x+y,-z
x,y,-z
x-y,x,-z
-y,x-y,-z
loop_
_atom_site_type_symbol
_atom_site_label
_atom_site_fract_x
_atom_site_fract_y
_atom_site_fract_z
Si Si1 0.195804 0.997645 0.887565
Si Si2 0.775447 0.932683 0.385888
Si Si3 0.457371 0.293091 0.887248
Si Si4 0.000000 0.500000 0.183966
Si Si5 0.094412 0.719077 0.231530
Si Si6 0.333334 0.666668 0.114555
O O1 0.188610 0.092984 0.866605
O O2 0.286034 0.007687 0.828423
O O3 0.215434 0.997042 0.000000
O O4 0.813754 0.857717 0.361439
O O5 0.761462 0.928267 0.500000
O O6 0.676118 0.905341 0.330405
O O7 0.472793 0.401885 0.874381
O O8 0.397931 0.192116 0.827026
O O9 0.564168 0.316302 0.855736
O O10 0.437437 0.267031 0.000000
O O11 0.067396 0.605692 0.237269
O O12 0.333334 0.666668 0.000000
#
# Coordination Sequence:
#
# PCOD9581453 Si02
#       6
#    12  12  12   6  12   4
#     4  10  20  34  52  78 115 156 192 232 289 365
#     4  10  21  40  67  97 127 158 194 242 303 375
#     4  11  22  38  58  84 119 162 213 265 313 365
#     4  12  25  38  59  86 116 164 211 260 321 378
#     4  12  24  38  57  86 121 155 202 258 311 369
#     4   9  18  36  54  75 109 152 202 258 303 345
#
# _framework density 19.092064000000001
#
# number of rings (size 3 to 8) (size 9 to 14) (size 15 to 20)
#    0.000    1.241    2.069    5.069    0.000    5.793 
#    0.000    2.586    0.000    1.241    0.000    0.000 
#    0.000    0.000    0.000    0.000    0.000    0.000 
#
# Total GULP energy -323115.746747 kJ/mol
# GULP energy per Si atom -5570.961151 kJ/mol
# Density = 1.904861 g / cm^3
# Si number density = 19.092064 Si / 1000 Ang^3
#
#
#
# Elastic Constant Matrix: (Units=GPa)
#
#
# Indices 1 2 3 4 5 6 
#
# 1 126.3895 43.2561 34.3416 0.0000 0.0000 -0.0001
# 2 43.2561 126.3922 34.3427 0.0000 0.0000 -0.0009
# 3 34.3416 34.3427 78.9645 0.0000 0.0000 0.0001
# 4 0.0000 0.0000 0.0000 49.2236 0.0003 0.0000
# 5 0.0000 0.0000 0.0000 0.0003 49.2214 0.0000
# 6 -0.0001 -0.0009 0.0001 0.0000 0.0000 41.5679
#
#
#
# Elastic Compliance Matrix: (Units=1/GPa)
#
#
# Indices 1 2 3 4 5 6 
#
# 1 0.009592 -0.002437 -0.003111 0.000000 0.000000 0.000000
# 2 -0.002437 0.009591 -0.003112 0.000000 0.000000 0.000000
# 3 -0.003111 -0.003112 0.015370 0.000000 0.000000 0.000000
# 4 0.000000 0.000000 0.000000 0.020315 0.000000 0.000000
# 5 0.000000 0.000000 0.000000 0.000000 0.020316 0.000000
# 6 0.000000 0.000000 0.000000 0.000000 0.000000 0.024057
#
#
# Mechanical properties :
#
#
# Convention : Reuss Voigt Hill
#
# Bulk Modulus (GPa) = 58.02781 61.73632 59.88206
# Shear Modulus (GPa) = 40.88083 42.65629 41.76856
#
# Velocity S-wave (km/s) = 4.63238 4.73190 4.68241
# Velocity P-wave (km/s) = 7.68581 7.89056 7.78885
#
# Compressibility (1/GPa) = 0.01723312
#
# Stress axis : x y z
#
# Youngs Moduli (GPa) = 104.25826 104.25997 65.06051
#
# Poissons Ratio (x) = 0.25410 0.20243
# Poissons Ratio (y) = 0.25409 0.20244
# Poissons Ratio (z) = 0.32439 0.32441
#
# Static dielectric constant tensor:
#      x y z
#    x 1.697430 0.000000 0.000000 
#    y 0.000000 1.697430 0.000000 
#    z 0.000000 0.000000 1.670320 
# 
# From -- ./inp_files/2420.got.cif
#   From: 2010.05.17/outbox.cif.g08.bks.cpg/sg175_2_cif.got.tgz:2420.got - 2010.05.20 11:23:22.
