data_PCOD9581256
_publ_section_title
;
Structure prediction by ZEFSAII (Michael W. Deem and Ramdas Pophale) SiO2 
 PCOD9581256
Probable space group: P 6/M
;
_chemical_formula_sum "Si O2"
_cell_formula_units_Z 90
_cell_length_a 26.192454
_cell_length_b 26.192454
_cell_length_c 9.703652
_cell_angle_alpha 90.000000
_cell_angle_beta 90.000000
_cell_angle_gamma 120.000000
_cell_volume 5765.251063
_symmetry_space_group_name_H-M "P 6/M"
_symmetry_group_IT_number 175
_symmetry_cell_setting 'hexagonal'
loop_
_space_group_symop_operation_xyz
x,y,z
x-y,x,z
-y,x-y,z
-x,-y,z
-x+y,-x,z
y,-x+y,z
-x,-y,-z
-x+y,-x,-z
y,-x+y,-z
x,y,-z
x-y,x,-z
-y,x-y,-z
loop_
_atom_site_type_symbol
_atom_site_label
_atom_site_fract_x
_atom_site_fract_y
_atom_site_fract_z
Si Si1 0.053707 0.640574 0.834646
Si Si2 0.641648 0.882567 0.338123
Si Si3 0.776195 0.937153 0.250239
Si Si4 0.902467 0.864425 0.500000
Si Si5 0.872543 0.636029 0.338036
Si Si6 0.561282 0.627938 0.335300
Si Si7 0.811546 0.064378 0.150680
Si Si8 0.536028 0.071630 0.155138
O O1 0.090541 0.703868 0.763817
O O2 0.086264 0.602040 0.818218
O O3 0.992417 0.605515 0.749901
O O4 0.043970 0.643016 0.000000
O O5 0.629460 0.887358 0.500000
O O6 0.712111 0.917020 0.314671
O O7 0.621092 0.814593 0.303375
O O8 0.823265 0.950332 0.368830
O O9 0.769433 0.880846 0.167826
O O10 0.797493 0.997921 0.170349
O O11 0.888532 0.916972 0.500000
O O12 0.879845 0.649854 0.500000
O O13 0.887958 0.584972 0.313752
O O14 0.918083 0.695535 0.260338
O O15 0.562326 0.617328 0.500000
O O16 0.497180 0.586028 0.268926
O O17 0.791800 0.071030 0.000000
O O18 0.500000 0.000000 0.153502
O O19 0.560130 0.090740 0.000000
#
# Coordination Sequence:
#
# PCOD9581256 Si02
#       8
#    12  12  12   6  12  12  12  12
#     4  10  20  32  46  69 102 135 165 200 238 287
#     4  10  20  33  50  70  96 129 165 198 243 293
#     4  11  22  35  55  72  95 122 158 201 255 308
#     4  12  23  40  62  80  90 120 163 217 267 331
#     4   9  21  35  49  70  99 130 164 203 245 291
#     4  10  18  30  49  73  97 127 167 206 240 283
#     4  11  23  36  51  71  96 124 158 199 252 310
#     4   8  16  30  46  66  97 132 160 192 234 272
#
# _framework density 15.610768
#
# number of rings (size 3 to 8) (size 9 to 14) (size 15 to 20)
#    0.000    2.000    2.000    2.867    1.867    8.800 
#    0.000    0.000    0.000    0.000    0.000    1.867 
#    1.333    0.000    0.800    0.000    1.067    0.000 
#
# Total GULP energy -501741.622233 kJ/mol
# GULP energy per Si atom -5574.906914 kJ/mol
# Density = 1.557524 g / cm^3
# Si number density = 15.610768 Si / 1000 Ang^3
#
#
#
# Elastic Constant Matrix: (Units=GPa)
#
#
# Indices 1 2 3 4 5 6 
#
# 1 83.6803 49.2871 49.4818 0.0000 0.0000 0.0000
# 2 49.2871 83.6803 49.4818 0.0000 0.0000 0.0000
# 3 49.4818 49.4818 84.4598 0.0000 0.0000 0.0000
# 4 0.0000 0.0000 0.0000 42.6181 0.0000 0.0000
# 5 0.0000 0.0000 0.0000 0.0000 42.6181 0.0000
# 6 0.0000 0.0000 0.0000 0.0000 0.0000 17.1966
#
#
#
# Elastic Compliance Matrix: (Units=1/GPa)
#
#
# Indices 1 2 3 4 5 6 
#
# 1 0.021205 -0.007870 -0.007813 0.000000 0.000000 0.000000
# 2 -0.007870 0.021205 -0.007813 0.000000 0.000000 0.000000
# 3 -0.007813 -0.007813 0.020994 0.000000 0.000000 0.000000
# 4 0.000000 0.000000 0.000000 0.023464 0.000000 0.000000
# 5 0.000000 0.000000 0.000000 0.000000 0.023464 0.000000
# 6 0.000000 0.000000 0.000000 0.000000 0.000000 0.058151
#
#
# Mechanical properties :
#
#
# Convention : Reuss Voigt Hill
#
# Bulk Modulus (GPa) = 60.92262 60.92465 60.92364
# Shear Modulus (GPa) = 22.62986 27.39120 25.01053
#
# Velocity S-wave (km/s) = 3.81153 4.19338 4.00701
# Velocity P-wave (km/s) = 7.64730 7.90936 7.77943
#
# Compressibility (1/GPa) = 0.01641426
#
# Stress axis : x y z
#
# Youngs Moduli (GPa) = 47.15767 47.15767 47.63202
#
# Poissons Ratio (x) = 0.37113 0.37214
# Poissons Ratio (y) = 0.37113 0.37214
# Poissons Ratio (z) = 0.36843 0.36843
#
# Static dielectric constant tensor:
#      x y z
#    x 1.517220 0.000000 0.000000 
#    y 0.000000 1.517220 0.000000 
#    z 0.000000 0.000000 1.534140 
# 
# From -- ./inp_files/1478.got.cif
#   From: 2010.05.17/outbox.cif.g08.bks.cpg/sg175_1_cif.got.tgz:1478.got - 2010.05.20 11:23:22.
