data_PCOD9581159
_publ_section_title
;
Structure prediction by ZEFSAII (Michael W. Deem and Ramdas Pophale) SiO2 
 PCOD9581159
Probable space group: P -6
;
_chemical_formula_sum "Si O2"
_cell_formula_units_Z 15
_cell_length_a 6.759678
_cell_length_b 6.759678
_cell_length_c 14.109110
_cell_angle_alpha 90.000000
_cell_angle_beta 90.000000
_cell_angle_gamma 120.000000
_cell_volume 558.318821
_symmetry_space_group_name_H-M "P -6"
_symmetry_group_IT_number 174
_symmetry_cell_setting 'hexagonal'
loop_
_space_group_symop_operation_xyz
x,y,z
-x+y,-x,-z
-y,x-y,z
x,y,-z
-x+y,-x,z
-y,x-y,-z
loop_
_atom_site_type_symbol
_atom_site_label
_atom_site_fract_x
_atom_site_fract_y
_atom_site_fract_z
Si Si1 0.619404 0.892159 0.806518
Si Si2 0.283254 0.382137 0.398127
Si Si3 0.879850 0.620157 0.000000
O O1 0.380913 0.897876 0.807610
O O2 0.728971 0.990761 0.704043
O O3 0.749613 0.007738 0.902086
O O4 0.521245 0.626423 0.398108
O O5 0.267159 0.270342 0.500000
O O6 0.608557 0.511660 0.000000
#
# Coordination Sequence:
#
# PCOD9581159 Si02
#       3
#     6   6   3
#     4   8  14  26  48  62  71 102 143 166 184 238
#     4   6   8  16  34  64  84  85 111 171 208 215
#     4  10  20  26  34  54  86 114 130 164 208 232
#
# _framework density 26.866372999999999
#
# number of rings (size 3 to 8) (size 9 to 14) (size 15 to 20)
#    2.000    2.400    0.000    1.200    0.000    0.000 
#    0.000    0.000    0.000    8.800    0.000    0.000 
#    0.000    0.000    0.000    0.000    0.000    0.000 
#
# Total GULP energy -83522.004985 kJ/mol
# GULP energy per Si atom -5568.133666 kJ/mol
# Density = 2.680522 g / cm^3
# Si number density = 26.866373 Si / 1000 Ang^3
#
#
#
# Elastic Constant Matrix: (Units=GPa)
#
#
# Indices 1 2 3 4 5 6 
#
# 1 90.4440 23.3248 53.4124 0.0000 0.0000 0.0000
# 2 23.3248 90.4440 53.4124 0.0000 0.0000 0.0000
# 3 53.4124 53.4124 387.1999 0.0000 0.0000 0.0000
# 4 0.0000 0.0000 0.0000 -16.0995 0.0000 0.0000
# 5 0.0000 0.0000 0.0000 0.0000 -16.0995 0.0000
# 6 0.0000 0.0000 0.0000 0.0000 0.0000 33.5596
#
#
#
# Elastic Compliance Matrix: (Units=1/GPa)
#
#
# Indices 1 2 3 4 5 6 
#
# 1 0.012498 -0.002401 -0.001393 0.000000 0.000000 0.000000
# 2 -0.002401 0.012498 -0.001393 0.000000 0.000000 0.000000
# 3 -0.001393 -0.001393 0.002967 0.000000 0.000000 0.000000
# 4 0.000000 0.000000 0.000000 -0.062114 0.000000 0.000000
# 5 0.000000 0.000000 0.000000 0.000000 -0.062114 0.000000
# 6 0.000000 0.000000 0.000000 0.000000 0.000000 0.029798
#
#
# Mechanical properties :
#
#
# Convention : Reuss Voigt Hill
#
# Bulk Modulus (GPa) = 56.84867 92.04300 74.44584
# Shear Modulus (GPa) = -99.54299 29.46799 -35.03750
#
# Velocity S-wave (km/s) = -6.09357 3.31544 -3.61520
# Velocity P-wave (km/s) = 5.32006 6.99930 3.21614
#
# Compressibility (1/GPa) = 0.01759056
#
# Stress axis : x y z
#
# Youngs Moduli (GPa) = 80.01111 80.01111 337.04767
#
# Poissons Ratio (x) = 0.19208 0.46948
# Poissons Ratio (y) = 0.19208 0.46948
# Poissons Ratio (z) = 0.11145 0.11145
#
# Static dielectric constant tensor:
#      x y z
#    x 2.073670 0.000000 0.000000 
#    y 0.000000 2.073670 0.000000 
#    z 0.000000 0.000000 2.070660 
# 
# From -- ./inp_files/607.got.cif
#   From: 2010.05.17/outbox.cif.g08.bks.cpg/sg174_cif.got.tgz:607.got - 2010.05.20 11:22:48.
