data_PCOD9581994
_publ_section_title
;
Structure prediction by ZEFSAII (Michael W. Deem and Ramdas Pophale) SiO2 
 PCOD9581994
Probable space group: P 63/M
;
_chemical_formula_sum "Si O2"
_cell_formula_units_Z 60
_cell_length_a 14.215325
_cell_length_b 14.215325
_cell_length_c 14.418568
_cell_angle_alpha 90.000000
_cell_angle_beta 90.000000
_cell_angle_gamma 120.000000
_cell_volume 2523.285245
_symmetry_space_group_name_H-M "P 63/M"
_symmetry_group_IT_number 176
_symmetry_cell_setting 'hexagonal'
loop_
_space_group_symop_operation_xyz
x,y,z
x-y,x,1/2+z
-y,x-y,z
-x,-y,1/2+z
-x+y,-x,z
y,-x+y,1/2+z
-x,-y,-z
-x+y,-x,1/2-z
y,-x+y,-z
x,y,1/2-z
x-y,x,-z
-y,x-y,1/2-z
loop_
_atom_site_type_symbol
_atom_site_label
_atom_site_fract_x
_atom_site_fract_y
_atom_site_fract_z
Si Si1 0.424237 0.800480 0.961966
Si Si2 0.249199 0.477230 0.354971
Si Si3 0.059631 0.824122 0.613084
Si Si4 0.237379 0.057954 0.889017
Si Si5 0.410794 0.997386 0.146453
O O1 0.297524 0.745143 0.932057
O O2 0.451666 0.793536 0.070708
O O3 0.493492 0.919940 0.920821
O O4 0.270761 0.519735 0.250000
O O5 0.239847 0.359774 0.354623
O O6 0.126291 0.449237 0.382477
O O7 0.060333 0.816608 0.501075
O O8 0.053520 0.716770 0.650853
O O9 0.947099 0.819208 0.637925
O O10 0.163386 0.935208 0.641143
O O11 0.450354 0.992668 0.250000
#
# Coordination Sequence:
#
# PCOD9581994 Si02
#       5
#    12  12  12  12  12
#     4  10  24  42  63  92 111 148 188 250 296 356
#     4  10  21  38  60  86 119 157 195 240 297 357
#     4   9  16  28  50  81 118 157 195 234 278 336
#     4   9  16  28  50  81 118 157 195 234 278 336
#     4  10  21  38  60  86 119 157 195 240 297 357
#
# _framework density 23.778524000000001
#
# number of rings (size 3 to 8) (size 9 to 14) (size 15 to 20)
#    0.400    2.000    2.000    0.400    0.000    4.800 
#    0.000    0.000    0.000    2.400    0.000    0.000 
#    0.000    0.000    0.000    0.000    0.000    0.000 
#
# Total GULP energy -334832.187440 kJ/mol
# GULP energy per Si atom -5580.536457 kJ/mol
# Density = 2.372440 g / cm^3
# Si number density = 23.778524 Si / 1000 Ang^3
#
#
#
# Elastic Constant Matrix: (Units=GPa)
#
#
# Indices 1 2 3 4 5 6 
#
# 1 92.5985 22.6877 11.2631 0.0000 0.0000 0.0000
# 2 22.6877 92.5985 11.2631 0.0000 0.0000 0.0000
# 3 11.2631 11.2631 95.2696 0.0000 0.0000 0.0000
# 4 0.0000 0.0000 0.0000 -741.7144 0.0000 0.0000
# 5 0.0000 0.0000 0.0000 0.0000 -741.7144 0.0000
# 6 0.0000 0.0000 0.0000 0.0000 0.0000 34.9554
#
#
#
# Elastic Compliance Matrix: (Units=1/GPa)
#
#
# Indices 1 2 3 4 5 6 
#
# 1 0.011592 -0.002712 -0.001050 0.000000 0.000000 0.000000
# 2 -0.002712 0.011592 -0.001050 0.000000 0.000000 0.000000
# 3 -0.001050 -0.001050 0.010745 0.000000 0.000000 0.000000
# 4 0.000000 0.000000 0.000000 -0.001348 0.000000 0.000000
# 5 0.000000 0.000000 0.000000 0.000000 -0.001348 0.000000
# 6 0.000000 0.000000 0.000000 0.000000 0.000000 0.028608
#
#
# Mechanical properties :
#
#
# Convention : Reuss Voigt Hill
#
# Bulk Modulus (GPa) = 41.14521 41.21051 41.17786
# Shear Modulus (GPa) = 64.46260 -274.01118 -104.77429
#
# Velocity S-wave (km/s) = 5.21234 -10.74639 -6.64517
# Velocity P-wave (km/s) = 7.31886 11.68808 6.44382
#
# Compressibility (1/GPa) = 0.02430417
#
# Stress axis : x y z
#
# Youngs Moduli (GPa) = 86.26967 86.26967 93.06888
#
# Poissons Ratio (x) = 0.23400 0.09770
# Poissons Ratio (y) = 0.23400 0.09770
# Poissons Ratio (z) = 0.09056 0.09056
#
# Static dielectric constant tensor:
#      x y z
#    x 1.886690 0.000000 0.000000 
#    y 0.000000 1.886690 0.000000 
#    z 0.000000 0.000000 2.003660 
# 
# From -- ./inp_files/2632.got.cif
#   From: 2010.05.17/outbox.cif.g08.bks.cpg/sg176_2_cif.got.tgz:2632.got - 2010.06.03 11:36:45.
