data_PCOD9581478
_publ_section_title
;
Structure prediction by ZEFSAII (Michael W. Deem and Ramdas Pophale) SiO2 
 PCOD9581478
Probable space group: P 6/M
;
_chemical_formula_sum "Si O2"
_cell_formula_units_Z 48
_cell_length_a 18.758515
_cell_length_b 18.758515
_cell_length_c 8.584755
_cell_angle_alpha 90.000000
_cell_angle_beta 90.000000
_cell_angle_gamma 120.000000
_cell_volume 2616.106663
_symmetry_space_group_name_H-M "P 6/M"
_symmetry_group_IT_number 175
_symmetry_cell_setting 'hexagonal'
loop_
_space_group_symop_operation_xyz
x,y,z
x-y,x,z
-y,x-y,z
-x,-y,z
-x+y,-x,z
y,-x+y,z
-x,-y,-z
-x+y,-x,-z
y,-x+y,-z
x,y,-z
x-y,x,-z
-y,x-y,-z
loop_
_atom_site_type_symbol
_atom_site_label
_atom_site_fract_x
_atom_site_fract_y
_atom_site_fract_z
Si Si1 0.377388 0.908738 0.185250
Si Si2 0.193519 0.811610 0.311462
Si Si3 0.905216 0.095879 0.690091
Si Si4 0.906276 0.379333 0.686730
O O1 0.284523 0.856359 0.242860
O O2 0.436522 0.874891 0.244574
O O3 0.416868 0.000416 0.255213
O O4 0.381238 0.913982 0.000000
O O5 0.198951 0.816400 0.500000
O O6 0.142757 0.856551 0.261916
O O7 0.145900 0.715762 0.267083
O O8 0.905837 0.095856 0.500000
O O9 0.000536 0.143415 0.740254
O O10 0.906784 0.384578 0.500000
#
# Coordination Sequence:
#
# PCOD9581478 Si02
#       4
#    12  12  12  12
#     4  11  22  36  56  81 112 144 178 226 285 343
#     4  10  20  35  56  81 108 145 190 233 272 326
#     4   9  16  27  47  78 114 147 181 223 270 315
#     4  10  20  37  60  81 107 144 187 230 273 330
#
# _framework density 18.347875999999999
#
# number of rings (size 3 to 8) (size 9 to 14) (size 15 to 20)
#    0.000    2.000    0.000    6.250    0.000    7.000 
#    1.500    0.000    0.000    0.000    0.000    0.000 
#    0.000    4.000    0.000    0.000    0.000    0.000 
#
# Total GULP energy -268059.131867 kJ/mol
# GULP energy per Si atom -5584.565247 kJ/mol
# Density = 1.830612 g / cm^3
# Si number density = 18.347876 Si / 1000 Ang^3
#
#
#
# Elastic Constant Matrix: (Units=GPa)
#
#
# Indices 1 2 3 4 5 6 
#
# 1 206.6495 152.9905 70.8194 0.0000 0.0000 0.0000
# 2 152.9905 206.6495 70.8194 0.0000 0.0000 0.0000
# 3 70.8194 70.8194 66.3708 0.0000 0.0000 0.0000
# 4 0.0000 0.0000 0.0000 -90.5205 0.0000 0.0000
# 5 0.0000 0.0000 0.0000 0.0000 -90.5205 0.0000
# 6 0.0000 0.0000 0.0000 0.0000 0.0000 26.8295
#
#
#
# Elastic Compliance Matrix: (Units=1/GPa)
#
#
# Indices 1 2 3 4 5 6 
#
# 1 0.011716 -0.006920 -0.005117 0.000000 0.000000 0.000000
# 2 -0.006920 0.011716 -0.005117 0.000000 0.000000 0.000000
# 3 -0.005117 -0.005117 0.025988 0.000000 0.000000 0.000000
# 4 0.000000 0.000000 0.000000 -0.011047 0.000000 0.000000
# 5 0.000000 0.000000 0.000000 0.000000 -0.011047 0.000000
# 6 0.000000 0.000000 0.000000 0.000000 0.000000 0.037272
#
#
# Mechanical properties :
#
#
# Convention : Reuss Voigt Hill
#
# Bulk Modulus (GPa) = 66.18150 118.76983 92.47567
# Shear Modulus (GPa) = 48.10255 -18.50628 14.79813
#
# Velocity S-wave (km/s) = 5.12580 -3.17934 2.84303
# Velocity P-wave (km/s) = 8.43686 7.16904 7.82865
#
# Compressibility (1/GPa) = 0.01510996
#
# Stress axis : x y z
#
# Youngs Moduli (GPa) = 85.35268 85.35268 38.47961
#
# Poissons Ratio (x) = 0.59065 0.19692
# Poissons Ratio (y) = 0.59065 0.19692
# Poissons Ratio (z) = 0.43679 0.43679
#
# Static dielectric constant tensor:
#      x y z
#    x 1.613310 0.000000 0.000000 
#    y 0.000000 1.613310 0.000000 
#    z 0.000000 0.000000 1.608770 
# 
# From -- ./inp_files/516.got.cif
#   From: 2010.05.17/outbox.cif.g08.bks.cpg/sg175_1_cif.got.tgz:516.got - 2010.05.20 11:23:22.
