data_PCOD9581016
_publ_section_title
;
Structure prediction by ZEFSAII (Michael W. Deem and Ramdas Pophale) SiO2 
 PCOD9581016
Probable space group: P 63
;
_chemical_formula_sum "Si O2"
_cell_formula_units_Z 48
_cell_length_a 18.952448
_cell_length_b 18.952448
_cell_length_c 9.916115
_cell_angle_alpha 90.000000
_cell_angle_beta 90.000000
_cell_angle_gamma 120.000000
_cell_volume 3084.628124
_symmetry_space_group_name_H-M "P 63"
_symmetry_group_IT_number 173
_symmetry_cell_setting 'hexagonal'
loop_
_space_group_symop_operation_xyz
x,y,z
x-y,x,1/2+z
-y,x-y,z
-x,-y,1/2+z
-x+y,-x,z
y,-x+y,1/2+z
loop_
_atom_site_type_symbol
_atom_site_label
_atom_site_fract_x
_atom_site_fract_y
_atom_site_fract_z
Si Si1 0.560340 0.701383 0.324550
Si Si2 0.598281 0.032348 0.342727
Si Si3 0.401719 0.434066 0.796518
Si Si4 0.673811 0.499839 0.510934
Si Si5 0.826028 0.499839 0.128310
Si Si6 0.174782 0.514235 0.040614
Si Si7 0.514235 0.174782 0.098630
Si Si8 0.701383 0.560340 0.814694
O O1 0.611319 0.655884 0.299011
O O2 0.523308 0.673550 0.472620
O O3 0.495500 0.669285 0.201881
O O4 0.599116 0.799558 0.319622
O O5 0.502606 0.005213 0.319622
O O6 0.647132 0.096920 0.224267
O O7 0.627387 0.085332 0.478882
O O8 0.611319 0.955435 0.340233
O O9 0.372613 0.457945 0.660362
O O10 0.352868 0.449788 0.914977
O O11 0.761617 0.510428 0.483720
O O12 0.604846 0.405632 0.497616
O O13 0.673550 0.523308 0.666625
O O14 0.800786 0.405632 0.141628
O O15 0.748811 0.510428 0.155524
O O16 0.504500 0.173785 0.937364
#
# Coordination Sequence:
#
# PCOD9581016 Si02
#       8
#     6   6   6   6   6   6   6   6
#     4  10  20  31  44  62  82 111 151 191 225 255
#     4  10  19  31  46  62  84 115 147 179 219 263
#     4  10  19  31  46  62  84 115 147 179 219 263
#     4  10  19  30  45  65  89 116 147 182 218 255
#     4  10  19  30  45  65  89 116 147 182 218 255
#     4  10  19  30  45  65  89 116 147 182 218 255
#     4  10  19  30  45  65  89 116 147 182 218 255
#     4  10  20  31  44  62  82 111 151 191 225 255
#
# _framework density 15.561032000000001
#
# number of rings (size 3 to 8) (size 9 to 14) (size 15 to 20)
#    0.000    2.000    0.000    5.000    0.000    4.000 
#    0.000    5.000    0.000    0.500    0.000    0.000 
#    0.000    0.000    0.000    6.000    0.000   90.000 
#
# Total GULP energy -267644.896181 kJ/mol
# GULP energy per Si atom -5575.935337 kJ/mol
# Density = 1.552561 g / cm^3
# Si number density = 15.561032 Si / 1000 Ang^3
#
#
#
# Elastic Constant Matrix: (Units=GPa)
#
#
# Indices 1 2 3 4 5 6 
#
# 1 66.2381 27.7676 0.4069 0.0000 0.0000 0.0000
# 2 27.7676 66.2381 0.4069 0.0000 0.0000 0.0000
# 3 0.4069 0.4069 64.0672 0.0000 0.0000 0.0000
# 4 0.0000 0.0000 0.0000 14.9890 0.0000 0.0000
# 5 0.0000 0.0000 0.0000 0.0000 14.9890 0.0000
# 6 0.0000 0.0000 0.0000 0.0000 0.0000 19.2352
#
#
#
# Elastic Compliance Matrix: (Units=1/GPa)
#
#
# Indices 1 2 3 4 5 6 
#
# 1 0.018316 -0.007678 -0.000068 0.000000 0.000000 0.000000
# 2 -0.007678 0.018316 -0.000068 0.000000 0.000000 0.000000
# 3 -0.000068 -0.000068 0.015609 0.000000 0.000000 0.000000
# 4 0.000000 0.000000 0.000000 0.066716 0.000000 0.000000
# 5 0.000000 0.000000 0.000000 0.000000 0.066716 0.000000
# 6 0.000000 0.000000 0.000000 0.000000 0.000000 0.051988
#
#
# Mechanical properties :
#
#
# Convention : Reuss Voigt Hill
#
# Bulk Modulus (GPa) = 27.31071 28.18958 27.75014
# Shear Modulus (GPa) = 18.83294 21.04010 19.93652
#
# Velocity S-wave (km/s) = 3.48266 3.68108 3.58324
# Velocity P-wave (km/s) = 5.81039 6.01847 5.91535
#
# Compressibility (1/GPa) = 0.03661568
#
# Stress axis : x y z
#
# Youngs Moduli (GPa) = 54.59677 54.59677 64.06369
#
# Poissons Ratio (x) = 0.41919 0.00433
# Poissons Ratio (y) = 0.41919 0.00433
# Poissons Ratio (z) = 0.00369 0.00369
#
# Static dielectric constant tensor:
#      x y z
#    x 1.512750 0.000000 0.000000 
#    y 0.000000 1.512750 0.000000 
#    z 0.000000 0.000000 1.570820 
# 
# From -- ./inp_files/665.got.cif
#   From: 2010.05.17/outbox.cif.g08.bks.cpg/sg173_cif.got.tgz:665.got - 2010.05.20 11:21:53.
