data_PCOD9581761
_publ_section_title
;
Structure prediction by ZEFSAII (Michael W. Deem and Ramdas Pophale) SiO2 
 PCOD9581761
Probable space group: P 63/M
;
_chemical_formula_sum "Si O2"
_cell_formula_units_Z 64
_cell_length_a 14.576219
_cell_length_b 14.576219
_cell_length_c 16.142453
_cell_angle_alpha 90.000000
_cell_angle_beta 90.000000
_cell_angle_gamma 120.000000
_cell_volume 2970.228984
_symmetry_space_group_name_H-M "P 63/M"
_symmetry_group_IT_number 176
_symmetry_cell_setting 'hexagonal'
loop_
_space_group_symop_operation_xyz
x,y,z
x-y,x,1/2+z
-y,x-y,z
-x,-y,1/2+z
-x+y,-x,z
y,-x+y,1/2+z
-x,-y,-z
-x+y,-x,1/2-z
y,-x+y,-z
x,y,1/2-z
x-y,x,-z
-y,x-y,1/2-z
loop_
_atom_site_type_symbol
_atom_site_label
_atom_site_fract_x
_atom_site_fract_y
_atom_site_fract_z
Si Si1 0.333335 0.666667 0.149020
Si Si2 0.728506 0.070135 0.658117
Si Si3 0.608209 0.117088 0.150433
Si Si4 0.760763 0.899756 0.476567
Si Si5 0.433275 0.542678 0.350792
Si Si6 0.422681 0.152858 0.100088
O O1 0.333334 0.666668 0.250000
O O2 0.223743 0.656527 0.121338
O O3 0.752970 0.115185 0.750000
O O4 0.835798 0.109198 0.608940
O O5 0.642689 0.098049 0.620287
O O6 0.659254 0.942465 0.659209
O O7 0.592573 0.124512 0.250000
O O8 0.530836 0.147870 0.101645
O O9 0.729975 0.187598 0.129615
O O10 0.564497 0.994754 0.126746
O O11 0.815291 0.841081 0.525546
O O12 0.650527 0.874953 0.519184
O O13 0.435834 0.545358 0.250000
#
# Coordination Sequence:
#
# PCOD9581761 Si02
#       6
#     4  12  12  12  12  12
#     4   9  15  27  42  63  99 144 180 216 265 317
#     4   9  18  37  59  83 114 153 199 249 295 352
#     4  10  18  32  55  87 118 148 186 236 290 351
#     4  10  22  41  62  85 118 160 201 249 307 358
#     4   8  16  28  46  71 105 143 184 228 275 329
#     4  10  20  35  59  87 119 156 192 238 304 363
#
# _framework density 21.547160000000002
#
# number of rings (size 3 to 8) (size 9 to 14) (size 15 to 20)
#    0.000    2.625    0.000    3.375    0.000    1.500 
#    0.000   17.812    0.000    0.000    0.000    0.000 
#    0.000    0.000    0.000    0.000    0.000    0.000 
#
# Total GULP energy -356967.387703 kJ/mol
# GULP energy per Si atom -5577.615433 kJ/mol
# Density = 2.149812 g / cm^3
# Si number density = 21.547160 Si / 1000 Ang^3
#
#
#
# Elastic Constant Matrix: (Units=GPa)
#
#
# Indices 1 2 3 4 5 6 
#
# 1 96.4579 41.9907 12.1574 0.0000 0.0000 0.0004
# 2 41.9907 96.4594 12.1574 0.0000 0.0000 0.0007
# 3 12.1574 12.1574 21.1194 0.0000 0.0000 0.0001
# 4 0.0000 0.0000 0.0000 6.8681 0.0003 0.0000
# 5 0.0000 0.0000 0.0000 0.0003 6.8684 0.0000
# 6 0.0004 0.0007 0.0001 0.0000 0.0000 27.2336
#
#
#
# Elastic Compliance Matrix: (Units=1/GPa)
#
#
# Indices 1 2 3 4 5 6 
#
# 1 0.013197 -0.005162 -0.004626 0.000000 0.000000 0.000000
# 2 -0.005162 0.013197 -0.004625 0.000000 0.000000 0.000000
# 3 -0.004626 -0.004625 0.052675 0.000000 0.000000 0.000000
# 4 0.000000 0.000000 0.000000 0.145600 -0.000007 0.000000
# 5 0.000000 0.000000 0.000000 -0.000007 0.145594 0.000000
# 6 0.000000 0.000000 0.000000 0.000000 0.000000 0.036719
#
#
# Mechanical properties :
#
#
# Convention : Reuss Voigt Hill
#
# Bulk Modulus (GPa) = 19.90304 38.51641 29.20972
# Shear Modulus (GPa) = 11.04832 18.04278 14.54555
#
# Velocity S-wave (km/s) = 2.26686 2.89686 2.60100
# Velocity P-wave (km/s) = 4.01354 5.39474 4.75457
#
# Compressibility (1/GPa) = 0.05024359
#
# Stress axis : x y z
#
# Youngs Moduli (GPa) = 75.77247 75.77366 18.98433
#
# Poissons Ratio (x) = 0.39115 0.08781
# Poissons Ratio (y) = 0.39115 0.08781
# Poissons Ratio (z) = 0.35049 0.35048
#
# Static dielectric constant tensor:
#      x y z
#    x 1.778320 0.000000 0.000000 
#    y 0.000000 1.778310 0.000000 
#    z 0.000000 0.000000 1.839040 
# 
# From -- ./inp_files/3321.got.cif
#   From: 2010.05.17/outbox.cif.g08.bks.cpg/sg176_2_cif.got.tgz:3321.got - 2010.06.03 11:36:45.
