data_PCOD9581435
_publ_section_title
;
Structure prediction by ZEFSAII (Michael W. Deem and Ramdas Pophale) SiO2 
 PCOD9581435
Probable space group: P 6/M
;
_chemical_formula_sum "Si O2"
_cell_formula_units_Z 60
_cell_length_a 22.579831
_cell_length_b 22.579831
_cell_length_c 7.929135
_cell_angle_alpha 90.000000
_cell_angle_beta 90.000000
_cell_angle_gamma 120.000000
_cell_volume 3501.046009
_symmetry_space_group_name_H-M "P 6/M"
_symmetry_group_IT_number 175
_symmetry_cell_setting 'hexagonal'
loop_
_space_group_symop_operation_xyz
x,y,z
x-y,x,z
-y,x-y,z
-x,-y,z
-x+y,-x,z
y,-x+y,z
-x,-y,-z
-x+y,-x,-z
y,-x+y,-z
x,y,-z
x-y,x,-z
-y,x-y,-z
loop_
_atom_site_type_symbol
_atom_site_label
_atom_site_fract_x
_atom_site_fract_y
_atom_site_fract_z
Si Si1 0.148423 0.712457 0.309726
Si Si2 0.531759 0.920407 0.000000
Si Si3 0.730174 0.799345 0.303068
Si Si4 0.610861 0.081175 0.000000
Si Si5 0.713564 0.918508 0.190520
Si Si6 0.565973 0.714365 0.696289
O O1 0.144910 0.686120 0.500000
O O2 0.117217 0.655572 0.165716
O O3 0.104425 0.751248 0.304096
O O4 0.226342 0.772807 0.275130
O O5 0.459365 0.917456 0.000000
O O6 0.589919 0.000958 0.000000
O O7 0.746463 0.802069 0.500000
O O8 0.747316 0.873392 0.240077
O O9 0.767201 0.765335 0.207347
O O10 0.648237 0.752371 0.283950
O O11 0.655104 0.119350 0.165506
O O12 0.687180 0.900583 0.000000
O O13 0.549977 0.691872 0.500000
#
# Coordination Sequence:
#
# PCOD9581435 Si02
#       6
#    12   6  12   6  12  12
#     4  10  20  37  58  79 105 138 180 226 268 310
#     4  11  23  36  50  84 112 149 173 205 262 328
#     4  10  20  33  50  76 107 141 178 219 270 316
#     4  11  23  34  54  78 118 145 173 207 260 328
#     4  11  20  31  51  79 107 138 178 223 269 313
#     4   9  20  36  57  80 103 138 180 224 267 307
#
# _framework density 17.137736
#
# number of rings (size 3 to 8) (size 9 to 14) (size 15 to 20)
#    0.000    1.800    1.000    5.400    5.600    3.200 
#    0.000    2.000    0.000    3.600    0.000    2.800 
#    0.000    0.000    0.000    0.000    0.000    0.000 
#
# Total GULP energy -334874.550268 kJ/mol
# GULP energy per Si atom -5581.242504 kJ/mol
# Density = 1.709873 g / cm^3
# Si number density = 17.137736 Si / 1000 Ang^3
#
#
#
# Elastic Constant Matrix: (Units=GPa)
#
#
# Indices 1 2 3 4 5 6 
#
# 1 75.9219 29.4997 53.3114 0.0000 0.0000 0.0000
# 2 29.4997 75.9219 53.3114 0.0000 0.0000 0.0000
# 3 53.3114 53.3114 128.0773 0.0000 0.0000 0.0000
# 4 0.0000 0.0000 0.0000 8.0399 0.0000 0.0000
# 5 0.0000 0.0000 0.0000 0.0000 8.0399 0.0000
# 6 0.0000 0.0000 0.0000 0.0000 0.0000 23.2111
#
#
#
# Elastic Compliance Matrix: (Units=1/GPa)
#
#
# Indices 1 2 3 4 5 6 
#
# 1 0.018962 -0.002579 -0.006819 0.000000 0.000000 0.000000
# 2 -0.002579 0.018962 -0.006819 0.000000 0.000000 0.000000
# 3 -0.006819 -0.006819 0.013485 0.000000 0.000000 0.000000
# 4 0.000000 0.000000 0.000000 0.124380 0.000000 0.000000
# 5 0.000000 0.000000 0.000000 0.000000 0.124380 0.000000
# 6 0.000000 0.000000 0.000000 0.000000 0.000000 0.043083
#
#
# Mechanical properties :
#
#
# Convention : Reuss Voigt Hill
#
# Bulk Modulus (GPa) = 52.70591 61.35179 57.02885
# Shear Modulus (GPa) = 13.08864 17.44475 15.26670
#
# Velocity S-wave (km/s) = 2.76657 3.19394 2.98790
# Velocity P-wave (km/s) = 6.40518 7.03410 6.72699
#
# Compressibility (1/GPa) = 0.01897320
#
# Stress axis : x y z
#
# Youngs Moduli (GPa) = 52.73706 52.73706 74.15835
#
# Poissons Ratio (x) = 0.13603 0.50570
# Poissons Ratio (y) = 0.13603 0.50570
# Poissons Ratio (z) = 0.35962 0.35962
#
# Static dielectric constant tensor:
#      x y z
#    x 1.569700 0.000000 0.000000 
#    y 0.000000 1.569700 0.000000 
#    z 0.000000 0.000000 1.594930 
# 
# From -- ./inp_files/915.got.cif
#   From: 2010.05.17/outbox.cif.g08.bks.cpg/sg175_1_cif.got.tgz:915.got - 2010.05.20 11:23:22.
