data_PCOD9581658
_publ_section_title
;
Structure prediction by ZEFSAII (Michael W. Deem and Ramdas Pophale) SiO2 
 PCOD9581658
Probable space group: P 6/M
;
_chemical_formula_sum "Si O2"
_cell_formula_units_Z 60
_cell_length_a 22.353290
_cell_length_b 22.353290
_cell_length_c 7.656618
_cell_angle_alpha 90.000000
_cell_angle_beta 90.000000
_cell_angle_gamma 120.000000
_cell_volume 3313.221849
_symmetry_space_group_name_H-M "P 6/M"
_symmetry_group_IT_number 175
_symmetry_cell_setting 'hexagonal'
loop_
_space_group_symop_operation_xyz
x,y,z
x-y,x,z
-y,x-y,z
-x,-y,z
-x+y,-x,z
y,-x+y,z
-x,-y,-z
-x+y,-x,-z
y,-x+y,-z
x,y,-z
x-y,x,-z
-y,x-y,-z
loop_
_atom_site_type_symbol
_atom_site_label
_atom_site_fract_x
_atom_site_fract_y
_atom_site_fract_z
Si Si1 0.429946 0.214306 0.801310
Si Si2 0.878236 0.367744 0.700639
Si Si3 0.848016 0.684445 0.500000
Si Si4 0.379574 0.367389 0.203379
Si Si5 0.276848 0.005972 0.500000
Si Si6 0.153267 0.516895 0.791478
O O1 0.456833 0.160568 0.801842
O O2 0.366541 0.190194 0.668740
O O3 0.496677 0.286289 0.743318
O O4 0.411124 0.223212 0.000000
O O5 0.878822 0.349071 0.500000
O O6 0.846337 0.417287 0.713642
O O7 0.955657 0.403218 0.771226
O O8 0.802055 0.722956 0.500000
O O9 0.932325 0.728304 0.500000
O O10 0.315940 0.320395 0.331171
O O11 0.445914 0.361859 0.254400
O O12 0.362419 0.348377 0.000000
O O13 0.154426 0.526307 0.000000
#
# Coordination Sequence:
#
# PCOD9581658 Si02
#       6
#    12  12   6  12   6  12
#     4  11  22  40  61  82 119 163 211 264 309 353
#     4  12  23  35  57  85 119 161 204 255 304 356
#     4  12  24  42  64  97 122 156 192 244 308 373
#     4  11  21  37  60  88 119 157 197 247 301 353
#     4  12  24  40  65  95 126 152 194 242 308 376
#     4  10  23  37  55  82 114 160 205 253 305 355
#
# _framework density 18.109262000000001
#
# number of rings (size 3 to 8) (size 9 to 14) (size 15 to 20)
#    0.000    0.800    6.000    2.400    2.800    2.400 
#    1.200    0.000    0.000    0.200    0.000    0.000 
#    0.000    0.000    0.000    3.600    0.000    0.000 
#
# Total GULP energy -334866.879063 kJ/mol
# GULP energy per Si atom -5581.114651 kJ/mol
# Density = 1.806804 g / cm^3
# Si number density = 18.109262 Si / 1000 Ang^3
#
#
#
# Elastic Constant Matrix: (Units=GPa)
#
#
# Indices 1 2 3 4 5 6 
#
# 1 64.9867 15.0581 24.5880 0.0000 0.0000 0.0000
# 2 15.0581 64.9867 24.5880 0.0000 0.0000 0.0000
# 3 24.5880 24.5880 92.0483 0.0000 0.0000 0.0000
# 4 0.0000 0.0000 0.0000 13.8490 0.0000 0.0000
# 5 0.0000 0.0000 0.0000 0.0000 13.8490 0.0000
# 6 0.0000 0.0000 0.0000 0.0000 0.0000 24.9643
#
#
#
# Elastic Compliance Matrix: (Units=1/GPa)
#
#
# Indices 1 2 3 4 5 6 
#
# 1 0.017487 -0.002541 -0.003992 0.000000 0.000000 0.000000
# 2 -0.002541 0.017487 -0.003992 0.000000 0.000000 0.000000
# 3 -0.003992 -0.003992 0.012997 0.000000 0.000000 0.000000
# 4 0.000000 0.000000 0.000000 0.072208 0.000000 0.000000
# 5 0.000000 0.000000 0.000000 0.000000 0.072208 0.000000
# 6 0.000000 0.000000 0.000000 0.000000 0.000000 0.040057
#
#
# Mechanical properties :
#
#
# Convention : Reuss Voigt Hill
#
# Bulk Modulus (GPa) = 37.14864 38.94333 38.04598
# Shear Modulus (GPa) = 19.04991 21.05162 20.05077
#
# Velocity S-wave (km/s) = 3.24689 3.41321 3.33109
# Velocity P-wave (km/s) = 5.88341 6.08972 5.98745
#
# Compressibility (1/GPa) = 0.02691889
#
# Stress axis : x y z
#
# Youngs Moduli (GPa) = 57.18486 57.18486 76.94252
#
# Poissons Ratio (x) = 0.14533 0.30718
# Poissons Ratio (y) = 0.14533 0.30718
# Poissons Ratio (z) = 0.22830 0.22830
#
# Static dielectric constant tensor:
#      x y z
#    x 1.642030 0.000000 0.000000 
#    y 0.000000 1.642030 0.000000 
#    z 0.000000 0.000000 1.651880 
# 
# From -- ./inp_files/918.got.cif
#   From: 2010.05.17/outbox.cif.g08.bks.cpg/sg175_1_cif.got.tgz:918.got - 2010.05.20 11:23:22.
