data_PCOD9581649
_publ_section_title
;
Structure prediction by ZEFSAII (Michael W. Deem and Ramdas Pophale) SiO2 
 PCOD9581649
Probable space group: P 6/M
;
_chemical_formula_sum "Si O2"
_cell_formula_units_Z 78
_cell_length_a 25.802852
_cell_length_b 25.802852
_cell_length_c 7.685387
_cell_angle_alpha 90.000000
_cell_angle_beta 90.000000
_cell_angle_gamma 120.000000
_cell_volume 4431.306561
_symmetry_space_group_name_H-M "P 6/M"
_symmetry_group_IT_number 175
_symmetry_cell_setting 'hexagonal'
loop_
_space_group_symop_operation_xyz
x,y,z
x-y,x,z
-y,x-y,z
-x,-y,z
-x+y,-x,z
y,-x+y,z
-x,-y,-z
-x+y,-x,-z
y,-x+y,-z
x,y,-z
x-y,x,-z
-y,x-y,-z
loop_
_atom_site_type_symbol
_atom_site_label
_atom_site_fract_x
_atom_site_fract_y
_atom_site_fract_z
Si Si1 0.671936 0.403181 0.000000
Si Si2 0.376998 0.299095 0.208581
Si Si3 0.155286 0.258748 0.786884
Si Si4 0.239254 0.209425 0.211346
Si Si5 0.678677 0.485041 0.686675
Si Si6 0.041592 0.439640 0.500000
Si Si7 0.187405 0.793161 0.208814
Si Si8 0.511650 0.090005 0.500000
O O1 0.612968 0.337766 0.000000
O O2 0.675367 0.441612 0.835379
O O3 0.306016 0.263255 0.252065
O O4 0.412233 0.356169 0.330636
O O5 0.398575 0.250978 0.245188
O O6 0.383245 0.311688 0.000000
O O7 0.188526 0.223601 0.727444
O O8 0.192428 0.328478 0.734147
O O9 0.087005 0.234361 0.729927
O O10 0.154866 0.258197 0.000000
O O11 0.236650 0.206979 0.000000
O O12 0.687487 0.462712 0.500000
O O13 0.733762 0.551364 0.714884
O O14 0.617527 0.486895 0.662312
O O15 0.079296 0.511759 0.500000
O O16 0.972824 0.423588 0.500000
O O17 0.183088 0.786455 0.000000
#
# Coordination Sequence:
#
# PCOD9581649 Si02
#       8
#     6  12  12  12  12   6  12   6
#     4  10  24  44  64  89 112 144 190 244 284 349
#     4   9  20  35  57  87 107 147 190 232 292 337
#     4   8  14  24  45  73 107 143 184 233 278 332
#     4   8  14  26  44  74 106 139 185 229 281 331
#     4  10  22  41  60  88 114 152 185 235 290 348
#     4  11  22  45  56  80 120 152 187 240 262 348
#     4   9  17  33  55  85 113 141 189 236 285 349
#     4   9  26  43  56  84 118 150 197 221 281 347
#
# _framework density 17.602032000000001
#
# number of rings (size 3 to 8) (size 9 to 14) (size 15 to 20)
#    0.615    2.308    0.769    1.846    3.231    1.846 
#    2.769    0.769    0.000    0.308    0.000    2.154 
#    0.000    0.000    0.000    0.000    0.000    5.231 
#
# Total GULP energy -434549.126370 kJ/mol
# GULP energy per Si atom -5571.142646 kJ/mol
# Density = 1.756197 g / cm^3
# Si number density = 17.602032 Si / 1000 Ang^3
#
#
#
# Elastic Constant Matrix: (Units=GPa)
#
#
# Indices 1 2 3 4 5 6 
#
# 1 140.7423 101.3538 52.2534 0.0000 0.0000 0.0000
# 2 101.3538 140.7423 52.2534 0.0000 0.0000 0.0000
# 3 52.2534 52.2534 69.5886 0.0000 0.0000 0.0000
# 4 0.0000 0.0000 0.0000 -34.0328 0.0000 0.0000
# 5 0.0000 0.0000 0.0000 0.0000 -34.0328 0.0000
# 6 0.0000 0.0000 0.0000 0.0000 0.0000 19.6943
#
#
#
# Elastic Compliance Matrix: (Units=1/GPa)
#
#
# Indices 1 2 3 4 5 6 
#
# 1 0.015750 -0.009638 -0.004589 0.000000 0.000000 0.000000
# 2 -0.009638 0.015750 -0.004589 0.000000 0.000000 0.000000
# 3 -0.004589 -0.004589 0.021262 0.000000 0.000000 0.000000
# 4 0.000000 0.000000 0.000000 -0.029383 0.000000 0.000000
# 5 0.000000 0.000000 0.000000 0.000000 -0.029383 0.000000
# 6 0.000000 0.000000 0.000000 0.000000 0.000000 0.050776
#
#
# Mechanical properties :
#
#
# Convention : Reuss Voigt Hill
#
# Bulk Modulus (GPa) = 66.09957 84.75493 75.42725
# Shear Modulus (GPa) = 57.17743 0.00658 28.59200
#
# Velocity S-wave (km/s) = 5.70561 0.06121 4.03471
# Velocity P-wave (km/s) = 9.00217 6.94695 8.04050
#
# Compressibility (1/GPa) = 0.01512869
#
# Stress axis : x y z
#
# Youngs Moduli (GPa) = 63.49265 63.49265 47.03215
#
# Poissons Ratio (x) = 0.61196 0.21584
# Poissons Ratio (y) = 0.61196 0.21584
# Poissons Ratio (z) = 0.29138 0.29138
#
# Static dielectric constant tensor:
#      x y z
#    x 1.583400 0.000000 0.000000 
#    y 0.000000 1.583400 0.000000 
#    z 0.000000 0.000000 1.644980 
# 
# From -- ./inp_files/1393.got.cif
#   From: 2010.05.17/outbox.cif.g08.bks.cpg/sg175_1_cif.got.tgz:1393.got - 2010.05.20 11:23:22.
