data_PCOD9581707
_publ_section_title
;
Structure prediction by ZEFSAII (Michael W. Deem and Ramdas Pophale) SiO2 
 PCOD9581707
Probable space group: P 6/M
;
_chemical_formula_sum "Si O2"
_cell_formula_units_Z 96
_cell_length_a 28.514476
_cell_length_b 28.514476
_cell_length_c 7.463739
_cell_angle_alpha 90.000000
_cell_angle_beta 90.000000
_cell_angle_gamma 120.000000
_cell_volume 5255.546295
_symmetry_space_group_name_H-M "P 6/M"
_symmetry_group_IT_number 175
_symmetry_cell_setting 'hexagonal'
loop_
_space_group_symop_operation_xyz
x,y,z
x-y,x,z
-y,x-y,z
-x,-y,z
-x+y,-x,z
y,-x+y,z
-x,-y,-z
-x+y,-x,-z
y,-x+y,-z
x,y,-z
x-y,x,-z
-y,x-y,-z
loop_
_atom_site_type_symbol
_atom_site_label
_atom_site_fract_x
_atom_site_fract_y
_atom_site_fract_z
Si Si1 0.558029 0.833034 0.285221
Si Si2 0.675662 0.783121 0.281730
Si Si3 0.439441 0.773383 0.213319
Si Si4 0.275006 0.833035 0.714779
Si Si5 0.675662 0.892540 0.281730
Si Si6 0.891364 0.891364 0.281224
Si Si7 0.226616 0.560559 0.213319
Si Si8 0.217330 0.000000 0.719494
O O1 0.560526 0.832920 0.500000
O O2 0.499444 0.824324 0.241036
O O3 0.555961 0.777980 0.219731
O O4 0.616295 0.881399 0.224172
O O5 0.676575 0.782370 0.500000
O O6 0.616295 0.734895 0.224172
O O7 0.679565 0.839782 0.231004
O O8 0.728140 0.781413 0.220974
O O9 0.437706 0.718853 0.284973
O O10 0.389701 0.779401 0.283450
O O11 0.432684 0.766468 0.000000
O O12 0.272395 0.832920 0.500000
O O13 0.324881 0.824325 0.758964
O O14 0.676575 0.894205 0.500000
O O15 0.728140 0.946726 0.220974
O O16 0.945666 0.891332 0.224692
O O17 0.891448 0.891448 0.500000
O O18 0.837029 0.837029 0.224815
O O19 0.233532 0.567316 0.000000
O O20 0.216882 0.000000 0.500000
#
# Coordination Sequence:
#
# PCOD9581707 Si02
#       8
#    12  12  12  12  12  12  12  12
#     4   8  14  24  36  50  71  98 124 152 188 225
#     4   8  13  21  32  47  68  91 116 151 193 230
#     4   9  16  25  37  54  76 100 124 149 177 213
#     4   8  14  24  36  50  71  98 124 152 188 225
#     4   8  13  21  32  47  68  91 116 151 193 230
#     4   9  15  20  25  36  60  96 134 165 190 221
#     4   9  16  25  37  54  76 100 124 149 177 213
#     4   9  14  19  30  47  64  86 119 158 198 233
#
# _framework density 18.266418000000002
#
# number of rings (size 3 to 8) (size 9 to 14) (size 15 to 20)
#    0.000    3.500    0.000    2.625    0.000    5.000 
#    0.000    0.000    0.000    1.500    0.000    1.750 
#    0.000    7.000    0.000    0.000    0.000    0.250 
#
# Total GULP energy -534488.855882 kJ/mol
# GULP energy per Si atom -5567.592249 kJ/mol
# Density = 1.822484 g / cm^3
# Si number density = 18.266418 Si / 1000 Ang^3
#
#
#
# Elastic Constant Matrix: (Units=GPa)
#
#
# Indices 1 2 3 4 5 6 
#
# 1 148.0216 108.2974 4.3363 0.0000 0.0000 0.0000
# 2 108.2974 148.0216 4.3363 0.0000 0.0000 0.0000
# 3 4.3363 4.3363 51.1502 0.0000 0.0000 0.0000
# 4 0.0000 0.0000 0.0000 282.7423 0.0000 0.0000
# 5 0.0000 0.0000 0.0000 0.0000 282.7423 0.0000
# 6 0.0000 0.0000 0.0000 0.0000 0.0000 19.8621
#
#
#
# Elastic Compliance Matrix: (Units=1/GPa)
#
#
# Indices 1 2 3 4 5 6 
#
# 1 0.014543 -0.010630 -0.000332 0.000000 0.000000 0.000000
# 2 -0.010630 0.014543 -0.000332 0.000000 0.000000 0.000000
# 3 -0.000332 -0.000332 0.019607 0.000000 0.000000 0.000000
# 4 0.000000 0.000000 0.000000 0.003537 0.000000 0.000000
# 5 0.000000 0.000000 0.000000 0.000000 0.003537 0.000000
# 6 0.000000 0.000000 0.000000 0.000000 0.000000 0.050347
#
#
# Mechanical properties :
#
#
# Convention : Reuss Voigt Hill
#
# Bulk Modulus (GPa) = 38.30690 64.57038 51.43864
# Shear Modulus (GPa) = 36.38933 132.41756 84.40345
#
# Velocity S-wave (km/s) = 4.46819 8.52348 6.80494
# Velocity P-wave (km/s) = 6.90191 11.50184 9.48495
#
# Compressibility (1/GPa) = 0.02610496
#
# Stress axis : x y z
#
# Youngs Moduli (GPa) = 68.76113 68.76113 51.00344
#
# Poissons Ratio (x) = 0.73096 0.01692
# Poissons Ratio (y) = 0.73096 0.01692
# Poissons Ratio (z) = 0.02281 0.02281
#
# Static dielectric constant tensor:
#      x y z
#    x 1.631390 0.000000 0.000000 
#    y 0.000000 1.631390 0.000000 
#    z 0.000000 0.000000 1.704460 
# 
# From -- ./inp_files/2181.got.cif
#   From: 2010.05.17/outbox.cif.g08.bks.cpg/sg175_2_cif.got.tgz:2181.got - 2010.05.20 11:23:22.
