data_PCOD9581609
_publ_section_title
;
Structure prediction by ZEFSAII (Michael W. Deem and Ramdas Pophale) SiO2 
 PCOD9581609
Probable space group: P 6/M
;
_chemical_formula_sum "Si O2"
_cell_formula_units_Z 42
_cell_length_a 17.515054
_cell_length_b 17.515054
_cell_length_c 7.243630
_cell_angle_alpha 90.000000
_cell_angle_beta 90.000000
_cell_angle_gamma 120.000000
_cell_volume 1924.464267
_symmetry_space_group_name_H-M "P 6/M"
_symmetry_group_IT_number 175
_symmetry_cell_setting 'hexagonal'
loop_
_space_group_symop_operation_xyz
x,y,z
x-y,x,z
-y,x-y,z
-x,-y,z
-x+y,-x,z
y,-x+y,z
-x,-y,-z
-x+y,-x,-z
y,-x+y,-z
x,y,-z
x-y,x,-z
-y,x-y,-z
loop_
_atom_site_type_symbol
_atom_site_label
_atom_site_fract_x
_atom_site_fract_y
_atom_site_fract_z
Si Si1 0.029631 0.834825 0.000000
Si Si2 0.998801 0.310805 0.721511
Si Si3 0.826571 0.519648 0.724548
Si Si4 0.492690 0.853014 0.275929
O O1 0.033851 0.780455 0.175447
O O2 0.934710 0.827663 0.000000
O O3 0.994196 0.299242 0.500000
O O4 0.937542 0.352240 0.773310
O O5 0.098367 0.382463 0.776445
O O6 0.826241 0.518575 0.500000
O O7 0.851276 0.446793 0.785887
O O8 0.729226 0.495365 0.783150
O O9 0.489690 0.851952 0.500000
#
# Coordination Sequence:
#
# PCOD9581609 Si02
#       4
#     6  12  12  12
#     4  12  27  46  67  90 116 146 184 234 293 354
#     4  10  21  39  63  89 117 153 197 241 286 341
#     4   9  16  28  50  82 120 160 200 242 288 338
#     4   9  16  28  50  82 120 160 200 242 288 338
#
# _framework density 21.824256999999999
#
# number of rings (size 3 to 8) (size 9 to 14) (size 15 to 20)
#    0.000    2.286    0.000    3.286    0.000    9.143 
#    0.000    2.857    0.000    1.714    0.000    4.000 
#    0.000    0.000    0.000    0.000    0.000    0.000 
#
# Total GULP energy -234949.124335 kJ/mol
# GULP energy per Si atom -5594.026770 kJ/mol
# Density = 2.177458 g / cm^3
# Si number density = 21.824257 Si / 1000 Ang^3
#
#
#
# Elastic Constant Matrix: (Units=GPa)
#
#
# Indices 1 2 3 4 5 6 
#
# 1 76.6150 -9.4267 7.3740 0.0000 0.0000 0.0000
# 2 -9.4267 76.6150 7.3740 0.0000 0.0000 0.0000
# 3 7.3740 7.3740 102.4740 0.0000 0.0000 0.0000
# 4 0.0000 0.0000 0.0000 -206.0294 0.0000 0.0000
# 5 0.0000 0.0000 0.0000 0.0000 -206.0294 0.0000
# 6 0.0000 0.0000 0.0000 0.0000 0.0000 43.0208
#
#
#
# Elastic Compliance Matrix: (Units=1/GPa)
#
#
# Indices 1 2 3 4 5 6 
#
# 1 0.013372 0.001750 -0.001088 0.000000 0.000000 0.000000
# 2 0.001750 0.013372 -0.001088 0.000000 0.000000 0.000000
# 3 -0.001088 -0.001088 0.009915 0.000000 0.000000 0.000000
# 4 0.000000 0.000000 0.000000 -0.004854 0.000000 0.000000
# 5 0.000000 0.000000 0.000000 0.000000 -0.004854 0.000000
# 6 0.000000 0.000000 0.000000 0.000000 0.000000 0.023245
#
#
# Mechanical properties :
#
#
# Convention : Reuss Voigt Hill
#
# Bulk Modulus (GPa) = 27.92735 29.59407 28.76071
# Shear Modulus (GPa) = 79.38335 -57.11543 11.13396
#
# Velocity S-wave (km/s) = 6.03762 -5.12127 2.26113
# Velocity P-wave (km/s) = 7.83761 4.62388 4.47481
#
# Compressibility (1/GPa) = 0.03580720
#
# Stress axis : x y z
#
# Youngs Moduli (GPa) = 74.78117 74.78117 100.85539
#
# Poissons Ratio (x) = -0.13087 0.10975
# Poissons Ratio (y) = -0.13087 0.10975
# Poissons Ratio (z) = 0.08138 0.08138
#
# Static dielectric constant tensor:
#      x y z
#    x 1.745730 0.000000 0.000000 
#    y 0.000000 1.745730 0.000000 
#    z 0.000000 0.000000 1.855840 
# 
# From -- ./inp_files/427.got.cif
#   From: 2010.05.17/outbox.cif.g08.bks.cpg/sg175_1_cif.got.tgz:427.got - 2010.05.20 11:23:22.
