data_PCOD9581147
_publ_section_title
;
Structure prediction by ZEFSAII (Michael W. Deem and Ramdas Pophale) SiO2 
 PCOD9581147
Probable space group: P -6
;
_chemical_formula_sum "Si O2"
_cell_formula_units_Z 32
_cell_length_a 15.017698
_cell_length_b 15.017698
_cell_length_c 7.437536
_cell_angle_alpha 90.000000
_cell_angle_beta 90.000000
_cell_angle_gamma 120.000000
_cell_volume 1452.668254
_symmetry_space_group_name_H-M "P -6"
_symmetry_group_IT_number 174
_symmetry_cell_setting 'hexagonal'
loop_
_space_group_symop_operation_xyz
x,y,z
-x+y,-x,-z
-y,x-y,z
x,y,-z
-x+y,-x,z
-y,x-y,-z
loop_
_atom_site_type_symbol
_atom_site_label
_atom_site_fract_x
_atom_site_fract_y
_atom_site_fract_z
Si Si1 0.889968 0.485381 0.783268
Si Si2 0.000000 0.000000 0.721001
Si Si3 0.205413 0.001809 0.711907
Si Si4 0.265758 0.836061 0.721117
Si Si5 0.119511 0.605868 0.710198
Si Si6 0.741088 0.566757 0.216961
O O1 0.873802 0.376211 0.718213
O O2 0.804852 0.512795 0.721170
O O3 0.001913 0.574598 0.729995
O O4 0.884664 0.480122 0.000000
O O5 0.899203 0.894112 0.781063
O O6 0.000000 0.000000 0.500000
O O7 0.186336 0.981825 0.500000
O O8 0.314053 0.106710 0.732386
O O9 0.225802 0.912240 0.783933
O O10 0.265882 0.839588 0.500000
O O11 0.193579 0.719144 0.782135
O O12 0.380941 0.869909 0.782715
O O13 0.145976 0.612006 0.500000
O O14 0.738881 0.563791 0.000000
#
# Coordination Sequence:
#
# PCOD9581147 Si02
#       6
#     6   2   6   6   6   6
#     4  10  21  37  56  80 109 142 180 222 277 334
#     4   9  21  36  55  80 112 150 187 227 277 321
#     4  10  20  37  57  81 109 145 189 230 270 323
#     4   9  18  32  54  82 111 139 174 222 274 324
#     4  10  19  34  56  83 110 141 180 223 272 328
#     4  10  21  38  58  80 109 145 180 224 278 334
#
# _framework density 22.028428000000002
#
# number of rings (size 3 to 8) (size 9 to 14) (size 15 to 20)
#    0.000    2.250    1.875    0.750    2.625    3.750 
#    0.000    2.812    0.000    2.250    0.000    0.000 
#    0.000    0.000    0.000    0.000    0.000    0.000 
#
# Total GULP energy -178749.741877 kJ/mol
# GULP energy per Si atom -5585.929434 kJ/mol
# Density = 2.197829 g / cm^3
# Si number density = 22.028428 Si / 1000 Ang^3
#
#
#
# Elastic Constant Matrix: (Units=GPa)
#
#
# Indices 1 2 3 4 5 6 
#
# 1 136.2229 63.1686 -1.0465 0.0000 0.0000 0.0000
# 2 63.1686 136.2229 -1.0465 0.0000 0.0000 0.0000
# 3 -1.0465 -1.0465 64.6010 0.0000 0.0000 0.0000
# 4 0.0000 0.0000 0.0000 9.1543 0.0000 0.0000
# 5 0.0000 0.0000 0.0000 0.0000 9.1543 0.0000
# 6 0.0000 0.0000 0.0000 0.0000 0.0000 36.5271
#
#
#
# Elastic Compliance Matrix: (Units=1/GPa)
#
#
# Indices 1 2 3 4 5 6 
#
# 1 0.009352 -0.004336 0.000081 0.000000 0.000000 0.000000
# 2 -0.004336 0.009352 0.000081 0.000000 0.000000 0.000000
# 3 0.000081 0.000081 0.015482 0.000000 0.000000 0.000000
# 4 0.000000 0.000000 0.000000 0.109238 0.000000 0.000000
# 5 0.000000 0.000000 0.000000 0.000000 0.109238 0.000000
# 6 0.000000 0.000000 0.000000 0.000000 0.000000 0.027377
#
#
# Mechanical properties :
#
#
# Convention : Reuss Voigt Hill
#
# Bulk Modulus (GPa) = 38.70041 51.02200 44.86121
# Shear Modulus (GPa) = 16.83503 29.36525 23.10014
#
# Velocity S-wave (km/s) = 2.76749 3.65507 3.24180
# Velocity P-wave (km/s) = 5.27433 6.40507 5.86700
#
# Compressibility (1/GPa) = 0.02583952
#
# Stress axis : x y z
#
# Youngs Moduli (GPa) = 106.92578 106.92578 64.59005
#
# Poissons Ratio (x) = 0.46365 -0.00525
# Poissons Ratio (y) = 0.46365 -0.00525
# Poissons Ratio (z) = -0.00869 -0.00869
#
# Static dielectric constant tensor:
#      x y z
#    x 1.767750 0.000000 0.000000 
#    y 0.000000 1.767750 0.000000 
#    z 0.000000 0.000000 1.863680 
# 
# From -- ./inp_files/310.got.cif
#   From: 2010.05.17/outbox.cif.g08.bks.cpg/sg174_cif.got.tgz:310.got - 2010.05.20 11:22:48.
