data_PCOD9581767
_publ_section_title
;
Structure prediction by ZEFSAII (Michael W. Deem and Ramdas Pophale) SiO2 
 PCOD9581767
Probable space group: P 63/M
;
_chemical_formula_sum "Si O2"
_cell_formula_units_Z 66
_cell_length_a 17.562397
_cell_length_b 17.562397
_cell_length_c 13.695924
_cell_angle_alpha 90.000000
_cell_angle_beta 90.000000
_cell_angle_gamma 120.000000
_cell_volume 3658.386195
_symmetry_space_group_name_H-M "P 63/M"
_symmetry_group_IT_number 176
_symmetry_cell_setting 'hexagonal'
loop_
_space_group_symop_operation_xyz
x,y,z
x-y,x,1/2+z
-y,x-y,z
-x,-y,1/2+z
-x+y,-x,z
y,-x+y,1/2+z
-x,-y,-z
-x+y,-x,1/2-z
y,-x+y,-z
x,y,1/2-z
x-y,x,-z
-y,x-y,1/2-z
loop_
_atom_site_type_symbol
_atom_site_label
_atom_site_fract_x
_atom_site_fract_y
_atom_site_fract_z
Si Si1 0.888231 0.923104 0.250000
Si Si2 0.954385 0.460361 0.137377
Si Si3 0.003064 0.162451 0.046205
Si Si4 0.025726 0.324544 0.136831
Si Si5 0.544586 0.139144 0.943430
Si Si6 0.779694 0.518601 0.635809
O O1 0.838895 0.883980 0.150524
O O2 0.971755 0.907397 0.250000
O O3 0.930908 0.463211 0.250000
O O4 0.981902 0.385357 0.126573
O O5 0.043329 0.549653 0.108019
O O6 0.880795 0.437067 0.055755
O O7 0.992801 0.247539 0.057504
O O8 0.074435 0.164198 0.971230
O O9 0.008506 0.292654 0.250000
O O10 0.130420 0.388665 0.124446
O O11 0.639793 0.193943 0.893301
O O12 0.493569 0.192045 0.928070
O O13 0.754599 0.508362 0.750000
#
# Coordination Sequence:
#
# PCOD9581767 Si02
#       6
#     6  12  12  12  12  12
#     4  10  18  34  48  68  96 118 174 222 248 308
#     4   9  19  37  55  78 109 150 178 211 269 335
#     4  12  21  32  51  73  95 137 172 214 256 299
#     4   9  20  34  51  75 108 136 169 213 262 307
#     4  10  19  33  59  82 107 140 183 221 271 325
#     4  10  19  33  53  84 108 132 173 226 268 309
#
# _framework density 18.040741000000001
#
# number of rings (size 3 to 8) (size 9 to 14) (size 15 to 20)
#    0.182    1.818    2.727    3.273    2.545    0.000 
#    0.000    0.909    0.000    0.000    9.455    0.000 
#    0.000    0.000    0.000    0.000    0.000    0.000 
#
# Total GULP energy -367807.650706 kJ/mol
# GULP energy per Si atom -5572.843193 kJ/mol
# Density = 1.799968 g / cm^3
# Si number density = 18.040741 Si / 1000 Ang^3
#
#
#
# Elastic Constant Matrix: (Units=GPa)
#
#
# Indices 1 2 3 4 5 6 
#
# 1 24.7581 -5.4136 -3.9185 0.0000 0.0000 0.0000
# 2 -5.4136 24.7581 -3.9185 0.0000 0.0000 0.0000
# 3 -3.9185 -3.9185 75.1050 0.0000 0.0000 0.0000
# 4 0.0000 0.0000 0.0000 18.8745 0.0000 0.0000
# 5 0.0000 0.0000 0.0000 0.0000 18.8745 0.0000
# 6 0.0000 0.0000 0.0000 0.0000 0.0000 15.0858
#
#
#
# Elastic Compliance Matrix: (Units=1/GPa)
#
#
# Indices 1 2 3 4 5 6 
#
# 1 0.042977 0.009833 0.002755 0.000000 0.000000 0.000000
# 2 0.009833 0.042977 0.002755 0.000000 0.000000 0.000000
# 3 0.002755 0.002755 0.013602 0.000000 0.000000 0.000000
# 4 0.000000 0.000000 0.000000 0.052982 0.000000 0.000000
# 5 0.000000 0.000000 0.000000 0.000000 0.052982 0.000000
# 6 0.000000 0.000000 0.000000 0.000000 0.000000 0.066287
#
#
# Mechanical properties :
#
#
# Convention : Reuss Voigt Hill
#
# Bulk Modulus (GPa) = 7.67785 10.90221 9.29003
# Shear Modulus (GPa) = 17.57260 19.75840 18.66550
#
# Velocity S-wave (km/s) = 3.12436 3.31299 3.22006
# Velocity P-wave (km/s) = 4.15700 4.54871 4.35726
#
# Compressibility (1/GPa) = 0.13024480
#
# Stress axis : x y z
#
# Youngs Moduli (GPa) = 23.26817 23.26817 73.51751
#
# Poissons Ratio (x) = -0.22881 -0.20256
# Poissons Ratio (y) = -0.22881 -0.20256
# Poissons Ratio (z) = -0.06411 -0.06411
#
# Static dielectric constant tensor:
#      x y z
#    x 1.623310 0.000000 0.000000 
#    y 0.000000 1.623310 0.000000 
#    z 0.000000 0.000000 1.628910 
# 
# From -- ./inp_files/2805.got.cif
#   From: 2010.05.17/outbox.cif.g08.bks.cpg/sg176_2_cif.got.tgz:2805.got - 2010.06.03 11:36:45.
