data_PCOD9581976
_publ_section_title
;
Structure prediction by ZEFSAII (Michael W. Deem and Ramdas Pophale) SiO2 
 PCOD9581976
Probable space group: P 63/M
;
_chemical_formula_sum "Si O2"
_cell_formula_units_Z 64
_cell_length_a 16.743255
_cell_length_b 16.743255
_cell_length_c 16.484941
_cell_angle_alpha 90.000000
_cell_angle_beta 90.000000
_cell_angle_gamma 120.000000
_cell_volume 4002.191009
_symmetry_space_group_name_H-M "P 63/M"
_symmetry_group_IT_number 176
_symmetry_cell_setting 'hexagonal'
loop_
_space_group_symop_operation_xyz
x,y,z
x-y,x,1/2+z
-y,x-y,z
-x,-y,1/2+z
-x+y,-x,z
y,-x+y,1/2+z
-x,-y,-z
-x+y,-x,1/2-z
y,-x+y,-z
x,y,1/2-z
x-y,x,-z
-y,x-y,1/2-z
loop_
_atom_site_type_symbol
_atom_site_label
_atom_site_fract_x
_atom_site_fract_y
_atom_site_fract_z
Si Si1 0.620452 0.578212 0.583568
Si Si2 0.666667 0.333334 0.847833
Si Si3 0.223301 0.452628 0.348800
Si Si4 0.427879 0.394765 0.901580
Si Si5 0.839209 0.339077 0.342982
Si Si6 0.846839 0.522031 0.152286
O O1 0.716484 0.587710 0.611088
O O2 0.607579 0.594303 0.489550
O O3 0.535658 0.475293 0.605690
O O4 0.599268 0.651110 0.627484
O O5 0.666667 0.333334 0.750000
O O6 0.717681 0.278355 0.872458
O O7 0.222474 0.444715 0.250000
O O8 0.120005 0.416087 0.381378
O O9 0.369353 0.423526 0.844008
O O10 0.808997 0.334219 0.250000
O O11 0.770260 0.239003 0.378358
O O12 0.832557 0.424293 0.380461
O O13 0.847488 0.520332 0.250000
#
# Coordination Sequence:
#
# PCOD9581976 Si02
#       6
#    12   4  12  12  12  12
#     4  10  21  33  47  72 104 135 169 215 263 305
#     4   9  18  30  51  75  99 138 184 224 256 297
#     4  11  20  34  54  75 102 141 185 224 260 308
#     4  10  21  33  47  72 104 135 169 215 263 305
#     4   9  17  30  48  69  96 132 170 203 239 293
#     4   9  17  30  48  69  96 132 170 203 239 293
#
# _framework density 15.991241
#
# number of rings (size 3 to 8) (size 9 to 14) (size 15 to 20)
#    0.000    2.250    1.875    1.500    2.625    3.000 
#    0.000    0.000    0.000    0.000    0.000    0.000 
#    1.875    1.500    2.250    0.000    0.000    0.000 
#
# Total GULP energy -356480.596250 kJ/mol
# GULP energy per Si atom -5570.009316 kJ/mol
# Density = 1.595484 g / cm^3
# Si number density = 15.991241 Si / 1000 Ang^3
#
#
#
# Elastic Constant Matrix: (Units=GPa)
#
#
# Indices 1 2 3 4 5 6 
#
# 1 102.0472 46.5283 16.5892 0.0000 0.0000 0.0001
# 2 46.5283 102.0475 16.5891 0.0000 0.0000 0.0000
# 3 16.5892 16.5891 33.2454 0.0000 0.0000 0.0000
# 4 0.0000 0.0000 0.0000 14.0566 0.0000 0.0000
# 5 0.0000 0.0000 0.0000 0.0000 14.0565 0.0000
# 6 0.0001 0.0000 0.0000 0.0000 0.0000 27.7594
#
#
#
# Elastic Compliance Matrix: (Units=1/GPa)
#
#
# Indices 1 2 3 4 5 6 
#
# 1 0.012793 -0.005219 -0.003780 0.000000 0.000000 0.000000
# 2 -0.005219 0.012793 -0.003780 0.000000 0.000000 0.000000
# 3 -0.003780 -0.003780 0.033851 0.000000 0.000000 0.000000
# 4 0.000000 0.000000 0.000000 0.071141 0.000000 0.000000
# 5 0.000000 0.000000 0.000000 0.000000 0.071141 0.000000
# 6 0.000000 0.000000 0.000000 0.000000 0.000000 0.036024
#
#
# Mechanical properties :
#
#
# Convention : Reuss Voigt Hill
#
# Bulk Modulus (GPa) = 29.51424 44.08371 36.79898
# Shear Modulus (GPa) = 18.20870 21.68339 19.94605
#
# Velocity S-wave (km/s) = 3.37808 3.68632 3.53556
# Velocity P-wave (km/s) = 5.80618 6.76357 6.30308
#
# Compressibility (1/GPa) = 0.03388195
#
# Stress axis : x y z
#
# Youngs Moduli (GPa) = 78.16625 78.16657 29.54091
#
# Poissons Ratio (x) = 0.40792 0.11166
# Poissons Ratio (y) = 0.40792 0.11165
# Poissons Ratio (z) = 0.29544 0.29544
#
# Static dielectric constant tensor:
#      x y z
#    x 1.538640 0.000000 0.000000 
#    y 0.000000 1.538640 0.000000 
#    z 0.000000 0.000000 1.910150 
# 
# From -- ./inp_files/3285.got.cif
#   From: 2010.05.17/outbox.cif.g08.bks.cpg/sg176_2_cif.got.tgz:3285.got - 2010.06.03 11:36:45.
