data_PCOD9581169
_publ_section_title
;
Structure prediction by ZEFSAII (Michael W. Deem and Ramdas Pophale) SiO2 
 PCOD9581169
Probable space group: P -6
;
_chemical_formula_sum "Si O2"
_cell_formula_units_Z 32
_cell_length_a 16.724768
_cell_length_b 16.724768
_cell_length_c 8.739031
_cell_angle_alpha 90.000000
_cell_angle_beta 90.000000
_cell_angle_gamma 120.000000
_cell_volume 2116.967135
_symmetry_space_group_name_H-M "P -6"
_symmetry_group_IT_number 174
_symmetry_cell_setting 'hexagonal'
loop_
_space_group_symop_operation_xyz
x,y,z
-x+y,-x,-z
-y,x-y,z
x,y,-z
-x+y,-x,z
-y,x-y,-z
loop_
_atom_site_type_symbol
_atom_site_label
_atom_site_fract_x
_atom_site_fract_y
_atom_site_fract_z
Si Si1 0.093344 0.378265 0.183623
Si Si2 0.822833 0.820815 0.317059
Si Si3 0.284767 0.386147 0.817626
Si Si4 0.434550 0.872560 0.681808
Si Si5 0.172640 0.172293 0.183319
Si Si6 0.333335 0.666668 0.816742
O O1 0.025921 0.278144 0.253638
O O2 0.197804 0.400384 0.221716
O O3 0.079225 0.459198 0.250282
O O4 0.085958 0.374415 0.000000
O O5 0.822760 0.821298 0.500000
O O6 0.902188 0.803105 0.252929
O O7 0.842985 0.920261 0.254791
O O8 0.375662 0.459016 0.729942
O O9 0.248679 0.278864 0.785305
O O10 0.300182 0.401677 0.000000
O O11 0.424753 0.865860 0.500000
O O12 0.385001 0.770560 0.755353
O O13 0.161587 0.161335 0.000000
O O14 0.333334 0.666668 0.000000
#
# Coordination Sequence:
#
# PCOD9581169 Si02
#       6
#     6   6   6   6   6   2
#     4  10  20  34  50  67  95 131 165 196 236 289
#     4  11  21  33  50  73  99 124 160 205 248 282
#     4   9  19  33  49  67  92 128 164 198 235 285
#     4  12  22  31  47  71  98 127 164 205 242 278
#     4  10  20  35  52  69  94 129 167 197 239 293
#     4  12  22  32  46  63  94 137 172 195 232 287
#
# _framework density 15.115963000000001
#
# number of rings (size 3 to 8) (size 9 to 14) (size 15 to 20)
#    0.000    1.500    1.875    6.562    0.000    3.750 
#    0.000    0.000    0.000    0.000    0.000    0.000 
#    1.875    0.000    3.375    0.000    3.375    0.000 
#
# Total GULP energy -178734.081820 kJ/mol
# GULP energy per Si atom -5585.440057 kJ/mol
# Density = 1.508156 g / cm^3
# Si number density = 15.115963 Si / 1000 Ang^3
#
#
#
# Elastic Constant Matrix: (Units=GPa)
#
#
# Indices 1 2 3 4 5 6 
#
# 1 101.5279 51.6409 58.7610 0.0000 0.0000 -0.0001
# 2 51.6409 101.5287 58.7607 0.0000 0.0000 0.0000
# 3 58.7610 58.7607 116.1009 0.0000 0.0000 0.0001
# 4 0.0000 0.0000 0.0000 19.0260 0.0003 0.0000
# 5 0.0000 0.0000 0.0000 0.0003 19.0266 0.0000
# 6 -0.0001 0.0000 0.0001 0.0000 0.0000 24.9434
#
#
#
# Elastic Compliance Matrix: (Units=1/GPa)
#
#
# Indices 1 2 3 4 5 6 
#
# 1 0.015359 -0.004686 -0.005402 0.000000 0.000000 0.000000
# 2 -0.004686 0.015359 -0.005402 0.000000 0.000000 0.000000
# 3 -0.005402 -0.005402 0.014081 0.000000 0.000000 0.000000
# 4 0.000000 0.000000 0.000000 0.052560 -0.000001 0.000000
# 5 0.000000 0.000000 0.000000 -0.000001 0.052558 0.000000
# 6 0.000000 0.000000 0.000000 0.000000 0.000000 0.040091
#
#
# Mechanical properties :
#
#
# Convention : Reuss Voigt Hill
#
# Bulk Modulus (GPa) = 72.35803 73.05365 72.70584
# Shear Modulus (GPa) = 22.16360 22.59887 22.38123
#
# Velocity S-wave (km/s) = 3.83330 3.87076 3.85208
# Velocity P-wave (km/s) = 8.21978 8.27108 8.24547
#
# Compressibility (1/GPa) = 0.01382017
#
# Stress axis : x y z
#
# Youngs Moduli (GPa) = 65.10637 65.10733 71.01566
#
# Poissons Ratio (x) = 0.30508 0.38364
# Poissons Ratio (y) = 0.30507 0.38363
# Poissons Ratio (z) = 0.35172 0.35171
#
# Static dielectric constant tensor:
#      x y z
#    x 1.497910 0.000000 0.000000 
#    y 0.000000 1.497910 0.000000 
#    z 0.000000 0.000000 1.498290 
# 
# From -- ./inp_files/333.got.cif
#   From: 2010.05.17/outbox.cif.g08.bks.cpg/sg174_cif.got.tgz:333.got - 2010.05.20 11:22:48.
