data_PCOD9581024
_publ_section_title
;
Structure prediction by ZEFSAII (Michael W. Deem and Ramdas Pophale) SiO2 
 PCOD9581024
Probable space group: P 63
;
_chemical_formula_sum "Si O2"
_cell_formula_units_Z 48
_cell_length_a 14.314971
_cell_length_b 14.314971
_cell_length_c 11.074326
_cell_angle_alpha 90.000000
_cell_angle_beta 90.000000
_cell_angle_gamma 120.000000
_cell_volume 1965.300120
_symmetry_space_group_name_H-M "P 63"
_symmetry_group_IT_number 173
_symmetry_cell_setting 'hexagonal'
loop_
_space_group_symop_operation_xyz
x,y,z
x-y,x,1/2+z
-y,x-y,z
-x,-y,1/2+z
-x+y,-x,z
y,-x+y,1/2+z
loop_
_atom_site_type_symbol
_atom_site_label
_atom_site_fract_x
_atom_site_fract_y
_atom_site_fract_z
Si Si1 0.095002 0.731937 0.019950
Si Si2 0.394639 0.485086 0.822474
Si Si3 0.130302 0.795875 0.667949
Si Si4 0.117740 0.589941 0.221230
Si Si5 0.116627 0.940296 0.089333
Si Si6 0.833210 0.829167 0.819285
Si Si7 0.873250 0.527772 0.502207
Si Si8 0.402850 0.114974 0.927746
O O1 0.102722 0.668485 0.131941
O O2 0.057613 0.814718 0.054109
O O3 0.032315 0.647069 0.916348
O O4 0.219012 0.810421 0.979500
O O5 0.294110 0.439985 0.735032
O O6 0.497026 0.499064 0.753676
O O7 0.432433 0.589264 0.905685
O O8 0.160580 0.896010 0.757294
O O9 0.178688 0.794218 0.536683
O O10 0.007296 0.765869 0.631622
O O11 0.167156 0.657592 0.344029
O O12 0.159736 0.527820 0.134758
O O13 0.057361 0.926056 0.217850
O O14 0.121240 0.989894 0.955528
O O15 0.780868 0.701571 0.843760
O O16 0.002287 0.609766 0.481142
#
# Coordination Sequence:
#
# PCOD9581024 Si02
#       8
#     6   6   6   6   6   6   6   6
#     4  11  19  38  63  89 135 174 218 282 342 415
#     4  10  20  36  64  95 124 172 225 280 339 419
#     4  11  21  40  67  93 133 167 224 282 344 411
#     4  10  20  35  61  92 129 166 226 279 336 415
#     4  11  23  41  65  95 131 176 233 281 355 428
#     4  11  23  41  65  95 132 176 228 286 349 419
#     4  10  19  35  59  93 131 165 222 278 342 418
#     4  10  19  36  60  94 125 166 218 278 327 423
#
# _framework density 24.423748
#
# number of rings (size 3 to 8) (size 9 to 14) (size 15 to 20)
#    0.000    1.500    6.250    0.000    0.000    2.000 
#    6.750    0.000    0.000    0.000    0.000    0.000 
#    0.000    0.000    0.000    0.000    0.000    0.000 
#
# Total GULP energy -267316.752273 kJ/mol
# GULP energy per Si atom -5569.099006 kJ/mol
# Density = 2.436816 g / cm^3
# Si number density = 24.423748 Si / 1000 Ang^3
#
#
#
# Elastic Constant Matrix: (Units=GPa)
#
#
# Indices 1 2 3 4 5 6 
#
# 1 42.6287 8.1227 34.4413 0.0000 0.0000 0.0000
# 2 8.1227 42.6287 34.4413 0.0000 0.0000 0.0000
# 3 34.4413 34.4413 179.4554 0.0000 0.0000 0.0000
# 4 0.0000 0.0000 0.0000 41.0672 0.0000 0.0000
# 5 0.0000 0.0000 0.0000 0.0000 41.0672 0.0000
# 6 0.0000 0.0000 0.0000 0.0000 0.0000 17.2530
#
#
#
# Elastic Compliance Matrix: (Units=1/GPa)
#
#
# Indices 1 2 3 4 5 6 
#
# 1 0.027812 -0.001168 -0.005114 0.000000 0.000000 0.000000
# 2 -0.001168 0.027812 -0.005114 0.000000 0.000000 0.000000
# 3 -0.005114 -0.005114 0.007535 0.000000 0.000000 0.000000
# 4 0.000000 0.000000 0.000000 0.024350 0.000000 0.000000
# 5 0.000000 0.000000 0.000000 0.000000 0.024350 0.000000
# 6 0.000000 0.000000 0.000000 0.000000 0.000000 0.057961
#
#
# Mechanical properties :
#
#
# Convention : Reuss Voigt Hill
#
# Bulk Modulus (GPa) = 24.77114 46.52478 35.64796
# Shear Modulus (GPa) = 24.26374 32.39131 28.32753
#
# Velocity S-wave (km/s) = 3.15532 3.64568 3.40933
# Velocity P-wave (km/s) = 4.84138 6.06726 5.48866
#
# Compressibility (1/GPa) = 0.04036956
#
# Stress axis : x y z
#
# Youngs Moduli (GPa) = 35.95513 35.95513 132.70980
#
# Poissons Ratio (x) = 0.04200 0.67863
# Poissons Ratio (y) = 0.04200 0.67863
# Poissons Ratio (z) = 0.18386 0.18386
#
# Static dielectric constant tensor:
#      x y z
#    x 1.963140 0.000000 0.000000 
#    y 0.000000 1.963140 0.000000 
#    z 0.000000 0.000000 2.050730 
# 
# From -- ./inp_files/671.got.cif
#   From: 2010.05.17/outbox.cif.g08.bks.cpg/sg173_cif.got.tgz:671.got - 2010.05.20 11:21:53.
