data_PCOD9581211
_publ_section_title
;
Structure prediction by ZEFSAII (Michael W. Deem and Ramdas Pophale) SiO2 
 PCOD9581211
Probable space group: P -6
;
_chemical_formula_sum "Si O2"
_cell_formula_units_Z 42
_cell_length_a 8.799885
_cell_length_b 8.799885
_cell_length_c 33.101924
_cell_angle_alpha 90.000000
_cell_angle_beta 90.000000
_cell_angle_gamma 120.000000
_cell_volume 2219.922752
_symmetry_space_group_name_H-M "P -6"
_symmetry_group_IT_number 174
_symmetry_cell_setting 'hexagonal'
loop_
_space_group_symop_operation_xyz
x,y,z
-x+y,-x,-z
-y,x-y,z
x,y,-z
-x+y,-x,z
-y,x-y,-z
loop_
_atom_site_type_symbol
_atom_site_label
_atom_site_fract_x
_atom_site_fract_y
_atom_site_fract_z
Si Si1 0.876026 0.352990 0.257408
Si Si2 0.874888 0.350184 0.834048
Si Si3 0.660006 0.663219 0.918835
Si Si4 0.346656 0.872920 0.330729
Si Si5 0.993422 0.670911 0.547908
Si Si6 0.329057 0.327084 0.951807
Si Si7 0.657191 0.661369 0.419338
O O1 0.938815 0.357391 0.211575
O O2 0.012447 0.378838 0.291692
O O3 0.683431 0.179330 0.261493
O O4 0.502556 0.824217 0.330667
O O5 0.822818 0.503076 0.837990
O O6 0.994026 0.356959 0.870603
O O7 0.478968 0.520551 0.939162
O O8 0.708073 0.855040 0.932916
O O9 0.809772 0.623304 0.934161
O O10 0.353474 0.971189 0.371752
O O11 0.979219 0.685532 0.500000
O O12 0.851719 0.704772 0.570176
O O13 0.958987 0.479637 0.559651
O O14 0.186419 0.813066 0.562810
O O15 0.314704 0.311239 0.000000
#
# Coordination Sequence:
#
# PCOD9581211 Si02
#       7
#     6   6   6   6   6   6   6
#     4   8  18  34  67  92 117 162 206 253 301 380
#     4   8  15  38  63  91 122 158 206 248 316 382
#     4  12  23  42  63  87 126 168 209 270 319 382
#     4  10  21  40  57  93 132 161 203 253 317 373
#     4  12  24  42  64  91 124 166 220 269 325 377
#     4  12  24  39  60  89 121 164 217 267 323 378
#     4  12  25  43  64  93 128 171 211 272 319 380
#
# _framework density 18.919575999999999
#
# number of rings (size 3 to 8) (size 9 to 14) (size 15 to 20)
#    0.857    0.571    2.857    4.286    2.000    0.000 
#    2.571    0.000    0.000    0.571    0.000    0.000 
#    0.000    0.000    0.000    0.000    0.000    0.000 
#
# Total GULP energy -234363.015923 kJ/mol
# GULP energy per Si atom -5580.071808 kJ/mol
# Density = 1.887651 g / cm^3
# Si number density = 18.919576 Si / 1000 Ang^3
#
#
#
# Elastic Constant Matrix: (Units=GPa)
#
#
# Indices 1 2 3 4 5 6 
#
# 1 48.0185 -14.9117 34.0122 0.0000 0.0000 0.0000
# 2 -14.9117 48.0185 34.0122 0.0000 0.0000 0.0000
# 3 34.0122 34.0122 201.2283 0.0000 0.0000 0.0000
# 4 0.0000 0.0000 0.0000 -420.8586 0.0001 0.0000
# 5 0.0000 0.0000 0.0000 0.0001 -420.8586 0.0000
# 6 0.0000 0.0000 0.0000 0.0000 0.0000 31.4651
#
#
#
# Elastic Compliance Matrix: (Units=1/GPa)
#
#
# Indices 1 2 3 4 5 6 
#
# 1 0.031084 0.015193 -0.007822 0.000000 0.000000 0.000000
# 2 0.015193 0.031084 -0.007822 0.000000 0.000000 0.000000
# 3 -0.007822 -0.007822 0.007614 0.000000 0.000000 0.000000
# 4 0.000000 0.000000 0.000000 -0.002376 0.000000 0.000000
# 5 0.000000 0.000000 0.000000 0.000000 -0.002376 0.000000
# 6 0.000000 0.000000 0.000000 0.000000 0.000000 0.031781
#
#
# Mechanical properties :
#
#
# Convention : Reuss Voigt Hill
#
# Bulk Modulus (GPa) = 14.51803 44.83231 29.67517
# Shear Modulus (GPa) = 41.43485 -145.77359 -52.16937
#
# Velocity S-wave (km/s) = 4.68488 -8.78728 -5.25682
# Velocity P-wave (km/s) = 6.07900 8.89986 4.59636
#
# Compressibility (1/GPa) = 0.06887988
#
# Stress axis : x y z
#
# Youngs Moduli (GPa) = 32.17116 32.17116 131.34345
#
# Poissons Ratio (x) = -0.48878 1.02735
# Poissons Ratio (y) = -0.48878 1.02735
# Poissons Ratio (z) = 0.25164 0.25164
#
# Static dielectric constant tensor:
#      x y z
#    x 1.637780 0.000000 0.000000 
#    y 0.000000 1.637780 0.000000 
#    z 0.000000 0.000000 1.631400 
# 
# From -- ./inp_files/1097.got.cif
#   From: 2010.05.17/outbox.cif.g08.bks.cpg/sg174_cif.got.tgz:1097.got - 2010.05.20 11:22:48.
