data_PCOD9581473
_publ_section_title
;
Structure prediction by ZEFSAII (Michael W. Deem and Ramdas Pophale) SiO2 
 PCOD9581473
Probable space group: P 6/M
;
_chemical_formula_sum "Si O2"
_cell_formula_units_Z 60
_cell_length_a 22.428916
_cell_length_b 22.428916
_cell_length_c 7.612534
_cell_angle_alpha 90.000000
_cell_angle_beta 90.000000
_cell_angle_gamma 120.000000
_cell_volume 3316.472847
_symmetry_space_group_name_H-M "P 6/M"
_symmetry_group_IT_number 175
_symmetry_cell_setting 'hexagonal'
loop_
_space_group_symop_operation_xyz
x,y,z
x-y,x,z
-y,x-y,z
-x,-y,z
-x+y,-x,z
y,-x+y,z
-x,-y,-z
-x+y,-x,-z
y,-x+y,-z
x,y,-z
x-y,x,-z
-y,x-y,-z
loop_
_atom_site_type_symbol
_atom_site_label
_atom_site_fract_x
_atom_site_fract_y
_atom_site_fract_z
Si Si1 0.722078 0.135751 0.705981
Si Si2 0.275508 0.275512 0.288927
Si Si3 0.333686 0.809099 0.000000
Si Si4 0.333663 0.524576 0.000000
Si Si5 0.135609 0.999990 0.210016
Si Si6 0.722114 0.586338 0.705981
O O1 0.701794 0.127873 0.500000
O O2 0.723681 0.068272 0.768333
O O3 0.799015 0.200954 0.718697
O O4 0.675364 0.153335 0.829702
O O5 0.277050 0.277053 0.500000
O O6 0.206246 0.206233 0.240256
O O7 0.276278 0.344578 0.231671
O O8 0.404664 0.809311 0.000000
O O9 0.268737 0.731279 0.000000
O O10 0.324606 0.477958 0.829702
O O11 0.138725 0.069355 0.278885
O O12 0.127452 0.999990 0.000000
O O13 0.701830 0.573934 0.500000
#
# Coordination Sequence:
#
# PCOD9581473 Si02
#       6
#    12  12   6   6  12  12
#     4   9  19  35  54  79 111 143 178 224 271 314
#     4  10  20  35  55  78 104 139 185 228 268 319
#     4  10  21  37  59  83 108 138 174 215 263 323
#     4  10  21  37  59  83 108 138 174 215 263 323
#     4  10  21  34  50  74 107 145 185 230 277 321
#     4   9  19  35  54  79 111 143 178 224 271 314
#
# _framework density 18.09151
#
# number of rings (size 3 to 8) (size 9 to 14) (size 15 to 20)
#    0.000    2.400    0.000    1.600    2.800    4.000 
#    0.000    2.000    0.000    7.200    0.000    0.000 
#    0.000    0.000    0.000    0.000    0.000    0.000 
#
# Total GULP energy -334841.919902 kJ/mol
# GULP energy per Si atom -5580.698665 kJ/mol
# Density = 1.805033 g / cm^3
# Si number density = 18.091510 Si / 1000 Ang^3
#
#
#
# Elastic Constant Matrix: (Units=GPa)
#
#
# Indices 1 2 3 4 5 6 
#
# 1 157.2780 97.9498 55.7854 0.0000 0.0000 0.0000
# 2 97.9498 157.2780 55.7854 0.0000 0.0000 0.0000
# 3 55.7854 55.7854 78.6532 0.0000 0.0000 0.0000
# 4 0.0000 0.0000 0.0000 181.8744 0.0000 0.0000
# 5 0.0000 0.0000 0.0000 0.0000 181.8744 0.0000
# 6 0.0000 0.0000 0.0000 0.0000 0.0000 29.6641
#
#
#
# Elastic Compliance Matrix: (Units=1/GPa)
#
#
# Indices 1 2 3 4 5 6 
#
# 1 0.011267 -0.005588 -0.004028 0.000000 0.000000 0.000000
# 2 -0.005588 0.011267 -0.004028 0.000000 0.000000 0.000000
# 3 -0.004028 -0.004028 0.018427 0.000000 0.000000 0.000000
# 4 0.000000 0.000000 0.000000 0.005498 0.000000 0.000000
# 5 0.000000 0.000000 0.000000 0.000000 0.005498 0.000000
# 6 0.000000 0.000000 0.000000 0.000000 0.000000 0.033711
#
#
# Mechanical properties :
#
#
# Convention : Reuss Voigt Hill
#
# Bulk Modulus (GPa) = 73.13098 90.25006 81.69052
# Shear Modulus (GPa) = 42.54800 90.92851 66.73825
#
# Velocity S-wave (km/s) = 4.85482 7.09714 6.08024
# Velocity P-wave (km/s) = 8.48153 10.82372 9.72340
#
# Compressibility (1/GPa) = 0.01367410
#
# Stress axis : x y z
#
# Youngs Moduli (GPa) = 88.75429 88.75429 54.26703
#
# Poissons Ratio (x) = 0.49599 0.21857
# Poissons Ratio (y) = 0.49599 0.21857
# Poissons Ratio (z) = 0.35748 0.35748
#
# Static dielectric constant tensor:
#      x y z
#    x 1.592590 0.000000 0.000000 
#    y 0.000000 1.592590 0.000000 
#    z 0.000000 0.000000 1.652900 
# 
# From -- ./inp_files/935.got.cif
#   From: 2010.05.17/outbox.cif.g08.bks.cpg/sg175_1_cif.got.tgz:935.got - 2010.05.20 11:23:22.
