data_PCOD9581912
_publ_section_title
;
Structure prediction by ZEFSAII (Michael W. Deem and Ramdas Pophale) SiO2 
 PCOD9581912
Probable space group: P 63/M
;
_chemical_formula_sum "Si O2"
_cell_formula_units_Z 60
_cell_length_a 15.321983
_cell_length_b 15.321983
_cell_length_c 11.596570
_cell_angle_alpha 90.000000
_cell_angle_beta 90.000000
_cell_angle_gamma 120.000000
_cell_volume 2357.708655
_symmetry_space_group_name_H-M "P 63/M"
_symmetry_group_IT_number 176
_symmetry_cell_setting 'hexagonal'
loop_
_space_group_symop_operation_xyz
x,y,z
x-y,x,1/2+z
-y,x-y,z
-x,-y,1/2+z
-x+y,-x,z
y,-x+y,1/2+z
-x,-y,-z
-x+y,-x,1/2-z
y,-x+y,-z
x,y,1/2-z
x-y,x,-z
-y,x-y,1/2-z
loop_
_atom_site_type_symbol
_atom_site_label
_atom_site_fract_x
_atom_site_fract_y
_atom_site_fract_z
Si Si1 0.646720 0.055917 0.250000
Si Si2 0.955540 0.604210 0.750000
Si Si3 0.390061 0.384528 0.005241
Si Si4 0.533591 0.811455 0.750000
Si Si5 0.003674 0.820148 0.469385
Si Si6 0.219252 0.658744 0.993946
Si Si7 0.820602 0.704656 0.750000
O O1 0.605779 0.057939 0.122095
O O2 0.652676 0.953762 0.250000
O O3 0.751915 0.158009 0.250000
O O4 0.956083 0.561174 0.621558
O O5 0.072293 0.692261 0.750000
O O6 0.869178 0.633886 0.750000
O O7 0.292804 0.272260 0.003959
O O8 0.351838 0.464905 0.027131
O O9 0.460607 0.783811 0.858252
O O10 0.079606 0.853794 0.361582
O O11 0.904923 0.826568 0.441311
O O12 0.243615 0.570646 0.029022
#
# Coordination Sequence:
#
# PCOD9581912 Si02
#       7
#     6   6  12   6  12  12   6
#     4  10  24  36  58  95 138 173 209 265 349 413
#     4  10  20  34  60  87 118 172 225 265 318 377
#     4  10  22  39  62  92 128 174 217 271 337 405
#     4  10  20  36  68  94 125 167 223 294 334 389
#     4  11  23  36  56  84 127 173 224 265 321 391
#     4   9  20  39  68  97 125 164 224 288 344 395
#     4  10  22  34  54  84 125 170 217 264 317 393
#
# _framework density 25.448437999999999
#
# number of rings (size 3 to 8) (size 9 to 14) (size 15 to 20)
#    0.400    1.600    2.000    0.800   11.200    0.800 
#    0.000    2.000    0.000    5.200    0.000    0.000 
#    0.000    0.000    0.000    0.000    0.000    0.000 
#
# Total GULP energy -334558.356317 kJ/mol
# GULP energy per Si atom -5575.972605 kJ/mol
# Density = 2.539052 g / cm^3
# Si number density = 25.448438 Si / 1000 Ang^3
#
#
#
# Elastic Constant Matrix: (Units=GPa)
#
#
# Indices 1 2 3 4 5 6 
#
# 1 125.5851 30.8740 27.1526 0.0000 0.0000 0.0000
# 2 30.8740 125.5851 27.1526 0.0000 0.0000 0.0000
# 3 27.1526 27.1526 132.1950 0.0000 0.0000 0.0000
# 4 0.0000 0.0000 0.0000 71.6328 0.0000 0.0000
# 5 0.0000 0.0000 0.0000 0.0000 71.6328 0.0000
# 6 0.0000 0.0000 0.0000 0.0000 0.0000 47.3556
#
#
#
# Elastic Compliance Matrix: (Units=1/GPa)
#
#
# Indices 1 2 3 4 5 6 
#
# 1 0.008720 -0.001838 -0.001414 0.000000 0.000000 0.000000
# 2 -0.001838 0.008720 -0.001414 0.000000 0.000000 0.000000
# 3 -0.001414 -0.001414 0.008145 0.000000 0.000000 0.000000
# 4 0.000000 0.000000 0.000000 0.013960 0.000000 0.000000
# 5 0.000000 0.000000 0.000000 0.000000 0.013960 0.000000
# 6 0.000000 0.000000 0.000000 0.000000 0.000000 0.021117
#
#
# Mechanical properties :
#
#
# Convention : Reuss Voigt Hill
#
# Bulk Modulus (GPa) = 61.51891 61.52485 61.52188
# Shear Modulus (GPa) = 55.94608 58.00331 56.97469
#
# Velocity S-wave (km/s) = 4.69381 4.77933 4.73676
# Velocity P-wave (km/s) = 7.32135 7.39491 7.35822
#
# Compressibility (1/GPa) = 0.01625516
#
# Stress axis : x y z
#
# Youngs Moduli (GPa) = 114.67563 114.67563 122.77061
#
# Poissons Ratio (x) = 0.21079 0.17354
# Poissons Ratio (y) = 0.21079 0.17354
# Poissons Ratio (z) = 0.16210 0.16210
#
# Static dielectric constant tensor:
#      x y z
#    x 1.988290 0.000000 0.000000 
#    y 0.000000 1.988290 0.000000 
#    z 0.000000 0.000000 2.125060 
# 
# From -- ./inp_files/1949.got.cif
#   From: 2010.05.17/outbox.cif.g08.bks.cpg/sg176_1_cif.got.tgz:1949.got - 2010.06.03 11:36:45.
