data_PCOD9581114
_publ_section_title
;
Structure prediction by ZEFSAII (Michael W. Deem and Ramdas Pophale) SiO2 
 PCOD9581114
Probable space group: P 63
;
_chemical_formula_sum "Si O2"
_cell_formula_units_Z 30
_cell_length_a 13.751669
_cell_length_b 13.751669
_cell_length_c 7.132646
_cell_angle_alpha 90.000000
_cell_angle_beta 90.000000
_cell_angle_gamma 120.000000
_cell_volume 1168.132542
_symmetry_space_group_name_H-M "P 63"
_symmetry_group_IT_number 173
_symmetry_cell_setting 'hexagonal'
loop_
_space_group_symop_operation_xyz
x,y,z
x-y,x,1/2+z
-y,x-y,z
-x,-y,1/2+z
-x+y,-x,z
y,-x+y,1/2+z
loop_
_atom_site_type_symbol
_atom_site_label
_atom_site_fract_x
_atom_site_fract_y
_atom_site_fract_z
Si Si1 0.118336 0.891497 0.493660
Si Si2 0.263388 0.467832 0.603722
Si Si3 0.874720 0.341595 0.700976
Si Si4 0.577644 0.112977 0.331840
Si Si5 0.132345 0.883281 0.089731
O O1 0.177742 0.836509 0.604342
O O2 0.178806 0.930442 0.294795
O O3 0.991540 0.791101 0.461284
O O4 0.142610 0.006750 0.581922
O O5 0.295212 0.501394 0.384335
O O6 0.369483 0.476430 0.709883
O O7 0.214303 0.530711 0.727172
O O8 0.860791 0.419284 0.545008
O O9 0.867930 0.234058 0.590598
O O10 0.997341 0.420746 0.794497
#
# Coordination Sequence:
#
# PCOD9581114 Si02
#       5
#     6   6   6   6   6
#     4  11  24  42  71 108 160 202 259 318 396 485
#     4  11  27  47  76 115 155 209 281 331 407 488
#     4  11  26  47  79 113 162 213 271 336 415 492
#     4  12  25  49  78 111 159 212 271 343 406 487
#     4  11  24  43  70 113 156 210 254 320 398 488
#
# _framework density 25.682015
#
# number of rings (size 3 to 8) (size 9 to 14) (size 15 to 20)
#    0.000    0.800    4.000    2.000    5.600    1.600 
#    0.000    0.000    0.000    0.000    0.000    0.000 
#    0.000    0.000    0.000    0.000    0.000    0.000 
#
# Total GULP energy -167566.803687 kJ/mol
# GULP energy per Si atom -5585.560123 kJ/mol
# Density = 2.562356 g / cm^3
# Si number density = 25.682015 Si / 1000 Ang^3
#
#
#
# Elastic Constant Matrix: (Units=GPa)
#
#
# Indices 1 2 3 4 5 6 
#
# 1 82.2371 35.4166 50.9466 0.0000 0.0000 0.0000
# 2 35.4166 82.2371 50.9466 0.0000 0.0000 0.0000
# 3 50.9466 50.9466 129.3869 0.0000 0.0000 0.0000
# 4 0.0000 0.0000 0.0000 32.5214 0.0000 0.0000
# 5 0.0000 0.0000 0.0000 0.0000 32.5214 0.0000
# 6 0.0000 0.0000 0.0000 0.0000 0.0000 23.4102
#
#
#
# Elastic Compliance Matrix: (Units=1/GPa)
#
#
# Indices 1 2 3 4 5 6 
#
# 1 0.017128 -0.004230 -0.005079 0.000000 0.000000 0.000000
# 2 -0.004230 0.017128 -0.005079 0.000000 0.000000 0.000000
# 3 -0.005079 -0.005079 0.011728 0.000000 0.000000 0.000000
# 4 0.000000 0.000000 0.000000 0.030749 0.000000 0.000000
# 5 0.000000 0.000000 0.000000 0.000000 0.030749 0.000000
# 6 0.000000 0.000000 0.000000 0.000000 0.000000 0.042716
#
#
# Mechanical properties :
#
#
# Convention : Reuss Voigt Hill
#
# Bulk Modulus (GPa) = 58.10745 63.16451 60.63598
# Shear Modulus (GPa) = 27.06952 28.12734 27.59843
#
# Velocity S-wave (km/s) = 3.25010 3.31299 3.28170
# Velocity P-wave (km/s) = 6.06292 6.26760 6.16611
#
# Compressibility (1/GPa) = 0.01720950
#
# Stress axis : x y z
#
# Youngs Moduli (GPa) = 58.38403 58.38403 85.26490
#
# Poissons Ratio (x) = 0.24698 0.43302
# Poissons Ratio (y) = 0.24698 0.43302
# Poissons Ratio (z) = 0.29651 0.29651
#
# Static dielectric constant tensor:
#      x y z
#    x 2.075360 0.000000 0.000000 
#    y 0.000000 2.075360 0.000000 
#    z 0.000000 0.000000 1.992680 
# 
# From -- ./inp_files/505.got.cif
#   From: 2010.05.17/outbox.cif.g08.bks.cpg/sg173_cif.got.tgz:505.got - 2010.05.20 11:21:53.
