data_PCOD9581404
_publ_section_title
;
Structure prediction by ZEFSAII (Michael W. Deem and Ramdas Pophale) SiO2 
 PCOD9581404
Probable space group: P 6/M
;
_chemical_formula_sum "Si O2"
_cell_formula_units_Z 72
_cell_length_a 23.396004
_cell_length_b 23.396004
_cell_length_c 7.700114
_cell_angle_alpha 90.000000
_cell_angle_beta 90.000000
_cell_angle_gamma 120.000000
_cell_volume 3650.153771
_symmetry_space_group_name_H-M "P 6/M"
_symmetry_group_IT_number 175
_symmetry_cell_setting 'hexagonal'
loop_
_space_group_symop_operation_xyz
x,y,z
x-y,x,z
-y,x-y,z
-x,-y,z
-x+y,-x,z
y,-x+y,z
-x,-y,-z
-x+y,-x,-z
y,-x+y,-z
x,y,-z
x-y,x,-z
-y,x-y,-z
loop_
_atom_site_type_symbol
_atom_site_label
_atom_site_fract_x
_atom_site_fract_y
_atom_site_fract_z
Si Si1 0.659898 0.198433 0.787002
Si Si2 0.206708 0.673228 0.790813
Si Si3 0.338583 0.930579 0.790538
Si Si4 0.601311 0.923040 0.299445
Si Si5 0.279166 0.204245 0.213806
Si Si6 0.266957 0.070593 0.199592
O O1 0.600136 0.209092 0.730104
O O2 0.730350 0.258776 0.729977
O O3 0.649606 0.127924 0.730009
O O4 0.660082 0.198299 0.000000
O O5 0.137757 0.668094 0.744063
O O6 0.210583 0.673879 0.000000
O O7 0.266061 0.916272 0.734594
O O8 0.389992 0.005191 0.735753
O O9 0.338922 0.930029 0.000000
O O10 0.615388 0.919757 0.500000
O O11 0.659334 0.918831 0.199610
O O12 0.268588 0.134639 0.276454
O O13 0.223658 0.221282 0.274467
O O14 0.279583 0.204470 0.000000
O O15 0.245716 0.067076 0.000000
#
# Coordination Sequence:
#
# PCOD9581404 Si02
#       6
#    12  12  12  12  12  12
#     4   9  18  32  56  81  99 124 164 203 240 285
#     4  10  19  35  56  78 101 127 160 202 241 286
#     4   9  17  32  51  73  97 127 162 199 241 288
#     4  11  22  34  48  72 100 130 163 201 248 293
#     4   8  14  25  47  72  95 123 159 197 239 285
#     4   9  16  30  50  72  96 127 163 202 242 289
#
# _framework density 19.725194999999999
#
# number of rings (size 3 to 8) (size 9 to 14) (size 15 to 20)
#    0.000    2.667    0.000    3.833    0.000    4.667 
#    0.000   12.500    0.000    0.333    0.000    2.333 
#    0.000    0.000    0.000    6.000    0.000    6.667 
#
# Total GULP energy -401729.096658 kJ/mol
# GULP energy per Si atom -5579.570787 kJ/mol
# Density = 1.968030 g / cm^3
# Si number density = 19.725195 Si / 1000 Ang^3
#
#
#
# Elastic Constant Matrix: (Units=GPa)
#
#
# Indices 1 2 3 4 5 6 
#
# 1 137.8508 99.8755 -1.4081 0.0000 0.0000 0.0000
# 2 99.8755 137.8508 -1.4081 0.0000 0.0000 0.0000
# 3 -1.4081 -1.4081 34.7538 0.0000 0.0000 0.0000
# 4 0.0000 0.0000 0.0000 -18.8305 0.0000 0.0000
# 5 0.0000 0.0000 0.0000 0.0000 -18.8305 0.0000
# 6 0.0000 0.0000 0.0000 0.0000 0.0000 18.9877
#
#
#
# Elastic Compliance Matrix: (Units=1/GPa)
#
#
# Indices 1 2 3 4 5 6 
#
# 1 0.015271 -0.011062 0.000171 0.000000 0.000000 0.000000
# 2 -0.011062 0.015271 0.000171 0.000000 0.000000 0.000000
# 3 0.000171 0.000171 0.028788 0.000000 0.000000 0.000000
# 4 0.000000 0.000000 0.000000 -0.053105 0.000000 0.000000
# 5 0.000000 0.000000 0.000000 0.000000 -0.053105 0.000000
# 6 0.000000 0.000000 0.000000 0.000000 0.000000 0.052666
#
#
# Mechanical properties :
#
#
# Convention : Reuss Voigt Hill
#
# Bulk Modulus (GPa) = 26.39444 56.06377 41.22910
# Shear Modulus (GPa) = 125.45368 10.49175 67.97271
#
# Velocity S-wave (km/s) = 7.98366 2.30879 5.87662
# Velocity P-wave (km/s) = 9.91944 5.96586 8.18495
#
# Compressibility (1/GPa) = 0.03788677
#
# Stress axis : x y z
#
# Youngs Moduli (GPa) = 65.48485 65.48485 34.73715
#
# Poissons Ratio (x) = 0.72440 -0.00592
# Poissons Ratio (y) = 0.72440 -0.00592
# Poissons Ratio (z) = -0.01117 -0.01117
#
# Static dielectric constant tensor:
#      x y z
#    x 1.677400 0.000000 0.000000 
#    y 0.000000 1.677400 0.000000 
#    z 0.000000 0.000000 1.737230 
# 
# From -- ./inp_files/1194.got.cif
#   From: 2010.05.17/outbox.cif.g08.bks.cpg/sg175_1_cif.got.tgz:1194.got - 2010.05.20 11:23:22.
