data_PCOD9581005
_publ_section_title
;
Structure prediction by ZEFSAII (Michael W. Deem and Ramdas Pophale) SiO2 
 PCOD9581005
Probable space group: P 64
;
_chemical_formula_sum "Si O2"
_cell_formula_units_Z 45
_cell_length_a 12.000000
_cell_length_b 12.000000
_cell_length_c 18.000000
_cell_angle_alpha 90.000000
_cell_angle_beta 90.000000
_cell_angle_gamma 120.000000
_cell_volume 2244.737847
_symmetry_space_group_name_H-M "P 64"
_symmetry_group_IT_number 172
_symmetry_cell_setting 'hexagonal'
loop_
_space_group_symop_operation_xyz
x,y,z
x-y,x,2/3+z
-y,x-y,1/3+z
-x,-y,z
-x+y,-x,2/3+z
y,-x+y,1/3+z
loop_
_atom_site_type_symbol
_atom_site_label
_atom_site_fract_x
_atom_site_fract_y
_atom_site_fract_z
Si Si1 0.191355 0.375871 0.149000
Si Si2 0.649815 0.072881 0.200805
Si Si3 0.765110 0.366125 0.190396
Si Si4 0.243267 0.253100 0.010562
Si Si5 0.639300 0.588510 0.404533
Si Si6 0.975194 0.253439 0.389523
Si Si7 0.000000 0.500000 0.303781
Si Si8 0.833940 0.788662 0.292120
O O1 0.275359 0.526449 0.173166
O O2 0.241423 0.348700 0.072480
O O3 0.172364 0.267551 0.209520
O O4 0.050374 0.358015 0.129876
O O5 0.679298 0.218871 0.214825
O O6 0.500000 0.000000 0.179848
O O7 0.680383 0.021774 0.276209
O O8 0.728458 0.044303 0.135431
O O9 0.825798 0.340202 0.116311
O O10 0.875307 0.440137 0.251556
O O11 0.289833 0.164721 0.055228
O O12 0.097256 0.186287 0.973874
O O13 0.500000 0.500000 0.371677
O O14 0.727250 0.667875 0.337941
O O15 0.985030 0.378466 0.349662
O O16 0.043320 0.196613 0.336207
#
# Coordination Sequence:
#
# PCOD9581005 Si02
#       8
#     6   6   6   6   6   6   3   6
#     4  10  21  40  64  98 133 180 232 281 352 423
#     4  12  27  47  66 100 142 189 240 299 365 428
#     4  11  19  41  71  92 130 177 233 300 331 417
#     4  11  26  43  64 100 151 180 221 303 372 433
#     4   9  18  35  61  91 127 163 217 283 329 388
#     4  12  23  42  72 103 135 184 239 294 364 436
#     4  12  20  40  72 100 124 174 244 294 332 422
#     4  11  21  39  66 103 135 178 232 281 357 435
#
# _framework density 20.046883999999999
#
# number of rings (size 3 to 8) (size 9 to 14) (size 15 to 20)
#    0.000    1.067    6.667    1.200    0.000    0.000 
#   12.000    3.333    0.000    0.000    0.000    0.000 
#    0.000    0.000    0.000    0.000    0.000    0.000 
#
# Total GULP energy -250582.997964 kJ/mol
# GULP energy per Si atom -5568.511066 kJ/mol
# Density = 2.000126 g / cm^3
# Si number density = 20.046884 Si / 1000 Ang^3
#
#
#
# Elastic Constant Matrix: (Units=GPa)
#
#
# Indices 1 2 3 4 5 6 
#
# 1 90.1507 33.4904 27.1320 0.0000 0.0000 -0.0001
# 2 33.4904 90.1503 27.1319 0.0000 0.0000 0.0000
# 3 27.1320 27.1319 102.4175 0.0000 0.0000 -0.0001
# 4 0.0000 0.0000 0.0000 89.5659 -0.0001 0.0000
# 5 0.0000 0.0000 0.0000 -0.0001 89.5673 0.0000
# 6 -0.0001 0.0000 -0.0001 0.0000 0.0000 28.3300
#
#
#
# Elastic Compliance Matrix: (Units=1/GPa)
#
#
# Indices 1 2 3 4 5 6 
#
# 1 0.013401 -0.004249 -0.002425 0.000000 0.000000 0.000000
# 2 -0.004249 0.013401 -0.002425 0.000000 0.000000 0.000000
# 3 -0.002425 -0.002425 0.011049 0.000000 0.000000 0.000000
# 4 0.000000 0.000000 0.000000 0.011165 0.000000 0.000000
# 5 0.000000 0.000000 0.000000 0.000000 0.011165 0.000000
# 6 0.000000 0.000000 0.000000 0.000000 0.000000 0.035298
#
#
# Mechanical properties :
#
#
# Convention : Reuss Voigt Hill
#
# Bulk Modulus (GPa) = 50.87883 50.91411 50.89647
# Shear Modulus (GPa) = 41.58895 54.49025 48.03960
#
# Velocity S-wave (km/s) = 4.55970 5.21924 4.90058
# Velocity P-wave (km/s) = 7.29083 7.85959 7.58055
#
# Compressibility (1/GPa) = 0.01965454
#
# Stress axis : x y z
#
# Youngs Moduli (GPa) = 74.62395 74.62360 90.50979
#
# Poissons Ratio (x) = 0.31704 0.21944
# Poissons Ratio (y) = 0.31704 0.21944
# Poissons Ratio (z) = 0.18093 0.18093
#
# Static dielectric constant tensor:
#      x y z
#    x 1.393490 0.000000 0.000000 
#    y 0.000000 1.393480 0.000000 
#    z 0.000000 0.000000 1.716740 
# 
# From -- ./inp_files/1702.got.cif
#   From: 2010.05.17/outbox.ucp.g08.bks.cvg/sg172_1_cif.got.tgz:1702.got - 2010.06.11 15:18:29.
