data_PCOD9581567
_publ_section_title
;
Structure prediction by ZEFSAII (Michael W. Deem and Ramdas Pophale) SiO2 
 PCOD9581567
Probable space group: P 6/M
;
_chemical_formula_sum "Si O2"
_cell_formula_units_Z 52
_cell_length_a 13.898254
_cell_length_b 13.898254
_cell_length_c 13.827628
_cell_angle_alpha 90.000000
_cell_angle_beta 90.000000
_cell_angle_gamma 120.000000
_cell_volume 2313.123431
_symmetry_space_group_name_H-M "P 6/M"
_symmetry_group_IT_number 175
_symmetry_cell_setting 'hexagonal'
loop_
_space_group_symop_operation_xyz
x,y,z
x-y,x,z
-y,x-y,z
-x,-y,z
-x+y,-x,z
y,-x+y,z
-x,-y,-z
-x+y,-x,-z
y,-x+y,-z
x,y,-z
x-y,x,-z
-y,x-y,-z
loop_
_atom_site_type_symbol
_atom_site_label
_atom_site_fract_x
_atom_site_fract_y
_atom_site_fract_z
Si Si1 0.138873 0.457677 0.887884
Si Si2 0.116461 0.248460 0.385124
Si Si3 0.666666 0.333333 0.614675
Si Si4 0.333553 0.453723 0.612013
Si Si5 0.441917 0.096246 0.181629
O O1 0.133824 0.565988 0.850958
O O2 0.225687 0.432503 0.831717
O O3 0.009403 0.362860 0.879372
O O4 0.173475 0.474925 0.000000
O O5 0.188116 0.195184 0.344866
O O6 0.099175 0.225892 0.500000
O O7 0.199280 0.379855 0.383376
O O8 0.666667 0.333334 0.500000
O O9 0.790856 0.369475 0.638840
O O10 0.363708 0.442327 0.500000
O O11 0.370830 0.418302 0.708106
#
# Coordination Sequence:
#
# PCOD9581567 Si02
#       5
#    12  12   4  12  12
#     4  11  23  43  67  94 122 155 205 267 318 362
#     4   9  18  33  54  78 109 153 203 249 289 331
#     4   9  18  36  54  72 112 161 199 240 288 342
#     4  10  21  37  57  85 123 163 200 239 288 362
#     4  11  23  39  65  96 123 161 205 252 313 374
#
# _framework density 22.480426000000001
#
# number of rings (size 3 to 8) (size 9 to 14) (size 15 to 20)
#    0.000    1.846    0.000    4.846    3.231    0.923 
#    0.000    2.308    0.000    0.462    0.000    1.615 
#    0.000    0.000    0.000    0.000    0.000    0.000 
#
# Total GULP energy -289601.880209 kJ/mol
# GULP energy per Si atom -5569.266927 kJ/mol
# Density = 2.242926 g / cm^3
# Si number density = 22.480426 Si / 1000 Ang^3
#
#
#
# Elastic Constant Matrix: (Units=GPa)
#
#
# Indices 1 2 3 4 5 6 
#
# 1 103.5637 20.0058 7.3102 0.0000 0.0000 -0.0002
# 2 20.0058 103.5645 7.3098 0.0000 0.0000 -0.0009
# 3 7.3102 7.3098 140.8846 0.0000 0.0000 0.0001
# 4 0.0000 0.0000 0.0000 10.6854 0.0000 0.0000
# 5 0.0000 0.0000 0.0000 0.0000 10.6854 0.0000
# 6 -0.0002 -0.0009 0.0001 0.0000 0.0000 41.7792
#
#
#
# Elastic Compliance Matrix: (Units=1/GPa)
#
#
# Indices 1 2 3 4 5 6 
#
# 1 0.010055 -0.001913 -0.000423 0.000000 0.000000 0.000000
# 2 -0.001913 0.010055 -0.000422 0.000000 0.000000 0.000000
# 3 -0.000423 -0.000422 0.007142 0.000000 0.000000 0.000000
# 4 0.000000 0.000000 0.000000 0.093585 0.000000 0.000000
# 5 0.000000 0.000000 0.000000 0.000000 0.093585 0.000000
# 6 0.000000 0.000000 0.000000 0.000000 0.000000 0.023935
#
#
# Mechanical properties :
#
#
# Convention : Reuss Voigt Hill
#
# Bulk Modulus (GPa) = 46.00442 46.36271 46.18356
# Shear Modulus (GPa) = 19.91088 33.52248 26.71668
#
# Velocity S-wave (km/s) = 2.97930 3.86578 3.45112
# Velocity P-wave (km/s) = 5.68714 6.37134 6.03894
#
# Compressibility (1/GPa) = 0.02173704
#
# Stress axis : x y z
#
# Youngs Moduli (GPa) = 99.45128 99.45211 140.01977
#
# Poissons Ratio (x) = 0.19021 0.05916
# Poissons Ratio (y) = 0.19021 0.05915
# Poissons Ratio (z) = 0.04202 0.04202
#
# Static dielectric constant tensor:
#      x y z
#    x 1.714020 0.000000 0.000000 
#    y 0.000000 1.714030 0.000000 
#    z 0.000000 0.000000 1.881070 
# 
# From -- ./inp_files/2311.got.cif
#   From: 2010.05.17/outbox.cif.g08.bks.cpg/sg175_2_cif.got.tgz:2311.got - 2010.05.20 11:23:22.
