data_PCOD9581684
_publ_section_title
;
Structure prediction by ZEFSAII (Michael W. Deem and Ramdas Pophale) SiO2 
 PCOD9581684
Probable space group: P 6/M
;
_chemical_formula_sum "Si O2"
_cell_formula_units_Z 72
_cell_length_a 15.068998
_cell_length_b 15.068998
_cell_length_c 15.746783
_cell_angle_alpha 90.000000
_cell_angle_beta 90.000000
_cell_angle_gamma 120.000000
_cell_volume 3096.643604
_symmetry_space_group_name_H-M "P 6/M"
_symmetry_group_IT_number 175
_symmetry_cell_setting 'hexagonal'
loop_
_space_group_symop_operation_xyz
x,y,z
x-y,x,z
-y,x-y,z
-x,-y,z
-x+y,-x,z
y,-x+y,z
-x,-y,-z
-x+y,-x,-z
y,-x+y,-z
x,y,-z
x-y,x,-z
-y,x-y,-z
loop_
_atom_site_type_symbol
_atom_site_label
_atom_site_fract_x
_atom_site_fract_y
_atom_site_fract_z
Si Si1 0.228040 0.063084 0.396141
Si Si2 0.544840 0.809592 0.598936
Si Si3 0.228040 0.063084 0.103859
Si Si4 0.107820 0.517246 0.847624
Si Si5 0.544840 0.809592 0.901064
Si Si6 0.409426 0.892180 0.347625
O O1 0.195940 0.145587 0.368653
O O2 0.228773 0.063479 0.500000
O O3 0.344241 0.103351 0.369138
O O4 0.534135 0.827098 0.500000
O O5 0.537307 0.699819 0.607374
O O6 0.455453 0.816162 0.646892
O O7 0.195940 0.145587 0.131347
O O8 0.344241 0.103350 0.130862
O O9 0.228773 0.063479 0.000000
O O10 0.183838 0.639291 0.853108
O O11 0.162511 0.462692 0.892626
O O12 0.090442 0.483214 0.750000
O O13 0.000000 0.500000 0.883342
O O14 0.534134 0.827098 0.000000
O O15 0.500000 0.000000 0.383342
#
# Coordination Sequence:
#
# PCOD9581684 Si02
#       6
#    12  12  12  12  12  12
#     4   9  17  30  51  81 115 147 178 217 269 328
#     4  11  22  37  59  86 116 149 190 241 290 340
#     4   9  17  30  51  81 115 147 178 217 269 328
#     4  11  24  41  60  83 115 155 196 239 291 353
#     4  11  22  37  59  86 116 149 190 241 290 340
#     4  11  24  41  60  83 115 155 196 239 291 353
#
# _framework density 23.250979999999998
#
# number of rings (size 3 to 8) (size 9 to 14) (size 15 to 20)
#    0.000    1.667    0.000    5.000    0.000    6.667 
#    0.000    0.000    0.000    0.000    0.000    0.000 
#    0.000   16.000    0.000    0.000    0.000    0.000 
#
# Total GULP energy -402863.164112 kJ/mol
# GULP energy per Si atom -5595.321724 kJ/mol
# Density = 2.319806 g / cm^3
# Si number density = 23.250980 Si / 1000 Ang^3
#
#
#
# Elastic Constant Matrix: (Units=GPa)
#
#
# Indices 1 2 3 4 5 6 
#
# 1 69.9483 -16.0044 0.7380 0.0000 0.0000 0.0000
# 2 -16.0044 69.9483 0.7380 0.0000 0.0000 0.0000
# 3 0.7380 0.7380 43.2623 0.0000 0.0000 0.0000
# 4 0.0000 0.0000 0.0000 3.2960 0.0000 0.0000
# 5 0.0000 0.0000 0.0000 0.0000 3.2960 0.0000
# 6 0.0000 0.0000 0.0000 0.0000 0.0000 42.9764
#
#
#
# Elastic Compliance Matrix: (Units=1/GPa)
#
#
# Indices 1 2 3 4 5 6 
#
# 1 0.015090 0.003456 -0.000316 0.000000 0.000000 0.000000
# 2 0.003456 0.015090 -0.000316 0.000000 0.000000 0.000000
# 3 -0.000316 -0.000316 0.023126 0.000000 0.000000 0.000000
# 4 0.000000 0.000000 0.000000 0.303395 0.000000 0.000000
# 5 0.000000 0.000000 0.000000 0.000000 0.303395 0.000000
# 6 0.000000 0.000000 0.000000 0.000000 0.000000 0.023269
#
#
# Mechanical properties :
#
#
# Convention : Reuss Voigt Hill
#
# Bulk Modulus (GPa) = 16.96269 17.12247 17.04258
# Shear Modulus (GPa) = 7.16980 23.09283 15.13132
#
# Velocity S-wave (km/s) = 1.75794 3.15492 2.55381
# Velocity P-wave (km/s) = 3.38109 4.54440 4.00521
#
# Compressibility (1/GPa) = 0.05895291
#
# Stress axis : x y z
#
# Youngs Moduli (GPa) = 66.26743 66.26743 43.24209
#
# Poissons Ratio (x) = -0.22902 0.01368
# Poissons Ratio (y) = -0.22902 0.01368
# Poissons Ratio (z) = 0.02097 0.02097
#
# Static dielectric constant tensor:
#      x y z
#    x 1.859320 0.000000 0.000000 
#    y 0.000000 1.859320 0.000000 
#    z 0.000000 0.000000 1.820820 
# 
# From -- ./inp_files/2870.got.cif
#   From: 2010.05.17/outbox.cif.g08.bks.cpg/sg175_2_cif.got.tgz:2870.got - 2010.05.20 11:23:22.
