data_PCOD9581960
_publ_section_title
;
Structure prediction by ZEFSAII (Michael W. Deem and Ramdas Pophale) SiO2 
 PCOD9581960
Probable space group: P 63/M
;
_chemical_formula_sum "Si O2"
_cell_formula_units_Z 60
_cell_length_a 17.372168
_cell_length_b 17.372168
_cell_length_c 11.910703
_cell_angle_alpha 90.000000
_cell_angle_beta 90.000000
_cell_angle_gamma 120.000000
_cell_volume 3112.978121
_symmetry_space_group_name_H-M "P 63/M"
_symmetry_group_IT_number 176
_symmetry_cell_setting 'hexagonal'
loop_
_space_group_symop_operation_xyz
x,y,z
x-y,x,1/2+z
-y,x-y,z
-x,-y,1/2+z
-x+y,-x,z
y,-x+y,1/2+z
-x,-y,-z
-x+y,-x,1/2-z
y,-x+y,-z
x,y,1/2-z
x-y,x,-z
-y,x-y,1/2-z
loop_
_atom_site_type_symbol
_atom_site_label
_atom_site_fract_x
_atom_site_fract_y
_atom_site_fract_z
Si Si1 0.171916 0.801260 0.617728
Si Si2 0.504956 0.876181 0.480169
Si Si3 0.545001 0.617932 0.616707
Si Si4 0.889317 0.984582 0.250000
Si Si5 0.430160 0.769936 0.250000
Si Si6 0.869358 0.806104 0.525223
O O1 0.146854 0.793624 0.750000
O O2 0.158079 0.709393 0.567420
O O3 0.275762 0.874474 0.607930
O O4 0.113855 0.826915 0.536779
O O5 0.424862 0.878441 0.545902
O O6 0.474332 0.819664 0.365296
O O7 0.574803 0.975822 0.438961
O O8 0.528821 0.594801 0.750000
O O9 0.824937 0.976775 0.149151
O O10 0.926107 0.913501 0.250000
O O11 0.327650 0.747492 0.250000
O O12 0.845370 0.871394 0.461077
#
# Coordination Sequence:
#
# PCOD9581960 Si02
#       6
#    12  12  12   6   6  12
#     4  11  26  42  62  97 130 167 231 283 326 405
#     4  11  21  43  68  92 134 174 210 273 337 402
#     4  10  22  43  68  92 125 177 216 262 341 401
#     4  10  20  39  62  90 124 178 238 265 314 400
#     4  10  22  37  66 106 134 160 214 277 328 396
#     4  12  23  40  62  91 132 177 222 278 331 389
#
# _framework density 19.274146999999999
#
# number of rings (size 3 to 8) (size 9 to 14) (size 15 to 20)
#    0.400    0.800    3.000    3.200    2.800    0.800 
#    1.200    1.000    0.000    0.000    0.000    0.000 
#    0.000    0.000    0.000    0.000    0.000    0.000 
#
# Total GULP energy -334295.872923 kJ/mol
# GULP energy per Si atom -5571.597882 kJ/mol
# Density = 1.923028 g / cm^3
# Si number density = 19.274147 Si / 1000 Ang^3
#
#
#
# Elastic Constant Matrix: (Units=GPa)
#
#
# Indices 1 2 3 4 5 6 
#
# 1 58.1407 10.1029 18.4529 0.0000 0.0000 0.0000
# 2 10.1029 58.1407 18.4529 0.0000 0.0000 0.0000
# 3 18.4529 18.4529 138.9929 0.0000 0.0000 0.0000
# 4 0.0000 0.0000 0.0000 34.2677 0.0000 0.0000
# 5 0.0000 0.0000 0.0000 0.0000 34.2677 0.0000
# 6 0.0000 0.0000 0.0000 0.0000 0.0000 24.0189
#
#
#
# Elastic Compliance Matrix: (Units=1/GPa)
#
#
# Indices 1 2 3 4 5 6 
#
# 1 0.018302 -0.002515 -0.002096 0.000000 0.000000 0.000000
# 2 -0.002515 0.018302 -0.002096 0.000000 0.000000 0.000000
# 3 -0.002096 -0.002096 0.007751 0.000000 0.000000 0.000000
# 4 0.000000 0.000000 0.000000 0.029182 0.000000 0.000000
# 5 0.000000 0.000000 0.000000 0.000000 0.029182 0.000000
# 6 0.000000 0.000000 0.000000 0.000000 0.000000 0.041634
#
#
# Mechanical properties :
#
#
# Convention : Reuss Voigt Hill
#
# Bulk Modulus (GPa) = 32.31930 38.81019 35.56475
# Shear Modulus (GPa) = 29.74771 32.39523 31.07147
#
# Velocity S-wave (km/s) = 3.93287 4.10416 4.01943
# Velocity P-wave (km/s) = 6.11784 6.52981 6.32718
#
# Compressibility (1/GPa) = 0.03094126
#
# Stress axis : x y z
#
# Youngs Moduli (GPa) = 54.63913 54.63913 129.01361
#
# Poissons Ratio (x) = 0.13742 0.27040
# Poissons Ratio (y) = 0.13742 0.27040
# Poissons Ratio (z) = 0.11452 0.11452
#
# Static dielectric constant tensor:
#      x y z
#    x 1.661620 0.000000 0.000000 
#    y 0.000000 1.661620 0.000000 
#    z 0.000000 0.000000 1.702760 
# 
# From -- ./inp_files/1897.got.cif
#   From: 2010.05.17/outbox.cif.g08.bks.cpg/sg176_1_cif.got.tgz:1897.got - 2010.06.03 11:36:45.
