data_PCOD9581833
_publ_section_title
;
Structure prediction by ZEFSAII (Michael W. Deem and Ramdas Pophale) SiO2 
 PCOD9581833
Probable space group: P 63/M
;
_chemical_formula_sum "Si O2"
_cell_formula_units_Z 72
_cell_length_a 13.808026
_cell_length_b 13.808026
_cell_length_c 18.227415
_cell_angle_alpha 90.000000
_cell_angle_beta 90.000000
_cell_angle_gamma 120.000000
_cell_volume 3009.670182
_symmetry_space_group_name_H-M "P 63/M"
_symmetry_group_IT_number 176
_symmetry_cell_setting 'hexagonal'
loop_
_space_group_symop_operation_xyz
x,y,z
x-y,x,1/2+z
-y,x-y,z
-x,-y,1/2+z
-x+y,-x,z
y,-x+y,1/2+z
-x,-y,-z
-x+y,-x,1/2-z
y,-x+y,-z
x,y,1/2-z
x-y,x,-z
-y,x-y,1/2-z
loop_
_atom_site_type_symbol
_atom_site_label
_atom_site_fract_x
_atom_site_fract_y
_atom_site_fract_z
Si Si1 0.252897 0.440540 0.500844
Si Si2 0.206502 0.741730 0.831940
Si Si3 0.199333 0.045528 0.164941
Si Si4 0.017398 0.426646 0.831992
Si Si5 0.423131 0.906019 0.057025
Si Si6 0.056075 0.811903 0.406343
O O1 0.295523 0.486965 0.582575
O O2 0.350734 0.528998 0.448218
O O3 0.146482 0.447527 0.474221
O O4 0.214864 0.310255 0.484462
O O5 0.197370 0.689756 0.750000
O O6 0.117651 0.784857 0.829295
O O7 0.332504 0.848839 0.835126
O O8 0.158081 0.038416 0.250000
O O9 0.169182 0.120561 0.110741
O O10 0.154914 0.922757 0.131670
O O11 0.978795 0.403998 0.750000
O O12 0.968496 0.500210 0.866510
O O13 0.975370 0.305045 0.867170
O O14 0.500000 0.000000 0.000000
#
# Coordination Sequence:
#
# PCOD9581833 Si02
#       6
#    12  12  12  12  12  12
#     4  11  24  42  64  93 129 166 228 277 333 392
#     4   9  19  36  59  87 123 162 206 267 326 390
#     4  10  19  33  54  88 129 171 207 246 309 384
#     4   9  18  38  63  92 127 170 213 263 327 388
#     4  11  23  42  67  94 122 173 217 276 335 387
#     4  10  21  34  62  92 132 175 216 260 316 392
#
# _framework density 23.922886999999999
#
# number of rings (size 3 to 8) (size 9 to 14) (size 15 to 20)
#    0.000    2.000    1.667    3.167    2.333    0.000 
#    0.000    6.667    0.000    5.000    0.000    0.000 
#    0.000    0.000    0.000    0.000    0.000    0.000 
#
# Total GULP energy -401181.632061 kJ/mol
# GULP energy per Si atom -5571.967112 kJ/mol
# Density = 2.386844 g / cm^3
# Si number density = 23.922887 Si / 1000 Ang^3
#
#
#
# Elastic Constant Matrix: (Units=GPa)
#
#
# Indices 1 2 3 4 5 6 
#
# 1 78.5878 22.9433 21.7672 0.0000 0.0000 0.0000
# 2 22.9433 78.5878 21.7672 0.0000 0.0000 0.0000
# 3 21.7672 21.7672 109.9895 0.0000 0.0000 0.0000
# 4 0.0000 0.0000 0.0000 23.6929 0.0000 0.0000
# 5 0.0000 0.0000 0.0000 0.0000 23.6929 0.0000
# 6 0.0000 0.0000 0.0000 0.0000 0.0000 27.8223
#
#
#
# Elastic Compliance Matrix: (Units=1/GPa)
#
#
# Indices 1 2 3 4 5 6 
#
# 1 0.014367 -0.003604 -0.002130 0.000000 0.000000 0.000000
# 2 -0.003604 0.014367 -0.002130 0.000000 0.000000 0.000000
# 3 -0.002130 -0.002130 0.009935 0.000000 0.000000 0.000000
# 4 0.000000 0.000000 0.000000 0.042207 0.000000 0.000000
# 5 0.000000 0.000000 0.000000 0.000000 0.042207 0.000000
# 6 0.000000 0.000000 0.000000 0.000000 0.000000 0.035942
#
#
# Mechanical properties :
#
#
# Convention : Reuss Voigt Hill
#
# Bulk Modulus (GPa) = 43.59186 44.45783 44.02485
# Shear Modulus (GPa) = 27.41238 28.42081 27.91659
#
# Velocity S-wave (km/s) = 3.38873 3.45050 3.41976
# Velocity P-wave (km/s) = 5.79420 5.87357 5.83402
#
# Compressibility (1/GPa) = 0.02294006
#
# Stress axis : x y z
#
# Youngs Moduli (GPa) = 69.60476 69.60476 100.65624
#
# Poissons Ratio (x) = 0.25088 0.21439
# Poissons Ratio (y) = 0.25088 0.21439
# Poissons Ratio (z) = 0.14825 0.14825
#
# Static dielectric constant tensor:
#      x y z
#    x 3.168630 0.000000 0.000000 
#    y 0.000000 3.168630 0.000000 
#    z 0.000000 0.000000 1.955680 
# 
# From -- ./inp_files/3390.got.cif
#   From: 2010.05.17/outbox.cif.g08.bks.cpg/sg176_2_cif.got.tgz:3390.got - 2010.06.03 11:36:45.
