data_PCOD9581109
_publ_section_title
;
Structure prediction by ZEFSAII (Michael W. Deem and Ramdas Pophale) SiO2 
 PCOD9581109
Probable space group: P 63
;
_chemical_formula_sum "Si O2"
_cell_formula_units_Z 34
_cell_length_a 13.862074
_cell_length_b 13.862074
_cell_length_c 9.750608
_cell_angle_alpha 90.000000
_cell_angle_beta 90.000000
_cell_angle_gamma 120.000000
_cell_volume 1622.627210
_symmetry_space_group_name_H-M "P 63"
_symmetry_group_IT_number 173
_symmetry_cell_setting 'hexagonal'
loop_
_space_group_symop_operation_xyz
x,y,z
x-y,x,1/2+z
-y,x-y,z
-x,-y,1/2+z
-x+y,-x,z
y,-x+y,1/2+z
loop_
_atom_site_type_symbol
_atom_site_label
_atom_site_fract_x
_atom_site_fract_y
_atom_site_fract_z
Si Si1 0.666666 0.333333 0.897205
Si Si2 0.599374 0.619772 0.717882
Si Si3 0.179753 0.424209 0.480082
Si Si4 0.666668 0.333334 0.567169
Si Si5 0.711225 0.002003 0.500388
Si Si6 0.416911 0.170606 0.509926
Si Si7 0.011736 0.612743 0.778089
O O1 0.751201 0.292165 0.949543
O O2 0.666668 0.333334 0.732461
O O3 0.561097 0.684194 0.615513
O O4 0.668744 0.580673 0.623818
O O5 0.497181 0.516486 0.790080
O O6 0.671845 0.692485 0.843428
O O7 0.189086 0.313527 0.499430
O O8 0.099973 0.406349 0.351443
O O9 0.538552 0.281629 0.517283
O O10 0.623156 0.988692 0.617348
O O11 0.812485 0.124041 0.538883
O O12 0.401970 0.112300 0.362804
#
# Coordination Sequence:
#
# PCOD9581109 Si02
#       7
#     2   6   6   2   6   6   6
#     4  12  21  36  61  92 127 174 223 281 355 414
#     4  11  22  40  62  90 124 165 220 283 341 397
#     4  11  24  38  61  92 127 169 217 274 338 408
#     4  12  21  36  61  92 127 174 223 281 355 414
#     4  12  22  38  58  84 124 168 210 260 328 408
#     4  11  24  38  61  92 127 169 217 274 338 408
#     4  11  22  40  62  90 124 165 220 283 341 397
#
# _framework density 20.953675
#
# number of rings (size 3 to 8) (size 9 to 14) (size 15 to 20)
#    0.000    0.706    0.000   11.647    0.000    0.000 
#    0.000    3.529    0.000    5.647    0.000   19.765 
#    0.000    0.000    0.000    0.000    0.000    0.000 
#
# Total GULP energy -189798.515518 kJ/mol
# GULP energy per Si atom -5582.309280 kJ/mol
# Density = 2.090598 g / cm^3
# Si number density = 20.953675 Si / 1000 Ang^3
#
#
#
# Elastic Constant Matrix: (Units=GPa)
#
#
# Indices 1 2 3 4 5 6 
#
# 1 79.4103 25.7242 10.2130 0.0000 0.0000 -0.0001
# 2 25.7242 79.4103 10.2131 0.0000 0.0000 0.0000
# 3 10.2130 10.2131 75.6824 0.0000 0.0000 0.0000
# 4 0.0000 0.0000 0.0000 26.5912 -0.0001 0.0000
# 5 0.0000 0.0000 0.0000 -0.0001 26.5906 0.0000
# 6 -0.0001 0.0000 0.0000 0.0000 0.0000 26.8429
#
#
#
# Elastic Compliance Matrix: (Units=1/GPa)
#
#
# Indices 1 2 3 4 5 6 
#
# 1 0.014197 -0.004430 -0.001318 0.000000 0.000000 0.000000
# 2 -0.004430 0.014197 -0.001318 0.000000 0.000000 0.000000
# 3 -0.001318 -0.001318 0.013569 0.000000 0.000000 0.000000
# 4 0.000000 0.000000 0.000000 0.037606 0.000000 0.000000
# 5 0.000000 0.000000 0.000000 0.000000 0.037607 0.000000
# 6 0.000000 0.000000 0.000000 0.000000 0.000000 0.037254
#
#
# Mechanical properties :
#
#
# Convention : Reuss Voigt Hill
#
# Bulk Modulus (GPa) = 35.93008 36.31150 36.12079
# Shear Modulus (GPa) = 28.11521 28.56179 28.33850
#
# Velocity S-wave (km/s) = 3.66700 3.69601 3.68154
# Velocity P-wave (km/s) = 5.92569 5.96499 5.94537
#
# Compressibility (1/GPa) = 0.02783184
#
# Stress axis : x y z
#
# Youngs Moduli (GPa) = 70.43614 70.43614 73.69817
#
# Poissons Ratio (x) = 0.31200 0.09714
# Poissons Ratio (y) = 0.31200 0.09714
# Poissons Ratio (z) = 0.09284 0.09284
#
# Static dielectric constant tensor:
#      x y z
#    x 1.833170 0.000000 0.000000 
#    y 0.000000 1.833170 0.000000 
#    z 0.000000 0.000000 1.720940 
# 
# From -- ./inp_files/551.got.cif
#   From: 2010.05.17/outbox.cif.g08.bks.cpg/sg173_cif.got.tgz:551.got - 2010.05.20 11:21:53.
