data_PCOD9581592
_publ_section_title
;
Structure prediction by ZEFSAII (Michael W. Deem and Ramdas Pophale) SiO2 
 PCOD9581592
Probable space group: P 6/M
;
_chemical_formula_sum "Si O2"
_cell_formula_units_Z 52
_cell_length_a 18.433294
_cell_length_b 18.433294
_cell_length_c 8.903530
_cell_angle_alpha 90.000000
_cell_angle_beta 90.000000
_cell_angle_gamma 120.000000
_cell_volume 2619.984716
_symmetry_space_group_name_H-M "P 6/M"
_symmetry_group_IT_number 175
_symmetry_cell_setting 'hexagonal'
loop_
_space_group_symop_operation_xyz
x,y,z
x-y,x,z
-y,x-y,z
-x,-y,z
-x+y,-x,z
y,-x+y,z
-x,-y,-z
-x+y,-x,-z
y,-x+y,-z
x,y,-z
x-y,x,-z
-y,x-y,-z
loop_
_atom_site_type_symbol
_atom_site_label
_atom_site_fract_x
_atom_site_fract_y
_atom_site_fract_z
Si Si1 0.303262 0.349446 0.179836
Si Si2 0.029939 0.846791 0.319310
Si Si3 0.666666 0.333334 0.177065
Si Si4 0.080199 0.486895 0.831337
Si Si5 0.819213 0.343510 0.323646
O O1 0.223849 0.266380 0.239665
O O2 0.390061 0.349328 0.212418
O O3 0.311237 0.432281 0.256293
O O4 0.300410 0.357396 0.000000
O O5 0.031845 0.837214 0.500000
O O6 0.939640 0.835428 0.280412
O O7 0.731283 0.306188 0.239746
O O8 0.666667 0.333334 0.000000
O O9 0.136668 0.557241 0.713332
O O10 0.000000 0.500000 0.844470
O O11 0.118324 0.502401 0.000000
O O12 0.808306 0.328203 0.500000
#
# Coordination Sequence:
#
# PCOD9581592 Si02
#       5
#    12  12   4  12  12
#     4  10  21  38  61  89 120 155 196 241 292 351
#     4  10  22  41  64  89 118 152 191 239 297 357
#     4  12  25  41  58  78 115 164 205 243 295 353
#     4   8  16  33  55  80 114 155 194 234 286 344
#     4  11  22  37  58  86 119 155 201 251 295 343
#
# _framework density 19.847445
#
# number of rings (size 3 to 8) (size 9 to 14) (size 15 to 20)
#    0.000    2.077    0.000    5.077    0.000    8.769 
#    0.000    4.615    0.000    1.385    0.000    0.000 
#    0.000    0.000    0.000    0.000    0.000    0.000 
#
# Total GULP energy -290349.606091 kJ/mol
# GULP energy per Si atom -5583.646271 kJ/mol
# Density = 1.980227 g / cm^3
# Si number density = 19.847445 Si / 1000 Ang^3
#
#
#
# Elastic Constant Matrix: (Units=GPa)
#
#
# Indices 1 2 3 4 5 6 
#
# 1 126.4500 69.1093 61.3648 0.0000 0.0000 0.0001
# 2 69.1093 126.4507 61.3652 0.0000 0.0000 0.0002
# 3 61.3648 61.3652 104.2686 0.0000 0.0000 0.0003
# 4 0.0000 0.0000 0.0000 -29.0533 -0.0009 0.0000
# 5 0.0000 0.0000 0.0000 -0.0009 -29.0568 0.0000
# 6 0.0001 0.0002 0.0003 0.0000 0.0000 28.6711
#
#
#
# Elastic Compliance Matrix: (Units=1/GPa)
#
#
# Indices 1 2 3 4 5 6 
#
# 1 0.012774 -0.004666 -0.004772 0.000000 0.000000 0.000000
# 2 -0.004666 0.012774 -0.004772 0.000000 0.000000 0.000000
# 3 -0.004772 -0.004772 0.015208 0.000000 0.000000 0.000000
# 4 0.000000 0.000000 0.000000 -0.034420 0.000001 0.000000
# 5 0.000000 0.000000 0.000000 0.000001 -0.034415 0.000000
# 6 0.000000 0.000000 0.000000 0.000000 0.000000 0.034878
#
#
# Mechanical properties :
#
#
# Convention : Reuss Voigt Hill
#
# Bulk Modulus (GPa) = 81.06192 82.31645 81.68919
# Shear Modulus (GPa) = 127.12940 5.13421 66.13180
#
# Velocity S-wave (km/s) = 8.01201 1.61011 5.77862
# Velocity P-wave (km/s) = 11.24815 6.70979 9.26127
#
# Compressibility (1/GPa) = 0.01233625
#
# Stress axis : x y z
#
# Youngs Moduli (GPa) = 78.28435 78.28444 65.75698
#
# Poissons Ratio (x) = 0.36524 0.31379
# Poissons Ratio (y) = 0.36524 0.31379
# Poissons Ratio (z) = 0.37357 0.37358
#
# Static dielectric constant tensor:
#      x y z
#    x 1.714090 0.000000 0.000000 
#    y 0.000000 1.714090 0.000000 
#    z 0.000000 0.000000 1.668140 
# 
# From -- ./inp_files/646.got.cif
#   From: 2010.05.17/outbox.cif.g08.bks.cpg/sg175_1_cif.got.tgz:646.got - 2010.05.20 11:23:22.
