data_PCOD9581884
_publ_section_title
;
Structure prediction by ZEFSAII (Michael W. Deem and Ramdas Pophale) SiO2 
 PCOD9581884
Probable space group: P 63/M
;
_chemical_formula_sum "Si O2"
_cell_formula_units_Z 72
_cell_length_a 13.197863
_cell_length_b 13.197863
_cell_length_c 30.673146
_cell_angle_alpha 90.000000
_cell_angle_beta 90.000000
_cell_angle_gamma 120.000000
_cell_volume 4626.964690
_symmetry_space_group_name_H-M "P 63/M"
_symmetry_group_IT_number 176
_symmetry_cell_setting 'hexagonal'
loop_
_space_group_symop_operation_xyz
x,y,z
x-y,x,1/2+z
-y,x-y,z
-x,-y,1/2+z
-x+y,-x,z
y,-x+y,1/2+z
-x,-y,-z
-x+y,-x,1/2-z
y,-x+y,-z
x,y,1/2-z
x-y,x,-z
-y,x-y,1/2-z
loop_
_atom_site_type_symbol
_atom_site_label
_atom_site_fract_x
_atom_site_fract_y
_atom_site_fract_z
Si Si1 0.574237 0.907508 0.250000
Si Si2 0.759119 0.000000 1.000000
Si Si3 0.570849 0.666325 0.574322
Si Si4 0.092492 0.425763 0.250000
Si Si5 0.667018 0.571696 0.323984
Si Si6 0.333675 0.429151 0.574322
Si Si7 0.667018 0.095322 0.176016
O O1 0.579293 0.789646 0.250000
O O2 0.440528 0.881056 0.250000
O O3 0.636384 0.988383 0.207977
O O4 0.677069 0.979017 0.958183
O O5 0.770399 0.885200 0.005385
O O6 0.698052 0.020983 0.041817
O O7 0.458148 0.541852 0.564140
O O8 0.539308 0.769654 0.569755
O O9 0.602166 0.666516 0.625152
O O10 0.011617 0.363616 0.292023
O O11 0.666516 0.602166 0.374848
O O12 0.562578 0.437422 0.318515
O O13 0.790791 0.581582 0.313782
#
# Coordination Sequence:
#
# PCOD9581884 Si02
#       7
#     6  12  12   6  12  12  12
#     4  10  20  32  46  64  90 124 156 184 214 256
#     4  10  20  32  46  64  90 126 164 196 222 258
#     4   9  17  30  49  72  95 117 144 184 235 284
#     4  10  20  32  46  64  90 124 156 184 214 256
#     4   9  17  30  50  74  95 115 143 185 236 282
#     4   9  17  30  49  72  95 117 144 184 235 284
#     4   9  17  30  50  74  95 115 143 185 236 282
#
# _framework density 15.560957
#
# number of rings (size 3 to 8) (size 9 to 14) (size 15 to 20)
#    0.000    2.667    0.000    2.000    0.000    4.000 
#    0.000    1.667    0.000    3.333    0.000    0.000 
#    0.000    0.000    0.000    0.000    0.000    0.000 
#
# Total GULP energy -401392.959582 kJ/mol
# GULP energy per Si atom -5574.902216 kJ/mol
# Density = 1.552554 g / cm^3
# Si number density = 15.560957 Si / 1000 Ang^3
#
#
#
# Elastic Constant Matrix: (Units=GPa)
#
#
# Indices 1 2 3 4 5 6 
#
# 1 122.2059 82.8502 84.7906 0.0000 0.0000 0.0000
# 2 82.8502 122.2059 84.7906 0.0000 0.0000 0.0000
# 3 84.7906 84.7906 100.7487 0.0000 0.0000 0.0000
# 4 0.0000 0.0000 0.0000 19.2729 0.0000 0.0000
# 5 0.0000 0.0000 0.0000 0.0000 19.2729 0.0000
# 6 0.0000 0.0000 0.0000 0.0000 0.0000 19.6778
#
#
#
# Elastic Compliance Matrix: (Units=1/GPa)
#
#
# Indices 1 2 3 4 5 6 
#
# 1 0.020726 -0.004684 -0.013501 0.000000 0.000000 0.000000
# 2 -0.004684 0.020726 -0.013501 0.000000 0.000000 0.000000
# 3 -0.013501 -0.013501 0.032651 0.000000 0.000000 0.000000
# 4 0.000000 0.000000 0.000000 0.051886 0.000000 0.000000
# 5 0.000000 0.000000 0.000000 0.000000 0.051886 0.000000
# 6 0.000000 0.000000 0.000000 0.000000 0.000000 0.050819
#
#
# Mechanical properties :
#
#
# Convention : Reuss Voigt Hill
#
# Bulk Modulus (GPa) = 93.19099 94.44703 93.81901
# Shear Modulus (GPa) = 16.91232 17.82665 17.36948
#
# Velocity S-wave (km/s) = 3.30031 3.38834 3.34462
# Velocity P-wave (km/s) = 8.63368 8.72551 8.67971
#
# Compressibility (1/GPa) = 0.01073065
#
# Stress axis : x y z
#
# Youngs Moduli (GPa) = 48.24923 48.24923 30.62700
#
# Poissons Ratio (x) = 0.22598 0.41350
# Poissons Ratio (y) = 0.22598 0.41350
# Poissons Ratio (z) = 0.65142 0.65142
#
# Static dielectric constant tensor:
#      x y z
#    x 1.490400 0.000000 0.000000 
#    y 0.000000 1.490400 0.000000 
#    z 0.000000 0.000000 1.523570 
# 
# From -- ./inp_files/4523.got.cif
#   From: 2010.05.17/outbox.cif.g08.bks.cpg/sg176_3_cif.got.tgz:4523.got - 2010.06.03 11:36:45.
