data_PCOD9581462
_publ_section_title
;
Structure prediction by ZEFSAII (Michael W. Deem and Ramdas Pophale) SiO2 
 PCOD9581462
Probable space group: P 6/M
;
_chemical_formula_sum "Si O2"
_cell_formula_units_Z 66
_cell_length_a 21.449758
_cell_length_b 21.449758
_cell_length_c 8.224149
_cell_angle_alpha 90.000000
_cell_angle_beta 90.000000
_cell_angle_gamma 120.000000
_cell_volume 3276.924197
_symmetry_space_group_name_H-M "P 6/M"
_symmetry_group_IT_number 175
_symmetry_cell_setting 'hexagonal'
loop_
_space_group_symop_operation_xyz
x,y,z
x-y,x,z
-y,x-y,z
-x,-y,z
-x+y,-x,z
y,-x+y,z
-x,-y,-z
-x+y,-x,-z
y,-x+y,-z
x,y,-z
x-y,x,-z
-y,x-y,-z
loop_
_atom_site_type_symbol
_atom_site_label
_atom_site_fract_x
_atom_site_fract_y
_atom_site_fract_z
Si Si1 0.252673 0.667556 0.000000
Si Si2 0.455852 0.328206 0.809683
Si Si3 0.385506 0.414163 0.309764
Si Si4 0.169312 0.605931 0.315675
Si Si5 0.305071 0.202318 0.191937
Si Si6 0.230994 0.288535 0.691667
O O1 0.267389 0.600543 0.000000
O O2 0.212558 0.660021 0.168667
O O3 0.429659 0.386772 0.793047
O O4 0.530813 0.362960 0.713918
O O5 0.387374 0.254294 0.746394
O O6 0.464717 0.318575 0.000000
O O7 0.392324 0.398709 0.500000
O O8 0.408937 0.497066 0.298671
O O9 0.301678 0.364458 0.263600
O O10 0.194030 0.632187 0.500000
O O11 0.280615 0.119781 0.222659
O O12 0.253814 0.229114 0.269283
O O13 0.306534 0.215808 0.000000
O O14 0.219424 0.289161 0.500000
#
# Coordination Sequence:
#
# PCOD9581462 Si02
#       6
#     6  12  12  12  12  12
#     4  10  26  46  57  76 106 142 198 254 298 350
#     4  10  20  34  56  89 123 155 193 241 299 358
#     4   9  20  35  54  88 121 151 194 242 297 359
#     4  11  22  39  63  86 113 155 200 248 308 364
#     4  10  21  37  57  87 123 157 195 241 296 350
#     4  10  20  37  59  86 120 156 198 242 291 349
#
# _framework density 20.140837999999999
#
# number of rings (size 3 to 8) (size 9 to 14) (size 15 to 20)
#    0.182    1.818    0.909    2.182    1.273    7.273 
#    0.000    1.818    0.000    0.364    0.000    2.545 
#    0.000    0.000    0.000    0.000    0.000    0.000 
#
# Total GULP energy -368387.807081 kJ/mol
# GULP energy per Si atom -5581.633441 kJ/mol
# Density = 2.009500 g / cm^3
# Si number density = 20.140838 Si / 1000 Ang^3
#
#
#
# Elastic Constant Matrix: (Units=GPa)
#
#
# Indices 1 2 3 4 5 6 
#
# 1 51.1610 17.8453 0.1814 0.0000 0.0000 0.0000
# 2 17.8453 51.1610 0.1814 0.0000 0.0000 0.0000
# 3 0.1814 0.1814 53.6106 0.0000 0.0000 0.0000
# 4 0.0000 0.0000 0.0000 14.3370 0.0000 0.0000
# 5 0.0000 0.0000 0.0000 0.0000 14.3370 0.0000
# 6 0.0000 0.0000 0.0000 0.0000 0.0000 16.6578
#
#
#
# Elastic Compliance Matrix: (Units=1/GPa)
#
#
# Indices 1 2 3 4 5 6 
#
# 1 0.022254 -0.007762 -0.000049 0.000000 0.000000 0.000000
# 2 -0.007762 0.022254 -0.000049 0.000000 0.000000 0.000000
# 3 -0.000049 -0.000049 0.018653 0.000000 0.000000 0.000000
# 4 0.000000 0.000000 0.000000 0.069750 0.000000 0.000000
# 5 0.000000 0.000000 0.000000 0.000000 0.069750 0.000000
# 6 0.000000 0.000000 0.000000 0.000000 0.000000 0.060032
#
#
# Mechanical properties :
#
#
# Convention : Reuss Voigt Hill
#
# Bulk Modulus (GPa) = 21.07902 21.37212 21.22557
# Shear Modulus (GPa) = 16.99373 18.24799 17.62086
#
# Velocity S-wave (km/s) = 2.90788 3.01328 2.96105
# Velocity P-wave (km/s) = 4.66507 4.76874 4.71719
#
# Compressibility (1/GPa) = 0.04744053
#
# Stress axis : x y z
#
# Youngs Moduli (GPa) = 44.93618 44.93618 53.60969
#
# Poissons Ratio (x) = 0.34880 0.00263
# Poissons Ratio (y) = 0.34880 0.00263
# Poissons Ratio (z) = 0.00220 0.00220
#
# Static dielectric constant tensor:
#      x y z
#    x 1.713440 0.000000 0.000000 
#    y 0.000000 1.713440 0.000000 
#    z 0.000000 0.000000 1.721620 
# 
# From -- ./inp_files/1019.got.cif
#   From: 2010.05.17/outbox.cif.g08.bks.cpg/sg175_1_cif.got.tgz:1019.got - 2010.05.20 11:23:22.
