data_PCOD9581735
_publ_section_title
;
Structure prediction by ZEFSAII (Michael W. Deem and Ramdas Pophale) SiO2 
 PCOD9581735
Probable space group: P 63/M
;
_chemical_formula_sum "Si O2"
_cell_formula_units_Z 42
_cell_length_a 12.680833
_cell_length_b 12.680833
_cell_length_c 11.489882
_cell_angle_alpha 90.000000
_cell_angle_beta 90.000000
_cell_angle_gamma 120.000000
_cell_volume 1600.080257
_symmetry_space_group_name_H-M "P 63/M"
_symmetry_group_IT_number 176
_symmetry_cell_setting 'hexagonal'
loop_
_space_group_symop_operation_xyz
x,y,z
x-y,x,1/2+z
-y,x-y,z
-x,-y,1/2+z
-x+y,-x,z
y,-x+y,1/2+z
-x,-y,-z
-x+y,-x,1/2-z
y,-x+y,-z
x,y,1/2-z
x-y,x,-z
-y,x-y,1/2-z
loop_
_atom_site_type_symbol
_atom_site_label
_atom_site_fract_x
_atom_site_fract_y
_atom_site_fract_z
Si Si1 0.074661 0.247745 0.031143
Si Si2 0.864301 0.479945 0.504040
Si Si3 0.151031 0.494120 0.750000
Si Si4 0.056873 0.734507 0.750000
Si Si5 0.106017 0.560619 0.250000
O O1 0.983843 0.222991 0.138065
O O2 0.136618 0.392918 0.011661
O O3 0.166287 0.199019 0.059851
O O4 0.823185 0.408555 0.627218
O O5 0.000000 0.500000 0.500000
O O6 0.818960 0.434715 0.373151
O O7 0.213784 0.412769 0.750000
O O8 0.002200 0.407306 0.750000
O O9 0.975204 0.587535 0.750000
#
# Coordination Sequence:
#
# PCOD9581735 Si02
#       5
#    12  12   6   6   6
#     4  11  22  36  54  82 123 167 212 251 302 368
#     4   9  18  34  58  80 108 148 199 254 306 355
#     4  10  16  33  58  77 105 146 192 241 307 354
#     4  10  20  35  54  81 119 155 208 251 304 368
#     4   8  18  32  52  82 106 137 188 254 301 362
#
# _framework density 26.248684999999998
#
# number of rings (size 3 to 8) (size 9 to 14) (size 15 to 20)
#    0.000    2.286    2.857    0.286    0.000    2.286 
#    0.857    0.000    0.000    1.143    0.000    0.000 
#    0.000    4.571    0.000    0.000    0.000    0.000 
#
# Total GULP energy -234443.015380 kJ/mol
# GULP energy per Si atom -5581.976557 kJ/mol
# Density = 2.618894 g / cm^3
# Si number density = 26.248685 Si / 1000 Ang^3
#
#
#
# Elastic Constant Matrix: (Units=GPa)
#
#
# Indices 1 2 3 4 5 6 
#
# 1 110.1461 26.8963 10.9180 0.0000 0.0000 0.0000
# 2 26.8963 110.1461 10.9180 0.0000 0.0000 0.0000
# 3 10.9180 10.9180 216.9711 0.0000 0.0000 0.0000
# 4 0.0000 0.0000 0.0000 -3.2131 0.0000 0.0000
# 5 0.0000 0.0000 0.0000 0.0000 -3.2131 0.0000
# 6 0.0000 0.0000 0.0000 0.0000 0.0000 41.6249
#
#
#
# Elastic Compliance Matrix: (Units=1/GPa)
#
#
# Indices 1 2 3 4 5 6 
#
# 1 0.009684 -0.002328 -0.000370 0.000000 0.000000 0.000000
# 2 -0.002328 0.009684 -0.000370 0.000000 0.000000 0.000000
# 3 -0.000370 -0.000370 0.004646 0.000000 0.000000 0.000000
# 4 0.000000 0.000000 0.000000 -0.311225 0.000000 0.000000
# 5 0.000000 0.000000 0.000000 0.000000 -0.311225 0.000000
# 6 0.000000 0.000000 0.000000 0.000000 0.000000 0.024024
#
#
# Mechanical properties :
#
#
# Convention : Reuss Voigt Hill
#
# Bulk Modulus (GPa) = 55.93615 59.41422 57.67519
# Shear Modulus (GPa) = -8.89181 32.94180 12.02499
#
# Velocity S-wave (km/s) = -1.84252 3.54643 2.14269
# Velocity P-wave (km/s) = 4.10242 6.28122 5.30488
#
# Compressibility (1/GPa) = 0.01787753
#
# Stress axis : x y z
#
# Youngs Moduli (GPa) = 103.26294 103.26294 215.23148
#
# Poissons Ratio (x) = 0.24040 0.07967
# Poissons Ratio (y) = 0.24040 0.07967
# Poissons Ratio (z) = 0.03822 0.03822
#
# Static dielectric constant tensor:
#      x y z
#    x 2.018880 0.000000 0.000000 
#    y 0.000000 2.018880 0.000000 
#    z 0.000000 0.000000 2.296080 
# 
# From -- ./inp_files/1637.got.cif
#   From: 2010.05.17/outbox.cif.g08.bks.cpg/sg176_1_cif.got.tgz:1637.got - 2010.06.03 11:36:45.
