data_PCOD9581260
_publ_section_title
;
Structure prediction by ZEFSAII (Michael W. Deem and Ramdas Pophale) SiO2 
 PCOD9581260
Probable space group: P 6/M
;
_chemical_formula_sum "Si O2"
_cell_formula_units_Z 90
_cell_length_a 27.184953
_cell_length_b 27.184953
_cell_length_c 7.629273
_cell_angle_alpha 90.000000
_cell_angle_beta 90.000000
_cell_angle_gamma 120.000000
_cell_volume 4882.822761
_symmetry_space_group_name_H-M "P 6/M"
_symmetry_group_IT_number 175
_symmetry_cell_setting 'hexagonal'
loop_
_space_group_symop_operation_xyz
x,y,z
x-y,x,z
-y,x-y,z
-x,-y,z
-x+y,-x,z
y,-x+y,z
-x,-y,-z
-x+y,-x,-z
y,-x+y,-z
x,y,-z
x-y,x,-z
-y,x-y,-z
loop_
_atom_site_type_symbol
_atom_site_label
_atom_site_fract_x
_atom_site_fract_y
_atom_site_fract_z
Si Si1 0.805654 0.005533 0.301633
Si Si2 0.113380 0.122459 0.000000
Si Si3 0.323058 0.775574 0.214894
Si Si4 0.344810 0.564147 0.795003
Si Si5 0.184712 0.882944 0.796853
Si Si6 0.858547 0.298804 0.297360
Si Si7 0.575784 0.751641 0.213104
Si Si8 0.079919 0.761004 0.712086
O O1 0.808012 0.987067 0.500000
O O2 0.827006 0.072179 0.298564
O O3 0.739400 0.976591 0.246018
O O4 0.841034 0.990097 0.168243
O O5 0.050256 0.113274 0.000000
O O6 0.273321 0.713100 0.274911
O O7 0.383805 0.786459 0.277112
O O8 0.303749 0.820977 0.266207
O O9 0.322586 0.775560 0.000000
O O10 0.338656 0.502235 0.781571
O O11 0.344650 0.576590 0.000000
O O12 0.236119 0.873841 0.730016
O O13 0.130027 0.820703 0.782609
O O14 0.194426 0.900256 0.000000
O O15 0.869921 0.314706 0.500000
O O16 0.804040 0.235383 0.279050
O O17 0.908949 0.289260 0.224902
O O18 0.577761 0.754990 0.000000
O O19 0.084890 0.761615 0.500000
#
# Coordination Sequence:
#
# PCOD9581260 Si02
#       8
#    12   6  12  12  12  12  12  12
#     4  11  23  39  60  87 115 143 179 217 255 300
#     4  12  27  46  66  90 118 152 185 214 246 286
#     4   8  13  22  37  57  84 121 166 211 252 304
#     4   9  15  24  38  58  84 123 170 212 256 308
#     4  10  18  30  51  78 105 130 161 207 259 307
#     4   9  16  27  41  61  90 123 160 204 256 309
#     4   8  15  27  43  64  90 122 160 203 254 310
#     4   9  19  33  50  72 101 135 164 200 255 310
#
# _framework density 18.431961000000001
#
# number of rings (size 3 to 8) (size 9 to 14) (size 15 to 20)
#    0.000    2.667    0.667    2.733    0.933    3.733 
#    0.000    2.667    0.000    0.800    0.000    0.933 
#    0.000    7.467    0.000    0.000    0.000    0.000 
#
# Total GULP energy -501136.419428 kJ/mol
# GULP energy per Si atom -5568.182438 kJ/mol
# Density = 1.839001 g / cm^3
# Si number density = 18.431961 Si / 1000 Ang^3
#
#
#
# Elastic Constant Matrix: (Units=GPa)
#
#
# Indices 1 2 3 4 5 6 
#
# 1 32.2517 -3.6717 9.0952 0.0000 0.0000 0.0000
# 2 -3.6717 32.2517 9.0952 0.0000 0.0000 0.0000
# 3 9.0952 9.0952 47.6837 0.0000 0.0000 0.0000
# 4 0.0000 0.0000 0.0000 -16.5358 0.0000 0.0000
# 5 0.0000 0.0000 0.0000 0.0000 -16.5358 0.0000
# 6 0.0000 0.0000 0.0000 0.0000 0.0000 17.9617
#
#
#
# Elastic Compliance Matrix: (Units=1/GPa)
#
#
# Indices 1 2 3 4 5 6 
#
# 1 0.033831 0.005994 -0.007596 0.000000 0.000000 0.000000
# 2 0.005994 0.033831 -0.007596 0.000000 0.000000 0.000000
# 3 -0.007596 -0.007596 0.023869 0.000000 0.000000 0.000000
# 4 0.000000 0.000000 0.000000 -0.060475 0.000000 0.000000
# 5 0.000000 0.000000 0.000000 0.000000 -0.060475 0.000000
# 6 0.000000 0.000000 0.000000 0.000000 0.000000 0.055674
#
#
# Mechanical properties :
#
#
# Convention : Reuss Voigt Hill
#
# Bulk Modulus (GPa) = 13.67363 15.69161 14.68262
# Shear Modulus (GPa) = 72.43235 3.48924 37.96080
#
# Velocity S-wave (km/s) = 6.27554 1.37737 4.54311
# Velocity P-wave (km/s) = 7.74238 3.32585 5.95843
#
# Compressibility (1/GPa) = 0.07313350
#
# Stress axis : x y z
#
# Youngs Moduli (GPa) = 29.55896 29.55896 41.89478
#
# Poissons Ratio (x) = -0.17717 0.31824
# Poissons Ratio (y) = -0.17717 0.31824
# Poissons Ratio (z) = 0.22453 0.22453
#
# Static dielectric constant tensor:
#      x y z
#    x 1.662550 0.000000 0.000000 
#    y 0.000000 1.662550 0.000000 
#    z 0.000000 0.000000 1.691320 
# 
# From -- ./inp_files/1464.got.cif
#   From: 2010.05.17/outbox.cif.g08.bks.cpg/sg175_1_cif.got.tgz:1464.got - 2010.05.20 11:23:22.
