data_PCOD9581055
_publ_section_title
;
Structure prediction by ZEFSAII (Michael W. Deem and Ramdas Pophale) SiO2 
 PCOD9581055
Probable space group: P 63
;
_chemical_formula_sum "Si O2"
_cell_formula_units_Z 36
_cell_length_a 8.896903
_cell_length_b 8.896903
_cell_length_c 29.339474
_cell_angle_alpha 90.000000
_cell_angle_beta 90.000000
_cell_angle_gamma 120.000000
_cell_volume 2011.225036
_symmetry_space_group_name_H-M "P 63"
_symmetry_group_IT_number 173
_symmetry_cell_setting 'hexagonal'
loop_
_space_group_symop_operation_xyz
x,y,z
x-y,x,1/2+z
-y,x-y,z
-x,-y,1/2+z
-x+y,-x,z
y,-x+y,1/2+z
loop_
_atom_site_type_symbol
_atom_site_label
_atom_site_fract_x
_atom_site_fract_y
_atom_site_fract_z
Si Si1 0.325784 0.004338 0.155180
Si Si2 0.195893 0.200173 0.756658
Si Si3 0.129215 0.477315 0.437482
Si Si4 0.002044 0.655385 0.118178
Si Si5 0.666674 0.135445 0.832965
Si Si6 0.646988 0.520674 0.518348
O O1 0.285084 0.010778 0.208217
O O2 0.167382 0.832055 0.134373
O O3 0.337705 0.168457 0.129463
O O4 0.501119 0.001959 0.146260
O O5 0.325150 0.310253 0.797021
O O6 0.997525 0.160228 0.759083
O O7 0.320410 0.499072 0.443026
O O8 0.077509 0.420385 0.385296
O O9 0.988818 0.367920 0.475044
O O10 0.026954 0.631928 0.064942
O O11 0.828117 0.334254 0.827158
O O12 0.497270 0.316649 0.517822
#
# Coordination Sequence:
#
# PCOD9581055 Si02
#       6
#     6   6   6   6   6   6
#     4  12  24  42  62  92 127 166 208 263 318 378
#     4  10  21  38  57  90 121 157 197 255 310 363
#     4   8  18  37  60  83 114 157 207 252 307 371
#     4  12  24  42  62  92 127 166 210 261 316 384
#     4   8  18  37  60  85 109 161 208 245 311 375
#     4  10  21  38  57  92 120 159 204 250 314 363
#
# _framework density 17.899538
#
# number of rings (size 3 to 8) (size 9 to 14) (size 15 to 20)
#    1.333    0.667    3.333    1.000    4.667    0.000 
#    6.000    0.000    0.000    1.333    0.000    0.000 
#    0.000    0.000    0.000    0.000    0.000    0.000 
#
# Total GULP energy -200424.143120 kJ/mol
# GULP energy per Si atom -5567.337309 kJ/mol
# Density = 1.785880 g / cm^3
# Si number density = 17.899538 Si / 1000 Ang^3
#
#
#
# Elastic Constant Matrix: (Units=GPa)
#
#
# Indices 1 2 3 4 5 6 
#
# 1 72.5658 62.9543 56.6135 0.0000 0.0000 0.0000
# 2 62.9543 72.5658 56.6135 0.0000 0.0000 0.0000
# 3 56.6135 56.6135 171.1629 0.0000 0.0000 0.0000
# 4 0.0000 0.0000 0.0000 48.8659 0.0000 0.0000
# 5 0.0000 0.0000 0.0000 0.0000 48.8659 0.0000
# 6 0.0000 0.0000 0.0000 0.0000 0.0000 4.8058
#
#
#
# Elastic Compliance Matrix: (Units=1/GPa)
#
#
# Indices 1 2 3 4 5 6 
#
# 1 0.057119 -0.046922 -0.003373 0.000000 0.000000 0.000000
# 2 -0.046922 0.057119 -0.003373 0.000000 0.000000 0.000000
# 3 -0.003373 -0.003373 0.008073 0.000000 0.000000 0.000000
# 4 0.000000 0.000000 0.000000 0.020464 0.000000 0.000000
# 5 0.000000 0.000000 0.000000 0.000000 0.020464 0.000000
# 6 0.000000 0.000000 0.000000 0.000000 0.000000 0.208084
#
#
# Mechanical properties :
#
#
# Convention : Reuss Voigt Hill
#
# Bulk Modulus (GPa) = 66.77159 74.29523 70.53341
# Shear Modulus (GPa) = 10.33802 29.84840 20.09321
#
# Velocity S-wave (km/s) = 2.40585 4.08800 3.35409
# Velocity P-wave (km/s) = 6.71580 7.99245 7.38177
#
# Compressibility (1/GPa) = 0.01497643
#
# Stress axis : x y z
#
# Youngs Moduli (GPa) = 17.50722 17.50722 123.86243
#
# Poissons Ratio (x) = 0.82148 0.41775
# Poissons Ratio (y) = 0.82148 0.41775
# Poissons Ratio (z) = 0.05905 0.05905
#
# Static dielectric constant tensor:
#      x y z
#    x 1.576950 0.000000 0.000000 
#    y 0.000000 1.576950 0.000000 
#    z 0.000000 0.000000 1.587370 
# 
# From -- ./inp_files/1474.got.cif
#   From: 2010.05.17/outbox.cif.g08.bks.cpg/sg173_cif.got.tgz:1474.got - 2010.05.20 11:21:53.
