data_PCOD9581482
_publ_section_title
;
Structure prediction by ZEFSAII (Michael W. Deem and Ramdas Pophale) SiO2 
 PCOD9581482
Probable space group: P 6/M
;
_chemical_formula_sum "Si O2"
_cell_formula_units_Z 48
_cell_length_a 15.246777
_cell_length_b 15.246777
_cell_length_c 11.055082
_cell_angle_alpha 90.000000
_cell_angle_beta 90.000000
_cell_angle_gamma 120.000000
_cell_volume 2225.608117
_symmetry_space_group_name_H-M "P 6/M"
_symmetry_group_IT_number 175
_symmetry_cell_setting 'hexagonal'
loop_
_space_group_symop_operation_xyz
x,y,z
x-y,x,z
-y,x-y,z
-x,-y,z
-x+y,-x,z
y,-x+y,z
-x,-y,-z
-x+y,-x,-z
y,-x+y,-z
x,y,-z
x-y,x,-z
-y,x-y,-z
loop_
_atom_site_type_symbol
_atom_site_label
_atom_site_fract_x
_atom_site_fract_y
_atom_site_fract_z
Si Si1 0.992612 0.600630 0.630175
Si Si2 0.297306 0.839351 0.194370
Si Si3 0.148987 0.924870 0.142336
Si Si4 0.514991 0.880227 0.863326
O O1 0.021497 0.654369 0.500000
O O2 0.059073 0.649033 0.751701
O O3 0.000000 0.500000 0.618299
O O4 0.876487 0.561581 0.666590
O O5 0.226910 0.883319 0.149226
O O6 0.411311 0.884734 0.143531
O O7 0.234681 0.721884 0.162451
O O8 0.038093 0.845275 0.193970
O O9 0.135102 0.932187 0.000000
O O10 0.557615 0.908817 0.000000
#
# Coordination Sequence:
#
# PCOD9581482 Si02
#       4
#    12  12  12  12
#     4   9  21  40  58  79 113 160 211 258 307 368
#     4  11  22  36  57  86 125 166 207 255 317 387
#     4  10  20  35  56  84 118 157 202 254 312 372
#     4  11  22  35  57  89 124 163 209 262 320 388
#
# _framework density 21.567139999999998
#
# number of rings (size 3 to 8) (size 9 to 14) (size 15 to 20)
#    0.000    1.750    0.000    4.500    0.000   10.500 
#    0.000    0.000    0.000    3.000    0.000    0.000 
#    0.000    4.000    0.000    0.000    0.000    0.000 
#
# Total GULP energy -267293.149642 kJ/mol
# GULP energy per Si atom -5568.607284 kJ/mol
# Density = 2.151805 g / cm^3
# Si number density = 21.567140 Si / 1000 Ang^3
#
#
#
# Elastic Constant Matrix: (Units=GPa)
#
#
# Indices 1 2 3 4 5 6 
#
# 1 110.2462 43.0556 23.4758 0.0000 0.0000 0.0000
# 2 43.0556 110.2462 23.4758 0.0000 0.0000 0.0000
# 3 23.4758 23.4758 155.4905 0.0000 0.0000 0.0000
# 4 0.0000 0.0000 0.0000 18.1350 0.0000 0.0000
# 5 0.0000 0.0000 0.0000 0.0000 18.1350 0.0000
# 6 0.0000 0.0000 0.0000 0.0000 0.0000 33.5953
#
#
#
# Elastic Compliance Matrix: (Units=1/GPa)
#
#
# Indices 1 2 3 4 5 6 
#
# 1 0.010861 -0.004022 -0.001033 0.000000 0.000000 0.000000
# 2 -0.004022 0.010861 -0.001033 0.000000 0.000000 0.000000
# 3 -0.001033 -0.001033 0.006743 0.000000 0.000000 0.000000
# 4 0.000000 0.000000 0.000000 0.055142 0.000000 0.000000
# 5 0.000000 0.000000 0.000000 0.000000 0.055142 0.000000
# 6 0.000000 0.000000 0.000000 0.000000 0.000000 0.029766
#
#
# Mechanical properties :
#
#
# Convention : Reuss Voigt Hill
#
# Bulk Modulus (GPa) = 61.38229 61.77748 61.57989
# Shear Modulus (GPa) = 26.86436 33.03809 29.95122
#
# Velocity S-wave (km/s) = 3.53316 3.91816 3.73063
# Velocity P-wave (km/s) = 6.72065 7.01254 6.86814
#
# Compressibility (1/GPa) = 0.01629134
#
# Stress axis : x y z
#
# Youngs Moduli (GPa) = 92.07096 92.07096 148.30061
#
# Poissons Ratio (x) = 0.37030 0.15313
# Poissons Ratio (y) = 0.37030 0.15313
# Poissons Ratio (z) = 0.09507 0.09507
#
# Static dielectric constant tensor:
#      x y z
#    x 1.844770 0.000000 0.000000 
#    y 0.000000 1.844770 0.000000 
#    z 0.000000 0.000000 1.838980 
# 
# From -- ./inp_files/1621.got.cif
#   From: 2010.05.17/outbox.cif.g08.bks.cpg/sg175_1_cif.got.tgz:1621.got - 2010.05.20 11:23:22.
