data_PCOD9581397
_publ_section_title
;
Structure prediction by ZEFSAII (Michael W. Deem and Ramdas Pophale) SiO2 
 PCOD9581397
Probable space group: P 6/M
;
_chemical_formula_sum "Si O2"
_cell_formula_units_Z 42
_cell_length_a 10.967479
_cell_length_b 10.967479
_cell_length_c 18.881596
_cell_angle_alpha 90.000000
_cell_angle_beta 90.000000
_cell_angle_gamma 120.000000
_cell_volume 1966.903059
_symmetry_space_group_name_H-M "P 6/M"
_symmetry_group_IT_number 175
_symmetry_cell_setting 'hexagonal'
loop_
_space_group_symop_operation_xyz
x,y,z
x-y,x,z
-y,x-y,z
-x,-y,z
-x+y,-x,z
y,-x+y,z
-x,-y,-z
-x+y,-x,-z
y,-x+y,-z
x,y,-z
x-y,x,-z
-y,x-y,-z
loop_
_atom_site_type_symbol
_atom_site_label
_atom_site_fract_x
_atom_site_fract_y
_atom_site_fract_z
Si Si1 0.170673 0.659560 0.288072
Si Si2 0.679795 0.934849 0.154467
Si Si3 0.065524 0.747071 0.000000
Si Si4 0.681828 0.935019 0.420179
O O1 0.204636 0.533390 0.287571
O O2 0.094385 0.667922 0.218152
O O3 0.096330 0.666200 0.359116
O O4 0.726671 0.816439 0.159486
O O5 0.610926 0.919630 0.076396
O O6 0.911478 0.729947 0.000000
O O7 0.728518 0.817496 0.413015
O O8 0.624354 0.922957 0.500000
#
# Coordination Sequence:
#
# PCOD9581397 Si02
#       4
#    12  12   6  12
#     4  10  24  40  52  75 110 155 192 223 255 305
#     4  10  19  34  58  85 111 138 175 228 284 332
#     4   8  15  28  50  82 112 136 167 216 282 340
#     4  10  21  38  62  89 113 136 169 222 282 332
#
# _framework density 21.353366999999999
#
# number of rings (size 3 to 8) (size 9 to 14) (size 15 to 20)
#    0.571    1.714    0.000    2.429    0.000    9.143 
#    0.000    7.143    0.000    5.143    0.000    0.000 
#    0.000    0.000    0.000    0.000    0.000    0.000 
#
# Total GULP energy -234537.789208 kJ/mol
# GULP energy per Si atom -5584.233076 kJ/mol
# Density = 2.130477 g / cm^3
# Si number density = 21.353367 Si / 1000 Ang^3
#
#
#
# Elastic Constant Matrix: (Units=GPa)
#
#
# Indices 1 2 3 4 5 6 
#
# 1 81.5767 13.6977 59.0923 0.0000 0.0000 0.0000
# 2 13.6977 81.5767 59.0923 0.0000 0.0000 0.0000
# 3 59.0923 59.0923 194.7635 0.0000 0.0000 0.0000
# 4 0.0000 0.0000 0.0000 -20.2862 0.0000 0.0000
# 5 0.0000 0.0000 0.0000 0.0000 -20.2862 0.0000
# 6 0.0000 0.0000 0.0000 0.0000 0.0000 33.9395
#
#
#
# Elastic Compliance Matrix: (Units=1/GPa)
#
#
# Indices 1 2 3 4 5 6 
#
# 1 0.015781 0.001049 -0.005106 0.000000 0.000000 0.000000
# 2 0.001049 0.015781 -0.005106 0.000000 0.000000 0.000000
# 3 -0.005106 -0.005106 0.008233 0.000000 0.000000 0.000000
# 4 0.000000 0.000000 0.000000 -0.049295 0.000000 0.000000
# 5 0.000000 0.000000 0.000000 0.000000 -0.049295 0.000000
# 6 0.000000 0.000000 0.000000 0.000000 0.000000 0.029464
#
#
# Mechanical properties :
#
#
# Convention : Reuss Voigt Hill
#
# Bulk Modulus (GPa) = 46.58080 69.07573 57.82826
# Shear Modulus (GPa) = -1299.96477 13.74241 -643.11118
#
# Velocity S-wave (km/s) = -24.70037 2.53962 -17.37324
# Velocity P-wave (km/s) = 28.13568 6.40458 19.37263
#
# Compressibility (1/GPa) = 0.02146807
#
# Stress axis : x y z
#
# Youngs Moduli (GPa) = 63.36648 63.36648 121.46150
#
# Poissons Ratio (x) = -0.06648 0.62023
# Poissons Ratio (y) = -0.06648 0.62023
# Poissons Ratio (z) = 0.32358 0.32358
#
# Static dielectric constant tensor:
#      x y z
#    x 1.751770 0.000000 0.000000 
#    y 0.000000 1.751770 0.000000 
#    z 0.000000 0.000000 1.781500 
# 
# From -- ./inp_files/2748.got.cif
#   From: 2010.05.17/outbox.cif.g08.bks.cpg/sg175_2_cif.got.tgz:2748.got - 2010.05.20 11:23:22.
