data_PCOD9581666
_publ_section_title
;
Structure prediction by ZEFSAII (Michael W. Deem and Ramdas Pophale) SiO2 
 PCOD9581666
Probable space group: P 6/M
;
_chemical_formula_sum "Si O2"
_cell_formula_units_Z 34
_cell_length_a 13.901572
_cell_length_b 13.901572
_cell_length_c 10.265435
_cell_angle_alpha 90.000000
_cell_angle_beta 90.000000
_cell_angle_gamma 120.000000
_cell_volume 1718.050067
_symmetry_space_group_name_H-M "P 6/M"
_symmetry_group_IT_number 175
_symmetry_cell_setting 'hexagonal'
loop_
_space_group_symop_operation_xyz
x,y,z
x-y,x,z
-y,x-y,z
-x,-y,z
-x+y,-x,z
y,-x+y,z
-x,-y,-z
-x+y,-x,-z
y,-x+y,-z
x,y,-z
x-y,x,-z
-y,x-y,-z
loop_
_atom_site_type_symbol
_atom_site_label
_atom_site_fract_x
_atom_site_fract_y
_atom_site_fract_z
Si Si1 0.626915 0.050573 0.254035
Si Si2 0.805017 0.451328 0.000000
Si Si3 0.835022 0.262474 0.651633
Si Si4 0.333334 0.666667 0.345221
O O1 0.635417 0.116847 0.121763
O O2 0.731068 0.138699 0.338316
O O3 0.500000 0.000000 0.306617
O O4 0.637280 0.939675 0.254517
O O5 0.682777 0.443160 0.000000
O O6 0.870285 0.285527 0.500000
O O7 0.774909 0.331391 0.694594
O O8 0.333334 0.666668 0.500000
#
# Coordination Sequence:
#
# PCOD9581666 Si02
#       4
#    12   6  12   4
#     4  12  23  39  63  91 131 177 227 279 338 408
#     4  10  25  44  66  94 133 180 222 278 343 408
#     4  11  23  37  60  94 133 175 219 276 343 413
#     4   9  18  33  54  88 131 172 207 255 325 404
#
# _framework density 19.789878000000002
#
# number of rings (size 3 to 8) (size 9 to 14) (size 15 to 20)
#    0.353    0.706    3.529    3.706    0.000    2.824 
#    0.000    0.000    0.000    0.706    0.000    2.471 
#    0.000    5.647    0.000    0.000    0.000    0.000 
#
# Total GULP energy -189363.529751 kJ/mol
# GULP energy per Si atom -5569.515581 kJ/mol
# Density = 1.974484 g / cm^3
# Si number density = 19.789878 Si / 1000 Ang^3
#
#
#
# Elastic Constant Matrix: (Units=GPa)
#
#
# Indices 1 2 3 4 5 6 
#
# 1 119.6060 51.3888 45.3961 0.0000 0.0000 0.0001
# 2 51.3888 119.6069 45.3958 0.0000 0.0000 0.0000
# 3 45.3961 45.3958 110.4405 0.0000 0.0000 0.0001
# 4 0.0000 0.0000 0.0000 28.1968 0.0001 0.0000
# 5 0.0000 0.0000 0.0000 0.0001 28.1967 0.0000
# 6 0.0001 0.0000 0.0001 0.0000 0.0000 34.1090
#
#
#
# Elastic Compliance Matrix: (Units=1/GPa)
#
#
# Indices 1 2 3 4 5 6 
#
# 1 0.011070 -0.003589 -0.003075 0.000000 0.000000 0.000000
# 2 -0.003589 0.011070 -0.003075 0.000000 0.000000 0.000000
# 3 -0.003075 -0.003075 0.011583 0.000000 0.000000 0.000000
# 4 0.000000 0.000000 0.000000 0.035465 0.000000 0.000000
# 5 0.000000 0.000000 0.000000 0.000000 0.035465 0.000000
# 6 0.000000 0.000000 0.000000 0.000000 0.000000 0.029318
#
#
# Mechanical properties :
#
#
# Convention : Reuss Voigt Hill
#
# Bulk Modulus (GPa) = 70.20326 70.44608 70.32467
# Shear Modulus (GPa) = 31.60632 31.93202 31.76917
#
# Velocity S-wave (km/s) = 4.00070 4.02126 4.01100
# Velocity P-wave (km/s) = 7.54269 7.56539 7.55405
#
# Compressibility (1/GPa) = 0.01424435
#
# Stress axis : x y z
#
# Youngs Moduli (GPa) = 90.33482 90.33578 86.33699
#
# Poissons Ratio (x) = 0.32422 0.26548
# Poissons Ratio (y) = 0.32422 0.26548
# Poissons Ratio (z) = 0.27778 0.27777
#
# Static dielectric constant tensor:
#      x y z
#    x 1.771700 0.000000 0.000000 
#    y 0.000000 1.771700 0.000000 
#    z 0.000000 0.000000 1.746160 
# 
# From -- ./inp_files/1512.got.cif
#   From: 2010.05.17/outbox.cif.g08.bks.cpg/sg175_1_cif.got.tgz:1512.got - 2010.05.20 11:23:22.
