data_PCOD9581713
_publ_section_title
;
Structure prediction by ZEFSAII (Michael W. Deem and Ramdas Pophale) SiO2 
 PCOD9581713
Probable space group: P 6/M
;
_chemical_formula_sum "Si O2"
_cell_formula_units_Z 72
_cell_length_a 24.000000
_cell_length_b 24.000000
_cell_length_c 9.000000
_cell_angle_alpha 90.000000
_cell_angle_beta 90.000000
_cell_angle_gamma 120.000000
_cell_volume 4489.475693
_symmetry_space_group_name_H-M "P 6/M"
_symmetry_group_IT_number 175
_symmetry_cell_setting 'hexagonal'
loop_
_space_group_symop_operation_xyz
x,y,z
x-y,x,z
-y,x-y,z
-x,-y,z
-x+y,-x,z
y,-x+y,z
-x,-y,-z
-x+y,-x,-z
y,-x+y,-z
x,y,-z
x-y,x,-z
-y,x-y,-z
loop_
_atom_site_type_symbol
_atom_site_label
_atom_site_fract_x
_atom_site_fract_y
_atom_site_fract_z
Si Si1 0.744194 0.744368 0.180844
Si Si2 0.136274 0.630683 0.320789
Si Si3 0.626596 0.129827 0.180055
Si Si4 0.773032 0.551800 0.179563
Si Si5 0.294871 0.147272 0.179470
Si Si6 0.378702 0.996621 0.679154
O O1 0.737803 0.808302 0.222528
O O2 0.808128 0.737993 0.222280
O O3 0.681827 0.682167 0.251043
O O4 0.739900 0.740186 0.000000
O O5 0.144478 0.630504 0.500000
O O6 0.142556 0.571699 0.248052
O O7 0.185844 0.702102 0.255047
O O8 0.064097 0.619183 0.292703
O O9 0.701624 0.184790 0.212272
O O10 0.617870 0.063277 0.248319
O O11 0.619959 0.124859 0.000000
O O12 0.813787 0.628532 0.222942
O O13 0.764847 0.550167 0.000000
O O14 0.293645 0.146908 0.000000
O O15 0.370888 0.988174 0.500000
#
# Coordination Sequence:
#
# PCOD9581713 Si02
#       6
#    12  12  12  12  12  12
#     4  10  18  33  56  83 112 147 186 226 273 331
#     4  11  24  39  55  80 113 146 181 223 282 337
#     4  11  23  39  59  81 107 143 189 231 274 327
#     4  10  20  37  59  82 104 139 188 235 278 326
#     4   9  17  31  56  84 112 142 183 229 271 323
#     4  11  22  35  54  83 114 143 175 223 281 335
#
# _framework density 16.037507000000002
#
# number of rings (size 3 to 8) (size 9 to 14) (size 15 to 20)
#    0.000    1.667    3.333    2.000    0.000    5.333 
#    1.000    0.833    0.000    0.333    0.000    2.333 
#    0.000    0.000    0.000    1.500    0.000    1.667 
#
# Total GULP energy -401347.988281 kJ/mol
# GULP energy per Si atom -5574.277615 kJ/mol
# Density = 1.600101 g / cm^3
# Si number density = 16.037507 Si / 1000 Ang^3
#
#
#
# Elastic Constant Matrix: (Units=GPa)
#
#
# Indices 1 2 3 4 5 6 
#
# 1 164.5462 82.9136 42.9941 0.0000 0.0000 0.0000
# 2 82.9136 164.5462 42.9941 0.0000 0.0000 0.0000
# 3 42.9941 42.9941 65.8475 0.0000 0.0000 0.0000
# 4 0.0000 0.0000 0.0000 27.3478 0.0000 0.0000
# 5 0.0000 0.0000 0.0000 0.0000 27.3478 0.0000
# 6 0.0000 0.0000 0.0000 0.0000 0.0000 40.8163
#
#
#
# Elastic Compliance Matrix: (Units=1/GPa)
#
#
# Indices 1 2 3 4 5 6 
#
# 1 0.008738 -0.003512 -0.003413 0.000000 0.000000 0.000000
# 2 -0.003512 0.008738 -0.003413 0.000000 0.000000 0.000000
# 3 -0.003413 -0.003413 0.019643 0.000000 0.000000 0.000000
# 4 0.000000 0.000000 0.000000 0.036566 0.000000 0.000000
# 5 0.000000 0.000000 0.000000 0.000000 0.036566 0.000000
# 6 0.000000 0.000000 0.000000 0.000000 0.000000 0.024500
#
#
# Mechanical properties :
#
#
# Convention : Reuss Voigt Hill
#
# Bulk Modulus (GPa) = 60.80568 81.41594 71.11081
# Shear Modulus (GPa) = 31.07350 34.17160 32.62255
#
# Velocity S-wave (km/s) = 4.40654 4.62099 4.51504
# Velocity P-wave (km/s) = 7.99294 8.90773 8.46270
#
# Compressibility (1/GPa) = 0.01644583
#
# Stress axis : x y z
#
# Youngs Moduli (GPa) = 114.43622 114.43622 50.90771
#
# Poissons Ratio (x) = 0.40184 0.17374
# Poissons Ratio (y) = 0.40184 0.17374
# Poissons Ratio (z) = 0.39056 0.39056
#
# Static dielectric constant tensor:
#      x y z
#    x 1.546440 0.000000 0.000000 
#    y 0.000000 1.546440 0.000000 
#    z 0.000000 0.000000 1.537050 
# 
# From -- ./inp_files/1143.got.cif
#   From: 2010.05.17/outbox.ucp.g08.bks.cvg/sg175_1_cif.got.tgz:1143.got - 2010.06.11 15:18:44.
