data_PCOD9581428
_publ_section_title
;
Structure prediction by ZEFSAII (Michael W. Deem and Ramdas Pophale) SiO2 
 PCOD9581428
Probable space group: P 6/M
;
_chemical_formula_sum "Si O2"
_cell_formula_units_Z 72
_cell_length_a 24.582873
_cell_length_b 24.582873
_cell_length_c 8.904084
_cell_angle_alpha 90.000000
_cell_angle_beta 90.000000
_cell_angle_gamma 120.000000
_cell_volume 4659.991828
_symmetry_space_group_name_H-M "P 6/M"
_symmetry_group_IT_number 175
_symmetry_cell_setting 'hexagonal'
loop_
_space_group_symop_operation_xyz
x,y,z
x-y,x,z
-y,x-y,z
-x,-y,z
-x+y,-x,z
y,-x+y,z
-x,-y,-z
-x+y,-x,-z
y,-x+y,-z
x,y,-z
x-y,x,-z
-y,x-y,-z
loop_
_atom_site_type_symbol
_atom_site_label
_atom_site_fract_x
_atom_site_fract_y
_atom_site_fract_z
Si Si1 0.624622 0.814190 0.321383
Si Si2 0.633817 0.928605 0.179216
Si Si3 0.253203 0.512929 0.178822
Si Si4 0.485604 0.627123 0.321139
Si Si5 0.633319 0.696859 0.678737
Si Si6 0.138946 0.625388 0.819880
O O1 0.611609 0.811795 0.500000
O O2 0.656311 0.884880 0.262116
O O3 0.559637 0.779311 0.229550
O O4 0.654795 0.770075 0.296424
O O5 0.560132 0.901676 0.220882
O O6 0.673146 0.000110 0.230732
O O7 0.636047 0.922051 0.000000
O O8 0.211217 0.537617 0.256634
O O9 0.325425 0.537333 0.220803
O O10 0.249922 0.517954 0.000000
O O11 0.482661 0.627268 0.500000
O O12 0.559088 0.656453 0.279720
O O13 0.440575 0.558202 0.257161
O O14 0.637773 0.688024 0.500000
O O15 0.135895 0.618116 0.000000
#
# Coordination Sequence:
#
# PCOD9581428 Si02
#       6
#    12  12  12  12  12  12
#     4   9  17  31  50  69  92 120 149 184 223 267
#     4  10  20  32  49  72  94 122 157 190 230 278
#     4   9  17  31  48  63  82 111 146 184 232 287
#     4  10  20  32  47  66  87 115 152 195 242 287
#     4   9  19  33  48  69  94 122 154 187 230 279
#     4   9  19  33  46  63  87 116 149 190 241 290
#
# _framework density 15.450670000000001
#
# number of rings (size 3 to 8) (size 9 to 14) (size 15 to 20)
#    0.000    2.667    0.000    4.000    0.000    8.667 
#    1.000    3.333    0.000    0.000    0.000    0.000 
#    0.000    0.000    0.000    0.500    0.000    9.667 
#
# Total GULP energy -400995.667231 kJ/mol
# GULP energy per Si atom -5569.384267 kJ/mol
# Density = 1.541550 g / cm^3
# Si number density = 15.450670 Si / 1000 Ang^3
#
#
#
# Elastic Constant Matrix: (Units=GPa)
#
#
# Indices 1 2 3 4 5 6 
#
# 1 64.2326 38.6162 23.2712 0.0000 0.0000 0.0000
# 2 38.6162 64.2326 23.2712 0.0000 0.0000 0.0000
# 3 23.2712 23.2712 20.3048 0.0000 0.0000 0.0000
# 4 0.0000 0.0000 0.0000 21.4220 0.0000 0.0000
# 5 0.0000 0.0000 0.0000 0.0000 21.4220 0.0000
# 6 0.0000 0.0000 0.0000 0.0000 0.0000 12.8082
#
#
#
# Elastic Compliance Matrix: (Units=1/GPa)
#
#
# Indices 1 2 3 4 5 6 
#
# 1 0.029618 -0.009419 -0.023150 0.000000 0.000000 0.000000
# 2 -0.009419 0.029618 -0.023150 0.000000 0.000000 0.000000
# 3 -0.023150 -0.023150 0.102314 0.000000 0.000000 0.000000
# 4 0.000000 0.000000 0.000000 0.046681 0.000000 0.000000
# 5 0.000000 0.000000 0.000000 0.000000 0.046681 0.000000
# 6 0.000000 0.000000 0.000000 0.000000 0.000000 0.078075
#
#
# Mechanical properties :
#
#
# Convention : Reuss Voigt Hill
#
# Bulk Modulus (GPa) = 19.95544 35.45414 27.70479
# Shear Modulus (GPa) = 10.84291 15.37120 13.10705
#
# Velocity S-wave (km/s) = 2.65198 3.15756 2.91575
# Velocity P-wave (km/s) = 4.72451 6.02412 5.41345
#
# Compressibility (1/GPa) = 0.05011164
#
# Stress axis : x y z
#
# Youngs Moduli (GPa) = 33.76279 33.76279 9.77384
#
# Poissons Ratio (x) = 0.31802 0.22627
# Poissons Ratio (y) = 0.31802 0.22627
# Poissons Ratio (z) = 0.78161 0.78161
#
# Static dielectric constant tensor:
#      x y z
#    x 1.528090 0.000000 0.000000 
#    y 0.000000 1.528090 0.000000 
#    z 0.000000 0.000000 1.512100 
# 
# From -- ./inp_files/1193.got.cif
#   From: 2010.05.17/outbox.cif.g08.bks.cpg/sg175_1_cif.got.tgz:1193.got - 2010.05.20 11:23:22.
