data_PCOD9581703
_publ_section_title
;
Structure prediction by ZEFSAII (Michael W. Deem and Ramdas Pophale) SiO2 
 PCOD9581703
Probable space group: P 6/M
;
_chemical_formula_sum "Si O2"
_cell_formula_units_Z 54
_cell_length_a 19.692139
_cell_length_b 19.692139
_cell_length_c 7.881210
_cell_angle_alpha 90.000000
_cell_angle_beta 90.000000
_cell_angle_gamma 120.000000
_cell_volume 2646.728030
_symmetry_space_group_name_H-M "P 6/M"
_symmetry_group_IT_number 175
_symmetry_cell_setting 'hexagonal'
loop_
_space_group_symop_operation_xyz
x,y,z
x-y,x,z
-y,x-y,z
-x,-y,z
-x+y,-x,z
y,-x+y,z
-x,-y,-z
-x+y,-x,-z
y,-x+y,-z
x,y,-z
x-y,x,-z
-y,x-y,-z
loop_
_atom_site_type_symbol
_atom_site_label
_atom_site_fract_x
_atom_site_fract_y
_atom_site_fract_z
Si Si1 0.185716 0.117329 0.500000
Si Si2 0.372199 0.062153 0.697074
Si Si3 0.308017 0.875926 0.696913
Si Si4 0.441551 0.531284 0.707608
Si Si5 0.703362 0.847968 0.815911
O O1 0.122118 0.145269 0.500000
O O2 0.241603 0.149535 0.664383
O O3 0.369947 0.083578 0.500000
O O4 0.462769 0.107288 0.758001
O O5 0.313201 0.080367 0.796248
O O6 0.344302 0.970306 0.699722
O O7 0.291107 0.850675 0.500000
O O8 0.377941 0.861963 0.760366
O O9 0.227539 0.844357 0.794648
O O10 0.500000 0.500000 0.761976
O O11 0.441897 0.531668 0.500000
O O12 0.736070 0.847719 0.000000
#
# Coordination Sequence:
#
# PCOD9581703 Si02
#       5
#     6  12  12  12  12
#     4  12  27  48  68  86 112 150 198 256 326 396
#     4   9  16  31  54  81 112 146 186 234 287 340
#     4   9  16  31  54  81 112 146 186 234 287 340
#     4   7  12  24  49  80 107 138 175 215 260 314
#     4  12  24  37  59  90 121 154 196 247 300 360
#
# _framework density 20.402552
#
# number of rings (size 3 to 8) (size 9 to 14) (size 15 to 20)
#    0.000    2.444    2.222    4.111    0.000    3.556 
#    0.000    1.111    0.000    6.222    0.000    3.111 
#    0.000    0.000    0.000    0.000    0.000    0.000 
#
# Total GULP energy -301077.207197 kJ/mol
# GULP energy per Si atom -5575.503837 kJ/mol
# Density = 2.035611 g / cm^3
# Si number density = 20.402552 Si / 1000 Ang^3
#
#
#
# Elastic Constant Matrix: (Units=GPa)
#
#
# Indices 1 2 3 4 5 6 
#
# 1 57.6915 3.3582 20.3033 0.0000 0.0000 0.0000
# 2 3.3582 57.6915 20.3033 0.0000 0.0000 0.0000
# 3 20.3033 20.3033 91.6095 0.0000 0.0000 0.0000
# 4 0.0000 0.0000 0.0000 -39.6358 0.0000 0.0000
# 5 0.0000 0.0000 0.0000 0.0000 -39.6358 0.0000
# 6 0.0000 0.0000 0.0000 0.0000 0.0000 27.1666
#
#
#
# Elastic Compliance Matrix: (Units=1/GPa)
#
#
# Indices 1 2 3 4 5 6 
#
# 1 0.018809 0.000404 -0.004258 0.000000 0.000000 0.000000
# 2 0.000404 0.018809 -0.004258 0.000000 0.000000 0.000000
# 3 -0.004258 -0.004258 0.012803 0.000000 0.000000 0.000000
# 4 0.000000 0.000000 0.000000 -0.025230 0.000000 0.000000
# 5 0.000000 0.000000 0.000000 0.000000 -0.025230 0.000000
# 6 0.000000 0.000000 0.000000 0.000000 0.000000 0.036810
#
#
# Mechanical properties :
#
#
# Convention : Reuss Voigt Hill
#
# Bulk Modulus (GPa) = 29.24335 32.76914 31.00625
# Shear Modulus (GPa) = 77.64694 0.44753 39.04724
#
# Velocity S-wave (km/s) = 6.17577 0.46886 4.37949
# Velocity P-wave (km/s) = 8.07575 4.04837 6.38776
#
# Compressibility (1/GPa) = 0.03419581
#
# Stress axis : x y z
#
# Youngs Moduli (GPa) = 53.16724 53.16724 78.10496
#
# Poissons Ratio (x) = -0.02146 0.33257
# Poissons Ratio (y) = -0.02146 0.33257
# Poissons Ratio (z) = 0.22639 0.22639
#
# Static dielectric constant tensor:
#      x y z
#    x 1.770140 0.000000 0.000000 
#    y 0.000000 1.770140 0.000000 
#    z 0.000000 0.000000 1.760140 
# 
# From -- ./inp_files/827.got.cif
#   From: 2010.05.17/outbox.cif.g08.bks.cpg/sg175_1_cif.got.tgz:827.got - 2010.05.20 11:23:22.
