data_PCOD9581278
_publ_section_title
;
Structure prediction by ZEFSAII (Michael W. Deem and Ramdas Pophale) SiO2 
 PCOD9581278
Probable space group: P 6/M
;
_chemical_formula_sum "Si O2"
_cell_formula_units_Z 84
_cell_length_a 19.646429
_cell_length_b 19.646429
_cell_length_c 13.850709
_cell_angle_alpha 90.000000
_cell_angle_beta 90.000000
_cell_angle_gamma 120.000000
_cell_volume 4629.881577
_symmetry_space_group_name_H-M "P 6/M"
_symmetry_group_IT_number 175
_symmetry_cell_setting 'hexagonal'
loop_
_space_group_symop_operation_xyz
x,y,z
x-y,x,z
-y,x-y,z
-x,-y,z
-x+y,-x,z
y,-x+y,z
-x,-y,-z
-x+y,-x,-z
y,-x+y,-z
x,y,-z
x-y,x,-z
-y,x-y,-z
loop_
_atom_site_type_symbol
_atom_site_label
_atom_site_fract_x
_atom_site_fract_y
_atom_site_fract_z
Si Si1 0.801473 0.283916 0.683206
Si Si2 0.846546 0.478909 0.893374
Si Si3 0.659085 0.943124 0.388138
Si Si4 0.447676 0.406885 0.285348
Si Si5 0.494499 0.195740 0.894239
Si Si6 0.858594 0.830356 0.382747
Si Si7 0.817209 0.443992 0.389976
O O1 0.851221 0.258936 0.615929
O O2 0.827074 0.278252 0.792061
O O3 0.708492 0.235116 0.664611
O O4 0.819593 0.371499 0.659131
O O5 0.902764 0.533526 0.808015
O O6 0.829780 0.390084 0.886018
O O7 0.761153 0.471744 0.892969
O O8 0.881769 0.509665 0.000000
O O9 0.664222 0.969451 0.500000
O O10 0.744263 0.957674 0.358093
O O11 0.626855 0.984818 0.315390
O O12 0.500000 0.500000 0.267834
O O13 0.484684 0.389329 0.379010
O O14 0.455639 0.167602 0.000000
O O15 0.843698 0.900553 0.350285
O O16 0.861194 0.832816 0.500000
O O17 0.790771 0.424151 0.500000
#
# Coordination Sequence:
#
# PCOD9581278 Si02
#       7
#    12  12  12  12  12  12  12
#     4  12  22  39  55  81 112 151 201 249 289 337
#     4  10  20  35  57  83 110 145 191 246 303 348
#     4  11  24  38  55  81 116 154 195 235 287 351
#     4  12  23  38  54  77 113 157 198 240 287 349
#     4  10  18  33  55  80 106 139 187 247 297 337
#     4   9  19  36  59  85 110 141 182 234 292 353
#     4  12  24  36  55  78 111 155 199 242 284 333
#
# _framework density 18.143014000000001
#
# number of rings (size 3 to 8) (size 9 to 14) (size 15 to 20)
#    0.000    1.143    4.286    2.429    2.000    2.571 
#    0.000    0.714    0.000    0.000    0.000    0.000 
#    0.000    0.000    0.000    0.857    0.000   14.000 
#
# Total GULP energy -468084.939034 kJ/mol
# GULP energy per Si atom -5572.439750 kJ/mol
# Density = 1.810172 g / cm^3
# Si number density = 18.143014 Si / 1000 Ang^3
#
#
#
# Elastic Constant Matrix: (Units=GPa)
#
#
# Indices 1 2 3 4 5 6 
#
# 1 92.6000 42.6135 22.8502 0.0000 0.0000 0.0000
# 2 42.6135 92.6000 22.8502 0.0000 0.0000 0.0000
# 3 22.8502 22.8502 118.7765 0.0000 0.0000 0.0000
# 4 0.0000 0.0000 0.0000 19.0714 0.0000 0.0000
# 5 0.0000 0.0000 0.0000 0.0000 19.0714 0.0000
# 6 0.0000 0.0000 0.0000 0.0000 0.0000 24.9932
#
#
#
# Elastic Compliance Matrix: (Units=1/GPa)
#
#
# Indices 1 2 3 4 5 6 
#
# 1 0.013958 -0.006048 -0.001522 0.000000 0.000000 0.000000
# 2 -0.006048 0.013958 -0.001522 0.000000 0.000000 0.000000
# 3 -0.001522 -0.001522 0.009005 0.000000 0.000000 0.000000
# 4 0.000000 0.000000 0.000000 0.052435 0.000000 0.000000
# 5 0.000000 0.000000 0.000000 0.000000 0.052435 0.000000
# 6 0.000000 0.000000 0.000000 0.000000 0.000000 0.040011
#
#
# Mechanical properties :
#
#
# Convention : Reuss Voigt Hill
#
# Bulk Modulus (GPa) = 53.36799 53.40048 53.38423
# Shear Modulus (GPa) = 24.24498 27.00471 25.62484
#
# Velocity S-wave (km/s) = 3.65954 3.86221 3.76224
# Velocity P-wave (km/s) = 6.88007 7.02751 6.95418
#
# Compressibility (1/GPa) = 0.01873782
#
# Stress axis : x y z
#
# Youngs Moduli (GPa) = 71.64495 71.64495 111.05340
#
# Poissons Ratio (x) = 0.43329 0.16899
# Poissons Ratio (y) = 0.43329 0.16899
# Poissons Ratio (z) = 0.10902 0.10902
#
# Static dielectric constant tensor:
#      x y z
#    x 1.660410 0.000000 0.000000 
#    y 0.000000 1.660410 0.000000 
#    z 0.000000 0.000000 1.663150 
# 
# From -- ./inp_files/2622.got.cif
#   From: 2010.05.17/outbox.cif.g08.bks.cpg/sg175_2_cif.got.tgz:2622.got - 2010.05.20 11:23:22.
