data_PCOD9581364
_publ_section_title
;
Structure prediction by ZEFSAII (Michael W. Deem and Ramdas Pophale) SiO2 
 PCOD9581364
Probable space group: P 6/M
;
_chemical_formula_sum "Si O2"
_cell_formula_units_Z 64
_cell_length_a 13.749798
_cell_length_b 13.749798
_cell_length_c 19.094537
_cell_angle_alpha 90.000000
_cell_angle_beta 90.000000
_cell_angle_gamma 120.000000
_cell_volume 3126.312591
_symmetry_space_group_name_H-M "P 6/M"
_symmetry_group_IT_number 175
_symmetry_cell_setting 'hexagonal'
loop_
_space_group_symop_operation_xyz
x,y,z
x-y,x,z
-y,x-y,z
-x,-y,z
-x+y,-x,z
y,-x+y,z
-x,-y,-z
-x+y,-x,-z
y,-x+y,-z
x,y,-z
x-y,x,-z
-y,x-y,-z
loop_
_atom_site_type_symbol
_atom_site_label
_atom_site_fract_x
_atom_site_fract_y
_atom_site_fract_z
Si Si1 0.333334 0.666668 0.082688
Si Si2 0.808532 0.065290 0.623032
Si Si3 0.613601 0.120499 0.576591
Si Si4 0.405344 0.535408 0.281206
Si Si5 0.940803 0.753637 0.207851
Si Si6 0.776879 0.525140 0.185133
O O1 0.256315 0.713463 0.116443
O O2 0.333334 0.666668 0.000000
O O3 0.716338 0.098386 0.596821
O O4 0.802068 0.062326 0.707613
O O5 0.937141 0.159990 0.602235
O O6 0.637505 0.175116 0.500000
O O7 0.577123 0.172867 0.640256
O O8 0.500000 0.000000 0.570091
O O9 0.500000 0.500000 0.281319
O O10 0.294353 0.444845 0.240750
O O11 0.444782 0.641462 0.231728
O O12 0.850560 0.789169 0.187820
O O13 0.895258 0.634260 0.171734
#
# Coordination Sequence:
#
# PCOD9581364 Si02
#       6
#     4  12  12  12  12  12
#     4   9  21  39  60  93 130 152 184 243 294 357
#     4  10  21  37  59  86 118 155 199 254 316 380
#     4  10  22  36  52  75 109 155 202 255 311 362
#     4  10  20  34  55  78 110 143 193 250 290 352
#     4  10  19  32  55  89 122 155 193 243 295 347
#     4  10  19  34  60  88 111 155 194 230 297 358
#
# _framework density 20.471402000000001
#
# number of rings (size 3 to 8) (size 9 to 14) (size 15 to 20)
#    0.000    2.062    1.875    1.875    7.875    2.250 
#    0.000    2.812    0.000   22.125    0.000    0.000 
#    0.000    1.500    0.000    0.000    0.000    0.000 
#
# Total GULP energy -356807.059433 kJ/mol
# GULP energy per Si atom -5575.110304 kJ/mol
# Density = 2.042481 g / cm^3
# Si number density = 20.471402 Si / 1000 Ang^3
#
#
#
# Elastic Constant Matrix: (Units=GPa)
#
#
# Indices 1 2 3 4 5 6 
#
# 1 77.3084 15.7952 17.6245 0.0000 0.0000 0.0001
# 2 15.7952 77.3083 17.6244 0.0000 0.0000 -0.0001
# 3 17.6245 17.6244 111.4933 0.0000 0.0000 0.0002
# 4 0.0000 0.0000 0.0000 -0.3175 0.0001 0.0000
# 5 0.0000 0.0000 0.0000 0.0001 -0.3176 0.0000
# 6 0.0001 -0.0001 0.0002 0.0000 0.0000 30.7564
#
#
#
# Elastic Compliance Matrix: (Units=1/GPa)
#
#
# Indices 1 2 3 4 5 6 
#
# 1 0.013841 -0.002416 -0.001806 0.000000 0.000000 0.000000
# 2 -0.002416 0.013841 -0.001806 0.000000 0.000000 0.000000
# 3 -0.001806 -0.001806 0.009540 0.000000 0.000000 0.000000
# 4 0.000000 0.000000 0.000000 -3.149550 -0.001320 0.000000
# 5 0.000000 0.000000 0.000000 -0.001320 -3.148909 0.000000
# 6 0.000000 0.000000 0.000000 0.000000 0.000000 0.032514
#
#
# Mechanical properties :
#
#
# Convention : Reuss Voigt Hill
#
# Bulk Modulus (GPa) = 39.73732 40.91091 40.32412
# Shear Modulus (GPa) = -0.80538 20.36199 9.77831
#
# Velocity S-wave (km/s) = -0.62791 3.15724 2.18791
# Velocity P-wave (km/s) = 4.35058 5.77223 5.11108
#
# Compressibility (1/GPa) = 0.02516526
#
# Stress axis : x y z
#
# Youngs Moduli (GPa) = 72.25143 72.25129 104.82071
#
# Poissons Ratio (x) = 0.17457 0.18930
# Poissons Ratio (y) = 0.17457 0.18930
# Poissons Ratio (z) = 0.13048 0.13048
#
# Static dielectric constant tensor:
#      x y z
#    x 1.804040 0.000000 0.000000 
#    y 0.000000 1.804040 0.000000 
#    z 0.000000 0.000000 1.717790 
# 
# From -- ./inp_files/2827.got.cif
#   From: 2010.05.17/outbox.cif.g08.bks.cpg/sg175_2_cif.got.tgz:2827.got - 2010.05.20 11:23:22.
