data_PCOD9581633
_publ_section_title
;
Structure prediction by ZEFSAII (Michael W. Deem and Ramdas Pophale) SiO2 
 PCOD9581633
Probable space group: P 6/M
;
_chemical_formula_sum "Si O2"
_cell_formula_units_Z 72
_cell_length_a 24.489652
_cell_length_b 24.489652
_cell_length_c 7.367577
_cell_angle_alpha 90.000000
_cell_angle_beta 90.000000
_cell_angle_gamma 120.000000
_cell_volume 3826.665868
_symmetry_space_group_name_H-M "P 6/M"
_symmetry_group_IT_number 175
_symmetry_cell_setting 'hexagonal'
loop_
_space_group_symop_operation_xyz
x,y,z
x-y,x,z
-y,x-y,z
-x,-y,z
-x+y,-x,z
y,-x+y,z
-x,-y,-z
-x+y,-x,-z
y,-x+y,-z
x,y,-z
x-y,x,-z
-y,x-y,-z
loop_
_atom_site_type_symbol
_atom_site_label
_atom_site_fract_x
_atom_site_fract_y
_atom_site_fract_z
Si Si1 0.385980 0.810041 0.721569
Si Si2 0.952538 0.645613 0.287276
Si Si3 0.277436 0.124046 0.000000
Si Si4 0.281129 0.523382 0.278646
Si Si5 0.383427 0.194884 0.287351
Si Si6 0.014185 0.248547 0.000000
Si Si7 0.570897 0.048086 0.278563
O O1 0.385742 0.809994 0.500000
O O2 0.314931 0.760701 0.778701
O O3 0.434993 0.788133 0.779644
O O4 0.407107 0.880785 0.779035
O O5 0.967657 0.658772 0.500000
O O6 0.876614 0.614774 0.268327
O O7 0.982728 0.708756 0.170943
O O8 0.969742 0.593290 0.224724
O O9 0.324613 0.145587 0.171425
O O10 0.244995 0.167062 0.000000
O O11 0.232519 0.049730 0.000000
O O12 0.280706 0.523182 0.500000
O O13 0.245706 0.450282 0.224373
O O14 0.375158 0.178651 0.500000
O O15 0.571373 0.048175 0.500000
O O16 0.500000 0.000000 0.219990
#
# Coordination Sequence:
#
# PCOD9581633 Si02
#       7
#    12  12   6  12  12   6  12
#     4   9  15  23  37  63  95 128 171 221 269 318
#     4   9  17  33  54  75 105 144 180 217 265 316
#     4  10  22  38  58  85 112 136 172 212 256 312
#     4   9  15  24  42  67  97 133 177 226 274 320
#     4   9  17  32  54  76 103 142 182 223 269 315
#     4  10  22  38  59  85 110 140 172 210 256 308
#     4   9  16  26  42  65  97 135 173 217 269 320
#
# _framework density 18.815332999999999
#
# number of rings (size 3 to 8) (size 9 to 14) (size 15 to 20)
#    0.000    2.833    1.667    0.333    0.000    3.333 
#    0.000    3.750    0.000    2.167    0.000    0.000 
#    0.000    0.000    0.000    8.333    0.000    0.000 
#
# Total GULP energy -402017.424402 kJ/mol
# GULP energy per Si atom -5583.575339 kJ/mol
# Density = 1.877251 g / cm^3
# Si number density = 18.815333 Si / 1000 Ang^3
#
#
#
# Elastic Constant Matrix: (Units=GPa)
#
#
# Indices 1 2 3 4 5 6 
#
# 1 107.9306 66.9748 22.7283 0.0000 0.0000 0.0000
# 2 66.9748 107.9306 22.7283 0.0000 0.0000 0.0000
# 3 22.7283 22.7283 69.5589 0.0000 0.0000 0.0000
# 4 0.0000 0.0000 0.0000 6.4133 0.0000 0.0000
# 5 0.0000 0.0000 0.0000 0.0000 6.4133 0.0000
# 6 0.0000 0.0000 0.0000 0.0000 0.0000 20.4779
#
#
#
# Elastic Compliance Matrix: (Units=1/GPa)
#
#
# Indices 1 2 3 4 5 6 
#
# 1 0.015332 -0.009084 -0.002042 0.000000 0.000000 0.000000
# 2 -0.009084 0.015332 -0.002042 0.000000 0.000000 0.000000
# 3 -0.002042 -0.002042 0.015710 0.000000 0.000000 0.000000
# 4 0.000000 0.000000 0.000000 0.155925 0.000000 0.000000
# 5 0.000000 0.000000 0.000000 0.000000 0.155925 0.000000
# 6 0.000000 0.000000 0.000000 0.000000 0.000000 0.048833
#
#
# Mechanical properties :
#
#
# Convention : Reuss Voigt Hill
#
# Bulk Modulus (GPa) = 49.89946 56.69806 53.29876
# Shear Modulus (GPa) = 11.36176 18.19350 14.77763
#
# Velocity S-wave (km/s) = 2.46002 3.11296 2.80555
# Velocity P-wave (km/s) = 5.88618 6.56659 6.23567
#
# Compressibility (1/GPa) = 0.02004030
#
# Stress axis : x y z
#
# Youngs Moduli (GPa) = 65.22195 65.22195 63.65199
#
# Poissons Ratio (x) = 0.59250 0.12995
# Poissons Ratio (y) = 0.59250 0.12995
# Poissons Ratio (z) = 0.13315 0.13315
#
# Static dielectric constant tensor:
#      x y z
#    x 1.622990 0.000000 0.000000 
#    y 0.000000 1.622990 0.000000 
#    z 0.000000 0.000000 1.720000 
# 
# From -- ./inp_files/1255.got.cif
#   From: 2010.05.17/outbox.cif.g08.bks.cpg/sg175_1_cif.got.tgz:1255.got - 2010.05.20 11:23:22.
