data_PCOD9581468
_publ_section_title
;
Structure prediction by ZEFSAII (Michael W. Deem and Ramdas Pophale) SiO2 
 PCOD9581468
Probable space group: P 6/M
;
_chemical_formula_sum "Si O2"
_cell_formula_units_Z 84
_cell_length_a 17.038331
_cell_length_b 17.038331
_cell_length_c 15.676939
_cell_angle_alpha 90.000000
_cell_angle_beta 90.000000
_cell_angle_gamma 120.000000
_cell_volume 3941.359068
_symmetry_space_group_name_H-M "P 6/M"
_symmetry_group_IT_number 175
_symmetry_cell_setting 'hexagonal'
loop_
_space_group_symop_operation_xyz
x,y,z
x-y,x,z
-y,x-y,z
-x,-y,z
-x+y,-x,z
y,-x+y,z
-x,-y,-z
-x+y,-x,-z
y,-x+y,-z
x,y,-z
x-y,x,-z
-y,x-y,-z
loop_
_atom_site_type_symbol
_atom_site_label
_atom_site_fract_x
_atom_site_fract_y
_atom_site_fract_z
Si Si1 0.733119 0.127852 0.591331
Si Si2 0.977162 0.802728 0.093712
Si Si3 0.872949 0.472650 0.096215
Si Si4 0.273458 0.066041 0.593685
Si Si5 0.599021 0.037457 0.270562
Si Si6 0.453002 0.191307 0.096847
Si Si7 0.761641 0.692436 0.228732
O O1 0.693450 0.132591 0.500000
O O2 0.837912 0.205969 0.593143
O O3 0.674097 0.119604 0.673046
O O4 0.733647 0.031956 0.591179
O O5 0.985697 0.745645 0.169184
O O6 0.896202 0.823616 0.100319
O O7 0.971250 0.762270 0.000000
O O8 0.934890 0.531485 0.173469
O O9 0.848418 0.368989 0.108061
O O10 0.786264 0.486599 0.101582
O O11 0.910191 0.501732 0.000000
O O12 0.232357 0.069768 0.500000
O O13 0.248752 0.075081 0.692553
O O14 0.500000 0.000000 0.308818
O O15 0.624094 0.958871 0.269944
O O16 0.371253 0.150546 0.164961
O O17 0.414969 0.167962 0.000000
#
# Coordination Sequence:
#
# PCOD9581468 Si02
#       7
#    12  12  12  12  12  12  12
#     4   9  19  36  59  84 111 144 185 232 284 339
#     4  10  23  41  61  85 116 154 194 236 283 334
#     4  10  21  35  54  76 107 147 186 231 279 334
#     4   9  19  35  56  83 111 144 182 228 284 338
#     4  11  22  37  53  81 114 145 185 229 285 334
#     4  10  20  35  53  76 106 145 189 229 279 337
#     4  11  22  35  56  84 113 145 187 239 278 340
#
# _framework density 21.312445
#
# number of rings (size 3 to 8) (size 9 to 14) (size 15 to 20)
#    0.000    2.000    1.429    1.714    6.000    3.429 
#    0.000    0.000    0.000    0.286    0.000    2.000 
#    0.000    0.000    0.000    0.000    0.000    0.000 
#
# Total GULP energy -467706.894968 kJ/mol
# GULP energy per Si atom -5567.939226 kJ/mol
# Density = 2.126394 g / cm^3
# Si number density = 21.312445 Si / 1000 Ang^3
#
#
#
# Elastic Constant Matrix: (Units=GPa)
#
#
# Indices 1 2 3 4 5 6 
#
# 1 71.0892 11.0997 29.1903 0.0000 0.0000 0.0000
# 2 11.0997 71.0892 29.1903 0.0000 0.0000 0.0000
# 3 29.1903 29.1903 154.2894 0.0000 0.0000 0.0000
# 4 0.0000 0.0000 0.0000 7.4778 0.0000 0.0000
# 5 0.0000 0.0000 0.0000 0.0000 7.4778 0.0000
# 6 0.0000 0.0000 0.0000 0.0000 0.0000 29.9947
#
#
#
# Elastic Compliance Matrix: (Units=1/GPa)
#
#
# Indices 1 2 3 4 5 6 
#
# 1 0.015363 -0.001307 -0.002659 0.000000 0.000000 0.000000
# 2 -0.001307 0.015363 -0.002659 0.000000 0.000000 0.000000
# 3 -0.002659 -0.002659 0.007488 0.000000 0.000000 0.000000
# 4 0.000000 0.000000 0.000000 0.133730 0.000000 0.000000
# 5 0.000000 0.000000 0.000000 0.000000 0.133730 0.000000
# 6 0.000000 0.000000 0.000000 0.000000 0.000000 0.033339
#
#
# Mechanical properties :
#
#
# Convention : Reuss Voigt Hill
#
# Bulk Modulus (GPa) = 40.06007 48.38091 44.22049
# Shear Modulus (GPa) = 13.86639 24.12254 18.99447
#
# Velocity S-wave (km/s) = 2.55350 3.36795 2.98860
# Velocity P-wave (km/s) = 5.24702 6.15420 5.71863
#
# Compressibility (1/GPa) = 0.02496251
#
# Stress axis : x y z
#
# Youngs Moduli (GPa) = 65.09220 65.09220 133.55482
#
# Poissons Ratio (x) = 0.08506 0.35516
# Poissons Ratio (y) = 0.08506 0.35516
# Poissons Ratio (z) = 0.17310 0.17310
#
# Static dielectric constant tensor:
#      x y z
#    x 1.794380 0.000000 0.000000 
#    y 0.000000 1.794380 0.000000 
#    z 0.000000 0.000000 1.883020 
# 
# From -- ./inp_files/2613.got.cif
#   From: 2010.05.17/outbox.cif.g08.bks.cpg/sg175_2_cif.got.tgz:2613.got - 2010.05.20 11:23:22.
