data_PCOD9581281
_publ_section_title
;
Structure prediction by ZEFSAII (Michael W. Deem and Ramdas Pophale) SiO2 
 PCOD9581281
Probable space group: P 6/M
;
_chemical_formula_sum "Si O2"
_cell_formula_units_Z 72
_cell_length_a 23.212641
_cell_length_b 23.212641
_cell_length_c 8.917831
_cell_angle_alpha 90.000000
_cell_angle_beta 90.000000
_cell_angle_gamma 120.000000
_cell_volume 4161.395365
_symmetry_space_group_name_H-M "P 6/M"
_symmetry_group_IT_number 175
_symmetry_cell_setting 'hexagonal'
loop_
_space_group_symop_operation_xyz
x,y,z
x-y,x,z
-y,x-y,z
-x,-y,z
-x+y,-x,z
y,-x+y,z
-x,-y,-z
-x+y,-x,-z
y,-x+y,-z
x,y,-z
x-y,x,-z
-y,x-y,-z
loop_
_atom_site_type_symbol
_atom_site_label
_atom_site_fract_x
_atom_site_fract_y
_atom_site_fract_z
Si Si1 0.141854 0.291113 0.817371
Si Si2 0.387414 0.387228 0.821538
Si Si3 0.744953 0.995338 0.817235
Si Si4 0.445964 0.213153 0.180981
Si Si5 0.874357 0.377328 0.677627
Si Si6 0.146689 0.511709 0.178167
O O1 0.185094 0.257558 0.768084
O O2 0.182970 0.369157 0.775816
O O3 0.065424 0.258279 0.766534
O O4 0.140305 0.289239 0.000000
O O5 0.316798 0.324005 0.775574
O O6 0.401903 0.453306 0.736533
O O7 0.446277 0.371344 0.797948
O O8 0.383367 0.397430 0.000000
O O9 0.746123 0.995897 0.000000
O O10 0.473853 0.169655 0.253613
O O11 0.491285 0.290348 0.221540
O O12 0.446542 0.207533 0.000000
O O13 0.872500 0.374424 0.500000
O O14 0.850097 0.426860 0.736127
O O15 0.152893 0.525938 0.000000
#
# Coordination Sequence:
#
# PCOD9581281 Si02
#       6
#    12  12  12  12  12  12
#     4   9  15  26  49  80 108 133 170 222 269 309
#     4  10  18  33  58  82 103 133 178 229 270 312
#     4   9  15  25  48  80 109 134 169 219 269 311
#     4  10  19  36  60  79  98 132 185 238 273 309
#     4  12  25  37  51  76 113 148 174 207 273 339
#     4  10  21  37  59  82 101 131 184 234 274 314
#
# _framework density 17.301888999999999
#
# number of rings (size 3 to 8) (size 9 to 14) (size 15 to 20)
#    0.000    2.000    3.333    2.000    0.000    3.333 
#    1.000    0.000    0.000    0.333    0.000    2.333 
#    0.000    0.000    0.000    0.000    0.000    1.667 
#
# Total GULP energy -401826.237437 kJ/mol
# GULP energy per Si atom -5580.919964 kJ/mol
# Density = 1.726251 g / cm^3
# Si number density = 17.301889 Si / 1000 Ang^3
#
#
#
# Elastic Constant Matrix: (Units=GPa)
#
#
# Indices 1 2 3 4 5 6 
#
# 1 73.2853 20.7108 17.8106 0.0000 0.0000 0.0000
# 2 20.7108 73.2853 17.8106 0.0000 0.0000 0.0000
# 3 17.8106 17.8106 12.0800 0.0000 0.0000 0.0000
# 4 0.0000 0.0000 0.0000 -6.9491 0.0000 0.0000
# 5 0.0000 0.0000 0.0000 0.0000 -6.9491 0.0000
# 6 0.0000 0.0000 0.0000 0.0000 0.0000 26.2873
#
#
#
# Elastic Compliance Matrix: (Units=1/GPa)
#
#
# Indices 1 2 3 4 5 6 
#
# 1 0.021565 0.002545 -0.035548 0.000000 0.000000 0.000000
# 2 0.002545 0.021565 -0.035548 0.000000 0.000000 0.000000
# 3 -0.035548 -0.035548 0.187605 0.000000 0.000000 0.000000
# 4 0.000000 0.000000 0.000000 -0.143904 0.000000 0.000000
# 5 0.000000 0.000000 0.000000 0.000000 -0.143904 0.000000
# 6 0.000000 0.000000 0.000000 0.000000 0.000000 0.038041
#
#
# Mechanical properties :
#
#
# Convention : Reuss Voigt Hill
#
# Bulk Modulus (GPa) = 10.67990 30.14608 20.41299
# Shear Modulus (GPa) = 33.49350 9.29906 21.39628
#
# Velocity S-wave (km/s) = 4.40458 2.32083 3.52041
# Velocity P-wave (km/s) = 5.66155 4.96418 5.32430
#
# Compressibility (1/GPa) = 0.09363381
#
# Stress axis : x y z
#
# Youngs Moduli (GPa) = 46.37057 46.37057 5.33034
#
# Poissons Ratio (x) = -0.11800 0.18948
# Poissons Ratio (y) = -0.11800 0.18948
# Poissons Ratio (z) = 1.64838 1.64838
#
# Static dielectric constant tensor:
#      x y z
#    x 1.581920 0.000000 0.000000 
#    y 0.000000 1.581920 0.000000 
#    z 0.000000 0.000000 1.569830 
# 
# From -- ./inp_files/1210.got.cif
#   From: 2010.05.17/outbox.cif.g08.bks.cpg/sg175_1_cif.got.tgz:1210.got - 2010.05.20 11:23:22.
