data_PCOD9581490
_publ_section_title
;
Structure prediction by ZEFSAII (Michael W. Deem and Ramdas Pophale) SiO2 
 PCOD9581490
Probable space group: P 6/M
;
_chemical_formula_sum "Si O2"
_cell_formula_units_Z 72
_cell_length_a 24.276781
_cell_length_b 24.276781
_cell_length_c 7.638217
_cell_angle_alpha 90.000000
_cell_angle_beta 90.000000
_cell_angle_gamma 120.000000
_cell_volume 3898.565411
_symmetry_space_group_name_H-M "P 6/M"
_symmetry_group_IT_number 175
_symmetry_cell_setting 'hexagonal'
loop_
_space_group_symop_operation_xyz
x,y,z
x-y,x,z
-y,x-y,z
-x,-y,z
-x+y,-x,z
y,-x+y,z
-x,-y,-z
-x+y,-x,-z
y,-x+y,-z
x,y,-z
x-y,x,-z
-y,x-y,-z
loop_
_atom_site_type_symbol
_atom_site_label
_atom_site_fract_x
_atom_site_fract_y
_atom_site_fract_z
Si Si1 0.422881 0.810025 0.788642
Si Si2 0.000673 0.667393 0.706804
Si Si3 0.281110 0.155361 0.000000
Si Si4 0.242311 0.521228 0.212502
Si Si5 0.377055 0.232367 0.698020
Si Si6 0.980128 0.233492 0.000000
Si Si7 0.474913 0.045580 0.708051
O O1 0.351696 0.787823 0.727288
O O2 0.447561 0.762787 0.728865
O O3 0.472659 0.881712 0.737194
O O4 0.420621 0.807120 0.000000
O O5 0.015796 0.683250 0.500000
O O6 0.923828 0.627524 0.722513
O O7 0.022852 0.728087 0.830316
O O8 0.029384 0.623905 0.771570
O O9 0.328327 0.181793 0.165943
O O10 0.243087 0.079701 0.000000
O O11 0.239894 0.190542 0.000000
O O12 0.200028 0.448825 0.272233
O O13 0.241846 0.520809 0.000000
O O14 0.357642 0.210261 0.500000
O O15 0.465903 0.033386 0.500000
O O16 0.500000 0.000000 0.780926
#
# Coordination Sequence:
#
# PCOD9581490 Si02
#       7
#    12  12   6  12  12   6  12
#     4  10  22  35  53  74 100 140 183 234 287 338
#     4   9  20  36  55  82 114 148 186 232 283 336
#     4  10  22  40  60  91 120 152 186 224 270 332
#     4  10  20  36  52  73 105 141 190 242 295 345
#     4  10  20  36  59  83 112 149 185 231 286 336
#     4  10  22  38  63  85 122 152 186 224 270 332
#     4  10  21  36  51  72 105 138 177 232 288 340
#
# _framework density 18.468332
#
# number of rings (size 3 to 8) (size 9 to 14) (size 15 to 20)
#    0.000    2.167    0.833    1.333    3.500    5.000 
#    0.000    0.000    0.000    2.167    0.000    0.000 
#    0.000    0.000    0.000    8.333    0.000    0.000 
#
# Total GULP energy -402179.993249 kJ/mol
# GULP energy per Si atom -5585.833240 kJ/mol
# Density = 1.842630 g / cm^3
# Si number density = 18.468332 Si / 1000 Ang^3
#
#
#
# Elastic Constant Matrix: (Units=GPa)
#
#
# Indices 1 2 3 4 5 6 
#
# 1 109.8746 65.2507 25.8592 0.0000 0.0000 0.0000
# 2 65.2507 109.8746 25.8592 0.0000 0.0000 0.0000
# 3 25.8592 25.8592 65.2034 0.0000 0.0000 0.0000
# 4 0.0000 0.0000 0.0000 56.6044 0.0000 0.0000
# 5 0.0000 0.0000 0.0000 0.0000 56.6044 0.0000
# 6 0.0000 0.0000 0.0000 0.0000 0.0000 22.3119
#
#
#
# Elastic Compliance Matrix: (Units=1/GPa)
#
#
# Indices 1 2 3 4 5 6 
#
# 1 0.014439 -0.007971 -0.002565 0.000000 0.000000 0.000000
# 2 -0.007971 0.014439 -0.002565 0.000000 0.000000 0.000000
# 3 -0.002565 -0.002565 0.017371 0.000000 0.000000 0.000000
# 4 0.000000 0.000000 0.000000 0.017666 0.000000 0.000000
# 5 0.000000 0.000000 0.000000 0.000000 0.017666 0.000000
# 6 0.000000 0.000000 0.000000 0.000000 0.000000 0.044819
#
#
# Mechanical properties :
#
#
# Convention : Reuss Voigt Hill
#
# Bulk Modulus (GPa) = 49.88425 57.65455 53.76940
# Shear Modulus (GPa) = 31.39032 38.30301 34.84667
#
# Velocity S-wave (km/s) = 4.12719 4.55904 4.34848
# Velocity P-wave (km/s) = 7.05556 7.68108 7.37496
#
# Compressibility (1/GPa) = 0.02004641
#
# Stress axis : x y z
#
# Youngs Moduli (GPa) = 69.25860 69.25860 57.56659
#
# Poissons Ratio (x) = 0.55206 0.14766
# Poissons Ratio (y) = 0.55206 0.14766
# Poissons Ratio (z) = 0.17765 0.17765
#
# Static dielectric constant tensor:
#      x y z
#    x 1.612350 0.000000 0.000000 
#    y 0.000000 1.612350 0.000000 
#    z 0.000000 0.000000 1.674660 
# 
# From -- ./inp_files/1254.got.cif
#   From: 2010.05.17/outbox.cif.g08.bks.cpg/sg175_1_cif.got.tgz:1254.got - 2010.05.20 11:23:22.
