data_PCOD9581301
_publ_section_title
;
Structure prediction by ZEFSAII (Michael W. Deem and Ramdas Pophale) SiO2 
 PCOD9581301
Probable space group: P 6/M
;
_chemical_formula_sum "Si O2"
_cell_formula_units_Z 60
_cell_length_a 9.717161
_cell_length_b 9.717161
_cell_length_c 28.802878
_cell_angle_alpha 90.000000
_cell_angle_beta 90.000000
_cell_angle_gamma 120.000000
_cell_volume 2355.295018
_symmetry_space_group_name_H-M "P 6/M"
_symmetry_group_IT_number 175
_symmetry_cell_setting 'hexagonal'
loop_
_space_group_symop_operation_xyz
x,y,z
x-y,x,z
-y,x-y,z
-x,-y,z
-x+y,-x,z
y,-x+y,z
-x,-y,-z
-x+y,-x,-z
y,-x+y,-z
x,y,-z
x-y,x,-z
-y,x-y,-z
loop_
_atom_site_type_symbol
_atom_site_label
_atom_site_fract_x
_atom_site_fract_y
_atom_site_fract_z
Si Si1 0.521602 0.685184 0.949793
Si Si2 0.626470 0.740820 0.648662
Si Si3 0.373634 0.258544 0.549553
Si Si4 0.111632 0.373411 0.747713
Si Si5 0.098874 0.362127 0.154298
O O1 0.473886 0.823442 0.951319
O O2 0.572833 0.686973 0.897306
O O3 0.603778 0.704896 0.000000
O O4 0.700101 0.931172 0.648643
O O5 0.539463 0.679660 0.599102
O O6 0.539283 0.677915 0.698167
O O7 0.299650 0.068173 0.549552
O O8 0.460593 0.320038 0.500000
O O9 0.229965 0.301388 0.747374
O O10 0.132566 0.460082 0.797405
O O11 0.219608 0.297703 0.156450
#
# Coordination Sequence:
#
# PCOD9581301 Si02
#       5
#    12  12  12  12  12
#     4   8  18  37  54  69  84 108 147 182 209 239
#     4   8  11  14  20  30  48  77 114 152 186 223
#     4   8  11  12  14  22  38  64 103 151 194 221
#     4   8  13  20  30  46  69  98 128 155 189 236
#     4  10  19  30  46  69  96 120 141 171 213 259
#
# _framework density 25.474513000000002
#
# number of rings (size 3 to 8) (size 9 to 14) (size 15 to 20)
#    0.400    3.200    0.000    0.800    0.000    7.200 
#    0.000    2.000    0.000    1.200    0.000    0.000 
#    0.000    0.000    0.000    0.000    0.000    2.000 
#
# Total GULP energy -334099.057277 kJ/mol
# GULP energy per Si atom -5568.317621 kJ/mol
# Density = 2.541653 g / cm^3
# Si number density = 25.474513 Si / 1000 Ang^3
#
#
#
# Elastic Constant Matrix: (Units=GPa)
#
#
# Indices 1 2 3 4 5 6 
#
# 1 70.8965 4.3809 31.1765 0.0000 0.0000 0.0000
# 2 4.3809 70.8965 31.1765 0.0000 0.0000 0.0000
# 3 31.1765 31.1765 418.4372 0.0000 0.0000 0.0000
# 4 0.0000 0.0000 0.0000 -265.5072 0.0000 0.0000
# 5 0.0000 0.0000 0.0000 0.0000 -265.5072 0.0000
# 6 0.0000 0.0000 0.0000 0.0000 0.0000 33.2578
#
#
#
# Elastic Compliance Matrix: (Units=1/GPa)
#
#
# Indices 1 2 3 4 5 6 
#
# 1 0.014596 -0.000438 -0.001055 0.000000 0.000000 0.000000
# 2 -0.000438 0.014596 -0.001055 0.000000 0.000000 0.000000
# 3 -0.001055 -0.001055 0.002547 0.000000 0.000000 0.000000
# 4 0.000000 0.000000 0.000000 -0.003766 0.000000 0.000000
# 5 0.000000 0.000000 0.000000 0.000000 -0.003766 0.000000
# 6 0.000000 0.000000 0.000000 0.000000 0.000000 0.030068
#
#
# Mechanical properties :
#
#
# Convention : Reuss Voigt Hill
#
# Bulk Modulus (GPa) = 37.53262 77.07755 57.30509
# Shear Modulus (GPa) = 73.25880 -66.65157 3.30362
#
# Velocity S-wave (km/s) = 5.36844 -5.12063 1.14002
# Velocity P-wave (km/s) = 7.29330 2.15376 4.92715
#
# Compressibility (1/GPa) = 0.02664349
#
# Stress axis : x y z
#
# Youngs Moduli (GPa) = 68.51185 68.51185 392.61333
#
# Poissons Ratio (x) = 0.03001 0.41416
# Poissons Ratio (y) = 0.03001 0.41416
# Poissons Ratio (z) = 0.07227 0.07227
#
# Static dielectric constant tensor:
#      x y z
#    x 2.014670 0.000000 0.000000 
#    y 0.000000 2.014670 0.000000 
#    z 0.000000 0.000000 2.142430 
# 
# From -- ./inp_files/3292.got.cif
#   From: 2010.05.17/outbox.cif.g08.bks.cpg/sg175_2_cif.got.tgz:3292.got - 2010.05.20 11:23:22.
