data_PCOD9581231
_publ_section_title
;
Structure prediction by ZEFSAII (Michael W. Deem and Ramdas Pophale) SiO2 
 PCOD9581231
Probable space group: P 6/M
;
_chemical_formula_sum "Si O2"
_cell_formula_units_Z 60
_cell_length_a 17.445160
_cell_length_b 17.445160
_cell_length_c 12.638543
_cell_angle_alpha 90.000000
_cell_angle_beta 90.000000
_cell_angle_gamma 120.000000
_cell_volume 3331.022422
_symmetry_space_group_name_H-M "P 6/M"
_symmetry_group_IT_number 175
_symmetry_cell_setting 'hexagonal'
loop_
_space_group_symop_operation_xyz
x,y,z
x-y,x,z
-y,x-y,z
-x,-y,z
-x+y,-x,z
y,-x+y,z
-x,-y,-z
-x+y,-x,-z
y,-x+y,-z
x,y,-z
x-y,x,-z
-y,x-y,-z
loop_
_atom_site_type_symbol
_atom_site_label
_atom_site_fract_x
_atom_site_fract_y
_atom_site_fract_z
Si Si1 0.861244 0.803581 0.767764
Si Si2 0.874012 0.369158 0.621462
Si Si3 0.204103 0.399034 0.237492
Si Si4 0.987290 0.209531 0.000000
Si Si5 0.187705 0.813024 0.000000
Si Si6 0.082006 0.434699 0.378546
O O1 0.831149 0.871798 0.727488
O O2 0.804124 0.697779 0.750789
O O3 0.849095 0.812600 0.894386
O O4 0.846042 0.340295 0.500000
O O5 0.819815 0.291146 0.702901
O O6 0.872815 0.459693 0.639119
O O7 0.977061 0.395913 0.630217
O O8 0.120163 0.393840 0.295987
O O9 0.202452 0.419905 0.113531
O O10 0.085597 0.292540 0.000000
O O11 0.918897 0.246145 0.000000
O O12 0.100165 0.420037 0.500000
#
# Coordination Sequence:
#
# PCOD9581231 Si02
#       6
#    12  12  12   6   6  12
#     4  11  19  29  45  73 111 156 202 241 271 310
#     4   9  19  36  58  84 108 133 176 231 290 349
#     4  11  20  34  56  80 112 153 186 234 282 342
#     4  10  16  30  43  68 108 153 197 242 267 293
#     4  10  22  30  50  79 115 151 201 231 264 334
#     4   9  19  37  58  82 109 134 174 234 290 345
#
# _framework density 18.012488999999999
#
# number of rings (size 3 to 8) (size 9 to 14) (size 15 to 20)
#    0.000    2.000    4.000    3.200    2.800    0.000 
#    1.200    2.000    0.000    2.400    0.000    0.000 
#    0.000    9.600    0.000    0.000    0.000    0.000 
#
# Total GULP energy -334127.191445 kJ/mol
# GULP energy per Si atom -5568.786524 kJ/mol
# Density = 1.797149 g / cm^3
# Si number density = 18.012489 Si / 1000 Ang^3
#
#
#
# Elastic Constant Matrix: (Units=GPa)
#
#
# Indices 1 2 3 4 5 6 
#
# 1 44.6495 -0.4046 30.3096 0.0000 0.0000 0.0000
# 2 -0.4046 44.6495 30.3096 0.0000 0.0000 0.0000
# 3 30.3096 30.3096 91.9856 0.0000 0.0000 0.0000
# 4 0.0000 0.0000 0.0000 16.1034 0.0000 0.0000
# 5 0.0000 0.0000 0.0000 0.0000 16.1034 0.0000
# 6 0.0000 0.0000 0.0000 0.0000 0.0000 22.5270
#
#
#
# Elastic Compliance Matrix: (Units=1/GPa)
#
#
# Indices 1 2 3 4 5 6 
#
# 1 0.031699 0.009503 -0.013576 0.000000 0.000000 0.000000
# 2 0.009503 0.031699 -0.013576 0.000000 0.000000 0.000000
# 3 -0.013576 -0.013576 0.019818 0.000000 0.000000 0.000000
# 4 0.000000 0.000000 0.000000 0.062099 0.000000 0.000000
# 5 0.000000 0.000000 0.000000 0.000000 0.062099 0.000000
# 6 0.000000 0.000000 0.000000 0.000000 0.000000 0.044391
#
#
# Mechanical properties :
#
#
# Convention : Reuss Voigt Hill
#
# Bulk Modulus (GPa) = 20.86926 33.52377 27.19652
# Shear Modulus (GPa) = 16.49756 19.01810 17.75783
#
# Velocity S-wave (km/s) = 3.02966 3.25288 3.14325
# Velocity P-wave (km/s) = 4.88361 5.72364 5.32023
#
# Compressibility (1/GPa) = 0.04791736
#
# Stress axis : x y z
#
# Youngs Moduli (GPa) = 31.54686 31.54686 50.45878
#
# Poissons Ratio (x) = -0.29980 0.68504
# Poissons Ratio (y) = -0.29980 0.68504
# Poissons Ratio (z) = 0.42829 0.42829
#
# Static dielectric constant tensor:
#      x y z
#    x 1.637660 0.000000 0.000000 
#    y 0.000000 1.637660 0.000000 
#    z 0.000000 0.000000 1.632870 
# 
# From -- ./inp_files/1865.got.cif
#   From: 2010.05.17/outbox.cif.g08.bks.cpg/sg175_1_cif.got.tgz:1865.got - 2010.05.20 11:23:22.
