data_PCOD9581756
_publ_section_title
;
Structure prediction by ZEFSAII (Michael W. Deem and Ramdas Pophale) SiO2 
 PCOD9581756
Probable space group: P 63/M
;
_chemical_formula_sum "Si O2"
_cell_formula_units_Z 72
_cell_length_a 23.147010
_cell_length_b 23.147010
_cell_length_c 7.382343
_cell_angle_alpha 90.000000
_cell_angle_beta 90.000000
_cell_angle_gamma 120.000000
_cell_volume 3425.426473
_symmetry_space_group_name_H-M "P 63/M"
_symmetry_group_IT_number 176
_symmetry_cell_setting 'hexagonal'
loop_
_space_group_symop_operation_xyz
x,y,z
x-y,x,1/2+z
-y,x-y,z
-x,-y,1/2+z
-x+y,-x,z
y,-x+y,1/2+z
-x,-y,-z
-x+y,-x,1/2-z
y,-x+y,-z
x,y,1/2-z
x-y,x,-z
-y,x-y,1/2-z
loop_
_atom_site_type_symbol
_atom_site_label
_atom_site_fract_x
_atom_site_fract_y
_atom_site_fract_z
Si Si1 0.604987 0.625004 0.970207
Si Si2 0.441186 0.214737 0.528609
Si Si3 0.360296 0.839357 0.456825
Si Si4 0.250656 0.258551 0.037751
Si Si5 0.138197 0.288939 0.031557
Si Si6 0.495328 0.117534 0.970924
O O1 0.603020 0.627620 0.750000
O O2 0.677932 0.683075 0.033301
O O3 0.594926 0.553545 0.024671
O O4 0.546057 0.634863 0.043020
O O5 0.440637 0.216593 0.750000
O O6 0.496298 0.287667 0.462762
O O7 0.366280 0.193362 0.470780
O O8 0.460723 0.160011 0.476124
O O9 0.358321 0.816666 0.250000
O O10 0.429168 0.850783 0.537632
O O11 0.252796 0.274284 0.250000
O O12 0.186354 0.261123 0.967110
O O13 0.249931 0.189109 0.021373
O O14 0.138138 0.288995 0.250000
O O15 0.497317 0.117433 0.750000
#
# Coordination Sequence:
#
# PCOD9581756 Si02
#       6
#    12  12  12  12  12  12
#     4  10  18  30  49  70  97 130 160 198 250 303
#     4   9  16  29  47  69  98 130 165 208 256 295
#     4  10  19  30  48  71  95 127 168 209 246 290
#     4  10  20  33  53  79 104 136 169 200 253 311
#     4  10  19  34  55  76 105 138 165 206 256 300
#     4   9  17  30  46  67  97 131 164 202 250 298
#
# _framework density 21.019282
#
# number of rings (size 3 to 8) (size 9 to 14) (size 15 to 20)
#    0.000    2.333    3.333    0.500    0.000    0.667 
#    1.000    0.000    0.000    3.333    0.000    0.000 
#    0.000    0.000    0.000    0.000    0.000    0.000 
#
# Total GULP energy -402039.975497 kJ/mol
# GULP energy per Si atom -5583.888549 kJ/mol
# Density = 2.097144 g / cm^3
# Si number density = 21.019282 Si / 1000 Ang^3
#
#
#
# Elastic Constant Matrix: (Units=GPa)
#
#
# Indices 1 2 3 4 5 6 
#
# 1 66.0613 -2.6688 -12.8950 0.0000 0.0000 0.0000
# 2 -2.6688 66.0613 -12.8950 0.0000 0.0000 0.0000
# 3 -12.8950 -12.8950 72.5822 0.0000 0.0000 0.0000
# 4 0.0000 0.0000 0.0000 -8.4750 0.0000 0.0000
# 5 0.0000 0.0000 0.0000 0.0000 -8.4750 0.0000
# 6 0.0000 0.0000 0.0000 0.0000 0.0000 34.3651
#
#
#
# Elastic Compliance Matrix: (Units=1/GPa)
#
#
# Indices 1 2 3 4 5 6 
#
# 1 0.015777 0.001227 0.003021 0.000000 0.000000 0.000000
# 2 0.001227 0.015777 0.003021 0.000000 0.000000 0.000000
# 3 0.003021 0.003021 0.014851 0.000000 0.000000 0.000000
# 4 0.000000 0.000000 0.000000 -0.117994 0.000000 0.000000
# 5 0.000000 0.000000 0.000000 0.000000 -0.117994 0.000000
# 6 0.000000 0.000000 0.000000 0.000000 0.000000 0.029099
#
#
# Mechanical properties :
#
#
# Convention : Reuss Voigt Hill
#
# Bulk Modulus (GPa) = 16.40907 16.42079 16.41493
# Shear Modulus (GPa) = -32.31907 19.02724 -6.64592
#
# Velocity S-wave (km/s) = -3.92547 3.01196 -1.78008
# Velocity P-wave (km/s) = 3.56681 4.46376 1.89776
#
# Compressibility (1/GPa) = 0.06094192
#
# Stress axis : x y z
#
# Youngs Moduli (GPa) = 63.38463 63.38463 67.33607
#
# Poissons Ratio (x) = -0.07777 -0.20342
# Poissons Ratio (y) = -0.07777 -0.20342
# Poissons Ratio (z) = -0.19148 -0.19148
#
# Static dielectric constant tensor:
#      x y z
#    x 1.736870 0.000000 0.000000 
#    y 0.000000 1.736870 0.000000 
#    z 0.000000 0.000000 1.882040 
# 
# From -- ./inp_files/1137.got.cif
#   From: 2010.05.17/outbox.cif.g08.bks.cpg/sg176_1_cif.got.tgz:1137.got - 2010.06.03 11:36:45.
