data_PCOD9581619
_publ_section_title
;
Structure prediction by ZEFSAII (Michael W. Deem and Ramdas Pophale) SiO2 
 PCOD9581619
Probable space group: P 6/M
;
_chemical_formula_sum "Si O2"
_cell_formula_units_Z 84
_cell_length_a 17.134779
_cell_length_b 17.134779
_cell_length_c 14.764963
_cell_angle_alpha 90.000000
_cell_angle_beta 90.000000
_cell_angle_gamma 120.000000
_cell_volume 3754.222511
_symmetry_space_group_name_H-M "P 6/M"
_symmetry_group_IT_number 175
_symmetry_cell_setting 'hexagonal'
loop_
_space_group_symop_operation_xyz
x,y,z
x-y,x,z
-y,x-y,z
-x,-y,z
-x+y,-x,z
y,-x+y,z
-x,-y,-z
-x+y,-x,-z
y,-x+y,-z
x,y,-z
x-y,x,-z
-y,x-y,-z
loop_
_atom_site_type_symbol
_atom_site_label
_atom_site_fract_x
_atom_site_fract_y
_atom_site_fract_z
Si Si1 0.001626 0.327733 0.602627
Si Si2 0.940724 0.143178 0.108287
Si Si3 0.153585 0.509474 0.655121
Si Si4 0.002422 0.680862 0.190763
Si Si5 0.367478 0.497260 0.898531
Si Si6 0.497976 0.180038 0.403041
Si Si7 0.699176 0.172606 0.140045
O O1 0.022396 0.305728 0.500000
O O2 0.019446 0.304763 0.704989
O O3 0.895027 0.289686 0.605110
O O4 0.059662 0.436435 0.611413
O O5 0.041906 0.169702 0.135461
O O6 0.928918 0.220831 0.152785
O O7 0.936763 0.147922 0.000000
O O8 0.165719 0.606955 0.667758
O O9 0.235057 0.514141 0.598834
O O10 0.168965 0.478324 0.751725
O O11 0.056619 0.626649 0.175092
O O12 0.913709 0.626855 0.127036
O O13 0.270422 0.492089 0.889237
O O14 0.448364 0.600634 0.892325
O O15 0.371177 0.463972 0.000000
O O16 0.528782 0.162907 0.500000
#
# Coordination Sequence:
#
# PCOD9581619 Si02
#       7
#    12  12  12  12  12  12  12
#     4  10  22  39  57  80 115 154 190 233 288 345
#     4  10  21  39  65  96 127 156 188 233 292 353
#     4  11  21  36  56  79 110 145 188 238 287 339
#     4  11  23  39  62  90 118 153 198 246 292 341
#     4  12  25  41  60  83 116 156 199 244 293 349
#     4  11  21  33  53  80 109 143 188 238 286 337
#     4  11  24  40  58  81 114 155 198 243 292 348
#
# _framework density 22.374804999999999
#
# number of rings (size 3 to 8) (size 9 to 14) (size 15 to 20)
#    0.000    1.143    0.000    7.143    0.000    9.143 
#    0.000    0.000    0.000    0.000    0.000    0.000 
#    0.000    1.143    0.000    0.000    0.000    0.000 
#
# Total GULP energy -468487.945316 kJ/mol
# GULP energy per Si atom -5577.237444 kJ/mol
# Density = 2.232388 g / cm^3
# Si number density = 22.374805 Si / 1000 Ang^3
#
#
#
# Elastic Constant Matrix: (Units=GPa)
#
#
# Indices 1 2 3 4 5 6 
#
# 1 66.8364 -14.6070 3.5163 0.0000 0.0000 0.0000
# 2 -14.6070 66.8364 3.5163 0.0000 0.0000 0.0000
# 3 3.5163 3.5163 76.6191 0.0000 0.0000 0.0000
# 4 0.0000 0.0000 0.0000 23.8654 0.0000 0.0000
# 5 0.0000 0.0000 0.0000 0.0000 23.8654 0.0000
# 6 0.0000 0.0000 0.0000 0.0000 0.0000 40.7217
#
#
#
# Elastic Compliance Matrix: (Units=1/GPa)
#
#
# Indices 1 2 3 4 5 6 
#
# 1 0.015772 0.003493 -0.000884 0.000000 0.000000 0.000000
# 2 0.003493 0.015772 -0.000884 0.000000 0.000000 0.000000
# 3 -0.000884 -0.000884 0.013133 0.000000 0.000000 0.000000
# 4 0.000000 0.000000 0.000000 0.041902 0.000000 0.000000
# 5 0.000000 0.000000 0.000000 0.000000 0.041902 0.000000
# 6 0.000000 0.000000 0.000000 0.000000 0.000000 0.024557
#
#
# Mechanical properties :
#
#
# Convention : Reuss Voigt Hill
#
# Bulk Modulus (GPa) = 20.77842 21.68256 21.23049
# Shear Modulus (GPa) = 30.18799 32.21493 31.20146
#
# Velocity S-wave (km/s) = 3.67712 3.79857 3.73834
# Velocity P-wave (km/s) = 5.22829 5.38056 5.30497
#
# Compressibility (1/GPa) = 0.04812685
#
# Stress axis : x y z
#
# Youngs Moduli (GPa) = 63.40390 63.40390 76.14569
#
# Poissons Ratio (x) = -0.22150 0.06732
# Poissons Ratio (y) = -0.22150 0.06732
# Poissons Ratio (z) = 0.05606 0.05606
#
# Static dielectric constant tensor:
#      x y z
#    x 1.839400 0.000000 0.000000 
#    y 0.000000 1.839400 0.000000 
#    z 0.000000 0.000000 1.919500 
# 
# From -- ./inp_files/2634.got.cif
#   From: 2010.05.17/outbox.cif.g08.bks.cpg/sg175_2_cif.got.tgz:2634.got - 2010.05.20 11:23:22.
