data_PCOD9581184
_publ_section_title
;
Structure prediction by ZEFSAII (Michael W. Deem and Ramdas Pophale) SiO2 
 PCOD9581184
Probable space group: P -6
;
_chemical_formula_sum "Si O2"
_cell_formula_units_Z 30
_cell_length_a 8.565478
_cell_length_b 8.565478
_cell_length_c 24.478598
_cell_angle_alpha 90.000000
_cell_angle_beta 90.000000
_cell_angle_gamma 120.000000
_cell_volume 1555.322232
_symmetry_space_group_name_H-M "P -6"
_symmetry_group_IT_number 174
_symmetry_cell_setting 'hexagonal'
loop_
_space_group_symop_operation_xyz
x,y,z
-x+y,-x,-z
-y,x-y,z
x,y,-z
-x+y,-x,z
-y,x-y,-z
loop_
_atom_site_type_symbol
_atom_site_label
_atom_site_fract_x
_atom_site_fract_y
_atom_site_fract_z
Si Si1 0.783213 0.975238 0.892439
Si Si2 0.006694 0.672888 0.334017
Si Si3 0.455996 0.133243 0.500000
Si Si4 0.551459 0.857293 0.000000
Si Si5 0.668788 0.663225 0.619881
Si Si6 0.313225 0.451520 0.786159
O O1 0.667399 0.948826 0.946327
O O2 0.667143 0.954242 0.839043
O O3 0.843758 0.822252 0.892374
O O4 0.860204 0.724739 0.352434
O O5 0.943058 0.472696 0.354994
O O6 0.194339 0.803580 0.363794
O O7 0.043870 0.690015 0.269594
O O8 0.502472 0.341863 0.500000
O O9 0.356658 0.038002 0.555247
O O10 0.356955 0.845133 0.000000
O O11 0.492350 0.649701 0.786564
#
# Coordination Sequence:
#
# PCOD9581184 Si02
#       6
#     6   6   3   3   6   6
#     4  10  22  35  62  96 126 164 217 275 323 387
#     4  12  24  43  64 101 127 179 215 283 328 418
#     4  10  20  42  66  92 124 166 212 274 338 404
#     4  10  20  38  66  88 124 178 218 260 336 396
#     4  12  24  42  68  92 132 167 221 269 346 398
#     4  10  21  40  63  90 130 169 221 260 329 404
#
# _framework density 19.288605
#
# number of rings (size 3 to 8) (size 9 to 14) (size 15 to 20)
#    1.200    0.000    4.000    3.000    2.800    1.600 
#    0.000    0.000    0.000   11.200    0.000    0.000 
#    0.000    0.000    0.000    0.000    0.000    0.000 
#
# Total GULP energy -167370.485567 kJ/mol
# GULP energy per Si atom -5579.016186 kJ/mol
# Density = 1.924470 g / cm^3
# Si number density = 19.288605 Si / 1000 Ang^3
#
#
#
# Elastic Constant Matrix: (Units=GPa)
#
#
# Indices 1 2 3 4 5 6 
#
# 1 33.6648 -1.4543 25.6220 0.0000 0.0000 0.0000
# 2 -1.4543 33.6648 25.6220 0.0000 0.0000 0.0000
# 3 25.6220 25.6220 191.7028 0.0000 0.0000 0.0000
# 4 0.0000 0.0000 0.0000 31.2560 0.0000 0.0000
# 5 0.0000 0.0000 0.0000 0.0000 31.2560 0.0000
# 6 0.0000 0.0000 0.0000 0.0000 0.0000 17.5595
#
#
#
# Elastic Compliance Matrix: (Units=1/GPa)
#
#
# Indices 1 2 3 4 5 6 
#
# 1 0.033952 0.005478 -0.005270 0.000000 0.000000 0.000000
# 2 0.005478 0.033952 -0.005270 0.000000 0.000000 0.000000
# 3 -0.005270 -0.005270 0.006625 0.000000 0.000000 0.000000
# 4 0.000000 0.000000 0.000000 0.031994 0.000000 0.000000
# 5 0.000000 0.000000 0.000000 0.000000 0.031994 0.000000
# 6 0.000000 0.000000 0.000000 0.000000 0.000000 0.056949
#
#
# Mechanical properties :
#
#
# Convention : Reuss Voigt Hill
#
# Bulk Modulus (GPa) = 15.52681 39.84578 27.68630
# Shear Modulus (GPa) = 22.02069 29.96382 25.99225
#
# Velocity S-wave (km/s) = 3.38249 3.94565 3.67487
# Velocity P-wave (km/s) = 4.82930 6.43895 5.69132
#
# Compressibility (1/GPa) = 0.06440472
#
# Stress axis : x y z
#
# Youngs Moduli (GPa) = 29.45322 29.45322 150.94056
#
# Poissons Ratio (x) = -0.16133 0.79545
# Poissons Ratio (y) = -0.16133 0.79545
# Poissons Ratio (z) = 0.15522 0.15522
#
# Static dielectric constant tensor:
#      x y z
#    x 1.748010 0.000000 0.000000 
#    y 0.000000 1.748010 0.000000 
#    z 0.000000 0.000000 1.621490 
# 
# From -- ./inp_files/1079.got.cif
#   From: 2010.05.17/outbox.cif.g08.bks.cpg/sg174_cif.got.tgz:1079.got - 2010.05.20 11:22:48.
