data_PCOD9581420
_publ_section_title
;
Structure prediction by ZEFSAII (Michael W. Deem and Ramdas Pophale) SiO2 
 PCOD9581420
Probable space group: P 6/M
;
_chemical_formula_sum "Si O2"
_cell_formula_units_Z 60
_cell_length_a 21.237468
_cell_length_b 21.237468
_cell_length_c 7.895869
_cell_angle_alpha 90.000000
_cell_angle_beta 90.000000
_cell_angle_gamma 120.000000
_cell_volume 3084.153898
_symmetry_space_group_name_H-M "P 6/M"
_symmetry_group_IT_number 175
_symmetry_cell_setting 'hexagonal'
loop_
_space_group_symop_operation_xyz
x,y,z
x-y,x,z
-y,x-y,z
-x,-y,z
-x+y,-x,z
y,-x+y,z
-x,-y,-z
-x+y,-x,-z
y,-x+y,-z
x,y,-z
x-y,x,-z
-y,x-y,-z
loop_
_atom_site_type_symbol
_atom_site_label
_atom_site_fract_x
_atom_site_fract_y
_atom_site_fract_z
Si Si1 0.843166 0.870466 0.795298
Si Si2 0.531136 0.362616 0.500000
Si Si3 0.326922 0.899335 0.186541
Si Si4 0.284275 0.010619 0.701505
Si Si5 0.378124 0.169594 0.304966
Si Si6 0.799662 0.306386 0.500000
O O1 0.908259 0.856839 0.736861
O O2 0.767712 0.801427 0.738984
O O3 0.843952 0.871694 0.000000
O O4 0.486159 0.362385 0.335417
O O5 0.612827 0.428212 0.500000
O O6 0.531047 0.285926 0.500000
O O7 0.327711 0.974177 0.221139
O O8 0.240606 0.841427 0.199807
O O9 0.354487 0.897818 0.000000
O O10 0.295273 0.015036 0.500000
O O11 0.316484 0.093235 0.763982
O O12 0.359094 0.181646 0.500000
O O13 0.451854 0.166668 0.340593
#
# Coordination Sequence:
#
# PCOD9581420 Si02
#       6
#    12   6  12  12  12   6
#     4  10  21  35  51  73 105 147 192 240 292 340
#     4  10  19  39  61  89 116 142 184 223 271 337
#     4  11  21  35  57  83 115 151 187 233 281 328
#     4  11  20  34  54  79 109 144 190 238 280 338
#     4   8  18  36  55  81 108 147 189 228 280 326
#     4   8  17  35  63  83 108 148 176 217 279 327
#
# _framework density 19.454281999999999
#
# number of rings (size 3 to 8) (size 9 to 14) (size 15 to 20)
#    0.600    1.600    2.000    2.200    0.000    6.400 
#    0.000    6.000    0.000    2.400    0.000    0.000 
#    0.000    0.000    0.000    0.000    0.000    0.000 
#
# Total GULP energy -334674.008238 kJ/mol
# GULP energy per Si atom -5577.900137 kJ/mol
# Density = 1.941000 g / cm^3
# Si number density = 19.454282 Si / 1000 Ang^3
#
#
#
# Elastic Constant Matrix: (Units=GPa)
#
#
# Indices 1 2 3 4 5 6 
#
# 1 59.0524 -10.3307 -0.5662 0.0000 0.0000 0.0000
# 2 -10.3307 59.0524 -0.5662 0.0000 0.0000 0.0000
# 3 -0.5662 -0.5662 72.4672 0.0000 0.0000 0.0000
# 4 0.0000 0.0000 0.0000 6.0669 0.0000 0.0000
# 5 0.0000 0.0000 0.0000 0.0000 6.0669 0.0000
# 6 0.0000 0.0000 0.0000 0.0000 0.0000 34.6915
#
#
#
# Elastic Compliance Matrix: (Units=1/GPa)
#
#
# Indices 1 2 3 4 5 6 
#
# 1 0.017471 0.003058 0.000160 0.000000 0.000000 0.000000
# 2 0.003058 0.017471 0.000160 0.000000 0.000000 0.000000
# 3 0.000160 0.000160 0.013802 0.000000 0.000000 0.000000
# 4 0.000000 0.000000 0.000000 0.164828 0.000000 0.000000
# 5 0.000000 0.000000 0.000000 0.000000 0.164828 0.000000
# 6 0.000000 0.000000 0.000000 0.000000 0.000000 0.028825
#
#
# Mechanical properties :
#
#
# Convention : Reuss Voigt Hill
#
# Bulk Modulus (GPa) = 18.01791 18.62731 18.32261
# Shear Modulus (GPa) = 11.93412 22.83409 17.38410
#
# Velocity S-wave (km/s) = 2.47947 3.42969 2.99254
# Velocity P-wave (km/s) = 4.18076 5.02786 4.62375
#
# Compressibility (1/GPa) = 0.05550033
#
# Stress axis : x y z
#
# Youngs Moduli (GPa) = 57.23904 57.23904 72.45403
#
# Poissons Ratio (x) = -0.17503 -0.01162
# Poissons Ratio (y) = -0.17503 -0.01162
# Poissons Ratio (z) = -0.00918 -0.00918
#
# Static dielectric constant tensor:
#      x y z
#    x 1.687470 0.000000 0.000000 
#    y 0.000000 1.687470 0.000000 
#    z 0.000000 0.000000 1.691330 
# 
# From -- ./inp_files/910.got.cif
#   From: 2010.05.17/outbox.cif.g08.bks.cpg/sg175_1_cif.got.tgz:910.got - 2010.05.20 11:23:22.
