data_PCOD9581426
_publ_section_title
;
Structure prediction by ZEFSAII (Michael W. Deem and Ramdas Pophale) SiO2 
 PCOD9581426
Probable space group: P 6/M
;
_chemical_formula_sum "Si O2"
_cell_formula_units_Z 78
_cell_length_a 24.593314
_cell_length_b 24.593314
_cell_length_c 8.479561
_cell_angle_alpha 90.000000
_cell_angle_beta 90.000000
_cell_angle_gamma 120.000000
_cell_volume 4441.586352
_symmetry_space_group_name_H-M "P 6/M"
_symmetry_group_IT_number 175
_symmetry_cell_setting 'hexagonal'
loop_
_space_group_symop_operation_xyz
x,y,z
x-y,x,z
-y,x-y,z
-x,-y,z
-x+y,-x,z
y,-x+y,z
-x,-y,-z
-x+y,-x,-z
y,-x+y,-z
x,y,-z
x-y,x,-z
-y,x-y,-z
loop_
_atom_site_type_symbol
_atom_site_label
_atom_site_fract_x
_atom_site_fract_y
_atom_site_fract_z
Si Si1 0.628164 0.149038 0.316680
Si Si2 0.044075 0.679361 0.186946
Si Si3 0.378848 0.286866 0.309798
Si Si4 0.833062 0.212005 0.317784
Si Si5 0.503332 0.938982 0.810784
Si Si6 0.719055 0.469756 0.323652
Si Si7 0.734663 0.327696 0.000000
O O1 0.614530 0.131792 0.500000
O O2 0.664277 0.113717 0.250641
O O3 0.561411 0.121815 0.235873
O O4 0.679207 0.222659 0.313471
O O5 0.103063 0.746526 0.225976
O O6 0.058854 0.625308 0.247590
O O7 0.979121 0.666300 0.262139
O O8 0.035380 0.671865 0.000000
O O9 0.383334 0.285365 0.500000
O O10 0.360353 0.217176 0.254659
O O11 0.848056 0.206932 0.500000
O O12 0.794601 0.249718 0.317961
O O13 0.500000 0.000000 0.754545
O O14 0.506608 0.941477 0.000000
O O15 0.689579 0.448321 0.500000
O O16 0.679864 0.441952 0.164319
O O17 0.727927 0.389212 0.000000
#
# Coordination Sequence:
#
# PCOD9581426 Si02
#       7
#    12  12  12  12  12  12   6
#     4   9  18  32  52  73  91 125 169 210 266 321
#     4  11  22  33  50  80 109 136 173 216 265 323
#     4   9  18  35  55  73 101 134 171 213 260 321
#     4   9  20  38  57  77 101 137 177 216 268 322
#     4  10  20  32  44  70 106 132 160 207 266 318
#     4   9  20  39  57  74  96 127 171 221 271 328
#     4  10  24  38  52  74  91 125 173 214 276 334
#
# _framework density 17.561292999999999
#
# number of rings (size 3 to 8) (size 9 to 14) (size 15 to 20)
#    0.154    2.308    1.538    2.308    2.154    4.000 
#    2.769    3.077    0.000    0.000    0.000    0.000 
#    0.000    0.000    0.000    0.462    0.000    8.923 
#
# Total GULP energy -435304.915190 kJ/mol
# GULP energy per Si atom -5580.832246 kJ/mol
# Density = 1.752132 g / cm^3
# Si number density = 17.561293 Si / 1000 Ang^3
#
#
#
# Elastic Constant Matrix: (Units=GPa)
#
#
# Indices 1 2 3 4 5 6 
#
# 1 82.9055 41.0094 21.9572 0.0000 0.0000 0.0000
# 2 41.0094 82.9055 21.9572 0.0000 0.0000 0.0000
# 3 21.9572 21.9572 51.8589 0.0000 0.0000 0.0000
# 4 0.0000 0.0000 0.0000 -7.2395 0.0000 0.0000
# 5 0.0000 0.0000 0.0000 0.0000 -7.2395 0.0000
# 6 0.0000 0.0000 0.0000 0.0000 0.0000 20.9481
#
#
#
# Elastic Compliance Matrix: (Units=1/GPa)
#
#
# Indices 1 2 3 4 5 6 
#
# 1 0.016682 -0.007187 -0.004020 0.000000 0.000000 0.000000
# 2 -0.007187 0.016682 -0.004020 0.000000 0.000000 0.000000
# 3 -0.004020 -0.004020 0.022687 0.000000 0.000000 0.000000
# 4 0.000000 0.000000 0.000000 -0.138131 0.000000 0.000000
# 5 0.000000 0.000000 0.000000 0.000000 -0.138131 0.000000
# 6 0.000000 0.000000 0.000000 0.000000 0.000000 0.047737
#
#
# Mechanical properties :
#
#
# Convention : Reuss Voigt Hill
#
# Bulk Modulus (GPa) = 39.06795 43.05748 41.06272
# Shear Modulus (GPa) = -37.45656 10.14355 -13.65651
#
# Velocity S-wave (km/s) = -4.62335 2.40596 -2.79166
# Velocity P-wave (km/s) = 2.49109 5.68241 3.61139
#
# Compressibility (1/GPa) = 0.02559643
#
# Stress axis : x y z
#
# Youngs Moduli (GPa) = 59.94609 59.94609 44.07746
#
# Poissons Ratio (x) = 0.43083 0.17720
# Poissons Ratio (y) = 0.43083 0.17720
# Poissons Ratio (z) = 0.24099 0.24099
#
# Static dielectric constant tensor:
#      x y z
#    x 1.605040 0.000000 0.000000 
#    y 0.000000 1.605040 0.000000 
#    z 0.000000 0.000000 1.622740 
# 
# From -- ./inp_files/1308.got.cif
#   From: 2010.05.17/outbox.cif.g08.bks.cpg/sg175_1_cif.got.tgz:1308.got - 2010.05.20 11:23:22.
