data_PCOD9581721
_publ_section_title
;
Structure prediction by ZEFSAII (Michael W. Deem and Ramdas Pophale) SiO2 
 PCOD9581721
Probable space group: P 6/M
;
_chemical_formula_sum "Si O2"
_cell_formula_units_Z 76
_cell_length_a 18.000000
_cell_length_b 18.000000
_cell_length_c 15.000000
_cell_angle_alpha 90.000000
_cell_angle_beta 90.000000
_cell_angle_gamma 120.000000
_cell_volume 4208.883462
_symmetry_space_group_name_H-M "P 6/M"
_symmetry_group_IT_number 175
_symmetry_cell_setting 'hexagonal'
loop_
_space_group_symop_operation_xyz
x,y,z
x-y,x,z
-y,x-y,z
-x,-y,z
-x+y,-x,z
y,-x+y,z
-x,-y,-z
-x+y,-x,-z
y,-x+y,-z
x,y,-z
x-y,x,-z
-y,x-y,-z
loop_
_atom_site_type_symbol
_atom_site_label
_atom_site_fract_x
_atom_site_fract_y
_atom_site_fract_z
Si Si1 0.433021 0.403568 0.841038
Si Si2 0.666668 0.333334 0.893403
Si Si3 0.310401 0.311668 0.000000
Si Si4 0.251321 0.775463 0.834630
Si Si5 0.690791 0.509430 0.346297
Si Si6 0.812821 0.642048 0.000000
Si Si7 0.827829 0.469242 0.403570
Si Si8 0.003044 0.589154 0.363978
O O1 0.500000 0.500000 0.868875
O O2 0.469199 0.337682 0.834740
O O3 0.403487 0.410168 0.742490
O O4 0.359304 0.365552 0.913587
O O5 0.571793 0.276831 0.857461
O O6 0.666667 0.333334 0.000000
O O7 0.317635 0.229323 0.000000
O O8 0.214206 0.287936 0.000000
O O9 0.201348 0.747373 0.741998
O O10 0.193967 0.777262 0.913669
O O11 0.742503 0.473456 0.398868
O O12 0.596475 0.425164 0.331396
O O13 0.668468 0.575996 0.393118
O O14 0.834556 0.436076 0.500000
O O15 0.908575 0.564946 0.392935
O O16 0.000000 0.500000 0.389500
#
# Coordination Sequence:
#
# PCOD9581721 Si02
#       8
#    12   4   6  12  12   6  12  12
#     4  10  20  34  51  74  99 138 171 210 254 294
#     4  12  24  30  42  69 106 134 172 213 243 276
#     4  10  21  34  54  75 106 130 176 206 248 307
#     4  11  22  35  51  75 103 138 177 207 252 290
#     4  11  21  36  53  71 100 132 167 216 253 299
#     4  10  22  36  54  79 102 142 167 208 248 304
#     4  11  22  36  53  75  97 126 172 215 265 313
#     4   9  20  34  51  70  95 130 166 207 256 302
#
# _framework density 18.057044999999999
#
# number of rings (size 3 to 8) (size 9 to 14) (size 15 to 20)
#    0.000    1.579    2.368    2.921    6.632    3.474 
#    0.000    0.000    0.000    0.158    0.000    0.000 
#    0.000    0.000    0.000    0.474    0.000    2.053 
#
# Total GULP energy -423138.295357 kJ/mol
# GULP energy per Si atom -5567.609149 kJ/mol
# Density = 1.801595 g / cm^3
# Si number density = 18.057045 Si / 1000 Ang^3
#
#
#
# Elastic Constant Matrix: (Units=GPa)
#
#
# Indices 1 2 3 4 5 6 
#
# 1 57.7462 65.5327 20.2691 0.0000 0.0000 -0.0015
# 2 65.5327 57.7500 20.2683 0.0000 0.0000 0.0027
# 3 20.2691 20.2683 82.7871 0.0000 0.0000 -0.0006
# 4 0.0000 0.0000 0.0000 -111.4998 -0.0010 0.0000
# 5 0.0000 0.0000 0.0000 -0.0010 -111.4974 0.0000
# 6 -0.0015 0.0027 -0.0006 0.0000 0.0000 -3.8907
#
#
#
# Elastic Compliance Matrix: (Units=1/GPa)
#
#
# Indices 1 2 3 4 5 6 
#
# 1 -0.059821 0.068640 -0.002159 0.000000 0.000000 0.000070
# 2 0.068640 -0.059816 -0.002161 0.000000 0.000000 -0.000066
# 3 -0.002159 -0.002161 0.013137 0.000000 0.000000 -0.000003
# 4 0.000000 0.000000 0.000000 -0.008969 0.000000 0.000000
# 5 0.000000 0.000000 0.000000 0.000000 -0.008969 0.000000
# 6 0.000070 -0.000066 -0.000003 0.000000 0.000000 -0.257023
#
#
# Mechanical properties :
#
#
# Convention : Reuss Voigt Hill
#
# Bulk Modulus (GPa) = 45.16513 45.60261 45.38387
# Shear Modulus (GPa) = -9.94589 -39.23004 -24.58797
#
# Velocity S-wave (km/s) = -2.34947 -4.66613 -3.69410
# Velocity P-wave (km/s) = 4.20794 1.92894 2.64443
#
# Compressibility (1/GPa) = 0.02214097
#
# Stress axis : x y z
#
# Youngs Moduli (GPa) = -16.71665 -16.71799 76.12236
#
# Poissons Ratio (x) = 1.14752 0.16432
# Poissons Ratio (y) = 1.14743 0.16450
# Poissons Ratio (z) = -0.03608 -0.03613
#
# Static dielectric constant tensor:
#      x y z
#    x 1.638040 0.000000 0.000000 
#    y 0.000000 1.638040 0.000000 
#    z 0.000000 0.000000 1.722570 
# 
# From -- ./inp_files/2588.got.cif
#   From: 2010.05.17/outbox.ucp.g08.bks.cvg/sg175_2_cif.got.tgz:2588.got - 2010.06.11 15:18:44.
