data_PCOD9581586
_publ_section_title
;
Structure prediction by ZEFSAII (Michael W. Deem and Ramdas Pophale) SiO2 
 PCOD9581586
Probable space group: P 6/M
;
_chemical_formula_sum "Si O2"
_cell_formula_units_Z 84
_cell_length_a 18.285740
_cell_length_b 18.285740
_cell_length_c 14.616253
_cell_angle_alpha 90.000000
_cell_angle_beta 90.000000
_cell_angle_gamma 120.000000
_cell_volume 4232.449298
_symmetry_space_group_name_H-M "P 6/M"
_symmetry_group_IT_number 175
_symmetry_cell_setting 'hexagonal'
loop_
_space_group_symop_operation_xyz
x,y,z
x-y,x,z
-y,x-y,z
-x,-y,z
-x+y,-x,z
y,-x+y,z
-x,-y,-z
-x+y,-x,-z
y,-x+y,-z
x,y,-z
x-y,x,-z
-y,x-y,-z
loop_
_atom_site_type_symbol
_atom_site_label
_atom_site_fract_x
_atom_site_fract_y
_atom_site_fract_z
Si Si1 0.004348 0.175847 0.500000
Si Si2 0.394051 0.863717 0.606962
Si Si3 0.411133 0.247957 0.103755
Si Si4 0.712811 0.441707 0.000000
Si Si5 0.438499 0.408809 0.784789
Si Si6 0.728504 0.531664 0.606079
Si Si7 0.998771 0.173906 0.697588
Si Si8 0.347177 0.097918 0.232960
O O1 0.004477 0.214491 0.597007
O O2 0.084612 0.163173 0.500000
O O3 0.402571 0.892059 0.500000
O O4 0.405427 0.932779 0.682713
O O5 0.298260 0.785433 0.617900
O O6 0.463028 0.833618 0.622114
O O7 0.432649 0.331509 0.158157
O O8 0.351802 0.164707 0.159875
O O9 0.381653 0.249562 0.000000
O O10 0.497449 0.244852 0.086737
O O11 0.615297 0.373130 0.000000
O O12 0.500000 0.500000 0.825718
O O13 0.347633 0.400729 0.785677
O O14 0.737012 0.559164 0.500000
O O15 0.762143 0.611715 0.673583
O O16 0.979214 0.230803 0.762924
O O17 0.081694 0.166365 0.705967
#
# Coordination Sequence:
#
# PCOD9581586 Si02
#       8
#     6  12  12   6  12  12  12  12
#     4   8  15  30  52  82 109 144 184 238 298 356
#     4  10  21  41  61  94 132 177 224 266 310 364
#     4  10  25  45  63  90 127 158 212 263 326 377
#     4   8  20  40  67  91 117 154 205 254 317 366
#     4  12  25  39  64  97 128 173 210 264 320 386
#     4  10  21  38  63  89 127 174 222 263 305 364
#     4  10  21  38  60  85 117 154 202 254 308 375
#     4  12  24  39  61  90 129 163 212 253 319 384
#
# _framework density 19.846664000000001
#
# number of rings (size 3 to 8) (size 9 to 14) (size 15 to 20)
#    0.571    1.143    2.857    1.357    3.000    4.000 
#    0.000    0.000    0.000    0.000    0.000    0.000 
#    0.000    2.286    0.000    0.000    0.000    0.000 
#
# Total GULP energy -468177.423450 kJ/mol
# GULP energy per Si atom -5573.540755 kJ/mol
# Density = 1.980149 g / cm^3
# Si number density = 19.846664 Si / 1000 Ang^3
#
#
#
# Elastic Constant Matrix: (Units=GPa)
#
#
# Indices 1 2 3 4 5 6 
#
# 1 63.3861 -11.4067 18.4111 0.0000 0.0000 0.0000
# 2 -11.4067 63.3861 18.4111 0.0000 0.0000 0.0000
# 3 18.4111 18.4111 77.0742 0.0000 0.0000 0.0000
# 4 0.0000 0.0000 0.0000 5.4636 0.0000 0.0000
# 5 0.0000 0.0000 0.0000 0.0000 5.4636 0.0000
# 6 0.0000 0.0000 0.0000 0.0000 0.0000 37.3964
#
#
#
# Elastic Compliance Matrix: (Units=1/GPa)
#
#
# Indices 1 2 3 4 5 6 
#
# 1 0.018264 0.004893 -0.005532 0.000000 0.000000 0.000000
# 2 0.004893 0.018264 -0.005532 0.000000 0.000000 0.000000
# 3 -0.005532 -0.005532 0.015617 0.000000 0.000000 0.000000
# 4 0.000000 0.000000 0.000000 0.183029 0.000000 0.000000
# 5 0.000000 0.000000 0.000000 0.000000 0.183029 0.000000
# 6 0.000000 0.000000 0.000000 0.000000 0.000000 0.026741
#
#
# Mechanical properties :
#
#
# Convention : Reuss Voigt Hill
#
# Bulk Modulus (GPa) = 25.12265 28.29750 26.71007
# Shear Modulus (GPa) = 10.62584 21.56011 16.09297
#
# Velocity S-wave (km/s) = 2.31637 3.29953 2.85066
# Velocity P-wave (km/s) = 4.45421 5.36702 4.93178
#
# Compressibility (1/GPa) = 0.03980472
#
# Stress axis : x y z
#
# Youngs Moduli (GPa) = 54.75358 54.75358 64.03169
#
# Poissons Ratio (x) = -0.26793 0.35420
# Poissons Ratio (y) = -0.26793 0.35420
# Poissons Ratio (z) = 0.30288 0.30288
#
# Static dielectric constant tensor:
#      x y z
#    x 1.695020 0.000000 0.000000 
#    y 0.000000 1.695020 0.000000 
#    z 0.000000 0.000000 1.744720 
# 
# From -- ./inp_files/2660.got.cif
#   From: 2010.05.17/outbox.cif.g08.bks.cpg/sg175_2_cif.got.tgz:2660.got - 2010.05.20 11:23:22.
