data_PCOD9581643
_publ_section_title
;
Structure prediction by ZEFSAII (Michael W. Deem and Ramdas Pophale) SiO2 
 PCOD9581643
Probable space group: P 6/M
;
_chemical_formula_sum "Si O2"
_cell_formula_units_Z 30
_cell_length_a 14.582333
_cell_length_b 14.582333
_cell_length_c 7.306981
_cell_angle_alpha 90.000000
_cell_angle_beta 90.000000
_cell_angle_gamma 120.000000
_cell_volume 1345.620618
_symmetry_space_group_name_H-M "P 6/M"
_symmetry_group_IT_number 175
_symmetry_cell_setting 'hexagonal'
loop_
_space_group_symop_operation_xyz
x,y,z
x-y,x,z
-y,x-y,z
-x,-y,z
-x+y,-x,z
y,-x+y,z
-x,-y,-z
-x+y,-x,-z
y,-x+y,-z
x,y,-z
x-y,x,-z
-y,x-y,-z
loop_
_atom_site_type_symbol
_atom_site_label
_atom_site_fract_x
_atom_site_fract_y
_atom_site_fract_z
Si Si1 0.222057 0.196482 0.777734
Si Si2 0.376726 0.426917 0.781640
Si Si3 0.687749 0.462318 0.500000
O O1 0.210123 0.086351 0.716154
O O2 0.328271 0.304318 0.728658
O O3 0.219485 0.191546 0.000000
O O4 0.500000 0.500000 0.736453
O O5 0.312195 0.472740 0.675685
O O6 0.364464 0.431688 0.000000
O O7 0.577137 0.349295 0.500000
#
# Coordination Sequence:
#
# PCOD9581643 Si02
#       3
#    12  12   6
#     4   9  18  33  58  90 124 162 206 257 315 375
#     4  10  22  40  64  90 125 166 210 260 318 379
#     4  10  25  40  60  90 123 165 210 259 318 373
#
# _framework density 22.294547999999999
#
# number of rings (size 3 to 8) (size 9 to 14) (size 15 to 20)
#    0.400    2.000    0.000    1.000    5.600    3.200 
#    0.000    0.000    0.000    0.000    0.000    2.800 
#    0.000    0.000    0.000    0.000    0.000    0.000 
#
# Total GULP energy -167635.342976 kJ/mol
# GULP energy per Si atom -5587.844766 kJ/mol
# Density = 2.224380 g / cm^3
# Si number density = 22.294548 Si / 1000 Ang^3
#
#
#
# Elastic Constant Matrix: (Units=GPa)
#
#
# Indices 1 2 3 4 5 6 
#
# 1 126.0844 40.4557 9.3606 0.0000 0.0000 0.0000
# 2 40.4557 126.0844 9.3606 0.0000 0.0000 0.0000
# 3 9.3606 9.3606 81.3565 0.0000 0.0000 0.0000
# 4 0.0000 0.0000 0.0000 4.4263 0.0000 0.0000
# 5 0.0000 0.0000 0.0000 0.0000 4.4263 0.0000
# 6 0.0000 0.0000 0.0000 0.0000 0.0000 42.8144
#
#
#
# Elastic Compliance Matrix: (Units=1/GPa)
#
#
# Indices 1 2 3 4 5 6 
#
# 1 0.008881 -0.002798 -0.000700 0.000000 0.000000 0.000000
# 2 -0.002798 0.008881 -0.000700 0.000000 0.000000 0.000000
# 3 -0.000700 -0.000700 0.012453 0.000000 0.000000 0.000000
# 4 0.000000 0.000000 0.000000 0.225925 0.000000 0.000000
# 5 0.000000 0.000000 0.000000 0.000000 0.225925 0.000000
# 6 0.000000 0.000000 0.000000 0.000000 0.000000 0.023357
#
#
# Mechanical properties :
#
#
# Convention : Reuss Voigt Hill
#
# Bulk Modulus (GPa) = 45.83065 50.20878 48.01972
# Shear Modulus (GPa) = 9.59531 28.62328 19.10930
#
# Velocity S-wave (km/s) = 2.07683 3.58700 2.93085
# Velocity P-wave (km/s) = 5.13347 6.30277 5.74793
#
# Compressibility (1/GPa) = 0.02181946
#
# Stress axis : x y z
#
# Youngs Moduli (GPa) = 112.60276 112.60276 80.30423
#
# Poissons Ratio (x) = 0.31501 0.05621
# Poissons Ratio (y) = 0.31501 0.05621
# Poissons Ratio (z) = 0.07881 0.07881
#
# Static dielectric constant tensor:
#      x y z
#    x 1.799270 0.000000 0.000000 
#    y 0.000000 1.799270 0.000000 
#    z 0.000000 0.000000 1.800530 
# 
# From -- ./inp_files/284.got.cif
#   From: 2010.05.17/outbox.cif.g08.bks.cpg/sg175_1_cif.got.tgz:284.got - 2010.05.20 11:23:22.
