data_PCOD9581523
_publ_section_title
;
Structure prediction by ZEFSAII (Michael W. Deem and Ramdas Pophale) SiO2 
 PCOD9581523
Probable space group: P 6/M
;
_chemical_formula_sum "Si O2"
_cell_formula_units_Z 66
_cell_length_a 22.323133
_cell_length_b 22.323133
_cell_length_c 7.242179
_cell_angle_alpha 90.000000
_cell_angle_beta 90.000000
_cell_angle_gamma 120.000000
_cell_volume 3125.432904
_symmetry_space_group_name_H-M "P 6/M"
_symmetry_group_IT_number 175
_symmetry_cell_setting 'hexagonal'
loop_
_space_group_symop_operation_xyz
x,y,z
x-y,x,z
-y,x-y,z
-x,-y,z
-x+y,-x,z
y,-x+y,z
-x,-y,-z
-x+y,-x,-z
y,-x+y,-z
x,y,-z
x-y,x,-z
-y,x-y,-z
loop_
_atom_site_type_symbol
_atom_site_label
_atom_site_fract_x
_atom_site_fract_y
_atom_site_fract_z
Si Si1 0.152744 0.284698 0.778573
Si Si2 0.312235 0.386555 0.223930
Si Si3 0.536203 0.188815 0.774951
Si Si4 0.938551 0.101407 0.500000
Si Si5 0.522330 0.319985 0.774993
Si Si6 0.371766 0.290113 0.224537
O O1 0.231276 0.341717 0.728555
O O2 0.130887 0.213924 0.675327
O O3 0.103326 0.315263 0.723973
O O4 0.149816 0.276010 0.000000
O O5 0.344018 0.465453 0.284647
O O6 0.350893 0.345919 0.285974
O O7 0.314895 0.388101 0.000000
O O8 0.533813 0.257093 0.718553
O O9 0.606219 0.191313 0.716033
O O10 0.536441 0.188649 0.000000
O O11 0.018905 0.126500 0.500000
O O12 0.447653 0.306968 0.716263
O O13 0.521900 0.319640 0.000000
O O14 0.372471 0.290861 0.000000
#
# Coordination Sequence:
#
# PCOD9581523 Si02
#       6
#    12  12  12   6  12  12
#     4  10  20  39  63  87 118 156 198 240 289 350
#     4   9  16  27  46  71 101 140 185 235 286 336
#     4   9  15  23  36  60  99 144 186 230 284 342
#     4  12  27  44  64  92 122 154 194 242 298 360
#     4   9  15  23  36  60  99 144 186 230 284 342
#     4   9  16  27  46  71 101 140 185 235 286 336
#
# _framework density 21.117073999999999
#
# number of rings (size 3 to 8) (size 9 to 14) (size 15 to 20)
#    0.000    2.545    1.818    1.545    0.000    4.364 
#    0.000    3.636    0.000    1.091    0.000    1.273 
#    0.000    4.364    0.000    0.364    0.000    0.000 
#
# Total GULP energy -368993.434890 kJ/mol
# GULP energy per Si atom -5590.809620 kJ/mol
# Density = 2.106901 g / cm^3
# Si number density = 21.117074 Si / 1000 Ang^3
#
#
#
# Elastic Constant Matrix: (Units=GPa)
#
#
# Indices 1 2 3 4 5 6 
#
# 1 66.9113 -11.0282 4.5915 0.0000 0.0000 0.0000
# 2 -11.0282 66.9113 4.5915 0.0000 0.0000 0.0000
# 3 4.5915 4.5915 97.1249 0.0000 0.0000 0.0000
# 4 0.0000 0.0000 0.0000 -41.0805 0.0000 0.0000
# 5 0.0000 0.0000 0.0000 0.0000 -41.0805 0.0000
# 6 0.0000 0.0000 0.0000 0.0000 0.0000 38.9698
#
#
#
# Elastic Compliance Matrix: (Units=1/GPa)
#
#
# Indices 1 2 3 4 5 6 
#
# 1 0.015433 0.002602 -0.000853 0.000000 0.000000 0.000000
# 2 0.002602 0.015433 -0.000853 0.000000 0.000000 0.000000
# 3 -0.000853 -0.000853 0.010377 0.000000 0.000000 0.000000
# 4 0.000000 0.000000 0.000000 -0.024342 0.000000 0.000000
# 5 0.000000 0.000000 0.000000 0.000000 -0.024342 0.000000
# 6 0.000000 0.000000 0.000000 0.000000 0.000000 0.025661
#
#
# Mechanical properties :
#
#
# Convention : Reuss Voigt Hill
#
# Bulk Modulus (GPa) = 23.23662 25.25079 24.24370
# Shear Modulus (GPa) = 162.50110 6.88127 84.69118
#
# Velocity S-wave (km/s) = 8.78177 1.80713 6.33976
# Velocity P-wave (km/s) = 10.67022 4.04200 8.06819
#
# Compressibility (1/GPa) = 0.04303553
#
# Stress axis : x y z
#
# Youngs Moduli (GPa) = 64.79824 64.79824 96.37043
#
# Poissons Ratio (x) = -0.16861 0.08216
# Poissons Ratio (y) = -0.16861 0.08216
# Poissons Ratio (z) = 0.05524 0.05524
#
# Static dielectric constant tensor:
#      x y z
#    x 1.705080 0.000000 0.000000 
#    y 0.000000 1.705080 0.000000 
#    z 0.000000 0.000000 1.858150 
# 
# From -- ./inp_files/1007.got.cif
#   From: 2010.05.17/outbox.cif.g08.bks.cpg/sg175_1_cif.got.tgz:1007.got - 2010.05.20 11:23:22.
