data_PCOD9581154
_publ_section_title
;
Structure prediction by ZEFSAII (Michael W. Deem and Ramdas Pophale) SiO2 
 PCOD9581154
Probable space group: P -6
;
_chemical_formula_sum "Si O2"
_cell_formula_units_Z 35
_cell_length_a 8.495051
_cell_length_b 8.495051
_cell_length_c 28.304698
_cell_angle_alpha 90.000000
_cell_angle_beta 90.000000
_cell_angle_gamma 120.000000
_cell_volume 1768.972731
_symmetry_space_group_name_H-M "P -6"
_symmetry_group_IT_number 174
_symmetry_cell_setting 'hexagonal'
loop_
_space_group_symop_operation_xyz
x,y,z
-x+y,-x,-z
-y,x-y,z
x,y,-z
-x+y,-x,z
-y,x-y,-z
loop_
_atom_site_type_symbol
_atom_site_label
_atom_site_fract_x
_atom_site_fract_y
_atom_site_fract_z
Si Si1 0.373103 0.000972 0.842885
Si Si2 0.283997 0.437996 0.500000
Si Si3 0.699276 0.001379 0.879168
Si Si4 0.986387 0.341040 0.641049
Si Si5 0.000000 0.000000 0.943962
Si Si6 0.100995 0.499828 0.261016
Si Si7 0.311403 0.328335 0.601979
O O1 0.529881 0.036310 0.880849
O O2 0.316956 0.153602 0.847096
O O3 0.430722 0.989952 0.789857
O O4 0.195127 0.811948 0.855406
O O5 0.147461 0.520155 0.500000
O O6 0.265017 0.326110 0.547052
O O7 0.821056 0.000115 0.923101
O O8 0.975187 0.388842 0.695448
O O9 0.134805 0.279973 0.632762
O O10 0.063209 0.531865 0.614141
O O11 0.802472 0.189128 0.617614
O O12 0.000000 0.000000 0.000000
O O13 0.281017 0.477483 0.264606
#
# Coordination Sequence:
#
# PCOD9581154 Si02
#       7
#     6   3   6   6   2   6   6
#     4  11  20  37  61  97 128 181 226 271 321 386
#     4  10  20  42  76  88 114 166 206 258 326 384
#     4  10  21  37  63  96 136 171 227 280 329 385
#     4  12  24  42  64  96 130 165 206 259 322 382
#     4   9  21  42  66  96 135 177 222 288 351 394
#     4  10  19  37  66  87 129 182 218 255 319 389
#     4  12  24  43  66  96 124 162 208 259 324 386
#
# _framework density 19.785492999999999
#
# number of rings (size 3 to 8) (size 9 to 14) (size 15 to 20)
#    0.514    0.686    5.143    2.057    0.000    4.114 
#    0.000    3.429    0.000    0.000    0.000    0.000 
#    0.000    0.000    0.000    0.000    0.000    0.000 
#
# Total GULP energy -195198.347166 kJ/mol
# GULP energy per Si atom -5577.095633 kJ/mol
# Density = 1.974046 g / cm^3
# Si number density = 19.785493 Si / 1000 Ang^3
#
#
#
# Elastic Constant Matrix: (Units=GPa)
#
#
# Indices 1 2 3 4 5 6 
#
# 1 63.7676 -5.4239 22.4881 0.0000 0.0000 0.0000
# 2 -5.4239 63.7676 22.4881 0.0000 0.0000 0.0000
# 3 22.4881 22.4881 134.3060 0.0000 0.0000 0.0000
# 4 0.0000 0.0000 0.0000 16.1892 0.0000 0.0000
# 5 0.0000 0.0000 0.0000 0.0000 16.1892 0.0000
# 6 0.0000 0.0000 0.0000 0.0000 0.0000 34.5958
#
#
#
# Elastic Compliance Matrix: (Units=1/GPa)
#
#
# Indices 1 2 3 4 5 6 
#
# 1 0.017066 0.002614 -0.003295 0.000000 0.000000 0.000000
# 2 0.002614 0.017066 -0.003295 0.000000 0.000000 0.000000
# 3 -0.003295 -0.003295 0.008549 0.000000 0.000000 0.000000
# 4 0.000000 0.000000 0.000000 0.061769 0.000000 0.000000
# 5 0.000000 0.000000 0.000000 0.000000 0.061769 0.000000
# 6 0.000000 0.000000 0.000000 0.000000 0.000000 0.028905
#
#
# Mechanical properties :
#
#
# Convention : Reuss Voigt Hill
#
# Bulk Modulus (GPa) = 28.79490 37.88289 33.33890
# Shear Modulus (GPa) = 23.29313 28.21410 25.75361
#
# Velocity S-wave (km/s) = 3.43488 3.78034 3.61174
# Velocity P-wave (km/s) = 5.50603 6.18409 5.85488
#
# Compressibility (1/GPa) = 0.03472837
#
# Stress axis : x y z
#
# Youngs Moduli (GPa) = 58.59491 58.59491 116.97024
#
# Poissons Ratio (x) = -0.15315 0.38544
# Poissons Ratio (y) = -0.15315 0.38544
# Poissons Ratio (z) = 0.19308 0.19308
#
# Static dielectric constant tensor:
#      x y z
#    x 1.720860 0.000000 0.000000 
#    y 0.000000 1.720860 0.000000 
#    z 0.000000 0.000000 1.661250 
# 
# From -- ./inp_files/1089.got.cif
#   From: 2010.05.17/outbox.cif.g08.bks.cpg/sg174_cif.got.tgz:1089.got - 2010.05.20 11:22:48.
