data_PCOD9581447
_publ_section_title
;
Structure prediction by ZEFSAII (Michael W. Deem and Ramdas Pophale) SiO2 
 PCOD9581447
Probable space group: P 6/M
;
_chemical_formula_sum "Si O2"
_cell_formula_units_Z 78
_cell_length_a 24.729643
_cell_length_b 24.729643
_cell_length_c 7.546173
_cell_angle_alpha 90.000000
_cell_angle_beta 90.000000
_cell_angle_gamma 120.000000
_cell_volume 3996.622075
_symmetry_space_group_name_H-M "P 6/M"
_symmetry_group_IT_number 175
_symmetry_cell_setting 'hexagonal'
loop_
_space_group_symop_operation_xyz
x,y,z
x-y,x,z
-y,x-y,z
-x,-y,z
-x+y,-x,z
y,-x+y,z
-x,-y,-z
-x+y,-x,-z
y,-x+y,-z
x,y,-z
x-y,x,-z
-y,x-y,-z
loop_
_atom_site_type_symbol
_atom_site_label
_atom_site_fract_x
_atom_site_fract_y
_atom_site_fract_z
Si Si1 0.256529 0.173733 0.214244
Si Si2 0.436701 0.123896 0.300370
Si Si3 0.945491 0.849586 0.500000
Si Si4 0.893251 0.544270 0.211935
Si Si5 0.066465 0.549790 0.704617
Si Si6 0.002770 0.683154 0.210177
Si Si7 0.179378 0.392468 0.798434
O O1 0.197109 0.126577 0.330296
O O2 0.276387 0.246210 0.252349
O O3 0.321005 0.174772 0.268765
O O4 0.245704 0.162289 0.000000
O O5 0.458363 0.146387 0.500000
O O6 0.481045 0.100165 0.218413
O O7 0.366483 0.065950 0.304617
O O8 0.428872 0.175880 0.201981
O O9 0.901540 0.881539 0.500000
O O10 0.894160 0.485364 0.291714
O O11 0.843394 0.562596 0.282292
O O12 0.956723 0.609671 0.245406
O O13 0.887091 0.533193 0.000000
O O14 0.053357 0.558980 0.500000
O O15 0.000000 0.500000 0.787460
O O16 0.015222 0.690534 0.000000
O O17 0.154443 0.381789 0.000000
#
# Coordination Sequence:
#
# PCOD9581447 Si02
#       7
#    12  12   6  12  12  12  12
#     4   9  22  42  65  93 122 153 194 243 304 365
#     4  11  22  31  51  84 119 150 190 230 285 351
#     4  12  29  48  68  90 118 157 205 247 295 349
#     4   9  18  34  54  74 104 149 194 226 275 340
#     4  10  20  34  48  76 116 153 184 227 276 330
#     4   9  18  33  53  82 117 148 180 233 287 341
#     4   9  20  38  56  82 117 148 186 245 300 344
#
# _framework density 19.516480999999999
#
# number of rings (size 3 to 8) (size 9 to 14) (size 15 to 20)
#    0.000    2.308    1.538    2.385    4.308    2.769 
#    2.769    0.000    0.000    1.538    0.000    0.000 
#    0.000    0.000    0.000    0.000    0.000    0.000 
#
# Total GULP energy -434690.982396 kJ/mol
# GULP energy per Si atom -5572.961313 kJ/mol
# Density = 1.947206 g / cm^3
# Si number density = 19.516481 Si / 1000 Ang^3
#
#
#
# Elastic Constant Matrix: (Units=GPa)
#
#
# Indices 1 2 3 4 5 6 
#
# 1 111.2267 67.4704 23.7915 0.0000 0.0000 0.0000
# 2 67.4704 111.2267 23.7915 0.0000 0.0000 0.0000
# 3 23.7915 23.7915 55.8079 0.0000 0.0000 0.0000
# 4 0.0000 0.0000 0.0000 13.1350 0.0000 0.0000
# 5 0.0000 0.0000 0.0000 0.0000 13.1350 0.0000
# 6 0.0000 0.0000 0.0000 0.0000 0.0000 21.8782
#
#
#
# Elastic Compliance Matrix: (Units=1/GPa)
#
#
# Indices 1 2 3 4 5 6 
#
# 1 0.014583 -0.008271 -0.002691 0.000000 0.000000 0.000000
# 2 -0.008271 0.014583 -0.002691 0.000000 0.000000 0.000000
# 3 -0.002691 -0.002691 0.020213 0.000000 0.000000 0.000000
# 4 0.000000 0.000000 0.000000 0.076132 0.000000 0.000000
# 5 0.000000 0.000000 0.000000 0.000000 0.076132 0.000000
# 6 0.000000 0.000000 0.000000 0.000000 0.000000 0.045708
#
#
# Mechanical properties :
#
#
# Convention : Reuss Voigt Hill
#
# Bulk Modulus (GPa) = 45.30251 56.48537 50.89394
# Shear Modulus (GPa) = 17.72951 20.51018 19.11985
#
# Velocity S-wave (km/s) = 3.01730 3.24530 3.13337
# Velocity P-wave (km/s) = 5.94993 6.56109 6.26297
#
# Compressibility (1/GPa) = 0.02207383
#
# Stress axis : x y z
#
# Youngs Moduli (GPa) = 68.57187 68.57187 49.47277
#
# Poissons Ratio (x) = 0.56713 0.13314
# Poissons Ratio (y) = 0.56713 0.13314
# Poissons Ratio (z) = 0.18454 0.18454
#
# Static dielectric constant tensor:
#      x y z
#    x 1.700840 0.000000 0.000000 
#    y 0.000000 1.700840 0.000000 
#    z 0.000000 0.000000 1.729540 
# 
# From -- ./inp_files/1329.got.cif
#   From: 2010.05.17/outbox.cif.g08.bks.cpg/sg175_1_cif.got.tgz:1329.got - 2010.05.20 11:23:22.
