data_PCOD9581961
_publ_section_title
;
Structure prediction by ZEFSAII (Michael W. Deem and Ramdas Pophale) SiO2 
 PCOD9581961
Probable space group: P 63/M
;
_chemical_formula_sum "Si O2"
_cell_formula_units_Z 48
_cell_length_a 11.302450
_cell_length_b 11.302450
_cell_length_c 19.922805
_cell_angle_alpha 90.000000
_cell_angle_beta 90.000000
_cell_angle_gamma 120.000000
_cell_volume 2204.074677
_symmetry_space_group_name_H-M "P 63/M"
_symmetry_group_IT_number 176
_symmetry_cell_setting 'hexagonal'
loop_
_space_group_symop_operation_xyz
x,y,z
x-y,x,1/2+z
-y,x-y,z
-x,-y,1/2+z
-x+y,-x,z
y,-x+y,1/2+z
-x,-y,-z
-x+y,-x,1/2-z
y,-x+y,-z
x,y,1/2-z
x-y,x,-z
-y,x-y,1/2-z
loop_
_atom_site_type_symbol
_atom_site_label
_atom_site_fract_x
_atom_site_fract_y
_atom_site_fract_z
Si Si1 0.353128 0.095416 0.674724
Si Si2 0.650674 0.479574 0.049577
Si Si3 0.429657 0.408338 0.674489
Si Si4 0.236280 0.270574 0.032939
O O1 0.294825 0.053621 0.750000
O O2 0.399663 0.254609 0.665294
O O3 0.485537 0.077211 0.671074
O O4 0.255875 0.015228 0.612690
O O5 0.534436 0.321101 0.047601
O O6 0.640811 0.548940 0.117438
O O7 0.657122 0.573447 0.988364
O O8 0.384188 0.418763 0.750000
O O9 0.253758 0.161207 0.990627
#
# Coordination Sequence:
#
# PCOD9581961 Si02
#       4
#    12  12  12  12
#     4  10  22  39  64  95 132 173 216 265 325 389
#     4  10  24  40  61  99 132 168 215 274 339 391
#     4  10  20  39  64  96 134 174 219 268 326 394
#     4  12  25  44  69  95 130 173 226 274 328 395
#
# _framework density 21.777847000000001
#
# number of rings (size 3 to 8) (size 9 to 14) (size 15 to 20)
#    0.500    1.000    2.500    2.250    3.500    5.000 
#    0.000    2.500    0.000    0.000    0.000    0.000 
#    0.000    0.000    0.000    0.000    0.000    0.000 
#
# Total GULP energy -268325.664805 kJ/mol
# GULP energy per Si atom -5590.118017 kJ/mol
# Density = 2.172828 g / cm^3
# Si number density = 21.777847 Si / 1000 Ang^3
#
#
#
# Elastic Constant Matrix: (Units=GPa)
#
#
# Indices 1 2 3 4 5 6 
#
# 1 73.0829 17.0610 34.4523 0.0000 0.0000 0.0000
# 2 17.0610 73.0829 34.4523 0.0000 0.0000 0.0000
# 3 34.4523 34.4523 165.6361 0.0000 0.0000 0.0000
# 4 0.0000 0.0000 0.0000 29.9409 0.0000 0.0000
# 5 0.0000 0.0000 0.0000 0.0000 29.9409 0.0000
# 6 0.0000 0.0000 0.0000 0.0000 0.0000 28.0109
#
#
#
# Elastic Compliance Matrix: (Units=1/GPa)
#
#
# Indices 1 2 3 4 5 6 
#
# 1 0.015520 -0.002330 -0.002744 0.000000 0.000000 0.000000
# 2 -0.002330 0.015520 -0.002744 0.000000 0.000000 0.000000
# 3 -0.002744 -0.002744 0.007179 0.000000 0.000000 0.000000
# 4 0.000000 0.000000 0.000000 0.033399 0.000000 0.000000
# 5 0.000000 0.000000 0.000000 0.000000 0.033399 0.000000
# 6 0.000000 0.000000 0.000000 0.000000 0.000000 0.035700
#
#
# Mechanical properties :
#
#
# Convention : Reuss Voigt Hill
#
# Bulk Modulus (GPa) = 44.27662 53.74811 49.01236
# Shear Modulus (GPa) = 30.51000 32.63428 31.57214
#
# Velocity S-wave (km/s) = 3.74701 3.87526 3.81167
# Velocity P-wave (km/s) = 6.25262 6.69009 6.47505
#
# Compressibility (1/GPa) = 0.02258528
#
# Stress axis : x y z
#
# Youngs Moduli (GPa) = 64.43143 64.43143 139.30136
#
# Poissons Ratio (x) = 0.15011 0.38219
# Poissons Ratio (y) = 0.15011 0.38219
# Poissons Ratio (z) = 0.17678 0.17678
#
# Static dielectric constant tensor:
#      x y z
#    x 1.804440 0.000000 0.000000 
#    y 0.000000 1.804440 0.000000 
#    z 0.000000 0.000000 1.785090 
# 
# From -- ./inp_files/3641.got.cif
#   From: 2010.05.17/outbox.cif.g08.bks.cpg/sg176_2_cif.got.tgz:3641.got - 2010.06.03 11:36:45.
