data_PCOD9581560
_publ_section_title
;
Structure prediction by ZEFSAII (Michael W. Deem and Ramdas Pophale) SiO2 
 PCOD9581560
Probable space group: P 6/M
;
_chemical_formula_sum "Si O2"
_cell_formula_units_Z 54
_cell_length_a 20.342440
_cell_length_b 20.342440
_cell_length_c 8.272349
_cell_angle_alpha 90.000000
_cell_angle_beta 90.000000
_cell_angle_gamma 120.000000
_cell_volume 2964.596337
_symmetry_space_group_name_H-M "P 6/M"
_symmetry_group_IT_number 175
_symmetry_cell_setting 'hexagonal'
loop_
_space_group_symop_operation_xyz
x,y,z
x-y,x,z
-y,x-y,z
-x,-y,z
-x+y,-x,z
y,-x+y,z
-x,-y,-z
-x+y,-x,-z
y,-x+y,-z
x,y,-z
x-y,x,-z
-y,x-y,-z
loop_
_atom_site_type_symbol
_atom_site_label
_atom_site_fract_x
_atom_site_fract_y
_atom_site_fract_z
Si Si1 0.895465 0.633204 0.310508
Si Si2 0.870003 0.831045 0.500000
Si Si3 0.237467 0.021498 0.825004
Si Si4 0.265483 0.414010 0.181706
Si Si5 0.582507 0.569619 0.196545
O O1 0.905021 0.653192 0.500000
O O2 0.938600 0.711061 0.207521
O O3 0.805807 0.587591 0.270061
O O4 0.944891 0.593049 0.268580
O O5 0.956243 0.857199 0.500000
O O6 0.834252 0.788501 0.666130
O O7 0.326410 0.082244 0.831769
O O8 0.203455 0.021854 0.000000
O O9 0.350685 0.447688 0.251581
O O10 0.270077 0.444350 0.000000
O O11 0.500000 0.500000 0.234809
O O12 0.589532 0.578401 0.000000
#
# Coordination Sequence:
#
# PCOD9581560 Si02
#       5
#    12   6  12  12  12
#     4  11  20  31  53  83 111 139 176 222 273 331
#     4  12  25  38  52  70  97 134 174 214 260 318
#     4  10  21  37  56  78 104 134 173 225 277 320
#     4   9  18  32  54  81 108 138 176 224 276 327
#     4   9  19  36  56  78 109 148 186 228 281 337
#
# _framework density 18.214957999999999
#
# number of rings (size 3 to 8) (size 9 to 14) (size 15 to 20)
#    0.000    2.000    1.111    4.778    1.556    4.000 
#    0.000    0.000    0.000    2.222    0.000    3.111 
#    0.000    0.000    0.000    0.000    0.000    0.000 
#
# Total GULP energy -300914.055362 kJ/mol
# GULP energy per Si atom -5572.482507 kJ/mol
# Density = 1.817350 g / cm^3
# Si number density = 18.214958 Si / 1000 Ang^3
#
#
#
# Elastic Constant Matrix: (Units=GPa)
#
#
# Indices 1 2 3 4 5 6 
#
# 1 77.6163 10.6537 18.1498 0.0000 0.0000 0.0000
# 2 10.6537 77.6163 18.1498 0.0000 0.0000 0.0000
# 3 18.1498 18.1498 100.6718 0.0000 0.0000 0.0000
# 4 0.0000 0.0000 0.0000 14.8637 0.0000 0.0000
# 5 0.0000 0.0000 0.0000 0.0000 14.8637 0.0000
# 6 0.0000 0.0000 0.0000 0.0000 0.0000 33.4813
#
#
#
# Elastic Compliance Matrix: (Units=1/GPa)
#
#
# Indices 1 2 3 4 5 6 
#
# 1 0.013585 -0.001349 -0.002206 0.000000 0.000000 0.000000
# 2 -0.001349 0.013585 -0.002206 0.000000 0.000000 0.000000
# 3 -0.002206 -0.002206 0.010729 0.000000 0.000000 0.000000
# 4 0.000000 0.000000 0.000000 0.067278 0.000000 0.000000
# 5 0.000000 0.000000 0.000000 0.000000 0.067278 0.000000
# 6 0.000000 0.000000 0.000000 0.000000 0.000000 0.029867
#
#
# Mechanical properties :
#
#
# Convention : Reuss Voigt Hill
#
# Bulk Modulus (GPa) = 37.91209 38.86789 38.38999
# Shear Modulus (GPa) = 22.45820 26.57182 24.51501
#
# Velocity S-wave (km/s) = 3.51515 3.82356 3.67259
# Velocity P-wave (km/s) = 6.11015 6.39355 6.25346
#
# Compressibility (1/GPa) = 0.02637681
#
# Stress axis : x y z
#
# Youngs Moduli (GPa) = 73.61125 73.61125 93.20800
#
# Poissons Ratio (x) = 0.09929 0.20562
# Poissons Ratio (y) = 0.09929 0.20562
# Poissons Ratio (z) = 0.16239 0.16239
#
# Static dielectric constant tensor:
#      x y z
#    x 1.638890 0.000000 0.000000 
#    y 0.000000 1.638890 0.000000 
#    z 0.000000 0.000000 0.650100 
# 
# From -- ./inp_files/801.got.cif
#   From: 2010.05.17/outbox.cif.g08.bks.cpg/sg175_1_cif.got.tgz:801.got - 2010.05.20 11:23:22.
