data_PCOD9581627
_publ_section_title
;
Structure prediction by ZEFSAII (Michael W. Deem and Ramdas Pophale) SiO2 
 PCOD9581627
Probable space group: P 6/M
;
_chemical_formula_sum "Si O2"
_cell_formula_units_Z 48
_cell_length_a 18.792726
_cell_length_b 18.792726
_cell_length_c 7.919433
_cell_angle_alpha 90.000000
_cell_angle_beta 90.000000
_cell_angle_gamma 120.000000
_cell_volume 2422.168122
_symmetry_space_group_name_H-M "P 6/M"
_symmetry_group_IT_number 175
_symmetry_cell_setting 'hexagonal'
loop_
_space_group_symop_operation_xyz
x,y,z
x-y,x,z
-y,x-y,z
-x,-y,z
-x+y,-x,z
y,-x+y,z
-x,-y,-z
-x+y,-x,-z
y,-x+y,-z
x,y,-z
x-y,x,-z
-y,x-y,-z
loop_
_atom_site_type_symbol
_atom_site_label
_atom_site_fract_x
_atom_site_fract_y
_atom_site_fract_z
Si Si1 0.261961 0.369136 0.808517
Si Si2 0.044257 0.445083 0.810992
Si Si3 0.290523 0.486218 0.500000
Si Si4 0.873068 0.812240 0.295224
Si Si5 0.629770 0.157278 0.500000
O O1 0.349693 0.373112 0.790399
O O2 0.261990 0.428739 0.664834
O O3 0.188509 0.277009 0.778823
O O4 0.258132 0.395563 0.000000
O O5 0.110245 0.475625 0.664237
O O6 0.000000 0.500000 0.799368
O O7 0.079564 0.456943 0.000000
O O8 0.388249 0.543826 0.500000
O O9 0.247951 0.541328 0.500000
O O10 0.844578 0.877294 0.246298
O O11 0.868465 0.805567 0.500000
#
# Coordination Sequence:
#
# PCOD9581627 Si02
#       5
#    12  12   6  12   6
#     4  11  24  41  65  97 129 165 218 276 326 380
#     4  10  21  40  67  94 120 159 212 269 325 376
#     4  12  26  44  63  94 133 171 213 263 325 390
#     4  10  22  40  65  96 135 176 220 264 320 386
#     4  12  25  41  68  91 129 173 212 256 322 395
#
# _framework density 19.816956000000001
#
# number of rings (size 3 to 8) (size 9 to 14) (size 15 to 20)
#    0.000    1.250    3.750    1.625    3.500    3.000 
#    0.000    0.000    0.000    4.500    0.000    0.000 
#    0.000    0.000    0.000    0.000    0.000    0.000 
#
# Total GULP energy -268392.925984 kJ/mol
# GULP energy per Si atom -5591.519291 kJ/mol
# Density = 1.977185 g / cm^3
# Si number density = 19.816956 Si / 1000 Ang^3
#
#
#
# Elastic Constant Matrix: (Units=GPa)
#
#
# Indices 1 2 3 4 5 6 
#
# 1 89.4001 23.7483 45.4710 0.0000 0.0000 0.0000
# 2 23.7483 89.4001 45.4710 0.0000 0.0000 0.0000
# 3 45.4710 45.4710 123.5490 0.0000 0.0000 0.0000
# 4 0.0000 0.0000 0.0000 -22.3924 0.0000 0.0000
# 5 0.0000 0.0000 0.0000 0.0000 -22.3924 0.0000
# 6 0.0000 0.0000 0.0000 0.0000 0.0000 32.8259
#
#
#
# Elastic Compliance Matrix: (Units=1/GPa)
#
#
# Indices 1 2 3 4 5 6 
#
# 1 0.013891 -0.001341 -0.004619 0.000000 0.000000 0.000000
# 2 -0.001341 0.013891 -0.004619 0.000000 0.000000 0.000000
# 3 -0.004619 -0.004619 0.011494 0.000000 0.000000 0.000000
# 4 0.000000 0.000000 0.000000 -0.044658 0.000000 0.000000
# 5 0.000000 0.000000 0.000000 0.000000 -0.044658 0.000000
# 6 0.000000 0.000000 0.000000 0.000000 0.000000 0.030464
#
#
# Mechanical properties :
#
#
# Convention : Reuss Voigt Hill
#
# Bulk Modulus (GPa) = 55.19182 59.08109 57.13646
# Shear Modulus (GPa) = 656.06346 10.11883 333.09115
#
# Velocity S-wave (km/s) = 18.21484 2.26213 12.97878
# Velocity P-wave (km/s) = 21.68606 6.05814 15.92147
#
# Compressibility (1/GPa) = 0.01811863
#
# Stress axis : x y z
#
# Youngs Moduli (GPa) = 71.98806 71.98806 87.00200
#
# Poissons Ratio (x) = 0.09651 0.40187
# Poissons Ratio (y) = 0.09651 0.40187
# Poissons Ratio (z) = 0.33252 0.33252
#
# Static dielectric constant tensor:
#      x y z
#    x 1.665520 0.000000 0.000000 
#    y 0.000000 1.665520 0.000000 
#    z 0.000000 0.000000 1.697290 
# 
# From -- ./inp_files/644.got.cif
#   From: 2010.05.17/outbox.cif.g08.bks.cpg/sg175_1_cif.got.tgz:644.got - 2010.05.20 11:23:22.
