data_PCOD9581446
_publ_section_title
;
Structure prediction by ZEFSAII (Michael W. Deem and Ramdas Pophale) SiO2 
 PCOD9581446
Probable space group: P 6/M
;
_chemical_formula_sum "Si O2"
_cell_formula_units_Z 72
_cell_length_a 25.185259
_cell_length_b 25.185259
_cell_length_c 7.665343
_cell_angle_alpha 90.000000
_cell_angle_beta 90.000000
_cell_angle_gamma 120.000000
_cell_volume 4210.707438
_symmetry_space_group_name_H-M "P 6/M"
_symmetry_group_IT_number 175
_symmetry_cell_setting 'hexagonal'
loop_
_space_group_symop_operation_xyz
x,y,z
x-y,x,z
-y,x-y,z
-x,-y,z
-x+y,-x,z
y,-x+y,z
-x,-y,-z
-x+y,-x,-z
y,-x+y,-z
x,y,-z
x-y,x,-z
-y,x-y,-z
loop_
_atom_site_type_symbol
_atom_site_label
_atom_site_fract_x
_atom_site_fract_y
_atom_site_fract_z
Si Si1 0.864322 0.548640 0.306969
Si Si2 0.673453 0.682420 0.301586
Si Si3 0.544578 0.066881 0.197391
Si Si4 0.793484 0.609945 0.285525
Si Si5 0.097126 0.650391 0.292196
Si Si6 0.863831 0.145863 0.000000
Si Si7 0.762017 0.765915 0.000000
O O1 0.839182 0.528304 0.500000
O O2 0.922758 0.617147 0.307134
O O3 0.891224 0.505168 0.258684
O O4 0.815143 0.562621 0.219536
O O5 0.697219 0.687131 0.500000
O O6 0.644799 0.612291 0.242597
O O7 0.724464 0.727397 0.169507
O O8 0.506763 0.102532 0.207589
O O9 0.500000 0.000000 0.285246
O O10 0.552628 0.052900 0.000000
O O11 0.803600 0.621212 0.500000
O O12 0.720900 0.576317 0.253997
O O13 0.828328 0.672040 0.169444
O O14 0.097399 0.641487 0.500000
O O15 0.827035 0.071344 0.000000
O O16 0.937845 0.175540 0.000000
#
# Coordination Sequence:
#
# PCOD9581446 Si02
#       7
#    12  12  12  12  12   6   6
#     4  10  20  35  53  76 108 146 185 227 279 333
#     4  10  20  33  55  81 111 145 185 227 273 336
#     4  11  23  31  47  76 113 147 185 228 268 325
#     4  10  22  38  58  83 110 147 189 237 290 339
#     4  10  20  35  53  76 108 146 185 227 279 333
#     4  12  24  36  60  83 118 148 184 224 280 340
#     4  12  24  36  58  84 118 152 180 226 276 340
#
# _framework density 17.099264999999999
#
# number of rings (size 3 to 8) (size 9 to 14) (size 15 to 20)
#    0.000    1.500    5.000    0.500    4.667    0.667 
#    0.000    0.000    0.000    0.833    0.000    2.333 
#    0.000    0.000    0.000    3.000    0.000    0.000 
#
# Total GULP energy -400807.827828 kJ/mol
# GULP energy per Si atom -5566.775387 kJ/mol
# Density = 1.706035 g / cm^3
# Si number density = 17.099265 Si / 1000 Ang^3
#
#
#
# Elastic Constant Matrix: (Units=GPa)
#
#
# Indices 1 2 3 4 5 6 
#
# 1 82.9471 24.7136 18.9529 0.0000 0.0000 0.0000
# 2 24.7136 82.9471 18.9529 0.0000 0.0000 0.0000
# 3 18.9529 18.9529 61.0681 0.0000 0.0000 0.0000
# 4 0.0000 0.0000 0.0000 12.4892 0.0000 0.0000
# 5 0.0000 0.0000 0.0000 0.0000 12.4892 0.0000
# 6 0.0000 0.0000 0.0000 0.0000 0.0000 29.1168
#
#
#
# Elastic Compliance Matrix: (Units=1/GPa)
#
#
# Indices 1 2 3 4 5 6 
#
# 1 0.013800 -0.003372 -0.003236 0.000000 0.000000 0.000000
# 2 -0.003372 0.013800 -0.003236 0.000000 0.000000 0.000000
# 3 -0.003236 -0.003236 0.018384 0.000000 0.000000 0.000000
# 4 0.000000 0.000000 0.000000 0.080069 0.000000 0.000000
# 5 0.000000 0.000000 0.000000 0.000000 0.080069 0.000000
# 6 0.000000 0.000000 0.000000 0.000000 0.000000 0.034344
#
#
# Mechanical properties :
#
#
# Convention : Reuss Voigt Hill
#
# Bulk Modulus (GPa) = 38.03097 39.13347 38.58222
# Shear Modulus (GPa) = 18.59277 21.77523 20.18400
#
# Velocity S-wave (km/s) = 3.30107 3.57243 3.43942
# Velocity P-wave (km/s) = 6.06786 6.32076 6.19560
#
# Compressibility (1/GPa) = 0.02629436
#
# Stress axis : x y z
#
# Youngs Moduli (GPa) = 72.46338 72.46338 54.39500
#
# Poissons Ratio (x) = 0.24436 0.17604
# Poissons Ratio (y) = 0.24436 0.17604
# Poissons Ratio (z) = 0.23452 0.23452
#
# Static dielectric constant tensor:
#      x y z
#    x 1.608400 0.000000 0.000000 
#    y 0.000000 1.608400 0.000000 
#    z 0.000000 0.000000 1.644620 
# 
# From -- ./inp_files/1244.got.cif
#   From: 2010.05.17/outbox.cif.g08.bks.cpg/sg175_1_cif.got.tgz:1244.got - 2010.05.20 11:23:22.
