data_PCOD9581228
_publ_section_title
;
Structure prediction by ZEFSAII (Michael W. Deem and Ramdas Pophale) SiO2 
 PCOD9581228
Probable space group: P -6
;
_chemical_formula_sum "Si O2"
_cell_formula_units_Z 48
_cell_length_a 18.000000
_cell_length_b 18.000000
_cell_length_c 9.000000
_cell_angle_alpha 90.000000
_cell_angle_beta 90.000000
_cell_angle_gamma 120.000000
_cell_volume 2525.330077
_symmetry_space_group_name_H-M "P -6"
_symmetry_group_IT_number 174
_symmetry_cell_setting 'hexagonal'
loop_
_space_group_symop_operation_xyz
x,y,z
-x+y,-x,-z
-y,x-y,z
x,y,-z
-x+y,-x,z
-y,x-y,-z
loop_
_atom_site_type_symbol
_atom_site_label
_atom_site_fract_x
_atom_site_fract_y
_atom_site_fract_z
Si Si1 0.780864 0.748944 0.325741
Si Si2 0.451002 0.170079 0.324368
Si Si3 0.695088 0.113734 0.825811
Si Si4 0.218062 0.166245 0.175927
Si Si5 0.403570 0.865698 0.819904
Si Si6 0.526130 0.792047 0.180447
Si Si7 0.516836 0.045419 0.677616
Si Si8 0.716535 0.861829 0.820785
O O1 0.779875 0.764410 0.500000
O O2 0.741415 0.647339 0.303062
O O3 0.877556 0.792583 0.264216
O O4 0.729204 0.785990 0.239843
O O5 0.462460 0.191832 0.500000
O O6 0.462051 0.250840 0.232759
O O7 0.508200 0.128128 0.281859
O O8 0.757638 0.074326 0.805927
O O9 0.607523 0.061529 0.736357
O O10 0.675669 0.110511 0.000000
O O11 0.159670 0.205644 0.225699
O O12 0.204871 0.145851 0.000000
O O13 0.465060 0.828461 0.771831
O O14 0.306190 0.798542 0.775633
O O15 0.441382 0.959364 0.750418
O O16 0.406057 0.872603 0.000000
O O17 0.624802 0.848611 0.227701
O O18 0.524657 0.792836 0.000000
O O19 0.510714 0.037161 0.500000
O O20 0.716300 0.860351 0.000000
#
# Coordination Sequence:
#
# PCOD9581228 Si02
#       8
#     6   6   6   6   6   6   6   6
#     4  10  20  35  55  78 104 134 175 222 266 314
#     4   9  20  38  56  76 107 145 178 215 270 332
#     4  10  20  36  59  83 106 135 179 230 273 318
#     4   9  19  36  56  77 104 139 175 216 268 324
#     4  10  19  34  56  82 114 151 193 236 279 324
#     4   9  18  32  54  83 113 147 187 233 276 318
#     4  11  22  36  55  81 113 149 185 222 274 337
#     4  10  19  33  53  78 107 140 178 216 264 325
#
# _framework density 19.007415999999999
#
# number of rings (size 3 to 8) (size 9 to 14) (size 15 to 20)
#    0.000    2.250    0.000    2.875    0.000    5.500 
#    1.500    2.500    0.000    0.000    0.000    0.000 
#    0.000    0.000    0.000    0.000    0.000    0.000 
#
# Total GULP energy -267956.769866 kJ/mol
# GULP energy per Si atom -5582.432706 kJ/mol
# Density = 1.896415 g / cm^3
# Si number density = 19.007416 Si / 1000 Ang^3
#
#
#
# Elastic Constant Matrix: (Units=GPa)
#
#
# Indices 1 2 3 4 5 6 
#
# 1 34.8005 -8.9376 8.6196 0.0000 0.0000 0.0000
# 2 -8.9376 34.8005 8.6196 0.0000 0.0000 0.0000
# 3 8.6196 8.6196 19.7433 0.0000 0.0000 0.0000
# 4 0.0000 0.0000 0.0000 12.3199 0.0000 0.0000
# 5 0.0000 0.0000 0.0000 0.0000 12.3199 0.0000
# 6 0.0000 0.0000 0.0000 0.0000 0.0000 21.8690
#
#
#
# Elastic Compliance Matrix: (Units=1/GPa)
#
#
# Indices 1 2 3 4 5 6 
#
# 1 0.038700 0.015836 -0.023810 0.000000 0.000000 0.000000
# 2 0.015836 0.038700 -0.023810 0.000000 0.000000 0.000000
# 3 -0.023810 -0.023810 0.071440 0.000000 0.000000 0.000000
# 4 0.000000 0.000000 0.000000 0.081169 0.000000 0.000000
# 5 0.000000 0.000000 0.000000 0.000000 0.081169 0.000000
# 6 0.000000 0.000000 0.000000 0.000000 0.000000 0.045727
#
#
# Mechanical properties :
#
#
# Convention : Reuss Voigt Hill
#
# Bulk Modulus (GPa) = 11.72698 11.77197 11.74947
# Shear Modulus (GPa) = 11.13845 14.70461 12.92153
#
# Velocity S-wave (km/s) = 2.42338 2.78443 2.61015
# Velocity P-wave (km/s) = 3.74345 4.06745 3.90881
#
# Compressibility (1/GPa) = 0.08527346
#
# Stress axis : x y z
#
# Youngs Moduli (GPa) = 25.83998 25.83998 13.99773
#
# Poissons Ratio (x) = -0.40921 0.33328
# Poissons Ratio (y) = -0.40921 0.33328
# Poissons Ratio (z) = 0.61524 0.61524
#
# Static dielectric constant tensor:
#      x y z
#    x 1.653970 0.000000 0.000000 
#    y 0.000000 1.653970 0.000000 
#    z 0.000000 0.000000 1.632640 
# 
# From -- ./inp_files/524.got.cif
#   From: 2010.05.17/outbox.ucp.g08.bks.cvg/sg174_cif.got.tgz:524.got - 2010.06.11 15:18:40.
