data_PCOD9581145
_publ_section_title
;
Structure prediction by ZEFSAII (Michael W. Deem and Ramdas Pophale) SiO2 
 PCOD9581145
Probable space group: P -6
;
_chemical_formula_sum "Si O2"
_cell_formula_units_Z 28
_cell_length_a 14.818189
_cell_length_b 14.818189
_cell_length_c 8.387145
_cell_angle_alpha 90.000000
_cell_angle_beta 90.000000
_cell_angle_gamma 120.000000
_cell_volume 1594.905819
_symmetry_space_group_name_H-M "P -6"
_symmetry_group_IT_number 174
_symmetry_cell_setting 'hexagonal'
loop_
_space_group_symop_operation_xyz
x,y,z
-x+y,-x,-z
-y,x-y,z
x,y,-z
-x+y,-x,z
-y,x-y,-z
loop_
_atom_site_type_symbol
_atom_site_label
_atom_site_fract_x
_atom_site_fract_y
_atom_site_fract_z
Si Si1 0.334115 0.298888 0.692761
Si Si2 0.000000 0.000000 0.310470
Si Si3 0.666668 0.333334 0.306219
Si Si4 0.758155 0.676118 0.692687
Si Si5 0.904480 0.440638 0.305564
Si Si6 0.775780 0.889677 0.811134
O O1 0.333575 0.296023 0.500000
O O2 0.333845 0.192410 0.745826
O O3 0.439061 0.403167 0.745419
O O4 0.230490 0.297792 0.749664
O O5 0.087719 0.110006 0.246147
O O6 0.000000 0.000000 0.500000
O O7 0.666667 0.333334 0.500000
O O8 0.785345 0.397418 0.256269
O O9 0.760581 0.673941 0.500000
O O10 0.647719 0.578514 0.747159
O O11 0.762223 0.782392 0.743106
O O12 0.908522 0.441213 0.500000
O O13 0.771975 0.883209 0.000000
#
# Coordination Sequence:
#
# PCOD9581145 Si02
#       6
#     6   2   2   6   6   6
#     4  10  19  32  54  81 110 143 179 221 270 319
#     4  12  22  35  55  78 106 140 181 228 277 323
#     4   9  12  21  45  81 115 134 157 198 250 308
#     4  10  19  32  54  81 110 143 179 221 270 319
#     4   9  16  28  50  83 114 140 173 213 259 316
#     4  12  24  36  51  76 111 148 185 221 268 327
#
# _framework density 17.555893999999999
#
# number of rings (size 3 to 8) (size 9 to 14) (size 15 to 20)
#    0.000    1.714    4.286    2.571    0.000    0.000 
#    0.000    1.071    0.000    0.857    0.000    3.000 
#    0.000    0.000    0.000    0.000    0.000    0.000 
#
# Total GULP energy -156116.684550 kJ/mol
# GULP energy per Si atom -5575.595877 kJ/mol
# Density = 1.751594 g / cm^3
# Si number density = 17.555894 Si / 1000 Ang^3
#
#
#
# Elastic Constant Matrix: (Units=GPa)
#
#
# Indices 1 2 3 4 5 6 
#
# 1 62.1529 3.2754 2.5949 0.0000 0.0000 0.0019
# 2 3.2754 62.1593 2.5961 0.0000 0.0000 0.0018
# 3 2.5949 2.5961 14.1138 0.0000 0.0000 0.0005
# 4 0.0000 0.0000 0.0000 -11.8043 -0.0003 0.0000
# 5 0.0000 0.0000 0.0000 -0.0003 -11.8044 0.0000
# 6 0.0019 0.0018 0.0005 0.0000 0.0000 29.4407
#
#
#
# Elastic Compliance Matrix: (Units=1/GPa)
#
#
# Indices 1 2 3 4 5 6 
#
# 1 0.016247 -0.000737 -0.002852 0.000000 0.000000 -0.000001
# 2 -0.000737 0.016246 -0.002853 0.000000 0.000000 -0.000001
# 3 -0.002852 -0.002853 0.071901 0.000000 0.000000 -0.000001
# 4 0.000000 0.000000 0.000000 -0.084715 0.000002 0.000000
# 5 0.000000 0.000000 0.000000 0.000002 -0.084714 0.000000
# 6 -0.000001 -0.000001 -0.000001 0.000000 0.000000 0.033967
#
#
# Mechanical properties :
#
#
# Convention : Reuss Voigt Hill
#
# Bulk Modulus (GPa) = 10.92754 17.26207 14.09480
# Shear Modulus (GPa) = 405.88199 9.83036 207.85617
#
# Velocity S-wave (km/s) = 15.22157 2.36889 10.89283
# Velocity P-wave (km/s) = 17.75292 4.16367 12.89384
#
# Compressibility (1/GPa) = 0.09151191
#
# Stress axis : x y z
#
# Youngs Moduli (GPa) = 61.54887 61.55484 13.90793
#
# Poissons Ratio (x) = 0.04537 0.03966
# Poissons Ratio (y) = 0.04536 0.03967
# Poissons Ratio (z) = 0.17551 0.17560
#
# Static dielectric constant tensor:
#      x y z
#    x 1.601190 0.000000 0.000000 
#    y 0.000000 1.601190 0.000000 
#    z 0.000000 0.000000 1.602660 
# 
# From -- ./inp_files/286.got.cif
#   From: 2010.05.17/outbox.cif.g08.bks.cpg/sg174_cif.got.tgz:286.got - 2010.05.20 11:22:48.
