data_PCOD9581122
_publ_section_title
;
Structure prediction by ZEFSAII (Michael W. Deem and Ramdas Pophale) SiO2 
 PCOD9581122
Probable space group: P 63
;
_chemical_formula_sum "Si O2"
_cell_formula_units_Z 36
_cell_length_a 9.000000
_cell_length_b 9.000000
_cell_length_c 27.000000
_cell_angle_alpha 90.000000
_cell_angle_beta 90.000000
_cell_angle_gamma 120.000000
_cell_volume 1893.997558
_symmetry_space_group_name_H-M "P 63"
_symmetry_group_IT_number 173
_symmetry_cell_setting 'hexagonal'
loop_
_space_group_symop_operation_xyz
x,y,z
x-y,x,1/2+z
-y,x-y,z
-x,-y,1/2+z
-x+y,-x,z
y,-x+y,1/2+z
loop_
_atom_site_type_symbol
_atom_site_label
_atom_site_fract_x
_atom_site_fract_y
_atom_site_fract_z
Si Si1 0.320680 0.318589 0.005860
Si Si2 0.681411 0.679320 0.726684
Si Si3 0.640054 0.996213 0.764775
Si Si4 0.193736 0.999999 0.616272
Si Si5 0.448082 0.896166 0.366272
Si Si6 0.996213 0.640054 0.467769
O O1 0.276551 0.275058 0.063821
O O2 0.341607 0.166917 0.979105
O O3 0.497912 0.497698 0.002923
O O4 0.167610 0.336748 0.979322
O O5 0.663252 0.832390 0.753223
O O6 0.502302 0.502087 0.729622
O O7 0.724940 0.723449 0.668723
O O8 0.833083 0.658394 0.753439
O O9 0.554081 0.997021 0.818451
O O10 0.161702 0.161701 0.616272
O O11 0.242500 0.757498 0.366272
O O12 0.557057 0.002978 0.414094
#
# Coordination Sequence:
#
# PCOD9581122 Si02
#       6
#     6   6   6   6   6   6
#     4  12  24  43  73 101 148 186 239 297 365 432
#     4  12  24  43  73 101 148 186 239 297 365 432
#     4  12  24  45  70 109 140 192 235 306 360 438
#     4  10  20  42  70 104 142 186 234 294 362 446
#     4  10  20  44  70  96 136 176 234 292 358 424
#     4  12  24  45  70 109 140 192 235 306 360 438
#
# _framework density 19.007415999999999
#
# number of rings (size 3 to 8) (size 9 to 14) (size 15 to 20)
#    0.667    0.000    6.667    2.000    0.000    4.000 
#    0.000    0.000    0.000    0.000    0.000    0.000 
#    0.000    0.000    0.000    0.000    0.000    0.000 
#
# Total GULP energy -200438.042264 kJ/mol
# GULP energy per Si atom -5567.723396 kJ/mol
# Density = 1.896415 g / cm^3
# Si number density = 19.007416 Si / 1000 Ang^3
#
#
#
# Elastic Constant Matrix: (Units=GPa)
#
#
# Indices 1 2 3 4 5 6 
#
# 1 146.4179 68.8473 55.8082 0.0000 0.0000 0.0000
# 2 68.8473 146.4179 55.8082 0.0000 0.0000 0.0000
# 3 55.8082 55.8082 196.8572 0.0000 0.0000 0.0000
# 4 0.0000 0.0000 0.0000 39.7691 0.0000 0.0000
# 5 0.0000 0.0000 0.0000 0.0000 39.7691 0.0000
# 6 0.0000 0.0000 0.0000 0.0000 0.0000 38.7853
#
#
#
# Elastic Compliance Matrix: (Units=1/GPa)
#
#
# Indices 1 2 3 4 5 6 
#
# 1 0.009169 -0.003723 -0.001544 0.000000 0.000000 0.000000
# 2 -0.003723 0.009169 -0.001544 0.000000 0.000000 0.000000
# 3 -0.001544 -0.001544 0.005955 0.000000 0.000000 0.000000
# 4 0.000000 0.000000 0.000000 0.025145 0.000000 0.000000
# 5 0.000000 0.000000 0.000000 0.000000 0.025145 0.000000
# 6 0.000000 0.000000 0.000000 0.000000 0.000000 0.025783
#
#
# Mechanical properties :
#
#
# Convention : Reuss Voigt Hill
#
# Bulk Modulus (GPa) = 93.70756 94.51337 94.11046
# Shear Modulus (GPa) = 42.53719 44.27999 43.40859
#
# Velocity S-wave (km/s) = 4.73580 4.83185 4.78407
# Velocity P-wave (km/s) = 8.90569 8.99786 8.95189
#
# Compressibility (1/GPa) = 0.01067150
#
# Stress axis : x y z
#
# Youngs Moduli (GPa) = 109.06652 109.06652 167.92028
#
# Poissons Ratio (x) = 0.40603 0.25925
# Poissons Ratio (y) = 0.40603 0.25925
# Poissons Ratio (z) = 0.16839 0.16839
#
# Static dielectric constant tensor:
#      x y z
#    x 1.665350 0.000000 0.000000 
#    y 0.000000 1.665350 0.000000 
#    z 0.000000 0.000000 1.721750 
# 
# From -- ./inp_files/1480.got.cif
#   From: 2010.05.17/outbox.ucp.g08.bks.cvg/sg173_cif.got.tgz:1480.got - 2010.06.11 15:18:35.
