data_PCOD9581595
_publ_section_title
;
Structure prediction by ZEFSAII (Michael W. Deem and Ramdas Pophale) SiO2 
 PCOD9581595
Probable space group: P 6/M
;
_chemical_formula_sum "Si O2"
_cell_formula_units_Z 66
_cell_length_a 21.224076
_cell_length_b 21.224076
_cell_length_c 7.320586
_cell_angle_alpha 90.000000
_cell_angle_beta 90.000000
_cell_angle_gamma 120.000000
_cell_volume 2855.841254
_symmetry_space_group_name_H-M "P 6/M"
_symmetry_group_IT_number 175
_symmetry_cell_setting 'hexagonal'
loop_
_space_group_symop_operation_xyz
x,y,z
x-y,x,z
-y,x-y,z
-x,-y,z
-x+y,-x,z
y,-x+y,z
-x,-y,-z
-x+y,-x,-z
y,-x+y,-z
x,y,-z
x-y,x,-z
-y,x-y,-z
loop_
_atom_site_type_symbol
_atom_site_label
_atom_site_fract_x
_atom_site_fract_y
_atom_site_fract_z
Si Si1 0.662596 0.848252 0.223187
Si Si2 0.388492 0.040053 0.221566
Si Si3 0.911866 0.081995 0.777457
Si Si4 0.450670 0.858732 0.782540
Si Si5 0.876584 0.562489 0.222049
Si Si6 0.252497 0.667942 0.500000
O O1 0.642020 0.908226 0.282294
O O2 0.744738 0.870279 0.278364
O O3 0.598352 0.769050 0.282660
O O4 0.662969 0.847743 0.000000
O O5 0.472876 0.071498 0.268913
O O6 0.339586 0.958231 0.281694
O O7 0.386222 0.039470 0.000000
O O8 0.997054 0.126172 0.721310
O O9 0.911589 0.081607 0.000000
O O10 0.379536 0.862435 0.727753
O O11 0.451159 0.792323 0.680589
O O12 0.449201 0.849450 0.000000
O O13 0.873622 0.560783 0.000000
O O14 0.266388 0.599369 0.500000
#
# Coordination Sequence:
#
# PCOD9581595 Si02
#       6
#    12  12  12  12  12   6
#     4   9  16  24  41  67  98 136 182 233 284 335
#     4   9  17  30  50  78 109 143 187 238 287 338
#     4   9  15  22  32  51  86 133 181 227 275 330
#     4  10  21  38  62  85 113 151 193 235 287 347
#     4   9  17  30  50  78 109 143 187 238 287 338
#     4  10  26  42  57  86 122 150 186 240 290 342
#
# _framework density 23.110530000000001
#
# number of rings (size 3 to 8) (size 9 to 14) (size 15 to 20)
#    0.182    2.545    0.000    1.818    2.545    8.000 
#    0.000    1.818    0.000    0.000    0.000    0.000 
#    0.000    0.000    0.000    0.000    0.000    0.545 
#
# Total GULP energy -368605.270193 kJ/mol
# GULP energy per Si atom -5584.928336 kJ/mol
# Density = 2.305793 g / cm^3
# Si number density = 23.110530 Si / 1000 Ang^3
#
#
#
# Elastic Constant Matrix: (Units=GPa)
#
#
# Indices 1 2 3 4 5 6 
#
# 1 116.7318 32.4540 13.7886 0.0000 0.0000 0.0000
# 2 32.4540 116.7318 13.7886 0.0000 0.0000 0.0000
# 3 13.7886 13.7886 74.3687 0.0000 0.0000 0.0000
# 4 0.0000 0.0000 0.0000 -0.3598 0.0000 0.0000
# 5 0.0000 0.0000 0.0000 0.0000 -0.3598 0.0000
# 6 0.0000 0.0000 0.0000 0.0000 0.0000 42.1389
#
#
#
# Elastic Compliance Matrix: (Units=1/GPa)
#
#
# Indices 1 2 3 4 5 6 
#
# 1 0.009403 -0.002462 -0.001287 0.000000 0.000000 0.000000
# 2 -0.002462 0.009403 -0.001287 0.000000 0.000000 0.000000
# 3 -0.001287 -0.001287 0.013924 0.000000 0.000000 0.000000
# 4 0.000000 0.000000 0.000000 -2.779550 0.000000 0.000000
# 5 0.000000 0.000000 0.000000 0.000000 -2.779550 0.000000
# 6 0.000000 0.000000 0.000000 0.000000 0.000000 0.023731
#
#
# Mechanical properties :
#
#
# Convention : Reuss Voigt Hill
#
# Bulk Modulus (GPa) = 44.13460 47.54386 45.83923
# Shear Modulus (GPa) = -0.91157 24.80393 11.94618
#
# Velocity S-wave (km/s) = -0.62873 3.27964 2.27604
# Velocity P-wave (km/s) = 4.31411 5.91257 5.17542
#
# Compressibility (1/GPa) = 0.02265796
#
# Stress axis : x y z
#
# Youngs Moduli (GPa) = 106.34640 106.34640 71.81979
#
# Poissons Ratio (x) = 0.26186 0.09243
# Poissons Ratio (y) = 0.26186 0.09243
# Poissons Ratio (z) = 0.13686 0.13686
#
# Static dielectric constant tensor:
#      x y z
#    x 1.815890 0.000000 0.000000 
#    y 0.000000 1.815890 0.000000 
#    z 0.000000 0.000000 1.986250 
# 
# From -- ./inp_files/962.got.cif
#   From: 2010.05.17/outbox.cif.g08.bks.cpg/sg175_1_cif.got.tgz:962.got - 2010.05.20 11:23:22.
