data_PCOD9581733
_publ_section_title
;
Structure prediction by ZEFSAII (Michael W. Deem and Ramdas Pophale) SiO2 
 PCOD9581733
Probable space group: P 63/M
;
_chemical_formula_sum "Si O2"
_cell_formula_units_Z 58
_cell_length_a 14.669910
_cell_length_b 14.669910
_cell_length_c 15.076990
_cell_angle_alpha 90.000000
_cell_angle_beta 90.000000
_cell_angle_gamma 120.000000
_cell_volume 2809.960257
_symmetry_space_group_name_H-M "P 63/M"
_symmetry_group_IT_number 176
_symmetry_cell_setting 'hexagonal'
loop_
_space_group_symop_operation_xyz
x,y,z
x-y,x,1/2+z
-y,x-y,z
-x,-y,1/2+z
-x+y,-x,z
y,-x+y,1/2+z
-x,-y,-z
-x+y,-x,1/2-z
y,-x+y,-z
x,y,1/2-z
x-y,x,-z
-y,x-y,1/2-z
loop_
_atom_site_type_symbol
_atom_site_label
_atom_site_fract_x
_atom_site_fract_y
_atom_site_fract_z
Si Si1 0.581948 0.472797 0.934738
Si Si2 0.426482 0.235853 0.508573
Si Si3 0.105600 0.858420 0.354109
Si Si4 0.000000 0.000000 0.356864
Si Si5 0.945653 0.606793 0.147632
Si Si6 0.559823 0.208981 0.750000
O O1 0.684374 0.524857 0.995237
O O2 0.509619 0.349509 0.949931
O O3 0.542856 0.555874 0.915475
O O4 0.636210 0.488036 0.837851
O O5 0.323924 0.189327 0.572503
O O6 0.407049 0.254240 0.407767
O O7 0.142964 0.884817 0.250000
O O8 0.053060 0.929111 0.381301
O O9 0.021683 0.733462 0.353588
O O10 0.000000 0.000000 0.250000
O O11 0.928536 0.571705 0.250000
O O12 0.682252 0.243115 0.750000
#
# Coordination Sequence:
#
# PCOD9581733 Si02
#       6
#    12  12  12   4  12   6
#     4  11  20  34  58  85 121 148 202 257 312 357
#     4  11  22  37  58  92 118 158 208 259 304 365
#     4   9  21  38  65  90 119 154 200 253 309 363
#     4   9  18  39  61  92 128 164 196 240 307 383
#     4  10  22  38  55  80 119 161 198 250 309 371
#     4  10  16  28  56  90 108 142 190 260 316 356
#
# _framework density 20.640861000000001
#
# number of rings (size 3 to 8) (size 9 to 14) (size 15 to 20)
#    0.207    1.655    3.103    1.034    2.897    3.310 
#    0.000    2.069    0.000    0.000    0.000    0.000 
#    0.000    0.000    0.000    0.000    0.000    0.000 
#
# Total GULP energy -322928.055846 kJ/mol
# GULP energy per Si atom -5567.725101 kJ/mol
# Density = 2.059388 g / cm^3
# Si number density = 20.640861 Si / 1000 Ang^3
#
#
#
# Elastic Constant Matrix: (Units=GPa)
#
#
# Indices 1 2 3 4 5 6 
#
# 1 77.3339 41.2857 10.2485 0.0000 0.0000 0.0000
# 2 41.2857 77.3339 10.2485 0.0000 0.0000 0.0000
# 3 10.2485 10.2485 45.6694 0.0000 0.0000 0.0000
# 4 0.0000 0.0000 0.0000 35.3499 0.0000 0.0000
# 5 0.0000 0.0000 0.0000 0.0000 35.3499 0.0000
# 6 0.0000 0.0000 0.0000 0.0000 0.0000 18.0241
#
#
#
# Elastic Compliance Matrix: (Units=1/GPa)
#
#
# Indices 1 2 3 4 5 6 
#
# 1 0.018256 -0.009485 -0.001968 0.000000 0.000000 0.000000
# 2 -0.009485 0.018256 -0.001968 0.000000 0.000000 0.000000
# 3 -0.001968 -0.001968 0.022780 0.000000 0.000000 0.000000
# 4 0.000000 0.000000 0.000000 0.028289 0.000000 0.000000
# 5 0.000000 0.000000 0.000000 0.000000 0.028289 0.000000
# 6 0.000000 0.000000 0.000000 0.000000 0.000000 0.055481
#
#
# Mechanical properties :
#
#
# Convention : Reuss Voigt Hill
#
# Bulk Modulus (GPa) = 30.81847 35.98919 33.40383
# Shear Modulus (GPa) = 23.92252 26.98176 25.45214
#
# Velocity S-wave (km/s) = 3.40809 3.61945 3.51535
# Velocity P-wave (km/s) = 5.51815 5.91109 5.71799
#
# Compressibility (1/GPa) = 0.03244807
#
# Stress axis : x y z
#
# Youngs Moduli (GPa) = 54.77799 54.77799 43.89849
#
# Poissons Ratio (x) = 0.51958 0.08640
# Poissons Ratio (y) = 0.51958 0.08640
# Poissons Ratio (z) = 0.10781 0.10781
#
# Static dielectric constant tensor:
#      x y z
#    x 1.797840 0.000000 0.000000 
#    y 0.000000 1.797840 0.000000 
#    z 0.000000 0.000000 1.585200 
# 
# From -- ./inp_files/2695.got.cif
#   From: 2010.05.17/outbox.cif.g08.bks.cpg/sg176_2_cif.got.tgz:2695.got - 2010.06.03 11:36:45.
