data_PCOD9581377
_publ_section_title
;
Structure prediction by ZEFSAII (Michael W. Deem and Ramdas Pophale) SiO2 
 PCOD9581377
Probable space group: P 6/M
;
_chemical_formula_sum "Si O2"
_cell_formula_units_Z 60
_cell_length_a 18.272998
_cell_length_b 18.272998
_cell_length_c 12.241070
_cell_angle_alpha 90.000000
_cell_angle_beta 90.000000
_cell_angle_gamma 120.000000
_cell_volume 3539.725842
_symmetry_space_group_name_H-M "P 6/M"
_symmetry_group_IT_number 175
_symmetry_cell_setting 'hexagonal'
loop_
_space_group_symop_operation_xyz
x,y,z
x-y,x,z
-y,x-y,z
-x,-y,z
-x+y,-x,z
y,-x+y,z
-x,-y,-z
-x+y,-x,-z
y,-x+y,-z
x,y,-z
x-y,x,-z
-y,x-y,-z
loop_
_atom_site_type_symbol
_atom_site_label
_atom_site_fract_x
_atom_site_fract_y
_atom_site_fract_z
Si Si1 0.889743 0.679643 0.123200
Si Si2 0.498371 0.327721 0.205065
Si Si3 0.402021 0.974134 0.370512
Si Si4 0.665838 0.480849 0.123577
Si Si5 0.339983 0.066728 0.208330
O O1 0.867017 0.582302 0.126018
O O2 0.824288 0.682659 0.209253
O O3 0.986281 0.728348 0.159794
O O4 0.877112 0.701824 0.000000
O O5 0.464607 0.346277 0.316542
O O6 0.571883 0.414452 0.157819
O O7 0.528179 0.258542 0.204955
O O8 0.391450 0.974282 0.500000
O O9 0.500000 0.000000 0.348530
O O10 0.372192 0.034707 0.311624
O O11 0.684752 0.576521 0.132004
O O12 0.681913 0.463475 0.000000
#
# Coordination Sequence:
#
# PCOD9581377 Si02
#       5
#    12  12  12  12  12
#     4  10  19  33  52  78 111 139 172 218 275 333
#     4  10  20  32  49  76 106 145 189 224 263 320
#     4  10  20  38  56  71  97 138 182 234 276 311
#     4  11  19  31  49  77 114 150 183 225 275 319
#     4  10  20  34  53  79 102 139 182 224 269 331
#
# _framework density 16.950465000000001
#
# number of rings (size 3 to 8) (size 9 to 14) (size 15 to 20)
#    0.000    1.800    2.000    5.200    0.000    0.000 
#    0.000   13.000    0.000    0.400    0.000    1.400 
#    0.000    0.000    0.000   16.200    0.000    1.800 
#
# Total GULP energy -334041.449199 kJ/mol
# GULP energy per Si atom -5567.357487 kJ/mol
# Density = 1.691189 g / cm^3
# Si number density = 16.950465 Si / 1000 Ang^3
#
#
#
# Elastic Constant Matrix: (Units=GPa)
#
#
# Indices 1 2 3 4 5 6 
#
# 1 83.5730 50.1602 33.0001 0.0000 0.0000 0.0000
# 2 50.1602 83.5730 33.0001 0.0000 0.0000 0.0000
# 3 33.0001 33.0001 98.8889 0.0000 0.0000 0.0000
# 4 0.0000 0.0000 0.0000 14.6463 0.0000 0.0000
# 5 0.0000 0.0000 0.0000 0.0000 14.6463 0.0000
# 6 0.0000 0.0000 0.0000 0.0000 0.0000 16.7064
#
#
#
# Elastic Compliance Matrix: (Units=1/GPa)
#
#
# Indices 1 2 3 4 5 6 
#
# 1 0.019440 -0.010488 -0.002987 0.000000 0.000000 0.000000
# 2 -0.010488 0.019440 -0.002987 0.000000 0.000000 0.000000
# 3 -0.002987 -0.002987 0.012106 0.000000 0.000000 0.000000
# 4 0.000000 0.000000 0.000000 0.068277 0.000000 0.000000
# 5 0.000000 0.000000 0.000000 0.000000 0.068277 0.000000
# 6 0.000000 0.000000 0.000000 0.000000 0.000000 0.059857
#
#
# Mechanical properties :
#
#
# Convention : Reuss Voigt Hill
#
# Bulk Modulus (GPa) = 55.36905 55.37283 55.37094
# Shear Modulus (GPa) = 17.46152 19.19142 18.32647
#
# Velocity S-wave (km/s) = 3.21308 3.36848 3.29169
# Velocity P-wave (km/s) = 6.81918 6.91861 6.86908
#
# Compressibility (1/GPa) = 0.01806063
#
# Stress axis : x y z
#
# Youngs Moduli (GPa) = 51.43958 51.43958 82.60269
#
# Poissons Ratio (x) = 0.53952 0.24676
# Poissons Ratio (y) = 0.53952 0.24676
# Poissons Ratio (z) = 0.15367 0.15367
#
# Static dielectric constant tensor:
#      x y z
#    x 1.605890 0.000000 0.000000 
#    y 0.000000 1.605890 0.000000 
#    z 0.000000 0.000000 1.557890 
# 
# From -- ./inp_files/1816.got.cif
#   From: 2010.05.17/outbox.cif.g08.bks.cpg/sg175_1_cif.got.tgz:1816.got - 2010.05.20 11:23:22.
