data_PCOD9581167
_publ_section_title
;
Structure prediction by ZEFSAII (Michael W. Deem and Ramdas Pophale) SiO2 
 PCOD9581167
Probable space group: P -6
;
_chemical_formula_sum "Si O2"
_cell_formula_units_Z 32
_cell_length_a 16.785035
_cell_length_b 16.785035
_cell_length_c 8.702838
_cell_angle_alpha 90.000000
_cell_angle_beta 90.000000
_cell_angle_gamma 120.000000
_cell_volume 2123.420635
_symmetry_space_group_name_H-M "P -6"
_symmetry_group_IT_number 174
_symmetry_cell_setting 'hexagonal'
loop_
_space_group_symop_operation_xyz
x,y,z
-x+y,-x,-z
-y,x-y,z
x,y,-z
-x+y,-x,z
-y,x-y,-z
loop_
_atom_site_type_symbol
_atom_site_label
_atom_site_fract_x
_atom_site_fract_y
_atom_site_fract_z
Si Si1 0.617152 0.565643 0.683995
Si Si2 0.666667 0.333335 0.186417
Si Si3 0.454186 0.229651 0.816112
Si Si4 0.332344 0.839185 0.315719
Si Si5 0.511064 0.843084 0.816563
Si Si6 0.615279 0.043513 0.315791
O O1 0.627860 0.564557 0.500000
O O2 0.710719 0.585643 0.763873
O O3 0.581845 0.636802 0.720250
O O4 0.531852 0.465104 0.729806
O O5 0.720445 0.438864 0.236524
O O6 0.666667 0.333334 0.000000
O O7 0.411440 0.287315 0.742642
O O8 0.451500 0.234920 0.000000
O O9 0.331789 0.830156 0.500000
O O10 0.412405 0.823026 0.247908
O O11 0.235350 0.765305 0.246739
O O12 0.584133 0.944340 0.755860
O O13 0.508856 0.842087 0.000000
O O14 0.613521 0.036648 0.500000
#
# Coordination Sequence:
#
# PCOD9581167 Si02
#       6
#     6   2   6   6   6   6
#     4   9  19  32  46  66  91 124 161 195 230 276
#     4   9  18  27  40  65  94 129 160 191 235 270
#     4  11  19  30  46  67  96 128 161 197 235 274
#     4  10  20  35  51  68  94 127 160 195 238 286
#     4  11  21  33  50  72  95 122 159 200 241 282
#     4  10  20  33  47  66  94 128 163 196 233 280
#
# _framework density 15.070023000000001
#
# number of rings (size 3 to 8) (size 9 to 14) (size 15 to 20)
#    0.000    1.875    1.875    4.875    0.000    3.750 
#    0.000    0.000    0.000    0.000    0.000    0.000 
#    1.875    0.000    3.375    0.000    3.375    0.000 
#
# Total GULP energy -178609.157006 kJ/mol
# GULP energy per Si atom -5581.536156 kJ/mol
# Density = 1.503572 g / cm^3
# Si number density = 15.070023 Si / 1000 Ang^3
#
#
#
# Elastic Constant Matrix: (Units=GPa)
#
#
# Indices 1 2 3 4 5 6 
#
# 1 104.9703 54.9120 48.8278 0.0000 0.0000 0.0000
# 2 54.9120 104.9710 48.8278 0.0000 0.0000 0.0000
# 3 48.8278 48.8278 78.7132 0.0000 0.0000 0.0000
# 4 0.0000 0.0000 0.0000 20.9520 0.0000 0.0000
# 5 0.0000 0.0000 0.0000 0.0000 20.9517 0.0000
# 6 0.0000 0.0000 0.0000 0.0000 0.0000 25.0291
#
#
#
# Elastic Compliance Matrix: (Units=1/GPa)
#
#
# Indices 1 2 3 4 5 6 
#
# 1 0.015023 -0.004953 -0.006247 0.000000 0.000000 0.000000
# 2 -0.004953 0.015023 -0.006247 0.000000 0.000000 0.000000
# 3 -0.006247 -0.006247 0.020454 0.000000 0.000000 0.000000
# 4 0.000000 0.000000 0.000000 0.047728 0.000000 0.000000
# 5 0.000000 0.000000 0.000000 0.000000 0.047729 0.000000
# 6 0.000000 0.000000 0.000000 0.000000 0.000000 0.039954
#
#
# Mechanical properties :
#
#
# Convention : Reuss Voigt Hill
#
# Bulk Modulus (GPa) = 64.07135 65.97664 65.02399
# Shear Modulus (GPa) = 22.12317 22.45901 22.29109
#
# Velocity S-wave (km/s) = 3.83564 3.86464 3.85017
# Velocity P-wave (km/s) = 7.88823 7.98680 7.93767
#
# Compressibility (1/GPa) = 0.01560760
#
# Stress axis : x y z
#
# Youngs Moduli (GPa) = 66.56296 66.56359 48.88944
#
# Poissons Ratio (x) = 0.32971 0.30540
# Poissons Ratio (y) = 0.32970 0.30540
# Poissons Ratio (z) = 0.41580 0.41580
#
# Static dielectric constant tensor:
#      x y z
#    x 1.490140 0.000000 0.000000 
#    y 0.000000 1.490140 0.000000 
#    z 0.000000 0.000000 1.500120 
# 
# From -- ./inp_files/318.got.cif
#   From: 2010.05.17/outbox.cif.g08.bks.cpg/sg174_cif.got.tgz:318.got - 2010.05.20 11:22:48.
