data_PCOD9581873
_publ_section_title
;
Structure prediction by ZEFSAII (Michael W. Deem and Ramdas Pophale) SiO2 
 PCOD9581873
Probable space group: P 63/M
;
_chemical_formula_sum "Si O2"
_cell_formula_units_Z 52
_cell_length_a 11.333622
_cell_length_b 11.333622
_cell_length_c 19.682090
_cell_angle_alpha 90.000000
_cell_angle_beta 90.000000
_cell_angle_gamma 120.000000
_cell_volume 2189.471482
_symmetry_space_group_name_H-M "P 63/M"
_symmetry_group_IT_number 176
_symmetry_cell_setting 'hexagonal'
loop_
_space_group_symop_operation_xyz
x,y,z
x-y,x,1/2+z
-y,x-y,z
-x,-y,1/2+z
-x+y,-x,z
y,-x+y,1/2+z
-x,-y,-z
-x+y,-x,1/2-z
y,-x+y,-z
x,y,1/2-z
x-y,x,-z
-y,x-y,1/2-z
loop_
_atom_site_type_symbol
_atom_site_label
_atom_site_fract_x
_atom_site_fract_y
_atom_site_fract_z
Si Si1 0.587382 0.883666 0.604038
Si Si2 0.563002 0.620441 0.556255
Si Si3 0.333335 0.666667 0.168119
Si Si4 0.830806 0.640269 0.885332
Si Si5 0.077643 0.882055 0.250000
Si Si6 0.672744 0.830191 0.750000
O O1 0.562196 0.762387 0.552614
O O2 0.459005 0.904809 0.612801
O O3 0.617533 0.849166 0.679679
O O4 0.713043 0.026356 0.576970
O O5 0.500000 0.500000 0.500000
O O6 0.711607 0.652423 0.578342
O O7 0.333334 0.666668 0.250000
O O8 0.233358 0.515397 0.139319
O O9 0.885929 0.741185 0.821669
O O10 0.992310 0.699143 0.250000
O O11 0.153150 0.066871 0.250000
#
# Coordination Sequence:
#
# PCOD9581873 Si02
#       6
#    12  12   4  12   6   6
#     4  11  26  46  73 112 143 203 256 320 392 459
#     4  12  28  48  74 103 155 205 262 314 382 465
#     4  12  21  36  69 105 141 186 246 307 383 469
#     4  11  23  42  72 107 146 193 250 320 385 455
#     4  10  19  37  65 107 150 192 237 310 393 470
#     4  10  21  39  71 107 154 192 249 322 399 464
#
# _framework density 23.750022999999999
#
# number of rings (size 3 to 8) (size 9 to 14) (size 15 to 20)
#    0.000    0.923    5.769    0.692    3.231    1.846 
#    1.385    0.000    0.000    1.385    0.000    0.000 
#    0.000    0.000    0.000    0.000    0.000    0.000 
#
# Total GULP energy -289808.050538 kJ/mol
# GULP energy per Si atom -5573.231741 kJ/mol
# Density = 2.369597 g / cm^3
# Si number density = 23.750023 Si / 1000 Ang^3
#
#
#
# Elastic Constant Matrix: (Units=GPa)
#
#
# Indices 1 2 3 4 5 6 
#
# 1 147.5657 37.6809 25.4040 0.0000 0.0000 0.0003
# 2 37.6809 147.5653 25.4042 0.0000 0.0000 0.0000
# 3 25.4040 25.4042 66.5154 0.0000 0.0000 0.0001
# 4 0.0000 0.0000 0.0000 30.6931 0.0002 0.0000
# 5 0.0000 0.0000 0.0000 0.0002 30.6927 0.0000
# 6 0.0003 0.0000 0.0001 0.0000 0.0000 54.9424
#
#
#
# Elastic Compliance Matrix: (Units=1/GPa)
#
#
# Indices 1 2 3 4 5 6 
#
# 1 0.007565 -0.001535 -0.002303 0.000000 0.000000 0.000000
# 2 -0.001535 0.007565 -0.002303 0.000000 0.000000 0.000000
# 3 -0.002303 -0.002303 0.016793 0.000000 0.000000 0.000000
# 4 0.000000 0.000000 0.000000 0.032581 0.000000 0.000000
# 5 0.000000 0.000000 0.000000 0.000000 0.032581 0.000000
# 6 0.000000 0.000000 0.000000 0.000000 0.000000 0.018201
#
#
# Mechanical properties :
#
#
# Convention : Reuss Voigt Hill
#
# Bulk Modulus (GPa) = 50.91369 59.84718 55.38043
# Shear Modulus (GPa) = 37.28126 41.47612 39.37869
#
# Velocity S-wave (km/s) = 3.96629 4.18348 4.07633
# Velocity P-wave (km/s) = 6.51607 6.97057 6.74715
#
# Compressibility (1/GPa) = 0.01964108
#
# Stress axis : x y z
#
# Youngs Moduli (GPa) = 132.18520 132.18467 59.54770
#
# Poissons Ratio (x) = 0.20294 0.13714
# Poissons Ratio (y) = 0.20294 0.13714
# Poissons Ratio (z) = 0.30442 0.30442
#
# Static dielectric constant tensor:
#      x y z
#    x 1.988810 0.000000 0.000000 
#    y 0.000000 1.988810 0.000000 
#    z 0.000000 0.000000 2.988510 
# 
# From -- ./inp_files/3720.got.cif
#   From: 2010.05.17/outbox.cif.g08.bks.cpg/sg176_2_cif.got.tgz:3720.got - 2010.06.03 11:36:45.
