data_PCOD9581432
_publ_section_title
;
Structure prediction by ZEFSAII (Michael W. Deem and Ramdas Pophale) SiO2 
 PCOD9581432
Probable space group: P 6/M
;
_chemical_formula_sum "Si O2"
_cell_formula_units_Z 72
_cell_length_a 22.851841
_cell_length_b 22.851841
_cell_length_c 10.156365
_cell_angle_alpha 90.000000
_cell_angle_beta 90.000000
_cell_angle_gamma 120.000000
_cell_volume 4593.157304
_symmetry_space_group_name_H-M "P 6/M"
_symmetry_group_IT_number 175
_symmetry_cell_setting 'hexagonal'
loop_
_space_group_symop_operation_xyz
x,y,z
x-y,x,z
-y,x-y,z
-x,-y,z
-x+y,-x,z
y,-x+y,z
-x,-y,-z
-x+y,-x,-z
y,-x+y,-z
x,y,-z
x-y,x,-z
-y,x-y,-z
loop_
_atom_site_type_symbol
_atom_site_label
_atom_site_fract_x
_atom_site_fract_y
_atom_site_fract_z
Si Si1 0.717060 0.859745 0.655801
Si Si2 0.488665 0.397479 0.848473
Si Si3 0.927986 0.389649 0.151534
Si Si4 0.096350 0.936688 0.846474
Si Si5 0.353503 0.056506 0.348326
Si Si6 0.709809 0.105053 0.348516
O O1 0.733219 0.860517 0.500000
O O2 0.777588 0.868805 0.747608
O O3 0.699276 0.918518 0.682065
O O4 0.649005 0.788924 0.681861
O O5 0.438931 0.429318 0.845569
O O6 0.562236 0.459777 0.812079
O O7 0.455916 0.334748 0.750149
O O8 0.490549 0.378157 0.000000
O O9 0.912655 0.329533 0.250395
O O10 0.909891 0.367397 0.000000
O O11 0.015699 0.892817 0.825910
O O12 0.109789 0.928013 0.000000
O O13 0.375368 0.075858 0.500000
O O14 0.317695 0.975496 0.339667
O O15 0.701062 0.119683 0.500000
#
# Coordination Sequence:
#
# PCOD9581432 Si02
#       6
#    12  12  12  12  12  12
#     4  10  20  33  47  65  92 122 152 188 232 284
#     4   8  14  25  41  61  85 111 137 166 201 243
#     4   8  14  25  41  61  85 111 137 166 201 243
#     4  10  21  36  52  68  86 112 152 204 258 306
#     4   9  17  28  42  61  86 116 147 179 217 262
#     4   9  17  28  42  61  86 116 147 179 217 262
#
# _framework density 15.675492999999999
#
# number of rings (size 3 to 8) (size 9 to 14) (size 15 to 20)
#    0.000    3.000    0.000    2.167    0.000    4.667 
#    0.000    6.667    0.000    1.000    0.000    0.000 
#    1.667    0.000    1.000    0.000    1.333    0.000 
#
# Total GULP energy -400953.431070 kJ/mol
# GULP energy per Si atom -5568.797654 kJ/mol
# Density = 1.563981 g / cm^3
# Si number density = 15.675493 Si / 1000 Ang^3
#
#
#
# Elastic Constant Matrix: (Units=GPa)
#
#
# Indices 1 2 3 4 5 6 
#
# 1 24.3714 -6.1394 14.4355 0.0000 0.0000 0.0000
# 2 -6.1394 24.3714 14.4355 0.0000 0.0000 0.0000
# 3 14.4355 14.4355 36.8106 0.0000 0.0000 0.0000
# 4 0.0000 0.0000 0.0000 21.0611 0.0000 0.0000
# 5 0.0000 0.0000 0.0000 0.0000 21.0611 0.0000
# 6 0.0000 0.0000 0.0000 0.0000 0.0000 15.2554
#
#
#
# Elastic Compliance Matrix: (Units=1/GPa)
#
#
# Indices 1 2 3 4 5 6 
#
# 1 0.088746 0.055971 -0.056752 0.000000 0.000000 0.000000
# 2 0.055971 0.088746 -0.056752 0.000000 0.000000 0.000000
# 3 -0.056752 -0.056752 0.071678 0.000000 0.000000 0.000000
# 4 0.000000 0.000000 0.000000 0.047481 0.000000 0.000000
# 5 0.000000 0.000000 0.000000 0.000000 0.047481 0.000000
# 6 0.000000 0.000000 0.000000 0.000000 0.000000 0.065551
#
#
# Mechanical properties :
#
#
# Convention : Reuss Voigt Hill
#
# Bulk Modulus (GPa) = 7.45687 14.55741 11.00714
# Shear Modulus (GPa) = 8.78040 15.66364 12.22202
#
# Velocity S-wave (km/s) = 2.36929 3.16451 2.79532
# Velocity P-wave (km/s) = 3.50029 4.76015 4.17798
#
# Compressibility (1/GPa) = 0.13410451
#
# Stress axis : x y z
#
# Youngs Moduli (GPa) = 11.26806 11.26806 13.95137
#
# Poissons Ratio (x) = -0.63069 0.79177
# Poissons Ratio (y) = -0.63069 0.79177
# Poissons Ratio (z) = 0.63949 0.63949
#
# Static dielectric constant tensor:
#      x y z
#    x 1.519860 0.000000 0.000000 
#    y 0.000000 1.519860 0.000000 
#    z 0.000000 0.000000 1.527860 
# 
# From -- ./inp_files/1219.got.cif
#   From: 2010.05.17/outbox.cif.g08.bks.cpg/sg175_1_cif.got.tgz:1219.got - 2010.05.20 11:23:22.
