data_PCOD9581965
_publ_section_title
;
Structure prediction by ZEFSAII (Michael W. Deem and Ramdas Pophale) SiO2 
 PCOD9581965
Probable space group: P 63/M
;
_chemical_formula_sum "Si O2"
_cell_formula_units_Z 72
_cell_length_a 15.475439
_cell_length_b 15.475439
_cell_length_c 18.792601
_cell_angle_alpha 90.000000
_cell_angle_beta 90.000000
_cell_angle_gamma 120.000000
_cell_volume 3897.655764
_symmetry_space_group_name_H-M "P 63/M"
_symmetry_group_IT_number 176
_symmetry_cell_setting 'hexagonal'
loop_
_space_group_symop_operation_xyz
x,y,z
x-y,x,1/2+z
-y,x-y,z
-x,-y,1/2+z
-x+y,-x,z
y,-x+y,1/2+z
-x,-y,-z
-x+y,-x,1/2-z
y,-x+y,-z
x,y,1/2-z
x-y,x,-z
-y,x-y,1/2-z
loop_
_atom_site_type_symbol
_atom_site_label
_atom_site_fract_x
_atom_site_fract_y
_atom_site_fract_z
Si Si1 0.556753 0.338779 0.452641
Si Si2 0.167207 0.461048 0.397971
Si Si3 0.232061 0.160802 0.582793
Si Si4 0.775111 0.844761 0.588439
Si Si5 0.324994 0.912077 0.833902
Si Si6 0.492004 0.865514 0.332672
O O1 0.571291 0.242071 0.456125
O O2 0.491163 0.331001 0.520739
O O3 0.507711 0.345758 0.380396
O O4 0.107143 0.342159 0.387318
O O5 0.133498 0.524746 0.350480
O O6 0.282753 0.499366 0.379373
O O7 0.148161 0.188178 0.603276
O O8 0.243706 0.168226 0.496716
O O9 0.190354 0.045767 0.603285
O O10 0.677908 0.774865 0.633627
O O11 0.317045 0.891413 0.750000
O O12 0.413677 0.025495 0.845455
O O13 0.492100 0.839477 0.250000
#
# Coordination Sequence:
#
# PCOD9581965 Si02
#       6
#    12  12  12  12  12  12
#     4  10  22  41  63  88 119 160 214 258 312 370
#     4  12  20  40  66 100 125 164 212 259 321 384
#     4  10  21  36  69  95 126 166 211 265 320 379
#     4  10  20  40  60  97 128 161 211 265 321 374
#     4  11  24  41  60  86 128 170 209 264 318 369
#     4  11  24  40  62  95 133 166 199 258 329 386
#
# _framework density 18.472643000000001
#
# number of rings (size 3 to 8) (size 9 to 14) (size 15 to 20)
#    0.333    1.000    5.000    1.167    0.000    4.000 
#    0.000    4.167    0.000    0.000    0.000    0.000 
#    0.000    0.000    0.000    0.000    0.000    0.000 
#
# Total GULP energy -401886.423589 kJ/mol
# GULP energy per Si atom -5581.755883 kJ/mol
# Density = 1.843060 g / cm^3
# Si number density = 18.472643 Si / 1000 Ang^3
#
#
#
# Elastic Constant Matrix: (Units=GPa)
#
#
# Indices 1 2 3 4 5 6 
#
# 1 43.0871 -17.1490 6.2532 0.0000 0.0000 0.0000
# 2 -17.1490 43.0871 6.2532 0.0000 0.0000 0.0000
# 3 6.2532 6.2532 58.2634 0.0000 0.0000 0.0000
# 4 0.0000 0.0000 0.0000 21.3774 0.0000 0.0000
# 5 0.0000 0.0000 0.0000 0.0000 21.3774 0.0000
# 6 0.0000 0.0000 0.0000 0.0000 0.0000 30.1180
#
#
#
# Elastic Compliance Matrix: (Units=1/GPa)
#
#
# Indices 1 2 3 4 5 6 
#
# 1 0.028629 0.012028 -0.004364 0.000000 0.000000 0.000000
# 2 0.012028 0.028629 -0.004364 0.000000 0.000000 0.000000
# 3 -0.004364 -0.004364 0.018100 0.000000 0.000000 0.000000
# 4 0.000000 0.000000 0.000000 0.046778 0.000000 0.000000
# 5 0.000000 0.000000 0.000000 0.000000 0.046778 0.000000
# 6 0.000000 0.000000 0.000000 0.000000 0.000000 0.033203
#
#
# Mechanical properties :
#
#
# Convention : Reuss Voigt Hill
#
# Bulk Modulus (GPa) = 12.20100 15.01691 13.60895
# Shear Modulus (GPa) = 22.43793 24.51323 23.47558
#
# Velocity S-wave (km/s) = 3.48897 3.64676 3.56874
# Velocity P-wave (km/s) = 4.78015 5.08711 4.93602
#
# Compressibility (1/GPa) = 0.08196048
#
# Stress axis : x y z
#
# Youngs Moduli (GPa) = 34.92917 34.92917 55.24832
#
# Poissons Ratio (x) = -0.42013 0.24108
# Poissons Ratio (y) = -0.42013 0.24108
# Poissons Ratio (z) = 0.15242 0.15242
#
# Static dielectric constant tensor:
#      x y z
#    x 1.627250 0.000000 0.000000 
#    y 0.000000 1.627250 0.000000 
#    z 0.000000 0.000000 1.616100 
# 
# From -- ./inp_files/3376.got.cif
#   From: 2010.05.17/outbox.cif.g08.bks.cpg/sg176_2_cif.got.tgz:3376.got - 2010.06.03 11:36:45.
