data_PCOD9581915
_publ_section_title
;
Structure prediction by ZEFSAII (Michael W. Deem and Ramdas Pophale) SiO2 
 PCOD9581915
Probable space group: P 63/M
;
_chemical_formula_sum "Si O2"
_cell_formula_units_Z 84
_cell_length_a 18.712993
_cell_length_b 18.712993
_cell_length_c 14.108273
_cell_angle_alpha 90.000000
_cell_angle_beta 90.000000
_cell_angle_gamma 120.000000
_cell_volume 4278.494685
_symmetry_space_group_name_H-M "P 63/M"
_symmetry_group_IT_number 176
_symmetry_cell_setting 'hexagonal'
loop_
_space_group_symop_operation_xyz
x,y,z
x-y,x,1/2+z
-y,x-y,z
-x,-y,1/2+z
-x+y,-x,z
y,-x+y,1/2+z
-x,-y,-z
-x+y,-x,1/2-z
y,-x+y,-z
x,y,1/2-z
x-y,x,-z
-y,x-y,1/2-z
loop_
_atom_site_type_symbol
_atom_site_label
_atom_site_fract_x
_atom_site_fract_y
_atom_site_fract_z
Si Si1 0.578171 0.501340 0.146417
Si Si2 0.069753 0.191126 0.503841
Si Si3 0.108600 0.447003 0.943016
Si Si4 0.642533 0.115597 0.647336
Si Si5 0.834839 0.672370 0.362126
Si Si6 0.665489 0.831516 0.143777
Si Si7 0.307862 0.383590 0.501789
O O1 0.617347 0.508840 0.250000
O O2 0.504066 0.409744 0.129609
O O3 0.544933 0.566610 0.146759
O O4 0.638608 0.530225 0.056480
O O5 0.124629 0.148402 0.511450
O O6 0.085102 0.246714 0.597414
O O7 0.106568 0.254992 0.417171
O O8 0.159004 0.405933 0.900479
O O9 0.146360 0.500330 0.039675
O O10 0.017767 0.370275 0.970301
O O11 0.635535 0.151556 0.750000
O O12 0.732878 0.124477 0.649586
O O13 0.827960 0.671860 0.250000
O O14 0.757983 0.670763 0.416602
O O15 0.685166 0.864809 0.250000
O O16 0.619272 0.871448 0.086074
#
# Coordination Sequence:
#
# PCOD9581915 Si02
#       7
#    12  12  12  12  12  12  12
#     4  10  21  35  58  88 122 154 188 239 297 352
#     4  11  24  41  57  80 114 158 208 259 317 373
#     4  11  20  37  56  88 120 152 193 245 299 358
#     4   9  17  32  53  81 112 147 187 232 288 346
#     4  11  22  36  59  86 116 151 199 252 306 366
#     4  10  21  36  58  85 116 153 199 252 301 360
#     4  10  20  35  55  84 118 153 192 236 297 358
#
# _framework density 19.633074000000001
#
# number of rings (size 3 to 8) (size 9 to 14) (size 15 to 20)
#    0.000    1.714    2.857    4.429    4.000    4.000 
#    0.000    0.714    0.000    2.286    0.000    2.000 
#    0.000    0.000    0.000    0.000    0.000    0.000 
#
# Total GULP energy -468130.405896 kJ/mol
# GULP energy per Si atom -5572.981023 kJ/mol
# Density = 1.958839 g / cm^3
# Si number density = 19.633074 Si / 1000 Ang^3
#
#
#
# Elastic Constant Matrix: (Units=GPa)
#
#
# Indices 1 2 3 4 5 6 
#
# 1 44.9436 13.2368 12.3088 0.0000 0.0000 0.0000
# 2 13.2368 44.9436 12.3088 0.0000 0.0000 0.0000
# 3 12.3088 12.3088 140.8205 0.0000 0.0000 0.0000
# 4 0.0000 0.0000 0.0000 7.3561 0.0000 0.0000
# 5 0.0000 0.0000 0.0000 0.0000 7.3561 0.0000
# 6 0.0000 0.0000 0.0000 0.0000 0.0000 15.8534
#
#
#
# Elastic Compliance Matrix: (Units=1/GPa)
#
#
# Indices 1 2 3 4 5 6 
#
# 1 0.024693 -0.006845 -0.001560 0.000000 0.000000 0.000000
# 2 -0.006845 0.024693 -0.001560 0.000000 0.000000 0.000000
# 3 -0.001560 -0.001560 0.007374 0.000000 0.000000 0.000000
# 4 0.000000 0.000000 0.000000 0.135941 0.000000 0.000000
# 5 0.000000 0.000000 0.000000 0.000000 0.135941 0.000000
# 6 0.000000 0.000000 0.000000 0.000000 0.000000 0.063078
#
#
# Mechanical properties :
#
#
# Convention : Reuss Voigt Hill
#
# Bulk Modulus (GPa) = 27.15193 34.04626 30.59910
# Shear Modulus (GPa) = 11.79443 18.97003 15.38223
#
# Velocity S-wave (km/s) = 2.45367 3.11179 2.80212
# Velocity P-wave (km/s) = 4.67836 5.50363 5.10769
#
# Compressibility (1/GPa) = 0.03682979
#
# Stress axis : x y z
#
# Youngs Moduli (GPa) = 40.49653 40.49653 135.61237
#
# Poissons Ratio (x) = 0.27722 0.21156
# Poissons Ratio (y) = 0.27722 0.21156
# Poissons Ratio (z) = 0.06318 0.06318
#
# Static dielectric constant tensor:
#      x y z
#    x 1.703980 0.000000 0.000000 
#    y 0.000000 1.703980 0.000000 
#    z 0.000000 0.000000 1.747460 
# 
# From -- ./inp_files/2919.got.cif
#   From: 2010.05.17/outbox.cif.g08.bks.cpg/sg176_2_cif.got.tgz:2919.got - 2010.06.03 11:36:45.
