data_PCOD9581872
_publ_section_title
;
Structure prediction by ZEFSAII (Michael W. Deem and Ramdas Pophale) SiO2 
 PCOD9581872
Probable space group: P 63/M
;
_chemical_formula_sum "Si O2"
_cell_formula_units_Z 78
_cell_length_a 24.311531
_cell_length_b 24.311531
_cell_length_c 7.846282
_cell_angle_alpha 90.000000
_cell_angle_beta 90.000000
_cell_angle_gamma 120.000000
_cell_volume 4016.235427
_symmetry_space_group_name_H-M "P 63/M"
_symmetry_group_IT_number 176
_symmetry_cell_setting 'hexagonal'
loop_
_space_group_symop_operation_xyz
x,y,z
x-y,x,1/2+z
-y,x-y,z
-x,-y,1/2+z
-x+y,-x,z
y,-x+y,1/2+z
-x,-y,-z
-x+y,-x,1/2-z
y,-x+y,-z
x,y,1/2-z
x-y,x,-z
-y,x-y,1/2-z
loop_
_atom_site_type_symbol
_atom_site_label
_atom_site_fract_x
_atom_site_fract_y
_atom_site_fract_z
Si Si1 0.507550 0.741810 0.053772
Si Si2 0.050973 0.250580 0.553187
Si Si3 0.434872 0.437607 0.545643
Si Si4 0.701451 0.091169 0.546126
Si Si5 0.090981 0.814326 0.548951
Si Si6 0.686353 0.273801 0.250000
Si Si7 0.298781 0.414809 0.542247
O O1 0.488298 0.723603 0.250000
O O2 0.568338 0.734006 0.016861
O O3 0.453827 0.700177 0.918602
O O4 0.532577 0.815704 0.024168
O O5 0.045727 0.231239 0.750000
O O6 0.062506 0.321801 0.540189
O O7 0.115680 0.256217 0.477941
O O8 0.982331 0.205428 0.472117
O O9 0.500000 0.500000 0.500000
O O10 0.432353 0.436370 0.750000
O O11 0.429314 0.371494 0.489265
O O12 0.369051 0.432175 0.485998
O O13 0.702632 0.080296 0.750000
O O14 0.105366 0.818240 0.750000
O O15 0.101109 0.756628 0.483893
O O16 0.732976 0.350233 0.250000
O O17 0.297696 0.414844 0.750000
#
# Coordination Sequence:
#
# PCOD9581872 Si02
#       7
#    12  12  12  12  12   6  12
#     4  11  23  40  69  95 119 165 211 260 321 384
#     4  11  22  35  61  94 123 165 210 256 314 381
#     4  10  22  39  56  83 123 163 198 247 312 371
#     4  10  21  38  59  88 124 159 202 254 311 368
#     4  10  21  38  60  88 128 167 203 262 317 375
#     4  10  26  48  66  88 120 158 214 272 330 374
#     4  10  19  37  61  86 125 165 202 251 317 374
#
# _framework density 19.421173
#
# number of rings (size 3 to 8) (size 9 to 14) (size 15 to 20)
#    0.154    1.538    3.846    0.462    1.077    4.923 
#    0.000    1.538    0.000    0.308    0.000    0.000 
#    0.000    0.000    0.000    0.000    0.000    0.000 
#
# Total GULP energy -435357.599376 kJ/mol
# GULP energy per Si atom -5581.507684 kJ/mol
# Density = 1.937697 g / cm^3
# Si number density = 19.421173 Si / 1000 Ang^3
#
#
#
# Elastic Constant Matrix: (Units=GPa)
#
#
# Indices 1 2 3 4 5 6 
#
# 1 83.0924 17.0127 -1.3500 0.0000 0.0000 0.0000
# 2 17.0127 83.0924 -1.3500 0.0000 0.0000 0.0000
# 3 -1.3500 -1.3500 14.2735 0.0000 0.0000 0.0000
# 4 0.0000 0.0000 0.0000 19.4365 0.0000 0.0000
# 5 0.0000 0.0000 0.0000 0.0000 19.4365 0.0000
# 6 0.0000 0.0000 0.0000 0.0000 0.0000 33.0399
#
#
#
# Elastic Compliance Matrix: (Units=1/GPa)
#
#
# Indices 1 2 3 4 5 6 
#
# 1 0.012574 -0.002559 0.000947 0.000000 0.000000 0.000000
# 2 -0.002559 0.012574 0.000947 0.000000 0.000000 0.000000
# 3 0.000947 0.000947 0.070239 0.000000 0.000000 0.000000
# 4 0.000000 0.000000 0.000000 0.051450 0.000000 0.000000
# 5 0.000000 0.000000 0.000000 0.000000 0.051450 0.000000
# 6 0.000000 0.000000 0.000000 0.000000 0.000000 0.030266
#
#
# Mechanical properties :
#
#
# Convention : Reuss Voigt Hill
#
# Bulk Modulus (GPa) = 10.63175 23.23154 16.93164
# Shear Modulus (GPa) = 19.13987 25.45895 22.29941
#
# Velocity S-wave (km/s) = 3.14270 3.62454 3.39219
# Velocity P-wave (km/s) = 4.31914 5.43179 4.90710
#
# Compressibility (1/GPa) = 0.09405790
#
# Stress axis : x y z
#
# Youngs Moduli (GPa) = 79.52830 79.52830 14.23713
#
# Poissons Ratio (x) = 0.20352 -0.01349
# Poissons Ratio (y) = 0.20352 -0.01349
# Poissons Ratio (z) = -0.07533 -0.07533
#
# Static dielectric constant tensor:
#      x y z
#    x 1.678870 0.000000 0.000000 
#    y 0.000000 1.678870 0.000000 
#    z 0.000000 0.000000 1.706600 
# 
# From -- ./inp_files/1278.got.cif
#   From: 2010.05.17/outbox.cif.g08.bks.cpg/sg176_1_cif.got.tgz:1278.got - 2010.06.03 11:36:45.
