data_PCOD9581070
_publ_section_title
;
Structure prediction by ZEFSAII (Michael W. Deem and Ramdas Pophale) SiO2 
 PCOD9581070
Probable space group: P 63
;
_chemical_formula_sum "Si O2"
_cell_formula_units_Z 48
_cell_length_a 14.574077
_cell_length_b 14.574077
_cell_length_c 12.585671
_cell_angle_alpha 90.000000
_cell_angle_beta 90.000000
_cell_angle_gamma 120.000000
_cell_volume 2315.096647
_symmetry_space_group_name_H-M "P 63"
_symmetry_group_IT_number 173
_symmetry_cell_setting 'hexagonal'
loop_
_space_group_symop_operation_xyz
x,y,z
x-y,x,1/2+z
-y,x-y,z
-x,-y,1/2+z
-x+y,-x,z
y,-x+y,1/2+z
loop_
_atom_site_type_symbol
_atom_site_label
_atom_site_fract_x
_atom_site_fract_y
_atom_site_fract_z
Si Si1 0.151135 0.693818 0.426420
Si Si2 0.893576 0.530422 0.967142
Si Si3 0.464364 0.331721 0.605212
Si Si4 0.743963 0.061032 0.164198
Si Si5 0.457317 0.306182 0.360651
Si Si6 0.668279 0.535636 0.681859
Si Si7 0.682931 0.938968 0.622873
Si Si8 0.469578 0.106424 0.319929
O O1 0.269039 0.791482 0.409957
O O2 0.135564 0.589541 0.485283
O O3 0.115458 0.656811 0.307559
O O4 0.089695 0.733688 0.501569
O O5 1.000000 0.593080 0.893535
O O6 0.895776 0.587638 0.077534
O O7 0.458647 0.343189 0.479512
O O8 0.549634 0.450366 0.643535
O O9 0.503058 0.251529 0.643535
O O10 0.341044 0.278927 0.640151
O O11 0.733688 0.089695 0.285502
O O12 0.870665 0.129335 0.143535
O O13 0.658956 0.937883 0.146920
O O14 0.477557 0.208518 0.377113
O O15 0.546022 0.410459 0.301788
O O16 0.587638 0.895776 0.709537
#
# Coordination Sequence:
#
# PCOD9581070 Si02
#       8
#     6   6   6   6   6   6   6   6
#     4  11  21  34  55  78 108 149 186 226 279 333
#     4  11  21  36  54  80 113 145 186 232 273 329
#     4  12  23  37  57  85 117 151 187 230 284 342
#     4  10  22  37  56  79 109 151 193 232 276 326
#     4  11  21  34  55  78 108 149 186 226 279 333
#     4  12  23  37  57  85 117 151 187 230 284 342
#     4  10  22  37  56  79 109 151 193 232 276 326
#     4  11  21  36  54  80 113 145 186 232 273 329
#
# _framework density 20.733477000000001
#
# number of rings (size 3 to 8) (size 9 to 14) (size 15 to 20)
#    0.000    1.000    0.000    9.750    0.000    0.000 
#    0.000    2.500    0.000    1.000    0.000    0.000 
#    0.000    0.000    0.000    0.000    0.000    0.000 
#
# Total GULP energy -267260.171522 kJ/mol
# GULP energy per Si atom -5567.920240 kJ/mol
# Density = 2.068629 g / cm^3
# Si number density = 20.733477 Si / 1000 Ang^3
#
#
#
# Elastic Constant Matrix: (Units=GPa)
#
#
# Indices 1 2 3 4 5 6 
#
# 1 77.6301 27.1302 0.8600 0.0000 0.0000 0.0000
# 2 27.1302 77.6301 0.8600 0.0000 0.0000 0.0000
# 3 0.8600 0.8600 101.1347 0.0000 0.0000 0.0000
# 4 0.0000 0.0000 0.0000 8.7826 0.0000 0.0000
# 5 0.0000 0.0000 0.0000 0.0000 8.7826 0.0000
# 6 0.0000 0.0000 0.0000 0.0000 0.0000 25.2500
#
#
#
# Elastic Compliance Matrix: (Units=1/GPa)
#
#
# Indices 1 2 3 4 5 6 
#
# 1 0.014674 -0.005128 -0.000081 0.000000 0.000000 0.000000
# 2 -0.005128 0.014674 -0.000081 0.000000 0.000000 0.000000
# 3 -0.000081 -0.000081 0.009889 0.000000 0.000000 0.000000
# 4 0.000000 0.000000 0.000000 0.113861 0.000000 0.000000
# 5 0.000000 0.000000 0.000000 0.000000 0.113861 0.000000
# 6 0.000000 0.000000 0.000000 0.000000 0.000000 0.039604
#
#
# Mechanical properties :
#
#
# Convention : Reuss Voigt Hill
#
# Bulk Modulus (GPa) = 34.89388 34.89948 34.89668
# Shear Modulus (GPa) = 15.30471 23.73270 19.51870
#
# Velocity S-wave (km/s) = 2.71987 3.38695 3.07157
# Velocity P-wave (km/s) = 5.17009 5.67135 5.42651
#
# Compressibility (1/GPa) = 0.02865832
#
# Stress axis : x y z
#
# Youngs Moduli (GPa) = 68.14558 68.14558 101.12058
#
# Poissons Ratio (x) = 0.34942 0.00821
# Poissons Ratio (y) = 0.34942 0.00821
# Poissons Ratio (z) = 0.00553 0.00553
#
# Static dielectric constant tensor:
#      x y z
#    x 1.817660 0.000000 0.000000 
#    y 0.000000 1.817660 0.000000 
#    z 0.000000 0.000000 1.791580 
# 
# From -- ./inp_files/932.got.cif
#   From: 2010.05.17/outbox.cif.g08.bks.cpg/sg173_cif.got.tgz:932.got - 2010.05.20 11:21:53.
