data_PCOD9581970
_publ_section_title
;
Structure prediction by ZEFSAII (Michael W. Deem and Ramdas Pophale) SiO2 
 PCOD9581970
Probable space group: P 63/M
;
_chemical_formula_sum "Si O2"
_cell_formula_units_Z 42
_cell_length_a 8.659057
_cell_length_b 8.659057
_cell_length_c 32.388878
_cell_angle_alpha 90.000000
_cell_angle_beta 90.000000
_cell_angle_gamma 120.000000
_cell_volume 2103.137816
_symmetry_space_group_name_H-M "P 63/M"
_symmetry_group_IT_number 176
_symmetry_cell_setting 'hexagonal'
loop_
_space_group_symop_operation_xyz
x,y,z
x-y,x,1/2+z
-y,x-y,z
-x,-y,1/2+z
-x+y,-x,z
y,-x+y,1/2+z
-x,-y,-z
-x+y,-x,1/2-z
y,-x+y,-z
x,y,1/2-z
x-y,x,-z
-y,x-y,1/2-z
loop_
_atom_site_type_symbol
_atom_site_label
_atom_site_fract_x
_atom_site_fract_y
_atom_site_fract_z
Si Si1 0.527753 0.425966 0.542597
Si Si2 0.559148 0.710058 0.750000
Si Si3 0.999111 0.680317 0.161988
Si Si4 0.352973 0.357803 0.871549
O O1 0.476132 0.218498 0.544866
O O2 0.500000 0.500000 0.500000
O O3 0.424463 0.432856 0.582553
O O4 0.478865 0.846072 0.750000
O O5 0.675371 0.728618 0.709826
O O6 0.815127 0.621324 0.138371
O O7 0.155579 0.857253 0.140716
O O8 0.044378 0.523611 0.156552
#
# Coordination Sequence:
#
# PCOD9581970 Si02
#       4
#    12   6  12  12
#     4  10  23  41  65 100 135 172 228 281 345 422
#     4  10  20  42  66 104 130 176 230 268 344 406
#     4  12  24  42  72  95 142 176 229 286 335 419
#     4  12  24  45  66 105 133 189 223 284 354 409
#
# _framework density 19.970161000000001
#
# number of rings (size 3 to 8) (size 9 to 14) (size 15 to 20)
#    0.857    0.000    5.714    1.714    4.000    2.286 
#    0.000    0.000    0.000    2.286    0.000    0.000 
#    0.000    0.000    0.000    0.000    0.000    0.000 
#
# Total GULP energy -233834.420529 kJ/mol
# GULP energy per Si atom -5567.486203 kJ/mol
# Density = 1.992471 g / cm^3
# Si number density = 19.970161 Si / 1000 Ang^3
#
#
#
# Elastic Constant Matrix: (Units=GPa)
#
#
# Indices 1 2 3 4 5 6 
#
# 1 47.9362 -6.6300 37.2279 0.0000 0.0000 0.0000
# 2 -6.6300 47.9362 37.2279 0.0000 0.0000 0.0000
# 3 37.2279 37.2279 195.9451 0.0000 0.0000 0.0000
# 4 0.0000 0.0000 0.0000 32.4767 0.0000 0.0000
# 5 0.0000 0.0000 0.0000 0.0000 32.4767 0.0000
# 6 0.0000 0.0000 0.0000 0.0000 0.0000 27.2831
#
#
#
# Elastic Compliance Matrix: (Units=1/GPa)
#
#
# Indices 1 2 3 4 5 6 
#
# 1 0.027572 0.009246 -0.006995 0.000000 0.000000 0.000000
# 2 0.009246 0.027572 -0.006995 0.000000 0.000000 0.000000
# 3 -0.006995 -0.006995 0.007762 0.000000 0.000000 0.000000
# 4 0.000000 0.000000 0.000000 0.030791 0.000000 0.000000
# 5 0.000000 0.000000 0.000000 0.000000 0.030791 0.000000
# 6 0.000000 0.000000 0.000000 0.000000 0.000000 0.036653
#
#
# Mechanical properties :
#
#
# Convention : Reuss Voigt Hill
#
# Bulk Modulus (GPa) = 18.72035 47.49659 33.10847
# Shear Modulus (GPa) = 26.53413 33.38006 29.95710
#
# Velocity S-wave (km/s) = 3.64907 4.09283 3.87731
# Velocity P-wave (km/s) = 5.21045 6.79488 6.05472
#
# Compressibility (1/GPa) = 0.05341781
#
# Stress axis : x y z
#
# Youngs Moduli (GPa) = 36.26804 36.26804 128.84044
#
# Poissons Ratio (x) = -0.33534 0.90127
# Poissons Ratio (y) = -0.33534 0.90127
# Poissons Ratio (z) = 0.25370 0.25370
#
# Static dielectric constant tensor:
#      x y z
#    x 1.738960 0.000000 0.000000 
#    y 0.000000 1.738960 0.000000 
#    z 0.000000 0.000000 1.786570 
# 
# From -- ./inp_files/4415.got.cif
#   From: 2010.05.17/outbox.cif.g08.bks.cpg/sg176_3_cif.got.tgz:4415.got - 2010.06.03 11:36:45.
