data_PCOD9581568
_publ_section_title
;
Structure prediction by ZEFSAII (Michael W. Deem and Ramdas Pophale) SiO2 
 PCOD9581568
Probable space group: P 6/M
;
_chemical_formula_sum "Si O2"
_cell_formula_units_Z 72
_cell_length_a 22.217104
_cell_length_b 22.217104
_cell_length_c 8.461221
_cell_angle_alpha 90.000000
_cell_angle_beta 90.000000
_cell_angle_gamma 120.000000
_cell_volume 3616.917196
_symmetry_space_group_name_H-M "P 6/M"
_symmetry_group_IT_number 175
_symmetry_cell_setting 'hexagonal'
loop_
_space_group_symop_operation_xyz
x,y,z
x-y,x,z
-y,x-y,z
-x,-y,z
-x+y,-x,z
y,-x+y,z
-x,-y,-z
-x+y,-x,-z
y,-x+y,-z
x,y,-z
x-y,x,-z
-y,x-y,-z
loop_
_atom_site_type_symbol
_atom_site_label
_atom_site_fract_x
_atom_site_fract_y
_atom_site_fract_z
Si Si1 0.164951 0.790743 0.315957
Si Si2 0.255647 0.273360 0.811218
Si Si3 0.021498 0.149754 0.309194
Si Si4 0.791655 0.309619 0.187448
Si Si5 0.642946 0.192423 0.313224
Si Si6 0.690866 0.094698 0.185563
O O1 0.181261 0.807934 0.500000
O O2 0.092073 0.783642 0.272120
O O3 0.163896 0.719289 0.275618
O O4 0.228393 0.847842 0.213347
O O5 0.217997 0.192761 0.762978
O O6 0.336684 0.313393 0.763580
O O7 0.252340 0.278784 0.000000
O O8 0.084141 0.137036 0.262733
O O9 0.022876 0.155420 0.500000
O O10 0.711511 0.256009 0.234135
O O11 0.810842 0.385888 0.241766
O O12 0.799824 0.307080 0.000000
O O13 0.646241 0.204728 0.500000
O O14 0.647849 0.123716 0.277455
O O15 0.674731 0.091302 0.000000
#
# Coordination Sequence:
#
# PCOD9581568 Si02
#       6
#    12  12  12  12  12  12
#     4  11  22  37  58  83 111 143 183 230 277 325
#     4  11  23  38  57  81 110 146 187 228 272 328
#     4  10  21  37  58  84 114 147 184 228 278 330
#     4  11  21  36  57  82 114 149 185 225 276 331
#     4  11  21  35  56  84 115 145 184 230 277 327
#     4  10  21  38  58  81 111 146 185 228 276 328
#
# _framework density 19.906452999999999
#
# number of rings (size 3 to 8) (size 9 to 14) (size 15 to 20)
#    0.000    1.333    0.000    9.000    0.000    6.667 
#    0.000    0.833    0.000    6.000    0.000    0.000 
#    0.000    0.000    0.000    0.000    0.000    0.000 
#
# Total GULP energy -402585.554775 kJ/mol
# GULP energy per Si atom -5591.466039 kJ/mol
# Density = 1.986115 g / cm^3
# Si number density = 19.906453 Si / 1000 Ang^3
#
#
#
# Elastic Constant Matrix: (Units=GPa)
#
#
# Indices 1 2 3 4 5 6 
#
# 1 47.4642 -11.4742 -7.6994 0.0000 0.0000 0.0000
# 2 -11.4742 47.4642 -7.6994 0.0000 0.0000 0.0000
# 3 -7.6994 -7.6994 35.7758 0.0000 0.0000 0.0000
# 4 0.0000 0.0000 0.0000 -43.5005 0.0000 0.0000
# 5 0.0000 0.0000 0.0000 0.0000 -43.5005 0.0000
# 6 0.0000 0.0000 0.0000 0.0000 0.0000 29.4692
#
#
#
# Elastic Compliance Matrix: (Units=1/GPa)
#
#
# Indices 1 2 3 4 5 6 
#
# 1 0.023785 0.006818 0.006586 0.000000 0.000000 0.000000
# 2 0.006818 0.023785 0.006586 0.000000 0.000000 0.000000
# 3 0.006586 0.006586 0.030787 0.000000 0.000000 0.000000
# 4 0.000000 0.000000 0.000000 -0.022988 0.000000 0.000000
# 5 0.000000 0.000000 0.000000 0.000000 -0.022988 0.000000
# 6 0.000000 0.000000 0.000000 0.000000 0.000000 0.033934
#
#
# Mechanical properties :
#
#
# Convention : Reuss Voigt Hill
#
# Bulk Modulus (GPa) = 8.45029 8.55088 8.50058
# Shear Modulus (GPa) = 76.01222 -1.00121 37.50550
#
# Velocity S-wave (km/s) = 6.18608 -0.70996 4.34532
# Velocity P-wave (km/s) = 7.43490 1.90599 5.42727
#
# Compressibility (1/GPa) = 0.11833919
#
# Stress axis : x y z
#
# Youngs Moduli (GPa) = 42.04290 42.04290 32.48150
#
# Poissons Ratio (x) = -0.28666 -0.21393
# Poissons Ratio (y) = -0.28666 -0.21393
# Poissons Ratio (z) = -0.27691 -0.27691
#
# Static dielectric constant tensor:
#      x y z
#    x 1.699620 0.000000 0.000000 
#    y 0.000000 1.699620 0.000000 
#    z 0.000000 0.000000 1.669890 
# 
# From -- ./inp_files/1229.got.cif
#   From: 2010.05.17/outbox.cif.g08.bks.cpg/sg175_1_cif.got.tgz:1229.got - 2010.05.20 11:23:22.
