data_PCOD9581549
_publ_section_title
;
Structure prediction by ZEFSAII (Michael W. Deem and Ramdas Pophale) SiO2 
 PCOD9581549
Probable space group: P 6/M
;
_chemical_formula_sum "Si O2"
_cell_formula_units_Z 76
_cell_length_a 18.700371
_cell_length_b 18.700371
_cell_length_c 14.149622
_cell_angle_alpha 90.000000
_cell_angle_beta 90.000000
_cell_angle_gamma 120.000000
_cell_volume 4285.247548
_symmetry_space_group_name_H-M "P 6/M"
_symmetry_group_IT_number 175
_symmetry_cell_setting 'hexagonal'
loop_
_space_group_symop_operation_xyz
x,y,z
x-y,x,z
-y,x-y,z
-x,-y,z
-x+y,-x,z
y,-x+y,z
-x,-y,-z
-x+y,-x,-z
y,-x+y,-z
x,y,-z
x-y,x,-z
-y,x-y,-z
loop_
_atom_site_type_symbol
_atom_site_label
_atom_site_fract_x
_atom_site_fract_y
_atom_site_fract_z
Si Si1 0.296488 0.329424 0.895523
Si Si2 0.333334 0.666668 0.384611
Si Si3 0.356596 0.209127 0.893309
Si Si4 0.016716 0.592024 0.719562
Si Si5 0.131194 0.937690 0.385818
Si Si6 0.305806 0.492025 0.390420
Si Si7 0.128277 0.379438 0.685092
O O1 0.292192 0.241849 0.891404
O O2 0.208038 0.320526 0.882873
O O3 0.360656 0.388016 0.818076
O O4 0.326816 0.364445 0.000000
O O5 0.333334 0.666668 0.500000
O O6 0.327165 0.581724 0.353560
O O7 0.404158 0.246259 0.794827
O O8 0.395694 0.232172 0.000000
O O9 0.100949 0.644775 0.663570
O O10 0.000000 0.500000 0.731408
O O11 0.941791 0.596295 0.668352
O O12 0.140650 0.933332 0.500000
O O13 0.190393 0.909024 0.334411
O O14 0.033773 0.874520 0.364129
O O15 0.328301 0.500316 0.500000
O O16 0.208523 0.430216 0.378065
#
# Coordination Sequence:
#
# PCOD9581549 Si02
#       7
#    12   4  12  12  12  12  12
#     4   9  18  35  58  83 112 145 183 227 275 331
#     4   9  21  39  57  75 103 146 190 228 279 345
#     4   9  18  33  54  80 108 143 182 220 268 324
#     4  11  23  37  56  85 113 140 182 233 287 335
#     4  10  21  36  55  80 113 151 189 230 274 323
#     4  11  22  38  57  79 109 148 187 228 281 334
#     4  11  21  35  56  83 110 143 185 231 275 330
#
# _framework density 17.735264999999998
#
# number of rings (size 3 to 8) (size 9 to 14) (size 15 to 20)
#    0.000    1.895    1.579    2.526    2.211    3.789 
#    0.000    0.000    0.000    0.316    0.000    3.316 
#    0.000    0.000    0.000    0.000    0.000    0.000 
#
# Total GULP energy -423414.675391 kJ/mol
# GULP energy per Si atom -5571.245729 kJ/mol
# Density = 1.769490 g / cm^3
# Si number density = 17.735265 Si / 1000 Ang^3
#
#
#
# Elastic Constant Matrix: (Units=GPa)
#
#
# Indices 1 2 3 4 5 6 
#
# 1 91.2800 95.4584 34.0906 0.0000 0.0000 0.0016
# 2 95.4584 91.2875 34.0910 0.0000 0.0000 0.0001
# 3 34.0906 34.0910 57.6177 0.0000 0.0000 0.0000
# 4 0.0000 0.0000 0.0000 16.0676 -0.0001 0.0000
# 5 0.0000 0.0000 0.0000 -0.0001 16.0670 0.0000
# 6 0.0016 0.0001 0.0000 0.0000 0.0000 -2.0856
#
#
#
# Elastic Compliance Matrix: (Units=1/GPa)
#
#
# Indices 1 2 3 4 5 6 
#
# 1 -0.116361 0.123186 -0.004039 0.000000 0.000000 -0.000087
# 2 0.123186 -0.116349 -0.004044 0.000000 0.000000 0.000093
# 3 -0.004039 -0.004044 0.022138 0.000000 0.000000 -0.000004
# 4 0.000000 0.000000 0.000000 0.062237 0.000001 0.000000
# 5 0.000000 0.000000 0.000000 0.000001 0.062239 0.000000
# 6 -0.000087 0.000093 -0.000004 0.000000 0.000000 -0.479489
#
#
# Mechanical properties :
#
#
# Convention : Reuss Voigt Hill
#
# Bulk Modulus (GPa) = 50.93328 63.05166 56.99247
# Shear Modulus (GPa) = -6.33516 11.11283 2.38884
#
# Velocity S-wave (km/s) = -1.89204 2.50590 1.16184
# Velocity P-wave (km/s) = 4.89979 6.63336 5.83135
#
# Compressibility (1/GPa) = 0.01963353
#
# Stress axis : x y z
#
# Youngs Moduli (GPa) = -8.59395 -8.59480 45.17078
#
# Poissons Ratio (x) = 1.05876 0.18244
# Poissons Ratio (y) = 1.05865 0.18267
# Poissons Ratio (z) = -0.03471 -0.03476
#
# Static dielectric constant tensor:
#      x y z
#    x 1.590840 0.000000 0.000000 
#    y 0.000000 1.590840 0.000000 
#    z 0.000000 0.000000 1.652510 
# 
# From -- ./inp_files/2560.got.cif
#   From: 2010.05.17/outbox.cif.g08.bks.cpg/sg175_2_cif.got.tgz:2560.got - 2010.05.20 11:23:22.
