data_PCOD9581862
_publ_section_title
;
Structure prediction by ZEFSAII (Michael W. Deem and Ramdas Pophale) SiO2 
 PCOD9581862
Probable space group: P 63/M
;
_chemical_formula_sum "Si O2"
_cell_formula_units_Z 52
_cell_length_a 14.499495
_cell_length_b 14.499495
_cell_length_c 15.265032
_cell_angle_alpha 90.000000
_cell_angle_beta 90.000000
_cell_angle_gamma 120.000000
_cell_volume 2779.291530
_symmetry_space_group_name_H-M "P 63/M"
_symmetry_group_IT_number 176
_symmetry_cell_setting 'hexagonal'
loop_
_space_group_symop_operation_xyz
x,y,z
x-y,x,1/2+z
-y,x-y,z
-x,-y,1/2+z
-x+y,-x,z
y,-x+y,1/2+z
-x,-y,-z
-x+y,-x,1/2-z
y,-x+y,-z
x,y,1/2-z
x-y,x,-z
-y,x-y,1/2-z
loop_
_atom_site_type_symbol
_atom_site_label
_atom_site_fract_x
_atom_site_fract_y
_atom_site_fract_z
Si Si1 0.426404 0.909416 0.931131
Si Si2 0.240529 0.126525 0.348888
Si Si3 0.183089 0.750977 0.971487
Si Si4 0.308322 0.370481 0.346559
Si Si5 0.000000 0.000000 0.895458
O O1 0.308764 0.832136 0.968433
O O2 0.486949 0.843486 0.919530
O O3 0.409987 0.975593 0.854399
O O4 0.500000 0.000000 0.000000
O O5 0.274432 0.118590 0.250000
O O6 0.319355 0.124541 0.421188
O O7 0.250278 0.242556 0.356132
O O8 0.118775 0.038262 0.363115
O O9 0.141014 0.723945 0.071087
O O10 0.284393 0.396571 0.250000
O O11 0.000000 0.000000 0.000000
#
# Coordination Sequence:
#
# PCOD9581862 Si02
#       5
#    12  12  12  12   4
#     4   9  19  34  55  80 109 144 188 235 278 332
#     4  10  21  35  53  79 110 144 186 229 272 328
#     4  10  19  36  57  80 110 149 187 231 284 332
#     4   9  19  36  55  78 109 143 182 230 281 337
#     4  12  22  35  55  81 115 152 182 221 274 339
#
# _framework density 18.709803999999998
#
# number of rings (size 3 to 8) (size 9 to 14) (size 15 to 20)
#    0.000    2.308    0.000    2.538    0.000    4.615 
#    0.000    4.615    0.000    2.769    0.000    0.000 
#    0.000    0.000    0.000    0.000    0.000    0.000 
#
# Total GULP energy -289910.448261 kJ/mol
# GULP energy per Si atom -5575.200928 kJ/mol
# Density = 1.866722 g / cm^3
# Si number density = 18.709804 Si / 1000 Ang^3
#
#
#
# Elastic Constant Matrix: (Units=GPa)
#
#
# Indices 1 2 3 4 5 6 
#
# 1 89.9116 36.3658 35.5977 0.0000 0.0000 0.0000
# 2 36.3658 89.9116 35.5977 0.0000 0.0000 0.0000
# 3 35.5977 35.5977 89.8809 0.0000 0.0000 0.0000
# 4 0.0000 0.0000 0.0000 9.2059 0.0000 0.0000
# 5 0.0000 0.0000 0.0000 0.0000 9.2059 0.0000
# 6 0.0000 0.0000 0.0000 0.0000 0.0000 26.7729
#
#
#
# Elastic Compliance Matrix: (Units=1/GPa)
#
#
# Indices 1 2 3 4 5 6 
#
# 1 0.014436 -0.004240 -0.004038 0.000000 0.000000 0.000000
# 2 -0.004240 0.014436 -0.004038 0.000000 0.000000 0.000000
# 3 -0.004038 -0.004038 0.014324 0.000000 0.000000 0.000000
# 4 0.000000 0.000000 0.000000 0.108626 0.000000 0.000000
# 5 0.000000 0.000000 0.000000 0.000000 0.108626 0.000000
# 6 0.000000 0.000000 0.000000 0.000000 0.000000 0.037351
#
#
# Mechanical properties :
#
#
# Convention : Reuss Voigt Hill
#
# Bulk Modulus (GPa) = 53.86873 53.86960 53.86916
# Shear Modulus (GPa) = 15.21518 19.84648 17.53083
#
# Velocity S-wave (km/s) = 2.85479 3.26045 3.06434
# Velocity P-wave (km/s) = 6.30243 6.55963 6.43232
#
# Compressibility (1/GPa) = 0.01856364
#
# Stress axis : x y z
#
# Youngs Moduli (GPa) = 69.27292 69.27292 69.81088
#
# Poissons Ratio (x) = 0.29371 0.28190
# Poissons Ratio (y) = 0.29371 0.28190
# Poissons Ratio (z) = 0.27973 0.27973
#
# Static dielectric constant tensor:
#      x y z
#    x 1.657770 0.000000 0.000000 
#    y 0.000000 1.657770 0.000000 
#    z 0.000000 0.000000 1.650910 
# 
# From -- ./inp_files/2570.got.cif
#   From: 2010.05.17/outbox.cif.g08.bks.cpg/sg176_2_cif.got.tgz:2570.got - 2010.06.03 11:36:45.
