data_PCOD9581188
_publ_section_title
;
Structure prediction by ZEFSAII (Michael W. Deem and Ramdas Pophale) SiO2 
 PCOD9581188
Probable space group: P -6
;
_chemical_formula_sum "Si O2"
_cell_formula_units_Z 20
_cell_length_a 11.680174
_cell_length_b 11.680174
_cell_length_c 8.579021
_cell_angle_alpha 90.000000
_cell_angle_beta 90.000000
_cell_angle_gamma 120.000000
_cell_volume 1013.600900
_symmetry_space_group_name_H-M "P -6"
_symmetry_group_IT_number 174
_symmetry_cell_setting 'hexagonal'
loop_
_space_group_symop_operation_xyz
x,y,z
-x+y,-x,-z
-y,x-y,z
x,y,-z
-x+y,-x,z
-y,x-y,-z
loop_
_atom_site_type_symbol
_atom_site_label
_atom_site_fract_x
_atom_site_fract_y
_atom_site_fract_z
Si Si1 0.666667 0.333335 0.310880
Si Si2 0.825932 0.638722 0.311812
Si Si3 0.087667 0.414780 0.314035
Si Si4 0.078392 0.660946 0.816520
O O1 0.666667 0.333334 0.500000
O O2 0.747476 0.484928 0.261686
O O3 0.839117 0.644064 0.500000
O O4 0.729084 0.694550 0.270582
O O5 0.969539 0.699016 0.237585
O O6 0.106252 0.417233 0.500000
O O7 0.053111 0.528079 0.270527
O O8 0.220823 0.443037 0.229785
O O9 0.069472 0.637356 0.000000
#
# Coordination Sequence:
#
# PCOD9581188 Si02
#       4
#     2   6   6   6
#     4   9  15  33  64  95 118 141 193 254 295 342
#     4  10  20  39  66  92 118 156 205 253 297 360
#     4  11  23  42  67  90 119 164 216 255 292 359
#     4  12  25  40  61  93 131 161 196 254 320 369
#
# _framework density 19.731632000000001
#
# number of rings (size 3 to 8) (size 9 to 14) (size 15 to 20)
#    0.000    1.200    3.000    4.200    0.000    2.400 
#    1.800    0.000    0.000    0.000    0.000    0.000 
#    0.000    0.000    0.000    0.000    0.000    0.000 
#
# Total GULP energy -111787.156824 kJ/mol
# GULP energy per Si atom -5589.357841 kJ/mol
# Density = 1.968672 g / cm^3
# Si number density = 19.731632 Si / 1000 Ang^3
#
#
#
# Elastic Constant Matrix: (Units=GPa)
#
#
# Indices 1 2 3 4 5 6 
#
# 1 62.9046 -5.7426 -2.3941 0.0000 0.0000 -0.0001
# 2 -5.7426 62.9058 -2.3940 0.0000 0.0000 -0.0001
# 3 -2.3941 -2.3940 23.5366 0.0000 0.0000 -0.0002
# 4 0.0000 0.0000 0.0000 -8.8420 -0.0002 0.0000
# 5 0.0000 0.0000 0.0000 -0.0002 -8.8435 0.0000
# 6 -0.0001 -0.0001 -0.0002 0.0000 0.0000 34.3235
#
#
#
# Elastic Compliance Matrix: (Units=1/GPa)
#
#
# Indices 1 2 3 4 5 6 
#
# 1 0.016106 0.001539 0.001795 0.000000 0.000000 0.000000
# 2 0.001539 0.016106 0.001795 0.000000 0.000000 0.000000
# 3 0.001795 0.001795 0.042852 0.000000 0.000000 0.000000
# 4 0.000000 0.000000 0.000000 -0.113097 0.000003 0.000000
# 5 0.000000 0.000000 0.000000 0.000003 -0.113078 0.000000
# 6 0.000000 0.000000 0.000000 0.000000 0.000000 0.029135
#
#
# Mechanical properties :
#
#
# Convention : Reuss Voigt Hill
#
# Bulk Modulus (GPa) = 11.72063 14.25395 12.98729
# Shear Modulus (GPa) = -48.17288 13.98612 -17.09338
#
# Velocity S-wave (km/s) = -4.94642 2.66525 -2.94648
# Velocity P-wave (km/s) = 5.16428 4.08791 2.23146
#
# Compressibility (1/GPa) = 0.08531964
#
# Stress axis : x y z
#
# Youngs Moduli (GPa) = 62.08920 62.09045 23.33603
#
# Poissons Ratio (x) = -0.09553 -0.04188
# Poissons Ratio (y) = -0.09553 -0.04188
# Poissons Ratio (z) = -0.11143 -0.11143
#
# Static dielectric constant tensor:
#      x y z
#    x 1.672810 0.000000 0.000000 
#    y 0.000000 1.672800 0.000000 
#    z 0.000000 0.000000 1.662790 
# 
# From -- ./inp_files/149.got.cif
#   From: 2010.05.17/outbox.cif.g08.bks.cpg/sg174_cif.got.tgz:149.got - 2010.05.20 11:22:48.
