data_PCOD9581472
_publ_section_title
;
Structure prediction by ZEFSAII (Michael W. Deem and Ramdas Pophale) SiO2 
 PCOD9581472
Probable space group: P 6/M
;
_chemical_formula_sum "Si O2"
_cell_formula_units_Z 60
_cell_length_a 17.053218
_cell_length_b 17.053218
_cell_length_c 12.577272
_cell_angle_alpha 90.000000
_cell_angle_beta 90.000000
_cell_angle_gamma 120.000000
_cell_volume 3167.595904
_symmetry_space_group_name_H-M "P 6/M"
_symmetry_group_IT_number 175
_symmetry_cell_setting 'hexagonal'
loop_
_space_group_symop_operation_xyz
x,y,z
x-y,x,z
-y,x-y,z
-x,-y,z
-x+y,-x,z
y,-x+y,z
-x,-y,-z
-x+y,-x,-z
y,-x+y,-z
x,y,-z
x-y,x,-z
-y,x-y,-z
loop_
_atom_site_type_symbol
_atom_site_label
_atom_site_fract_x
_atom_site_fract_y
_atom_site_fract_z
Si Si1 0.805088 0.963050 0.629171
Si Si2 0.291171 0.829623 0.766602
Si Si3 0.870213 0.375319 0.000000
Si Si4 0.709526 0.171687 0.000000
Si Si5 0.347728 0.997004 0.373395
Si Si6 0.375010 0.503207 0.232171
O O1 0.822525 0.883795 0.666278
O O2 0.808938 0.963028 0.500000
O O3 0.709145 0.953428 0.655854
O O4 0.294415 0.897165 0.676711
O O5 0.213955 0.725474 0.752900
O O6 0.390640 0.839102 0.764386
O O7 0.276822 0.860000 0.884580
O O8 0.914262 0.380537 0.885768
O O9 0.777236 0.279799 0.000000
O O10 0.848597 0.456029 0.000000
O O11 0.353027 0.992802 0.500000
O O12 0.445093 0.053907 0.319335
#
# Coordination Sequence:
#
# PCOD9581472 Si02
#       6
#    12  12   6   6  12  12
#     4   9  17  31  52  75  97 124 162 207 252 297
#     4  10  20  35  55  77 102 133 171 214 260 311
#     4   8  15  29  51  77 100 124 160 211 266 311
#     4   8  15  29  51  77 100 124 160 211 266 311
#     4  11  23  36  49  71 107 145 174 206 252 301
#     4  10  20  35  55  77 102 133 171 214 260 311
#
# _framework density 18.941811000000001
#
# number of rings (size 3 to 8) (size 9 to 14) (size 15 to 20)
#    0.000    2.400    0.000    2.600    0.000    8.800 
#    0.000    3.000    0.000    2.400    0.000    0.000 
#    0.000    0.000    0.000   15.200    0.000    4.800 
#
# Total GULP energy -334557.883691 kJ/mol
# GULP energy per Si atom -5575.964728 kJ/mol
# Density = 1.889870 g / cm^3
# Si number density = 18.941811 Si / 1000 Ang^3
#
#
#
# Elastic Constant Matrix: (Units=GPa)
#
#
# Indices 1 2 3 4 5 6 
#
# 1 55.1454 16.3518 20.5917 0.0000 0.0000 0.0000
# 2 16.3518 55.1454 20.5917 0.0000 0.0000 0.0000
# 3 20.5917 20.5917 94.9467 0.0000 0.0000 0.0000
# 4 0.0000 0.0000 0.0000 15.7652 0.0000 0.0000
# 5 0.0000 0.0000 0.0000 0.0000 15.7652 0.0000
# 6 0.0000 0.0000 0.0000 0.0000 0.0000 19.3968
#
#
#
# Elastic Compliance Matrix: (Units=1/GPa)
#
#
# Indices 1 2 3 4 5 6 
#
# 1 0.020880 -0.004897 -0.003466 0.000000 0.000000 0.000000
# 2 -0.004897 0.020880 -0.003466 0.000000 0.000000 0.000000
# 3 -0.003466 -0.003466 0.012036 0.000000 0.000000 0.000000
# 4 0.000000 0.000000 0.000000 0.063431 0.000000 0.000000
# 5 0.000000 0.000000 0.000000 0.000000 0.063431 0.000000
# 6 0.000000 0.000000 0.000000 0.000000 0.000000 0.051555
#
#
# Mechanical properties :
#
#
# Convention : Reuss Voigt Hill
#
# Bulk Modulus (GPa) = 33.18209 35.58974 34.38591
# Shear Modulus (GPa) = 18.80278 20.03227 19.41753
#
# Velocity S-wave (km/s) = 3.15407 3.25556 3.20521
# Velocity P-wave (km/s) = 5.55159 5.74119 5.64719
#
# Compressibility (1/GPa) = 0.03013674
#
# Stress axis : x y z
#
# Youngs Moduli (GPa) = 47.89189 47.89189 83.08564
#
# Poissons Ratio (x) = 0.23453 0.28801
# Poissons Ratio (y) = 0.23453 0.28801
# Poissons Ratio (z) = 0.16601 0.16601
#
# Static dielectric constant tensor:
#      x y z
#    x 1.659470 0.000000 0.000000 
#    y 0.000000 1.659470 0.000000 
#    z 0.000000 0.000000 1.682240 
# 
# From -- ./inp_files/1841.got.cif
#   From: 2010.05.17/outbox.cif.g08.bks.cpg/sg175_1_cif.got.tgz:1841.got - 2010.05.20 11:23:22.
