data_PCOD9581816
_publ_section_title
;
Structure prediction by ZEFSAII (Michael W. Deem and Ramdas Pophale) SiO2 
 PCOD9581816
Probable space group: P 63/M
;
_chemical_formula_sum "Si O2"
_cell_formula_units_Z 76
_cell_length_a 17.686033
_cell_length_b 17.686033
_cell_length_c 14.165672
_cell_angle_alpha 90.000000
_cell_angle_beta 90.000000
_cell_angle_gamma 120.000000
_cell_volume 3837.325816
_symmetry_space_group_name_H-M "P 63/M"
_symmetry_group_IT_number 176
_symmetry_cell_setting 'hexagonal'
loop_
_space_group_symop_operation_xyz
x,y,z
x-y,x,1/2+z
-y,x-y,z
-x,-y,1/2+z
-x+y,-x,z
y,-x+y,1/2+z
-x,-y,-z
-x+y,-x,1/2-z
y,-x+y,-z
x,y,1/2-z
x-y,x,-z
-y,x-y,1/2-z
loop_
_atom_site_type_symbol
_atom_site_label
_atom_site_fract_x
_atom_site_fract_y
_atom_site_fract_z
Si Si1 0.333334 0.666668 0.861081
Si Si2 0.459675 0.483199 0.642837
Si Si3 0.865646 0.400213 0.544104
Si Si4 0.708274 0.698974 0.355515
Si Si5 0.861755 0.654091 0.357717
Si Si6 0.774642 0.497541 0.012099
Si Si7 0.158722 0.965161 0.511241
O O1 0.333334 0.666668 0.750000
O O2 0.280534 0.570056 0.904358
O O3 0.453642 0.508878 0.750000
O O4 0.555259 0.500284 0.616751
O O5 0.431240 0.525723 0.560963
O O6 0.390026 0.379794 0.632713
O O7 0.808961 0.296070 0.543091
O O8 0.806361 0.445243 0.554127
O O9 0.717779 0.735149 0.250000
O O10 0.771168 0.656639 0.360798
O O11 0.743093 0.774476 0.431899
O O12 0.875424 0.635157 0.250000
O O13 0.848937 0.581979 0.434817
O O14 0.935439 0.749108 0.393290
O O15 0.060247 0.891685 0.486214
#
# Coordination Sequence:
#
# PCOD9581816 Si02
#       7
#     4  12  12  12  12  12  12
#     4   9  18  27  45  78 109 140 178 222 279 336
#     4  10  20  37  58  82 112 153 195 235 278 331
#     4  10  21  35  57  84 115 150 193 234 281 338
#     4   9  18  34  56  78 105 145 185 225 277 338
#     4  10  19  32  52  77 106 142 183 226 283 339
#     4  10  19  33  52  78 114 147 182 232 285 331
#     4  10  21  36  55  79 107 141 183 235 289 346
#
# _framework density 19.805458999999999
#
# number of rings (size 3 to 8) (size 9 to 14) (size 15 to 20)
#    0.000    2.211    1.579    1.895    0.000    3.789 
#    0.000    0.789    0.000    2.842    0.000    0.000 
#    0.000    0.000    0.000    0.000    0.000    0.000 
#
# Total GULP energy -424080.981342 kJ/mol
# GULP energy per Si atom -5580.012912 kJ/mol
# Density = 1.976038 g / cm^3
# Si number density = 19.805459 Si / 1000 Ang^3
#
#
#
# Elastic Constant Matrix: (Units=GPa)
#
#
# Indices 1 2 3 4 5 6 
#
# 1 39.0840 4.6769 3.7318 0.0000 0.0000 0.0004
# 2 4.6769 39.0836 3.7319 0.0000 0.0000 -0.0009
# 3 3.7318 3.7319 37.2898 0.0000 0.0000 0.0000
# 4 0.0000 0.0000 0.0000 11.7907 0.0000 0.0000
# 5 0.0000 0.0000 0.0000 0.0000 11.7909 0.0000
# 6 0.0004 -0.0009 0.0000 0.0000 0.0000 17.2035
#
#
#
# Elastic Compliance Matrix: (Units=1/GPa)
#
#
# Indices 1 2 3 4 5 6 
#
# 1 0.026156 -0.002908 -0.002327 0.000000 0.000000 -0.000001
# 2 -0.002908 0.026156 -0.002327 0.000000 0.000000 0.000001
# 3 -0.002327 -0.002327 0.027283 0.000000 0.000000 0.000000
# 4 0.000000 0.000000 0.000000 0.084813 0.000000 0.000000
# 5 0.000000 0.000000 0.000000 0.000000 0.084811 0.000000
# 6 -0.000001 0.000001 0.000000 0.000000 0.000000 0.058128
#
#
# Mechanical properties :
#
#
# Convention : Reuss Voigt Hill
#
# Bulk Modulus (GPa) = 15.51040 15.52652 15.51846
# Shear Modulus (GPa) = 14.53656 15.04478 14.79067
#
# Velocity S-wave (km/s) = 2.71212 2.75913 2.73572
# Velocity P-wave (km/s) = 4.20189 4.24345 4.22272
#
# Compressibility (1/GPa) = 0.06447286
#
# Stress axis : x y z
#
# Youngs Moduli (GPa) = 38.23211 38.23174 36.65333
#
# Poissons Ratio (x) = 0.11117 0.08528
# Poissons Ratio (y) = 0.11117 0.08528
# Poissons Ratio (z) = 0.08895 0.08895
#
# Static dielectric constant tensor:
#      x y z
#    x 1.726770 0.000000 0.000000 
#    y 0.000000 1.726770 0.000000 
#    z 0.000000 0.000000 1.669960 
# 
# From -- ./inp_files/2843.got.cif
#   From: 2010.05.17/outbox.cif.g08.bks.cpg/sg176_2_cif.got.tgz:2843.got - 2010.06.03 11:36:45.
