data_PCOD9581957
_publ_section_title
;
Structure prediction by ZEFSAII (Michael W. Deem and Ramdas Pophale) SiO2 
 PCOD9581957
Probable space group: P 63/M
;
_chemical_formula_sum "Si O2"
_cell_formula_units_Z 84
_cell_length_a 17.575193
_cell_length_b 17.575193
_cell_length_c 14.133297
_cell_angle_alpha 90.000000
_cell_angle_beta 90.000000
_cell_angle_gamma 120.000000
_cell_volume 3780.718330
_symmetry_space_group_name_H-M "P 63/M"
_symmetry_group_IT_number 176
_symmetry_cell_setting 'hexagonal'
loop_
_space_group_symop_operation_xyz
x,y,z
x-y,x,1/2+z
-y,x-y,z
-x,-y,1/2+z
-x+y,-x,z
y,-x+y,1/2+z
-x,-y,-z
-x+y,-x,1/2-z
y,-x+y,-z
x,y,1/2-z
x-y,x,-z
-y,x-y,1/2-z
loop_
_atom_site_type_symbol
_atom_site_label
_atom_site_fract_x
_atom_site_fract_y
_atom_site_fract_z
Si Si1 0.293922 0.939475 0.496476
Si Si2 0.631164 0.455556 0.934609
Si Si3 0.194522 0.486471 0.144102
Si Si4 0.890390 0.088505 0.030472
Si Si5 0.475243 0.824518 0.854327
Si Si6 0.438844 0.986287 0.640951
Si Si7 0.086442 0.760605 0.854867
O O1 0.316189 0.881878 0.429218
O O2 0.189139 0.898950 0.492691
O O3 0.341536 0.946720 0.595569
O O4 0.327850 0.031342 0.443974
O O5 0.723328 0.521892 0.887404
O O6 0.585622 0.368438 0.872068
O O7 0.571698 0.500940 0.923197
O O8 0.647252 0.436026 0.042149
O O9 0.166927 0.457547 0.250000
O O10 0.905117 0.144216 0.127174
O O11 0.982838 0.133360 0.973485
O O12 0.436791 0.785657 0.750000
O O13 0.473456 0.916546 0.856888
O O14 0.572688 0.835160 0.855068
O O15 0.440828 0.013537 0.750000
O O16 0.046027 0.730222 0.750000
#
# Coordination Sequence:
#
# PCOD9581957 Si02
#       7
#    12  12  12  12  12  12  12
#     4  11  22  39  64  98 128 170 225 290 348 416
#     4  12  23  43  60  93 134 177 220 275 330 402
#     4  12  25  39  61  91 131 182 226 273 333 408
#     4  10  23  43  67  94 131 180 232 295 368 428
#     4  10  20  38  67  99 130 172 221 275 347 416
#     4  11  22  39  67  99 133 174 222 282 349 417
#     4  10  20  38  64  94 129 167 216 277 346 420
#
# _framework density 22.218001999999998
#
# number of rings (size 3 to 8) (size 9 to 14) (size 15 to 20)
#    0.000    1.143    2.857    4.286    2.000    1.714 
#    0.000    5.000    0.000    0.000    0.000    0.000 
#    0.000    0.000    0.000    0.000    0.000    0.000 
#
# Total GULP energy -467953.548020 kJ/mol
# GULP energy per Si atom -5570.875572 kJ/mol
# Density = 2.216743 g / cm^3
# Si number density = 22.218002 Si / 1000 Ang^3
#
#
#
# Elastic Constant Matrix: (Units=GPa)
#
#
# Indices 1 2 3 4 5 6 
#
# 1 90.1625 26.3437 14.2938 0.0000 0.0000 0.0000
# 2 26.3437 90.1625 14.2938 0.0000 0.0000 0.0000
# 3 14.2938 14.2938 103.9106 0.0000 0.0000 0.0000
# 4 0.0000 0.0000 0.0000 -284.3309 0.0000 0.0000
# 5 0.0000 0.0000 0.0000 0.0000 -284.3309 0.0000
# 6 0.0000 0.0000 0.0000 0.0000 0.0000 31.9094
#
#
#
# Elastic Compliance Matrix: (Units=1/GPa)
#
#
# Indices 1 2 3 4 5 6 
#
# 1 0.012276 -0.003393 -0.001222 0.000000 0.000000 0.000000
# 2 -0.003393 0.012276 -0.001222 0.000000 0.000000 0.000000
# 3 -0.001222 -0.001222 0.009960 0.000000 0.000000 0.000000
# 4 0.000000 0.000000 0.000000 -0.003517 0.000000 0.000000
# 5 0.000000 0.000000 0.000000 0.000000 -0.003517 0.000000
# 6 0.000000 0.000000 0.000000 0.000000 0.000000 0.031339
#
#
# Mechanical properties :
#
#
# Convention : Reuss Voigt Hill
#
# Bulk Modulus (GPa) = 43.78628 43.78868 43.78748
# Shear Modulus (GPa) = 64.01735 -92.06353 -14.02309
#
# Velocity S-wave (km/s) = 5.37362 -6.44410 -2.51501
# Velocity P-wave (km/s) = 7.63226 5.96801 3.36410
#
# Compressibility (1/GPa) = 0.02283820
#
# Stress axis : x y z
#
# Youngs Moduli (GPa) = 81.45825 81.45825 100.40328
#
# Poissons Ratio (x) = 0.27640 0.12269
# Poissons Ratio (y) = 0.27640 0.12269
# Poissons Ratio (z) = 0.09954 0.09954
#
# Static dielectric constant tensor:
#      x y z
#    x 1.929450 0.000000 0.000000 
#    y 0.000000 1.929450 0.000000 
#    z 0.000000 0.000000 1.796930 
# 
# From -- ./inp_files/2925.got.cif
#   From: 2010.05.17/outbox.cif.g08.bks.cpg/sg176_2_cif.got.tgz:2925.got - 2010.06.03 11:36:45.
