data_PCOD9581289
_publ_section_title
;
Structure prediction by ZEFSAII (Michael W. Deem and Ramdas Pophale) SiO2 
 PCOD9581289
Probable space group: P 6/M
;
_chemical_formula_sum "Si O2"
_cell_formula_units_Z 60
_cell_length_a 16.816036
_cell_length_b 16.816036
_cell_length_c 13.803193
_cell_angle_alpha 90.000000
_cell_angle_beta 90.000000
_cell_angle_gamma 120.000000
_cell_volume 3380.317152
_symmetry_space_group_name_H-M "P 6/M"
_symmetry_group_IT_number 175
_symmetry_cell_setting 'hexagonal'
loop_
_space_group_symop_operation_xyz
x,y,z
x-y,x,z
-y,x-y,z
-x,-y,z
-x+y,-x,z
y,-x+y,z
-x,-y,-z
-x+y,-x,-z
y,-x+y,-z
x,y,-z
x-y,x,-z
-y,x-y,-z
loop_
_atom_site_type_symbol
_atom_site_label
_atom_site_fract_x
_atom_site_fract_y
_atom_site_fract_z
Si Si1 0.914189 0.565663 0.391010
Si Si2 0.897129 0.116433 0.884524
Si Si3 0.372764 0.172232 0.273313
Si Si4 0.495422 0.130336 0.389278
Si Si5 0.948997 0.151075 0.615370
O O1 0.898400 0.590204 0.500000
O O2 0.880950 0.612922 0.313740
O O3 0.859794 0.455246 0.380160
O O4 0.020942 0.596493 0.385003
O O5 0.853479 0.169772 0.826975
O O6 0.006610 0.163855 0.862297
O O7 0.889326 0.124610 0.000000
O O8 0.467278 0.174797 0.301794
O O9 0.301347 0.089305 0.341742
O O10 0.488258 0.160675 0.500000
O O11 0.950380 0.156672 0.500000
O O12 0.048711 0.173666 0.646113
#
# Coordination Sequence:
#
# PCOD9581289 Si02
#       5
#    12  12  12  12  12
#     4   9  18  32  48  69 100 133 162 201 257 315
#     4  10  21  36  54  78 110 146 182 221 264 310
#     4  12  20  30  51  74  94 128 177 222 254 299
#     4   9  18  32  48  69 100 133 162 201 257 315
#     4  10  19  28  40  64 100 136 166 199 244 302
#
# _framework density 17.749814000000001
#
# number of rings (size 3 to 8) (size 9 to 14) (size 15 to 20)
#    0.000    2.000    0.000    7.000    0.000    4.800 
#    1.200    2.000    0.000    1.200    0.000    5.600 
#    0.000    0.000    0.000    0.000    0.000    0.000 
#
# Total GULP energy -334477.280854 kJ/mol
# GULP energy per Si atom -5574.621348 kJ/mol
# Density = 1.770941 g / cm^3
# Si number density = 17.749814 Si / 1000 Ang^3
#
#
#
# Elastic Constant Matrix: (Units=GPa)
#
#
# Indices 1 2 3 4 5 6 
#
# 1 63.1096 6.4683 28.8821 0.0000 0.0000 0.0000
# 2 6.4683 63.1096 28.8821 0.0000 0.0000 0.0000
# 3 28.8821 28.8821 105.0255 0.0000 0.0000 0.0000
# 4 0.0000 0.0000 0.0000 69.0433 0.0000 0.0000
# 5 0.0000 0.0000 0.0000 0.0000 69.0433 0.0000
# 6 0.0000 0.0000 0.0000 0.0000 0.0000 28.3206
#
#
#
# Elastic Compliance Matrix: (Units=1/GPa)
#
#
# Indices 1 2 3 4 5 6 
#
# 1 0.018140 0.000485 -0.005122 0.000000 0.000000 0.000000
# 2 0.000485 0.018140 -0.005122 0.000000 0.000000 0.000000
# 3 -0.005122 -0.005122 0.012338 0.000000 0.000000 0.000000
# 4 0.000000 0.000000 0.000000 0.014484 0.000000 0.000000
# 5 0.000000 0.000000 0.000000 0.000000 0.014484 0.000000
# 6 0.000000 0.000000 0.000000 0.000000 0.000000 0.035310
#
#
# Mechanical properties :
#
#
# Convention : Reuss Voigt Hill
#
# Bulk Modulus (GPa) = 34.36371 39.96774 37.16573
# Shear Modulus (GPa) = 35.18329 44.41558 39.79944
#
# Velocity S-wave (km/s) = 4.45700 5.00774 4.74037
# Velocity P-wave (km/s) = 6.77410 7.48350 7.13762
#
# Compressibility (1/GPa) = 0.02910047
#
# Stress axis : x y z
#
# Youngs Moduli (GPa) = 55.12756 55.12756 81.04736
#
# Poissons Ratio (x) = -0.02672 0.41510
# Poissons Ratio (y) = -0.02672 0.41510
# Poissons Ratio (z) = 0.28235 0.28235
#
# Static dielectric constant tensor:
#      x y z
#    x 1.658280 0.000000 0.000000 
#    y 0.000000 1.658280 0.000000 
#    z 0.000000 0.000000 1.616300 
# 
# From -- ./inp_files/2430.got.cif
#   From: 2010.05.17/outbox.cif.g08.bks.cpg/sg175_2_cif.got.tgz:2430.got - 2010.05.20 11:23:22.
