data_PCOD9581968
_publ_section_title
;
Structure prediction by ZEFSAII (Michael W. Deem and Ramdas Pophale) SiO2 
 PCOD9581968
Probable space group: P 63/M
;
_chemical_formula_sum "Si O2"
_cell_formula_units_Z 58
_cell_length_a 13.891549
_cell_length_b 13.891549
_cell_length_c 14.238762
_cell_angle_alpha 90.000000
_cell_angle_beta 90.000000
_cell_angle_gamma 120.000000
_cell_volume 2379.601384
_symmetry_space_group_name_H-M "P 63/M"
_symmetry_group_IT_number 176
_symmetry_cell_setting 'hexagonal'
loop_
_space_group_symop_operation_xyz
x,y,z
x-y,x,1/2+z
-y,x-y,z
-x,-y,1/2+z
-x+y,-x,z
y,-x+y,1/2+z
-x,-y,-z
-x+y,-x,1/2-z
y,-x+y,-z
x,y,1/2-z
x-y,x,-z
-y,x-y,1/2-z
loop_
_atom_site_type_symbol
_atom_site_label
_atom_site_fract_x
_atom_site_fract_y
_atom_site_fract_z
Si Si1 0.318560 0.432368 0.947408
Si Si2 0.333335 0.666668 0.359642
Si Si3 0.951905 0.748550 0.250000
Si Si4 0.114046 0.511429 0.420735
Si Si5 0.571102 0.847881 0.750000
Si Si6 0.845027 0.777879 0.950071
Si Si7 0.000123 0.452855 0.750000
O O1 0.384574 0.366303 0.919708
O O2 0.262395 0.455671 0.858059
O O3 0.422968 0.545566 0.984442
O O4 0.228626 0.351074 0.020989
O O5 0.333334 0.666668 0.250000
O O6 0.238849 0.547830 0.395581
O O7 0.818496 0.703366 0.250000
O O8 0.013427 0.813077 0.345694
O O9 0.952466 0.630813 0.250000
O O10 0.074885 0.567071 0.341017
O O11 0.503360 0.916707 0.750000
O O12 0.971655 0.817159 0.972297
#
# Coordination Sequence:
#
# PCOD9581968 Si02
#       7
#    12   4   6  12   6  12   6
#     4  10  22  43  68  92 131 179 223 276 342 404
#     4  12  24  36  63 103 137 166 219 273 336 412
#     4  12  24  43  75 101 138 190 233 278 359 417
#     4  10  22  39  63  97 136 174 218 278 329 409
#     4  10  22  43  67  97 130 177 230 276 331 402
#     4  12  27  46  71 102 134 177 235 298 355 419
#     4  10  20  40  66  96 134 177 229 276 332 411
#
# _framework density 24.373832
#
# number of rings (size 3 to 8) (size 9 to 14) (size 15 to 20)
#    0.000    1.241    5.172    0.207    2.897    1.655 
#    0.621    0.000    0.000    0.000    0.000    0.000 
#    0.000    0.000    0.000    0.000    0.000    0.000 
#
# Total GULP energy -323232.784614 kJ/mol
# GULP energy per Si atom -5572.979045 kJ/mol
# Density = 2.431836 g / cm^3
# Si number density = 24.373832 Si / 1000 Ang^3
#
#
#
# Elastic Constant Matrix: (Units=GPa)
#
#
# Indices 1 2 3 4 5 6 
#
# 1 96.3638 25.2938 22.6265 0.0000 0.0000 0.0001
# 2 25.2938 96.3623 22.6265 0.0000 0.0000 -0.0002
# 3 22.6265 22.6265 141.3786 0.0000 0.0000 0.0000
# 4 0.0000 0.0000 0.0000 22.4715 -0.0003 0.0000
# 5 0.0000 0.0000 0.0000 -0.0003 22.4716 0.0000
# 6 0.0001 -0.0002 0.0000 0.0000 0.0000 35.5342
#
#
#
# Elastic Compliance Matrix: (Units=1/GPa)
#
#
# Indices 1 2 3 4 5 6 
#
# 1 0.011405 -0.002665 -0.001399 0.000000 0.000000 0.000000
# 2 -0.002665 0.011406 -0.001399 0.000000 0.000000 0.000000
# 3 -0.001399 -0.001399 0.007521 0.000000 0.000000 0.000000
# 4 0.000000 0.000000 0.000000 0.044501 0.000001 0.000000
# 5 0.000000 0.000000 0.000000 0.000001 0.044501 0.000000
# 6 0.000000 0.000000 0.000000 0.000000 0.000000 0.028142
#
#
# Mechanical properties :
#
#
# Convention : Reuss Voigt Hill
#
# Bulk Modulus (GPa) = 51.53026 52.79983 52.16504
# Shear Modulus (GPa) = 30.32695 33.66597 31.99646
#
# Velocity S-wave (km/s) = 3.53121 3.72053 3.62710
# Velocity P-wave (km/s) = 6.14926 6.33766 6.24417
#
# Compressibility (1/GPa) = 0.01940607
#
# Stress axis : x y z
#
# Youngs Moduli (GPa) = 87.67795 87.67654 132.96218
#
# Poissons Ratio (x) = 0.23369 0.18598
# Poissons Ratio (y) = 0.23369 0.18599
# Poissons Ratio (z) = 0.12264 0.12264
#
# Static dielectric constant tensor:
#      x y z
#    x 2.030120 0.000010 0.000000 
#    y 0.000010 2.030120 0.000000 
#    z 0.000000 0.000000 1.974070 
# 
# From -- ./inp_files/2710.got.cif
#   From: 2010.05.17/outbox.cif.g08.bks.cpg/sg176_2_cif.got.tgz:2710.got - 2010.06.03 11:36:45.
