data_PCOD9581334
_publ_section_title
;
Structure prediction by ZEFSAII (Michael W. Deem and Ramdas Pophale) SiO2 
 PCOD9581334
Probable space group: P 6/M
;
_chemical_formula_sum "Si O2"
_cell_formula_units_Z 78
_cell_length_a 16.558910
_cell_length_b 16.558910
_cell_length_c 18.903031
_cell_angle_alpha 90.000000
_cell_angle_beta 90.000000
_cell_angle_gamma 120.000000
_cell_volume 4488.751566
_symmetry_space_group_name_H-M "P 6/M"
_symmetry_group_IT_number 175
_symmetry_cell_setting 'hexagonal'
loop_
_space_group_symop_operation_xyz
x,y,z
x-y,x,z
-y,x-y,z
-x,-y,z
-x+y,-x,z
y,-x+y,z
-x,-y,-z
-x+y,-x,-z
y,-x+y,-z
x,y,-z
x-y,x,-z
-y,x-y,-z
loop_
_atom_site_type_symbol
_atom_site_label
_atom_site_fract_x
_atom_site_fract_y
_atom_site_fract_z
Si Si1 0.218522 0.076325 0.500000
Si Si2 0.418090 0.345573 0.000000
Si Si3 0.143401 0.220742 0.655562
Si Si4 0.220650 0.080397 0.918433
Si Si5 0.501752 0.864484 0.000000
Si Si6 0.192063 0.353478 0.785630
Si Si7 0.366372 0.503301 0.153554
Si Si8 0.572174 0.653632 0.153941
O O1 0.170219 0.139139 0.500000
O O2 0.265776 0.092888 0.576840
O O3 0.361470 0.400760 0.000000
O O4 0.527389 0.423917 0.000000
O O5 0.402446 0.298482 0.924124
O O6 0.173211 0.142016 0.661961
O O7 0.187941 0.295933 0.717408
O O8 0.172519 0.143946 0.910414
O O9 0.295655 0.107582 0.856088
O O10 0.255511 0.094040 0.000000
O O11 0.490749 0.818379 0.924037
O O12 0.282294 0.456171 0.791959
O O13 0.104352 0.370241 0.790543
O O14 0.460882 0.600175 0.166976
O O15 0.400844 0.426904 0.150366
#
# Coordination Sequence:
#
# PCOD9581334 Si02
#       8
#     6   6  12  12   6  12  12  12
#     4   8  15  28  48  72 102 138 170 198 236 284
#     4   7  12  25  44  58  73 105 149 189 232 282
#     4  10  19  32  50  76 108 140 170 201 237 282
#     4  10  21  34  46  64  96 136 170 199 233 280
#     4   7  12  25  44  58  73 105 149 189 232 282
#     4  12  22  30  47  74  94 120 165 213 244 295
#     4   9  18  32  46  62  86 118 153 197 251 294
#     4   9  18  32  46  62  86 118 153 197 251 294
#
# _framework density 17.376768999999999
#
# number of rings (size 3 to 8) (size 9 to 14) (size 15 to 20)
#    0.000    2.615    0.000    5.000    2.154    1.846 
#    0.923    1.538    0.000    0.000    0.000    1.077 
#    0.000    6.154    0.000    0.000    0.000    0.000 
#
# Total GULP energy -434787.751240 kJ/mol
# GULP energy per Si atom -5574.201939 kJ/mol
# Density = 1.733722 g / cm^3
# Si number density = 17.376769 Si / 1000 Ang^3
#
#
#
# Elastic Constant Matrix: (Units=GPa)
#
#
# Indices 1 2 3 4 5 6 
#
# 1 53.7092 -1.9475 21.6085 0.0000 0.0000 0.0000
# 2 -1.9475 53.7092 21.6085 0.0000 0.0000 0.0000
# 3 21.6085 21.6085 96.2262 0.0000 0.0000 0.0000
# 4 0.0000 0.0000 0.0000 13.9440 0.0000 0.0000
# 5 0.0000 0.0000 0.0000 0.0000 13.9440 0.0000
# 6 0.0000 0.0000 0.0000 0.0000 0.0000 27.8284
#
#
#
# Elastic Compliance Matrix: (Units=1/GPa)
#
#
# Indices 1 2 3 4 5 6 
#
# 1 0.020872 0.002905 -0.005339 0.000000 0.000000 0.000000
# 2 0.002905 0.020872 -0.005339 0.000000 0.000000 0.000000
# 3 -0.005339 -0.005339 0.012790 0.000000 0.000000 0.000000
# 4 0.000000 0.000000 0.000000 0.071715 0.000000 0.000000
# 5 0.000000 0.000000 0.000000 0.000000 0.071715 0.000000
# 6 0.000000 0.000000 0.000000 0.000000 0.000000 0.035935
#
#
# Mechanical properties :
#
#
# Convention : Reuss Voigt Hill
#
# Bulk Modulus (GPa) = 25.64947 31.79819 28.72383
# Shear Modulus (GPa) = 19.05174 21.96829 20.51002
#
# Velocity S-wave (km/s) = 3.31477 3.55946 3.43929
# Velocity P-wave (km/s) = 5.42615 5.93566 5.68661
#
# Compressibility (1/GPa) = 0.03898716
#
# Stress axis : x y z
#
# Youngs Moduli (GPa) = 47.91037 47.91037 78.18468
#
# Poissons Ratio (x) = -0.13918 0.41746
# Poissons Ratio (y) = -0.13918 0.41746
# Poissons Ratio (z) = 0.25581 0.25581
#
# Static dielectric constant tensor:
#      x y z
#    x 1.632110 0.000000 0.000000 
#    y 0.000000 1.632110 0.000000 
#    z 0.000000 0.000000 1.606730 
# 
# From -- ./inp_files/2977.got.cif
#   From: 2010.05.17/outbox.cif.g08.bks.cpg/sg175_2_cif.got.tgz:2977.got - 2010.05.20 11:23:22.
