data_PCOD9581192
_publ_section_title
;
Structure prediction by ZEFSAII (Michael W. Deem and Ramdas Pophale) SiO2 
 PCOD9581192
Probable space group: P -6
;
_chemical_formula_sum "Si O2"
_cell_formula_units_Z 42
_cell_length_a 8.876398
_cell_length_b 8.876398
_cell_length_c 32.648572
_cell_angle_alpha 90.000000
_cell_angle_beta 90.000000
_cell_angle_gamma 120.000000
_cell_volume 2227.759766
_symmetry_space_group_name_H-M "P -6"
_symmetry_group_IT_number 174
_symmetry_cell_setting 'hexagonal'
loop_
_space_group_symop_operation_xyz
x,y,z
-x+y,-x,-z
-y,x-y,z
x,y,-z
-x+y,-x,z
-y,x-y,-z
loop_
_atom_site_type_symbol
_atom_site_label
_atom_site_fract_x
_atom_site_fract_y
_atom_site_fract_z
Si Si1 0.329893 0.007966 0.911679
Si Si2 0.483462 0.363087 0.209759
Si Si3 0.339020 0.344473 0.877440
Si Si4 0.329725 0.009395 0.410581
Si Si5 0.364538 0.485439 0.712792
Si Si6 0.652513 0.994338 0.378059
Si Si7 0.209404 0.025183 0.500000
Si Si8 0.696946 0.547861 0.000000
O O1 0.166811 0.834024 0.894998
O O2 0.334772 0.167330 0.888076
O O3 0.501034 0.000993 0.900638
O O4 0.343839 0.053169 0.959775
O O5 0.494078 0.185210 0.208232
O O6 0.380906 0.376850 0.170797
O O7 0.399712 0.388136 0.250621
O O8 0.362108 0.181274 0.386710
O O9 0.306534 0.034251 0.458437
O O10 0.488320 0.976771 0.402702
O O11 0.153471 0.846513 0.393576
O O12 0.506971 0.692475 0.715220
O O13 0.367008 0.404531 0.669284
O O14 0.151672 0.171988 0.500000
O O15 0.518298 0.357199 0.000000
#
# Coordination Sequence:
#
# PCOD9581192 Si02
#       8
#     6   6   6   6   6   6   3   3
#     4  12  24  42  72  97 140 184 227 287 344 410
#     4  10  23  41  68  97 136 183 229 280 347 403
#     4  12  24  45  65 106 137 184 231 280 347 416
#     4  12  24  42  72  94 142 182 231 287 351 417
#     4  10  23  41  65 101 139 171 230 290 341 416
#     4  12  24  45  65 105 136 190 225 287 354 423
#     4  10  20  42  66 100 130 174 234 290 350 416
#     4  10  20  42  72  96 134 182 228 292 354 398
#
# _framework density 18.853019
#
# number of rings (size 3 to 8) (size 9 to 14) (size 15 to 20)
#    0.857    0.000    5.714    1.714    4.000    2.286 
#    0.000    0.000    0.000    0.571    0.000    0.000 
#    0.000    0.000    0.000    0.000    0.000    0.000 
#
# Total GULP energy -234435.309705 kJ/mol
# GULP energy per Si atom -5581.793088 kJ/mol
# Density = 1.881011 g / cm^3
# Si number density = 18.853019 Si / 1000 Ang^3
#
#
#
# Elastic Constant Matrix: (Units=GPa)
#
#
# Indices 1 2 3 4 5 6 
#
# 1 84.0414 11.0355 42.8120 0.0000 0.0000 0.0000
# 2 11.0355 84.0414 42.8120 0.0000 0.0000 0.0000
# 3 42.8120 42.8120 182.0187 0.0000 0.0000 0.0000
# 4 0.0000 0.0000 0.0000 29.0062 0.0000 0.0000
# 5 0.0000 0.0000 0.0000 0.0000 29.0062 0.0000
# 6 0.0000 0.0000 0.0000 0.0000 0.0000 36.5029
#
#
#
# Elastic Compliance Matrix: (Units=1/GPa)
#
#
# Indices 1 2 3 4 5 6 
#
# 1 0.013521 -0.000177 -0.003139 0.000000 0.000000 0.000000
# 2 -0.000177 0.013521 -0.003139 0.000000 0.000000 0.000000
# 3 -0.003139 -0.003139 0.006970 0.000000 0.000000 0.000000
# 4 0.000000 0.000000 0.000000 0.034475 0.000000 0.000000
# 5 0.000000 0.000000 0.000000 0.000000 0.034475 0.000000
# 6 0.000000 0.000000 0.000000 0.000000 0.000000 0.027395
#
#
# Mechanical properties :
#
#
# Convention : Reuss Voigt Hill
#
# Bulk Modulus (GPa) = 47.38325 60.38005 53.88165
# Shear Modulus (GPa) = 33.26656 35.79917 34.53287
#
# Velocity S-wave (km/s) = 4.20518 4.36231 4.28447
# Velocity P-wave (km/s) = 6.98323 7.58085 7.28817
#
# Compressibility (1/GPa) = 0.02110451
#
# Stress axis : x y z
#
# Youngs Moduli (GPa) = 73.95911 73.95911 143.46323
#
# Poissons Ratio (x) = 0.01306 0.45029
# Poissons Ratio (y) = 0.01306 0.45029
# Poissons Ratio (z) = 0.23214 0.23214
#
# Static dielectric constant tensor:
#      x y z
#    x 1.559070 0.000000 0.000000 
#    y 0.000000 1.559070 0.000000 
#    z 0.000000 0.000000 1.635810 
# 
# From -- ./inp_files/1103.got.cif
#   From: 2010.05.17/outbox.cif.g08.bks.cpg/sg174_cif.got.tgz:1103.got - 2010.05.20 11:22:48.
