data_PCOD9581878
_publ_section_title
;
Structure prediction by ZEFSAII (Michael W. Deem and Ramdas Pophale) SiO2 
 PCOD9581878
Probable space group: P 63/M
;
_chemical_formula_sum "Si O2"
_cell_formula_units_Z 76
_cell_length_a 16.325954
_cell_length_b 16.325954
_cell_length_c 12.819177
_cell_angle_alpha 90.000000
_cell_angle_beta 90.000000
_cell_angle_gamma 120.000000
_cell_volume 2959.020083
_symmetry_space_group_name_H-M "P 63/M"
_symmetry_group_IT_number 176
_symmetry_cell_setting 'hexagonal'
loop_
_space_group_symop_operation_xyz
x,y,z
x-y,x,1/2+z
-y,x-y,z
-x,-y,1/2+z
-x+y,-x,z
y,-x+y,1/2+z
-x,-y,-z
-x+y,-x,1/2-z
y,-x+y,-z
x,y,1/2-z
x-y,x,-z
-y,x-y,1/2-z
loop_
_atom_site_type_symbol
_atom_site_label
_atom_site_fract_x
_atom_site_fract_y
_atom_site_fract_z
Si Si1 0.000000 0.000000 0.375838
Si Si2 0.527558 0.832822 0.435265
Si Si3 0.785610 0.386993 0.395432
Si Si4 0.956388 0.569680 0.089735
Si Si5 0.812563 0.830007 0.372886
Si Si6 0.830405 0.183660 0.368591
Si Si7 0.596514 0.696458 0.129828
O O1 0.067018 0.958378 0.407709
O O2 0.000000 0.000000 0.250000
O O3 0.423095 0.792667 0.481760
O O4 0.590405 0.851290 0.541609
O O5 0.541717 0.755706 0.374895
O O6 0.563743 0.934006 0.382949
O O7 0.721327 0.433269 0.364075
O O8 0.891725 0.463078 0.366800
O O9 0.943751 0.563252 0.962835
O O10 0.900831 0.623763 0.124340
O O11 0.803467 0.840755 0.250000
O O12 0.850617 0.756717 0.386736
O O13 0.703696 0.773859 0.406095
O O14 0.849256 0.223106 0.250000
O O15 0.595752 0.666020 0.250000
#
# Coordination Sequence:
#
# PCOD9581878 Si02
#       7
#     4  12  12  12  12  12  12
#     4  12  28  32  52  84 118 149 202 240 283 353
#     4  11  22  38  65  90 124 156 205 254 306 364
#     4  10  19  40  66  90 118 164 194 241 316 372
#     4  11  22  38  65  90 124 156 205 254 306 364
#     4  10  22  38  54  77 116 158 198 243 295 343
#     4  10  21  38  61  87 120 163 203 248 298 357
#     4  10  21  38  61  87 120 163 203 248 298 357
#
# _framework density 25.684176999999998
#
# number of rings (size 3 to 8) (size 9 to 14) (size 15 to 20)
#    0.316    1.263    4.737    0.947    6.632    0.632 
#    0.000    1.579    0.000    3.789    0.000    0.000 
#    0.000    0.000    0.000    0.000    0.000    0.000 
#
# Total GULP energy -423918.744647 kJ/mol
# GULP energy per Si atom -5577.878219 kJ/mol
# Density = 2.562572 g / cm^3
# Si number density = 25.684177 Si / 1000 Ang^3
#
#
#
# Elastic Constant Matrix: (Units=GPa)
#
#
# Indices 1 2 3 4 5 6 
#
# 1 90.0895 20.8428 5.9503 0.0000 0.0000 0.0000
# 2 20.8428 90.0895 5.9503 0.0000 0.0000 0.0000
# 3 5.9503 5.9503 129.4505 0.0000 0.0000 0.0000
# 4 0.0000 0.0000 0.0000 8.1477 0.0000 0.0000
# 5 0.0000 0.0000 0.0000 0.0000 8.1477 0.0000
# 6 0.0000 0.0000 0.0000 0.0000 0.0000 34.6233
#
#
#
# Elastic Compliance Matrix: (Units=1/GPa)
#
#
# Indices 1 2 3 4 5 6 
#
# 1 0.011750 -0.002691 -0.000416 0.000000 0.000000 0.000000
# 2 -0.002691 0.011750 -0.000416 0.000000 0.000000 0.000000
# 3 -0.000416 -0.000416 0.007763 0.000000 0.000000 0.000000
# 4 0.000000 0.000000 0.000000 0.122734 0.000000 0.000000
# 5 0.000000 0.000000 0.000000 0.000000 0.122734 0.000000
# 6 0.000000 0.000000 0.000000 0.000000 0.000000 0.028882
#
#
# Mechanical properties :
#
#
# Convention : Reuss Voigt Hill
#
# Bulk Modulus (GPa) = 41.29508 41.67957 41.48732
# Shear Modulus (GPa) = 15.58930 28.64283 22.11607
#
# Velocity S-wave (km/s) = 2.46633 3.34307 2.93760
# Velocity P-wave (km/s) = 4.92172 5.58252 5.26250
#
# Compressibility (1/GPa) = 0.02421596
#
# Stress axis : x y z
#
# Youngs Moduli (GPa) = 85.10529 85.10529 128.81215
#
# Poissons Ratio (x) = 0.22902 0.05364
# Poissons Ratio (y) = 0.22902 0.05364
# Poissons Ratio (z) = 0.03544 0.03544
#
# Static dielectric constant tensor:
#      x y z
#    x 2.051520 0.000000 0.000000 
#    y 0.000000 2.051520 0.000000 
#    z 0.000000 0.000000 2.032470 
# 
# From -- ./inp_files/2882.got.cif
#   From: 2010.05.17/outbox.cif.g08.bks.cpg/sg176_2_cif.got.tgz:2882.got - 2010.06.03 11:36:45.
