data_PCOD9581652
_publ_section_title
;
Structure prediction by ZEFSAII (Michael W. Deem and Ramdas Pophale) SiO2 
 PCOD9581652
Probable space group: P 6/M
;
_chemical_formula_sum "Si O2"
_cell_formula_units_Z 58
_cell_length_a 15.398940
_cell_length_b 15.398940
_cell_length_c 15.511316
_cell_angle_alpha 90.000000
_cell_angle_beta 90.000000
_cell_angle_gamma 120.000000
_cell_volume 3185.377667
_symmetry_space_group_name_H-M "P 6/M"
_symmetry_group_IT_number 175
_symmetry_cell_setting 'hexagonal'
loop_
_space_group_symop_operation_xyz
x,y,z
x-y,x,z
-y,x-y,z
-x,-y,z
-x+y,-x,z
y,-x+y,z
-x,-y,-z
-x+y,-x,-z
y,-x+y,-z
x,y,-z
x-y,x,-z
-y,x-y,-z
loop_
_atom_site_type_symbol
_atom_site_label
_atom_site_fract_x
_atom_site_fract_y
_atom_site_fract_z
Si Si1 0.442619 0.878533 0.903313
Si Si2 0.111888 0.593740 0.602836
Si Si3 0.103216 0.369539 0.161362
Si Si4 0.666667 0.333333 0.396573
Si Si5 0.775647 0.816976 0.000000
Si Si6 0.700275 0.593718 0.238825
O O1 0.330731 0.848681 0.876128
O O2 0.499233 0.857542 0.826640
O O3 0.500000 0.000000 0.908732
O O4 0.447912 0.842153 0.000000
O O5 0.114636 0.609658 0.500000
O O6 0.215598 0.594370 0.627338
O O7 0.122350 0.682818 0.662716
O O8 0.000000 0.500000 0.622426
O O9 0.056643 0.292978 0.082468
O O10 0.185622 0.354561 0.209833
O O11 0.011224 0.348357 0.222222
O O12 0.666667 0.333334 0.500000
O O13 0.872447 0.804788 0.000000
#
# Coordination Sequence:
#
# PCOD9581652 Si02
#       6
#    12  12  12   4   6  12
#     4   9  19  33  53  78 111 153 193 240 295 356
#     4  10  22  41  64  90 123 162 204 253 309 369
#     4  11  22  38  57  83 120 155 203 249 299 357
#     4   9  21  39  63  93 124 158 202 252 306 366
#     4  12  23  40  61  87 117 159 201 250 301 356
#     4  11  24  37  59  86 119 159 205 251 307 363
#
# _framework density 18.208203999999999
#
# number of rings (size 3 to 8) (size 9 to 14) (size 15 to 20)
#    0.000    1.655    3.103    1.966    8.690    0.000 
#    1.241    0.000    0.000    0.000    0.000    0.000 
#    0.000    0.000    0.000    3.724    0.000    0.414 
#
# Total GULP energy -323364.734516 kJ/mol
# GULP energy per Si atom -5575.254043 kJ/mol
# Density = 1.816676 g / cm^3
# Si number density = 18.208204 Si / 1000 Ang^3
#
#
#
# Elastic Constant Matrix: (Units=GPa)
#
#
# Indices 1 2 3 4 5 6 
#
# 1 60.9758 11.5962 12.9891 0.0000 0.0000 0.0003
# 2 11.5962 60.9760 12.9896 0.0000 0.0000 0.0000
# 3 12.9891 12.9896 51.9537 0.0000 0.0000 0.0001
# 4 0.0000 0.0000 0.0000 14.9207 0.0000 0.0000
# 5 0.0000 0.0000 0.0000 0.0000 14.9207 0.0000
# 6 0.0003 0.0000 0.0001 0.0000 0.0000 24.6900
#
#
#
# Elastic Compliance Matrix: (Units=1/GPa)
#
#
# Indices 1 2 3 4 5 6 
#
# 1 0.017693 -0.002559 -0.003784 0.000000 0.000000 0.000000
# 2 -0.002559 0.017693 -0.003784 0.000000 0.000000 0.000000
# 3 -0.003784 -0.003784 0.021140 0.000000 0.000000 0.000000
# 4 0.000000 0.000000 0.000000 0.067021 0.000000 0.000000
# 5 0.000000 0.000000 0.000000 0.000000 0.067021 0.000000
# 6 0.000000 0.000000 0.000000 0.000000 0.000000 0.040502
#
#
# Mechanical properties :
#
#
# Convention : Reuss Voigt Hill
#
# Bulk Modulus (GPa) = 27.56897 27.67284 27.62091
# Shear Modulus (GPa) = 18.98165 19.99499 19.48832
#
# Velocity S-wave (km/s) = 3.23225 3.31740 3.27510
# Velocity P-wave (km/s) = 5.39479 5.46850 5.43177
#
# Compressibility (1/GPa) = 0.03627266
#
# Stress axis : x y z
#
# Youngs Moduli (GPa) = 56.52101 56.52097 47.30388
#
# Poissons Ratio (x) = 0.14462 0.17898
# Poissons Ratio (y) = 0.14462 0.17899
# Poissons Ratio (z) = 0.21386 0.21387
#
# Static dielectric constant tensor:
#      x y z
#    x 1.644090 0.000000 0.000000 
#    y 0.000000 1.644090 0.000000 
#    z 0.000000 0.000000 1.615180 
# 
# From -- ./inp_files/2393.got.cif
#   From: 2010.05.17/outbox.cif.g08.bks.cpg/sg175_2_cif.got.tgz:2393.got - 2010.05.20 11:23:22.
