data_PCOD9581174
_publ_section_title
;
Structure prediction by ZEFSAII (Michael W. Deem and Ramdas Pophale) SiO2 
 PCOD9581174
Probable space group: P -6
;
_chemical_formula_sum "Si O2"
_cell_formula_units_Z 23
_cell_length_a 11.620981
_cell_length_b 11.620981
_cell_length_c 11.467239
_cell_angle_alpha 90.000000
_cell_angle_beta 90.000000
_cell_angle_gamma 120.000000
_cell_volume 1341.142972
_symmetry_space_group_name_H-M "P -6"
_symmetry_group_IT_number 174
_symmetry_cell_setting 'hexagonal'
loop_
_space_group_symop_operation_xyz
x,y,z
-x+y,-x,-z
-y,x-y,z
x,y,-z
-x+y,-x,z
-y,x-y,-z
loop_
_atom_site_type_symbol
_atom_site_label
_atom_site_fract_x
_atom_site_fract_y
_atom_site_fract_z
Si Si1 0.641426 0.832210 0.140199
Si Si2 0.333335 0.666668 0.859401
Si Si3 0.413989 0.329381 0.754021
Si Si4 0.818437 0.486193 0.500000
Si Si5 0.419415 0.081636 0.860668
O O1 0.486130 0.750604 0.175189
O O2 0.693942 0.730332 0.164277
O O3 0.702340 0.970432 0.207642
O O4 0.650520 0.857083 0.000000
O O5 0.333334 0.666668 0.000000
O O6 0.439101 0.331701 0.616553
O O7 0.442669 0.219305 0.809678
O O8 0.521784 0.471720 0.807130
O O9 0.790992 0.334242 0.500000
O O10 0.436022 0.089500 0.000000
#
# Coordination Sequence:
#
# PCOD9581174 Si02
#       5
#     6   2   6   3   6
#     4  10  20  34  56  86 119 150 183 243 306 358
#     4   9  15  30  54  76 110 151 177 219 304 359
#     4  12  21  38  59  85 117 158 204 239 295 353
#     4  10  20  40  58  84 116 162 196 256 296 322
#     4  11  21  34  59  89 117 149 194 252 305 358
#
# _framework density 17.149550999999999
#
# number of rings (size 3 to 8) (size 9 to 14) (size 15 to 20)
#    0.261    1.043    5.217    2.870    0.000    0.000 
#    1.565    2.609    0.000    0.000    0.000    0.000 
#    0.000    0.000    0.000    0.000    0.000    0.000 
#
# Total GULP energy -128319.412574 kJ/mol
# GULP energy per Si atom -5579.104895 kJ/mol
# Density = 1.711052 g / cm^3
# Si number density = 17.149551 Si / 1000 Ang^3
#
#
#
# Elastic Constant Matrix: (Units=GPa)
#
#
# Indices 1 2 3 4 5 6 
#
# 1 70.9912 8.7494 39.7018 0.0000 0.0000 0.0001
# 2 8.7494 70.9900 39.7016 0.0000 0.0000 -0.0001
# 3 39.7018 39.7016 114.4092 0.0000 0.0000 -0.0002
# 4 0.0000 0.0000 0.0000 9.1851 0.0001 0.0000
# 5 0.0000 0.0000 0.0000 0.0001 9.1857 0.0000
# 6 0.0001 -0.0001 -0.0002 0.0000 0.0000 31.1209
#
#
#
# Elastic Compliance Matrix: (Units=1/GPa)
#
#
# Indices 1 2 3 4 5 6 
#
# 1 0.017614 0.001548 -0.006650 0.000000 0.000000 0.000000
# 2 0.001548 0.017615 -0.006650 0.000000 0.000000 0.000000
# 3 -0.006650 -0.006650 0.013356 0.000000 0.000000 0.000000
# 4 0.000000 0.000000 0.000000 0.108872 -0.000001 0.000000
# 5 0.000000 0.000000 0.000000 -0.000001 0.108865 0.000000
# 6 0.000000 0.000000 0.000000 0.000000 0.000000 0.032133
#
#
# Mechanical properties :
#
#
# Convention : Reuss Voigt Hill
#
# Bulk Modulus (GPa) = 39.86963 48.07734 43.97349
# Shear Modulus (GPa) = 15.13699 21.11419 18.12559
#
# Velocity S-wave (km/s) = 2.97416 3.51262 3.25455
# Velocity P-wave (km/s) = 5.92392 6.67431 6.31028
#
# Compressibility (1/GPa) = 0.02508175
#
# Stress axis : x y z
#
# Youngs Moduli (GPa) = 56.77224 56.77119 74.87515
#
# Poissons Ratio (x) = -0.08787 0.49789
# Poissons Ratio (y) = -0.08788 0.49789
# Poissons Ratio (z) = 0.37751 0.37751
#
# Static dielectric constant tensor:
#      x y z
#    x 1.586040 0.000000 0.000000 
#    y 0.000000 1.586040 0.000000 
#    z 0.000000 0.000000 1.549880 
# 
# From -- ./inp_files/658.got.cif
#   From: 2010.05.17/outbox.cif.g08.bks.cpg/sg174_cif.got.tgz:658.got - 2010.05.20 11:22:48.
