data_PCOD9581306
_publ_section_title
;
Structure prediction by ZEFSAII (Michael W. Deem and Ramdas Pophale) SiO2 
 PCOD9581306
Probable space group: P 6/M
;
_chemical_formula_sum "Si O2"
_cell_formula_units_Z 60
_cell_length_a 22.481748
_cell_length_b 22.481748
_cell_length_c 8.117899
_cell_angle_alpha 90.000000
_cell_angle_beta 90.000000
_cell_angle_gamma 120.000000
_cell_volume 3553.320867
_symmetry_space_group_name_H-M "P 6/M"
_symmetry_group_IT_number 175
_symmetry_cell_setting 'hexagonal'
loop_
_space_group_symop_operation_xyz
x,y,z
x-y,x,z
-y,x-y,z
-x,-y,z
-x+y,-x,z
y,-x+y,z
-x,-y,-z
-x+y,-x,-z
y,-x+y,-z
x,y,-z
x-y,x,-z
-y,x-y,-z
loop_
_atom_site_type_symbol
_atom_site_label
_atom_site_fract_x
_atom_site_fract_y
_atom_site_fract_z
Si Si1 0.208694 0.919529 0.309372
Si Si2 0.808807 0.476224 0.500000
Si Si3 0.663428 0.474175 0.500000
Si Si4 0.851610 0.563034 0.818793
Si Si5 0.068731 0.791936 0.804373
Si Si6 0.292065 0.435745 0.186829
O O1 0.215508 0.906072 0.500000
O O2 0.262569 0.905693 0.209767
O O3 0.132422 0.863929 0.252848
O O4 0.227218 0.997126 0.281767
O O5 0.734505 0.471883 0.500000
O O6 0.799739 0.401265 0.500000
O O7 0.848310 0.517461 0.664355
O O8 0.664278 0.514865 0.334947
O O9 0.778058 0.560273 0.818715
O O10 0.861258 0.540605 0.000000
O O11 0.090665 0.734368 0.772248
O O12 0.060906 0.794467 0.000000
O O13 0.321091 0.451532 0.000000
#
# Coordination Sequence:
#
# PCOD9581306 Si02
#       6
#    12   6   6  12  12  12
#     4  11  20  32  54  83 108 134 173 215 256 299
#     4  10  19  32  47  77  98 137 168 212 263 323
#     4  10  19  30  51  69 106 129 168 212 263 311
#     4   9  17  32  50  70 100 135 174 216 258 303
#     4  10  20  34  53  79 109 139 171 210 259 303
#     4   8  17  31  49  71  96 133 174 212 254 300
#
# _framework density 16.885612999999999
#
# number of rings (size 3 to 8) (size 9 to 14) (size 15 to 20)
#    0.000    2.400    1.000    3.800    5.600    0.800 
#    0.000    0.000    0.000    5.200    0.000    7.000 
#    0.000    0.000    0.000    0.000    0.000    0.000 
#
# Total GULP energy -334433.513567 kJ/mol
# GULP energy per Si atom -5573.891893 kJ/mol
# Density = 1.684718 g / cm^3
# Si number density = 16.885613 Si / 1000 Ang^3
#
#
#
# Elastic Constant Matrix: (Units=GPa)
#
#
# Indices 1 2 3 4 5 6 
#
# 1 58.0626 22.4737 32.2587 0.0000 0.0000 0.0000
# 2 22.4737 58.0626 32.2587 0.0000 0.0000 0.0000
# 3 32.2587 32.2587 105.4051 0.0000 0.0000 0.0000
# 4 0.0000 0.0000 0.0000 11.9685 0.0000 0.0000
# 5 0.0000 0.0000 0.0000 0.0000 11.9685 0.0000
# 6 0.0000 0.0000 0.0000 0.0000 0.0000 17.7945
#
#
#
# Elastic Compliance Matrix: (Units=1/GPa)
#
#
# Indices 1 2 3 4 5 6 
#
# 1 0.022274 -0.005824 -0.005034 0.000000 0.000000 0.000000
# 2 -0.005824 0.022274 -0.005034 0.000000 0.000000 0.000000
# 3 -0.005034 -0.005034 0.012569 0.000000 0.000000 0.000000
# 4 0.000000 0.000000 0.000000 0.083553 0.000000 0.000000
# 5 0.000000 0.000000 0.000000 0.000000 0.083553 0.000000
# 6 0.000000 0.000000 0.000000 0.000000 0.000000 0.056197
#
#
# Mechanical properties :
#
#
# Convention : Reuss Voigt Hill
#
# Bulk Modulus (GPa) = 39.47770 43.94584 41.71177
# Shear Modulus (GPa) = 15.59333 17.31556 16.45445
#
# Velocity S-wave (km/s) = 3.04216 3.20576 3.12503
# Velocity P-wave (km/s) = 5.98079 6.30751 6.14632
#
# Compressibility (1/GPa) = 0.02533075
#
# Stress axis : x y z
#
# Youngs Moduli (GPa) = 44.89499 44.89499 79.56274
#
# Poissons Ratio (x) = 0.26149 0.40055
# Poissons Ratio (y) = 0.26149 0.40055
# Poissons Ratio (z) = 0.22602 0.22602
#
# Static dielectric constant tensor:
#      x y z
#    x 1.553060 0.000000 0.000000 
#    y 0.000000 1.553060 0.000000 
#    z 0.000000 0.000000 1.599710 
# 
# From -- ./inp_files/923.got.cif
#   From: 2010.05.17/outbox.cif.g08.bks.cpg/sg175_1_cif.got.tgz:923.got - 2010.05.20 11:23:22.
