data_PCOD9581953
_publ_section_title
;
Structure prediction by ZEFSAII (Michael W. Deem and Ramdas Pophale) SiO2 
 PCOD9581953
Probable space group: P 63/M
;
_chemical_formula_sum "Si O2"
_cell_formula_units_Z 72
_cell_length_a 22.912496
_cell_length_b 22.912496
_cell_length_c 8.848355
_cell_angle_alpha 90.000000
_cell_angle_beta 90.000000
_cell_angle_gamma 120.000000
_cell_volume 4022.888303
_symmetry_space_group_name_H-M "P 63/M"
_symmetry_group_IT_number 176
_symmetry_cell_setting 'hexagonal'
loop_
_space_group_symop_operation_xyz
x,y,z
x-y,x,1/2+z
-y,x-y,z
-x,-y,1/2+z
-x+y,-x,z
y,-x+y,1/2+z
-x,-y,-z
-x+y,-x,1/2-z
y,-x+y,-z
x,y,1/2-z
x-y,x,-z
-y,x-y,1/2-z
loop_
_atom_site_type_symbol
_atom_site_label
_atom_site_fract_x
_atom_site_fract_y
_atom_site_fract_z
Si Si1 0.881335 0.382807 0.427470
Si Si2 0.007787 0.753260 0.431802
Si Si3 0.709694 0.851823 0.932345
Si Si4 0.222620 0.775218 0.571696
Si Si5 0.636614 0.146867 0.571098
Si Si6 0.392112 0.381623 0.430413
O O1 0.897406 0.397541 0.250000
O O2 0.831460 0.303119 0.444714
O O3 0.848403 0.425099 0.489912
O O4 0.948918 0.401822 0.518749
O O5 0.012100 0.759131 0.250000
O O6 0.073337 0.815684 0.502463
O O7 0.006044 0.683404 0.470860
O O8 0.935999 0.744659 0.479062
O O9 0.711121 0.855403 0.750000
O O10 0.630645 0.810646 0.976900
O O11 0.239859 0.789428 0.750000
O O12 0.289789 0.795611 0.479816
O O13 0.628576 0.145850 0.750000
O O14 0.631100 0.077483 0.513694
O O15 0.400120 0.379463 0.250000
#
# Coordination Sequence:
#
# PCOD9581953 Si02
#       6
#    12  12  12  12  12  12
#     4  11  23  40  61  84 114 152 196 241 296 355
#     4  10  21  36  59  90 123 156 189 236 291 343
#     4  10  20  38  61  89 123 154 192 239 288 348
#     4  10  21  40  62  84 113 152 195 245 300 353
#     4  12  25  39  58  84 116 154 197 242 293 348
#     4  11  21  37  60  87 120 152 190 240 294 348
#
# _framework density 17.897589
#
# number of rings (size 3 to 8) (size 9 to 14) (size 15 to 20)
#    0.000    1.333    3.333    3.000    0.000    3.333 
#    1.000    0.000    0.000    0.333    0.000    0.000 
#    0.000    0.000    0.000    0.000    0.000    0.000 
#
# Total GULP energy -402441.197591 kJ/mol
# GULP energy per Si atom -5589.461078 kJ/mol
# Density = 1.785685 g / cm^3
# Si number density = 17.897589 Si / 1000 Ang^3
#
#
#
# Elastic Constant Matrix: (Units=GPa)
#
#
# Indices 1 2 3 4 5 6 
#
# 1 73.6684 15.7015 15.5914 0.0000 0.0000 0.0000
# 2 15.7015 73.6684 15.5914 0.0000 0.0000 0.0000
# 3 15.5914 15.5914 30.4429 0.0000 0.0000 0.0000
# 4 0.0000 0.0000 0.0000 30.8357 0.0000 0.0000
# 5 0.0000 0.0000 0.0000 0.0000 30.8357 0.0000
# 6 0.0000 0.0000 0.0000 0.0000 0.0000 28.9835
#
#
#
# Elastic Compliance Matrix: (Units=1/GPa)
#
#
# Indices 1 2 3 4 5 6 
#
# 1 0.015438 -0.001814 -0.006978 0.000000 0.000000 0.000000
# 2 -0.001814 0.015438 -0.006978 0.000000 0.000000 0.000000
# 3 -0.006978 -0.006978 0.039996 0.000000 0.000000 0.000000
# 4 0.000000 0.000000 0.000000 0.032430 0.000000 0.000000
# 5 0.000000 0.000000 0.000000 0.000000 0.032430 0.000000
# 6 0.000000 0.000000 0.000000 0.000000 0.000000 0.034502
#
#
# Mechanical properties :
#
#
# Convention : Reuss Voigt Hill
#
# Bulk Modulus (GPa) = 25.42374 30.17206 27.79790
# Shear Modulus (GPa) = 23.26859 26.85733 25.06296
#
# Velocity S-wave (km/s) = 3.60960 3.87798 3.74619
# Velocity P-wave (km/s) = 5.62212 6.07835 5.85468
#
# Compressibility (1/GPa) = 0.03933331
#
# Stress axis : x y z
#
# Youngs Moduli (GPa) = 64.77673 64.77673 25.00271
#
# Poissons Ratio (x) = 0.11748 0.17446
# Poissons Ratio (y) = 0.11748 0.17446
# Poissons Ratio (z) = 0.45199 0.45199
#
# Static dielectric constant tensor:
#      x y z
#    x 1.597020 0.000000 0.000000 
#    y 0.000000 1.597020 0.000000 
#    z 0.000000 0.000000 1.600360 
# 
# From -- ./inp_files/1187.got.cif
#   From: 2010.05.17/outbox.cif.g08.bks.cpg/sg176_1_cif.got.tgz:1187.got - 2010.06.03 11:36:45.
