data_PCOD9581423
_publ_section_title
;
Structure prediction by ZEFSAII (Michael W. Deem and Ramdas Pophale) SiO2 
 PCOD9581423
Probable space group: P 6/M
;
_chemical_formula_sum "Si O2"
_cell_formula_units_Z 54
_cell_length_a 14.158605
_cell_length_b 14.158605
_cell_length_c 15.004203
_cell_angle_alpha 90.000000
_cell_angle_beta 90.000000
_cell_angle_gamma 120.000000
_cell_volume 2604.860648
_symmetry_space_group_name_H-M "P 6/M"
_symmetry_group_IT_number 175
_symmetry_cell_setting 'hexagonal'
loop_
_space_group_symop_operation_xyz
x,y,z
x-y,x,z
-y,x-y,z
-x,-y,z
-x+y,-x,z
y,-x+y,z
-x,-y,-z
-x+y,-x,-z
y,-x+y,-z
x,y,-z
x-y,x,-z
-y,x-y,-z
loop_
_atom_site_type_symbol
_atom_site_label
_atom_site_fract_x
_atom_site_fract_y
_atom_site_fract_z
Si Si1 0.103339 0.503238 0.828145
Si Si2 0.311223 0.777508 0.000000
Si Si3 0.089375 0.833468 0.099163
Si Si4 0.251512 0.082917 0.393219
Si Si5 0.315069 0.406662 0.252614
O O1 0.888628 0.228906 0.823556
O O2 0.152383 0.617198 0.773954
O O3 0.037486 0.406510 0.757556
O O4 0.168386 0.484598 0.905500
O O5 0.223964 0.650184 0.000000
O O6 0.962835 0.798935 0.105914
O O7 0.106406 0.800222 0.000000
O O8 0.205317 0.163159 0.368112
O O9 0.263583 0.087460 0.500000
O O10 0.364181 0.113740 0.343985
O O11 0.500000 0.500000 0.121692
#
# Coordination Sequence:
#
# PCOD9581423 Si02
#       5
#    12   6  12  12  12
#     4   8  21  38  50  74 108 136 176 248 265 311
#     4  10  21  32  52  76  98 142 186 229 290 330
#     4  10  20  31  45  75 105 144 174 211 253 318
#     4  10  20  35  56  88 119 146 175 214 265 330
#     4   9  20  33  53  72 101 147 179 219 267 313
#
# _framework density 20.730474000000001
#
# number of rings (size 3 to 8) (size 9 to 14) (size 15 to 20)
#    1.556    0.889    0.000    2.111    3.111    5.333 
#    0.000    4.444    0.000    0.000    0.000    0.000 
#    0.000    0.000    0.000    0.000    0.000    0.000 
#
# Total GULP energy -300896.528310 kJ/mol
# GULP energy per Si atom -5572.157932 kJ/mol
# Density = 2.068329 g / cm^3
# Si number density = 20.730474 Si / 1000 Ang^3
#
#
#
# Elastic Constant Matrix: (Units=GPa)
#
#
# Indices 1 2 3 4 5 6 
#
# 1 59.1668 10.9144 25.1700 0.0000 0.0000 0.0000
# 2 10.9144 59.1668 25.1700 0.0000 0.0000 0.0000
# 3 25.1700 25.1700 55.0234 0.0000 0.0000 0.0000
# 4 0.0000 0.0000 0.0000 21.1333 0.0000 0.0000
# 5 0.0000 0.0000 0.0000 0.0000 21.1333 0.0000
# 6 0.0000 0.0000 0.0000 0.0000 0.0000 24.1262
#
#
#
# Elastic Compliance Matrix: (Units=1/GPa)
#
#
# Indices 1 2 3 4 5 6 
#
# 1 0.020988 0.000264 -0.009722 0.000000 0.000000 0.000000
# 2 0.000264 0.020988 -0.009722 0.000000 0.000000 0.000000
# 3 -0.009722 -0.009722 0.027068 0.000000 0.000000 0.000000
# 4 0.000000 0.000000 0.000000 0.047319 0.000000 0.000000
# 5 0.000000 0.000000 0.000000 0.000000 0.047319 0.000000
# 6 0.000000 0.000000 0.000000 0.000000 0.000000 0.041449
#
#
# Mechanical properties :
#
#
# Convention : Reuss Voigt Hill
#
# Bulk Modulus (GPa) = 32.58795 32.87398 32.73097
# Shear Modulus (GPa) = 19.70685 20.75206 20.22946
#
# Velocity S-wave (km/s) = 3.08656 3.16736 3.12722
# Velocity P-wave (km/s) = 5.33446 5.41003 5.37238
#
# Compressibility (1/GPa) = 0.03068618
#
# Stress axis : x y z
#
# Youngs Moduli (GPa) = 47.64545 47.64545 36.94353
#
# Poissons Ratio (x) = -0.01258 0.35916
# Poissons Ratio (y) = -0.01258 0.35916
# Poissons Ratio (z) = 0.46320 0.46320
#
# Static dielectric constant tensor:
#      x y z
#    x 1.798570 0.000000 0.000000 
#    y 0.000000 1.798570 0.000000 
#    z 0.000000 0.000000 1.715330 
# 
# From -- ./inp_files/2316.got.cif
#   From: 2010.05.17/outbox.cif.g08.bks.cpg/sg175_2_cif.got.tgz:2316.got - 2010.05.20 11:23:22.
