data_PCOD9581345
_publ_section_title
;
Structure prediction by ZEFSAII (Michael W. Deem and Ramdas Pophale) SiO2 
 PCOD9581345
Probable space group: P 6/M
;
_chemical_formula_sum "Si O2"
_cell_formula_units_Z 74
_cell_length_a 12.394311
_cell_length_b 12.394311
_cell_length_c 28.833837
_cell_angle_alpha 90.000000
_cell_angle_beta 90.000000
_cell_angle_gamma 120.000000
_cell_volume 3835.993383
_symmetry_space_group_name_H-M "P 6/M"
_symmetry_group_IT_number 175
_symmetry_cell_setting 'hexagonal'
loop_
_space_group_symop_operation_xyz
x,y,z
x-y,x,z
-y,x-y,z
-x,-y,z
-x+y,-x,z
y,-x+y,z
-x,-y,-z
-x+y,-x,-z
y,-x+y,-z
x,y,-z
x-y,x,-z
-y,x-y,-z
loop_
_atom_site_type_symbol
_atom_site_label
_atom_site_fract_x
_atom_site_fract_y
_atom_site_fract_z
Si Si1 0.724778 0.762376 0.549812
Si Si2 0.666667 0.333334 0.235675
Si Si3 0.909962 0.198951 0.000000
Si Si4 0.570851 0.648049 0.743382
Si Si5 0.735493 0.751958 0.834728
Si Si6 0.559407 0.920679 0.914737
Si Si7 0.666668 0.333334 0.875150
Si Si8 0.237662 0.962247 0.348764
O O1 0.757209 0.905320 0.549777
O O2 0.660428 0.706938 0.500000
O O3 0.665189 0.711068 0.600146
O O4 0.532506 0.309852 0.251830
O O5 0.666668 0.333334 0.180206
O O6 0.889458 0.260231 0.954351
O O7 0.052496 0.233111 0.000000
O O8 0.500000 0.500000 0.748164
O O9 0.670639 0.703725 0.784919
O O10 0.637522 0.689018 0.693980
O O11 0.754369 0.888782 0.839629
O O12 0.650979 0.656018 0.874599
O O13 0.451595 0.793414 0.892803
O O14 0.500000 0.000000 0.934882
O O15 0.244084 0.095013 0.345733
#
# Coordination Sequence:
#
# PCOD9581345 Si02
#       8
#    12   4   6  12  12  12   4  12
#     4   8  13  22  40  68 103 142 183 229 285 350
#     4  12  24  42  64  88 118 157 198 243 300 358
#     4  12  26  46  68  94 127 164 204 248 302 364
#     4  12  24  39  59  83 113 151 197 246 297 358
#     4  12  24  41  63  90 122 157 197 243 298 361
#     4  12  25  43  67  96 127 162 204 251 301 359
#     4  12  24  43  70  96 123 160 202 255 312 364
#     4  10  19  32  51  79 114 150 189 237 295 357
#
# _framework density 19.290962
#
# number of rings (size 3 to 8) (size 9 to 14) (size 15 to 20)
#    0.000    0.973    0.000   10.054    0.000    2.595 
#    0.000    3.243    0.000    0.486    0.000    1.135 
#    0.000    0.000    0.000    0.000    0.000    0.000 
#
# Total GULP energy -413635.325535 kJ/mol
# GULP energy per Si atom -5589.666561 kJ/mol
# Density = 1.924705 g / cm^3
# Si number density = 19.290962 Si / 1000 Ang^3
#
#
#
# Elastic Constant Matrix: (Units=GPa)
#
#
# Indices 1 2 3 4 5 6 
#
# 1 68.5257 8.8883 -3.6328 0.0000 0.0000 0.0003
# 2 8.8883 68.5255 -3.6329 0.0000 0.0000 -0.0001
# 3 -3.6328 -3.6329 74.0857 0.0000 0.0000 0.0005
# 4 0.0000 0.0000 0.0000 18.5794 -0.0005 0.0000
# 5 0.0000 0.0000 0.0000 -0.0005 18.5797 0.0000
# 6 0.0003 -0.0001 0.0005 0.0000 0.0000 29.8182
#
#
#
# Elastic Compliance Matrix: (Units=1/GPa)
#
#
# Indices 1 2 3 4 5 6 
#
# 1 0.014873 -0.001895 0.000636 0.000000 0.000000 0.000000
# 2 -0.001895 0.014873 0.000636 0.000000 0.000000 0.000000
# 3 0.000636 0.000636 0.013560 0.000000 0.000000 0.000000
# 4 0.000000 0.000000 0.000000 0.053823 0.000001 0.000000
# 5 0.000000 0.000000 0.000000 0.000001 0.053822 0.000000
# 6 0.000000 0.000000 0.000000 0.000000 0.000000 0.033537
#
#
# Mechanical properties :
#
#
# Convention : Reuss Voigt Hill
#
# Bulk Modulus (GPa) = 23.77539 23.82023 23.79781
# Shear Modulus (GPa) = 25.03092 27.36307 26.19699
#
# Velocity S-wave (km/s) = 3.60605 3.77030 3.68909
# Velocity P-wave (km/s) = 5.44881 5.59717 5.52349
#
# Compressibility (1/GPa) = 0.04206031
#
# Stress axis : x y z
#
# Youngs Moduli (GPa) = 67.23756 67.23731 73.74474
#
# Poissons Ratio (x) = 0.12744 -0.04693
# Poissons Ratio (y) = 0.12744 -0.04693
# Poissons Ratio (z) = -0.04279 -0.04279
#
# Static dielectric constant tensor:
#      x y z
#    x 1.651830 0.000000 0.000000 
#    y 0.000000 1.651830 0.000000 
#    z 0.000000 0.000000 1.696530 
# 
# From -- ./inp_files/3400.got.cif
#   From: 2010.05.17/outbox.cif.g08.bks.cpg/sg175_2_cif.got.tgz:3400.got - 2010.05.20 11:23:22.
