data_PCOD9581623
_publ_section_title
;
Structure prediction by ZEFSAII (Michael W. Deem and Ramdas Pophale) SiO2 
 PCOD9581623
Probable space group: P 6/M
;
_chemical_formula_sum "Si O2"
_cell_formula_units_Z 48
_cell_length_a 9.693539
_cell_length_b 9.693539
_cell_length_c 23.524152
_cell_angle_alpha 90.000000
_cell_angle_beta 90.000000
_cell_angle_gamma 120.000000
_cell_volume 1914.297061
_symmetry_space_group_name_H-M "P 6/M"
_symmetry_group_IT_number 175
_symmetry_cell_setting 'hexagonal'
loop_
_space_group_symop_operation_xyz
x,y,z
x-y,x,z
-y,x-y,z
-x,-y,z
-x+y,-x,z
y,-x+y,z
-x,-y,-z
-x+y,-x,-z
y,-x+y,-z
x,y,-z
x-y,x,-z
-y,x-y,-z
loop_
_atom_site_type_symbol
_atom_site_label
_atom_site_fract_x
_atom_site_fract_y
_atom_site_fract_z
Si Si1 0.739037 0.111748 0.939450
Si Si2 0.371232 0.109420 0.500000
Si Si3 0.896709 0.265273 0.622405
Si Si4 0.000000 0.500000 0.280278
Si Si5 0.264905 0.896181 0.816946
O O1 0.677977 0.133123 0.878414
O O2 0.929159 0.229159 0.939440
O O3 0.676949 0.137644 0.000000
O O4 0.299337 0.227076 0.500000
O O5 0.454706 0.131837 0.560905
O O6 0.077907 0.300926 0.624885
O O7 0.890055 0.359190 0.676512
O O8 0.889813 0.530640 0.237107
O O9 0.077471 0.776695 0.814467
#
# Coordination Sequence:
#
# PCOD9581623 Si02
#       5
#    12   6  12   6  12
#     4   8  13  24  49  83 114 139 175 234 300 353
#     4   8  15  31  62  94 120 140 179 237 296 346
#     4  10  21  41  66  94 118 150 191 241 293 347
#     4  12  24  35  49  84 120 158 196 228 282 330
#     4  10  21  40  62  87 114 152 199 246 294 348
#
# _framework density 25.074477000000002
#
# number of rings (size 3 to 8) (size 9 to 14) (size 15 to 20)
#    0.000    2.500    0.000    2.375    0.000    5.500 
#   12.000    3.125    0.000    0.000    0.000    0.000 
#    0.000    0.000    0.000    0.000    0.000    0.000 
#
# Total GULP energy -268324.209597 kJ/mol
# GULP energy per Si atom -5590.087700 kJ/mol
# Density = 2.501741 g / cm^3
# Si number density = 25.074477 Si / 1000 Ang^3
#
#
#
# Elastic Constant Matrix: (Units=GPa)
#
#
# Indices 1 2 3 4 5 6 
#
# 1 82.3063 24.5667 56.7372 0.0000 0.0000 0.0000
# 2 24.5667 82.3063 56.7372 0.0000 0.0000 0.0000
# 3 56.7372 56.7372 326.9516 0.0000 0.0000 0.0000
# 4 0.0000 0.0000 0.0000 16.5324 0.0000 0.0000
# 5 0.0000 0.0000 0.0000 0.0000 16.5324 0.0000
# 6 0.0000 0.0000 0.0000 0.0000 0.0000 28.8698
#
#
#
# Elastic Compliance Matrix: (Units=1/GPa)
#
#
# Indices 1 2 3 4 5 6 
#
# 1 0.014395 -0.002924 -0.001990 0.000000 0.000000 0.000000
# 2 -0.002924 0.014395 -0.001990 0.000000 0.000000 0.000000
# 3 -0.001990 -0.001990 0.003749 0.000000 0.000000 0.000000
# 4 0.000000 0.000000 0.000000 0.060487 0.000000 0.000000
# 5 0.000000 0.000000 0.000000 0.000000 0.060487 0.000000
# 6 0.000000 0.000000 0.000000 0.000000 0.000000 0.034638
#
#
# Mechanical properties :
#
#
# Convention : Reuss Voigt Hill
#
# Bulk Modulus (GPa) = 53.39567 85.29406 69.34486
# Shear Modulus (GPa) = 24.01480 35.95513 29.98496
#
# Velocity S-wave (km/s) = 3.09809 3.79084 3.46184
# Velocity P-wave (km/s) = 5.84283 7.29731 6.61020
#
# Compressibility (1/GPa) = 0.01872811
#
# Stress axis : x y z
#
# Youngs Moduli (GPa) = 69.46975 69.46975 266.70973
#
# Poissons Ratio (x) = 0.20316 0.53088
# Poissons Ratio (y) = 0.20316 0.53088
# Poissons Ratio (z) = 0.13828 0.13828
#
# Static dielectric constant tensor:
#      x y z
#    x 1.963120 0.000000 0.000000 
#    y 0.000000 1.963120 0.000000 
#    z 0.000000 0.000000 2.058850 
# 
# From -- ./inp_files/3194.got.cif
#   From: 2010.05.17/outbox.cif.g08.bks.cpg/sg175_2_cif.got.tgz:3194.got - 2010.05.20 11:23:22.
