data_PCOD9581066
_publ_section_title
;
Structure prediction by ZEFSAII (Michael W. Deem and Ramdas Pophale) SiO2 
 PCOD9581066
Probable space group: P 63
;
_chemical_formula_sum "Si O2"
_cell_formula_units_Z 36
_cell_length_a 8.293817
_cell_length_b 8.293817
_cell_length_c 29.808717
_cell_angle_alpha 90.000000
_cell_angle_beta 90.000000
_cell_angle_gamma 120.000000
_cell_volume 1775.754046
_symmetry_space_group_name_H-M "P 63"
_symmetry_group_IT_number 173
_symmetry_cell_setting 'hexagonal'
loop_
_space_group_symop_operation_xyz
x,y,z
x-y,x,1/2+z
-y,x-y,z
-x,-y,1/2+z
-x+y,-x,z
y,-x+y,1/2+z
loop_
_atom_site_type_symbol
_atom_site_label
_atom_site_fract_x
_atom_site_fract_y
_atom_site_fract_z
Si Si1 0.549215 0.875898 0.057740
Si Si2 0.214010 0.002451 0.645362
Si Si3 0.999676 0.334572 0.284220
Si Si4 0.210793 0.214692 0.969737
Si Si5 0.000037 0.332218 0.744286
Si Si6 0.120146 0.453970 0.383559
O O1 0.340297 0.843476 0.057583
O O2 0.665587 0.976998 0.101879
O O3 0.668314 0.977373 0.013954
O O4 0.002827 0.827864 0.645133
O O5 0.311907 0.998137 0.691018
O O6 0.072228 0.534097 0.261618
O O7 0.129541 0.260150 0.264792
O O8 0.021728 0.357737 0.337386
O O9 0.794821 0.200130 0.266325
O O10 0.330192 0.317613 0.926104
O O11 0.996923 0.171611 0.969667
O O12 0.333791 0.493315 0.384181
#
# Coordination Sequence:
#
# PCOD9581066 Si02
#       6
#     6   6   6   6   6   6
#     4  10  24  39  66  97 129 168 218 273 338 400
#     4  10  21  42  66  97 131 176 223 271 338 406
#     4  12  24  44  64 100 142 181 233 285 347 413
#     4  10  24  41  68  93 129 175 218 279 340 406
#     4  12  24  42  68  99 138 187 227 290 344 415
#     4  10  23  42  66  96 131 175 225 276 339 400
#
# _framework density 20.273076
#
# number of rings (size 3 to 8) (size 9 to 14) (size 15 to 20)
#    1.333    0.000    3.333    2.000    7.000    0.000 
#    0.000    0.000    0.000    0.667    0.000    0.000 
#    0.000    0.000    0.000    0.000    0.000    0.000 
#
# Total GULP energy -200746.809660 kJ/mol
# GULP energy per Si atom -5576.300268 kJ/mol
# Density = 2.022693 g / cm^3
# Si number density = 20.273076 Si / 1000 Ang^3
#
#
#
# Elastic Constant Matrix: (Units=GPa)
#
#
# Indices 1 2 3 4 5 6 
#
# 1 60.6860 15.6740 49.3834 0.0000 0.0000 0.0000
# 2 15.6740 60.6860 49.3834 0.0000 0.0000 0.0000
# 3 49.3834 49.3834 238.0731 0.0000 0.0000 0.0000
# 4 0.0000 0.0000 0.0000 52.9097 0.0000 0.0000
# 5 0.0000 0.0000 0.0000 0.0000 52.9097 0.0000
# 6 0.0000 0.0000 0.0000 0.0000 0.0000 22.5060
#
#
#
# Elastic Compliance Matrix: (Units=1/GPa)
#
#
# Indices 1 2 3 4 5 6 
#
# 1 0.020057 -0.002159 -0.003713 0.000000 0.000000 0.000000
# 2 -0.002159 0.020057 -0.003713 0.000000 0.000000 0.000000
# 3 -0.003713 -0.003713 0.005741 0.000000 0.000000 0.000000
# 4 0.000000 0.000000 0.000000 0.018900 0.000000 0.000000
# 5 0.000000 0.000000 0.000000 0.000000 0.018900 0.000000
# 6 0.000000 0.000000 0.000000 0.000000 0.000000 0.044433
#
#
# Mechanical properties :
#
#
# Convention : Reuss Voigt Hill
#
# Bulk Modulus (GPa) = 37.47277 65.36961 51.42119
# Shear Modulus (GPa) = 32.02019 41.99870 37.00944
#
# Velocity S-wave (km/s) = 3.97853 4.55647 4.27728
# Velocity P-wave (km/s) = 6.29517 7.74574 7.05782
#
# Compressibility (1/GPa) = 0.02668605
#
# Stress axis : x y z
#
# Youngs Moduli (GPa) = 49.85777 49.85777 174.19871
#
# Poissons Ratio (x) = 0.10766 0.64672
# Poissons Ratio (y) = 0.10766 0.64672
# Poissons Ratio (z) = 0.18510 0.18510
#
# Static dielectric constant tensor:
#      x y z
#    x 1.670880 0.000000 0.000000 
#    y 0.000000 1.670880 0.000000 
#    z 0.000000 0.000000 1.660410 
# 
# From -- ./inp_files/1475.got.cif
#   From: 2010.05.17/outbox.cif.g08.bks.cpg/sg173_cif.got.tgz:1475.got - 2010.05.20 11:21:53.
