data_PCOD9581538
_publ_section_title
;
Structure prediction by ZEFSAII (Michael W. Deem and Ramdas Pophale) SiO2 
 PCOD9581538
Probable space group: P 6/M
;
_chemical_formula_sum "Si O2"
_cell_formula_units_Z 66
_cell_length_a 22.258952
_cell_length_b 22.258952
_cell_length_c 7.656459
_cell_angle_alpha 90.000000
_cell_angle_beta 90.000000
_cell_angle_gamma 120.000000
_cell_volume 3285.246935
_symmetry_space_group_name_H-M "P 6/M"
_symmetry_group_IT_number 175
_symmetry_cell_setting 'hexagonal'
loop_
_space_group_symop_operation_xyz
x,y,z
x-y,x,z
-y,x-y,z
-x,-y,z
-x+y,-x,z
y,-x+y,z
-x,-y,-z
-x+y,-x,-z
y,-x+y,-z
x,y,-z
x-y,x,-z
-y,x-y,-z
loop_
_atom_site_type_symbol
_atom_site_label
_atom_site_fract_x
_atom_site_fract_y
_atom_site_fract_z
Si Si1 0.526618 0.673612 0.000000
Si Si2 0.069343 0.708665 0.209110
Si Si3 0.032811 0.450751 0.702810
Si Si4 0.771000 0.065037 0.798938
Si Si5 0.098292 0.939699 0.711379
Si Si6 0.228111 0.801698 0.312426
O O1 0.531280 0.623725 0.155326
O O2 0.527969 0.727048 0.152756
O O3 0.145517 0.751697 0.286895
O O4 0.027726 0.628506 0.264358
O O5 0.014151 0.733839 0.256805
O O6 0.077140 0.714352 0.000000
O O7 0.056132 0.456962 0.500000
O O8 0.000000 0.500000 0.726088
O O9 0.849539 0.082942 0.787785
O O10 0.761259 0.120633 0.693321
O O11 0.752664 0.072911 0.000000
O O12 0.101550 0.937467 0.500000
O O13 0.019074 0.892257 0.764174
O O14 0.248604 0.787350 0.500000
#
# Coordination Sequence:
#
# PCOD9581538 Si02
#       6
#     6  12  12  12  12  12
#     4  12  21  40  58  88 125 162 199 246 297 362
#     4  11  21  38  58  85 125 162 200 251 305 365
#     4  11  23  40  65  94 128 168 208 255 315 385
#     4  11  21  36  53  77 110 146 188 241 300 358
#     4  10  21  35  49  65  89 129 183 240 294 346
#     4  12  23  36  58  85 120 165 206 249 304 362
#
# _framework density 20.089812999999999
#
# number of rings (size 3 to 8) (size 9 to 14) (size 15 to 20)
#    0.000    0.909    4.545    3.182    0.000    6.545 
#    0.000    0.000    0.000    1.091    0.000    0.000 
#    7.273    0.000    4.364    0.000    0.000    0.000 
#
# Total GULP energy -367445.096320 kJ/mol
# GULP energy per Si atom -5567.349944 kJ/mol
# Density = 2.004409 g / cm^3
# Si number density = 20.089813 Si / 1000 Ang^3
#
#
#
# Elastic Constant Matrix: (Units=GPa)
#
#
# Indices 1 2 3 4 5 6 
#
# 1 26.2076 -12.1721 -4.0073 0.0000 0.0000 0.0000
# 2 -12.1721 26.2076 -4.0073 0.0000 0.0000 0.0000
# 3 -4.0073 -4.0073 115.8171 0.0000 0.0000 0.0000
# 4 0.0000 0.0000 0.0000 16.4327 0.0000 0.0000
# 5 0.0000 0.0000 0.0000 0.0000 16.4327 0.0000
# 6 0.0000 0.0000 0.0000 0.0000 0.0000 19.1898
#
#
#
# Elastic Compliance Matrix: (Units=1/GPa)
#
#
# Indices 1 2 3 4 5 6 
#
# 1 0.049370 0.023314 0.002515 0.000000 0.000000 0.000000
# 2 0.023314 0.049370 0.002515 0.000000 0.000000 0.000000
# 3 0.002515 0.002515 0.008808 0.000000 0.000000 0.000000
# 4 0.000000 0.000000 0.000000 0.060854 0.000000 0.000000
# 5 0.000000 0.000000 0.000000 0.000000 0.060854 0.000000
# 6 0.000000 0.000000 0.000000 0.000000 0.000000 0.052111
#
#
# Mechanical properties :
#
#
# Convention : Reuss Voigt Hill
#
# Bulk Modulus (GPa) = 6.08880 14.20656 10.14768
# Shear Modulus (GPa) = 17.89392 22.97231 20.43311
#
# Velocity S-wave (km/s) = 2.98769 3.38521 3.19264
# Velocity P-wave (km/s) = 3.86511 4.72931 4.31888
#
# Compressibility (1/GPa) = 0.16423589
#
# Stress axis : x y z
#
# Youngs Moduli (GPa) = 20.25531 20.25531 113.52891
#
# Poissons Ratio (x) = -0.47224 -0.28551
# Poissons Ratio (y) = -0.47224 -0.28551
# Poissons Ratio (z) = -0.05094 -0.05094
#
# Static dielectric constant tensor:
#      x y z
#    x 1.727720 0.000000 0.000000 
#    y 0.000000 1.727720 0.000000 
#    z 0.000000 0.000000 1.751610 
# 
# From -- ./inp_files/1001.got.cif
#   From: 2010.05.17/outbox.cif.g08.bks.cpg/sg175_1_cif.got.tgz:1001.got - 2010.05.20 11:23:22.
