data_PCOD9581740
_publ_section_title
;
Structure prediction by ZEFSAII (Michael W. Deem and Ramdas Pophale) SiO2 
 PCOD9581740
Probable space group: P 63/M
;
_chemical_formula_sum "Si O2"
_cell_formula_units_Z 64
_cell_length_a 14.219247
_cell_length_b 14.219247
_cell_length_c 18.133048
_cell_angle_alpha 90.000000
_cell_angle_beta 90.000000
_cell_angle_gamma 120.000000
_cell_volume 3175.079760
_symmetry_space_group_name_H-M "P 63/M"
_symmetry_group_IT_number 176
_symmetry_cell_setting 'hexagonal'
loop_
_space_group_symop_operation_xyz
x,y,z
x-y,x,1/2+z
-y,x-y,z
-x,-y,1/2+z
-x+y,-x,z
y,-x+y,1/2+z
-x,-y,-z
-x+y,-x,1/2-z
y,-x+y,-z
x,y,1/2-z
x-y,x,-z
-y,x-y,1/2-z
loop_
_atom_site_type_symbol
_atom_site_label
_atom_site_fract_x
_atom_site_fract_y
_atom_site_fract_z
Si Si1 0.448491 0.000434 0.162833
Si Si2 0.666667 0.333334 0.339328
Si Si3 0.794937 0.129357 0.835776
Si Si4 0.427945 0.212405 0.162144
Si Si5 0.789354 0.791028 0.027796
Si Si6 0.010107 0.656965 0.404657
O O1 0.482886 0.012743 0.250000
O O2 0.328697 0.895569 0.156285
O O3 0.429115 0.101646 0.146321
O O4 0.538576 0.994664 0.113317
O O5 0.666667 0.333334 0.250000
O O6 0.756610 0.451905 0.362344
O O7 0.811009 0.114371 0.750000
O O8 0.802579 0.042572 0.888766
O O9 0.884980 0.247021 0.864110
O O10 0.417363 0.214589 0.250000
O O11 0.350149 0.250719 0.127660
O O12 0.901484 0.794656 0.014272
O O13 0.695086 0.681396 0.988880
#
# Coordination Sequence:
#
# PCOD9581740 Si02
#       6
#    12   4  12  12  12  12
#     4  10  20  34  56  88 123 160 204 255 302 362
#     4   9  15  24  45  81 120 150 184 230 301 375
#     4  10  22  40  59  85 122 164 211 254 305 373
#     4  10  17  29  53  87 124 158 195 246 312 376
#     4  10  22  41  64  90 122 163 207 261 323 374
#     4  11  21  36  61  88 121 165 209 256 316 374
#
# _framework density 20.156974000000002
#
# number of rings (size 3 to 8) (size 9 to 14) (size 15 to 20)
#    0.000    1.875    1.875    3.000    0.000    0.750 
#    1.125    4.688    0.000    0.750    0.000    2.625 
#    0.000    0.000    0.000    0.000    0.000    0.000 
#
# Total GULP energy -357004.407217 kJ/mol
# GULP energy per Si atom -5578.193863 kJ/mol
# Density = 2.011110 g / cm^3
# Si number density = 20.156974 Si / 1000 Ang^3
#
#
#
# Elastic Constant Matrix: (Units=GPa)
#
#
# Indices 1 2 3 4 5 6 
#
# 1 89.6423 53.2953 37.9391 0.0000 0.0000 0.0003
# 2 53.2953 89.6418 37.9390 0.0000 0.0000 0.0001
# 3 37.9391 37.9390 95.0814 0.0000 0.0000 0.0000
# 4 0.0000 0.0000 0.0000 10.2596 0.0000 0.0000
# 5 0.0000 0.0000 0.0000 0.0000 10.2596 0.0000
# 6 0.0003 0.0001 0.0000 0.0000 0.0000 18.1731
#
#
#
# Elastic Compliance Matrix: (Units=1/GPa)
#
#
# Indices 1 2 3 4 5 6 
#
# 1 0.018194 -0.009318 -0.003542 0.000000 0.000000 0.000000
# 2 -0.009318 0.018195 -0.003542 0.000000 0.000000 0.000000
# 3 -0.003542 -0.003542 0.013344 0.000000 0.000000 0.000000
# 4 0.000000 0.000000 0.000000 0.097469 0.000000 0.000000
# 5 0.000000 0.000000 0.000000 0.000000 0.097470 0.000000
# 6 0.000000 0.000000 0.000000 0.000000 0.000000 0.055026
#
#
# Mechanical properties :
#
#
# Convention : Reuss Voigt Hill
#
# Bulk Modulus (GPa) = 59.06972 59.19023 59.12998
# Shear Modulus (GPa) = 14.78654 17.41793 16.10224
#
# Velocity S-wave (km/s) = 2.71139 2.94277 2.82945
# Velocity P-wave (km/s) = 6.25864 6.40117 6.33031
#
# Compressibility (1/GPa) = 0.01692915
#
# Stress axis : x y z
#
# Youngs Moduli (GPa) = 54.96184 54.96163 74.94150
#
# Poissons Ratio (x) = 0.51215 0.26542
# Poissons Ratio (y) = 0.51215 0.26542
# Poissons Ratio (z) = 0.19466 0.19466
#
# Static dielectric constant tensor:
#      x y z
#    x 1.730800 0.000000 0.000000 
#    y 0.000000 1.730800 0.000000 
#    z 0.000000 0.000000 1.731220 
# 
# From -- ./inp_files/3298.got.cif
#   From: 2010.05.17/outbox.cif.g08.bks.cpg/sg176_2_cif.got.tgz:3298.got - 2010.06.03 11:36:45.
