data_PCOD9581072
_publ_section_title
;
Structure prediction by ZEFSAII (Michael W. Deem and Ramdas Pophale) SiO2 
 PCOD9581072
Probable space group: P 63
;
_chemical_formula_sum "Si O2"
_cell_formula_units_Z 40
_cell_length_a 8.626653
_cell_length_b 8.626653
_cell_length_c 31.588437
_cell_angle_alpha 90.000000
_cell_angle_beta 90.000000
_cell_angle_gamma 120.000000
_cell_volume 2035.838990
_symmetry_space_group_name_H-M "P 63"
_symmetry_group_IT_number 173
_symmetry_cell_setting 'hexagonal'
loop_
_space_group_symop_operation_xyz
x,y,z
x-y,x,1/2+z
-y,x-y,z
-x,-y,1/2+z
-x+y,-x,z
y,-x+y,1/2+z
loop_
_atom_site_type_symbol
_atom_site_label
_atom_site_fract_x
_atom_site_fract_y
_atom_site_fract_z
Si Si1 0.656837 0.689177 0.372970
Si Si2 0.666667 0.333333 0.088744
Si Si3 0.339768 0.295785 0.500191
Si Si4 0.043983 0.339768 0.277778
Si Si5 0.967661 0.656837 0.404999
Si Si6 0.636930 0.675616 0.746569
Si Si7 0.666668 0.333334 0.189224
Si Si8 0.675616 0.038685 0.031400
O O1 0.633245 0.745333 0.325893
O O2 0.835305 0.677219 0.373509
O O3 0.500000 0.500000 0.388984
O O4 0.677219 0.841915 0.404460
O O5 0.666668 0.333334 0.138984
O O6 0.685527 0.166437 0.070424
O O7 0.366756 0.254667 0.452076
O O8 0.489980 0.500961 0.507051
O O9 0.152984 0.290441 0.507032
O O10 0.352570 0.160776 0.533545
O O11 0.191795 0.352571 0.244423
O O12 0.989019 0.489980 0.270918
O O13 0.862543 0.152984 0.270936
O O14 0.519089 0.685525 0.707545
#
# Coordination Sequence:
#
# PCOD9581072 Si02
#       8
#     6   2   6   6   6   6   2   6
#     4  12  24  36  53  80 117 164 212 263 303 334
#     4   9  21  45  69  96 120 141 183 243 309 381
#     4  11  20  38  55  85 120 161 209 247 295 361
#     4  11  20  38  55  85 120 161 209 247 295 361
#     4  12  24  36  53  80 117 164 212 263 303 334
#     4  10  22  37  64  87 118 158 193 243 301 362
#     4   9  21  45  69  96 120 141 183 243 309 381
#     4  10  22  37  64  87 118 158 193 243 301 362
#
# _framework density 19.647917
#
# number of rings (size 3 to 8) (size 9 to 14) (size 15 to 20)
#    0.000    1.200    0.000    8.100    0.000    0.000 
#    0.000    6.000    0.000    0.000    0.000    0.000 
#    0.000    0.000    0.000    0.000    0.000    0.000 
#
# Total GULP energy -223130.487749 kJ/mol
# GULP energy per Si atom -5578.262194 kJ/mol
# Density = 1.960320 g / cm^3
# Si number density = 19.647917 Si / 1000 Ang^3
#
#
#
# Elastic Constant Matrix: (Units=GPa)
#
#
# Indices 1 2 3 4 5 6 
#
# 1 87.9014 12.9421 12.6599 0.0000 0.0000 0.0000
# 2 12.9421 87.9017 12.6600 0.0000 0.0000 0.0000
# 3 12.6599 12.6600 110.9964 0.0000 0.0000 0.0000
# 4 0.0000 0.0000 0.0000 15.2521 0.0000 0.0000
# 5 0.0000 0.0000 0.0000 0.0000 15.2520 0.0000
# 6 0.0000 0.0000 0.0000 0.0000 0.0000 37.4797
#
#
#
# Elastic Compliance Matrix: (Units=1/GPa)
#
#
# Indices 1 2 3 4 5 6 
#
# 1 0.011775 -0.001566 -0.001164 0.000000 0.000000 0.000000
# 2 -0.001566 0.011775 -0.001164 0.000000 0.000000 0.000000
# 3 -0.001164 -0.001164 0.009275 0.000000 0.000000 0.000000
# 4 0.000000 0.000000 0.000000 0.065565 0.000000 0.000000
# 5 0.000000 0.000000 0.000000 0.000000 0.065565 0.000000
# 6 0.000000 0.000000 0.000000 0.000000 0.000000 0.026681
#
#
# Mechanical properties :
#
#
# Convention : Reuss Voigt Hill
#
# Bulk Modulus (GPa) = 39.94441 40.36928 40.15685
# Shear Modulus (GPa) = 24.18153 30.16594 27.17373
#
# Velocity S-wave (km/s) = 3.51200 3.92257 3.72295
# Velocity P-wave (km/s) = 6.06793 6.41143 6.24204
#
# Compressibility (1/GPa) = 0.02503479
#
# Stress axis : x y z
#
# Youngs Moduli (GPa) = 84.92830 84.92855 107.81777
#
# Poissons Ratio (x) = 0.13299 0.12554
# Poissons Ratio (y) = 0.13299 0.12554
# Poissons Ratio (z) = 0.09889 0.09889
#
# Static dielectric constant tensor:
#      x y z
#    x 1.708330 0.000000 0.000000 
#    y 0.000000 1.708330 0.000000 
#    z 0.000000 0.000000 1.639610 
# 
# From -- ./inp_files/1506.got.cif
#   From: 2010.05.17/outbox.cif.g08.bks.cpg/sg173_cif.got.tgz:1506.got - 2010.05.20 11:21:53.
