data_PCOD9581207
_publ_section_title
;
Structure prediction by ZEFSAII (Michael W. Deem and Ramdas Pophale) SiO2 
 PCOD9581207
Probable space group: P -6
;
_chemical_formula_sum "Si O2"
_cell_formula_units_Z 24
_cell_length_a 8.763787
_cell_length_b 8.763787
_cell_length_c 19.125312
_cell_angle_alpha 90.000000
_cell_angle_beta 90.000000
_cell_angle_gamma 120.000000
_cell_volume 1272.104497
_symmetry_space_group_name_H-M "P -6"
_symmetry_group_IT_number 174
_symmetry_cell_setting 'hexagonal'
loop_
_space_group_symop_operation_xyz
x,y,z
-x+y,-x,-z
-y,x-y,z
x,y,-z
-x+y,-x,z
-y,x-y,-z
loop_
_atom_site_type_symbol
_atom_site_label
_atom_site_fract_x
_atom_site_fract_y
_atom_site_fract_z
Si Si1 0.991284 0.328415 0.583144
Si Si2 0.007541 0.671492 0.359621
Si Si3 0.189058 0.210377 0.079825
Si Si4 0.538949 0.862126 0.206783
O O1 0.968123 0.312465 0.500000
O O2 0.956579 0.479740 0.611998
O O3 0.187597 0.376504 0.603804
O O4 0.856387 0.144649 0.619125
O O5 0.041859 0.680804 0.276965
O O6 0.303177 0.349293 0.138151
O O7 0.981827 0.154044 0.087790
O O8 0.242457 0.270701 0.000000
O O9 0.342461 0.835363 0.207641
#
# Coordination Sequence:
#
# PCOD9581207 Si02
#       4
#     6   6   6   6
#     4  12  24  42  64  87 122 165 212 270 334 394
#     4  12  25  43  62  94 125 163 218 271 327 397
#     4   8  18  35  60  91 121 161 209 253 306 369
#     4  10  21  38  58  92 126 161 209 256 319 372
#
# _framework density 18.866377
#
# number of rings (size 3 to 8) (size 9 to 14) (size 15 to 20)
#    1.000    0.500    2.500    3.750    3.500    1.000 
#    0.000    0.000    0.000    1.000    0.000    0.000 
#    0.000    0.000    0.000    0.000    0.000    0.000 
#
# Total GULP energy -133884.706152 kJ/mol
# GULP energy per Si atom -5578.529423 kJ/mol
# Density = 1.882344 g / cm^3
# Si number density = 18.866377 Si / 1000 Ang^3
#
#
#
# Elastic Constant Matrix: (Units=GPa)
#
#
# Indices 1 2 3 4 5 6 
#
# 1 38.6607 -10.0150 28.4603 0.0000 0.0000 0.0000
# 2 -10.0150 38.6607 28.4603 0.0000 0.0000 0.0000
# 3 28.4603 28.4603 167.9130 0.0000 0.0000 0.0000
# 4 0.0000 0.0000 0.0000 113.6047 0.0000 0.0000
# 5 0.0000 0.0000 0.0000 0.0000 113.6047 0.0000
# 6 0.0000 0.0000 0.0000 0.0000 0.0000 24.3378
#
#
#
# Elastic Compliance Matrix: (Units=1/GPa)
#
#
# Indices 1 2 3 4 5 6 
#
# 1 0.036591 0.016047 -0.008922 0.000000 0.000000 0.000000
# 2 0.016047 0.036591 -0.008922 0.000000 0.000000 0.000000
# 3 -0.008922 -0.008922 0.008980 0.000000 0.000000 0.000000
# 4 0.000000 0.000000 0.000000 0.008802 0.000000 0.000000
# 5 0.000000 0.000000 0.000000 0.000000 0.008802 0.000000
# 6 0.000000 0.000000 0.000000 0.000000 0.000000 0.041088
#
#
# Mechanical properties :
#
#
# Convention : Reuss Voigt Hill
#
# Bulk Modulus (GPa) = 12.72788 37.67172 25.19980
# Shear Modulus (GPa) = 29.30188 63.53138 46.41663
#
# Velocity S-wave (km/s) = 3.94525 5.80926 4.96551
# Velocity P-wave (km/s) = 5.24541 8.06273 6.80154
#
# Compressibility (1/GPa) = 0.07856768
#
# Stress axis : x y z
#
# Youngs Moduli (GPa) = 27.32929 27.32929 111.36059
#
# Poissons Ratio (x) = -0.43854 0.99353
# Poissons Ratio (y) = -0.43854 0.99353
# Poissons Ratio (z) = 0.24383 0.24383
#
# Static dielectric constant tensor:
#      x y z
#    x 1.662630 0.000000 0.000000 
#    y 0.000000 1.662630 0.000000 
#    z 0.000000 0.000000 1.617980 
# 
# From -- ./inp_files/1033.got.cif
#   From: 2010.05.17/outbox.cif.g08.bks.cpg/sg174_cif.got.tgz:1033.got - 2010.05.20 11:22:48.
