data_PCOD9581888
_publ_section_title
;
Structure prediction by ZEFSAII (Michael W. Deem and Ramdas Pophale) SiO2 
 PCOD9581888
Probable space group: P 63/M
;
_chemical_formula_sum "Si O2"
_cell_formula_units_Z 84
_cell_length_a 14.701922
_cell_length_b 14.701922
_cell_length_c 28.559385
_cell_angle_alpha 90.000000
_cell_angle_beta 90.000000
_cell_angle_gamma 120.000000
_cell_volume 5345.984699
_symmetry_space_group_name_H-M "P 63/M"
_symmetry_group_IT_number 176
_symmetry_cell_setting 'hexagonal'
loop_
_space_group_symop_operation_xyz
x,y,z
x-y,x,1/2+z
-y,x-y,z
-x,-y,1/2+z
-x+y,-x,z
y,-x+y,1/2+z
-x,-y,-z
-x+y,-x,1/2-z
y,-x+y,-z
x,y,1/2-z
x-y,x,-z
-y,x-y,1/2-z
loop_
_atom_site_type_symbol
_atom_site_label
_atom_site_fract_x
_atom_site_fract_y
_atom_site_fract_z
Si Si1 0.011214 0.535172 0.897161
Si Si2 0.352791 0.559354 0.546553
Si Si3 0.228699 0.876979 0.097439
Si Si4 0.915225 0.445279 0.697588
Si Si5 0.195233 0.416347 0.197025
Si Si6 0.084265 0.667522 0.039728
Si Si7 0.201891 0.993415 0.485376
O O1 0.927047 0.572950 0.906426
O O2 0.998609 0.499902 0.843490
O O3 0.982928 0.435587 0.929734
O O4 0.125705 0.626513 0.912057
O O5 0.438739 0.683101 0.548626
O O6 0.356894 0.505769 0.498663
O O7 0.202653 0.861514 0.152775
O O8 0.164877 0.763714 0.072498
O O9 0.201641 0.952570 0.067009
O O10 0.960350 0.466041 0.750000
O O11 0.848774 0.320316 0.690610
O O12 0.838443 0.494420 0.695102
O O13 0.169260 0.371113 0.250000
O O14 0.015249 0.706966 0.011618
O O15 0.199925 0.101108 0.488495
#
# Coordination Sequence:
#
# PCOD9581888 Si02
#       7
#    12  12  12  12  12  12  12
#     4  11  20  32  50  72 107 136 180 208 257 319
#     4  10  23  34  49  69 104 142 180 214 261 301
#     4  10  20  32  48  77 102 139 172 213 261 309
#     4   9  17  29  47  71 103 136 170 216 263 314
#     4   9  16  29  46  71 102 135 171 210 261 314
#     4  11  20  33  49  75 102 138 172 220 256 309
#     4  10  22  35  53  71 102 132 173 214 262 316
#
# _framework density 15.712728
#
# number of rings (size 3 to 8) (size 9 to 14) (size 15 to 20)
#    0.286    1.714    2.857    1.714    4.000    1.143 
#    0.857    0.000    0.000    0.857    0.000    7.000 
#    0.000    0.000    0.000    0.000    0.000    0.000 
#
# Total GULP energy -467976.885929 kJ/mol
# GULP energy per Si atom -5571.153404 kJ/mol
# Density = 1.567697 g / cm^3
# Si number density = 15.712728 Si / 1000 Ang^3
#
#
#
# Elastic Constant Matrix: (Units=GPa)
#
#
# Indices 1 2 3 4 5 6 
#
# 1 58.0493 19.6658 42.7792 0.0000 0.0000 0.0000
# 2 19.6658 58.0493 42.7792 0.0000 0.0000 0.0000
# 3 42.7792 42.7792 138.4966 0.0000 0.0000 0.0000
# 4 0.0000 0.0000 0.0000 20.2143 0.0000 0.0000
# 5 0.0000 0.0000 0.0000 0.0000 20.2143 0.0000
# 6 0.0000 0.0000 0.0000 0.0000 0.0000 19.1918
#
#
#
# Elastic Compliance Matrix: (Units=1/GPa)
#
#
# Indices 1 2 3 4 5 6 
#
# 1 0.022775 -0.003277 -0.006023 0.000000 0.000000 0.000000
# 2 -0.003277 0.022775 -0.006023 0.000000 0.000000 0.000000
# 3 -0.006023 -0.006023 0.010941 0.000000 0.000000 0.000000
# 4 0.000000 0.000000 0.000000 0.049470 0.000000 0.000000
# 5 0.000000 0.000000 0.000000 0.000000 0.049470 0.000000
# 6 0.000000 0.000000 0.000000 0.000000 0.000000 0.052106
#
#
# Mechanical properties :
#
#
# Convention : Reuss Voigt Hill
#
# Bulk Modulus (GPa) = 38.69004 51.67151 45.18077
# Shear Modulus (GPa) = 20.25951 21.88216 21.07084
#
# Velocity S-wave (km/s) = 3.59467 3.73586 3.66595
# Velocity P-wave (km/s) = 6.47346 7.18090 6.83634
#
# Compressibility (1/GPa) = 0.02584645
#
# Stress axis : x y z
#
# Youngs Moduli (GPa) = 43.90712 43.90712 91.40000
#
# Poissons Ratio (x) = 0.14390 0.55046
# Poissons Ratio (y) = 0.14390 0.55046
# Poissons Ratio (z) = 0.26443 0.26443
#
# Static dielectric constant tensor:
#      x y z
#    x 1.518420 0.000000 0.000000 
#    y 0.000000 1.518420 0.000000 
#    z 0.000000 0.000000 1.537920 
# 
# From -- ./inp_files/4308.got.cif
#   From: 2010.05.17/outbox.cif.g08.bks.cpg/sg176_3_cif.got.tgz:4308.got - 2010.06.03 11:36:45.
