data_PCOD9581412
_publ_section_title
;
Structure prediction by ZEFSAII (Michael W. Deem and Ramdas Pophale) SiO2 
 PCOD9581412
Probable space group: P 6/M
;
_chemical_formula_sum "Si O2"
_cell_formula_units_Z 46
_cell_length_a 18.152632
_cell_length_b 18.152632
_cell_length_c 9.010599
_cell_angle_alpha 90.000000
_cell_angle_beta 90.000000
_cell_angle_gamma 120.000000
_cell_volume 2571.363657
_symmetry_space_group_name_H-M "P 6/M"
_symmetry_group_IT_number 175
_symmetry_cell_setting 'hexagonal'
loop_
_space_group_symop_operation_xyz
x,y,z
x-y,x,z
-y,x-y,z
-x,-y,z
-x+y,-x,z
y,-x+y,z
-x,-y,-z
-x+y,-x,-z
y,-x+y,-z
x,y,-z
x-y,x,-z
-y,x-y,-z
loop_
_atom_site_type_symbol
_atom_site_label
_atom_site_fract_x
_atom_site_fract_y
_atom_site_fract_z
Si Si1 0.599860 0.043758 0.675722
Si Si2 0.333334 0.666667 0.323184
Si Si3 0.273073 0.351900 0.833052
Si Si4 0.152861 0.191133 0.000000
Si Si5 0.729634 0.220610 0.823691
O O1 0.609322 0.061051 0.500000
O O2 0.655859 0.131005 0.763316
O O3 0.500000 0.000000 0.712775
O O4 0.632525 0.979344 0.721334
O O5 0.333334 0.666668 0.500000
O O6 0.277190 0.705248 0.259612
O O7 0.230519 0.408675 0.796706
O O8 0.312562 0.379905 0.000000
O O9 0.201974 0.253942 0.861174
O O10 0.055146 0.165828 0.000000
O O11 0.719989 0.226616 0.000000
#
# Coordination Sequence:
#
# PCOD9581412 Si02
#       5
#    12   4  12   6  12
#     4  11  23  37  56  84 119 158 199 245 300 357
#     4  12  25  38  55  84 124 164 208 252 295 350
#     4   9  21  37  59  83 114 150 194 248 294 357
#     4  10  19  36  61  90 116 144 184 242 304 366
#     4  11  22  39  60  84 114 157 202 252 298 350
#
# _framework density 17.889341999999999
#
# number of rings (size 3 to 8) (size 9 to 14) (size 15 to 20)
#    0.783    0.783    0.000    5.609    0.000    8.348 
#    0.000    0.000    0.000    0.000    0.000    0.000 
#    0.000    4.174    0.000    0.000    0.000    0.000 
#
# Total GULP energy -256737.635283 kJ/mol
# GULP energy per Si atom -5581.252941 kJ/mol
# Density = 1.784862 g / cm^3
# Si number density = 17.889342 Si / 1000 Ang^3
#
#
#
# Elastic Constant Matrix: (Units=GPa)
#
#
# Indices 1 2 3 4 5 6 
#
# 1 105.5606 36.1266 28.6922 0.0000 0.0000 0.0007
# 2 36.1266 105.5608 28.6922 0.0000 0.0000 0.0006
# 3 28.6922 28.6922 57.7739 0.0000 0.0000 0.0005
# 4 0.0000 0.0000 0.0000 -16.6894 -0.0024 0.0000
# 5 0.0000 0.0000 0.0000 -0.0024 -16.6873 0.0000
# 6 0.0007 0.0006 0.0005 0.0000 0.0000 34.7171
#
#
#
# Elastic Compliance Matrix: (Units=1/GPa)
#
#
# Indices 1 2 3 4 5 6 
#
# 1 0.011618 -0.002784 -0.004388 0.000000 0.000000 0.000000
# 2 -0.002784 0.011618 -0.004388 0.000000 0.000000 0.000000
# 3 -0.004388 -0.004388 0.021667 0.000000 0.000000 0.000000
# 4 0.000000 0.000000 0.000000 -0.059918 0.000009 0.000000
# 5 0.000000 0.000000 0.000000 0.000009 -0.059926 0.000000
# 6 0.000000 0.000000 0.000000 0.000000 0.000000 0.028804
#
#
# Mechanical properties :
#
#
# Convention : Reuss Voigt Hill
#
# Bulk Modulus (GPa) = 45.90099 50.65748 48.27923
# Shear Modulus (GPa) = -317.33774 11.96037 -152.68868
#
# Velocity S-wave (km/s) = -13.33321 2.58849 -9.24862
# Velocity P-wave (km/s) = 14.53680 6.10838 9.32755
#
# Compressibility (1/GPa) = 0.02178602
#
# Stress axis : x y z
#
# Youngs Moduli (GPa) = 86.06969 86.06990 46.15343
#
# Poissons Ratio (x) = 0.23959 0.20250
# Poissons Ratio (y) = 0.23959 0.20250
# Poissons Ratio (z) = 0.37764 0.37764
#
# Static dielectric constant tensor:
#      x y z
#    x 1.603550 0.000000 0.000000 
#    y 0.000000 1.603550 0.000000 
#    z 0.000000 0.000000 1.594060 
# 
# From -- ./inp_files/563.got.cif
#   From: 2010.05.17/outbox.cif.g08.bks.cpg/sg175_1_cif.got.tgz:563.got - 2010.05.20 11:23:22.
