data_PCOD9581548
_publ_section_title
;
Structure prediction by ZEFSAII (Michael W. Deem and Ramdas Pophale) SiO2 
 PCOD9581548
Probable space group: P 6/M
;
_chemical_formula_sum "Si O2"
_cell_formula_units_Z 66
_cell_length_a 20.367349
_cell_length_b 20.367349
_cell_length_c 10.226632
_cell_angle_alpha 90.000000
_cell_angle_beta 90.000000
_cell_angle_gamma 120.000000
_cell_volume 3673.941785
_symmetry_space_group_name_H-M "P 6/M"
_symmetry_group_IT_number 175
_symmetry_cell_setting 'hexagonal'
loop_
_space_group_symop_operation_xyz
x,y,z
x-y,x,z
-y,x-y,z
-x,-y,z
-x+y,-x,z
y,-x+y,z
-x,-y,-z
-x+y,-x,-z
y,-x+y,-z
x,y,-z
x-y,x,-z
-y,x-y,-z
loop_
_atom_site_type_symbol
_atom_site_label
_atom_site_fract_x
_atom_site_fract_y
_atom_site_fract_z
Si Si1 0.818296 0.277276 0.851364
Si Si2 0.227156 0.933472 0.353183
Si Si3 0.909203 0.458750 0.151893
Si Si4 0.308105 0.834477 0.655902
Si Si5 0.142478 0.165380 0.000000
Si Si6 0.800873 0.715477 0.221949
O O1 0.868706 0.367755 0.838477
O O2 0.754750 0.238336 0.738199
O O3 0.873675 0.242486 0.836091
O O4 0.785773 0.260039 0.000000
O O5 0.198343 0.920528 0.500000
O O6 0.279776 0.895770 0.337602
O O7 0.152885 0.881831 0.268016
O O8 0.274224 0.022836 0.327287
O O9 0.870199 0.485100 0.260441
O O10 0.000000 0.500000 0.172979
O O11 0.898437 0.476682 0.000000
O O12 0.313679 0.820015 0.500000
O O13 0.146506 0.090000 0.000000
O O14 0.184172 0.219347 0.879076
#
# Coordination Sequence:
#
# PCOD9581548 Si02
#       6
#    12  12  12  12   6  12
#     4  10  21  37  61  89 118 153 198 249 296 358
#     4  10  21  36  55  80 113 149 193 241 291 355
#     4  10  21  39  61  91 123 155 196 248 310 362
#     4  10  22  39  59  86 118 157 198 244 299 359
#     4  12  23  38  56  86 119 155 195 245 295 349
#     4  11  20  35  58  83 111 148 195 239 296 348
#
# _framework density 17.964357
#
# number of rings (size 3 to 8) (size 9 to 14) (size 15 to 20)
#    0.000    1.636    2.727    2.273    0.000    1.818 
#    2.727    0.000    0.000    0.000    0.000    2.545 
#    0.000    0.000    0.000    0.000    0.000    0.000 
#
# Total GULP energy -367848.513901 kJ/mol
# GULP energy per Si atom -5573.462332 kJ/mol
# Density = 1.792347 g / cm^3
# Si number density = 17.964357 Si / 1000 Ang^3
#
#
#
# Elastic Constant Matrix: (Units=GPa)
#
#
# Indices 1 2 3 4 5 6 
#
# 1 78.5439 42.2605 59.5073 0.0000 0.0000 0.0000
# 2 42.2605 78.5439 59.5073 0.0000 0.0000 0.0000
# 3 59.5073 59.5073 120.7210 0.0000 0.0000 0.0000
# 4 0.0000 0.0000 0.0000 28.9516 0.0000 0.0000
# 5 0.0000 0.0000 0.0000 0.0000 28.9516 0.0000
# 6 0.0000 0.0000 0.0000 0.0000 0.0000 18.1417
#
#
#
# Elastic Compliance Matrix: (Units=1/GPa)
#
#
# Indices 1 2 3 4 5 6 
#
# 1 0.021827 -0.005734 -0.007933 0.000000 0.000000 0.000000
# 2 -0.005734 0.021827 -0.007933 0.000000 0.000000 0.000000
# 3 -0.007933 -0.007933 0.016104 0.000000 0.000000 0.000000
# 4 0.000000 0.000000 0.000000 0.034540 0.000000 0.000000
# 5 0.000000 0.000000 0.000000 0.000000 0.034540 0.000000
# 6 0.000000 0.000000 0.000000 0.000000 0.000000 0.055121
#
#
# Mechanical properties :
#
#
# Convention : Reuss Voigt Hill
#
# Bulk Modulus (GPa) = 60.38930 66.70654 63.54792
# Shear Modulus (GPa) = 21.48882 22.97791 22.23336
#
# Velocity S-wave (km/s) = 3.46235 3.58031 3.52182
# Velocity P-wave (km/s) = 7.04791 7.36918 7.21033
#
# Compressibility (1/GPa) = 0.01655922
#
# Stress axis : x y z
#
# Youngs Moduli (GPa) = 45.81493 45.81493 62.09535
#
# Poissons Ratio (x) = 0.26269 0.49259
# Poissons Ratio (y) = 0.26269 0.49259
# Poissons Ratio (z) = 0.36344 0.36344
#
# Static dielectric constant tensor:
#      x y z
#    x 1.587720 0.000000 0.000000 
#    y 0.000000 1.587720 0.000000 
#    z 0.000000 0.000000 1.642490 
# 
# From -- ./inp_files/992.got.cif
#   From: 2010.05.17/outbox.cif.g08.bks.cpg/sg175_1_cif.got.tgz:992.got - 2010.05.20 11:23:22.
