data_PCOD9581940
_publ_section_title
;
Structure prediction by ZEFSAII (Michael W. Deem and Ramdas Pophale) SiO2 
 PCOD9581940
Probable space group: P 63/M
;
_chemical_formula_sum "Si O2"
_cell_formula_units_Z 76
_cell_length_a 17.532753
_cell_length_b 17.532753
_cell_length_c 14.749387
_cell_angle_alpha 90.000000
_cell_angle_beta 90.000000
_cell_angle_gamma 120.000000
_cell_volume 3926.493038
_symmetry_space_group_name_H-M "P 63/M"
_symmetry_group_IT_number 176
_symmetry_cell_setting 'hexagonal'
loop_
_space_group_symop_operation_xyz
x,y,z
x-y,x,1/2+z
-y,x-y,z
-x,-y,1/2+z
-x+y,-x,z
y,-x+y,1/2+z
-x,-y,-z
-x+y,-x,1/2-z
y,-x+y,-z
x,y,1/2-z
x-y,x,-z
-y,x-y,1/2-z
loop_
_atom_site_type_symbol
_atom_site_label
_atom_site_fract_x
_atom_site_fract_y
_atom_site_fract_z
Si Si1 0.603340 0.567676 0.080768
Si Si2 0.762006 0.101384 0.973147
Si Si3 0.747356 0.236099 0.854721
Si Si4 0.832514 0.015907 0.849865
Si Si5 0.571243 0.442371 0.584396
Si Si6 0.153328 0.793775 0.651546
Si Si7 0.000000 0.000000 0.608237
O O1 0.637709 0.660500 0.026621
O O2 0.513203 0.554529 0.126006
O O3 0.687793 0.586098 0.139243
O O4 0.580856 0.487195 0.013394
O O5 0.773583 0.167035 0.891492
O O6 0.823965 0.064076 0.939222
O O7 0.786797 0.155581 0.065844
O O8 0.720813 0.223131 0.750000
O O9 0.827341 0.334094 0.868824
O O10 0.658911 0.207400 0.913043
O O11 0.835060 0.056759 0.750000
O O12 0.742462 0.922760 0.849249
O O13 0.916394 0.004967 0.857863
O O14 0.197940 0.817472 0.750000
O O15 0.000000 0.000000 0.500000
#
# Coordination Sequence:
#
# PCOD9581940 Si02
#       7
#    12  12  12  12  12  12   4
#     4   9  20  38  61  85 120 162 198 244 301 359
#     4  10  20  37  59  83 116 155 199 246 295 354
#     4  11  21  34  58  91 124 152 186 241 304 360
#     4  10  21  36  55  79 112 152 199 246 302 358
#     4  10  20  37  59  90 121 153 199 238 300 365
#     4  10  20  37  60  85 113 157 205 245 294 356
#     4  12  22  35  52  78 115 158 197 251 298 348
#
# _framework density 19.355695000000001
#
# number of rings (size 3 to 8) (size 9 to 14) (size 15 to 20)
#    0.000    1.895    1.579    2.684    0.000    5.684 
#    0.000    1.579    0.000    5.684    0.000    0.000 
#    0.000    0.000    0.000    0.000    0.000    0.000 
#
# Total GULP energy -423421.658056 kJ/mol
# GULP energy per Si atom -5571.337606 kJ/mol
# Density = 1.931164 g / cm^3
# Si number density = 19.355695 Si / 1000 Ang^3
#
#
#
# Elastic Constant Matrix: (Units=GPa)
#
#
# Indices 1 2 3 4 5 6 
#
# 1 63.5660 24.9960 29.1949 0.0000 0.0000 0.0000
# 2 24.9960 63.5660 29.1949 0.0000 0.0000 0.0000
# 3 29.1949 29.1949 85.1149 0.0000 0.0000 0.0000
# 4 0.0000 0.0000 0.0000 5.8034 0.0000 0.0000
# 5 0.0000 0.0000 0.0000 0.0000 5.8034 0.0000
# 6 0.0000 0.0000 0.0000 0.0000 0.0000 19.2850
#
#
#
# Elastic Compliance Matrix: (Units=1/GPa)
#
#
# Indices 1 2 3 4 5 6 
#
# 1 0.020259 -0.005668 -0.005005 0.000000 0.000000 0.000000
# 2 -0.005668 0.020259 -0.005005 0.000000 0.000000 0.000000
# 3 -0.005005 -0.005005 0.015182 0.000000 0.000000 0.000000
# 4 0.000000 0.000000 0.000000 0.172312 0.000000 0.000000
# 5 0.000000 0.000000 0.000000 0.000000 0.172312 0.000000
# 6 0.000000 0.000000 0.000000 0.000000 0.000000 0.051854
#
#
# Mechanical properties :
#
#
# Convention : Reuss Voigt Hill
#
# Bulk Modulus (GPa) = 41.07575 42.11314 41.59445
# Shear Modulus (GPa) = 10.16986 14.76912 12.46949
#
# Velocity S-wave (km/s) = 2.29469 2.76531 2.54092
# Velocity P-wave (km/s) = 5.31868 5.65691 5.49040
#
# Compressibility (1/GPa) = 0.02434527
#
# Stress axis : x y z
#
# Youngs Moduli (GPa) = 49.36057 49.36057 65.86647
#
# Poissons Ratio (x) = 0.27976 0.32965
# Poissons Ratio (y) = 0.27976 0.32965
# Poissons Ratio (z) = 0.24704 0.24704
#
# Static dielectric constant tensor:
#      x y z
#    x 1.703790 0.000000 0.000000 
#    y 0.000000 1.703790 0.000000 
#    z 0.000000 0.000000 1.680080 
# 
# From -- ./inp_files/2874.got.cif
#   From: 2010.05.17/outbox.cif.g08.bks.cpg/sg176_2_cif.got.tgz:2874.got - 2010.06.03 11:36:45.
