data_PCOD9581604
_publ_section_title
;
Structure prediction by ZEFSAII (Michael W. Deem and Ramdas Pophale) SiO2 
 PCOD9581604
Probable space group: P 6/M
;
_chemical_formula_sum "Si O2"
_cell_formula_units_Z 58
_cell_length_a 14.960152
_cell_length_b 14.960152
_cell_length_c 14.323153
_cell_angle_alpha 90.000000
_cell_angle_beta 90.000000
_cell_angle_gamma 120.000000
_cell_volume 2776.139433
_symmetry_space_group_name_H-M "P 6/M"
_symmetry_group_IT_number 175
_symmetry_cell_setting 'hexagonal'
loop_
_space_group_symop_operation_xyz
x,y,z
x-y,x,z
-y,x-y,z
-x,-y,z
-x+y,-x,z
y,-x+y,z
-x,-y,-z
-x+y,-x,-z
y,-x+y,-z
x,y,-z
x-y,x,-z
-y,x-y,-z
loop_
_atom_site_type_symbol
_atom_site_label
_atom_site_fract_x
_atom_site_fract_y
_atom_site_fract_z
Si Si1 0.486790 0.641052 0.728456
Si Si2 0.572483 0.788184 0.104830
Si Si3 0.333334 0.666668 0.390209
Si Si4 0.759710 0.832655 0.000000
Si Si5 0.841187 0.759104 0.610278
Si Si6 0.397388 0.066131 0.738868
O O1 0.494913 0.696990 0.827221
O O2 0.441096 0.684135 0.651240
O O3 0.407689 0.519108 0.725694
O O4 0.599150 0.654053 0.717530
O O5 0.679444 0.787902 0.086598
O O6 0.604992 0.894841 0.157086
O O7 0.531817 0.783529 0.000000
O O8 0.333334 0.666668 0.500000
O O9 0.848967 0.804761 0.000000
O O10 0.807541 0.844884 0.628892
O O11 0.824070 0.732827 0.500000
O O12 0.768328 0.660172 0.672941
#
# Coordination Sequence:
#
# PCOD9581604 Si02
#       6
#    12  12   4   6  12  12
#     4  11  24  45  67  98 138 181 232 295 353 414
#     4  10  23  42  67  97 139 182 228 285 350 416
#     4  12  27  48  70  98 139 180 228 297 370 425
#     4  10  21  38  64 100 138 186 234 289 346 411
#     4  10  22  41  68 102 142 187 235 290 353 423
#     4  11  23  42  70  99 136 181 237 290 349 417
#
# _framework density 20.892320999999999
#
# number of rings (size 3 to 8) (size 9 to 14) (size 15 to 20)
#    0.621    0.828    2.069    2.793    0.000    3.310 
#    0.000    4.138    0.000    2.483    0.000    0.000 
#    0.000    0.000    0.000    0.000    0.000    0.000 
#
# Total GULP energy -323471.353460 kJ/mol
# GULP energy per Si atom -5577.092301 kJ/mol
# Density = 2.084477 g / cm^3
# Si number density = 20.892321 Si / 1000 Ang^3
#
#
#
# Elastic Constant Matrix: (Units=GPa)
#
#
# Indices 1 2 3 4 5 6 
#
# 1 108.4616 34.9121 61.6202 0.0000 0.0000 -0.0001
# 2 34.9121 108.4608 61.6197 0.0000 0.0000 -0.0002
# 3 61.6202 61.6197 132.7868 0.0000 0.0000 -0.0003
# 4 0.0000 0.0000 0.0000 23.3008 -0.0002 0.0000
# 5 0.0000 0.0000 0.0000 -0.0002 23.3012 0.0000
# 6 -0.0001 -0.0002 -0.0003 0.0000 0.0000 36.7743
#
#
#
# Elastic Compliance Matrix: (Units=1/GPa)
#
#
# Indices 1 2 3 4 5 6 
#
# 1 0.012600 -0.000997 -0.005384 0.000000 0.000000 0.000000
# 2 -0.000997 0.012600 -0.005384 0.000000 0.000000 0.000000
# 3 -0.005384 -0.005384 0.012528 0.000000 0.000000 0.000000
# 4 0.000000 0.000000 0.000000 0.042917 0.000000 0.000000
# 5 0.000000 0.000000 0.000000 0.000000 0.042916 0.000000
# 6 0.000000 0.000000 0.000000 0.000000 0.000000 0.027193
#
#
# Mechanical properties :
#
#
# Convention : Reuss Voigt Hill
#
# Bulk Modulus (GPa) = 70.43913 74.00144 72.22029
# Shear Modulus (GPa) = 27.93028 29.44574 28.68801
#
# Velocity S-wave (km/s) = 3.66029 3.75828 3.70961
# Velocity P-wave (km/s) = 7.18694 7.37090 7.27950
#
# Compressibility (1/GPa) = 0.01419665
#
# Stress axis : x y z
#
# Youngs Moduli (GPa) = 79.36691 79.36649 79.81992
#
# Poissons Ratio (x) = 0.07910 0.42979
# Poissons Ratio (y) = 0.07910 0.42979
# Poissons Ratio (z) = 0.42735 0.42734
#
# Static dielectric constant tensor:
#      x y z
#    x 1.777860 0.000000 0.000000 
#    y 0.000000 1.777860 0.000000 
#    z 0.000000 0.000000 1.723350 
# 
# From -- ./inp_files/2397.got.cif
#   From: 2010.05.17/outbox.cif.g08.bks.cpg/sg175_2_cif.got.tgz:2397.got - 2010.05.20 11:23:22.
