data_PCOD9581594
_publ_section_title
;
Structure prediction by ZEFSAII (Michael W. Deem and Ramdas Pophale) SiO2 
 PCOD9581594
Probable space group: P 6/M
;
_chemical_formula_sum "Si O2"
_cell_formula_units_Z 48
_cell_length_a 17.252834
_cell_length_b 17.252834
_cell_length_c 8.367133
_cell_angle_alpha 90.000000
_cell_angle_beta 90.000000
_cell_angle_gamma 120.000000
_cell_volume 2156.890966
_symmetry_space_group_name_H-M "P 6/M"
_symmetry_group_IT_number 175
_symmetry_cell_setting 'hexagonal'
loop_
_space_group_symop_operation_xyz
x,y,z
x-y,x,z
-y,x-y,z
-x,-y,z
-x+y,-x,z
y,-x+y,z
-x,-y,-z
-x+y,-x,-z
y,-x+y,-z
x,y,-z
x-y,x,-z
-y,x-y,-z
loop_
_atom_site_type_symbol
_atom_site_label
_atom_site_fract_x
_atom_site_fract_y
_atom_site_fract_z
Si Si1 0.284282 0.805864 0.183798
Si Si2 0.856798 0.381808 0.313066
Si Si3 0.658389 0.665688 0.310200
Si Si4 0.960842 0.156906 0.807128
O O1 0.385834 0.829344 0.215364
O O2 0.218998 0.721443 0.290706
O O3 0.284596 0.896781 0.225918
O O4 0.258760 0.781525 0.000000
O O5 0.863881 0.407030 0.500000
O O6 0.949528 0.387802 0.262629
O O7 0.648523 0.669122 0.500000
O O8 0.762472 0.714448 0.265374
O O9 0.058460 0.173974 0.759049
O O10 0.958688 0.161776 0.000000
#
# Coordination Sequence:
#
# PCOD9581594 Si02
#       4
#    12  12  12  12
#     4  12  25  41  64  93 124 158 201 251 303 359
#     4  11  24  43  65  89 123 163 203 248 300 360
#     4  11  24  41  62  89 121 160 204 249 301 360
#     4  10  21  38  61  89 122 160 202 250 304 361
#
# _framework density 22.254252000000001
#
# number of rings (size 3 to 8) (size 9 to 14) (size 15 to 20)
#    0.000    1.000    0.000    6.750    0.000   13.000 
#    0.000    0.000    0.000    1.500    0.000    0.000 
#    0.000    0.000    0.000    0.000    0.000    0.000 
#
# Total GULP energy -268895.063221 kJ/mol
# GULP energy per Si atom -5601.980484 kJ/mol
# Density = 2.220360 g / cm^3
# Si number density = 22.254252 Si / 1000 Ang^3
#
#
#
# Elastic Constant Matrix: (Units=GPa)
#
#
# Indices 1 2 3 4 5 6 
#
# 1 77.0372 -3.6781 -0.9629 0.0000 0.0000 0.0000
# 2 -3.6781 77.0372 -0.9629 0.0000 0.0000 0.0000
# 3 -0.9629 -0.9629 27.0652 0.0000 0.0000 0.0000
# 4 0.0000 0.0000 0.0000 -32.7155 0.0000 0.0000
# 5 0.0000 0.0000 0.0000 0.0000 -32.7155 0.0000
# 6 0.0000 0.0000 0.0000 0.0000 0.0000 40.3576
#
#
#
# Elastic Compliance Matrix: (Units=1/GPa)
#
#
# Indices 1 2 3 4 5 6 
#
# 1 0.013017 0.000628 0.000485 0.000000 0.000000 0.000000
# 2 0.000628 0.013017 0.000485 0.000000 0.000000 0.000000
# 3 0.000485 0.000485 0.036982 0.000000 0.000000 0.000000
# 4 0.000000 0.000000 0.000000 -0.030567 0.000000 0.000000
# 5 0.000000 0.000000 0.000000 0.000000 -0.030567 0.000000
# 6 0.000000 0.000000 0.000000 0.000000 0.000000 0.024778
#
#
# Mechanical properties :
#
#
# Convention : Reuss Voigt Hill
#
# Bulk Modulus (GPa) = 15.10287 18.88131 16.99209
# Shear Modulus (GPa) = 109.80472 7.43488 58.61980
#
# Velocity S-wave (km/s) = 7.03194 1.82979 5.13791
# Velocity P-wave (km/s) = 8.52831 3.60097 6.54595
#
# Compressibility (1/GPa) = 0.06621260
#
# Stress axis : x y z
#
# Youngs Moduli (GPa) = 76.82393 76.82393 27.03996
#
# Poissons Ratio (x) = -0.04821 -0.01313
# Poissons Ratio (y) = -0.04821 -0.01313
# Poissons Ratio (z) = -0.03729 -0.03729
#
# Static dielectric constant tensor:
#      x y z
#    x 1.803330 0.000000 0.000000 
#    y 0.000000 1.803330 0.000000 
#    z 0.000000 0.000000 1.755090 
# 
# From -- ./inp_files/512.got.cif
#   From: 2010.05.17/outbox.cif.g08.bks.cpg/sg175_1_cif.got.tgz:512.got - 2010.05.20 11:23:22.
