data_PCOD9581699
_publ_section_title
;
Structure prediction by ZEFSAII (Michael W. Deem and Ramdas Pophale) SiO2 
 PCOD9581699
Probable space group: P 6/M
;
_chemical_formula_sum "Si O2"
_cell_formula_units_Z 60
_cell_length_a 14.908477
_cell_length_b 14.908477
_cell_length_c 14.352062
_cell_angle_alpha 90.000000
_cell_angle_beta 90.000000
_cell_angle_gamma 120.000000
_cell_volume 2762.558560
_symmetry_space_group_name_H-M "P 6/M"
_symmetry_group_IT_number 175
_symmetry_cell_setting 'hexagonal'
loop_
_space_group_symop_operation_xyz
x,y,z
x-y,x,z
-y,x-y,z
-x,-y,z
-x+y,-x,z
y,-x+y,z
-x,-y,-z
-x+y,-x,-z
y,-x+y,-z
x,y,-z
x-y,x,-z
-y,x-y,-z
loop_
_atom_site_type_symbol
_atom_site_label
_atom_site_fract_x
_atom_site_fract_y
_atom_site_fract_z
Si Si1 0.978490 0.590035 0.859616
Si Si2 0.233623 0.085053 0.303166
Si Si3 0.179203 0.327567 0.104326
Si Si4 0.487233 0.589428 0.341341
Si Si5 0.455036 0.187220 0.606821
O O1 0.886260 0.611668 0.892864
O O2 0.942543 0.553956 0.752990
O O3 0.000000 0.500000 0.896534
O O4 0.086100 0.696702 0.877360
O O5 0.189238 0.157897 0.332332
O O6 0.249850 0.105608 0.191619
O O7 0.343418 0.118281 0.348561
O O8 0.164051 0.282729 0.000000
O O9 0.500000 0.500000 0.390442
O O10 0.524404 0.696790 0.390732
O O11 0.363476 0.537585 0.331164
O O12 0.462400 0.160810 0.500000
#
# Coordination Sequence:
#
# PCOD9581699 Si02
#       5
#    12  12  12  12  12
#     4  11  25  46  73 108 148 198 245 310 373 448
#     4  12  25  45  68 100 137 186 238 300 368 433
#     4  12  24  44  74 104 143 190 245 305 371 442
#     4  11  24  43  70 103 142 186 236 301 370 446
#     4  12  25  44  71 104 142 187 241 298 370 444
#
# _framework density 21.718997999999999
#
# number of rings (size 3 to 8) (size 9 to 14) (size 15 to 20)
#    0.000    0.400    4.000    5.400    0.000    5.600 
#    1.200    0.000    0.000    2.400    0.000    0.000 
#    0.000    0.000    0.000    0.000    0.000    0.000 
#
# Total GULP energy -334830.678179 kJ/mol
# GULP energy per Si atom -5580.511303 kJ/mol
# Density = 2.166956 g / cm^3
# Si number density = 21.718998 Si / 1000 Ang^3
#
#
#
# Elastic Constant Matrix: (Units=GPa)
#
#
# Indices 1 2 3 4 5 6 
#
# 1 87.8317 52.1668 14.4982 0.0000 0.0000 0.0000
# 2 52.1668 87.8317 14.4982 0.0000 0.0000 0.0000
# 3 14.4982 14.4982 89.9531 0.0000 0.0000 0.0000
# 4 0.0000 0.0000 0.0000 -11.6850 0.0000 0.0000
# 5 0.0000 0.0000 0.0000 0.0000 -11.6850 0.0000
# 6 0.0000 0.0000 0.0000 0.0000 0.0000 17.8325
#
#
#
# Elastic Compliance Matrix: (Units=1/GPa)
#
#
# Indices 1 2 3 4 5 6 
#
# 1 0.017714 -0.010325 -0.001191 0.000000 0.000000 0.000000
# 2 -0.010325 0.017714 -0.001191 0.000000 0.000000 0.000000
# 3 -0.001191 -0.001191 0.011501 0.000000 0.000000 0.000000
# 4 0.000000 0.000000 0.000000 -0.085580 0.000000 0.000000
# 5 0.000000 0.000000 0.000000 0.000000 -0.085580 0.000000
# 6 0.000000 0.000000 0.000000 0.000000 0.000000 0.056077
#
#
# Mechanical properties :
#
#
# Convention : Reuss Voigt Hill
#
# Bulk Modulus (GPa) = 46.47708 47.54920 47.01314
# Shear Modulus (GPa) = -140.57567 11.18940 -64.69314
#
# Velocity S-wave (km/s) = -8.05390 2.27224 -5.46362
# Velocity P-wave (km/s) = 8.06482 5.36885 4.25539
#
# Compressibility (1/GPa) = 0.02151598
#
# Stress axis : x y z
#
# Youngs Moduli (GPa) = 56.45196 56.45196 86.95030
#
# Poissons Ratio (x) = 0.58284 0.10356
# Poissons Ratio (y) = 0.58284 0.10356
# Poissons Ratio (z) = 0.06724 0.06724
#
# Static dielectric constant tensor:
#      x y z
#    x 1.811800 0.000000 0.000000 
#    y 0.000000 1.811800 0.000000 
#    z 0.000000 0.000000 1.832540 
# 
# From -- ./inp_files/2351.got.cif
#   From: 2010.05.17/outbox.cif.g08.bks.cpg/sg175_2_cif.got.tgz:2351.got - 2010.05.20 11:23:22.
