data_PCOD9581577
_publ_section_title
;
Structure prediction by ZEFSAII (Michael W. Deem and Ramdas Pophale) SiO2 
 PCOD9581577
Probable space group: P 6/M
;
_chemical_formula_sum "Si O2"
_cell_formula_units_Z 48
_cell_length_a 14.155788
_cell_length_b 14.155788
_cell_length_c 13.863270
_cell_angle_alpha 90.000000
_cell_angle_beta 90.000000
_cell_angle_gamma 120.000000
_cell_volume 2405.827103
_symmetry_space_group_name_H-M "P 6/M"
_symmetry_group_IT_number 175
_symmetry_cell_setting 'hexagonal'
loop_
_space_group_symop_operation_xyz
x,y,z
x-y,x,z
-y,x-y,z
-x,-y,z
-x+y,-x,z
y,-x+y,z
-x,-y,-z
-x+y,-x,-z
y,-x+y,-z
x,y,-z
x-y,x,-z
-y,x-y,-z
loop_
_atom_site_type_symbol
_atom_site_label
_atom_site_fract_x
_atom_site_fract_y
_atom_site_fract_z
Si Si1 0.954226 0.768361 0.615749
Si Si2 0.662277 0.115088 0.884669
Si Si3 0.628261 0.579052 0.391863
Si Si4 0.326864 0.455871 0.188602
O O1 0.859202 0.786755 0.654451
O O2 0.951623 0.781784 0.500000
O O3 0.953262 0.655987 0.628273
O O4 0.571708 0.144368 0.846452
O O5 0.780718 0.212757 0.855000
O O6 0.629366 0.995802 0.842966
O O7 0.653538 0.106303 0.000000
O O8 0.500000 0.500000 0.390911
O O9 0.671074 0.578939 0.500000
O O10 0.677872 0.544906 0.304682
#
# Coordination Sequence:
#
# PCOD9581577 Si02
#       4
#    12  12  12  12
#     4   9  18  32  55  83 115 155 201 248 296 347
#     4  11  22  41  66  92 122 153 204 266 326 372
#     4  10  21  38  57  84 124 170 207 248 295 365
#     4  11  23  40  63  96 120 163 207 260 318 383
#
# _framework density 19.951557999999999
#
# number of rings (size 3 to 8) (size 9 to 14) (size 15 to 20)
#    0.000    1.750    2.500    3.750    3.500    1.000 
#    0.000    1.250    0.000    1.500    0.000    8.750 
#    0.000    0.000    0.000    0.000    0.000    0.000 
#
# Total GULP energy -267891.446328 kJ/mol
# GULP energy per Si atom -5581.071798 kJ/mol
# Density = 1.990615 g / cm^3
# Si number density = 19.951558 Si / 1000 Ang^3
#
#
#
# Elastic Constant Matrix: (Units=GPa)
#
#
# Indices 1 2 3 4 5 6 
#
# 1 121.5815 72.6993 21.6422 0.0000 0.0000 0.0000
# 2 72.6993 121.5815 21.6422 0.0000 0.0000 0.0000
# 3 21.6422 21.6422 145.7005 0.0000 0.0000 0.0000
# 4 0.0000 0.0000 0.0000 20.3957 0.0000 0.0000
# 5 0.0000 0.0000 0.0000 0.0000 20.3957 0.0000
# 6 0.0000 0.0000 0.0000 0.0000 0.0000 24.4411
#
#
#
# Elastic Compliance Matrix: (Units=1/GPa)
#
#
# Indices 1 2 3 4 5 6 
#
# 1 0.012890 -0.007567 -0.000791 0.000000 0.000000 0.000000
# 2 -0.007567 0.012890 -0.000791 0.000000 0.000000 0.000000
# 3 -0.000791 -0.000791 0.007098 0.000000 0.000000 0.000000
# 4 0.000000 0.000000 0.000000 0.049030 0.000000 0.000000
# 5 0.000000 0.000000 0.000000 0.000000 0.049030 0.000000
# 6 0.000000 0.000000 0.000000 0.000000 0.000000 0.040915
#
#
# Mechanical properties :
#
#
# Convention : Reuss Voigt Hill
#
# Bulk Modulus (GPa) = 68.57716 68.98120 68.77918
# Shear Modulus (GPa) = 25.63956 31.23849 28.43903
#
# Velocity S-wave (km/s) = 3.58871 3.96121 3.77955
# Velocity P-wave (km/s) = 7.18458 7.45459 7.32083
#
# Compressibility (1/GPa) = 0.01458212
#
# Stress axis : x y z
#
# Youngs Moduli (GPa) = 77.57734 77.57734 140.87876
#
# Poissons Ratio (x) = 0.58703 0.11140
# Poissons Ratio (y) = 0.58703 0.11140
# Poissons Ratio (z) = 0.06134 0.06134
#
# Static dielectric constant tensor:
#      x y z
#    x 1.713900 0.000000 0.000000 
#    y 0.000000 1.713900 0.000000 
#    z 0.000000 0.000000 1.744170 
# 
# From -- ./inp_files/2267.got.cif
#   From: 2010.05.17/outbox.cif.g08.bks.cpg/sg175_2_cif.got.tgz:2267.got - 2010.05.20 11:23:22.
