data_PCOD9581232
_publ_section_title
;
Structure prediction by ZEFSAII (Michael W. Deem and Ramdas Pophale) SiO2 
 PCOD9581232
Probable space group: P 6/M
;
_chemical_formula_sum "Si O2"
_cell_formula_units_Z 54
_cell_length_a 19.349569
_cell_length_b 19.349569
_cell_length_c 11.294992
_cell_angle_alpha 90.000000
_cell_angle_beta 90.000000
_cell_angle_gamma 120.000000
_cell_volume 3662.344137
_symmetry_space_group_name_H-M "P 6/M"
_symmetry_group_IT_number 175
_symmetry_cell_setting 'hexagonal'
loop_
_space_group_symop_operation_xyz
x,y,z
x-y,x,z
-y,x-y,z
-x,-y,z
-x+y,-x,z
y,-x+y,z
-x,-y,-z
-x+y,-x,-z
y,-x+y,-z
x,y,-z
x-y,x,-z
-y,x-y,-z
loop_
_atom_site_type_symbol
_atom_site_label
_atom_site_fract_x
_atom_site_fract_y
_atom_site_fract_z
Si Si1 0.088252 0.753700 0.643184
Si Si2 0.669850 0.185208 0.742067
Si Si3 0.907569 0.660493 0.355993
Si Si4 0.179677 0.661543 0.358370
Si Si5 0.673594 0.245507 0.000000
O O1 0.087318 0.753536 0.500000
O O2 0.156531 0.842395 0.678276
O O3 0.120271 0.693811 0.678342
O O4 0.997864 0.721477 0.681279
O O5 0.696890 0.123233 0.700246
O O6 0.732413 0.269286 0.680447
O O7 0.581782 0.160753 0.699385
O O8 0.676412 0.202315 0.881691
O O9 0.904949 0.652062 0.500000
O O10 0.177256 0.654100 0.500000
O O11 0.743649 0.338888 0.000000
#
# Coordination Sequence:
#
# PCOD9581232 Si02
#       5
#    12  12  12  12   6
#     4   8  16  28  44  66  92 115 141 175 228 276
#     4  11  18  28  43  61  89 119 160 189 217 257
#     4   9  17  30  47  69  89 113 143 184 229 270
#     4  10  17  26  42  66  90 118 150 191 224 255
#     4  10  18  32  42  57  85 127 166 187 223 244
#
# _framework density 14.744655
#
# number of rings (size 3 to 8) (size 9 to 14) (size 15 to 20)
#    0.222    2.222    2.222    3.778    0.000    0.889 
#    0.000    3.333    0.000    8.444    0.000    3.111 
#    0.000    0.000    0.000    0.000    0.000    8.889 
#
# Total GULP energy -300717.242447 kJ/mol
# GULP energy per Si atom -5568.837823 kJ/mol
# Density = 1.471110 g / cm^3
# Si number density = 14.744655 Si / 1000 Ang^3
#
#
#
# Elastic Constant Matrix: (Units=GPa)
#
#
# Indices 1 2 3 4 5 6 
#
# 1 100.2569 80.9392 19.8564 0.0000 0.0000 0.0000
# 2 80.9392 100.2569 19.8564 0.0000 0.0000 0.0000
# 3 19.8564 19.8564 53.5948 0.0000 0.0000 0.0000
# 4 0.0000 0.0000 0.0000 5.3403 0.0000 0.0000
# 5 0.0000 0.0000 0.0000 0.0000 5.3403 0.0000
# 6 0.0000 0.0000 0.0000 0.0000 0.0000 9.6588
#
#
#
# Elastic Compliance Matrix: (Units=1/GPa)
#
#
# Indices 1 2 3 4 5 6 
#
# 1 0.028886 -0.022880 -0.002225 0.000000 0.000000 0.000000
# 2 -0.022880 0.028886 -0.002225 0.000000 0.000000 0.000000
# 3 -0.002225 -0.002225 0.020308 0.000000 0.000000 0.000000
# 4 0.000000 0.000000 0.000000 0.187254 0.000000 0.000000
# 5 0.000000 0.000000 0.000000 0.000000 0.187254 0.000000
# 6 0.000000 0.000000 0.000000 0.000000 0.000000 0.103532
#
#
# Mechanical properties :
#
#
# Convention : Reuss Voigt Hill
#
# Bulk Modulus (GPa) = 42.70011 55.04586 48.87299
# Shear Modulus (GPa) = 8.08293 12.96500 10.52396
#
# Velocity S-wave (km/s) = 2.34389 2.96852 2.67450
# Velocity P-wave (km/s) = 6.02891 7.01165 6.53877
#
# Compressibility (1/GPa) = 0.02341914
#
# Stress axis : x y z
#
# Youngs Moduli (GPa) = 34.61837 34.61837 49.24285
#
# Poissons Ratio (x) = 0.79206 0.10959
# Poissons Ratio (y) = 0.79206 0.10959
# Poissons Ratio (z) = 0.07704 0.07704
#
# Static dielectric constant tensor:
#      x y z
#    x 1.490740 0.000000 0.000000 
#    y 0.000000 1.490740 0.000000 
#    z 0.000000 0.000000 1.463890 
# 
# From -- ./inp_files/1731.got.cif
#   From: 2010.05.17/outbox.cif.g08.bks.cpg/sg175_1_cif.got.tgz:1731.got - 2010.05.20 11:23:22.
