data_PCOD9581835
_publ_section_title
;
Structure prediction by ZEFSAII (Michael W. Deem and Ramdas Pophale) SiO2 
 PCOD9581835
Probable space group: P 63/M
;
_chemical_formula_sum "Si O2"
_cell_formula_units_Z 54
_cell_length_a 17.969044
_cell_length_b 17.969044
_cell_length_c 10.811117
_cell_angle_alpha 90.000000
_cell_angle_beta 90.000000
_cell_angle_gamma 120.000000
_cell_volume 3023.090464
_symmetry_space_group_name_H-M "P 63/M"
_symmetry_group_IT_number 176
_symmetry_cell_setting 'hexagonal'
loop_
_space_group_symop_operation_xyz
x,y,z
x-y,x,1/2+z
-y,x-y,z
-x,-y,1/2+z
-x+y,-x,z
y,-x+y,1/2+z
-x,-y,-z
-x+y,-x,1/2-z
y,-x+y,-z
x,y,1/2-z
x-y,x,-z
-y,x-y,1/2-z
loop_
_atom_site_type_symbol
_atom_site_label
_atom_site_fract_x
_atom_site_fract_y
_atom_site_fract_z
Si Si1 0.630952 0.110674 0.539708
Si Si2 0.692887 0.921862 0.890791
Si Si3 0.390527 0.478255 0.613352
Si Si4 0.057616 0.310489 0.607669
Si Si5 0.438780 0.682362 0.250000
O O1 0.555501 0.121911 0.480924
O O2 0.688980 0.098119 0.437869
O O3 0.683110 0.188864 0.632992
O O4 0.579456 0.016427 0.603890
O O5 0.713432 0.960015 0.750000
O O6 0.590339 0.881597 0.905767
O O7 0.713808 0.845833 0.895284
O O8 0.733093 0.987678 0.003741
O O9 0.403937 0.514964 0.750000
O O10 0.026003 0.301309 0.750000
O O11 0.406855 0.752077 0.250000
#
# Coordination Sequence:
#
# PCOD9581835 Si02
#       5
#    12  12  12  12   6
#     4  10  19  34  52  75 107 142 184 229 270 326
#     4   9  20  36  56  83 115 144 181 231 276 327
#     4   9  17  32  53  75 100 138 180 224 273 317
#     4  10  21  37  57  86 113 145 185 228 276 336
#     4  10  24  36  48  74 110 146 190 232 276 338
#
# _framework density 17.862514000000001
#
# number of rings (size 3 to 8) (size 9 to 14) (size 15 to 20)
#    0.222    2.222    1.111    0.667    4.667    0.889 
#    2.000    0.000    0.000    0.444    0.000    0.000 
#    0.000    0.000    0.000    0.000    0.000    0.000 
#
# Total GULP energy -300677.197088 kJ/mol
# GULP energy per Si atom -5568.096242 kJ/mol
# Density = 1.782186 g / cm^3
# Si number density = 17.862514 Si / 1000 Ang^3
#
#
#
# Elastic Constant Matrix: (Units=GPa)
#
#
# Indices 1 2 3 4 5 6 
#
# 1 40.9670 5.3617 41.1301 0.0000 0.0000 0.0000
# 2 5.3617 40.9670 41.1301 0.0000 0.0000 0.0000
# 3 41.1301 41.1301 145.1599 0.0000 0.0000 0.0000
# 4 0.0000 0.0000 0.0000 24.8210 0.0000 0.0000
# 5 0.0000 0.0000 0.0000 0.0000 24.8210 0.0000
# 6 0.0000 0.0000 0.0000 0.0000 0.0000 17.8027
#
#
#
# Elastic Compliance Matrix: (Units=1/GPa)
#
#
# Indices 1 2 3 4 5 6 
#
# 1 0.035762 0.007677 -0.012308 0.000000 0.000000 0.000000
# 2 0.007677 0.035762 -0.012308 0.000000 0.000000 0.000000
# 3 -0.012308 -0.012308 0.013864 0.000000 0.000000 0.000000
# 4 0.000000 0.000000 0.000000 0.040288 0.000000 0.000000
# 5 0.000000 0.000000 0.000000 0.000000 0.040288 0.000000
# 6 0.000000 0.000000 0.000000 0.000000 0.000000 0.056171
#
#
# Mechanical properties :
#
#
# Convention : Reuss Voigt Hill
#
# Bulk Modulus (GPa) = 19.41404 44.70417 32.05911
# Shear Modulus (GPa) = 18.30258 22.78708 20.54483
#
# Velocity S-wave (km/s) = 3.20447 3.57556 3.39509
# Velocity P-wave (km/s) = 4.95819 6.49055 5.77542
#
# Compressibility (1/GPa) = 0.05150912
#
# Stress axis : x y z
#
# Youngs Moduli (GPa) = 27.96243 27.96243 72.13026
#
# Poissons Ratio (x) = -0.21466 0.88779
# Poissons Ratio (y) = -0.21466 0.88779
# Poissons Ratio (z) = 0.34417 0.34417
#
# Static dielectric constant tensor:
#      x y z
#    x 1.599970 0.000000 0.000000 
#    y 0.000000 1.599970 0.000000 
#    z 0.000000 0.000000 1.633180 
# 
# From -- ./inp_files/866.got.cif
#   From: 2010.05.17/outbox.cif.g08.bks.cpg/sg176_1_cif.got.tgz:866.got - 2010.06.03 11:36:45.
