data_PCOD9581371
_publ_section_title
;
Structure prediction by ZEFSAII (Michael W. Deem and Ramdas Pophale) SiO2 
 PCOD9581371
Probable space group: P 6/M
;
_chemical_formula_sum "Si O2"
_cell_formula_units_Z 72
_cell_length_a 24.435368
_cell_length_b 24.435368
_cell_length_c 8.548115
_cell_angle_alpha 90.000000
_cell_angle_beta 90.000000
_cell_angle_gamma 120.000000
_cell_volume 4420.167793
_symmetry_space_group_name_H-M "P 6/M"
_symmetry_group_IT_number 175
_symmetry_cell_setting 'hexagonal'
loop_
_space_group_symop_operation_xyz
x,y,z
x-y,x,z
-y,x-y,z
-x,-y,z
-x+y,-x,z
y,-x+y,z
-x,-y,-z
-x+y,-x,-z
y,-x+y,-z
x,y,-z
x-y,x,-z
-y,x-y,-z
loop_
_atom_site_type_symbol
_atom_site_label
_atom_site_fract_x
_atom_site_fract_y
_atom_site_fract_z
Si Si1 0.591004 0.855227 0.186738
Si Si2 0.070999 0.264674 0.310184
Si Si3 0.732959 0.928041 0.309875
Si Si4 0.596358 0.525567 0.313092
Si Si5 0.145275 0.411344 0.312011
Si Si6 0.930641 0.525452 0.813383
O O1 0.662149 0.901781 0.248197
O O2 0.546630 0.881218 0.249076
O O3 0.572228 0.786207 0.251689
O O4 0.590945 0.854420 0.000000
O O5 0.069576 0.262820 0.500000
O O6 0.123780 0.247037 0.260967
O O7 0.098298 0.337885 0.265807
O O8 0.999495 0.220574 0.256037
O O9 0.730186 0.927527 0.500000
O O10 0.596302 0.525463 0.500000
O O11 0.574545 0.574591 0.254085
O O12 0.542787 0.457563 0.250728
O O13 0.145963 0.414674 0.500000
O O14 0.118873 0.453976 0.241907
O O15 0.934448 0.525515 0.000000
#
# Coordination Sequence:
#
# PCOD9581371 Si02
#       6
#    12  12  12  12  12  12
#     4  11  21  33  49  73 100 128 162 209 257 296
#     4   8  15  26  45  67  91 123 163 202 240 289
#     4   9  16  29  46  67  93 127 165 203 248 305
#     4  11  21  35  53  74 101 137 172 204 245 301
#     4  10  19  33  51  73  99 133 168 200 244 304
#     4  11  21  34  52  78 106 132 164 208 251 291
#
# _framework density 16.288975000000001
#
# number of rings (size 3 to 8) (size 9 to 14) (size 15 to 20)
#    0.000    2.000    0.000    8.000    0.000    1.333 
#    0.000    3.333    0.000    1.000    0.000    7.000 
#    0.000    0.000    0.000    6.000    0.000    6.667 
#
# Total GULP energy -401871.746049 kJ/mol
# GULP energy per Si atom -5581.552028 kJ/mol
# Density = 1.625190 g / cm^3
# Si number density = 16.288975 Si / 1000 Ang^3
#
#
#
# Elastic Constant Matrix: (Units=GPa)
#
#
# Indices 1 2 3 4 5 6 
#
# 1 123.6368 82.3575 36.8722 0.0000 0.0000 0.0000
# 2 82.3575 123.6368 36.8722 0.0000 0.0000 0.0000
# 3 36.8722 36.8722 94.2088 0.0000 0.0000 0.0000
# 4 0.0000 0.0000 0.0000 3.9903 0.0000 0.0000
# 5 0.0000 0.0000 0.0000 0.0000 3.9903 0.0000
# 6 0.0000 0.0000 0.0000 0.0000 0.0000 20.6396
#
#
#
# Elastic Compliance Matrix: (Units=1/GPa)
#
#
# Indices 1 2 3 4 5 6 
#
# 1 0.014935 -0.009290 -0.002210 0.000000 0.000000 0.000000
# 2 -0.009290 0.014935 -0.002210 0.000000 0.000000 0.000000
# 3 -0.002210 -0.002210 0.012344 0.000000 0.000000 0.000000
# 4 0.000000 0.000000 0.000000 0.250606 0.000000 0.000000
# 5 0.000000 0.000000 0.000000 0.000000 0.250606 0.000000
# 6 0.000000 0.000000 0.000000 0.000000 0.000000 0.048451
#
#
# Mechanical properties :
#
#
# Convention : Reuss Voigt Hill
#
# Bulk Modulus (GPa) = 67.58120 72.63181 70.10651
# Shear Modulus (GPa) = 8.00989 18.08274 13.04632
#
# Velocity S-wave (km/s) = 2.21992 3.33546 2.83314
# Velocity P-wave (km/s) = 6.93900 7.71493 7.33723
#
# Compressibility (1/GPa) = 0.01479701
#
# Stress axis : x y z
#
# Youngs Moduli (GPa) = 66.95507 66.95507 81.00880
#
# Poissons Ratio (x) = 0.62200 0.17900
# Poissons Ratio (y) = 0.62200 0.17900
# Poissons Ratio (z) = 0.14794 0.14794
#
# Static dielectric constant tensor:
#      x y z
#    x 1.534690 0.000000 0.000000 
#    y 0.000000 1.534690 0.000000 
#    z 0.000000 0.000000 1.543630 
# 
# From -- ./inp_files/1158.got.cif
#   From: 2010.05.17/outbox.cif.g08.bks.cpg/sg175_1_cif.got.tgz:1158.got - 2010.05.20 11:23:22.
