data_PCOD9581825
_publ_section_title
;
Structure prediction by ZEFSAII (Michael W. Deem and Ramdas Pophale) SiO2 
 PCOD9581825
Probable space group: P 63/M
;
_chemical_formula_sum "Si O2"
_cell_formula_units_Z 44
_cell_length_a 10.747812
_cell_length_b 10.747812
_cell_length_c 19.822264
_cell_angle_alpha 90.000000
_cell_angle_beta 90.000000
_cell_angle_gamma 120.000000
_cell_volume 1983.005917
_symmetry_space_group_name_H-M "P 63/M"
_symmetry_group_IT_number 176
_symmetry_cell_setting 'hexagonal'
loop_
_space_group_symop_operation_xyz
x,y,z
x-y,x,1/2+z
-y,x-y,z
-x,-y,1/2+z
-x+y,-x,z
y,-x+y,1/2+z
-x,-y,-z
-x+y,-x,1/2-z
y,-x+y,-z
x,y,1/2-z
x-y,x,-z
-y,x-y,1/2-z
loop_
_atom_site_type_symbol
_atom_site_label
_atom_site_fract_x
_atom_site_fract_y
_atom_site_fract_z
Si Si1 0.339065 0.898204 0.600364
Si Si2 0.333334 0.666668 0.153902
Si Si3 0.333333 0.666667 0.505707
Si Si4 0.329932 0.131143 0.825737
Si Si5 0.593172 0.925539 0.673155
O O1 0.320438 0.801595 0.535053
O O2 0.503481 0.967255 0.623035
O O3 0.237781 0.780193 0.655369
O O4 0.299946 0.022020 0.612782
O O5 0.497903 0.762087 0.176735
O O6 0.333334 0.666667 0.073283
O O7 0.286149 0.064198 0.750000
O O8 0.267419 0.237524 0.836822
O O9 0.560189 0.941664 0.750000
#
# Coordination Sequence:
#
# PCOD9581825 Si02
#       5
#    12   4   4  12  12
#     4  10  20  38  55  80 118 152 196 237 282 354
#     4  12  22  37  60  88 121 147 193 254 289 360
#     4   9  24  40  59  85 114 162 208 227 289 351
#     4  11  21  35  59  89 117 147 191 249 307 345
#     4  10  19  32  56  85 113 150 188 237 296 344
#
# _framework density 22.188538999999999
#
# number of rings (size 3 to 8) (size 9 to 14) (size 15 to 20)
#    0.000    1.636    2.727    3.818    0.000    1.091 
#    1.636    0.000    0.000    0.000    0.000    1.909 
#    0.000    0.000    0.000    0.000    0.000    0.000 
#
# Total GULP energy -245464.241559 kJ/mol
# GULP energy per Si atom -5578.732763 kJ/mol
# Density = 2.213804 g / cm^3
# Si number density = 22.188539 Si / 1000 Ang^3
#
#
#
# Elastic Constant Matrix: (Units=GPa)
#
#
# Indices 1 2 3 4 5 6 
#
# 1 60.9311 -7.8623 20.0135 0.0000 0.0000 0.0001
# 2 -7.8623 60.9307 20.0134 0.0000 0.0000 -0.0001
# 3 20.0135 20.0134 120.5482 0.0000 0.0000 -0.0001
# 4 0.0000 0.0000 0.0000 13.1353 0.0000 0.0000
# 5 0.0000 0.0000 0.0000 0.0000 13.1352 0.0000
# 6 0.0001 -0.0001 -0.0001 0.0000 0.0000 34.3966
#
#
#
# Elastic Compliance Matrix: (Units=1/GPa)
#
#
# Indices 1 2 3 4 5 6 
#
# 1 0.018039 0.003502 -0.003576 0.000000 0.000000 0.000000
# 2 0.003502 0.018039 -0.003576 0.000000 0.000000 0.000000
# 3 -0.003576 -0.003576 0.009483 0.000000 0.000000 0.000000
# 4 0.000000 0.000000 0.000000 0.076131 0.000000 0.000000
# 5 0.000000 0.000000 0.000000 0.000000 0.076131 0.000000
# 6 0.000000 0.000000 0.000000 0.000000 0.000000 0.029073
#
#
# Mechanical properties :
#
#
# Convention : Reuss Voigt Hill
#
# Bulk Modulus (GPa) = 26.13712 34.08213 30.10963
# Shear Modulus (GPa) = 20.24714 26.14978 23.19846
#
# Velocity S-wave (km/s) = 3.02405 3.43669 3.23695
# Velocity P-wave (km/s) = 4.89880 5.58045 5.25070
#
# Compressibility (1/GPa) = 0.03825976
#
# Stress axis : x y z
#
# Youngs Moduli (GPa) = 55.43681 55.43650 105.45306
#
# Poissons Ratio (x) = -0.19415 0.37712
# Poissons Ratio (y) = -0.19415 0.37712
# Poissons Ratio (z) = 0.19825 0.19825
#
# Static dielectric constant tensor:
#      x y z
#    x 1.871020 0.000000 0.000000 
#    y 0.000000 1.871030 0.000000 
#    z 0.000000 0.000000 1.754800 
# 
# From -- ./inp_files/3186.got.cif
#   From: 2010.05.17/outbox.cif.g08.bks.cpg/sg176_2_cif.got.tgz:3186.got - 2010.06.03 11:36:45.
