data_PCOD9581295
_publ_section_title
;
Structure prediction by ZEFSAII (Michael W. Deem and Ramdas Pophale) SiO2 
 PCOD9581295
Probable space group: P 6/M
;
_chemical_formula_sum "Si O2"
_cell_formula_units_Z 52
_cell_length_a 24.197555
_cell_length_b 24.197555
_cell_length_c 8.795721
_cell_angle_alpha 90.000000
_cell_angle_beta 90.000000
_cell_angle_gamma 120.000000
_cell_volume 4460.104642
_symmetry_space_group_name_H-M "P 6/M"
_symmetry_group_IT_number 175
_symmetry_cell_setting 'hexagonal'
loop_
_space_group_symop_operation_xyz
x,y,z
x-y,x,z
-y,x-y,z
-x,-y,z
-x+y,-x,z
y,-x+y,z
-x,-y,-z
-x+y,-x,-z
y,-x+y,-z
x,y,-z
x-y,x,-z
-y,x-y,-z
loop_
_atom_site_type_symbol
_atom_site_label
_atom_site_fract_x
_atom_site_fract_y
_atom_site_fract_z
Si Si1 0.566970 0.000002 0.325123
Si Si2 0.333334 0.666668 0.182231
Si Si3 0.633108 0.135014 0.818124
Si Si4 0.262518 0.737478 0.681507
Si Si5 0.633112 0.498101 0.818124
O O1 0.585771 0.000002 0.500000
O O2 0.615144 0.065077 0.240091
O O3 0.500000 0.000000 0.326393
O O4 0.550071 0.934927 0.240091
O O5 0.404720 0.702367 0.244632
O O6 0.333334 0.666668 0.000000
O O7 0.696330 0.190259 0.740077
O O8 0.572175 0.144356 0.779471
O O9 0.639501 0.139077 0.000000
O O10 0.264658 0.735338 0.500000
O O11 0.190254 0.696334 0.740076
O O12 0.639505 0.500432 0.000000
#
# Coordination Sequence:
#
# PCOD9581295 Si02
#       5
#    12   4  12  12  12
#     4   9  17  29  43  57  73  91 119 149 176 211
#     4  12  22  32  40  51  73  98 118 144 184 230
#     4  10  19  30  43  56  74  96 120 146 180 221
#     4  12  22  30  42  58  75  95 120 150 184 221
#     4  10  19  30  43  56  74  96 120 146 180 221
#
# _framework density 11.658918999999999
#
# number of rings (size 3 to 8) (size 9 to 14) (size 15 to 20)
#    0.000    1.615    2.308    4.846    0.000    4.615 
#    0.000    0.000    0.000    0.000    0.000    0.000 
#    0.000    0.000    0.000    0.000    0.000    0.000 
#
# Total GULP energy -290166.523095 kJ/mol
# GULP energy per Si atom -5580.125444 kJ/mol
# Density = 1.163238 g / cm^3
# Si number density = 11.658919 Si / 1000 Ang^3
#
#
#
# Elastic Constant Matrix: (Units=GPa)
#
#
# Indices 1 2 3 4 5 6 
#
# 1 61.3655 49.0933 38.8469 0.0000 0.0000 -0.0025
# 2 49.0933 61.3671 38.8448 0.0000 0.0000 0.0025
# 3 38.8469 38.8448 91.2110 0.0000 0.0000 0.0009
# 4 0.0000 0.0000 0.0000 18.4133 0.0000 0.0000
# 5 0.0000 0.0000 0.0000 0.0000 18.4135 0.0000
# 6 -0.0025 0.0025 0.0009 0.0000 0.0000 6.1260
#
#
#
# Elastic Compliance Matrix: (Units=1/GPa)
#
#
# Indices 1 2 3 4 5 6 
#
# 1 0.047204 -0.034278 -0.005506 0.000000 0.000000 0.000034
# 2 -0.034278 0.047200 -0.005503 0.000000 0.000000 -0.000032
# 3 -0.005506 -0.005503 0.015652 0.000000 0.000000 -0.000002
# 4 0.000000 0.000000 0.000000 0.054308 0.000000 0.000000
# 5 0.000000 0.000000 0.000000 0.000000 0.054308 0.000000
# 6 0.000034 -0.000032 -0.000002 0.000000 0.000000 0.163239
#
#
# Mechanical properties :
#
#
# Convention : Reuss Voigt Hill
#
# Bulk Modulus (GPa) = 51.32524 51.94594 51.63559
# Shear Modulus (GPa) = 10.43885 14.40114 12.42000
#
# Velocity S-wave (km/s) = 2.99549 3.51836 3.26740
# Velocity P-wave (km/s) = 7.48878 7.82026 7.65632
#
# Compressibility (1/GPa) = 0.01948359
#
# Stress axis : x y z
#
# Youngs Moduli (GPa) = 21.18464 21.18626 63.88877
#
# Poissons Ratio (x) = 0.72621 0.35178
# Poissons Ratio (y) = 0.72616 0.35156
# Poissons Ratio (z) = 0.11665 0.11658
#
# Static dielectric constant tensor:
#      x y z
#    x 1.369870 0.000000 0.000000 
#    y 0.000000 1.369870 0.000000 
#    z 0.000000 0.000000 1.386480 
# 
# From -- ./inp_files/1089.got.cif
#   From: 2010.05.17/outbox.cif.g08.bks.cpg/sg175_1_cif.got.tgz:1089.got - 2010.05.20 11:23:22.
