data_PCOD9581399
_publ_section_title
;
Structure prediction by ZEFSAII (Michael W. Deem and Ramdas Pophale) SiO2 
 PCOD9581399
Probable space group: P 6/M
;
_chemical_formula_sum "Si O2"
_cell_formula_units_Z 54
_cell_length_a 10.958871
_cell_length_b 10.958871
_cell_length_c 24.200677
_cell_angle_alpha 90.000000
_cell_angle_beta 90.000000
_cell_angle_gamma 120.000000
_cell_volume 2517.038025
_symmetry_space_group_name_H-M "P 6/M"
_symmetry_group_IT_number 175
_symmetry_cell_setting 'hexagonal'
loop_
_space_group_symop_operation_xyz
x,y,z
x-y,x,z
-y,x-y,z
-x,-y,z
-x+y,-x,z
y,-x+y,z
-x,-y,-z
-x+y,-x,-z
y,-x+y,-z
x,y,-z
x-y,x,-z
-y,x-y,-z
loop_
_atom_site_type_symbol
_atom_site_label
_atom_site_fract_x
_atom_site_fract_y
_atom_site_fract_z
Si Si1 0.320342 0.820793 0.561990
Si Si2 0.251110 0.933045 0.669237
Si Si3 0.931587 0.678466 0.879526
Si Si4 0.251145 0.931394 0.000000
Si Si5 0.508993 0.337083 0.774186
O O1 0.197592 0.655586 0.566488
O O2 0.315708 0.870306 0.500000
O O3 0.306373 0.906362 0.611538
O O4 0.328149 0.903760 0.719611
O O5 0.087045 0.815703 0.672918
O O6 0.814238 0.726907 0.875634
O O7 0.915865 0.609273 0.940406
O O8 0.901593 0.572434 0.829656
O O9 0.086220 0.816415 0.000000
O O10 0.534627 0.203162 0.773632
#
# Coordination Sequence:
#
# PCOD9581399 Si02
#       5
#    12  12  12   6  12
#     4   8  18  39  63  93 119 148 196 239 274 314
#     4  12  25  40  60  86 118 152 187 232 287 346
#     4  10  19  34  58  86 117 148 184 231 280 334
#     4   8  15  28  50  82 114 148 185 222 270 326
#     4  10  24  42  57  83 107 147 192 238 286 336
#
# _framework density 21.453786000000001
#
# number of rings (size 3 to 8) (size 9 to 14) (size 15 to 20)
#    0.889    1.333    0.000    3.222    0.000    8.889 
#    0.000    5.556    0.000    5.333    0.000    0.000 
#    0.000    0.000    0.000    0.000    0.000    0.000 
#
# Total GULP energy -301636.404587 kJ/mol
# GULP energy per Si atom -5585.859344 kJ/mol
# Density = 2.140496 g / cm^3
# Si number density = 21.453786 Si / 1000 Ang^3
#
#
#
# Elastic Constant Matrix: (Units=GPa)
#
#
# Indices 1 2 3 4 5 6 
#
# 1 83.2047 21.9250 53.6782 0.0000 0.0000 0.0000
# 2 21.9250 83.2047 53.6782 0.0000 0.0000 0.0000
# 3 53.6782 53.6782 186.9896 0.0000 0.0000 0.0000
# 4 0.0000 0.0000 0.0000 -11.0289 0.0000 0.0000
# 5 0.0000 0.0000 0.0000 0.0000 -11.0289 0.0000
# 6 0.0000 0.0000 0.0000 0.0000 0.0000 30.6399
#
#
#
# Elastic Compliance Matrix: (Units=1/GPa)
#
#
# Indices 1 2 3 4 5 6 
#
# 1 0.014888 -0.001431 -0.003863 0.000000 0.000000 0.000000
# 2 -0.001431 0.014888 -0.003863 0.000000 0.000000 0.000000
# 3 -0.003863 -0.003863 0.007566 0.000000 0.000000 0.000000
# 4 0.000000 0.000000 0.000000 -0.090671 0.000000 0.000000
# 5 0.000000 0.000000 0.000000 0.000000 -0.090671 0.000000
# 6 0.000000 0.000000 0.000000 0.000000 0.000000 0.032637
#
#
# Mechanical properties :
#
#
# Convention : Reuss Voigt Hill
#
# Bulk Modulus (GPa) = 52.55548 67.99577 60.27563
# Shear Modulus (GPa) = -57.66493 16.65761 -20.50366
#
# Velocity S-wave (km/s) = -5.19009 2.78949 -3.09481
# Velocity P-wave (km/s) = 3.37132 6.49137 3.92251
#
# Compressibility (1/GPa) = 0.01902751
#
# Stress axis : x y z
#
# Youngs Moduli (GPa) = 67.16935 67.16936 132.17439
#
# Poissons Ratio (x) = 0.09611 0.51059
# Poissons Ratio (y) = 0.09611 0.51059
# Poissons Ratio (z) = 0.25948 0.25948
#
# Static dielectric constant tensor:
#      x y z
#    x 1.775660 0.000000 0.000000 
#    y 0.000000 1.775660 0.000000 
#    z 0.000000 0.000000 1.761000 
# 
# From -- ./inp_files/3063.got.cif
#   From: 2010.05.17/outbox.cif.g08.bks.cpg/sg175_2_cif.got.tgz:3063.got - 2010.05.20 11:23:22.
