data_PCOD9581982
_publ_section_title
;
Structure prediction by ZEFSAII (Michael W. Deem and Ramdas Pophale) SiO2 
 PCOD9581982
Probable space group: P 63/M
;
_chemical_formula_sum "Si O2"
_cell_formula_units_Z 96
_cell_length_a 13.631482
_cell_length_b 13.631482
_cell_length_c 26.898801
_cell_angle_alpha 90.000000
_cell_angle_beta 90.000000
_cell_angle_gamma 120.000000
_cell_volume 4328.622400
_symmetry_space_group_name_H-M "P 63/M"
_symmetry_group_IT_number 176
_symmetry_cell_setting 'hexagonal'
loop_
_space_group_symop_operation_xyz
x,y,z
x-y,x,1/2+z
-y,x-y,z
-x,-y,1/2+z
-x+y,-x,z
y,-x+y,1/2+z
-x,-y,-z
-x+y,-x,1/2-z
y,-x+y,-z
x,y,1/2-z
x-y,x,-z
-y,x-y,1/2-z
loop_
_atom_site_type_symbol
_atom_site_label
_atom_site_fract_x
_atom_site_fract_y
_atom_site_fract_z
Si Si1 0.126868 0.553323 0.407997
Si Si2 0.133933 0.266260 0.844897
Si Si3 0.867673 0.733740 0.844897
Si Si4 0.789860 0.188774 0.445109
Si Si5 0.426454 0.553323 0.592003
Si Si6 0.345261 0.862240 0.195661
Si Si7 0.398915 0.188774 0.554891
Si Si8 0.862241 0.345261 0.304339
O O1 0.172746 0.566491 0.351596
O O2 0.122726 0.658806 0.430039
O O3 0.188630 0.505037 0.441518
O O4 0.000000 0.450136 0.405454
O O5 0.178532 0.178532 0.834525
O O6 0.160449 0.306865 0.902373
O O7 0.216864 0.382644 0.815565
O O8 0.000000 0.210460 0.834987
O O9 0.834219 0.617356 0.815565
O O10 0.853583 0.693135 0.902374
O O11 0.658806 0.122726 0.430039
O O12 0.811370 0.316407 0.441518
O O13 0.824622 0.175378 0.500000
O O14 0.393745 0.566491 0.648404
O O15 0.353892 0.820333 0.250000
O O16 0.418777 1.000000 0.197392
O O17 0.820333 0.353893 0.250000
#
# Coordination Sequence:
#
# PCOD9581982 Si02
#       8
#    12  12  12  12  12  12  12  12
#     4  10  21  37  57  82 112 144 182 235 294 348
#     4  10  21  36  55  82 117 157 200 243 286 337
#     4  10  21  36  55  82 117 157 200 243 286 337
#     4  11  22  36  56  82 110 145 193 244 297 356
#     4  10  21  37  57  82 112 144 182 235 294 348
#     4   8  16  34  58  82 110 144 182 228 284 342
#     4  11  22  36  56  82 110 145 193 244 297 356
#     4   8  16  34  58  82 110 144 182 228 284 342
#
# _framework density 22.177956999999999
#
# number of rings (size 3 to 8) (size 9 to 14) (size 15 to 20)
#    0.000    2.250    0.000    4.500    0.000    5.500 
#    0.000    5.000    0.000    9.000    0.000    0.000 
#    0.000    0.000    0.000    0.000    0.000    0.000 
#
# Total GULP energy -535776.460363 kJ/mol
# GULP energy per Si atom -5581.004795 kJ/mol
# Density = 2.212748 g / cm^3
# Si number density = 22.177957 Si / 1000 Ang^3
#
#
#
# Elastic Constant Matrix: (Units=GPa)
#
#
# Indices 1 2 3 4 5 6 
#
# 1 64.5179 11.5873 -7.8142 0.0000 0.0000 0.0000
# 2 11.5873 64.5179 -7.8142 0.0000 0.0000 0.0000
# 3 -7.8142 -7.8142 91.9652 0.0000 0.0000 0.0000
# 4 0.0000 0.0000 0.0000 -2.4352 0.0000 0.0000
# 5 0.0000 0.0000 0.0000 0.0000 -2.4352 0.0000
# 6 0.0000 0.0000 0.0000 0.0000 0.0000 26.4653
#
#
#
# Elastic Compliance Matrix: (Units=1/GPa)
#
#
# Indices 1 2 3 4 5 6 
#
# 1 0.016133 -0.002760 0.001136 0.000000 0.000000 0.000000
# 2 -0.002760 0.016133 0.001136 0.000000 0.000000 0.000000
# 3 0.001136 0.001136 0.011067 0.000000 0.000000 0.000000
# 4 0.000000 0.000000 0.000000 -0.410644 0.000000 0.000000
# 5 0.000000 0.000000 0.000000 0.000000 -0.410644 0.000000
# 6 0.000000 0.000000 0.000000 0.000000 0.000000 0.037785
#
#
# Mechanical properties :
#
#
# Convention : Reuss Voigt Hill
#
# Bulk Modulus (GPa) = 23.60826 23.65764 23.63295
# Shear Modulus (GPa) = -6.89583 19.32178 6.21297
#
# Velocity S-wave (km/s) = -1.76524 2.95484 1.67556
# Velocity P-wave (km/s) = 2.55211 4.72565 3.79770
#
# Compressibility (1/GPa) = 0.04235806
#
# Stress axis : x y z
#
# Youngs Moduli (GPa) = 61.98528 61.98528 90.36054
#
# Poissons Ratio (x) = 0.17107 -0.10268
# Poissons Ratio (y) = 0.17107 -0.10268
# Poissons Ratio (z) = -0.07043 -0.07043
#
# Static dielectric constant tensor:
#      x y z
#    x 1.821500 0.000000 0.000000 
#    y 0.000000 1.821500 0.000000 
#    z 0.000000 0.000000 1.840450 
# 
# From -- ./inp_files/4350.got.cif
#   From: 2010.05.17/outbox.cif.g08.bks.cpg/sg176_3_cif.got.tgz:4350.got - 2010.06.03 11:36:45.
