data_PCOD9581683
_publ_section_title
;
Structure prediction by ZEFSAII (Michael W. Deem and Ramdas Pophale) SiO2 
 PCOD9581683
Probable space group: P 6/M
;
_chemical_formula_sum "Si O2"
_cell_formula_units_Z 76
_cell_length_a 18.734385
_cell_length_b 18.734385
_cell_length_c 13.794964
_cell_angle_alpha 90.000000
_cell_angle_beta 90.000000
_cell_angle_gamma 120.000000
_cell_volume 4193.050423
_symmetry_space_group_name_H-M "P 6/M"
_symmetry_group_IT_number 175
_symmetry_cell_setting 'hexagonal'
loop_
_space_group_symop_operation_xyz
x,y,z
x-y,x,z
-y,x-y,z
-x,-y,z
-x+y,-x,z
y,-x+y,z
-x,-y,-z
-x+y,-x,-z
y,-x+y,-z
x,y,-z
x-y,x,-z
-y,x-y,-z
loop_
_atom_site_type_symbol
_atom_site_label
_atom_site_fract_x
_atom_site_fract_y
_atom_site_fract_z
Si Si1 0.040011 0.178979 0.381636
Si Si2 0.628553 0.816030 0.115709
Si Si3 0.405857 0.432065 0.720803
Si Si4 0.687579 0.686800 0.885436
Si Si5 0.333334 0.666668 0.621191
Si Si6 0.362216 0.266409 0.385323
Si Si7 0.785963 0.269602 0.706960
O O1 0.109761 0.159245 0.349010
O O2 0.039607 0.177733 0.500000
O O3 0.061710 0.269161 0.350789
O O4 0.686089 0.913958 0.138239
O O5 0.674231 0.763854 0.137094
O O6 0.546085 0.782578 0.182110
O O7 0.610150 0.808131 0.000000
O O8 0.500000 0.500000 0.716654
O O9 0.380503 0.391294 0.826807
O O10 0.391721 0.356851 0.653279
O O11 0.345254 0.466657 0.693874
O O12 0.676268 0.674513 0.000000
O O13 0.333334 0.666668 0.500000
O O14 0.425359 0.722418 0.666587
O O15 0.361293 0.267437 0.500000
O O16 0.419777 0.230696 0.352247
#
# Coordination Sequence:
#
# PCOD9581683 Si02
#       7
#    12  12  12  12   4  12  12
#     4   9  17  30  50  76 106 140 180 228 284 341
#     4   9  18  36  63  94 124 156 197 243 299 357
#     4  11  23  38  59  86 113 147 190 245 299 354
#     4   9  18  35  62  92 121 154 191 237 293 358
#     4  12  27  45  64  83 115 165 201 246 304 359
#     4  11  22  37  56  79 109 150 198 244 290 343
#     4  11  23  40  61  85 118 151 200 244 299 362
#
# _framework density 18.125229000000001
#
# number of rings (size 3 to 8) (size 9 to 14) (size 15 to 20)
#    0.000    1.895    1.579    2.526    0.000    3.789 
#    0.000    0.789    0.000    0.316    0.000    2.211 
#    0.000    0.000    0.000    0.000    0.000    0.000 
#
# Total GULP energy -423750.440434 kJ/mol
# GULP energy per Si atom -5575.663690 kJ/mol
# Density = 1.808398 g / cm^3
# Si number density = 18.125229 Si / 1000 Ang^3
#
#
#
# Elastic Constant Matrix: (Units=GPa)
#
#
# Indices 1 2 3 4 5 6 
#
# 1 161.3934 86.3778 49.7343 0.0000 0.0000 -0.0002
# 2 86.3778 161.3907 49.7340 0.0000 0.0000 -0.0002
# 3 49.7343 49.7340 84.3972 0.0000 0.0000 0.0000
# 4 0.0000 0.0000 0.0000 18.4825 0.0001 0.0000
# 5 0.0000 0.0000 0.0000 0.0001 18.4836 0.0000
# 6 -0.0002 -0.0002 0.0000 0.0000 0.0000 37.5076
#
#
#
# Elastic Compliance Matrix: (Units=1/GPa)
#
#
# Indices 1 2 3 4 5 6 
#
# 1 0.009309 -0.004022 -0.003115 0.000000 0.000000 0.000000
# 2 -0.004022 0.009309 -0.003115 0.000000 0.000000 0.000000
# 3 -0.003115 -0.003115 0.015520 0.000000 0.000000 0.000000
# 4 0.000000 0.000000 0.000000 0.054105 0.000000 0.000000
# 5 0.000000 0.000000 0.000000 0.000000 0.054102 0.000000
# 6 0.000000 0.000000 0.000000 0.000000 0.000000 0.026661
#
#
# Mechanical properties :
#
#
# Convention : Reuss Voigt Hill
#
# Bulk Modulus (GPa) = 73.35514 86.54150 79.94832
# Shear Modulus (GPa) = 25.76576 29.65043 27.70809
#
# Velocity S-wave (km/s) = 3.77442 4.04897 3.91410
# Velocity P-wave (km/s) = 7.71714 8.34919 8.03938
#
# Compressibility (1/GPa) = 0.01363231
#
# Stress axis : x y z
#
# Youngs Moduli (GPa) = 107.42689 107.42507 64.43115
#
# Poissons Ratio (x) = 0.43207 0.20073
# Poissons Ratio (y) = 0.43208 0.20073
# Poissons Ratio (z) = 0.33467 0.33467
#
# Static dielectric constant tensor:
#      x y z
#    x 1.604030 0.000000 0.000000 
#    y 0.000000 1.604030 0.000000 
#    z 0.000000 0.000000 1.657790 
# 
# From -- ./inp_files/2541.got.cif
#   From: 2010.05.17/outbox.cif.g08.bks.cpg/sg175_2_cif.got.tgz:2541.got - 2010.05.20 11:23:22.
