data_PCOD9581140
_publ_section_title
;
Structure prediction by ZEFSAII (Michael W. Deem and Ramdas Pophale) SiO2 
 PCOD9581140
Probable space group: P -6
;
_chemical_formula_sum "Si O2"
_cell_formula_units_Z 48
_cell_length_a 19.181010
_cell_length_b 19.181010
_cell_length_c 8.923546
_cell_angle_alpha 90.000000
_cell_angle_beta 90.000000
_cell_angle_gamma 120.000000
_cell_volume 2843.223774
_symmetry_space_group_name_H-M "P -6"
_symmetry_group_IT_number 174
_symmetry_cell_setting 'hexagonal'
loop_
_space_group_symop_operation_xyz
x,y,z
-x+y,-x,-z
-y,x-y,z
x,y,-z
-x+y,-x,z
-y,x-y,-z
loop_
_atom_site_type_symbol
_atom_site_label
_atom_site_fract_x
_atom_site_fract_y
_atom_site_fract_z
Si Si1 0.754834 0.087175 0.680478
Si Si2 0.838961 0.998652 0.820588
Si Si3 0.000885 0.161551 0.820087
Si Si4 0.752286 0.666095 0.320616
Si Si5 0.996987 0.569660 0.679497
Si Si6 0.184251 0.515184 0.820474
Si Si7 0.332634 0.517322 0.321134
Si Si8 0.996853 0.419744 0.178566
O O1 0.755258 0.083478 0.500000
O O2 0.780946 0.025410 0.744126
O O3 0.824667 0.176498 0.725423
O O4 0.939626 0.604121 0.727712
O O5 0.930097 0.070095 0.790083
O O6 0.826642 0.913035 0.772310
O O7 0.827977 0.996220 0.000000
O O8 0.974723 0.219073 0.739430
O O9 0.002612 0.173915 0.000000
O O10 0.748025 0.664745 0.500000
O O11 0.665964 0.606060 0.252503
O O12 0.989458 0.556036 0.500000
O O13 0.090593 0.635737 0.708817
O O14 0.979873 0.488477 0.760382
O O15 0.201612 0.599843 0.749838
O O16 0.247361 0.492704 0.751756
O O17 0.091069 0.451504 0.785089
O O18 0.192945 0.522941 0.000000
O O19 0.329464 0.526046 0.500000
O O20 0.988742 0.413902 0.000000
#
# Coordination Sequence:
#
# PCOD9581140 Si02
#       8
#     6   6   6   6   6   6   6   6
#     4   9  19  35  53  75 101 128 161 201 246 297
#     4   9  17  29  47  70  99 137 176 212 248 285
#     4   9  17  30  47  70 101 137 177 215 249 286
#     4  10  20  34  53  75 100 131 164 201 248 299
#     4   9  19  36  55  74  98 127 160 200 246 296
#     4  10  20  33  48  68  99 136 170 206 244 283
#     4  10  19  31  49  72  98 131 170 208 243 283
#     4  10  21  36  54  76 100 127 162 203 246 295
#
# _framework density 16.882245000000001
#
# number of rings (size 3 to 8) (size 9 to 14) (size 15 to 20)
#    0.000    2.500    0.000    2.000    0.000    5.500 
#    0.000    2.500    0.000    2.000    0.000    1.750 
#    0.000    0.000    0.000    0.000    0.000    0.000 
#
# Total GULP energy -267803.736011 kJ/mol
# GULP energy per Si atom -5579.244500 kJ/mol
# Density = 1.684382 g / cm^3
# Si number density = 16.882245 Si / 1000 Ang^3
#
#
#
# Elastic Constant Matrix: (Units=GPa)
#
#
# Indices 1 2 3 4 5 6 
#
# 1 113.9399 96.6323 47.3566 0.0000 0.0000 0.0000
# 2 96.6323 113.9399 47.3566 0.0000 0.0000 0.0000
# 3 47.3566 47.3566 39.0619 0.0000 0.0000 0.0000
# 4 0.0000 0.0000 0.0000 25.2053 0.0000 0.0000
# 5 0.0000 0.0000 0.0000 0.0000 25.2053 0.0000
# 6 0.0000 0.0000 0.0000 0.0000 0.0000 8.6538
#
#
#
# Elastic Compliance Matrix: (Units=1/GPa)
#
#
# Indices 1 2 3 4 5 6 
#
# 1 0.034111 -0.023667 -0.012662 0.000000 0.000000 0.000000
# 2 -0.023667 0.034111 -0.012662 0.000000 0.000000 0.000000
# 3 -0.012662 -0.012662 0.056302 0.000000 0.000000 0.000000
# 4 0.000000 0.000000 0.000000 0.039674 0.000000 0.000000
# 5 0.000000 0.000000 0.000000 0.000000 0.039674 0.000000
# 6 0.000000 0.000000 0.000000 0.000000 0.000000 0.115557
#
#
# Mechanical properties :
#
#
# Convention : Reuss Voigt Hill
#
# Bulk Modulus (GPa) = 37.67580 72.18140 54.92860
# Shear Modulus (GPa) = 11.72997 16.85261 14.29129
#
# Velocity S-wave (km/s) = 2.63879 3.16293 2.91267
# Velocity P-wave (km/s) = 5.62579 7.49583 6.62710
#
# Compressibility (1/GPa) = 0.02654223
#
# Stress axis : x y z
#
# Youngs Moduli (GPa) = 29.31585 29.31585 17.76146
#
# Poissons Ratio (x) = 0.69382 0.22489
# Poissons Ratio (y) = 0.69382 0.22489
# Poissons Ratio (z) = 0.37120 0.37120
#
# Static dielectric constant tensor:
#      x y z
#    x 1.555860 0.000000 0.000000 
#    y 0.000000 1.555860 0.000000 
#    z 0.000000 0.000000 1.562540 
# 
# From -- ./inp_files/587.got.cif
#   From: 2010.05.17/outbox.cif.g08.bks.cpg/sg174_cif.got.tgz:587.got - 2010.05.20 11:22:48.
