data_PCOD9581046
_publ_section_title
;
Structure prediction by ZEFSAII (Michael W. Deem and Ramdas Pophale) SiO2 
 PCOD9581046
Probable space group: P 63
;
_chemical_formula_sum "Si O2"
_cell_formula_units_Z 42
_cell_length_a 8.733749
_cell_length_b 8.733749
_cell_length_c 32.006519
_cell_angle_alpha 90.000000
_cell_angle_beta 90.000000
_cell_angle_gamma 120.000000
_cell_volume 2114.318881
_symmetry_space_group_name_H-M "P 63"
_symmetry_group_IT_number 173
_symmetry_cell_setting 'hexagonal'
loop_
_space_group_symop_operation_xyz
x,y,z
x-y,x,1/2+z
-y,x-y,z
-x,-y,1/2+z
-x+y,-x,z
y,-x+y,1/2+z
loop_
_atom_site_type_symbol
_atom_site_label
_atom_site_fract_x
_atom_site_fract_y
_atom_site_fract_z
Si Si1 0.442581 0.176180 0.453190
Si Si2 0.117562 0.232450 0.037589
Si Si3 0.353044 0.338220 0.154666
Si Si4 0.349836 0.011384 0.833564
Si Si5 0.360488 0.877680 0.748708
Si Si6 0.673930 0.987263 0.867265
Si Si7 0.696859 0.032049 0.623849
O O1 0.611221 0.147607 0.448912
O O2 0.355611 0.144463 0.498384
O O3 0.317006 0.061665 0.415650
O O4 0.189682 0.094255 0.036088
O O5 0.125448 0.330658 0.080483
O O6 0.428510 0.357209 0.201146
O O7 0.501869 0.500344 0.127899
O O8 0.176284 0.350341 0.157069
O O9 0.309321 0.152037 0.133850
O O10 0.381710 0.015733 0.783936
O O11 0.150433 0.858313 0.841882
O O12 0.480487 0.954579 0.855392
O O13 0.374059 0.188463 0.853985
O O14 0.180257 0.688750 0.755141
#
# Coordination Sequence:
#
# PCOD9581046 Si02
#       7
#     6   6   6   6   6   6   6
#     4  10  23  41  68  97 133 178 226 284 354 419
#     4  10  23  41  65 101 138 174 225 296 342 422
#     4  12  24  42  72  98 139 184 230 290 344 420
#     4  12  24  42  72  95 140 177 230 286 341 418
#     4  10  20  42  69  98 134 179 228 284 349 403
#     4  12  24  45  66 105 132 188 226 284 356 418
#     4  12  24  45  66 106 138 188 233 282 360 418
#
# _framework density 19.864554999999999
#
# number of rings (size 3 to 8) (size 9 to 14) (size 15 to 20)
#    0.857    0.000    5.714    1.714    4.000    2.286 
#    0.000    0.000    0.000    2.286    0.000    0.000 
#    0.000    0.000    0.000    0.000    0.000    0.000 
#
# Total GULP energy -234093.698764 kJ/mol
# GULP energy per Si atom -5573.659494 kJ/mol
# Density = 1.981934 g / cm^3
# Si number density = 19.864555 Si / 1000 Ang^3
#
#
#
# Elastic Constant Matrix: (Units=GPa)
#
#
# Indices 1 2 3 4 5 6 
#
# 1 67.5540 6.6096 24.1821 0.0000 0.0000 0.0000
# 2 6.6096 67.5540 24.1821 0.0000 0.0000 0.0000
# 3 24.1821 24.1821 141.6989 0.0000 0.0000 0.0000
# 4 0.0000 0.0000 0.0000 32.3581 0.0000 0.0000
# 5 0.0000 0.0000 0.0000 0.0000 32.3581 0.0000
# 6 0.0000 0.0000 0.0000 0.0000 0.0000 30.4722
#
#
#
# Elastic Compliance Matrix: (Units=1/GPa)
#
#
# Indices 1 2 3 4 5 6 
#
# 1 0.015790 -0.000618 -0.002589 0.000000 0.000000 0.000000
# 2 -0.000618 0.015790 -0.002589 0.000000 0.000000 0.000000
# 3 -0.002589 -0.002589 0.007941 0.000000 0.000000 0.000000
# 4 0.000000 0.000000 0.000000 0.030904 0.000000 0.000000
# 5 0.000000 0.000000 0.000000 0.000000 0.030904 0.000000
# 6 0.000000 0.000000 0.000000 0.000000 0.000000 0.032817
#
#
# Mechanical properties :
#
#
# Convention : Reuss Voigt Hill
#
# Bulk Modulus (GPa) = 35.80585 42.97270 39.38927
# Shear Modulus (GPa) = 32.24777 33.82654 33.03716
#
# Velocity S-wave (km/s) = 4.03349 4.13105 4.08256
# Velocity P-wave (km/s) = 6.30525 6.66588 6.48807
#
# Compressibility (1/GPa) = 0.02792840
#
# Stress axis : x y z
#
# Youngs Moduli (GPa) = 63.32993 63.32993 125.92912
#
# Poissons Ratio (x) = 0.03914 0.32606
# Poissons Ratio (y) = 0.03914 0.32606
# Poissons Ratio (z) = 0.16398 0.16398
#
# Static dielectric constant tensor:
#      x y z
#    x 1.705990 0.000000 0.000000 
#    y 0.000000 1.705990 0.000000 
#    z 0.000000 0.000000 1.724910 
# 
# From -- ./inp_files/1517.got.cif
#   From: 2010.05.17/outbox.cif.g08.bks.cpg/sg173_cif.got.tgz:1517.got - 2010.05.20 11:21:53.
