data_PCOD9581060
_publ_section_title
;
Structure prediction by ZEFSAII (Michael W. Deem and Ramdas Pophale) SiO2 
 PCOD9581060
Probable space group: P 63
;
_chemical_formula_sum "Si O2"
_cell_formula_units_Z 28
_cell_length_a 10.924858
_cell_length_b 10.924858
_cell_length_c 13.951424
_cell_angle_alpha 90.000000
_cell_angle_beta 90.000000
_cell_angle_gamma 120.000000
_cell_volume 1442.051501
_symmetry_space_group_name_H-M "P 63"
_symmetry_group_IT_number 173
_symmetry_cell_setting 'hexagonal'
loop_
_space_group_symop_operation_xyz
x,y,z
x-y,x,1/2+z
-y,x-y,z
-x,-y,1/2+z
-x+y,-x,z
y,-x+y,1/2+z
loop_
_atom_site_type_symbol
_atom_site_label
_atom_site_fract_x
_atom_site_fract_y
_atom_site_fract_z
Si Si1 0.281443 0.286950 0.163660
Si Si2 0.286950 0.005506 0.165620
Si Si3 0.333334 0.666668 0.800137
Si Si4 0.995165 0.500103 0.528940
Si Si5 0.333335 0.666668 0.029142
Si Si6 0.004836 0.499898 0.800340
O O1 0.267620 0.137959 0.192319
O O2 0.395078 0.355120 0.077213
O O3 0.350008 0.403477 0.248554
O O4 0.129662 0.267621 0.136961
O O5 0.355120 0.960042 0.252067
O O6 0.403478 0.053471 0.080726
O O7 0.171346 0.576850 0.772433
O O8 0.333334 0.666667 0.914640
O O9 0.828655 0.423151 0.556847
O O10 0.012625 0.509957 0.414640
#
# Coordination Sequence:
#
# PCOD9581060 Si02
#       6
#     6   6   2   6   2   6
#     4  11  23  38  60  88 123 157 196 242 296 357
#     4  11  23  38  60  88 123 157 196 242 296 357
#     4   9  15  33  63  81 100 149 199 240 285 339
#     4  10  21  39  62  85 114 154 200 246 296 351
#     4   9  15  33  63  81 100 149 199 240 285 339
#     4  10  21  39  62  85 114 154 200 246 296 351
#
# _framework density 19.416782000000001
#
# number of rings (size 3 to 8) (size 9 to 14) (size 15 to 20)
#    0.000    1.714    4.286    0.429    0.000    1.714 
#    2.571    0.000    0.000    5.143    0.000    0.000 
#    0.000    0.000    0.000    0.000    0.000    0.000 
#
# Total GULP energy -156105.381079 kJ/mol
# GULP energy per Si atom -5575.192181 kJ/mol
# Density = 1.937259 g / cm^3
# Si number density = 19.416782 Si / 1000 Ang^3
#
#
#
# Elastic Constant Matrix: (Units=GPa)
#
#
# Indices 1 2 3 4 5 6 
#
# 1 61.3820 43.0877 22.1528 0.0000 0.0000 -0.0016
# 2 43.0877 61.3794 22.1527 0.0000 0.0000 -0.0017
# 3 22.1528 22.1527 127.6463 0.0000 0.0000 0.0003
# 4 0.0000 0.0000 0.0000 21.5764 -0.0001 0.0000
# 5 0.0000 0.0000 0.0000 -0.0001 21.5762 0.0000
# 6 -0.0016 -0.0017 0.0003 0.0000 0.0000 9.1468
#
#
#
# Elastic Compliance Matrix: (Units=1/GPa)
#
#
# Indices 1 2 3 4 5 6 
#
# 1 0.032498 -0.022166 -0.001793 0.000000 0.000000 0.000002
# 2 -0.022166 0.032500 -0.001793 0.000000 0.000000 0.000002
# 3 -0.001793 -0.001793 0.008457 0.000000 0.000000 -0.000001
# 4 0.000000 0.000000 0.000000 0.046347 0.000000 0.000000
# 5 0.000000 0.000000 0.000000 0.000000 0.046347 0.000000
# 6 0.000002 0.000002 -0.000001 0.000000 0.000000 0.109328
#
#
# Mechanical properties :
#
#
# Convention : Reuss Voigt Hill
#
# Bulk Modulus (GPa) = 45.55970 47.24378 46.40174
# Shear Modulus (GPa) = 14.95664 21.32751 18.14207
#
# Velocity S-wave (km/s) = 2.77843 3.31782 3.06003
# Velocity P-wave (km/s) = 5.81446 6.24992 6.03611
#
# Compressibility (1/GPa) = 0.02194922
#
# Stress axis : x y z
#
# Youngs Moduli (GPa) = 30.77070 30.76932 118.25128
#
# Poissons Ratio (x) = 0.68204 0.21204
# Poissons Ratio (y) = 0.68208 0.21206
# Poissons Ratio (z) = 0.05518 0.05518
#
# Static dielectric constant tensor:
#      x y z
#    x 1.690810 0.000000 0.000000 
#    y 0.000000 1.690810 0.000000 
#    z 0.000000 0.000000 1.668650 
# 
# From -- ./inp_files/980.got.cif
#   From: 2010.05.17/outbox.cif.g08.bks.cpg/sg173_cif.got.tgz:980.got - 2010.05.20 11:21:53.
