data_PCOD9581615
_publ_section_title
;
Structure prediction by ZEFSAII (Michael W. Deem and Ramdas Pophale) SiO2 
 PCOD9581615
Probable space group: P 6/M
;
_chemical_formula_sum "Si O2"
_cell_formula_units_Z 64
_cell_length_a 15.003805
_cell_length_b 15.003805
_cell_length_c 17.751520
_cell_angle_alpha 90.000000
_cell_angle_beta 90.000000
_cell_angle_gamma 120.000000
_cell_volume 3460.740218
_symmetry_space_group_name_H-M "P 6/M"
_symmetry_group_IT_number 175
_symmetry_cell_setting 'hexagonal'
loop_
_space_group_symop_operation_xyz
x,y,z
x-y,x,z
-y,x-y,z
-x,-y,z
-x+y,-x,z
y,-x+y,z
-x,-y,-z
-x+y,-x,-z
y,-x+y,-z
x,y,-z
x-y,x,-z
-y,x-y,-z
loop_
_atom_site_type_symbol
_atom_site_label
_atom_site_fract_x
_atom_site_fract_y
_atom_site_fract_z
Si Si1 0.990461 0.602373 0.908869
Si Si2 0.333335 0.666668 0.911235
Si Si3 0.120984 0.877804 0.417330
Si Si4 0.209027 0.767245 0.149673
Si Si5 0.563625 0.123102 0.587378
Si Si6 0.220571 0.776497 0.329013
O O1 0.089251 0.706210 0.876342
O O2 0.000000 0.500000 0.888397
O O3 0.883010 0.593118 0.880068
O O4 0.991888 0.606816 0.000000
O O5 0.444658 0.748862 0.882790
O O6 0.333334 0.666668 0.000000
O O7 0.147749 0.851094 0.500000
O O8 0.162029 0.836165 0.352577
O O9 0.999427 0.826018 0.413690
O O10 0.218220 0.766719 0.239683
O O11 0.586186 0.158158 0.500000
O O12 0.666123 0.162050 0.635860
O O13 0.497792 0.165368 0.628794
O O14 0.500000 0.000000 0.586811
#
# Coordination Sequence:
#
# PCOD9581615 Si02
#       6
#    12   4  12  12  12  12
#     4  11  24  44  70  97 133 171 214 264 330 413
#     4  12  21  42  69  96 127 158 211 261 324 396
#     4  10  21  39  64  89 116 154 205 262 318 366
#     4  12  26  39  67 102 133 172 212 269 335 384
#     4  11  24  41  63  88 125 175 219 257 313 383
#     4  12  25  39  61  88 130 165 209 264 300 377
#
# _framework density 18.493154000000001
#
# number of rings (size 3 to 8) (size 9 to 14) (size 15 to 20)
#    0.000    0.750    1.875    6.188    5.250    3.750 
#    0.000    0.000    0.000    0.375    0.000    1.312 
#    0.000    0.000    0.000    0.000    0.000    0.000 
#
# Total GULP energy -357657.486112 kJ/mol
# GULP energy per Si atom -5588.398220 kJ/mol
# Density = 1.845106 g / cm^3
# Si number density = 18.493154 Si / 1000 Ang^3
#
#
#
# Elastic Constant Matrix: (Units=GPa)
#
#
# Indices 1 2 3 4 5 6 
#
# 1 81.0855 40.9494 40.9696 0.0000 0.0000 0.0005
# 2 40.9494 81.0932 40.9743 0.0000 0.0000 0.0039
# 3 40.9696 40.9743 169.0015 0.0000 0.0000 -0.0003
# 4 0.0000 0.0000 0.0000 -291.5081 -0.0320 0.0000
# 5 0.0000 0.0000 0.0000 -0.0320 -291.7623 0.0000
# 6 0.0005 0.0039 -0.0003 0.0000 0.0000 20.0664
#
#
#
# Elastic Compliance Matrix: (Units=1/GPa)
#
#
# Indices 1 2 3 4 5 6 
#
# 1 0.017351 -0.007563 -0.002373 0.000000 0.000000 0.000001
# 2 -0.007563 0.017349 -0.002373 0.000000 0.000000 -0.000003
# 3 -0.002373 -0.002373 0.007068 0.000000 0.000000 0.000001
# 4 0.000000 0.000000 0.000000 -0.003430 0.000000 0.000000
# 5 0.000000 0.000000 0.000000 0.000000 -0.003427 0.000000
# 6 0.000001 -0.000003 0.000001 0.000000 0.000000 0.049835
#
#
# Mechanical properties :
#
#
# Convention : Reuss Voigt Hill
#
# Bulk Modulus (GPa) = 58.30524 64.10742 61.20633
# Shear Modulus (GPa) = 43.44870 -98.75502 -27.65316
#
# Velocity S-wave (km/s) = 4.85237 -7.31552 -3.87113
# Velocity P-wave (km/s) = 7.93665 6.05103 3.63149
#
# Compressibility (1/GPa) = 0.01715112
#
# Stress axis : x y z
#
# Youngs Moduli (GPa) = 57.63433 57.63871 141.49055
#
# Poissons Ratio (x) = 0.43591 0.33570
# Poissons Ratio (y) = 0.43587 0.33576
# Poissons Ratio (z) = 0.13674 0.13678
#
# Static dielectric constant tensor:
#      x y z
#    x 1.633520 0.000000 0.000000 
#    y 0.000000 1.633520 0.000000 
#    z 0.000000 0.000000 1.602170 
# 
# From -- ./inp_files/2843.got.cif
#   From: 2010.05.17/outbox.cif.g08.bks.cpg/sg175_2_cif.got.tgz:2843.got - 2010.05.20 11:23:22.
