data_PCOD9581766
_publ_section_title
;
Structure prediction by ZEFSAII (Michael W. Deem and Ramdas Pophale) SiO2 
 PCOD9581766
Probable space group: P 63/M
;
_chemical_formula_sum "Si O2"
_cell_formula_units_Z 84
_cell_length_a 20.638863
_cell_length_b 20.638863
_cell_length_c 13.145305
_cell_angle_alpha 90.000000
_cell_angle_beta 90.000000
_cell_angle_gamma 120.000000
_cell_volume 4849.230581
_symmetry_space_group_name_H-M "P 63/M"
_symmetry_group_IT_number 176
_symmetry_cell_setting 'hexagonal'
loop_
_space_group_symop_operation_xyz
x,y,z
x-y,x,1/2+z
-y,x-y,z
-x,-y,1/2+z
-x+y,-x,z
y,-x+y,1/2+z
-x,-y,-z
-x+y,-x,1/2-z
y,-x+y,-z
x,y,1/2-z
x-y,x,-z
-y,x-y,1/2-z
loop_
_atom_site_type_symbol
_atom_site_label
_atom_site_fract_x
_atom_site_fract_y
_atom_site_fract_z
Si Si1 0.633873 0.938141 0.367912
Si Si2 0.586858 0.657465 0.514812
Si Si3 0.145617 0.258711 0.632581
Si Si4 0.541393 0.376673 0.868979
Si Si5 0.212154 0.435584 0.866558
Si Si6 0.787850 0.291857 0.567927
Si Si7 0.250175 0.230651 0.506168
O O1 0.646191 0.957888 0.250000
O O2 0.572223 0.852955 0.383424
O O3 0.609995 0.992348 0.426502
O O4 0.711696 0.960041 0.423229
O O5 0.520086 0.616642 0.436349
O O6 0.566419 0.702596 0.597185
O O7 0.662261 0.723442 0.460969
O O8 0.121494 0.241052 0.750000
O O9 0.194242 0.349710 0.625968
O O10 0.195655 0.223850 0.595779
O O11 0.077477 0.235018 0.554589
O O12 0.536671 0.390336 0.750000
O O13 0.524334 0.292079 0.886435
O O14 0.624514 0.432168 0.908496
O O15 0.230125 0.459592 0.750000
O O16 0.274164 0.486772 0.948296
#
# Coordination Sequence:
#
# PCOD9581766 Si02
#       7
#    12  12  12  12  12  12  12
#     4  10  18  33  54  80 108 139 183 235 291 339
#     4   8  19  32  53  80 105 139 183 231 285 341
#     4  10  18  34  58  84 121 155 180 230 291 334
#     4  11  22  37  54  77 113 151 192 238 284 332
#     4   9  16  33  57  79 107 142 179 230 287 334
#     4  11  22  37  54  80 107 152 198 234 279 346
#     4   9  19  34  55  88 114 146 193 227 277 352
#
# _framework density 17.322334999999999
#
# number of rings (size 3 to 8) (size 9 to 14) (size 15 to 20)
#    0.857    1.429    1.429    2.429    0.000    1.143 
#    0.000    5.714    0.000    0.286    0.000    0.000 
#    0.000    0.000    0.000    0.000    0.000    0.000 
#
# Total GULP energy -467859.462383 kJ/mol
# GULP energy per Si atom -5569.755505 kJ/mol
# Density = 1.728291 g / cm^3
# Si number density = 17.322335 Si / 1000 Ang^3
#
#
#
# Elastic Constant Matrix: (Units=GPa)
#
#
# Indices 1 2 3 4 5 6 
#
# 1 23.8037 -5.0770 8.7401 0.0000 0.0000 0.0000
# 2 -5.0770 23.8037 8.7401 0.0000 0.0000 0.0000
# 3 8.7401 8.7401 87.6147 0.0000 0.0000 0.0000
# 4 0.0000 0.0000 0.0000 16.0198 0.0000 0.0000
# 5 0.0000 0.0000 0.0000 0.0000 16.0198 0.0000
# 6 0.0000 0.0000 0.0000 0.0000 0.0000 14.4404
#
#
#
# Elastic Compliance Matrix: (Units=1/GPa)
#
#
# Indices 1 2 3 4 5 6 
#
# 1 0.046754 0.012129 -0.005874 0.000000 0.000000 0.000000
# 2 0.012129 0.046754 -0.005874 0.000000 0.000000 0.000000
# 3 -0.005874 -0.005874 0.012586 0.000000 0.000000 0.000000
# 4 0.000000 0.000000 0.000000 0.062423 0.000000 0.000000
# 5 0.000000 0.000000 0.000000 0.000000 0.062423 0.000000
# 6 0.000000 0.000000 0.000000 0.000000 0.000000 0.069250
#
#
# Mechanical properties :
#
#
# Convention : Reuss Voigt Hill
#
# Bulk Modulus (GPa) = 9.35847 17.78096 13.56971
# Shear Modulus (GPa) = 14.92333 17.48391 16.20362
#
# Velocity S-wave (km/s) = 2.93833 3.18044 3.06178
# Velocity P-wave (km/s) = 4.11412 4.87585 4.51109
#
# Compressibility (1/GPa) = 0.10685507
#
# Stress axis : x y z
#
# Youngs Moduli (GPa) = 21.38861 21.38861 79.45627
#
# Poissons Ratio (x) = -0.25942 0.46672
# Poissons Ratio (y) = -0.25942 0.46672
# Poissons Ratio (z) = 0.12564 0.12564
#
# Static dielectric constant tensor:
#      x y z
#    x 1.589990 0.000000 0.000000 
#    y 0.000000 1.589990 0.000000 
#    z 0.000000 0.000000 1.577480 
# 
# From -- ./inp_files/2038.got.cif
#   From: 2010.05.17/outbox.cif.g08.bks.cpg/sg176_2_cif.got.tgz:2038.got - 2010.06.03 11:36:45.
