data_PCOD9581535
_publ_section_title
;
Structure prediction by ZEFSAII (Michael W. Deem and Ramdas Pophale) SiO2 
 PCOD9581535
Probable space group: P 6/M
;
_chemical_formula_sum "Si O2"
_cell_formula_units_Z 78
_cell_length_a 23.272763
_cell_length_b 23.272763
_cell_length_c 9.959856
_cell_angle_alpha 90.000000
_cell_angle_beta 90.000000
_cell_angle_gamma 120.000000
_cell_volume 4671.749899
_symmetry_space_group_name_H-M "P 6/M"
_symmetry_group_IT_number 175
_symmetry_cell_setting 'hexagonal'
loop_
_space_group_symop_operation_xyz
x,y,z
x-y,x,z
-y,x-y,z
-x,-y,z
-x+y,-x,z
y,-x+y,z
-x,-y,-z
-x+y,-x,-z
y,-x+y,-z
x,y,-z
x-y,x,-z
-y,x-y,-z
loop_
_atom_site_type_symbol
_atom_site_label
_atom_site_fract_x
_atom_site_fract_y
_atom_site_fract_z
Si Si1 0.930098 0.750442 0.747736
Si Si2 0.916596 0.394644 0.656709
Si Si3 0.071773 0.789819 0.648351
Si Si4 0.533948 0.608588 0.655902
Si Si5 0.846156 0.889764 0.000000
Si Si6 0.600077 0.733924 0.844561
Si Si7 0.728169 0.594334 0.158482
O O1 0.867556 0.743101 0.665355
O O2 0.908006 0.677364 0.803973
O O3 0.997718 0.775982 0.666859
O O4 0.943237 0.800077 0.870530
O O5 0.899988 0.374527 0.500000
O O6 0.907995 0.458455 0.679442
O O7 0.877045 0.336003 0.761169
O O8 0.995130 0.420988 0.673930
O O9 0.079260 0.767249 0.500000
O O10 0.088377 0.752540 0.765154
O O11 0.540137 0.628984 0.500000
O O12 0.558301 0.670999 0.751401
O O13 0.905390 0.873477 0.000000
O O14 0.580768 0.791272 0.829394
O O15 0.592684 0.714138 0.000000
O O16 0.716265 0.598556 0.000000
#
# Coordination Sequence:
#
# PCOD9581535 Si02
#       7
#    12  12  12  12   6  12  12
#     4  11  22  35  57  76 106 139 179 226 280 335
#     4   9  18  35  55  78 108 142 176 218 265 317
#     4  11  23  37  53  76 105 140 179 225 279 336
#     4   9  19  34  54  79 110 143 176 215 266 323
#     4  12  23  40  62  82 104 145 193 243 291 343
#     4  10  21  34  51  79 110 140 175 217 271 320
#     4  10  22  35  53  79 109 142 181 221 270 320
#
# _framework density 16.696099
#
# number of rings (size 3 to 8) (size 9 to 14) (size 15 to 20)
#    0.000    1.846    2.308    2.846    2.154    7.385 
#    0.000    1.538    0.000    0.615    0.000    2.154 
#    0.000    0.000    0.000    0.000    0.000    0.000 
#
# Total GULP energy -435453.422436 kJ/mol
# GULP energy per Si atom -5582.736185 kJ/mol
# Density = 1.665810 g / cm^3
# Si number density = 16.696099 Si / 1000 Ang^3
#
#
#
# Elastic Constant Matrix: (Units=GPa)
#
#
# Indices 1 2 3 4 5 6 
#
# 1 89.7583 53.8810 72.3193 0.0000 0.0000 0.0000
# 2 53.8810 89.7583 72.3193 0.0000 0.0000 0.0000
# 3 72.3193 72.3193 138.2053 0.0000 0.0000 0.0000
# 4 0.0000 0.0000 0.0000 -8.8404 0.0000 0.0000
# 5 0.0000 0.0000 0.0000 0.0000 -8.8404 0.0000
# 6 0.0000 0.0000 0.0000 0.0000 0.0000 17.9386
#
#
#
# Elastic Compliance Matrix: (Units=1/GPa)
#
#
# Indices 1 2 3 4 5 6 
#
# 1 0.021294 -0.006578 -0.007700 0.000000 0.000000 0.000000
# 2 -0.006578 0.021294 -0.007700 0.000000 0.000000 0.000000
# 3 -0.007700 -0.007700 0.015295 0.000000 0.000000 0.000000
# 4 0.000000 0.000000 0.000000 -0.113117 0.000000 0.000000
# 5 0.000000 0.000000 0.000000 0.000000 -0.113117 0.000000
# 6 0.000000 0.000000 0.000000 0.000000 0.000000 0.055746
#
#
# Mechanical properties :
#
#
# Convention : Reuss Voigt Hill
#
# Bulk Modulus (GPa) = 71.81585 79.41791 75.61688
# Shear Modulus (GPa) = -78.11946 7.99837 -35.06055
#
# Velocity S-wave (km/s) = -6.84767 2.19111 -4.58746
# Velocity P-wave (km/s) = 4.40612 7.35332 4.16277
#
# Compressibility (1/GPa) = 0.01392450
#
# Stress axis : x y z
#
# Youngs Moduli (GPa) = 46.96077 46.96077 65.38287
#
# Poissons Ratio (x) = 0.30893 0.50348
# Poissons Ratio (y) = 0.30893 0.50348
# Poissons Ratio (z) = 0.36162 0.36162
#
# Static dielectric constant tensor:
#      x y z
#    x 1.546960 0.000000 0.000000 
#    y 0.000000 1.546960 0.000000 
#    z 0.000000 0.000000 1.558050 
# 
# From -- ./inp_files/1273.got.cif
#   From: 2010.05.17/outbox.cif.g08.bks.cpg/sg175_1_cif.got.tgz:1273.got - 2010.05.20 11:23:22.
