data_PCOD9581215
_publ_section_title
;
Structure prediction by ZEFSAII (Michael W. Deem and Ramdas Pophale) SiO2 
 PCOD9581215
Probable space group: P -6
;
_chemical_formula_sum "Si O2"
_cell_formula_units_Z 32
_cell_length_a 14.731657
_cell_length_b 14.731657
_cell_length_c 7.908353
_cell_angle_alpha 90.000000
_cell_angle_beta 90.000000
_cell_angle_gamma 120.000000
_cell_volume 1486.345851
_symmetry_space_group_name_H-M "P -6"
_symmetry_group_IT_number 174
_symmetry_cell_setting 'hexagonal'
loop_
_space_group_symop_operation_xyz
x,y,z
-x+y,-x,-z
-y,x-y,z
x,y,-z
-x+y,-x,z
-y,x-y,-z
loop_
_atom_site_type_symbol
_atom_site_label
_atom_site_fract_x
_atom_site_fract_y
_atom_site_fract_z
Si Si1 0.453574 0.546434 0.798525
Si Si2 0.295122 0.147562 0.302265
Si Si3 0.733540 0.266462 0.202892
Si Si4 0.333334 0.666668 0.206655
Si Si5 0.668423 0.936485 0.703324
Si Si6 0.668429 0.731942 0.703323
O O1 0.393264 0.606746 0.735256
O O2 0.382884 0.427154 0.743273
O O3 0.572853 0.617118 0.743260
O O4 0.452711 0.547306 0.000000
O O5 0.265872 0.132938 0.500000
O O6 0.421462 0.210730 0.288927
O O7 0.256169 0.223457 0.228996
O O8 0.256166 0.032714 0.228994
O O9 0.779895 0.389948 0.243765
O O10 0.741356 0.258646 0.000000
O O11 0.333334 0.666668 0.000000
O O12 0.675341 0.935330 0.500000
O O13 0.647511 0.823755 0.767118
O O14 0.675354 0.740023 0.500000
#
# Coordination Sequence:
#
# PCOD9581215 Si02
#       6
#     6   6   6   2   6   6
#     4  11  21  36  60  89 121 152 188 233 288 352
#     4  10  22  38  57  82 113 153 196 238 285 338
#     4   8  18  35  53  78 112 146 185 225 276 336
#     4   9  18  33  52  83 118 147 181 224 283 348
#     4  10  22  40  59  85 118 152 194 241 292 346
#     4  10  22  40  59  85 118 152 194 241 292 346
#
# _framework density 21.529312000000001
#
# number of rings (size 3 to 8) (size 9 to 14) (size 15 to 20)
#    0.375    1.875    1.875    0.562    2.625    2.250 
#    1.125    0.000    0.000    0.000    0.000    0.000 
#    0.000    0.000    0.000    0.000    0.000    0.000 
#
# Total GULP energy -178581.577987 kJ/mol
# GULP energy per Si atom -5580.674312 kJ/mol
# Density = 2.148031 g / cm^3
# Si number density = 21.529312 Si / 1000 Ang^3
#
#
#
# Elastic Constant Matrix: (Units=GPa)
#
#
# Indices 1 2 3 4 5 6 
#
# 1 105.4402 38.5426 5.3977 0.0000 0.0000 -0.0001
# 2 38.5426 105.4409 5.3977 0.0000 0.0000 0.0000
# 3 5.3977 5.3977 24.6704 0.0000 0.0000 0.0000
# 4 0.0000 0.0000 0.0000 -6.2212 -0.0001 0.0000
# 5 0.0000 0.0000 0.0000 -0.0001 -6.2219 0.0000
# 6 -0.0001 0.0000 0.0000 0.0000 0.0000 33.4486
#
#
#
# Elastic Compliance Matrix: (Units=1/GPa)
#
#
# Indices 1 2 3 4 5 6 
#
# 1 0.011005 -0.003944 -0.001545 0.000000 0.000000 0.000000
# 2 -0.003944 0.011005 -0.001545 0.000000 0.000000 0.000000
# 3 -0.001545 -0.001545 0.041210 0.000000 0.000000 0.000000
# 4 0.000000 0.000000 0.000000 -0.160740 0.000001 0.000000
# 5 0.000000 0.000000 0.000000 0.000001 -0.160724 0.000000
# 6 0.000000 0.000000 0.000000 0.000000 0.000000 0.029897
#
#
# Mechanical properties :
#
#
# Convention : Reuss Voigt Hill
#
# Bulk Modulus (GPa) = 20.34465 37.13639 28.74052
# Shear Modulus (GPa) = -25.26579 16.61534 -4.32523
#
# Velocity S-wave (km/s) = -3.42943 2.78106 -1.41893
# Velocity P-wave (km/s) = 2.49221 5.25348 3.27017
#
# Compressibility (1/GPa) = 0.04915298
#
# Stress axis : x y z
#
# Youngs Moduli (GPa) = 90.87064 90.87129 24.26568
#
# Poissons Ratio (x) = 0.35835 0.03749
# Poissons Ratio (y) = 0.35835 0.03749
# Poissons Ratio (z) = 0.14039 0.14039
#
# Static dielectric constant tensor:
#      x y z
#    x 1.796840 0.000000 0.000000 
#    y 0.000000 1.796840 0.000000 
#    z 0.000000 0.000000 1.764190 
# 
# From -- ./inp_files/322.got.cif
#   From: 2010.05.17/outbox.cif.g08.bks.cpg/sg174_cif.got.tgz:322.got - 2010.05.20 11:22:48.
