data_PCOD9581647
_publ_section_title
;
Structure prediction by ZEFSAII (Michael W. Deem and Ramdas Pophale) SiO2 
 PCOD9581647
Probable space group: P 6/M
;
_chemical_formula_sum "Si O2"
_cell_formula_units_Z 52
_cell_length_a 13.875433
_cell_length_b 13.875433
_cell_length_c 17.400855
_cell_angle_alpha 90.000000
_cell_angle_beta 90.000000
_cell_angle_gamma 120.000000
_cell_volume 2901.311164
_symmetry_space_group_name_H-M "P 6/M"
_symmetry_group_IT_number 175
_symmetry_cell_setting 'hexagonal'
loop_
_space_group_symop_operation_xyz
x,y,z
x-y,x,z
-y,x-y,z
-x,-y,z
-x+y,-x,z
y,-x+y,z
-x,-y,-z
-x+y,-x,-z
y,-x+y,-z
x,y,-z
x-y,x,-z
-y,x-y,-z
loop_
_atom_site_type_symbol
_atom_site_label
_atom_site_fract_x
_atom_site_fract_y
_atom_site_fract_z
Si Si1 0.119087 0.447197 0.908741
Si Si2 0.196859 0.247067 0.407529
Si Si3 0.666668 0.333334 0.408135
Si Si4 0.376398 0.480291 0.665327
Si Si5 0.461654 0.124408 0.153368
O O1 0.145997 0.572348 0.889868
O O2 0.215261 0.430785 0.872503
O O3 0.999550 0.368090 0.870615
O O4 0.112757 0.431083 0.000000
O O5 0.217599 0.145746 0.387418
O O6 0.208361 0.261545 0.500000
O O7 0.286642 0.360514 0.367763
O O8 0.666667 0.333334 0.500000
O O9 0.636911 0.424292 0.376721
O O10 0.500000 0.500000 0.654532
O O11 0.354959 0.483203 0.755967
#
# Coordination Sequence:
#
# PCOD9581647 Si02
#       5
#    12  12   4  12  12
#     4  11  21  39  62  90 124 158 201 248 307 371
#     4  10  22  40  65  91 120 158 206 258 311 369
#     4  12  27  42  63  90 127 170 214 258 318 387
#     4  12  24  41  61  90 126 166 206 260 312 376
#     4  11  23  38  61  93 120 162 201 253 306 366
#
# _framework density 17.922930000000001
#
# number of rings (size 3 to 8) (size 9 to 14) (size 15 to 20)
#    0.000    0.923    2.308    6.923    3.231    4.615 
#    0.000    0.000    0.000    0.462    0.000    1.615 
#    0.000    0.000    0.000    0.000    0.000    0.000 
#
# Total GULP energy -290865.338315 kJ/mol
# GULP energy per Si atom -5593.564198 kJ/mol
# Density = 1.788214 g / cm^3
# Si number density = 17.922930 Si / 1000 Ang^3
#
#
#
# Elastic Constant Matrix: (Units=GPa)
#
#
# Indices 1 2 3 4 5 6 
#
# 1 101.7672 110.3762 77.5129 0.0000 0.0000 -0.0165
# 2 110.3762 101.7580 77.5161 0.0000 0.0000 0.0164
# 3 77.5129 77.5161 130.5818 0.0000 0.0000 -0.0008
# 4 0.0000 0.0000 0.0000 29.1017 -0.0003 0.0000
# 5 0.0000 0.0000 0.0000 -0.0003 29.1016 0.0000
# 6 -0.0165 0.0164 -0.0008 0.0000 0.0000 -4.3172
#
#
#
# Elastic Compliance Matrix: (Units=1/GPa)
#
#
# Indices 1 2 3 4 5 6 
#
# 1 -0.053879 0.062211 -0.004947 0.000000 0.000000 0.000444
# 2 0.062211 -0.053892 -0.004937 0.000000 0.000000 -0.000442
# 3 -0.004947 -0.004937 0.013525 0.000000 0.000000 -0.000002
# 4 0.000000 0.000000 0.000000 0.034362 0.000000 0.000000
# 5 0.000000 0.000000 0.000000 0.000000 0.034362 0.000000
# 6 0.000444 -0.000442 -0.000002 0.000000 0.000000 -0.231635
#
#
# Mechanical properties :
#
#
# Convention : Reuss Voigt Hill
#
# Bulk Modulus (GPa) = 96.07972 96.10196 96.09084
# Shear Modulus (GPa) = -13.95321 15.35734 0.70207
#
# Velocity S-wave (km/s) = -2.79321 2.93038 0.62655
# Velocity P-wave (km/s) = 6.58186 8.07375 7.36567
#
# Compressibility (1/GPa) = 0.01040802
#
# Stress axis : x y z
#
# Youngs Moduli (GPa) = -18.55999 -18.55566 73.93487
#
# Poissons Ratio (x) = 1.15437 0.36578
# Poissons Ratio (y) = 1.15464 0.36501
# Poissons Ratio (z) = -0.09182 -0.09161
#
# Static dielectric constant tensor:
#      x y z
#    x 1.598220 0.000000 0.000000 
#    y 0.000000 1.598230 0.000000 
#    z 0.000000 0.000000 1.595750 
# 
# From -- ./inp_files/2310.got.cif
#   From: 2010.05.17/outbox.cif.g08.bks.cpg/sg175_2_cif.got.tgz:2310.got - 2010.05.20 11:23:22.
