data_PCOD9581677
_publ_section_title
;
Structure prediction by ZEFSAII (Michael W. Deem and Ramdas Pophale) SiO2 
 PCOD9581677
Probable space group: P 6/M
;
_chemical_formula_sum "Si O2"
_cell_formula_units_Z 60
_cell_length_a 14.351613
_cell_length_b 14.351613
_cell_length_c 15.883614
_cell_angle_alpha 90.000000
_cell_angle_beta 90.000000
_cell_angle_gamma 120.000000
_cell_volume 2833.227091
_symmetry_space_group_name_H-M "P 6/M"
_symmetry_group_IT_number 175
_symmetry_cell_setting 'hexagonal'
loop_
_space_group_symop_operation_xyz
x,y,z
x-y,x,z
-y,x-y,z
-x,-y,z
-x+y,-x,z
y,-x+y,z
-x,-y,-z
-x+y,-x,-z
y,-x+y,-z
x,y,-z
x-y,x,-z
-y,x-y,-z
loop_
_atom_site_type_symbol
_atom_site_label
_atom_site_fract_x
_atom_site_fract_y
_atom_site_fract_z
Si Si1 0.235924 0.779360 0.094238
Si Si2 0.119400 0.675087 0.402389
Si Si3 0.944306 0.769054 0.101617
Si Si4 0.433705 0.554771 0.837058
Si Si5 0.470394 0.345888 0.344468
O O1 0.251418 0.895585 0.116992
O O2 0.160225 0.691497 0.161062
O O3 0.354821 0.799279 0.098872
O O4 0.188905 0.751768 0.000000
O O5 0.110795 0.698841 0.500000
O O6 0.140698 0.573727 0.398295
O O7 0.223452 0.781227 0.363174
O O8 0.999290 0.626039 0.360576
O O9 0.853750 0.793906 0.134407
O O10 0.952593 0.782139 0.000000
O O11 0.500000 0.500000 0.866323
O O12 0.482037 0.614091 0.749263
#
# Coordination Sequence:
#
# PCOD9581677 Si02
#       5
#    12  12  12  12  12
#     4  11  24  39  58  83 115 162 216 264 320 384
#     4  11  21  40  67 101 136 170 212 262 322 397
#     4   9  17  32  54  80 106 135 184 248 308 366
#     4  12  24  41  61  85 123 165 210 269 323 383
#     4  11  23  40  64  99 134 174 216 265 329 397
#
# _framework density 21.177265999999999
#
# number of rings (size 3 to 8) (size 9 to 14) (size 15 to 20)
#    0.000    1.200    2.000    6.400    0.000    4.000 
#    0.000    0.000    0.000    0.400    0.000    1.400 
#    0.000    0.000    0.000    0.000    0.000    0.000 
#
# Total GULP energy -334675.866318 kJ/mol
# GULP energy per Si atom -5577.931105 kJ/mol
# Density = 2.112907 g / cm^3
# Si number density = 21.177266 Si / 1000 Ang^3
#
#
#
# Elastic Constant Matrix: (Units=GPa)
#
#
# Indices 1 2 3 4 5 6 
#
# 1 123.2033 43.4677 26.8268 0.0000 0.0000 0.0000
# 2 43.4677 123.2033 26.8268 0.0000 0.0000 0.0000
# 3 26.8268 26.8268 88.3125 0.0000 0.0000 0.0000
# 4 0.0000 0.0000 0.0000 20.3441 0.0000 0.0000
# 5 0.0000 0.0000 0.0000 0.0000 20.3441 0.0000
# 6 0.0000 0.0000 0.0000 0.0000 0.0000 39.8678
#
#
#
# Elastic Compliance Matrix: (Units=1/GPa)
#
#
# Indices 1 2 3 4 5 6 
#
# 1 0.009596 -0.002946 -0.002020 0.000000 0.000000 0.000000
# 2 -0.002946 0.009596 -0.002020 0.000000 0.000000 0.000000
# 3 -0.002020 -0.002020 0.012551 0.000000 0.000000 0.000000
# 4 0.000000 0.000000 0.000000 0.049154 0.000000 0.000000
# 5 0.000000 0.000000 0.000000 0.000000 0.049154 0.000000
# 6 0.000000 0.000000 0.000000 0.000000 0.000000 0.025083
#
#
# Mechanical properties :
#
#
# Convention : Reuss Voigt Hill
#
# Bulk Modulus (GPa) = 56.27290 58.77351 57.52321
# Shear Modulus (GPa) = 28.56663 31.95103 30.25883
#
# Velocity S-wave (km/s) = 3.67676 3.88847 3.78410
# Velocity P-wave (km/s) = 6.68242 6.92630 6.80545
#
# Compressibility (1/GPa) = 0.01777054
#
# Stress axis : x y z
#
# Youngs Moduli (GPa) = 104.21226 104.21226 79.67658
#
# Poissons Ratio (x) = 0.30697 0.16096
# Poissons Ratio (y) = 0.30697 0.16096
# Poissons Ratio (z) = 0.21052 0.21052
#
# Static dielectric constant tensor:
#      x y z
#    x 1.765470 0.000000 0.000000 
#    y 0.000000 1.765470 0.000000 
#    z 0.000000 0.000000 1.799000 
# 
# From -- ./inp_files/2365.got.cif
#   From: 2010.05.17/outbox.cif.g08.bks.cpg/sg175_2_cif.got.tgz:2365.got - 2010.05.20 11:23:22.
