data_PCOD9581343
_publ_section_title
;
Structure prediction by ZEFSAII (Michael W. Deem and Ramdas Pophale) SiO2 
 PCOD9581343
Probable space group: P 6/M
;
_chemical_formula_sum "Si O2"
_cell_formula_units_Z 74
_cell_length_a 12.754626
_cell_length_b 12.754626
_cell_length_c 29.272390
_cell_angle_alpha 90.000000
_cell_angle_beta 90.000000
_cell_angle_gamma 120.000000
_cell_volume 4124.053316
_symmetry_space_group_name_H-M "P 6/M"
_symmetry_group_IT_number 175
_symmetry_cell_setting 'hexagonal'
loop_
_space_group_symop_operation_xyz
x,y,z
x-y,x,z
-y,x-y,z
-x,-y,z
-x+y,-x,z
y,-x+y,z
-x,-y,-z
-x+y,-x,-z
y,-x+y,-z
x,y,-z
x-y,x,-z
-y,x-y,-z
loop_
_atom_site_type_symbol
_atom_site_label
_atom_site_fract_x
_atom_site_fract_y
_atom_site_fract_z
Si Si1 0.269898 0.230390 0.329627
Si Si2 0.248492 0.997470 0.130596
Si Si3 0.562064 0.918243 0.051634
Si Si4 0.666668 0.333334 0.555551
Si Si5 0.644070 0.082367 0.415530
Si Si6 0.666667 0.333334 0.944602
Si Si7 0.738560 0.765426 0.500000
Si Si8 0.020594 0.259770 0.229199
O O1 0.147330 0.238113 0.333983
O O2 0.367521 0.303091 0.368382
O O3 0.319433 0.284415 0.278775
O O4 0.237339 0.117233 0.128783
O O5 0.331089 0.013677 0.087486
O O6 0.299715 0.985141 0.180207
O O7 0.459969 0.784557 0.068601
O O8 0.500000 0.000000 0.047952
O O9 0.601060 0.906414 0.000000
O O10 0.666667 0.333334 0.500000
O O11 0.542108 0.322283 0.573609
O O12 0.500000 0.000000 0.415695
O O13 0.697987 0.038042 0.455764
O O14 0.666667 0.333334 0.000000
O O15 0.763154 0.901078 0.500000
O O16 0.132302 0.235405 0.229026
#
# Coordination Sequence:
#
# PCOD9581343 Si02
#       8
#    12  12  12   4  12   4   6  12
#     4  10  19  35  58  86 114 142 180 227 278 328
#     4  10  19  32  51  78 109 141 176 217 271 332
#     4  10  20  34  52  73 100 137 183 233 281 333
#     4  12  24  42  63  84 115 158 196 231 268 326
#     4  12  25  40  60  84 112 150 192 230 270 320
#     4   9  18  33  51  72 100 140 187 234 282 337
#     4  12  24  40  60  86 115 142 174 218 272 324
#     4   8  15  28  50  77 107 140 176 218 266 321
#
# _framework density 17.943511000000001
#
# number of rings (size 3 to 8) (size 9 to 14) (size 15 to 20)
#    0.000    1.784    0.811    4.703    0.000    4.541 
#    0.000    2.432    0.000    0.973    0.000    4.541 
#    0.000    0.000    0.000    0.000    0.000    0.000 
#
# Total GULP energy -412521.414053 kJ/mol
# GULP energy per Si atom -5574.613703 kJ/mol
# Density = 1.790267 g / cm^3
# Si number density = 17.943511 Si / 1000 Ang^3
#
#
#
# Elastic Constant Matrix: (Units=GPa)
#
#
# Indices 1 2 3 4 5 6 
#
# 1 86.1259 17.4929 59.0470 0.0000 0.0000 0.0002
# 2 17.4929 86.1264 59.0472 0.0000 0.0000 -0.0006
# 3 59.0470 59.0472 178.6448 0.0000 0.0000 0.0001
# 4 0.0000 0.0000 0.0000 70.2845 0.0012 0.0000
# 5 0.0000 0.0000 0.0000 0.0012 70.2846 0.0000
# 6 0.0002 -0.0006 0.0001 0.0000 0.0000 34.3166
#
#
#
# Elastic Compliance Matrix: (Units=1/GPa)
#
#
# Indices 1 2 3 4 5 6 
#
# 1 0.015027 0.000457 -0.005118 0.000000 0.000000 0.000000
# 2 0.000457 0.015027 -0.005118 0.000000 0.000000 0.000000
# 3 -0.005118 -0.005118 0.008981 0.000000 0.000000 0.000000
# 4 0.000000 0.000000 0.000000 0.014228 0.000000 0.000000
# 5 0.000000 0.000000 0.000000 0.000000 0.014228 0.000000
# 6 0.000000 0.000000 0.000000 0.000000 0.000000 0.029140
#
#
# Mechanical properties :
#
#
# Convention : Reuss Voigt Hill
#
# Bulk Modulus (GPa) = 51.34329 69.11904 60.23116
# Shear Modulus (GPa) = 40.75635 49.33115 45.04375
#
# Velocity S-wave (km/s) = 4.77106 5.24901 5.01573
# Velocity P-wave (km/s) = 7.68288 8.67987 8.19655
#
# Compressibility (1/GPa) = 0.01947674
#
# Stress axis : x y z
#
# Youngs Moduli (GPa) = 66.54774 66.54810 111.34901
#
# Poissons Ratio (x) = -0.03038 0.56985
# Poissons Ratio (y) = -0.03038 0.56985
# Poissons Ratio (z) = 0.34057 0.34057
#
# Static dielectric constant tensor:
#      x y z
#    x 1.596120 0.000000 0.000000 
#    y 0.000000 1.596120 0.000000 
#    z 0.000000 0.000000 1.680600 
# 
# From -- ./inp_files/3396.got.cif
#   From: 2010.05.17/outbox.cif.g08.bks.cpg/sg175_2_cif.got.tgz:3396.got - 2010.05.20 11:23:22.
