data_PCOD9581313
_publ_section_title
;
Structure prediction by ZEFSAII (Michael W. Deem and Ramdas Pophale) SiO2 
 PCOD9581313
Probable space group: P 6/M
;
_chemical_formula_sum "Si O2"
_cell_formula_units_Z 72
_cell_length_a 24.459611
_cell_length_b 24.459611
_cell_length_c 8.662419
_cell_angle_alpha 90.000000
_cell_angle_beta 90.000000
_cell_angle_gamma 120.000000
_cell_volume 4488.165986
_symmetry_space_group_name_H-M "P 6/M"
_symmetry_group_IT_number 175
_symmetry_cell_setting 'hexagonal'
loop_
_space_group_symop_operation_xyz
x,y,z
x-y,x,z
-y,x-y,z
-x,-y,z
-x+y,-x,z
y,-x+y,z
-x,-y,-z
-x+y,-x,-z
y,-x+y,-z
x,y,-z
x-y,x,-z
-y,x-y,-z
loop_
_atom_site_type_symbol
_atom_site_label
_atom_site_fract_x
_atom_site_fract_y
_atom_site_fract_z
Si Si1 0.143518 0.404877 0.185700
Si Si2 0.258456 0.069812 0.685230
Si Si3 0.930188 0.741544 0.814770
Si Si4 0.738641 0.595123 0.314300
Si Si5 0.405983 0.929427 0.185940
Si Si6 0.070573 0.594016 0.685940
O O1 0.097050 0.331834 0.232431
O O2 0.212125 0.424250 0.250000
O O3 0.114968 0.448567 0.234542
O O4 0.146460 0.406021 0.000000
O O5 0.255586 0.068968 0.500000
O O6 0.240186 0.120093 0.750000
O O7 0.331834 0.097050 0.732431
O O8 0.215793 1.000000 0.750000
O O9 0.931032 0.744414 0.000000
O O10 0.740439 0.593979 0.500000
O O11 0.666401 0.551433 0.265458
O O12 0.454085 0.908170 0.250000
O O13 0.431870 1.000000 0.250000
O O14 0.409320 0.932120 0.000000
O O15 0.067880 0.590680 0.500000
#
# Coordination Sequence:
#
# PCOD9581313 Si02
#       6
#    12  12  12  12  12  12
#     4   9  19  32  48  70  96 124 157 193 234 279
#     4  10  19  32  49  71  97 126 157 193 233 277
#     4  10  19  32  49  71  97 126 157 193 233 277
#     4   9  19  32  48  70  96 124 157 193 234 279
#     4  10  19  31  47  70  96 125 157 192 233 279
#     4  10  19  31  47  70  96 125 157 192 233 279
#
# _framework density 16.042186999999998
#
# number of rings (size 3 to 8) (size 9 to 14) (size 15 to 20)
#    0.000    2.333    0.000    4.000    0.000    4.000 
#    0.000    0.000    0.000    1.000    0.000    2.333 
#    0.000    0.000    0.000    0.000    0.000    0.000 
#
# Total GULP energy -401689.833435 kJ/mol
# GULP energy per Si atom -5579.025464 kJ/mol
# Density = 1.600567 g / cm^3
# Si number density = 16.042187 Si / 1000 Ang^3
#
#
#
# Elastic Constant Matrix: (Units=GPa)
#
#
# Indices 1 2 3 4 5 6 
#
# 1 147.2834 96.3208 39.4624 0.0000 0.0000 0.0000
# 2 96.3208 147.2834 39.4624 0.0000 0.0000 0.0000
# 3 39.4624 39.4624 45.7813 0.0000 0.0000 0.0000
# 4 0.0000 0.0000 0.0000 25.7957 0.0000 0.0000
# 5 0.0000 0.0000 0.0000 0.0000 25.7957 0.0000
# 6 0.0000 0.0000 0.0000 0.0000 0.0000 25.4813
#
#
#
# Elastic Compliance Matrix: (Units=1/GPa)
#
#
# Indices 1 2 3 4 5 6 
#
# 1 0.012659 -0.006963 -0.004909 0.000000 0.000000 0.000000
# 2 -0.006963 0.012659 -0.004909 0.000000 0.000000 0.000000
# 3 -0.004909 -0.004909 0.030307 0.000000 0.000000 0.000000
# 4 0.000000 0.000000 0.000000 0.038766 0.000000 0.000000
# 5 0.000000 0.000000 0.000000 0.000000 0.038766 0.000000
# 6 0.000000 0.000000 0.000000 0.000000 0.000000 0.039244
#
#
# Mechanical properties :
#
#
# Convention : Reuss Voigt Hill
#
# Bulk Modulus (GPa) = 45.33093 76.75991 61.04542
# Shear Modulus (GPa) = 23.43905 26.42139 24.93022
#
# Velocity S-wave (km/s) = 3.82657 4.06272 3.94641
# Velocity P-wave (km/s) = 6.91680 8.36422 7.67471
#
# Compressibility (1/GPa) = 0.02205999
#
# Stress axis : x y z
#
# Youngs Moduli (GPa) = 78.99567 78.99567 32.99599
#
# Poissons Ratio (x) = 0.55007 0.16199
# Poissons Ratio (y) = 0.55007 0.16199
# Poissons Ratio (z) = 0.38783 0.38783
#
# Static dielectric constant tensor:
#      x y z
#    x 1.521550 0.000000 0.000000 
#    y 0.000000 1.521550 0.000000 
#    z 0.000000 0.000000 1.542200 
# 
# From -- ./inp_files/1214.got.cif
#   From: 2010.05.17/outbox.cif.g08.bks.cpg/sg175_1_cif.got.tgz:1214.got - 2010.05.20 11:23:22.
