data_PCOD9581342
_publ_section_title
;
Structure prediction by ZEFSAII (Michael W. Deem and Ramdas Pophale) SiO2 
 PCOD9581342
Probable space group: P 6/M
;
_chemical_formula_sum "Si O2"
_cell_formula_units_Z 74
_cell_length_a 12.858165
_cell_length_b 12.858165
_cell_length_c 29.344100
_cell_angle_alpha 90.000000
_cell_angle_beta 90.000000
_cell_angle_gamma 120.000000
_cell_volume 4201.548824
_symmetry_space_group_name_H-M "P 6/M"
_symmetry_group_IT_number 175
_symmetry_cell_setting 'hexagonal'
loop_
_space_group_symop_operation_xyz
x,y,z
x-y,x,z
-y,x-y,z
-x,-y,z
-x+y,-x,z
y,-x+y,z
-x,-y,-z
-x+y,-x,-z
y,-x+y,-z
x,y,-z
x-y,x,-z
-y,x-y,-z
loop_
_atom_site_type_symbol
_atom_site_label
_atom_site_fract_x
_atom_site_fract_y
_atom_site_fract_z
Si Si1 0.333334 0.666668 0.444808
Si Si2 0.027258 0.765988 0.500000
Si Si3 0.962827 0.227282 0.230920
Si Si4 0.666667 0.333334 0.944959
Si Si5 0.048182 0.776709 0.668408
Si Si6 0.916949 0.356581 0.416214
Si Si7 0.767204 0.739817 0.132334
Si Si8 0.084652 0.643139 0.947708
O O1 0.333334 0.666668 0.500000
O O2 0.455772 0.781472 0.427280
O O3 0.038591 0.697634 0.456165
O O4 0.901428 0.763256 0.500000
O O5 0.949387 0.271707 0.280554
O O6 0.960017 0.282826 0.181957
O O7 0.089758 0.232223 0.230713
O O8 0.543130 0.216861 0.931783
O O9 0.666667 0.333334 0.000000
O O10 0.071106 0.701825 0.630347
O O11 0.916499 0.764033 0.663781
O O12 0.000000 0.500000 0.415226
O O13 0.765265 0.862914 0.130627
O O14 0.697095 0.662788 0.088900
O O15 0.000000 0.500000 0.948909
O O16 0.091793 0.686978 0.000000
#
# Coordination Sequence:
#
# PCOD9581342 Si02
#       8
#     4   6  12   4  12  12  12  12
#     4  12  24  42  63  82 110 154 192 225 262 317
#     4  12  24  40  60  86 115 142 174 218 270 318
#     4   8  15  28  50  77 107 140 175 214 261 320
#     4   9  18  33  51  70  95 130 174 222 264 310
#     4  10  19  35  58  86 114 142 177 222 274 323
#     4  12  25  40  60  84 111 146 188 227 265 314
#     4  10  19  32  51  78 109 141 175 215 266 325
#     4  10  20  34  52  73  99 135 180 227 273 321
#
# _framework density 17.612551
#
# number of rings (size 3 to 8) (size 9 to 14) (size 15 to 20)
#    0.000    1.784    0.811    4.703    0.000    4.541 
#    0.000    2.432    0.000    2.919    0.000    0.000 
#    0.000    0.000    0.000    0.000    0.000    0.000 
#
# Total GULP energy -412664.286390 kJ/mol
# GULP energy per Si atom -5576.544411 kJ/mol
# Density = 1.757246 g / cm^3
# Si number density = 17.612551 Si / 1000 Ang^3
#
#
#
# Elastic Constant Matrix: (Units=GPa)
#
#
# Indices 1 2 3 4 5 6 
#
# 1 188.7467 -75.8606 61.1152 0.0000 0.0000 -0.0028
# 2 -75.8606 188.7459 61.1161 0.0000 0.0000 0.0003
# 3 61.1152 61.1161 179.5563 0.0000 0.0000 0.0007
# 4 0.0000 0.0000 0.0000 15.3184 0.0001 0.0000
# 5 0.0000 0.0000 0.0000 0.0001 15.3191 0.0000
# 6 -0.0028 0.0003 0.0007 0.0000 0.0000 132.3304
#
#
#
# Elastic Compliance Matrix: (Units=1/GPa)
#
#
# Indices 1 2 3 4 5 6 
#
# 1 0.008904 0.005125 -0.004775 0.000000 0.000000 0.000000
# 2 0.005125 0.008904 -0.004775 0.000000 0.000000 0.000000
# 3 -0.004775 -0.004775 0.008820 0.000000 0.000000 0.000000
# 4 0.000000 0.000000 0.000000 0.065281 0.000000 0.000000
# 5 0.000000 0.000000 0.000000 0.000000 0.065278 0.000000
# 6 0.000000 0.000000 0.000000 0.000000 0.000000 0.007557
#
#
# Mechanical properties :
#
#
# Convention : Reuss Voigt Hill
#
# Bulk Modulus (GPa) = 56.25095 72.19892 64.22493
# Shear Modulus (GPa) = 27.85207 66.63880 47.24543
#
# Velocity S-wave (km/s) = 3.98097 6.15777 5.18489
# Velocity P-wave (km/s) = 7.28959 9.57284 8.50816
#
# Compressibility (1/GPa) = 0.01777748
#
# Stress axis : x y z
#
# Youngs Moduli (GPa) = 112.30947 112.30855 113.38101
#
# Poissons Ratio (x) = -0.57556 0.54139
# Poissons Ratio (y) = -0.57557 0.54140
# Poissons Ratio (z) = 0.53627 0.53628
#
# Static dielectric constant tensor:
#      x y z
#    x 1.583470 0.000000 0.000000 
#    y 0.000000 1.583470 0.000000 
#    z 0.000000 0.000000 1.644330 
# 
# From -- ./inp_files/3395.got.cif
#   From: 2010.05.17/outbox.cif.g08.bks.cpg/sg175_2_cif.got.tgz:3395.got - 2010.05.20 11:23:22.
