data_PCOD9581096
_publ_section_title
;
Structure prediction by ZEFSAII (Michael W. Deem and Ramdas Pophale) SiO2 
 PCOD9581096
Probable space group: P 63
;
_chemical_formula_sum "Si O2"
_cell_formula_units_Z 42
_cell_length_a 11.470067
_cell_length_b 11.470067
_cell_length_c 17.640652
_cell_angle_alpha 90.000000
_cell_angle_beta 90.000000
_cell_angle_gamma 120.000000
_cell_volume 2009.912605
_symmetry_space_group_name_H-M "P 63"
_symmetry_group_IT_number 173
_symmetry_cell_setting 'hexagonal'
loop_
_space_group_symop_operation_xyz
x,y,z
x-y,x,1/2+z
-y,x-y,z
-x,-y,1/2+z
-x+y,-x,z
y,-x+y,1/2+z
loop_
_atom_site_type_symbol
_atom_site_label
_atom_site_fract_x
_atom_site_fract_y
_atom_site_fract_z
Si Si1 0.325654 0.508747 0.907940
Si Si2 0.043589 0.753439 0.036756
Si Si3 0.938575 0.369642 0.151372
Si Si4 0.078084 0.695223 0.339368
Si Si5 0.935329 0.571685 0.803483
Si Si6 0.283393 0.037581 0.005825
Si Si7 0.916078 0.616450 0.185882
O O1 0.453609 0.660781 0.905539
O O2 0.339997 0.425934 0.838363
O O3 0.311134 0.420785 0.982184
O O4 0.892004 0.712039 0.013067
O O5 0.028337 0.705076 0.123380
O O6 0.139233 0.913397 0.028986
O O7 0.969586 0.358103 0.064146
O O8 0.873170 0.462799 0.165430
O O9 0.843597 0.215304 0.175180
O O10 0.058592 0.432205 0.212325
O O11 0.211750 0.836834 0.325348
O O12 0.113759 0.575654 0.338019
O O13 0.023858 0.709165 0.419681
O O14 0.976368 0.657706 0.269222
#
# Coordination Sequence:
#
# PCOD9581096 Si02
#       7
#     6   6   6   6   6   6   6
#     4  10  24  39  67 101 133 170 223 289 332 393
#     4  11  23  44  64  97 131 175 225 273 339 398
#     4  10  24  39  64  93 131 170 215 271 330 397
#     4  11  24  41  66  93 133 170 219 272 330 402
#     4  11  23  43  64  97 132 173 216 270 336 397
#     4  11  24  42  66  93 132 172 225 275 328 406
#     4  10  24  42  65  96 132 174 217 274 337 395
#
# _framework density 20.896431
#
# number of rings (size 3 to 8) (size 9 to 14) (size 15 to 20)
#    0.286    1.143    1.429    2.571   10.000    0.000 
#    0.000    0.000    0.000    2.286    0.000    0.000 
#    0.000    0.000    0.000    0.000    0.000    0.000 
#
# Total GULP energy -234516.801086 kJ/mol
# GULP energy per Si atom -5583.733359 kJ/mol
# Density = 2.084887 g / cm^3
# Si number density = 20.896431 Si / 1000 Ang^3
#
#
#
# Elastic Constant Matrix: (Units=GPa)
#
#
# Indices 1 2 3 4 5 6 
#
# 1 61.8388 32.3868 27.8271 0.0000 0.0000 0.0000
# 2 32.3868 61.8388 27.8271 0.0000 0.0000 0.0000
# 3 27.8271 27.8271 151.8817 0.0000 0.0000 0.0000
# 4 0.0000 0.0000 0.0000 18.9721 0.0000 0.0000
# 5 0.0000 0.0000 0.0000 0.0000 18.9721 0.0000
# 6 0.0000 0.0000 0.0000 0.0000 0.0000 14.7260
#
#
#
# Elastic Compliance Matrix: (Units=1/GPa)
#
#
# Indices 1 2 3 4 5 6 
#
# 1 0.022927 -0.011026 -0.002180 0.000000 0.000000 0.000000
# 2 -0.011026 0.022927 -0.002180 0.000000 0.000000 0.000000
# 3 -0.002180 -0.002180 0.007383 0.000000 0.000000 0.000000
# 4 0.000000 0.000000 0.000000 0.052709 0.000000 0.000000
# 5 0.000000 0.000000 0.000000 0.000000 0.052709 0.000000
# 6 0.000000 0.000000 0.000000 0.000000 0.000000 0.067907
#
#
# Mechanical properties :
#
#
# Convention : Reuss Voigt Hill
#
# Bulk Modulus (GPa) = 44.51800 50.18235 47.35018
# Shear Modulus (GPa) = 18.88047 23.03528 20.95787
#
# Velocity S-wave (km/s) = 3.00913 3.32377 3.17036
# Velocity P-wave (km/s) = 5.78131 6.22872 6.00918
#
# Compressibility (1/GPa) = 0.02246283
#
# Stress axis : x y z
#
# Youngs Moduli (GPa) = 43.61656 43.61656 135.44569
#
# Poissons Ratio (x) = 0.48093 0.29532
# Poissons Ratio (y) = 0.48093 0.29532
# Poissons Ratio (z) = 0.09510 0.09510
#
# Static dielectric constant tensor:
#      x y z
#    x 1.772600 0.000000 0.000000 
#    y 0.000000 1.772600 0.000000 
#    z 0.000000 0.000000 1.764350 
# 
# From -- ./inp_files/1305.got.cif
#   From: 2010.05.17/outbox.cif.g08.bks.cpg/sg173_cif.got.tgz:1305.got - 2010.05.20 11:21:53.
