data_PCOD9581097
_publ_section_title
;
Structure prediction by ZEFSAII (Michael W. Deem and Ramdas Pophale) SiO2 
 PCOD9581097
Probable space group: P 63
;
_chemical_formula_sum "Si O2"
_cell_formula_units_Z 28
_cell_length_a 9.286214
_cell_length_b 9.286214
_cell_length_c 13.172543
_cell_angle_alpha 90.000000
_cell_angle_beta 90.000000
_cell_angle_gamma 120.000000
_cell_volume 983.733887
_symmetry_space_group_name_H-M "P 63"
_symmetry_group_IT_number 173
_symmetry_cell_setting 'hexagonal'
loop_
_space_group_symop_operation_xyz
x,y,z
x-y,x,1/2+z
-y,x-y,z
-x,-y,1/2+z
-x+y,-x,z
y,-x+y,1/2+z
loop_
_atom_site_type_symbol
_atom_site_label
_atom_site_fract_x
_atom_site_fract_y
_atom_site_fract_z
Si Si1 0.828110 0.626436 0.060150
Si Si2 0.000000 0.000000 0.800726
Si Si3 0.000000 0.000000 0.538550
Si Si4 0.150517 0.485140 0.335805
Si Si5 0.171890 0.373564 0.779127
Si Si6 0.849483 0.514860 0.503471
O O1 0.822826 0.549271 0.169638
O O2 0.968347 0.820081 0.065500
O O3 0.847196 0.542209 0.958059
O O4 0.662987 0.644706 0.046161
O O5 0.148267 0.968348 0.773776
O O6 0.000000 0.000000 0.919638
O O7 0.332586 0.512966 0.306440
O O8 0.981719 0.337013 0.293115
O O9 0.152804 0.457792 0.881218
O O10 0.667414 0.487034 0.532837
#
# Coordination Sequence:
#
# PCOD9581097 Si02
#       6
#     6   2   2   6   6   6
#     4  12  23  41  68  97 127 173 223 268 326 390
#     4  12  22  41  70  88 125 166 214 272 325 373
#     4  12  22  41  70  88 125 166 214 272 325 373
#     4  10  24  42  66  92 134 174 208 274 326 380
#     4  12  23  41  68  97 127 173 223 268 326 390
#     4  10  24  42  66  92 134 174 208 274 326 380
#
# _framework density 28.462982
#
# number of rings (size 3 to 8) (size 9 to 14) (size 15 to 20)
#    0.857    0.000    4.286    2.571    0.000    3.429 
#    0.000    0.000    0.000    0.000    0.000    0.000 
#    0.000    0.000    0.000    0.000    0.000    0.000 
#
# Total GULP energy -156751.121977 kJ/mol
# GULP energy per Si atom -5598.254356 kJ/mol
# Density = 2.839820 g / cm^3
# Si number density = 28.462982 Si / 1000 Ang^3
#
#
#
# Elastic Constant Matrix: (Units=GPa)
#
#
# Indices 1 2 3 4 5 6 
#
# 1 136.9593 16.8614 -2.7820 0.0000 0.0000 0.0000
# 2 16.8614 136.9593 -2.7820 0.0000 0.0000 0.0000
# 3 -2.7820 -2.7820 202.5248 0.0000 0.0000 0.0000
# 4 0.0000 0.0000 0.0000 -81.3671 0.0000 0.0000
# 5 0.0000 0.0000 0.0000 0.0000 -81.3671 0.0000
# 6 0.0000 0.0000 0.0000 0.0000 0.0000 60.0490
#
#
#
# Elastic Compliance Matrix: (Units=1/GPa)
#
#
# Indices 1 2 3 4 5 6 
#
# 1 0.007415 -0.000911 0.000089 0.000000 0.000000 0.000000
# 2 -0.000911 0.007415 0.000089 0.000000 0.000000 0.000000
# 3 0.000089 0.000089 0.004940 0.000000 0.000000 0.000000
# 4 0.000000 0.000000 0.000000 -0.012290 0.000000 0.000000
# 5 0.000000 0.000000 0.000000 0.000000 -0.012290 0.000000
# 6 0.000000 0.000000 0.000000 0.000000 0.000000 0.016653
#
#
# Mechanical properties :
#
#
# Convention : Reuss Voigt Hill
#
# Bulk Modulus (GPa) = 54.62652 55.44869 55.03761
# Shear Modulus (GPa) = 257.58626 10.47268 134.02947
#
# Velocity S-wave (km/s) = 9.52340 1.92026 6.86959
# Velocity P-wave (km/s) = 11.83895 4.94366 9.07195
#
# Compressibility (1/GPa) = 0.01830613
#
# Stress axis : x y z
#
# Youngs Moduli (GPa) = 134.85408 134.85408 202.42421
#
# Poissons Ratio (x) = 0.12287 -0.01809
# Poissons Ratio (y) = 0.12287 -0.01809
# Poissons Ratio (z) = -0.01205 -0.01205
#
# Static dielectric constant tensor:
#      x y z
#    x 2.236650 0.000000 0.000000 
#    y 0.000000 2.236650 0.000000 
#    z 0.000000 0.000000 2.233820 
# 
# From -- ./inp_files/972.got.cif
#   From: 2010.05.17/outbox.cif.g08.bks.cpg/sg173_cif.got.tgz:972.got - 2010.05.20 11:21:53.
