data_PCOD9581883
_publ_section_title
;
Structure prediction by ZEFSAII (Michael W. Deem and Ramdas Pophale) SiO2 
 PCOD9581883
Probable space group: P 63/M
;
_chemical_formula_sum "Si O2"
_cell_formula_units_Z 40
_cell_length_a 19.592855
_cell_length_b 19.592855
_cell_length_c 8.643864
_cell_angle_alpha 90.000000
_cell_angle_beta 90.000000
_cell_angle_gamma 120.000000
_cell_volume 2873.650888
_symmetry_space_group_name_H-M "P 63/M"
_symmetry_group_IT_number 176
_symmetry_cell_setting 'hexagonal'
loop_
_space_group_symop_operation_xyz
x,y,z
x-y,x,1/2+z
-y,x-y,z
-x,-y,1/2+z
-x+y,-x,z
y,-x+y,1/2+z
-x,-y,-z
-x+y,-x,1/2-z
y,-x+y,-z
x,y,1/2-z
x-y,x,-z
-y,x-y,1/2-z
loop_
_atom_site_type_symbol
_atom_site_label
_atom_site_fract_x
_atom_site_fract_y
_atom_site_fract_z
Si Si1 0.757610 0.515220 0.935691
Si Si2 0.377490 0.463863 0.935385
Si Si3 0.333333 0.666666 0.437724
Si Si4 0.913627 0.536136 0.435385
O O1 0.758806 0.517612 0.750000
O O2 0.711811 0.423624 0.988511
O O3 0.704827 0.550455 0.998656
O O4 0.845627 0.550454 0.998657
O O5 0.375061 0.460851 0.750000
O O6 0.448537 0.551462 0.982254
O O7 0.403847 0.403847 1.000000
O O8 0.333334 0.666668 0.250000
O O9 0.914210 0.539148 0.250000
#
# Coordination Sequence:
#
# PCOD9581883 Si02
#       4
#    12  12   4  12
#     4  11  19  31  47  64  86 115 148 187 227 266
#     4  10  20  32  45  63  86 114 147 185 225 266
#     4   9  18  27  40  62  85 111 148 185 220 261
#     4  10  20  32  45  63  86 114 147 185 225 266
#
# _framework density 13.919575999999999
#
# number of rings (size 3 to 8) (size 9 to 14) (size 15 to 20)
#    0.000    1.800    3.000    2.700    0.000    2.400 
#    0.000    0.000    0.000    0.000    0.000    0.000 
#    0.000    0.000    0.000    0.900    0.000   12.600 
#
# Total GULP energy -223235.392032 kJ/mol
# GULP energy per Si atom -5580.884801 kJ/mol
# Density = 1.388789 g / cm^3
# Si number density = 13.919576 Si / 1000 Ang^3
#
#
#
# Elastic Constant Matrix: (Units=GPa)
#
#
# Indices 1 2 3 4 5 6 
#
# 1 101.3589 51.9367 35.0371 0.0000 0.0000 0.0000
# 2 51.9367 101.3591 35.0372 0.0000 0.0000 0.0000
# 3 35.0371 35.0372 53.9266 0.0000 0.0000 0.0000
# 4 0.0000 0.0000 0.0000 21.5799 0.0000 0.0000
# 5 0.0000 0.0000 0.0000 0.0000 21.5799 0.0000
# 6 0.0000 0.0000 0.0000 0.0000 0.0000 24.7112
#
#
#
# Elastic Compliance Matrix: (Units=1/GPa)
#
#
# Indices 1 2 3 4 5 6 
#
# 1 0.014757 -0.005477 -0.006029 0.000000 0.000000 0.000000
# 2 -0.005477 0.014757 -0.006029 0.000000 0.000000 0.000000
# 3 -0.006029 -0.006029 0.026378 0.000000 0.000000 0.000000
# 4 0.000000 0.000000 0.000000 0.046339 0.000000 0.000000
# 5 0.000000 0.000000 0.000000 0.000000 0.046339 0.000000
# 6 0.000000 0.000000 0.000000 0.000000 0.000000 0.040468
#
#
# Mechanical properties :
#
#
# Convention : Reuss Voigt Hill
#
# Bulk Modulus (GPa) = 48.02890 55.62962 51.82926
# Shear Modulus (GPa) = 21.64054 22.54976 22.09515
#
# Velocity S-wave (km/s) = 3.94723 4.02929 3.98847
# Velocity P-wave (km/s) = 7.44000 7.85485 7.65024
#
# Compressibility (1/GPa) = 0.02082080
#
# Stress axis : x y z
#
# Youngs Moduli (GPa) = 67.76664 67.76668 37.91046
#
# Poissons Ratio (x) = 0.37117 0.22856
# Poissons Ratio (y) = 0.37117 0.22856
# Poissons Ratio (z) = 0.40856 0.40856
#
# Static dielectric constant tensor:
#      x y z
#    x 1.446810 0.000000 0.000000 
#    y 0.000000 1.446810 0.000000 
#    z 0.000000 0.000000 1.458110 
# 
# From -- ./inp_files/479.got.cif
#   From: 2010.05.17/outbox.cif.g08.bks.cpg/sg176_1_cif.got.tgz:479.got - 2010.06.03 11:36:45.
