data_PCOD9581092
_publ_section_title
;
Structure prediction by ZEFSAII (Michael W. Deem and Ramdas Pophale) SiO2 
 PCOD9581092
Probable space group: P 63
;
_chemical_formula_sum "Si O2"
_cell_formula_units_Z 40
_cell_length_a 8.096103
_cell_length_b 8.096103
_cell_length_c 33.985900
_cell_angle_alpha 90.000000
_cell_angle_beta 90.000000
_cell_angle_gamma 120.000000
_cell_volume 1929.218671
_symmetry_space_group_name_H-M "P 63"
_symmetry_group_IT_number 173
_symmetry_cell_setting 'hexagonal'
loop_
_space_group_symop_operation_xyz
x,y,z
x-y,x,1/2+z
-y,x-y,z
-x,-y,1/2+z
-x+y,-x,z
y,-x+y,1/2+z
loop_
_atom_site_type_symbol
_atom_site_label
_atom_site_fract_x
_atom_site_fract_y
_atom_site_fract_z
Si Si1 0.660866 0.969614 0.528950
Si Si2 0.656424 0.637339 0.651932
Si Si3 0.495973 0.907250 0.241319
Si Si4 0.666667 0.333333 0.367954
Si Si5 0.333333 0.666667 0.774050
Si Si6 0.028311 0.693873 0.618321
Si Si7 0.654150 0.967939 0.995520
Si Si8 0.151079 0.253099 0.908854
O O1 0.637142 0.902106 0.573658
O O2 0.607666 0.799197 0.498922
O O3 0.541229 0.066497 0.513808
O O4 0.876559 0.134413 0.524431
O O5 0.616114 0.545700 0.694888
O O6 0.530647 0.467662 0.622603
O O7 0.595124 0.795637 0.647833
O O8 0.868886 0.736744 0.634802
O O9 0.268121 0.803150 0.251429
O O10 0.605468 0.118451 0.259379
O O11 0.666668 0.333334 0.321038
O O12 0.797889 0.243613 0.382872
O O13 0.665632 0.891614 0.952720
O O14 0.203106 0.081367 0.903939
#
# Coordination Sequence:
#
# PCOD9581092 Si02
#       8
#     6   6   6   2   2   6   6   6
#     4  12  23  37  58  89 129 175 233 298 349 410
#     4  12  23  42  62  88 130 180 235 285 357 421
#     4  10  23  49  72 105 147 187 240 292 354 445
#     4  12  27  48  81 117 147 186 237 285 393 456
#     4  12  27  48  81 117 147 189 228 300 375 459
#     4  12  23  37  58  89 129 175 233 298 349 407
#     4  12  23  42  62  88 130 180 235 285 360 420
#     4  10  23  49  72 105 147 188 239 301 353 446
#
# _framework density 20.733782999999999
#
# number of rings (size 3 to 8) (size 9 to 14) (size 15 to 20)
#    0.600    0.000    3.000    6.300    0.000    1.200 
#    1.800    0.000    0.000    0.000    0.000    0.000 
#    0.000    0.000    0.000    0.000    0.000    0.000 
#
# Total GULP energy -222739.363582 kJ/mol
# GULP energy per Si atom -5568.484090 kJ/mol
# Density = 2.068659 g / cm^3
# Si number density = 20.733783 Si / 1000 Ang^3
#
#
#
# Elastic Constant Matrix: (Units=GPa)
#
#
# Indices 1 2 3 4 5 6 
#
# 1 87.1539 58.6129 33.5620 0.0000 0.0000 0.0007
# 2 58.6129 87.1530 33.5622 0.0000 0.0000 -0.0006
# 3 33.5620 33.5622 103.7159 0.0000 0.0000 -0.0001
# 4 0.0000 0.0000 0.0000 4.3990 0.0000 0.0000
# 5 0.0000 0.0000 0.0000 0.0000 4.3992 0.0000
# 6 0.0007 -0.0006 -0.0001 0.0000 0.0000 14.2702
#
#
#
# Elastic Compliance Matrix: (Units=1/GPa)
#
#
# Indices 1 2 3 4 5 6 
#
# 1 0.021550 -0.013488 -0.002609 0.000000 0.000000 -0.000002
# 2 -0.013488 0.021550 -0.002609 0.000000 0.000000 0.000002
# 3 -0.002609 -0.002609 0.011330 0.000000 0.000000 0.000000
# 4 0.000000 0.000000 0.000000 0.227326 0.000000 0.000000
# 5 0.000000 0.000000 0.000000 0.000000 0.227314 0.000000
# 6 -0.000002 0.000002 0.000000 0.000000 0.000000 0.070076
#
#
# Mechanical properties :
#
#
# Convention : Reuss Voigt Hill
#
# Bulk Modulus (GPa) = 58.75986 58.83299 58.79643
# Shear Modulus (GPa) = 8.03562 14.76604 11.40083
#
# Velocity S-wave (km/s) = 1.97079 2.67155 2.34747
# Velocity P-wave (km/s) = 5.79486 6.16062 5.98054
#
# Compressibility (1/GPa) = 0.01701842
#
# Stress axis : x y z
#
# Youngs Moduli (GPa) = 46.40460 46.40396 88.26077
#
# Poissons Ratio (x) = 0.62590 0.23024
# Poissons Ratio (y) = 0.62591 0.23025
# Poissons Ratio (z) = 0.12105 0.12106
#
# Static dielectric constant tensor:
#      x y z
#    x 1.853480 0.000000 0.000000 
#    y 0.000000 1.853480 0.000000 
#    z 0.000000 0.000000 1.689460 
# 
# From -- ./inp_files/1507.got.cif
#   From: 2010.05.17/outbox.cif.g08.bks.cpg/sg173_cif.got.tgz:1507.got - 2010.05.20 11:21:53.
