data_PCOD9581488
_publ_section_title
;
Structure prediction by ZEFSAII (Michael W. Deem and Ramdas Pophale) SiO2 
 PCOD9581488
Probable space group: P 6/M
;
_chemical_formula_sum "Si O2"
_cell_formula_units_Z 66
_cell_length_a 22.975960
_cell_length_b 22.975960
_cell_length_c 7.754051
_cell_angle_alpha 90.000000
_cell_angle_beta 90.000000
_cell_angle_gamma 120.000000
_cell_volume 3544.921462
_symmetry_space_group_name_H-M "P 6/M"
_symmetry_group_IT_number 175
_symmetry_cell_setting 'hexagonal'
loop_
_space_group_symop_operation_xyz
x,y,z
x-y,x,z
-y,x-y,z
-x,-y,z
-x+y,-x,z
y,-x+y,z
-x,-y,-z
-x+y,-x,-z
y,-x+y,-z
x,y,-z
x-y,x,-z
-y,x-y,-z
loop_
_atom_site_type_symbol
_atom_site_label
_atom_site_fract_x
_atom_site_fract_y
_atom_site_fract_z
Si Si1 0.633647 0.754977 0.708910
Si Si2 0.766216 0.992859 0.303103
Si Si3 0.927493 0.532726 0.710303
Si Si4 0.916268 0.400296 0.292364
Si Si5 0.258268 0.375510 0.195139
Si Si6 0.976872 0.127193 0.000000
O O1 0.631781 0.755115 0.500000
O O2 0.708392 0.770832 0.754877
O O3 0.576932 0.681370 0.769932
O O4 0.620524 0.812322 0.776991
O O5 0.791599 0.999870 0.500000
O O6 0.686822 0.938214 0.304546
O O7 0.805694 0.972299 0.168473
O O8 0.925779 0.532536 0.500000
O O9 0.896391 0.455286 0.766438
O O10 0.005957 0.570433 0.759468
O O11 0.914537 0.399803 0.500000
O O12 0.877551 0.323986 0.233113
O O13 0.262444 0.356629 0.000000
O O14 0.050199 0.133348 0.000000
#
# Coordination Sequence:
#
# PCOD9581488 Si02
#       6
#    12  12  12  12  12   6
#     4  10  20  35  58  85 113 151 197 240 291 349
#     4  11  23  41  63  88 120 155 192 245 307 359
#     4   8  15  30  55  81 106 139 182 231 280 331
#     4   9  16  32  55  79 109 143 181 229 280 336
#     4  12  23  34  53  84 120 155 192 237 290 350
#     4  12  27  46  66  88 117 154 200 246 296 362
#
# _framework density 18.618182999999998
#
# number of rings (size 3 to 8) (size 9 to 14) (size 15 to 20)
#    0.000    1.818    2.727    3.909    1.273    2.182 
#    0.000    2.727    0.000    1.818    0.000    2.545 
#    0.000    0.000    0.000    0.000    0.000    0.000 
#
# Total GULP energy -368448.629022 kJ/mol
# GULP energy per Si atom -5582.554985 kJ/mol
# Density = 1.857581 g / cm^3
# Si number density = 18.618183 Si / 1000 Ang^3
#
#
#
# Elastic Constant Matrix: (Units=GPa)
#
#
# Indices 1 2 3 4 5 6 
#
# 1 55.9606 -5.9139 7.6563 0.0000 0.0000 0.0000
# 2 -5.9139 55.9606 7.6563 0.0000 0.0000 0.0000
# 3 7.6563 7.6563 51.5620 0.0000 0.0000 0.0000
# 4 0.0000 0.0000 0.0000 200.7927 0.0000 0.0000
# 5 0.0000 0.0000 0.0000 0.0000 200.7927 0.0000
# 6 0.0000 0.0000 0.0000 0.0000 0.0000 30.9372
#
#
#
# Elastic Compliance Matrix: (Units=1/GPa)
#
#
# Indices 1 2 3 4 5 6 
#
# 1 0.018547 0.002385 -0.003108 0.000000 0.000000 0.000000
# 2 0.002385 0.018547 -0.003108 0.000000 0.000000 0.000000
# 3 -0.003108 -0.003108 0.020317 0.000000 0.000000 0.000000
# 4 0.000000 0.000000 0.000000 0.004980 0.000000 0.000000
# 5 0.000000 0.000000 0.000000 0.000000 0.004980 0.000000
# 6 0.000000 0.000000 0.000000 0.000000 0.000000 0.032324
#
#
# Mechanical properties :
#
#
# Convention : Reuss Voigt Hill
#
# Bulk Modulus (GPa) = 20.10087 20.25340 20.17713
# Shear Modulus (GPa) = 40.34191 96.77680 68.55936
#
# Velocity S-wave (km/s) = 4.65994 7.21752 6.07485
# Velocity P-wave (km/s) = 6.30660 8.96430 7.75022
#
# Compressibility (1/GPa) = 0.04974910
#
# Stress axis : x y z
#
# Youngs Moduli (GPa) = 53.91692 53.91692 49.21941
#
# Poissons Ratio (x) = -0.12861 0.15298
# Poissons Ratio (y) = -0.12861 0.15298
# Poissons Ratio (z) = 0.16758 0.16758
#
# Static dielectric constant tensor:
#      x y z
#    x 1.633550 0.000000 0.000000 
#    y 0.000000 1.633550 0.000000 
#    z 0.000000 0.000000 1.666290 
# 
# From -- ./inp_files/985.got.cif
#   From: 2010.05.17/outbox.cif.g08.bks.cpg/sg175_1_cif.got.tgz:985.got - 2010.05.20 11:23:22.
