data_PCOD9581590
_publ_section_title
;
Structure prediction by ZEFSAII (Michael W. Deem and Ramdas Pophale) SiO2 
 PCOD9581590
Probable space group: P 6/M
;
_chemical_formula_sum "Si O2"
_cell_formula_units_Z 60
_cell_length_a 14.099818
_cell_length_b 14.099818
_cell_length_c 16.983842
_cell_angle_alpha 90.000000
_cell_angle_beta 90.000000
_cell_angle_gamma 120.000000
_cell_volume 2924.109194
_symmetry_space_group_name_H-M "P 6/M"
_symmetry_group_IT_number 175
_symmetry_cell_setting 'hexagonal'
loop_
_space_group_symop_operation_xyz
x,y,z
x-y,x,z
-y,x-y,z
-x,-y,z
-x+y,-x,z
y,-x+y,z
-x,-y,-z
-x+y,-x,-z
y,-x+y,-z
x,y,-z
x-y,x,-z
-y,x-y,-z
loop_
_atom_site_type_symbol
_atom_site_label
_atom_site_fract_x
_atom_site_fract_y
_atom_site_fract_z
Si Si1 0.107825 0.663304 0.907464
Si Si2 0.520100 0.121793 0.409708
Si Si3 0.328593 0.865702 0.849904
Si Si4 0.246816 0.190919 0.588206
Si Si5 0.541193 0.732111 0.327948
O O1 0.211521 0.782053 0.888610
O O2 0.142551 0.572529 0.886425
O O3 0.994268 0.627792 0.861053
O O4 0.082015 0.654998 0.000000
O O5 0.493374 0.133427 0.500000
O O6 0.456356 0.155351 0.347776
O O7 0.647283 0.195244 0.388549
O O8 0.500000 0.000000 0.399212
O O9 0.313534 0.826666 0.759460
O O10 0.144232 0.207798 0.595191
O O11 0.294021 0.228092 0.500000
O O12 0.341958 0.252697 0.650108
#
# Coordination Sequence:
#
# PCOD9581590 Si02
#       5
#    12  12  12  12  12
#     4  11  23  46  70 100 134 171 215 264 334 418
#     4  11  24  40  60  85 124 177 224 266 319 384
#     4  11  25  39  69 101 132 172 214 273 337 396
#     4  10  21  38  61  86 116 160 210 260 310 363
#     4  12  24  38  60  87 129 159 211 266 319 379
#
# _framework density 20.519068999999998
#
# number of rings (size 3 to 8) (size 9 to 14) (size 15 to 20)
#    0.000    1.000    0.000    7.600    8.400    4.000 
#    0.000    0.000    0.000    0.400    0.000    1.400 
#    0.000    0.000    0.000    0.000    0.000    0.000 
#
# Total GULP energy -335509.175134 kJ/mol
# GULP energy per Si atom -5591.819586 kJ/mol
# Density = 2.047237 g / cm^3
# Si number density = 20.519069 Si / 1000 Ang^3
#
#
#
# Elastic Constant Matrix: (Units=GPa)
#
#
# Indices 1 2 3 4 5 6 
#
# 1 107.0960 31.2772 29.7097 0.0000 0.0000 0.0000
# 2 31.2772 107.0960 29.7097 0.0000 0.0000 0.0000
# 3 29.7097 29.7097 77.1444 0.0000 0.0000 0.0000
# 4 0.0000 0.0000 0.0000 -2.0851 0.0000 0.0000
# 5 0.0000 0.0000 0.0000 0.0000 -2.0851 0.0000
# 6 0.0000 0.0000 0.0000 0.0000 0.0000 37.9094
#
#
#
# Elastic Compliance Matrix: (Units=1/GPa)
#
#
# Indices 1 2 3 4 5 6 
#
# 1 0.010924 -0.002265 -0.003335 0.000000 0.000000 0.000000
# 2 -0.002265 0.010924 -0.003335 0.000000 0.000000 0.000000
# 3 -0.003335 -0.003335 0.015531 0.000000 0.000000 0.000000
# 4 0.000000 0.000000 0.000000 -0.479593 0.000000 0.000000
# 5 0.000000 0.000000 0.000000 0.000000 -0.479593 0.000000
# 6 0.000000 0.000000 0.000000 0.000000 0.000000 0.026379
#
#
# Mechanical properties :
#
#
# Convention : Reuss Voigt Hill
#
# Bulk Modulus (GPa) = 51.25543 52.52550 51.89047
# Shear Modulus (GPa) = -5.74016 20.12384 7.19184
#
# Velocity S-wave (km/s) = -1.67438 3.13507 1.87418
# Velocity P-wave (km/s) = 4.61471 6.22566 5.47971
#
# Compressibility (1/GPa) = 0.01951013
#
# Stress axis : x y z
#
# Youngs Moduli (GPa) = 91.54111 91.54111 64.38668
#
# Poissons Ratio (x) = 0.20737 0.21471
# Poissons Ratio (y) = 0.20737 0.21471
# Poissons Ratio (z) = 0.30526 0.30526
#
# Static dielectric constant tensor:
#      x y z
#    x 1.773870 0.000000 0.000000 
#    y 0.000000 1.773870 0.000000 
#    z 0.000000 0.000000 1.747280 
# 
# From -- ./inp_files/2379.got.cif
#   From: 2010.05.17/outbox.cif.g08.bks.cpg/sg175_2_cif.got.tgz:2379.got - 2010.05.20 11:23:22.
