data_PCOD9581714
_publ_section_title
;
Structure prediction by ZEFSAII (Michael W. Deem and Ramdas Pophale) SiO2 
 PCOD9581714
Probable space group: P 6/M
;
_chemical_formula_sum "Si O2"
_cell_formula_units_Z 72
_cell_length_a 24.000000
_cell_length_b 24.000000
_cell_length_c 9.000000
_cell_angle_alpha 90.000000
_cell_angle_beta 90.000000
_cell_angle_gamma 120.000000
_cell_volume 4489.475693
_symmetry_space_group_name_H-M "P 6/M"
_symmetry_group_IT_number 175
_symmetry_cell_setting 'hexagonal'
loop_
_space_group_symop_operation_xyz
x,y,z
x-y,x,z
-y,x-y,z
-x,-y,z
-x+y,-x,z
y,-x+y,z
-x,-y,-z
-x+y,-x,-z
y,-x+y,-z
x,y,-z
x-y,x,-z
-y,x-y,-z
loop_
_atom_site_type_symbol
_atom_site_label
_atom_site_fract_x
_atom_site_fract_y
_atom_site_fract_z
Si Si1 0.504966 0.373081 0.679232
Si Si2 0.004200 0.386864 0.821253
Si Si3 0.631923 0.494304 0.179948
Si Si4 0.999546 0.746937 0.179248
Si Si5 0.149689 0.298621 0.181212
Si Si6 0.444313 0.219673 0.319819
O O1 0.510019 0.380810 0.500000
O O2 0.447285 0.383705 0.740824
O O3 0.572844 0.427720 0.752480
O O4 0.481961 0.297318 0.711428
O O5 0.001026 0.319363 0.779044
O O6 0.935559 0.382380 0.791207
O O7 0.014811 0.394510 0.000000
O O8 0.702807 0.517453 0.250792
O O9 0.634513 0.488289 0.000000
O O10 0.928038 0.737118 0.222418
O O11 0.071208 0.808303 0.222758
O O12 0.999842 0.749902 0.000000
O O13 0.186037 0.371241 0.251123
O O14 0.152761 0.304482 0.000000
O O15 0.440040 0.211842 0.500000
#
# Coordination Sequence:
#
# PCOD9581714 Si02
#       6
#    12  12  12  12  12  12
#     4  11  24  39  55  80 113 147 181 222 282 336
#     4  10  19  34  57  85 109 140 181 226 274 328
#     4  11  23  39  59  81 107 142 188 230 273 327
#     4   9  17  30  55  84 113 145 184 230 276 326
#     4  10  18  34  57  83 112 148 189 230 275 330
#     4  11  23  38  56  80 110 145 182 230 284 332
#
# _framework density 16.037507000000002
#
# number of rings (size 3 to 8) (size 9 to 14) (size 15 to 20)
#    0.000    1.667    3.333    2.000    0.000    5.333 
#    1.000    0.833    0.000    0.333    0.000    2.333 
#    0.000    0.000    0.000    1.500    0.000    1.667 
#
# Total GULP energy -401307.252722 kJ/mol
# GULP energy per Si atom -5573.711843 kJ/mol
# Density = 1.600101 g / cm^3
# Si number density = 16.037507 Si / 1000 Ang^3
#
#
#
# Elastic Constant Matrix: (Units=GPa)
#
#
# Indices 1 2 3 4 5 6 
#
# 1 162.3131 80.2703 43.5117 0.0000 0.0000 0.0000
# 2 80.2703 162.3131 43.5117 0.0000 0.0000 0.0000
# 3 43.5117 43.5117 68.0829 0.0000 0.0000 0.0000
# 4 0.0000 0.0000 0.0000 29.3237 0.0000 0.0000
# 5 0.0000 0.0000 0.0000 0.0000 29.3237 0.0000
# 6 0.0000 0.0000 0.0000 0.0000 0.0000 41.0214
#
#
#
# Elastic Compliance Matrix: (Units=1/GPa)
#
#
# Indices 1 2 3 4 5 6 
#
# 1 0.008769 -0.003420 -0.003418 0.000000 0.000000 0.000000
# 2 -0.003420 0.008769 -0.003418 0.000000 0.000000 0.000000
# 3 -0.003418 -0.003418 0.019057 0.000000 0.000000 0.000000
# 4 0.000000 0.000000 0.000000 0.034102 0.000000 0.000000
# 5 0.000000 0.000000 0.000000 0.000000 0.034102 0.000000
# 6 0.000000 0.000000 0.000000 0.000000 0.000000 0.024378
#
#
# Mechanical properties :
#
#
# Convention : Reuss Voigt Hill
#
# Bulk Modulus (GPa) = 62.18414 80.81072 71.49743
# Shear Modulus (GPa) = 32.24770 34.96146 33.60458
#
# Velocity S-wave (km/s) = 4.48902 4.67409 4.58249
# Velocity P-wave (km/s) = 8.10721 8.92342 8.52509
#
# Compressibility (1/GPa) = 0.01608127
#
# Stress axis : x y z
#
# Youngs Moduli (GPa) = 114.04269 114.04269 52.47369
#
# Poissons Ratio (x) = 0.39004 0.17937
# Poissons Ratio (y) = 0.39004 0.17937
# Poissons Ratio (z) = 0.38983 0.38983
#
# Static dielectric constant tensor:
#      x y z
#    x 1.548050 0.000000 0.000000 
#    y 0.000000 1.548050 0.000000 
#    z 0.000000 0.000000 1.540640 
# 
# From -- ./inp_files/1236.got.cif
#   From: 2010.05.17/outbox.ucp.g08.bks.cvg/sg175_1_cif.got.tgz:1236.got - 2010.06.11 15:18:44.
