data_PCOD9581382
_publ_section_title
;
Structure prediction by ZEFSAII (Michael W. Deem and Ramdas Pophale) SiO2 
 PCOD9581382
Probable space group: P 6/M
;
_chemical_formula_sum "Si O2"
_cell_formula_units_Z 60
_cell_length_a 16.016588
_cell_length_b 16.016588
_cell_length_c 13.532282
_cell_angle_alpha 90.000000
_cell_angle_beta 90.000000
_cell_angle_gamma 120.000000
_cell_volume 3006.364812
_symmetry_space_group_name_H-M "P 6/M"
_symmetry_group_IT_number 175
_symmetry_cell_setting 'hexagonal'
loop_
_space_group_symop_operation_xyz
x,y,z
x-y,x,z
-y,x-y,z
-x,-y,z
-x+y,-x,z
y,-x+y,z
-x,-y,-z
-x+y,-x,-z
y,-x+y,-z
x,y,-z
x-y,x,-z
-y,x-y,-z
loop_
_atom_site_type_symbol
_atom_site_label
_atom_site_fract_x
_atom_site_fract_y
_atom_site_fract_z
Si Si1 0.226298 0.671276 0.775217
Si Si2 0.725971 0.049875 0.718124
Si Si3 0.755157 0.602304 0.616434
Si Si4 0.571362 0.957822 0.109307
Si Si5 0.858931 0.085156 0.105486
O O1 0.241665 0.578831 0.780596
O O2 0.178153 0.682722 0.675802
O O3 0.154710 0.666167 0.860494
O O4 0.758650 0.138203 0.642956
O O5 0.688732 0.950668 0.656601
O O6 0.643725 0.015378 0.802211
O O7 0.817783 0.097220 0.792136
O O8 0.739127 0.592657 0.500000
O O9 0.500000 0.000000 0.104602
O O10 0.614654 0.967629 0.000000
O O11 0.824717 0.972991 0.105782
O O12 0.827311 0.108377 0.000000
#
# Coordination Sequence:
#
# PCOD9581382 Si02
#       5
#    12  12  12  12  12
#     4   9  21  40  62  89 119 159 200 249 300 359
#     4  11  21  38  58  84 118 160 199 250 312 361
#     4  11  23  39  61  86 117 157 210 264 314 365
#     4  10  21  37  59  89 124 157 192 235 295 366
#     4  10  19  33  55  83 114 151 193 236 295 368
#
# _framework density 19.957659
#
# number of rings (size 3 to 8) (size 9 to 14) (size 15 to 20)
#    0.400    1.400    2.000    2.600    0.000    2.400 
#    0.000    3.000    0.000    6.600    0.000    2.800 
#    0.000    0.000    0.000    0.000    0.000    0.000 
#
# Total GULP energy -334018.769769 kJ/mol
# GULP energy per Si atom -5566.979496 kJ/mol
# Density = 1.991223 g / cm^3
# Si number density = 19.957659 Si / 1000 Ang^3
#
#
#
# Elastic Constant Matrix: (Units=GPa)
#
#
# Indices 1 2 3 4 5 6 
#
# 1 71.8008 -2.5535 21.2021 0.0000 0.0000 0.0000
# 2 -2.5535 71.8008 21.2021 0.0000 0.0000 0.0000
# 3 21.2021 21.2021 117.7971 0.0000 0.0000 0.0000
# 4 0.0000 0.0000 0.0000 24.4558 0.0000 0.0000
# 5 0.0000 0.0000 0.0000 0.0000 24.4558 0.0000
# 6 0.0000 0.0000 0.0000 0.0000 0.0000 37.1771
#
#
#
# Elastic Compliance Matrix: (Units=1/GPa)
#
#
# Indices 1 2 3 4 5 6 
#
# 1 0.014839 0.001390 -0.002921 0.000000 0.000000 0.000000
# 2 0.001390 0.014839 -0.002921 0.000000 0.000000 0.000000
# 3 -0.002921 -0.002921 0.009541 0.000000 0.000000 0.000000
# 4 0.000000 0.000000 0.000000 0.040890 0.000000 0.000000
# 5 0.000000 0.000000 0.000000 0.000000 0.040890 0.000000
# 6 0.000000 0.000000 0.000000 0.000000 0.000000 0.026898
#
#
# Mechanical properties :
#
#
# Convention : Reuss Voigt Hill
#
# Bulk Modulus (GPa) = 32.98629 37.90002 35.44316
# Shear Modulus (GPa) = 29.95674 31.98760 30.97217
#
# Velocity S-wave (km/s) = 3.87850 4.00781 3.94368
# Velocity P-wave (km/s) = 6.05153 6.35989 6.20762
#
# Compressibility (1/GPa) = 0.03031562
#
# Stress axis : x y z
#
# Youngs Moduli (GPa) = 67.38787 67.38787 104.81372
#
# Poissons Ratio (x) = -0.09369 0.30618
# Poissons Ratio (y) = -0.09369 0.30618
# Poissons Ratio (z) = 0.19685 0.19685
#
# Static dielectric constant tensor:
#      x y z
#    x 1.739980 0.000000 0.000000 
#    y 0.000000 1.739980 0.000000 
#    z 0.000000 0.000000 1.716300 
# 
# From -- ./inp_files/1806.got.cif
#   From: 2010.05.17/outbox.cif.g08.bks.cpg/sg175_1_cif.got.tgz:1806.got - 2010.05.20 11:23:22.
