data_PCOD9581002
_publ_section_title
;
Structure prediction by ZEFSAII (Michael W. Deem and Ramdas Pophale) SiO2 
 PCOD9581002
Probable space group: P 64
;
_chemical_formula_sum "Si O2"
_cell_formula_units_Z 30
_cell_length_a 16.053469
_cell_length_b 16.053469
_cell_length_c 5.136282
_cell_angle_alpha 90.000000
_cell_angle_beta 90.000000
_cell_angle_gamma 120.000000
_cell_volume 1146.350116
_symmetry_space_group_name_H-M "P 64"
_symmetry_group_IT_number 172
_symmetry_cell_setting 'hexagonal'
loop_
_space_group_symop_operation_xyz
x,y,z
x-y,x,2/3+z
-y,x-y,1/3+z
-x,-y,z
-x+y,-x,2/3+z
y,-x+y,1/3+z
loop_
_atom_site_type_symbol
_atom_site_label
_atom_site_fract_x
_atom_site_fract_y
_atom_site_fract_z
Si Si1 0.127416 0.959139 0.319730
Si Si2 0.363143 0.441446 0.059276
Si Si3 0.155619 0.299166 0.259267
Si Si4 0.644052 0.050730 0.873023
Si Si5 0.774792 0.404006 0.446465
O O1 0.020734 0.896863 0.416883
O O2 0.207416 0.046837 0.487654
O O3 0.154256 0.879327 0.225237
O O4 0.255966 0.387210 0.174408
O O5 0.416569 0.416178 0.283568
O O6 0.376916 0.398527 0.786462
O O7 0.609883 0.450582 0.992903
O O8 0.076268 0.323204 0.150885
O O9 0.646801 0.149102 0.953081
O O10 0.689801 0.411323 0.593669
#
# Coordination Sequence:
#
# PCOD9581002 Si02
#       5
#     6   6   6   6   6
#     4  12  26  45  68 109 158 218 280 357 430 524
#     4  12  30  56  88 128 174 233 302 369 447 549
#     4  12  27  51  80 113 171 220 297 357 446 518
#     4  12  30  56  88 128 174 233 302 369 447 549
#     4  12  32  58  94 131 187 236 304 388 462 556
#
# _framework density 26.170014999999999
#
# number of rings (size 3 to 8) (size 9 to 14) (size 15 to 20)
#    0.000    0.000    2.000    5.400   11.200    5.600 
#    0.000    0.000    0.000    0.000    0.000    0.000 
#    0.000    0.000    0.000    0.000    0.000    0.000 
#
# Total GULP energy -168111.359419 kJ/mol
# GULP energy per Si atom -5603.711981 kJ/mol
# Density = 2.611045 g / cm^3
# Si number density = 26.170015 Si / 1000 Ang^3
#
#
#
# Elastic Constant Matrix: (Units=GPa)
#
#
# Indices 1 2 3 4 5 6 
#
# 1 150.9534 57.2820 66.2512 0.0000 0.0000 0.0000
# 2 57.2820 150.9534 66.2512 0.0000 0.0000 0.0000
# 3 66.2512 66.2512 144.0304 0.0000 0.0000 0.0000
# 4 0.0000 0.0000 0.0000 29.1953 0.0000 0.0000
# 5 0.0000 0.0000 0.0000 0.0000 29.1953 0.0000
# 6 0.0000 0.0000 0.0000 0.0000 0.0000 46.8357
#
#
#
# Elastic Compliance Matrix: (Units=1/GPa)
#
#
# Indices 1 2 3 4 5 6 
#
# 1 0.008733 -0.001943 -0.003123 0.000000 0.000000 0.000000
# 2 -0.001943 0.008733 -0.003123 0.000000 0.000000 0.000000
# 3 -0.003123 -0.003123 0.009816 0.000000 0.000000 0.000000
# 4 0.000000 0.000000 0.000000 0.034252 0.000000 0.000000
# 5 0.000000 0.000000 0.000000 0.000000 0.034252 0.000000
# 6 0.000000 0.000000 0.000000 0.000000 0.000000 0.021351
#
#
# Mechanical properties :
#
#
# Convention : Reuss Voigt Hill
#
# Bulk Modulus (GPa) = 91.71887 91.72289 91.72088
# Shear Modulus (GPa) = 36.45668 38.12212 37.28940
#
# Velocity S-wave (km/s) = 3.73644 3.82083 3.77887
# Velocity P-wave (km/s) = 7.33062 7.38850 7.35962
#
# Compressibility (1/GPa) = 0.01090288
#
# Stress axis : x y z
#
# Youngs Moduli (GPa) = 114.51417 114.51417 101.87399
#
# Poissons Ratio (x) = 0.22251 0.31816
# Poissons Ratio (y) = 0.22251 0.31816
# Poissons Ratio (z) = 0.35763 0.35763
#
# Static dielectric constant tensor:
#      x y z
#    x 2.054580 0.000000 0.000000 
#    y 0.000000 2.054580 0.000000 
#    z 0.000000 0.000000 2.080630 
# 
# From -- ./inp_files/220.got.cif
#   From: 2010.05.17/outbox.cif.g08.bks.cpg/sg172_1_cif.got.tgz:220.got - 2010.05.20 11:19:57.
