data_PCOD9581668
_publ_section_title
;
Structure prediction by ZEFSAII (Michael W. Deem and Ramdas Pophale) SiO2 
 PCOD9581668
Probable space group: P 6/M
;
_chemical_formula_sum "Si O2"
_cell_formula_units_Z 66
_cell_length_a 19.427029
_cell_length_b 19.427029
_cell_length_c 9.791479
_cell_angle_alpha 90.000000
_cell_angle_beta 90.000000
_cell_angle_gamma 120.000000
_cell_volume 3200.307472
_symmetry_space_group_name_H-M "P 6/M"
_symmetry_group_IT_number 175
_symmetry_cell_setting 'hexagonal'
loop_
_space_group_symop_operation_xyz
x,y,z
x-y,x,z
-y,x-y,z
-x,-y,z
-x+y,-x,z
y,-x+y,z
-x,-y,-z
-x+y,-x,-z
y,-x+y,-z
x,y,-z
x-y,x,-z
-y,x-y,-z
loop_
_atom_site_type_symbol
_atom_site_label
_atom_site_fract_x
_atom_site_fract_y
_atom_site_fract_z
Si Si1 0.517624 0.089914 0.146095
Si Si2 0.375763 0.033419 0.663050
Si Si3 0.854803 0.195484 0.157971
Si Si4 0.063216 0.176930 0.834564
Si Si5 0.567377 0.312294 0.500000
Si Si6 0.535120 0.685876 0.750231
O O1 0.465429 0.084879 0.275868
O O2 0.611395 0.142591 0.165129
O O3 0.500000 0.000000 0.136726
O O4 0.491772 0.108485 0.000000
O O5 0.373224 0.040194 0.500000
O O6 0.335413 0.076106 0.745105
O O7 0.341155 0.940127 0.701646
O O8 0.838421 0.107873 0.196853
O O9 0.770001 0.189238 0.174276
O O10 0.881898 0.210635 0.000000
O O11 0.121431 0.146315 0.783841
O O12 0.057745 0.170325 0.000000
O O13 0.602502 0.252330 0.500000
O O14 0.512777 0.303632 0.627196
#
# Coordination Sequence:
#
# PCOD9581668 Si02
#       6
#    12  12  12  12   6  12
#     4   9  20  37  61  90 122 161 209 260 316 383
#     4  11  24  39  63  95 128 169 220 272 329 404
#     4  11  24  39  62  94 133 173 218 274 333 395
#     4   9  17  32  56  88 125 166 210 259 317 385
#     4  10  26  44  65  95 127 166 217 270 327 402
#     4  11  23  41  67  90 129 171 215 270 338 390
#
# _framework density 20.623018999999999
#
# number of rings (size 3 to 8) (size 9 to 14) (size 15 to 20)
#    0.182    1.636    0.909    2.364    5.091    5.455 
#    0.000    0.000    0.000    0.000    0.000    0.000 
#    0.000    2.909    0.000    0.000    0.000    0.000 
#
# Total GULP energy -368023.633272 kJ/mol
# GULP energy per Si atom -5576.115656 kJ/mol
# Density = 2.057608 g / cm^3
# Si number density = 20.623019 Si / 1000 Ang^3
#
#
#
# Elastic Constant Matrix: (Units=GPa)
#
#
# Indices 1 2 3 4 5 6 
#
# 1 85.6139 7.2297 17.7418 0.0000 0.0000 0.0000
# 2 7.2297 85.6139 17.7418 0.0000 0.0000 0.0000
# 3 17.7418 17.7418 107.4905 0.0000 0.0000 0.0000
# 4 0.0000 0.0000 0.0000 16.6471 0.0000 0.0000
# 5 0.0000 0.0000 0.0000 0.0000 16.6471 0.0000
# 6 0.0000 0.0000 0.0000 0.0000 0.0000 39.1921
#
#
#
# Elastic Compliance Matrix: (Units=1/GPa)
#
#
# Indices 1 2 3 4 5 6 
#
# 1 0.012127 -0.000631 -0.001897 0.000000 0.000000 0.000000
# 2 -0.000631 0.012127 -0.001897 0.000000 0.000000 0.000000
# 3 -0.001897 -0.001897 0.009930 0.000000 0.000000 0.000000
# 4 0.000000 0.000000 0.000000 0.060071 0.000000 0.000000
# 5 0.000000 0.000000 0.000000 0.000000 0.060071 0.000000
# 6 0.000000 0.000000 0.000000 0.000000 0.000000 0.025515
#
#
# Mechanical properties :
#
#
# Convention : Reuss Voigt Hill
#
# Bulk Modulus (GPa) = 39.47632 40.46053 39.96843
# Shear Modulus (GPa) = 25.36329 30.23091 27.79710
#
# Velocity S-wave (km/s) = 3.51073 3.83284 3.67531
# Velocity P-wave (km/s) = 5.96800 6.26492 6.11826
#
# Compressibility (1/GPa) = 0.02533164
#
# Stress axis : x y z
#
# Youngs Moduli (GPa) = 82.46175 82.46175 100.70987
#
# Poissons Ratio (x) = 0.05202 0.19109
# Poissons Ratio (y) = 0.05202 0.19109
# Poissons Ratio (z) = 0.15647 0.15647
#
# Static dielectric constant tensor:
#      x y z
#    x 1.748520 0.000000 0.000000 
#    y 0.000000 1.748520 0.000000 
#    z 0.000000 0.000000 1.742740 
# 
# From -- ./inp_files/990.got.cif
#   From: 2010.05.17/outbox.cif.g08.bks.cpg/sg175_1_cif.got.tgz:990.got - 2010.05.20 11:23:22.
