data_PCOD9581458
_publ_section_title
;
Structure prediction by ZEFSAII (Michael W. Deem and Ramdas Pophale) SiO2 
 PCOD9581458
Probable space group: P 6/M
;
_chemical_formula_sum "Si O2"
_cell_formula_units_Z 66
_cell_length_a 20.977089
_cell_length_b 20.977089
_cell_length_c 9.512683
_cell_angle_alpha 90.000000
_cell_angle_beta 90.000000
_cell_angle_gamma 120.000000
_cell_volume 3625.134278
_symmetry_space_group_name_H-M "P 6/M"
_symmetry_group_IT_number 175
_symmetry_cell_setting 'hexagonal'
loop_
_space_group_symop_operation_xyz
x,y,z
x-y,x,z
-y,x-y,z
-x,-y,z
-x+y,-x,z
y,-x+y,z
-x,-y,-z
-x+y,-x,-z
y,-x+y,-z
x,y,-z
x-y,x,-z
-y,x-y,-z
loop_
_atom_site_type_symbol
_atom_site_label
_atom_site_fract_x
_atom_site_fract_y
_atom_site_fract_z
Si Si1 0.055582 0.772688 0.326837
Si Si2 0.574663 0.309731 0.000000
Si Si3 0.718942 0.176173 0.765670
Si Si4 0.551165 0.861473 0.338790
Si Si5 0.470525 0.554058 0.668988
Si Si6 0.713120 0.810410 0.834564
O O1 0.054669 0.777058 0.500000
O O2 0.081993 0.714422 0.282956
O O3 0.116426 0.848172 0.253593
O O4 0.978003 0.747516 0.253763
O O5 0.610045 0.257141 0.000000
O O6 0.522449 0.296049 0.129496
O O7 0.781080 0.238223 0.665823
O O8 0.638806 0.117697 0.709988
O O9 0.758386 0.134060 0.829963
O O10 0.554947 0.883098 0.500000
O O11 0.483742 0.869210 0.279394
O O12 0.500000 0.500000 0.717525
O O13 0.472006 0.555047 0.500000
O O14 0.735352 0.823847 0.000000
#
# Coordination Sequence:
#
# PCOD9581458 Si02
#       6
#    12   6  12  12  12  12
#     4  10  21  38  63  91 122 159 202 251 307 368
#     4  10  22  36  53  72 108 156 204 245 294 356
#     4  11  20  36  55  78 110 152 198 246 304 360
#     4   9  19  34  54  82 109 144 194 250 307 360
#     4  10  20  34  54  79 109 144 187 247 310 367
#     4  11  22  38  61  90 125 158 201 249 302 365
#
# _framework density 18.206222
#
# number of rings (size 3 to 8) (size 9 to 14) (size 15 to 20)
#    0.182    1.636    0.909    3.818    0.000    3.636 
#    1.091    0.455    0.000    0.364    0.000    2.545 
#    0.000    0.000    0.000    0.000    0.000    0.000 
#
# Total GULP energy -367415.518783 kJ/mol
# GULP energy per Si atom -5566.901800 kJ/mol
# Density = 1.816478 g / cm^3
# Si number density = 18.206222 Si / 1000 Ang^3
#
#
#
# Elastic Constant Matrix: (Units=GPa)
#
#
# Indices 1 2 3 4 5 6 
#
# 1 106.4011 52.0426 37.1126 0.0000 0.0000 0.0000
# 2 52.0426 106.4011 37.1126 0.0000 0.0000 0.0000
# 3 37.1126 37.1126 85.7891 0.0000 0.0000 0.0000
# 4 0.0000 0.0000 0.0000 23.3403 0.0000 0.0000
# 5 0.0000 0.0000 0.0000 0.0000 23.3403 0.0000
# 6 0.0000 0.0000 0.0000 0.0000 0.0000 27.1792
#
#
#
# Elastic Compliance Matrix: (Units=1/GPa)
#
#
# Indices 1 2 3 4 5 6 
#
# 1 0.013156 -0.005240 -0.003424 0.000000 0.000000 0.000000
# 2 -0.005240 0.013156 -0.003424 0.000000 0.000000 0.000000
# 3 -0.003424 -0.003424 0.014619 0.000000 0.000000 0.000000
# 4 0.000000 0.000000 0.000000 0.042844 0.000000 0.000000
# 5 0.000000 0.000000 0.000000 0.000000 0.042844 0.000000
# 6 0.000000 0.000000 0.000000 0.000000 0.000000 0.036793
#
#
# Mechanical properties :
#
#
# Convention : Reuss Voigt Hill
#
# Bulk Modulus (GPa) = 59.69030 61.23635 60.46332
# Shear Modulus (GPa) = 25.88325 26.26018 26.07172
#
# Velocity S-wave (km/s) = 3.77459 3.80198 3.78831
# Velocity P-wave (km/s) = 7.20094 7.27882 7.23999
#
# Compressibility (1/GPa) = 0.01675314
#
# Stress axis : x y z
#
# Youngs Moduli (GPa) = 76.01114 76.01114 68.40319
#
# Poissons Ratio (x) = 0.39833 0.23423
# Poissons Ratio (y) = 0.39833 0.23423
# Poissons Ratio (z) = 0.26028 0.26028
#
# Static dielectric constant tensor:
#      x y z
#    x 1.641990 0.000000 0.000000 
#    y 0.000000 1.641990 0.000000 
#    z 0.000000 0.000000 1.703890 
# 
# From -- ./inp_files/1015.got.cif
#   From: 2010.05.17/outbox.cif.g08.bks.cpg/sg175_1_cif.got.tgz:1015.got - 2010.05.20 11:23:22.
