data_PCOD9581995
_publ_section_title
;
Structure prediction by ZEFSAII (Michael W. Deem and Ramdas Pophale) SiO2 
 PCOD9581995
Probable space group: P 63/M
;
_chemical_formula_sum "Si O2"
_cell_formula_units_Z 66
_cell_length_a 20.336925
_cell_length_b 20.336925
_cell_length_c 10.019261
_cell_angle_alpha 90.000000
_cell_angle_beta 90.000000
_cell_angle_gamma 120.000000
_cell_volume 3588.697860
_symmetry_space_group_name_H-M "P 63/M"
_symmetry_group_IT_number 176
_symmetry_cell_setting 'hexagonal'
loop_
_space_group_symop_operation_xyz
x,y,z
x-y,x,1/2+z
-y,x-y,z
-x,-y,1/2+z
-x+y,-x,z
y,-x+y,1/2+z
-x,-y,-z
-x+y,-x,1/2-z
y,-x+y,-z
x,y,1/2-z
x-y,x,-z
-y,x-y,1/2-z
loop_
_atom_site_type_symbol
_atom_site_label
_atom_site_fract_x
_atom_site_fract_y
_atom_site_fract_z
Si Si1 0.538140 0.830608 0.989935
Si Si2 0.457493 0.527690 0.401339
Si Si3 0.565786 0.701834 0.097939
Si Si4 0.424707 0.745852 0.750000
Si Si5 0.080729 0.791162 0.900568
Si Si6 0.944955 0.707407 0.406299
O O1 0.474528 0.787161 0.878031
O O2 0.619912 0.882034 0.921471
O O3 0.515223 0.883398 0.071365
O O4 0.544803 0.767336 0.075281
O O5 0.500000 0.500000 0.500000
O O6 0.472561 0.514138 0.250000
O O7 0.493986 0.618199 0.418643
O O8 0.594437 0.707248 0.250000
O O9 0.629101 0.714840 0.988688
O O10 0.343644 0.742419 0.750000
O O11 0.049328 0.780163 0.750000
O O12 0.150661 0.876708 0.912512
O O13 0.018502 0.768883 0.014824
O O14 0.959310 0.699827 0.250000
#
# Coordination Sequence:
#
# PCOD9581995 Si02
#       6
#    12  12  12   6  12  12
#     4  11  21  39  60  84 116 157 205 251 308 369
#     4  11  25  40  58  84 117 156 199 253 312 371
#     4  10  22  39  59  82 116 156 201 252 309 362
#     4  10  22  36  58  88 118 156 202 260 318 360
#     4  10  21  38  60  88 122 154 195 245 299 356
#     4  10  22  38  61  91 121 157 200 249 298 365
#
# _framework density 18.391072000000001
#
# number of rings (size 3 to 8) (size 9 to 14) (size 15 to 20)
#    0.182    1.455    0.909    3.273    2.545    8.000 
#    1.091    0.000    0.000    0.364    0.000    0.000 
#    0.000    0.000    0.000    0.000    0.000    0.000 
#
# Total GULP energy -368618.792838 kJ/mol
# GULP energy per Si atom -5585.133225 kJ/mol
# Density = 1.834921 g / cm^3
# Si number density = 18.391072 Si / 1000 Ang^3
#
#
#
# Elastic Constant Matrix: (Units=GPa)
#
#
# Indices 1 2 3 4 5 6 
#
# 1 59.6350 36.0945 49.0806 0.0000 0.0000 0.0000
# 2 36.0945 59.6350 49.0806 0.0000 0.0000 0.0000
# 3 49.0806 49.0806 150.5832 0.0000 0.0000 0.0000
# 4 0.0000 0.0000 0.0000 23.1516 0.0000 0.0000
# 5 0.0000 0.0000 0.0000 0.0000 23.1516 0.0000
# 6 0.0000 0.0000 0.0000 0.0000 0.0000 11.7702
#
#
#
# Elastic Compliance Matrix: (Units=1/GPa)
#
#
# Indices 1 2 3 4 5 6 
#
# 1 0.029085 -0.013395 -0.005114 0.000000 0.000000 0.000000
# 2 -0.013395 0.029085 -0.005114 0.000000 0.000000 0.000000
# 3 -0.005114 -0.005114 0.009974 0.000000 0.000000 0.000000
# 4 0.000000 0.000000 0.000000 0.043193 0.000000 0.000000
# 5 0.000000 0.000000 0.000000 0.000000 0.043193 0.000000
# 6 0.000000 0.000000 0.000000 0.000000 0.000000 0.084960
#
#
# Mechanical properties :
#
#
# Convention : Reuss Voigt Hill
#
# Bulk Modulus (GPa) = 47.85003 59.81829 53.83416
# Shear Modulus (GPa) = 17.02397 20.65453 18.83925
#
# Velocity S-wave (km/s) = 3.04578 3.35487 3.20405
# Velocity P-wave (km/s) = 6.20029 6.89950 6.55922
#
# Compressibility (1/GPa) = 0.02089863
#
# Stress axis : x y z
#
# Youngs Moduli (GPa) = 34.38201 34.38201 100.25587
#
# Poissons Ratio (x) = 0.46055 0.51270
# Poissons Ratio (y) = 0.46055 0.51270
# Poissons Ratio (z) = 0.17583 0.17583
#
# Static dielectric constant tensor:
#      x y z
#    x 1.619120 0.000000 0.000000 
#    y 0.000000 1.619120 0.000000 
#    z 0.000000 0.000000 1.632330 
# 
# From -- ./inp_files/968.got.cif
#   From: 2010.05.17/outbox.cif.g08.bks.cpg/sg176_1_cif.got.tgz:968.got - 2010.06.03 11:36:45.
