data_PCOD9581288
_publ_section_title
;
Structure prediction by ZEFSAII (Michael W. Deem and Ramdas Pophale) SiO2 
 PCOD9581288
Probable space group: P 6/M
;
_chemical_formula_sum "Si O2"
_cell_formula_units_Z 52
_cell_length_a 14.150673
_cell_length_b 14.150673
_cell_length_c 15.876084
_cell_angle_alpha 90.000000
_cell_angle_beta 90.000000
_cell_angle_gamma 120.000000
_cell_volume 2753.139454
_symmetry_space_group_name_H-M "P 6/M"
_symmetry_group_IT_number 175
_symmetry_cell_setting 'hexagonal'
loop_
_space_group_symop_operation_xyz
x,y,z
x-y,x,z
-y,x-y,z
-x,-y,z
-x+y,-x,z
y,-x+y,z
-x,-y,-z
-x+y,-x,-z
y,-x+y,-z
x,y,-z
x-y,x,-z
-y,x-y,-z
loop_
_atom_site_type_symbol
_atom_site_label
_atom_site_fract_x
_atom_site_fract_y
_atom_site_fract_z
Si Si1 0.140480 0.880775 0.500000
Si Si2 0.500000 0.500000 0.308310
Si Si3 0.792152 0.772607 0.185085
Si Si4 0.301100 0.460224 0.801857
Si Si5 0.333333 0.666667 0.099564
Si Si6 0.357676 0.255501 0.667960
O O1 0.185378 0.854383 0.584231
O O2 0.010828 0.819377 0.500000
O O3 0.588290 0.489578 0.251327
O O4 0.569458 0.616277 0.353854
O O5 0.789046 0.879953 0.160688
O O6 0.710795 0.649313 0.154985
O O7 0.752606 0.763815 0.283671
O O8 0.303255 0.548695 0.864085
O O9 0.198107 0.418101 0.737535
O O10 0.333334 0.666668 0.000000
#
# Coordination Sequence:
#
# PCOD9581288 Si02
#       6
#     6   6  12  12   4  12
#     4  12  23  37  54  86 124 162 210 261 309 351
#     4  10  18  35  63  80 114 172 198 256 303 355
#     4   9  17  31  55  84 116 157 201 244 292 352
#     4  10  20  38  61  88 120 160 200 249 307 369
#     4  12  24  42  69  94 119 151 195 255 321 378
#     4  10  21  35  57  86 122 165 210 255 302 359
#
# _framework density 18.887526999999999
#
# number of rings (size 3 to 8) (size 9 to 14) (size 15 to 20)
#    0.000    1.846    2.308    4.500    0.000    0.462 
#    0.000    6.346    0.000    0.000    0.000    0.000 
#    0.000    7.385    0.000    0.000    0.000    0.000 
#
# Total GULP energy -289504.683067 kJ/mol
# GULP energy per Si atom -5567.397751 kJ/mol
# Density = 1.884454 g / cm^3
# Si number density = 18.887527 Si / 1000 Ang^3
#
#
#
# Elastic Constant Matrix: (Units=GPa)
#
#
# Indices 1 2 3 4 5 6 
#
# 1 90.3125 13.0227 31.0669 0.0000 0.0000 0.0000
# 2 13.0227 90.3122 31.0667 0.0000 0.0000 0.0002
# 3 31.0669 31.0667 81.5704 0.0000 0.0000 0.0002
# 4 0.0000 0.0000 0.0000 6.8963 -0.0002 0.0000
# 5 0.0000 0.0000 0.0000 -0.0002 6.8963 0.0000
# 6 0.0000 0.0002 0.0002 0.0000 0.0000 38.6450
#
#
#
# Elastic Compliance Matrix: (Units=1/GPa)
#
#
# Indices 1 2 3 4 5 6 
#
# 1 0.012745 -0.000193 -0.004780 0.000000 0.000000 0.000000
# 2 -0.000193 0.012745 -0.004780 0.000000 0.000000 0.000000
# 3 -0.004780 -0.004780 0.015901 0.000000 0.000000 0.000000
# 4 0.000000 0.000000 0.000000 0.145006 0.000004 0.000000
# 5 0.000000 0.000000 0.000000 0.000004 0.145004 0.000000
# 6 0.000000 0.000000 0.000000 0.000000 0.000000 0.025877
#
#
# Mechanical properties :
#
#
# Convention : Reuss Voigt Hill
#
# Bulk Modulus (GPa) = 45.69898 45.83420 45.76659
# Shear Modulus (GPa) = 13.01814 22.95678 17.98746
#
# Velocity S-wave (km/s) = 2.62820 3.49011 3.08936
# Velocity P-wave (km/s) = 5.78427 6.36873 6.08352
#
# Compressibility (1/GPa) = 0.02188233
#
# Stress axis : x y z
#
# Youngs Moduli (GPa) = 78.46235 78.46216 62.89052
#
# Poissons Ratio (x) = 0.01517 0.30064
# Poissons Ratio (y) = 0.01517 0.30064
# Poissons Ratio (z) = 0.37508 0.37508
#
# Static dielectric constant tensor:
#      x y z
#    x 1.692840 0.000000 0.000000 
#    y 0.000000 1.692840 0.000000 
#    z 0.000000 0.000000 1.643540 
# 
# From -- ./inp_files/2334.got.cif
#   From: 2010.05.17/outbox.cif.g08.bks.cpg/sg175_2_cif.got.tgz:2334.got - 2010.05.20 11:23:22.
