data_PCOD9581198
_publ_section_title
;
Structure prediction by ZEFSAII (Michael W. Deem and Ramdas Pophale) SiO2 
 PCOD9581198
Probable space group: P -6
;
_chemical_formula_sum "Si O2"
_cell_formula_units_Z 42
_cell_length_a 8.983268
_cell_length_b 8.983268
_cell_length_c 30.756822
_cell_angle_alpha 90.000000
_cell_angle_beta 90.000000
_cell_angle_gamma 120.000000
_cell_volume 2149.516601
_symmetry_space_group_name_H-M "P -6"
_symmetry_group_IT_number 174
_symmetry_cell_setting 'hexagonal'
loop_
_space_group_symop_operation_xyz
x,y,z
-x+y,-x,-z
-y,x-y,z
x,y,-z
-x+y,-x,z
-y,x-y,-z
loop_
_atom_site_type_symbol
_atom_site_label
_atom_site_fract_x
_atom_site_fract_y
_atom_site_fract_z
Si Si1 0.331218 0.339580 0.086084
Si Si2 0.331259 0.339096 0.724154
Si Si3 0.989684 0.324693 0.413747
Si Si4 0.334947 0.009785 0.689635
Si Si5 0.327605 0.467293 0.818922
Si Si6 0.659349 0.990574 0.448284
Si Si7 0.334971 0.010496 0.948378
O O1 0.325284 0.372086 0.137299
O O2 0.491979 0.508552 0.065991
O O3 0.349896 0.175662 0.075603
O O4 0.157211 0.314790 0.064731
O O5 0.156881 0.313956 0.702967
O O6 0.491348 0.509046 0.704214
O O7 0.325314 0.370519 0.775436
O O8 0.350918 0.176050 0.713265
O O9 0.964469 0.305281 0.362048
O O10 0.156022 0.313493 0.427371
O O11 0.822922 0.174054 0.437109
O O12 0.017348 0.507888 0.428570
O O13 0.491508 0.662064 0.818779
O O14 0.640368 0.965869 0.500000
O O15 0.340971 0.038020 0.000000
#
# Coordination Sequence:
#
# PCOD9581198 Si02
#       7
#     6   6   6   6   6   6   6
#     4  12  25  43  72  98 140 180 230 282 334 406
#     4  12  25  43  72  98 140 175 222 276 333 408
#     4  12  25  43  67  95 136 172 225 280 331 404
#     4  12  24  44  66 103 132 180 220 273 341 398
#     4  10  20  46  72 100 133 177 226 272 344 397
#     4  12  25  44  67  96 130 178 225 278 338 396
#     4  12  24  43  66 102 139 184 228 281 339 397
#
# _framework density 19.539275
#
# number of rings (size 3 to 8) (size 9 to 14) (size 15 to 20)
#    0.286    0.000    2.857    7.714    0.000    2.286 
#    0.000    0.000    0.000    0.000    0.000    0.000 
#    0.000    0.000    0.000    0.000    0.000    0.000 
#
# Total GULP energy -235150.211149 kJ/mol
# GULP energy per Si atom -5598.814551 kJ/mol
# Density = 1.949480 g / cm^3
# Si number density = 19.539275 Si / 1000 Ang^3
#
#
#
# Elastic Constant Matrix: (Units=GPa)
#
#
# Indices 1 2 3 4 5 6 
#
# 1 52.5663 -28.2240 18.6125 0.0000 0.0000 0.0000
# 2 -28.2240 52.5663 18.6125 0.0000 0.0000 0.0000
# 3 18.6125 18.6125 157.3974 0.0000 0.0000 0.0000
# 4 0.0000 0.0000 0.0000 57.8689 0.0000 0.0000
# 5 0.0000 0.0000 0.0000 0.0000 57.8689 0.0000
# 6 0.0000 0.0000 0.0000 0.0000 0.0000 40.3951
#
#
#
# Elastic Compliance Matrix: (Units=1/GPa)
#
#
# Indices 1 2 3 4 5 6 
#
# 1 0.031264 0.018886 -0.005930 0.000000 0.000000 0.000000
# 2 0.018886 0.031264 -0.005930 0.000000 0.000000 0.000000
# 3 -0.005930 -0.005930 0.007756 0.000000 0.000000 0.000000
# 4 0.000000 0.000000 0.000000 0.017280 0.000000 0.000000
# 5 0.000000 0.000000 0.000000 0.000000 0.017280 0.000000
# 6 0.000000 0.000000 0.000000 0.000000 0.000000 0.024755
#
#
# Mechanical properties :
#
#
# Convention : Reuss Voigt Hill
#
# Bulk Modulus (GPa) = 11.85762 31.17021 21.51392
# Shear Modulus (GPa) = 34.80438 48.12850 41.46644
#
# Velocity S-wave (km/s) = 4.22507 4.96841 4.61174
# Velocity P-wave (km/s) = 5.46657 6.99291 6.27631
#
# Compressibility (1/GPa) = 0.08433394
#
# Stress axis : x y z
#
# Youngs Moduli (GPa) = 31.98603 31.98603 128.93453
#
# Poissons Ratio (x) = -0.60409 0.76462
# Poissons Ratio (y) = -0.60409 0.76462
# Poissons Ratio (z) = 0.18969 0.18969
#
# Static dielectric constant tensor:
#      x y z
#    x 1.650720 0.000000 0.000000 
#    y 0.000000 1.650720 0.000000 
#    z 0.000000 0.000000 1.650290 
# 
# From -- ./inp_files/1099.got.cif
#   From: 2010.05.17/outbox.cif.g08.bks.cpg/sg174_cif.got.tgz:1099.got - 2010.05.20 11:22:48.
