data_PCOD9581255
_publ_section_title
;
Structure prediction by ZEFSAII (Michael W. Deem and Ramdas Pophale) SiO2 
 PCOD9581255
Probable space group: P 6/M
;
_chemical_formula_sum "Si O2"
_cell_formula_units_Z 72
_cell_length_a 22.295784
_cell_length_b 22.295784
_cell_length_c 10.410379
_cell_angle_alpha 90.000000
_cell_angle_beta 90.000000
_cell_angle_gamma 120.000000
_cell_volume 4481.698834
_symmetry_space_group_name_H-M "P 6/M"
_symmetry_group_IT_number 175
_symmetry_cell_setting 'hexagonal'
loop_
_space_group_symop_operation_xyz
x,y,z
x-y,x,z
-y,x-y,z
-x,-y,z
-x+y,-x,z
y,-x+y,z
-x,-y,-z
-x+y,-x,-z
y,-x+y,-z
x,y,-z
x-y,x,-z
-y,x-y,-z
loop_
_atom_site_type_symbol
_atom_site_label
_atom_site_fract_x
_atom_site_fract_y
_atom_site_fract_z
Si Si1 0.474576 0.666197 0.846752
Si Si2 0.294269 0.079218 0.000000
Si Si3 0.379536 0.080245 0.752589
Si Si4 0.525424 0.191621 0.153248
Si Si5 0.919291 0.700802 0.500000
Si Si6 0.379536 0.299291 0.752589
Si Si7 0.920782 0.705731 0.000000
Si Si8 0.700802 0.919291 0.500000
O O1 0.467917 0.733959 0.823923
O O2 0.403374 0.596626 0.816435
O O3 0.539697 0.673073 0.769460
O O4 0.487870 0.664824 0.000000
O O5 0.341043 0.090135 0.124934
O O6 0.269716 0.134858 0.000000
O O7 0.233665 0.000000 0.000000
O O8 0.460303 0.133376 0.769460
O O9 0.346152 0.091607 0.625095
O O10 0.359748 1.000000 0.753332
O O11 0.512130 0.176954 0.000000
O O12 0.908393 0.653848 0.625095
O O13 0.862401 0.724803 0.500000
O O14 1.000000 0.761062 0.500000
O O15 0.341043 0.250908 0.875066
#
# Coordination Sequence:
#
# PCOD9581255 Si02
#       8
#    12   6  12  12   6  12   6   6
#     4  10  19  31  49  72 100 132 167 206 248 297
#     4  10  18  30  49  72  97 123 157 197 238 284
#     4  10  20  33  51  75  99 127 162 204 250 293
#     4  10  19  31  49  72 100 132 167 206 248 297
#     4  10  20  34  53  76 103 133 165 201 246 298
#     4  10  20  33  51  75  99 127 162 204 250 293
#     4  10  18  30  49  72  97 123 157 197 238 284
#     4  10  20  34  53  76 103 133 165 201 246 298
#
# _framework density 16.065335999999999
#
# number of rings (size 3 to 8) (size 9 to 14) (size 15 to 20)
#    0.000    2.000    1.667    3.333    0.000    2.000 
#    0.000    2.500    0.000    3.333    0.000    2.333 
#    0.000    8.000    0.000    0.000    0.000    1.333 
#
# Total GULP energy -401774.231680 kJ/mol
# GULP energy per Si atom -5580.197662 kJ/mol
# Density = 1.602877 g / cm^3
# Si number density = 16.065336 Si / 1000 Ang^3
#
#
#
# Elastic Constant Matrix: (Units=GPa)
#
#
# Indices 1 2 3 4 5 6 
#
# 1 120.0581 100.5040 42.4453 0.0000 0.0000 0.0000
# 2 100.5040 120.0581 42.4453 0.0000 0.0000 0.0000
# 3 42.4453 42.4453 102.7201 0.0000 0.0000 0.0000
# 4 0.0000 0.0000 0.0000 -119.9198 0.0000 0.0000
# 5 0.0000 0.0000 0.0000 0.0000 -119.9198 0.0000
# 6 0.0000 0.0000 0.0000 0.0000 0.0000 9.7770
#
#
#
# Elastic Compliance Matrix: (Units=1/GPa)
#
#
# Indices 1 2 3 4 5 6 
#
# 1 0.028266 -0.022874 -0.002228 0.000000 0.000000 0.000000
# 2 -0.022874 0.028266 -0.002228 0.000000 0.000000 0.000000
# 3 -0.002228 -0.002228 0.011576 0.000000 0.000000 0.000000
# 4 0.000000 0.000000 0.000000 -0.008339 0.000000 0.000000
# 5 0.000000 0.000000 0.000000 0.000000 -0.008339 0.000000
# 6 0.000000 0.000000 0.000000 0.000000 0.000000 0.102280
#
#
# Mechanical properties :
#
#
# Convention : Reuss Voigt Hill
#
# Bulk Modulus (GPa) = 74.36136 79.29170 76.82653
# Shear Modulus (GPa) = 23.49038 -35.51640 -6.01301
#
# Velocity S-wave (km/s) = 3.82799 -4.70696 -1.93674
# Velocity P-wave (km/s) = 8.11944 4.46344 6.55163
#
# Compressibility (1/GPa) = 0.01344784
#
# Stress axis : x y z
#
# Youngs Moduli (GPa) = 35.37848 35.37848 86.38361
#
# Poissons Ratio (x) = 0.80926 0.19244
# Poissons Ratio (y) = 0.80926 0.19244
# Poissons Ratio (z) = 0.07881 0.07881
#
# Static dielectric constant tensor:
#      x y z
#    x 1.523400 0.000000 0.000000 
#    y 0.000000 1.523400 0.000000 
#    z 0.000000 0.000000 1.536800 
# 
# From -- ./inp_files/1972.got.cif
#   From: 2010.05.17/outbox.cif.g08.bks.cpg/sg175_1_cif.got.tgz:1972.got - 2010.05.20 11:23:22.
