data_PCOD9581680
_publ_section_title
;
Structure prediction by ZEFSAII (Michael W. Deem and Ramdas Pophale) SiO2 
 PCOD9581680
Probable space group: P 6/M
;
_chemical_formula_sum "Si O2"
_cell_formula_units_Z 78
_cell_length_a 23.539098
_cell_length_b 23.539098
_cell_length_c 10.118062
_cell_angle_alpha 90.000000
_cell_angle_beta 90.000000
_cell_angle_gamma 120.000000
_cell_volume 4855.205338
_symmetry_space_group_name_H-M "P 6/M"
_symmetry_group_IT_number 175
_symmetry_cell_setting 'hexagonal'
loop_
_space_group_symop_operation_xyz
x,y,z
x-y,x,z
-y,x-y,z
-x,-y,z
-x+y,-x,z
y,-x+y,z
-x,-y,-z
-x+y,-x,-z
y,-x+y,-z
x,y,-z
x-y,x,-z
-y,x-y,-z
loop_
_atom_site_type_symbol
_atom_site_label
_atom_site_fract_x
_atom_site_fract_y
_atom_site_fract_z
Si Si1 0.396028 0.478206 0.151552
Si Si2 0.922568 0.528508 0.150327
Si Si3 0.849497 0.884862 0.500000
Si Si4 0.920224 0.198875 0.146706
Si Si5 0.618946 0.915742 0.651772
Si Si6 0.819421 0.062985 0.752775
Si Si7 0.298895 0.924938 0.648997
O O1 0.432451 0.434853 0.152173
O O2 0.453304 0.552265 0.180508
O O3 0.340064 0.446256 0.261924
O O4 0.372674 0.475045 0.000000
O O5 0.900442 0.564884 0.253217
O O6 0.903139 0.532754 0.000000
O O7 0.910834 0.872595 0.500000
O O8 0.804447 0.850630 0.627804
O O9 0.901456 0.233771 0.261881
O O10 0.876190 0.121230 0.164505
O O11 0.996211 0.221115 0.167951
O O12 0.911572 0.219278 0.000000
O O13 0.609020 0.892097 0.500000
O O14 0.656444 0.995421 0.645154
O O15 0.770393 0.087592 0.701999
O O16 0.293497 0.900438 0.500000
#
# Coordination Sequence:
#
# PCOD9581680 Si02
#       7
#    12  12   6  12  12  12  12
#     4   8  13  24  39  58  87 123 156 187 215 247
#     4   8  14  23  38  59  88 124 157 184 213 250
#     4  12  23  40  62  80  92 117 155 213 277 351
#     4  11  23  37  52  71  93 121 157 203 259 324
#     4   9  18  28  44  66  89 118 156 193 235 280
#     4  11  22  35  56  71  94 121 156 200 259 328
#     4   9  17  27  42  65  89 117 151 186 231 280
#
# _framework density 16.065232000000002
#
# number of rings (size 3 to 8) (size 9 to 14) (size 15 to 20)
#    0.000    2.462    2.308    1.923    2.154    4.923 
#    0.000    3.077    0.000    0.000    0.000    2.154 
#    0.000    0.000    0.000    0.923    0.000   12.000 
#
# Total GULP energy -434572.078769 kJ/mol
# GULP energy per Si atom -5571.436907 kJ/mol
# Density = 1.602867 g / cm^3
# Si number density = 16.065232 Si / 1000 Ang^3
#
#
#
# Elastic Constant Matrix: (Units=GPa)
#
#
# Indices 1 2 3 4 5 6 
#
# 1 54.6155 29.0166 42.5690 0.0000 0.0000 0.0000
# 2 29.0166 54.6155 42.5690 0.0000 0.0000 0.0000
# 3 42.5690 42.5690 119.8642 0.0000 0.0000 0.0000
# 4 0.0000 0.0000 0.0000 13.5518 0.0000 0.0000
# 5 0.0000 0.0000 0.0000 0.0000 13.5518 0.0000
# 6 0.0000 0.0000 0.0000 0.0000 0.0000 12.7995
#
#
#
# Elastic Compliance Matrix: (Units=1/GPa)
#
#
# Indices 1 2 3 4 5 6 
#
# 1 0.028896 -0.010168 -0.006651 0.000000 0.000000 0.000000
# 2 -0.010168 0.028896 -0.006651 0.000000 0.000000 0.000000
# 3 -0.006651 -0.006651 0.013067 0.000000 0.000000 0.000000
# 4 0.000000 0.000000 0.000000 0.073791 0.000000 0.000000
# 5 0.000000 0.000000 0.000000 0.000000 0.073791 0.000000
# 6 0.000000 0.000000 0.000000 0.000000 0.000000 0.078128
#
#
# Mechanical properties :
#
#
# Convention : Reuss Voigt Hill
#
# Bulk Modulus (GPa) = 41.80862 50.82269 46.31566
# Shear Modulus (GPa) = 14.22544 15.64331 14.93438
#
# Velocity S-wave (km/s) = 2.97893 3.12386 3.05226
# Velocity P-wave (km/s) = 6.15734 6.68694 6.42760
#
# Compressibility (1/GPa) = 0.02391851
#
# Stress axis : x y z
#
# Youngs Moduli (GPa) = 34.60673 34.60673 76.52867
#
# Poissons Ratio (x) = 0.35188 0.50900
# Poissons Ratio (y) = 0.35188 0.50900
# Poissons Ratio (z) = 0.23017 0.23017
#
# Static dielectric constant tensor:
#      x y z
#    x 1.522370 0.000000 0.000000 
#    y 0.000000 1.522370 0.000000 
#    z 0.000000 0.000000 1.554810 
# 
# From -- ./inp_files/1311.got.cif
#   From: 2010.05.17/outbox.cif.g08.bks.cpg/sg175_1_cif.got.tgz:1311.got - 2010.05.20 11:23:22.
