data_PCOD9581285
_publ_section_title
;
Structure prediction by ZEFSAII (Michael W. Deem and Ramdas Pophale) SiO2 
 PCOD9581285
Probable space group: P 6/M
;
_chemical_formula_sum "Si O2"
_cell_formula_units_Z 84
_cell_length_a 19.304474
_cell_length_b 19.304474
_cell_length_c 14.960737
_cell_angle_alpha 90.000000
_cell_angle_beta 90.000000
_cell_angle_gamma 120.000000
_cell_volume 4828.359133
_symmetry_space_group_name_H-M "P 6/M"
_symmetry_group_IT_number 175
_symmetry_cell_setting 'hexagonal'
loop_
_space_group_symop_operation_xyz
x,y,z
x-y,x,z
-y,x-y,z
-x,-y,z
-x+y,-x,z
y,-x+y,z
-x,-y,-z
-x+y,-x,-z
y,-x+y,-z
x,y,-z
x-y,x,-z
-y,x-y,-z
loop_
_atom_site_type_symbol
_atom_site_label
_atom_site_fract_x
_atom_site_fract_y
_atom_site_fract_z
Si Si1 0.236917 0.308840 0.344085
Si Si2 0.306653 0.432866 0.807463
Si Si3 0.003711 0.284247 0.902623
Si Si4 0.904385 0.463083 0.894941
Si Si5 0.106746 0.355580 0.401650
Si Si6 0.584226 0.720569 0.793269
Si Si7 0.959983 0.139132 0.807868
O O1 0.298490 0.389515 0.288689
O O2 0.171640 0.325021 0.393227
O O3 0.286351 0.273316 0.394014
O O4 0.184668 0.242550 0.270376
O O5 0.306314 0.369831 0.878291
O O6 0.383474 0.515593 0.834125
O O7 0.225803 0.436323 0.813288
O O8 0.074575 0.327240 0.830888
O O9 0.961635 0.188991 0.894567
O O10 0.037359 0.313991 0.000000
O O11 0.884470 0.525365 0.846751
O O12 0.000000 0.500000 0.893714
O O13 0.879365 0.448971 0.000000
O O14 0.118052 0.393087 0.500000
O O15 0.123454 0.410561 0.313745
O O16 0.047507 0.151439 0.802976
#
# Coordination Sequence:
#
# PCOD9581285 Si02
#       7
#    12  12  12  12  12  12  12
#     4  10  18  34  54  80 109 146 185 238 290 332
#     4  10  21  36  57  82 114 146 184 227 279 340
#     4  11  20  34  56  80 106 142 192 237 277 335
#     4  11  21  36  58  85 116 151 186 224 277 341
#     4  11  20  34  57  84 113 145 192 243 289 335
#     4  11  22  38  58  83 116 150 185 230 290 338
#     4  11  20  33  49  69 108 149 191 230 282 337
#
# _framework density 17.397214999999999
#
# number of rings (size 3 to 8) (size 9 to 14) (size 15 to 20)
#    0.000    1.286    5.714    3.143    0.000    4.000 
#    0.857    0.000    0.000    8.143    0.000    2.000 
#    0.000    0.000    0.000    0.000    0.000    0.000 
#
# Total GULP energy -468197.826464 kJ/mol
# GULP energy per Si atom -5573.783648 kJ/mol
# Density = 1.735762 g / cm^3
# Si number density = 17.397215 Si / 1000 Ang^3
#
#
#
# Elastic Constant Matrix: (Units=GPa)
#
#
# Indices 1 2 3 4 5 6 
#
# 1 77.5504 21.6805 28.8320 0.0000 0.0000 0.0000
# 2 21.6805 77.5504 28.8320 0.0000 0.0000 0.0000
# 3 28.8320 28.8320 113.9727 0.0000 0.0000 0.0000
# 4 0.0000 0.0000 0.0000 8.2751 0.0000 0.0000
# 5 0.0000 0.0000 0.0000 0.0000 8.2751 0.0000
# 6 0.0000 0.0000 0.0000 0.0000 0.0000 27.9350
#
#
#
# Elastic Compliance Matrix: (Units=1/GPa)
#
#
# Indices 1 2 3 4 5 6 
#
# 1 0.014856 -0.003042 -0.002989 0.000000 0.000000 0.000000
# 2 -0.003042 0.014856 -0.002989 0.000000 0.000000 0.000000
# 3 -0.002989 -0.002989 0.010286 0.000000 0.000000 0.000000
# 4 0.000000 0.000000 0.000000 0.120845 0.000000 0.000000
# 5 0.000000 0.000000 0.000000 0.000000 0.120845 0.000000
# 6 0.000000 0.000000 0.000000 0.000000 0.000000 0.035797
#
#
# Mechanical properties :
#
#
# Convention : Reuss Voigt Hill
#
# Bulk Modulus (GPa) = 45.53751 47.52915 46.53333
# Shear Modulus (GPa) = 14.58381 21.54563 18.06472
#
# Velocity S-wave (km/s) = 2.89845 3.52298 3.22587
# Velocity P-wave (km/s) = 6.11828 6.62781 6.37814
#
# Compressibility (1/GPa) = 0.02195992
#
# Stress axis : x y z
#
# Youngs Moduli (GPa) = 67.31070 67.31070 97.21817
#
# Poissons Ratio (x) = 0.20477 0.29055
# Poissons Ratio (y) = 0.20477 0.29055
# Poissons Ratio (z) = 0.20117 0.20117
#
# Static dielectric constant tensor:
#      x y z
#    x 1.605640 0.000000 0.000000 
#    y 0.000000 1.605640 0.000000 
#    z 0.000000 0.000000 1.616800 
# 
# From -- ./inp_files/2604.got.cif
#   From: 2010.05.17/outbox.cif.g08.bks.cpg/sg175_2_cif.got.tgz:2604.got - 2010.05.20 11:23:22.
