data_PCOD9581992
_publ_section_title
;
Structure prediction by ZEFSAII (Michael W. Deem and Ramdas Pophale) SiO2 
 PCOD9581992
Probable space group: P 63/M
;
_chemical_formula_sum "Si O2"
_cell_formula_units_Z 34
_cell_length_a 13.705461
_cell_length_b 13.705461
_cell_length_c 7.733561
_cell_angle_alpha 90.000000
_cell_angle_beta 90.000000
_cell_angle_gamma 120.000000
_cell_volume 1258.048671
_symmetry_space_group_name_H-M "P 63/M"
_symmetry_group_IT_number 176
_symmetry_cell_setting 'hexagonal'
loop_
_space_group_symop_operation_xyz
x,y,z
x-y,x,1/2+z
-y,x-y,z
-x,-y,1/2+z
-x+y,-x,z
y,-x+y,1/2+z
-x,-y,-z
-x+y,-x,1/2-z
y,-x+y,-z
x,y,1/2-z
x-y,x,-z
-y,x-y,1/2-z
loop_
_atom_site_type_symbol
_atom_site_label
_atom_site_fract_x
_atom_site_fract_y
_atom_site_fract_z
Si Si1 0.333334 0.666668 0.463993
Si Si2 0.901299 0.256865 0.051876
Si Si3 0.650711 0.115771 0.551787
Si Si4 0.884913 0.861932 0.250000
O O1 0.333334 0.666668 0.250000
O O2 0.380526 0.794665 0.522438
O O3 0.871368 0.272013 0.250000
O O4 0.958430 0.180110 0.091548
O O5 0.995851 0.375715 0.973596
O O6 0.786974 0.188952 0.949324
O O7 0.613228 0.092935 0.750000
O O8 0.888048 0.980898 0.250000
#
# Coordination Sequence:
#
# PCOD9581992 Si02
#       4
#     4  12  12   6
#     4   9  21  42  61  77 103 153 196 239 280 333
#     4   9  21  33  56  83 115 145 186 226 273 330
#     4  10  21  38  59  81 112 148 192 227 281 336
#     4   8  18  34  54  78 122 160 178 202 276 352
#
# _framework density 27.025979
#
# number of rings (size 3 to 8) (size 9 to 14) (size 15 to 20)
#    1.412    1.412    0.000    0.000    4.941    2.824 
#    0.000    3.529    0.000    0.000    0.000    0.000 
#    0.000    0.000    0.000    0.000    0.000    0.000 
#
# Total GULP energy -189882.885978 kJ/mol
# GULP energy per Si atom -5584.790764 kJ/mol
# Density = 2.696447 g / cm^3
# Si number density = 27.025979 Si / 1000 Ang^3
#
#
#
# Elastic Constant Matrix: (Units=GPa)
#
#
# Indices 1 2 3 4 5 6 
#
# 1 133.3066 27.3863 19.3723 0.0000 0.0000 -0.0003
# 2 27.3863 133.3098 19.3724 0.0000 0.0000 -0.0009
# 3 19.3723 19.3724 79.9752 0.0000 0.0000 0.0000
# 4 0.0000 0.0000 0.0000 21.9683 0.0000 0.0000
# 5 0.0000 0.0000 0.0000 0.0000 21.9679 0.0000
# 6 -0.0003 -0.0009 0.0000 0.0000 0.0000 52.9609
#
#
#
# Elastic Compliance Matrix: (Units=1/GPa)
#
#
# Indices 1 2 3 4 5 6 
#
# 1 0.008025 -0.001416 -0.001601 0.000000 0.000000 0.000000
# 2 -0.001416 0.008025 -0.001601 0.000000 0.000000 0.000000
# 3 -0.001601 -0.001601 0.013279 0.000000 0.000000 0.000000
# 4 0.000000 0.000000 0.000000 0.045520 0.000000 0.000000
# 5 0.000000 0.000000 0.000000 0.000000 0.045521 0.000000
# 6 0.000000 0.000000 0.000000 0.000000 0.000000 0.018882
#
#
# Mechanical properties :
#
#
# Convention : Reuss Voigt Hill
#
# Bulk Modulus (GPa) = 49.76649 53.20594 51.48622
# Shear Modulus (GPa) = 32.21948 38.07681 35.14815
#
# Velocity S-wave (km/s) = 3.45652 3.75760 3.61020
# Velocity P-wave (km/s) = 5.86382 6.20933 6.03905
#
# Compressibility (1/GPa) = 0.02009384
#
# Stress axis : x y z
#
# Youngs Moduli (GPa) = 124.60996 124.61293 75.30435
#
# Poissons Ratio (x) = 0.17645 0.12056
# Poissons Ratio (y) = 0.17644 0.12055
# Poissons Ratio (z) = 0.19949 0.19949
#
# Static dielectric constant tensor:
#      x y z
#    x 2.142840 0.000000 0.000000 
#    y 0.000000 2.142840 0.000000 
#    z 0.000000 0.000000 2.015210 
# 
# From -- ./inp_files/385.got.cif
#   From: 2010.05.17/outbox.cif.g08.bks.cpg/sg176_1_cif.got.tgz:385.got - 2010.06.03 11:36:45.
