data_PCOD9581079
_publ_section_title
;
Structure prediction by ZEFSAII (Michael W. Deem and Ramdas Pophale) SiO2 
 PCOD9581079
Probable space group: P 63
;
_chemical_formula_sum "Si O2"
_cell_formula_units_Z 48
_cell_length_a 16.872301
_cell_length_b 16.872301
_cell_length_c 8.778932
_cell_angle_alpha 90.000000
_cell_angle_beta 90.000000
_cell_angle_gamma 120.000000
_cell_volume 2164.317375
_symmetry_space_group_name_H-M "P 63"
_symmetry_group_IT_number 173
_symmetry_cell_setting 'hexagonal'
loop_
_space_group_symop_operation_xyz
x,y,z
x-y,x,1/2+z
-y,x-y,z
-x,-y,1/2+z
-x+y,-x,z
y,-x+y,1/2+z
loop_
_atom_site_type_symbol
_atom_site_label
_atom_site_fract_x
_atom_site_fract_y
_atom_site_fract_z
Si Si1 0.456818 0.974848 0.141780
Si Si2 0.936813 0.817451 0.494090
Si Si3 0.456469 0.126814 0.353860
Si Si4 0.825123 0.195984 0.088626
Si Si5 0.621100 0.404829 0.612898
Si Si6 0.629757 0.651758 0.572798
Si Si7 0.946956 0.835006 0.155512
Si Si8 0.319826 0.990391 0.930809
O O1 0.451235 0.042784 0.259852
O O2 0.558364 0.025314 0.075615
O O3 0.443346 0.878434 0.202567
O O4 0.380129 0.954062 0.014423
O O5 0.977782 0.855401 0.328195
O O6 0.846465 0.820952 0.538660
O O7 0.007287 0.895478 0.606884
O O8 0.939866 0.723627 0.498290
O O9 0.435204 0.185088 0.232335
O O10 0.551952 0.182376 0.443846
O O11 0.377323 0.071494 0.480273
O O12 0.732431 0.118554 0.011525
O O13 0.867352 0.136172 0.154248
O O14 0.902506 0.268062 0.976235
O O15 0.569430 0.295482 0.639418
O O16 0.660233 0.677549 0.749066
#
# Coordination Sequence:
#
# PCOD9581079 Si02
#       8
#     6   6   6   6   6   6   6   6
#     4  10  22  44  69  99 135 173 215 280 346 399
#     4  11  23  41  63  91 130 178 222 278 323 391
#     4  10  23  41  66 100 135 176 223 278 341 409
#     4  10  24  40  59  99 133 165 223 273 326 395
#     4   9  21  39  67 105 131 176 230 278 331 420
#     4  11  21  41  70  93 126 180 215 267 340 401
#     4  11  23  40  61  91 129 175 223 270 329 375
#     4  10  23  44  65  94 135 171 217 274 330 408
#
# _framework density 22.177892
#
# number of rings (size 3 to 8) (size 9 to 14) (size 15 to 20)
#    0.250    1.500    1.250    2.500    5.250    0.000 
#   13.500    0.000    0.000    0.000    0.000    0.000 
#    0.000    0.000    0.000    0.000    0.000    0.000 
#
# Total GULP energy -267551.446325 kJ/mol
# GULP energy per Si atom -5573.988465 kJ/mol
# Density = 2.212741 g / cm^3
# Si number density = 22.177892 Si / 1000 Ang^3
#
#
#
# Elastic Constant Matrix: (Units=GPa)
#
#
# Indices 1 2 3 4 5 6 
#
# 1 73.2361 5.2371 -4.8802 0.0000 0.0000 0.0000
# 2 5.2371 73.2361 -4.8802 0.0000 0.0000 0.0000
# 3 -4.8802 -4.8802 25.9441 0.0000 0.0000 0.0000
# 4 0.0000 0.0000 0.0000 26.5445 0.0000 0.0000
# 5 0.0000 0.0000 0.0000 0.0000 26.5445 0.0000
# 6 0.0000 0.0000 0.0000 0.0000 0.0000 33.9995
#
#
#
# Elastic Compliance Matrix: (Units=1/GPa)
#
#
# Indices 1 2 3 4 5 6 
#
# 1 0.013877 -0.000829 0.002454 0.000000 0.000000 0.000000
# 2 -0.000829 0.013877 0.002454 0.000000 0.000000 0.000000
# 3 0.002454 0.002454 0.039468 0.000000 0.000000 0.000000
# 4 0.000000 0.000000 0.000000 0.037673 0.000000 0.000000
# 5 0.000000 0.000000 0.000000 0.000000 0.037673 0.000000
# 6 0.000000 0.000000 0.000000 0.000000 0.000000 0.029412
#
#
# Mechanical properties :
#
#
# Convention : Reuss Voigt Hill
#
# Bulk Modulus (GPa) = 13.26564 18.15220 15.70892
# Shear Modulus (GPa) = 26.46244 29.21368 27.83806
#
# Velocity S-wave (km/s) = 3.45801 3.63332 3.54675
# Velocity P-wave (km/s) = 4.68382 5.07976 4.88580
#
# Compressibility (1/GPa) = 0.07538270
#
# Stress axis : x y z
#
# Youngs Moduli (GPa) = 72.06017 72.06017 25.33707
#
# Poissons Ratio (x) = 0.05972 -0.06219
# Poissons Ratio (y) = 0.05972 -0.06219
# Poissons Ratio (z) = -0.17687 -0.17687
#
# Static dielectric constant tensor:
#      x y z
#    x 1.875270 0.000000 0.000000 
#    y 0.000000 1.875270 0.000000 
#    z 0.000000 0.000000 1.843630 
# 
# From -- ./inp_files/656.got.cif
#   From: 2010.05.17/outbox.cif.g08.bks.cpg/sg173_cif.got.tgz:656.got - 2010.05.20 11:21:53.
