data_PCOD9581890
_publ_section_title
;
Structure prediction by ZEFSAII (Michael W. Deem and Ramdas Pophale) SiO2 
 PCOD9581890
Probable space group: P 63/M
;
_chemical_formula_sum "Si O2"
_cell_formula_units_Z 78
_cell_length_a 21.646923
_cell_length_b 21.646923
_cell_length_c 8.528579
_cell_angle_alpha 90.000000
_cell_angle_beta 90.000000
_cell_angle_gamma 120.000000
_cell_volume 3460.984490
_symmetry_space_group_name_H-M "P 63/M"
_symmetry_group_IT_number 176
_symmetry_cell_setting 'hexagonal'
loop_
_space_group_symop_operation_xyz
x,y,z
x-y,x,1/2+z
-y,x-y,z
-x,-y,1/2+z
-x+y,-x,z
y,-x+y,1/2+z
-x,-y,-z
-x+y,-x,1/2-z
y,-x+y,-z
x,y,1/2-z
x-y,x,-z
-y,x-y,1/2-z
loop_
_atom_site_type_symbol
_atom_site_label
_atom_site_fract_x
_atom_site_fract_y
_atom_site_fract_z
Si Si1 0.552053 0.226715 0.916214
Si Si2 0.554090 0.711798 0.419310
Si Si3 0.514353 0.658699 0.750000
Si Si4 0.490886 0.077409 0.250000
Si Si5 0.968083 0.248028 0.936363
Si Si6 0.767232 0.314802 0.250000
Si Si7 0.118186 0.286858 0.070582
Si Si8 0.379008 0.436579 0.428781
O O1 0.591846 0.240835 0.750000
O O2 0.509114 0.269679 0.917222
O O3 0.494116 0.142356 0.916782
O O4 0.588630 0.242337 0.086080
O O5 0.551520 0.676703 0.250000
O O6 0.552842 0.673169 0.580732
O O7 0.627309 0.786378 0.422611
O O8 0.458443 0.575970 0.750000
O O9 0.484996 0.714702 0.750000
O O10 0.482937 0.149352 0.250000
O O11 0.460801 0.035290 0.412040
O O12 0.960156 0.240168 0.750000
O O13 0.906326 0.173601 0.004817
O O14 0.955438 0.313774 0.970365
O O15 0.045113 0.263424 0.984225
O O16 0.100798 0.260630 0.250000
O O17 0.405016 0.434581 0.250000
#
# Coordination Sequence:
#
# PCOD9581890 Si02
#       8
#    12  12   6   6  12   6  12  12
#     4   8  12  24  46  68  94 132 173 229 277 333
#     4   9  17  32  53  77 109 146 192 240 294 347
#     4  10  20  32  52  82 109 145 197 242 295 369
#     4  10  20  32  52  82 109 145 197 242 295 369
#     4  10  21  37  58  91 126 156 197 252 304 361
#     4   8  16  28  42  70 102 136 178 228 278 342
#     4  10  21  37  58  91 126 156 197 252 304 361
#     4   9  17  32  53  77 109 146 192 240 294 347
#
# _framework density 22.536940000000001
#
# number of rings (size 3 to 8) (size 9 to 14) (size 15 to 20)
#    0.000    2.769    1.538    0.000    2.154    1.231 
#    0.462    0.000    0.000    1.231    0.000    0.000 
#    0.000    0.000    0.000    0.000    0.000    0.000 
#
# Total GULP energy -435200.335518 kJ/mol
# GULP energy per Si atom -5579.491481 kJ/mol
# Density = 2.248564 g / cm^3
# Si number density = 22.536940 Si / 1000 Ang^3
#
#
#
# Elastic Constant Matrix: (Units=GPa)
#
#
# Indices 1 2 3 4 5 6 
#
# 1 66.2562 30.7738 19.7103 0.0000 0.0000 0.0000
# 2 30.7738 66.2562 19.7103 0.0000 0.0000 0.0000
# 3 19.7103 19.7103 193.2656 0.0000 0.0000 0.0000
# 4 0.0000 0.0000 0.0000 1.9347 0.0000 0.0000
# 5 0.0000 0.0000 0.0000 0.0000 1.9347 0.0000
# 6 0.0000 0.0000 0.0000 0.0000 0.0000 17.7412
#
#
#
# Elastic Compliance Matrix: (Units=1/GPa)
#
#
# Indices 1 2 3 4 5 6 
#
# 1 0.019467 -0.008716 -0.001097 0.000000 0.000000 0.000000
# 2 -0.008716 0.019467 -0.001097 0.000000 0.000000 0.000000
# 3 -0.001097 -0.001097 0.005398 0.000000 0.000000 0.000000
# 4 0.000000 0.000000 0.000000 0.516882 0.000000 0.000000
# 5 0.000000 0.000000 0.000000 0.000000 0.516882 0.000000
# 6 0.000000 0.000000 0.000000 0.000000 0.000000 0.056366
#
#
# Mechanical properties :
#
#
# Convention : Reuss Voigt Hill
#
# Bulk Modulus (GPa) = 44.41484 51.79633 48.10558
# Shear Modulus (GPa) = 4.29633 21.36100 12.82866
#
# Velocity S-wave (km/s) = 1.38220 3.08201 2.38844
# Velocity P-wave (km/s) = 4.72204 5.97476 5.38495
#
# Compressibility (1/GPa) = 0.02251500
#
# Stress axis : x y z
#
# Youngs Moduli (GPa) = 51.36818 51.36818 185.25778
#
# Poissons Ratio (x) = 0.44771 0.20314
# Poissons Ratio (y) = 0.44771 0.20314
# Poissons Ratio (z) = 0.05633 0.05633
#
# Static dielectric constant tensor:
#      x y z
#    x 1.831520 0.000000 0.000000 
#    y 0.000000 1.831520 0.000000 
#    z 0.000000 0.000000 1.939970 
# 
# From -- ./inp_files/1355.got.cif
#   From: 2010.05.17/outbox.cif.g08.bks.cpg/sg176_1_cif.got.tgz:1355.got - 2010.06.03 11:36:45.
