data_PCOD9581554
_publ_section_title
;
Structure prediction by ZEFSAII (Michael W. Deem and Ramdas Pophale) SiO2 
 PCOD9581554
Probable space group: P 6/M
;
_chemical_formula_sum "Si O2"
_cell_formula_units_Z 84
_cell_length_a 17.195402
_cell_length_b 17.195402
_cell_length_c 16.366765
_cell_angle_alpha 90.000000
_cell_angle_beta 90.000000
_cell_angle_gamma 120.000000
_cell_volume 4191.004673
_symmetry_space_group_name_H-M "P 6/M"
_symmetry_group_IT_number 175
_symmetry_cell_setting 'hexagonal'
loop_
_space_group_symop_operation_xyz
x,y,z
x-y,x,z
-y,x-y,z
-x,-y,z
-x+y,-x,z
y,-x+y,z
-x,-y,-z
-x+y,-x,-z
y,-x+y,-z
x,y,-z
x-y,x,-z
-y,x-y,-z
loop_
_atom_site_type_symbol
_atom_site_label
_atom_site_fract_x
_atom_site_fract_y
_atom_site_fract_z
Si Si1 0.808583 0.856742 0.095614
Si Si2 0.693032 0.724972 0.344443
Si Si3 0.749258 0.572203 0.654366
Si Si4 0.316359 0.991602 0.842248
Si Si5 0.020101 0.190745 0.500000
Si Si6 0.182870 0.706345 0.842408
Si Si7 0.373003 0.861493 0.903139
Si Si8 0.445226 0.750398 0.500000
O O1 0.876552 0.826714 0.132299
O O2 0.711391 0.770612 0.101699
O O3 0.826277 0.874669 0.000000
O O4 0.620119 0.760876 0.350834
O O5 0.702089 0.634203 0.357186
O O6 0.705794 0.728239 0.246873
O O7 0.758406 0.783978 0.416410
O O8 0.721617 0.528592 0.744471
O O9 0.711504 0.502042 0.581009
O O10 0.380215 0.095830 0.863291
O O11 0.374863 0.943604 0.853887
O O12 0.100962 0.173029 0.500000
O O13 0.274011 0.777450 0.886318
O O14 0.160725 0.607509 0.868534
O O15 0.386930 0.881018 0.000000
O O16 0.357244 0.760554 0.500000
#
# Coordination Sequence:
#
# PCOD9581554 Si02
#       8
#    12  12  12  12   6  12  12   6
#     4  10  21  36  58  87 126 173 222 280 342 403
#     4  11  23  42  69  99 137 185 230 278 353 411
#     4  11  23  46  71 103 142 184 229 293 347 424
#     4  11  24  42  64  99 127 174 229 286 341 414
#     4  12  23  38  64 100 145 186 232 284 329 412
#     4  11  26  43  69  95 134 176 226 277 350 418
#     4  12  25  43  67  97 134 175 225 287 356 428
#     4  10  26  44  74 107 134 177 232 286 356 410
#
# _framework density 20.042928
#
# number of rings (size 3 to 8) (size 9 to 14) (size 15 to 20)
#    0.143    0.857    2.857    3.500    4.000    4.571 
#    0.000    1.429    0.000    1.714    0.000    0.000 
#    0.000    0.000    0.000    0.000    0.000    0.000 
#
# Total GULP energy -467701.428774 kJ/mol
# GULP energy per Si atom -5567.874152 kJ/mol
# Density = 1.999731 g / cm^3
# Si number density = 20.042928 Si / 1000 Ang^3
#
#
#
# Elastic Constant Matrix: (Units=GPa)
#
#
# Indices 1 2 3 4 5 6 
#
# 1 79.0934 13.4445 38.6388 0.0000 0.0000 0.0000
# 2 13.4445 79.0934 38.6388 0.0000 0.0000 0.0000
# 3 38.6388 38.6388 114.8421 0.0000 0.0000 0.0000
# 4 0.0000 0.0000 0.0000 22.1920 0.0000 0.0000
# 5 0.0000 0.0000 0.0000 0.0000 22.1920 0.0000
# 6 0.0000 0.0000 0.0000 0.0000 0.0000 32.8244
#
#
#
# Elastic Compliance Matrix: (Units=1/GPa)
#
#
# Indices 1 2 3 4 5 6 
#
# 1 0.015131 -0.000102 -0.005057 0.000000 0.000000 0.000000
# 2 -0.000102 0.015131 -0.005057 0.000000 0.000000 0.000000
# 3 -0.005057 -0.005057 0.012110 0.000000 0.000000 0.000000
# 4 0.000000 0.000000 0.000000 0.045061 0.000000 0.000000
# 5 0.000000 0.000000 0.000000 0.000000 0.045061 0.000000
# 6 0.000000 0.000000 0.000000 0.000000 0.000000 0.030465
#
#
# Mechanical properties :
#
#
# Convention : Reuss Voigt Hill
#
# Bulk Modulus (GPa) = 45.57449 50.49701 48.03575
# Shear Modulus (GPa) = 26.21875 27.59547 26.90711
#
# Velocity S-wave (km/s) = 3.62073 3.71458 3.66795
# Velocity P-wave (km/s) = 6.34566 6.60655 6.47742
#
# Compressibility (1/GPa) = 0.02194210
#
# Stress axis : x y z
#
# Youngs Moduli (GPa) = 66.09029 66.09029 82.57518
#
# Poissons Ratio (x) = 0.00672 0.41755
# Poissons Ratio (y) = 0.00672 0.41755
# Poissons Ratio (z) = 0.33419 0.33419
#
# Static dielectric constant tensor:
#      x y z
#    x 1.724210 0.000000 0.000000 
#    y 0.000000 1.724210 0.000000 
#    z 0.000000 0.000000 1.690520 
# 
# From -- ./inp_files/2653.got.cif
#   From: 2010.05.17/outbox.cif.g08.bks.cpg/sg175_2_cif.got.tgz:2653.got - 2010.05.20 11:23:22.
