data_PCOD9581312
_publ_section_title
;
Structure prediction by ZEFSAII (Michael W. Deem and Ramdas Pophale) SiO2 
 PCOD9581312
Probable space group: P 6/M
;
_chemical_formula_sum "Si O2"
_cell_formula_units_Z 72
_cell_length_a 24.307934
_cell_length_b 24.307934
_cell_length_c 9.151923
_cell_angle_alpha 90.000000
_cell_angle_beta 90.000000
_cell_angle_gamma 120.000000
_cell_volume 4683.160976
_symmetry_space_group_name_H-M "P 6/M"
_symmetry_group_IT_number 175
_symmetry_cell_setting 'hexagonal'
loop_
_space_group_symop_operation_xyz
x,y,z
x-y,x,z
-y,x-y,z
-x,-y,z
-x+y,-x,z
y,-x+y,z
-x,-y,-z
-x+y,-x,-z
y,-x+y,-z
x,y,-z
x-y,x,-z
-y,x-y,-z
loop_
_atom_site_type_symbol
_atom_site_label
_atom_site_fract_x
_atom_site_fract_y
_atom_site_fract_z
Si Si1 0.518945 0.253947 0.665941
Si Si2 0.817835 0.635216 0.333156
Si Si3 0.515747 0.141961 0.827012
Si Si4 0.927769 0.293745 0.173450
Si Si5 0.625932 0.137860 0.674999
Si Si6 0.076128 0.375229 0.825383
O O1 0.540272 0.252016 0.500000
O O2 0.441981 0.218599 0.664167
O O3 0.535591 0.212904 0.773375
O O4 0.538442 0.325551 0.706652
O O5 0.834070 0.656914 0.500000
O O6 0.770887 0.655706 0.260868
O O7 0.879401 0.650441 0.239425
O O8 0.440645 0.098662 0.794651
O O9 0.558062 0.119707 0.739661
O O10 0.525103 0.140552 0.000000
O O11 0.002174 0.328221 0.206113
O O12 0.918306 0.280384 0.000000
O O13 0.624942 0.130333 0.500000
O O14 0.655513 0.098889 0.750553
O O15 0.084736 0.383699 0.000000
#
# Coordination Sequence:
#
# PCOD9581312 Si02
#       6
#    12  12  12  12  12  12
#     4   8  16  31  46  59  78 108 143 180 228 284
#     4   9  17  30  49  70  92 118 148 185 225 268
#     4  10  19  31  47  65  86 112 148 194 239 285
#     4   9  19  33  49  70  94 124 157 189 229 278
#     4  10  20  33  47  64  88 117 150 191 242 291
#     4  10  19  32  50  70  94 123 156 191 229 276
#
# _framework density 15.374231999999999
#
# number of rings (size 3 to 8) (size 9 to 14) (size 15 to 20)
#    0.000    2.667    0.000    3.000    0.000    7.333 
#    1.000    3.333    0.000    0.000    0.000    0.000 
#    0.000    0.000    0.000    0.500    0.000    9.667 
#
# Total GULP energy -401322.115752 kJ/mol
# GULP energy per Si atom -5573.918274 kJ/mol
# Density = 1.533924 g / cm^3
# Si number density = 15.374232 Si / 1000 Ang^3
#
#
#
# Elastic Constant Matrix: (Units=GPa)
#
#
# Indices 1 2 3 4 5 6 
#
# 1 73.7336 50.3201 58.0417 0.0000 0.0000 0.0000
# 2 50.3201 73.7336 58.0417 0.0000 0.0000 0.0000
# 3 58.0417 58.0417 84.3536 0.0000 0.0000 0.0000
# 4 0.0000 0.0000 0.0000 17.5540 0.0000 0.0000
# 5 0.0000 0.0000 0.0000 0.0000 17.5540 0.0000
# 6 0.0000 0.0000 0.0000 0.0000 0.0000 11.7067
#
#
#
# Elastic Compliance Matrix: (Units=1/GPa)
#
#
# Indices 1 2 3 4 5 6 
#
# 1 0.032673 -0.010038 -0.015575 0.000000 0.000000 0.000000
# 2 -0.010038 0.032673 -0.015575 0.000000 0.000000 0.000000
# 3 -0.015575 -0.015575 0.033288 0.000000 0.000000 0.000000
# 4 0.000000 0.000000 0.000000 0.056967 0.000000 0.000000
# 5 0.000000 0.000000 0.000000 0.000000 0.056967 0.000000
# 6 0.000000 0.000000 0.000000 0.000000 0.000000 0.085421
#
#
# Mechanical properties :
#
#
# Convention : Reuss Voigt Hill
#
# Bulk Modulus (GPa) = 61.50264 62.73640 62.11952
# Shear Modulus (GPa) = 12.96070 13.72410 13.34240
#
# Velocity S-wave (km/s) = 2.90662 2.99100 2.94911
# Velocity P-wave (km/s) = 7.16625 7.26794 7.21727
#
# Compressibility (1/GPa) = 0.01625947
#
# Stress axis : x y z
#
# Youngs Moduli (GPa) = 30.60661 30.60661 30.04103
#
# Poissons Ratio (x) = 0.30722 0.46788
# Poissons Ratio (y) = 0.30722 0.46788
# Poissons Ratio (z) = 0.47668 0.47668
#
# Static dielectric constant tensor:
#      x y z
#    x 1.502570 0.000000 0.000000 
#    y 0.000000 1.502570 0.000000 
#    z 0.000000 0.000000 1.516530 
# 
# From -- ./inp_files/1161.got.cif
#   From: 2010.05.17/outbox.cif.g08.bks.cpg/sg175_1_cif.got.tgz:1161.got - 2010.05.20 11:23:22.
