data_PCOD9581040
_publ_section_title
;
Structure prediction by ZEFSAII (Michael W. Deem and Ramdas Pophale) SiO2 
 PCOD9581040
Probable space group: P 63
;
_chemical_formula_sum "Si O2"
_cell_formula_units_Z 42
_cell_length_a 14.727719
_cell_length_b 14.727719
_cell_length_c 9.927695
_cell_angle_alpha 90.000000
_cell_angle_beta 90.000000
_cell_angle_gamma 120.000000
_cell_volume 1864.876330
_symmetry_space_group_name_H-M "P 63"
_symmetry_group_IT_number 173
_symmetry_cell_setting 'hexagonal'
loop_
_space_group_symop_operation_xyz
x,y,z
x-y,x,1/2+z
-y,x-y,z
-x,-y,1/2+z
-x+y,-x,z
y,-x+y,1/2+z
loop_
_atom_site_type_symbol
_atom_site_label
_atom_site_fract_x
_atom_site_fract_y
_atom_site_fract_z
Si Si1 0.913235 0.049093 0.834040
Si Si2 0.241237 0.948220 0.534140
Si Si3 0.647204 0.511835 0.194914
Si Si4 0.664148 0.847834 0.173520
Si Si5 0.859648 0.554122 0.272268
Si Si6 0.355428 0.906352 0.299396
Si Si7 0.926720 0.360582 0.895945
O O1 0.866464 0.068450 0.970893
O O2 0.863000 0.085697 0.716689
O O3 0.040174 0.111228 0.827250
O O4 0.242938 0.900236 0.678430
O O5 0.290797 0.900202 0.432451
O O6 0.315291 0.074687 0.549909
O O7 0.736829 0.511588 0.285743
O O8 0.540159 0.401205 0.191350
O O9 0.617851 0.591424 0.259994
O O10 0.675397 0.549733 0.040994
O O11 0.572827 0.727493 0.180450
O O12 0.629639 0.895004 0.296229
O O13 0.945443 0.579992 0.389855
O O14 0.450770 0.887098 0.332460
#
# Coordination Sequence:
#
# PCOD9581040 Si02
#       7
#     6   6   6   6   6   6   6
#     4   9  21  37  56  91 130 161 214 255 314 390
#     4  10  20  38  60  86 128 162 209 263 319 391
#     4  11  21  38  65  85 129 162 208 270 317 379
#     4  10  22  38  63  87 123 168 210 260 328 374
#     4  10  22  38  60  97 118 165 220 256 325 390
#     4  10  22  40  58  91 122 162 209 259 322 382
#     4  10  22  39  62  89 128 158 210 269 311 386
#
# _framework density 22.521599999999999
#
# number of rings (size 3 to 8) (size 9 to 14) (size 15 to 20)
#    0.286    1.714    1.429    2.000    0.000    9.143 
#    0.857    0.000    0.000    0.000    0.000    0.000 
#    0.000    0.000    0.000    0.000    0.000    0.000 
#
# Total GULP energy -234081.896705 kJ/mol
# GULP energy per Si atom -5573.378493 kJ/mol
# Density = 2.247034 g / cm^3
# Si number density = 22.521600 Si / 1000 Ang^3
#
#
#
# Elastic Constant Matrix: (Units=GPa)
#
#
# Indices 1 2 3 4 5 6 
#
# 1 26.1677 52.4118 7.4706 0.0000 0.0000 0.0000
# 2 52.4118 26.1677 7.4706 0.0000 0.0000 0.0000
# 3 7.4706 7.4706 13.8172 0.0000 0.0000 0.0000
# 4 0.0000 0.0000 0.0000 0.5672 0.0000 0.0000
# 5 0.0000 0.0000 0.0000 0.0000 0.5672 0.0000
# 6 0.0000 0.0000 0.0000 0.0000 0.0000 -13.1221
#
#
#
# Elastic Compliance Matrix: (Units=1/GPa)
#
#
# Indices 1 2 3 4 5 6 
#
# 1 -0.011960 0.026144 -0.007669 0.000000 0.000000 0.000000
# 2 0.026144 -0.011960 -0.007669 0.000000 0.000000 0.000000
# 3 -0.007669 -0.007669 0.080666 0.000000 0.000000 0.000000
# 4 0.000000 0.000000 0.000000 1.762998 0.000000 0.000000
# 5 0.000000 0.000000 0.000000 0.000000 1.762998 0.000000
# 6 0.000000 0.000000 0.000000 0.000000 0.000000 -0.076207
#
#
# Mechanical properties :
#
#
# Convention : Reuss Voigt Hill
#
# Bulk Modulus (GPa) = 12.76182 22.31762 17.53972
# Shear Modulus (GPa) = 1.42408 -2.47756 -0.52674
#
# Velocity S-wave (km/s) = 0.79605 -1.04999 -0.48414
# Velocity P-wave (km/s) = 2.55415 2.90878 2.73721
#
# Compressibility (1/GPa) = 0.07835872
#
# Stress axis : x y z
#
# Youngs Moduli (GPa) = -83.61358 -83.61358 12.39674
#
# Poissons Ratio (x) = 2.18599 0.09507
# Poissons Ratio (y) = 2.18599 0.09507
# Poissons Ratio (z) = -0.64123 -0.64123
#
# Static dielectric constant tensor:
#      x y z
#    x 1.886720 0.000000 0.000000 
#    y 0.000000 1.886720 0.000000 
#    z 0.000000 0.000000 1.896910 
# 
# From -- ./inp_files/918.got.cif
#   From: 2010.05.17/outbox.cif.g08.bks.cpg/sg173_cif.got.tgz:918.got - 2010.05.20 11:21:53.
