data_PCOD9581171
_publ_section_title
;
Structure prediction by ZEFSAII (Michael W. Deem and Ramdas Pophale) SiO2 
 PCOD9581171
Probable space group: P -6
;
_chemical_formula_sum "Si O2"
_cell_formula_units_Z 44
_cell_length_a 11.865274
_cell_length_b 11.865274
_cell_length_c 19.543147
_cell_angle_alpha 90.000000
_cell_angle_beta 90.000000
_cell_angle_gamma 120.000000
_cell_volume 2382.762046
_symmetry_space_group_name_H-M "P -6"
_symmetry_group_IT_number 174
_symmetry_cell_setting 'hexagonal'
loop_
_space_group_symop_operation_xyz
x,y,z
-x+y,-x,-z
-y,x-y,z
x,y,-z
-x+y,-x,z
-y,x-y,-z
loop_
_atom_site_type_symbol
_atom_site_label
_atom_site_fract_x
_atom_site_fract_y
_atom_site_fract_z
Si Si1 0.333334 0.666668 0.582938
Si Si2 0.666868 0.601959 0.924006
Si Si3 0.665954 0.070091 0.646566
Si Si4 0.634025 0.817012 0.418049
Si Si5 0.404137 0.070092 0.353434
Si Si6 0.398041 0.333132 0.075994
Si Si7 0.261447 0.263302 0.216166
Si Si8 0.736699 0.738553 0.783835
O O1 0.333334 0.666668 0.500000
O O2 0.258716 0.517434 0.605131
O O3 0.788079 0.576157 0.919383
O O4 0.533079 0.466921 0.919056
O O5 0.682012 0.691055 0.859675
O O6 0.673285 0.658250 0.000000
O O7 0.528840 0.057681 0.626381
O O8 0.785748 0.214251 0.633341
O O9 0.690335 0.962808 0.609396
O O10 0.666621 0.040364 0.727342
O O11 0.639184 0.819591 0.500000
O O12 0.690337 0.727528 0.390604
O O13 0.373743 0.040365 0.272658
O O14 0.308945 0.317989 0.140325
O O15 0.341750 0.326716 0.000000
O O16 0.225897 0.112949 0.216230
O O17 0.137636 0.275273 0.235730
#
# Coordination Sequence:
#
# PCOD9581171 Si02
#       8
#     2   6   6   6   6   6   6   6
#     4   9  18  36  66  90 114 150 196 242 280 333
#     4   9  17  30  50  76 106 141 182 230 283 339
#     4  11  23  40  63  91 122 156 196 245 298 351
#     4  11  22  40  64  90 119 156 198 240 287 349
#     4  11  23  40  63  91 122 156 196 245 298 351
#     4   9  17  30  50  76 106 141 182 230 283 339
#     4  10  20  34  53  78 110 148 190 235 286 343
#     4  10  20  34  53  78 110 148 190 235 286 343
#
# _framework density 18.465965000000001
#
# number of rings (size 3 to 8) (size 9 to 14) (size 15 to 20)
#    0.000    1.909    2.727    1.636    0.000    2.182 
#    0.818    2.727    0.000    3.818    0.000    0.000 
#    0.000    0.000    0.000    0.000    0.000    0.000 
#
# Total GULP energy -245430.632842 kJ/mol
# GULP energy per Si atom -5577.968928 kJ/mol
# Density = 1.842394 g / cm^3
# Si number density = 18.465965 Si / 1000 Ang^3
#
#
#
# Elastic Constant Matrix: (Units=GPa)
#
#
# Indices 1 2 3 4 5 6 
#
# 1 67.7928 29.1646 16.9822 0.0000 0.0000 0.0000
# 2 29.1646 67.7924 16.9822 0.0000 0.0000 0.0000
# 3 16.9822 16.9822 70.9562 0.0000 0.0000 0.0000
# 4 0.0000 0.0000 0.0000 23.8719 0.0000 0.0000
# 5 0.0000 0.0000 0.0000 0.0000 23.8720 0.0000
# 6 0.0000 0.0000 0.0000 0.0000 0.0000 19.3141
#
#
#
# Elastic Compliance Matrix: (Units=1/GPa)
#
#
# Indices 1 2 3 4 5 6 
#
# 1 0.018573 -0.007315 -0.002694 0.000000 0.000000 0.000000
# 2 -0.007315 0.018573 -0.002694 0.000000 0.000000 0.000000
# 3 -0.002694 -0.002694 0.015383 0.000000 0.000000 0.000000
# 4 0.000000 0.000000 0.000000 0.041890 0.000000 0.000000
# 5 0.000000 0.000000 0.000000 0.000000 0.041890 0.000000
# 6 0.000000 0.000000 0.000000 0.000000 0.000000 0.051776
#
#
# Mechanical properties :
#
#
# Convention : Reuss Voigt Hill
#
# Bulk Modulus (GPa) = 36.87197 36.97771 36.92484
# Shear Modulus (GPa) = 22.46863 22.97242 22.72053
#
# Velocity S-wave (km/s) = 3.49199 3.53092 3.51151
# Velocity P-wave (km/s) = 6.02242 6.05735 6.03991
#
# Compressibility (1/GPa) = 0.02712087
#
# Stress axis : x y z
#
# Youngs Moduli (GPa) = 53.84233 53.84194 65.00732
#
# Poissons Ratio (x) = 0.39386 0.17515
# Poissons Ratio (y) = 0.39386 0.17515
# Poissons Ratio (z) = 0.14507 0.14507
#
# Static dielectric constant tensor:
#      x y z
#    x 1.607330 0.000000 0.000000 
#    y 0.000000 1.607340 0.000000 
#    z 0.000000 0.000000 1.655000 
# 
# From -- ./inp_files/1021.got.cif
#   From: 2010.05.17/outbox.cif.g08.bks.cpg/sg174_cif.got.tgz:1021.got - 2010.05.20 11:22:48.
