data_PCOD9581937
_publ_section_title
;
Structure prediction by ZEFSAII (Michael W. Deem and Ramdas Pophale) SiO2 
 PCOD9581937
Probable space group: P 63/M
;
_chemical_formula_sum "Si O2"
_cell_formula_units_Z 72
_cell_length_a 16.417365
_cell_length_b 16.417365
_cell_length_c 15.562184
_cell_angle_alpha 90.000000
_cell_angle_beta 90.000000
_cell_angle_gamma 120.000000
_cell_volume 3632.520594
_symmetry_space_group_name_H-M "P 63/M"
_symmetry_group_IT_number 176
_symmetry_cell_setting 'hexagonal'
loop_
_space_group_symop_operation_xyz
x,y,z
x-y,x,1/2+z
-y,x-y,z
-x,-y,1/2+z
-x+y,-x,z
y,-x+y,1/2+z
-x,-y,-z
-x+y,-x,1/2-z
y,-x+y,-z
x,y,1/2-z
x-y,x,-z
-y,x-y,1/2-z
loop_
_atom_site_type_symbol
_atom_site_label
_atom_site_fract_x
_atom_site_fract_y
_atom_site_fract_z
Si Si1 0.704363 0.023225 0.925812
Si Si2 0.361314 0.872952 0.964641
Si Si3 0.168498 0.143153 0.654038
Si Si4 0.377502 0.039595 0.847166
Si Si5 0.821668 0.024640 0.091719
Si Si6 0.304764 0.464001 0.515019
O O1 0.775439 0.053040 0.847980
O O2 0.651758 0.079886 0.948747
O O3 0.775674 0.039016 0.005704
O O4 0.623356 0.915451 0.928053
O O5 0.378800 0.949847 0.890799
O O6 0.262577 0.776499 0.959971
O O7 0.446884 0.853868 0.969881
O O8 0.138385 0.105771 0.750000
O O9 0.153951 0.058840 0.592364
O O10 0.112830 0.195070 0.622671
O O11 0.414696 0.059310 0.750000
O O12 0.267600 0.009891 0.845713
O O13 0.428893 0.124412 0.916634
#
# Coordination Sequence:
#
# PCOD9581937 Si02
#       6
#    12  12  12  12  12  12
#     4  10  20  37  54  72 101 141 179 210 258 332
#     4  10  20  37  60  82 108 143 184 226 277 338
#     4  12  21  31  49  77 105 135 177 227 268 311
#     4  10  20  38  58  80 111 149 185 227 279 333
#     4  10  21  34  49  69 104 143 176 212 265 320
#     4  10  20  37  60  82 108 143 184 226 277 338
#
# _framework density 19.820947
#
# number of rings (size 3 to 8) (size 9 to 14) (size 15 to 20)
#    0.000    2.000    0.000    9.167    0.000    0.000 
#    0.000    6.667    0.000    0.000    0.000    0.000 
#    0.000    0.000    0.000    0.000    0.000    0.000 
#
# Total GULP energy -401436.531710 kJ/mol
# GULP energy per Si atom -5575.507385 kJ/mol
# Density = 1.977583 g / cm^3
# Si number density = 19.820947 Si / 1000 Ang^3
#
#
#
# Elastic Constant Matrix: (Units=GPa)
#
#
# Indices 1 2 3 4 5 6 
#
# 1 74.3844 5.7790 -6.7598 0.0000 0.0000 0.0000
# 2 5.7790 74.3844 -6.7598 0.0000 0.0000 0.0000
# 3 -6.7598 -6.7598 48.3297 0.0000 0.0000 0.0000
# 4 0.0000 0.0000 0.0000 0.4044 0.0000 0.0000
# 5 0.0000 0.0000 0.0000 0.0000 0.4044 0.0000
# 6 0.0000 0.0000 0.0000 0.0000 0.0000 34.3027
#
#
#
# Elastic Compliance Matrix: (Units=1/GPa)
#
#
# Indices 1 2 3 4 5 6 
#
# 1 0.013676 -0.000900 0.001787 0.000000 0.000000 0.000000
# 2 -0.000900 0.013676 0.001787 0.000000 0.000000 0.000000
# 3 0.001787 0.001787 0.021191 0.000000 0.000000 0.000000
# 4 0.000000 0.000000 0.000000 2.472755 0.000000 0.000000
# 5 0.000000 0.000000 0.000000 0.000000 2.472755 0.000000
# 6 0.000000 0.000000 0.000000 0.000000 0.000000 0.029152
#
#
# Mechanical properties :
#
#
# Convention : Reuss Voigt Hill
#
# Bulk Modulus (GPa) = 18.55610 20.17970 19.36790
# Shear Modulus (GPa) = 0.99289 20.67825 10.83557
#
# Velocity S-wave (km/s) = 0.70853 3.23345 2.34064
# Velocity P-wave (km/s) = 3.17042 4.91359 4.13490
#
# Compressibility (1/GPa) = 0.05389062
#
# Stress axis : x y z
#
# Youngs Moduli (GPa) = 73.12081 73.12081 47.18970
#
# Poissons Ratio (x) = 0.06582 -0.08433
# Poissons Ratio (y) = 0.06582 -0.08433
# Poissons Ratio (z) = -0.13066 -0.13066
#
# Static dielectric constant tensor:
#      x y z
#    x 1.723370 0.000000 0.000000 
#    y 0.000000 1.723370 0.000000 
#    z 0.000000 0.000000 1.747730 
# 
# From -- ./inp_files/3364.got.cif
#   From: 2010.05.17/outbox.cif.g08.bks.cpg/sg176_2_cif.got.tgz:3364.got - 2010.06.03 11:36:45.
