data_PCOD9581948
_publ_section_title
;
Structure prediction by ZEFSAII (Michael W. Deem and Ramdas Pophale) SiO2 
 PCOD9581948
Probable space group: P 63/M
;
_chemical_formula_sum "Si O2"
_cell_formula_units_Z 76
_cell_length_a 18.429014
_cell_length_b 18.429014
_cell_length_c 13.211613
_cell_angle_alpha 90.000000
_cell_angle_beta 90.000000
_cell_angle_gamma 120.000000
_cell_volume 3885.891545
_symmetry_space_group_name_H-M "P 63/M"
_symmetry_group_IT_number 176
_symmetry_cell_setting 'hexagonal'
loop_
_space_group_symop_operation_xyz
x,y,z
x-y,x,1/2+z
-y,x-y,z
-x,-y,1/2+z
-x+y,-x,z
y,-x+y,1/2+z
-x,-y,-z
-x+y,-x,1/2-z
y,-x+y,-z
x,y,1/2-z
x-y,x,-z
-y,x-y,1/2-z
loop_
_atom_site_type_symbol
_atom_site_label
_atom_site_fract_x
_atom_site_fract_y
_atom_site_fract_z
Si Si1 0.547454 0.689352 0.637133
Si Si2 0.716628 0.516001 0.628550
Si Si3 0.781703 0.045014 0.133501
Si Si4 0.564228 0.467846 0.016928
Si Si5 0.666668 0.333334 0.871163
Si Si6 0.306683 0.120555 0.970623
Si Si7 0.405058 0.116623 0.138655
O O1 0.514142 0.657236 0.750000
O O2 0.641266 0.703449 0.630772
O O3 0.488262 0.628109 0.551639
O O4 0.563133 0.783851 0.631906
O O5 0.715142 0.522260 0.750000
O O6 0.628251 0.494189 0.576953
O O7 0.718061 0.431167 0.600218
O O8 0.789301 0.604729 0.584007
O O9 0.814781 0.067675 0.250000
O O10 0.752502 0.949423 0.108506
O O11 0.839500 0.104322 0.042040
O O12 0.623030 0.518100 0.111130
O O13 0.500000 0.500000 0.000000
O O14 0.666667 0.333334 0.750000
O O15 0.335075 0.074357 0.053268
O O16 0.372047 0.087132 0.250000
#
# Coordination Sequence:
#
# PCOD9581948 Si02
#       7
#    12  12  12  12   4  12  12
#     4   9  18  34  54  75 107 148 187 239 300 347
#     4  10  22  38  55  79 113 159 209 257 307 359
#     4  10  21  39  62  89 124 155 192 248 297 357
#     4  11  22  32  51  77 107 148 194 242 303 360
#     4   9  21  39  54  72 112 161 208 261 303 351
#     4  10  20  37  63  89 116 156 197 233 304 362
#     4   9  19  35  51  77 110 140 188 245 290 344
#
# _framework density 19.557931
#
# number of rings (size 3 to 8) (size 9 to 14) (size 15 to 20)
#    0.000    2.211    0.000    4.263    6.632    2.526 
#    0.947    3.158    0.000    0.316    0.000    0.000 
#    0.000    0.000    0.000    0.000    0.000    0.000 
#
# Total GULP energy -423287.532283 kJ/mol
# GULP energy per Si atom -5569.572793 kJ/mol
# Density = 1.951342 g / cm^3
# Si number density = 19.557931 Si / 1000 Ang^3
#
#
#
# Elastic Constant Matrix: (Units=GPa)
#
#
# Indices 1 2 3 4 5 6 
#
# 1 57.1803 25.0654 28.4274 0.0000 0.0000 0.0000
# 2 25.0654 57.1815 28.4275 0.0000 0.0000 -0.0001
# 3 28.4274 28.4275 115.9711 0.0000 0.0000 0.0000
# 4 0.0000 0.0000 0.0000 24.8718 0.0000 0.0000
# 5 0.0000 0.0000 0.0000 0.0000 24.8715 0.0000
# 6 0.0000 -0.0001 0.0000 0.0000 0.0000 16.0577
#
#
#
# Elastic Compliance Matrix: (Units=1/GPa)
#
#
# Indices 1 2 3 4 5 6 
#
# 1 0.022889 -0.008249 -0.003588 0.000000 0.000000 0.000000
# 2 -0.008249 0.022888 -0.003588 0.000000 0.000000 0.000000
# 3 -0.003588 -0.003588 0.010382 0.000000 0.000000 0.000000
# 4 0.000000 0.000000 0.000000 0.040206 0.000000 0.000000
# 5 0.000000 0.000000 0.000000 0.000000 0.040207 0.000000
# 6 0.000000 0.000000 0.000000 0.000000 0.000000 0.062276
#
#
# Mechanical properties :
#
#
# Convention : Reuss Voigt Hill
#
# Bulk Modulus (GPa) = 39.51518 43.79705 41.65612
# Shear Modulus (GPa) = 20.99648 23.05436 22.02542
#
# Velocity S-wave (km/s) = 3.28007 3.43705 3.35948
# Velocity P-wave (km/s) = 5.88159 6.18007 6.03268
#
# Compressibility (1/GPa) = 0.02530673
#
# Stress axis : x y z
#
# Youngs Moduli (GPa) = 43.68970 43.69072 96.31989
#
# Poissons Ratio (x) = 0.36041 0.34564
# Poissons Ratio (y) = 0.36041 0.34563
# Poissons Ratio (z) = 0.15678 0.15678
#
# Static dielectric constant tensor:
#      x y z
#    x 1.740540 0.000000 0.000000 
#    y 0.000000 1.740540 0.000000 
#    z 0.000000 0.000000 1.717500 
# 
# From -- ./inp_files/2864.got.cif
#   From: 2010.05.17/outbox.cif.g08.bks.cpg/sg176_2_cif.got.tgz:2864.got - 2010.06.03 11:36:45.
