data_PCOD9581720
_publ_section_title
;
Structure prediction by ZEFSAII (Michael W. Deem and Ramdas Pophale) SiO2 
 PCOD9581720
Probable space group: P 6/M
;
_chemical_formula_sum "Si O2"
_cell_formula_units_Z 72
_cell_length_a 24.000000
_cell_length_b 24.000000
_cell_length_c 9.000000
_cell_angle_alpha 90.000000
_cell_angle_beta 90.000000
_cell_angle_gamma 120.000000
_cell_volume 4489.475693
_symmetry_space_group_name_H-M "P 6/M"
_symmetry_group_IT_number 175
_symmetry_cell_setting 'hexagonal'
loop_
_space_group_symop_operation_xyz
x,y,z
x-y,x,z
-y,x-y,z
-x,-y,z
-x+y,-x,z
y,-x+y,z
-x,-y,-z
-x+y,-x,-z
y,-x+y,-z
x,y,-z
x-y,x,-z
-y,x-y,-z
loop_
_atom_site_type_symbol
_atom_site_label
_atom_site_fract_x
_atom_site_fract_y
_atom_site_fract_z
Si Si1 0.714691 0.643648 0.824249
Si Si2 0.588698 0.073446 0.323604
Si Si3 0.932249 0.639913 0.323645
Si Si4 0.410010 0.478353 0.176859
Si Si5 0.073367 0.149554 0.820748
Si Si6 0.147542 0.289457 0.676204
O O1 0.678078 0.680876 0.770298
O O2 0.665452 0.567949 0.795543
O O3 0.780789 0.672624 0.738184
O O4 0.726268 0.652755 0.000000
O O5 0.578294 0.072528 0.500000
O O6 0.663871 0.100293 0.294189
O O7 0.550357 0.103064 0.240468
O O8 0.556861 0.000464 0.260923
O O9 0.949160 0.648606 0.500000
O O10 0.887201 0.669458 0.292886
O O11 0.420742 0.478772 0.000000
O O12 0.110054 0.111413 0.776755
O O13 0.108477 0.220068 0.751892
O O14 0.075893 0.154626 0.000000
O O15 0.148337 0.280838 0.500000
#
# Coordination Sequence:
#
# PCOD9581720 Si02
#       6
#    12  12  12  12  12  12
#     4  10  20  32  47  67  92 123 156 190 229 279
#     4   9  15  25  43  65  89 117 147 175 209 255
#     4   9  19  33  47  66  93 124 156 191 231 278
#     4   9  16  26  41  64  92 117 143 175 211 253
#     4  10  21  37  55  72  90 116 156 207 261 314
#     4  11  22  34  48  67  94 125 157 196 243 293
#
# _framework density 16.037507000000002
#
# number of rings (size 3 to 8) (size 9 to 14) (size 15 to 20)
#    0.000    2.333    0.000    4.167    0.000    8.000 
#    0.000    0.000    0.000    1.000    0.000    0.000 
#    1.667    0.000    1.000    0.000    1.333    0.000 
#
# Total GULP energy -401148.954055 kJ/mol
# GULP energy per Si atom -5571.513251 kJ/mol
# Density = 1.600101 g / cm^3
# Si number density = 16.037507 Si / 1000 Ang^3
#
#
#
# Elastic Constant Matrix: (Units=GPa)
#
#
# Indices 1 2 3 4 5 6 
#
# 1 91.5597 66.9661 37.9157 0.0000 0.0000 0.0000
# 2 66.9661 91.5597 37.9157 0.0000 0.0000 0.0000
# 3 37.9157 37.9157 35.1658 0.0000 0.0000 0.0000
# 4 0.0000 0.0000 0.0000 12.3818 0.0000 0.0000
# 5 0.0000 0.0000 0.0000 0.0000 12.3818 0.0000
# 6 0.0000 0.0000 0.0000 0.0000 0.0000 12.2968
#
#
#
# Elastic Compliance Matrix: (Units=1/GPa)
#
#
# Indices 1 2 3 4 5 6 
#
# 1 0.026844 -0.013817 -0.014046 0.000000 0.000000 0.000000
# 2 -0.013817 0.026844 -0.014046 0.000000 0.000000 0.000000
# 3 -0.014046 -0.014046 0.058724 0.000000 0.000000 0.000000
# 4 0.000000 0.000000 0.000000 0.080764 0.000000 0.000000
# 5 0.000000 0.000000 0.000000 0.000000 0.080764 0.000000
# 6 0.000000 0.000000 0.000000 0.000000 0.000000 0.081322
#
#
# Mechanical properties :
#
#
# Convention : Reuss Voigt Hill
#
# Bulk Modulus (GPa) = 34.96991 55.98672 45.47831
# Shear Modulus (GPa) = 11.14553 12.44459 11.79506
#
# Velocity S-wave (km/s) = 2.63908 2.78864 2.71489
# Velocity P-wave (km/s) = 5.58021 6.73456 6.18438
#
# Compressibility (1/GPa) = 0.02859601
#
# Stress axis : x y z
#
# Youngs Moduli (GPa) = 37.25241 37.25241 17.02868
#
# Poissons Ratio (x) = 0.51472 0.23918
# Poissons Ratio (y) = 0.51472 0.23918
# Poissons Ratio (z) = 0.52323 0.52323
#
# Static dielectric constant tensor:
#      x y z
#    x 1.547870 0.000000 0.000000 
#    y 0.000000 1.547870 0.000000 
#    z 0.000000 0.000000 1.534070 
# 
# From -- ./inp_files/1164.got.cif
#   From: 2010.05.17/outbox.ucp.g08.bks.cvg/sg175_1_cif.got.tgz:1164.got - 2010.06.11 15:18:44.
