data_PCOD9581352
_publ_section_title
;
Structure prediction by ZEFSAII (Michael W. Deem and Ramdas Pophale) SiO2 
 PCOD9581352
Probable space group: P 6/M
;
_chemical_formula_sum "Si O2"
_cell_formula_units_Z 66
_cell_length_a 10.567943
_cell_length_b 10.567943
_cell_length_c 30.821714
_cell_angle_alpha 90.000000
_cell_angle_beta 90.000000
_cell_angle_gamma 120.000000
_cell_volume 2981.043698
_symmetry_space_group_name_H-M "P 6/M"
_symmetry_group_IT_number 175
_symmetry_cell_setting 'hexagonal'
loop_
_space_group_symop_operation_xyz
x,y,z
x-y,x,z
-y,x-y,z
-x,-y,z
-x+y,-x,z
y,-x+y,z
-x,-y,-z
-x+y,-x,-z
y,-x+y,-z
x,y,-z
x-y,x,-z
-y,x-y,-z
loop_
_atom_site_type_symbol
_atom_site_label
_atom_site_fract_x
_atom_site_fract_y
_atom_site_fract_z
Si Si1 0.659816 0.493729 0.226740
Si Si2 0.256606 0.336100 0.407126
Si Si3 0.668359 0.929248 0.859830
Si Si4 0.918053 0.255721 0.500000
Si Si5 0.741847 0.664604 0.953591
Si Si6 0.928327 0.260293 0.313376
O O1 0.527858 0.328733 0.226703
O O2 0.666223 0.571364 0.182082
O O3 0.666470 0.571056 0.271483
O O4 0.280818 0.196922 0.407155
O O5 0.315214 0.415969 0.453495
O O6 0.315750 0.410257 0.360398
O O7 0.718935 0.808709 0.858136
O O8 0.590348 0.907320 0.906858
O O9 0.082414 0.281478 0.500000
O O10 0.718728 0.804435 0.953603
O O11 0.682316 0.585423 0.000000
O O12 0.089059 0.280928 0.311672
#
# Coordination Sequence:
#
# PCOD9581352 Si02
#       6
#    12  12  12   6  12  12
#     4  10  24  40  50  66  88 129 176 209 238 283
#     4   8  13  20  34  60  93 126 151 176 220 279
#     4  10  19  32  54  81 106 128 154 196 246 291
#     4   8  11  16  28  52  90 128 154 170 201 272
#     4   8  13  22  40  70 105 133 152 176 222 285
#     4  10  19  32  52  77 102 124 152 198 252 297
#
# _framework density 22.139896
#
# number of rings (size 3 to 8) (size 9 to 14) (size 15 to 20)
#    0.364    2.545    0.000    1.909    0.000    8.000 
#    0.000    1.818    0.000    1.091    0.000    6.364 
#    0.000    7.273    0.000    0.000    0.000    0.000 
#
# Total GULP energy -367770.899027 kJ/mol
# GULP energy per Si atom -5572.286349 kJ/mol
# Density = 2.208950 g / cm^3
# Si number density = 22.139896 Si / 1000 Ang^3
#
#
#
# Elastic Constant Matrix: (Units=GPa)
#
#
# Indices 1 2 3 4 5 6 
#
# 1 51.5208 2.7951 51.8763 0.0000 0.0000 0.0000
# 2 2.7951 51.5208 51.8763 0.0000 0.0000 0.0000
# 3 51.8763 51.8763 292.1552 0.0000 0.0000 0.0000
# 4 0.0000 0.0000 0.0000 -47.3709 0.0000 0.0000
# 5 0.0000 0.0000 0.0000 0.0000 -47.3709 0.0000
# 6 0.0000 0.0000 0.0000 0.0000 0.0000 24.3628
#
#
#
# Elastic Compliance Matrix: (Units=1/GPa)
#
#
# Indices 1 2 3 4 5 6 
#
# 1 0.024192 0.003669 -0.004947 0.000000 0.000000 0.000000
# 2 0.003669 0.024192 -0.004947 0.000000 0.000000 0.000000
# 3 -0.004947 -0.004947 0.005180 0.000000 0.000000 0.000000
# 4 0.000000 0.000000 0.000000 -0.021110 0.000000 0.000000
# 5 0.000000 0.000000 0.000000 0.000000 -0.021110 0.000000
# 6 0.000000 0.000000 0.000000 0.000000 0.000000 0.041046
#
#
# Mechanical properties :
#
#
# Convention : Reuss Voigt Hill
#
# Bulk Modulus (GPa) = 24.32353 67.58802 45.95578
# Shear Modulus (GPa) = 63.65853 5.16747 34.41300
#
# Velocity S-wave (km/s) = 5.36799 1.52940 3.94679
# Velocity P-wave (km/s) = 7.03068 5.80627 6.44761
#
# Compressibility (1/GPa) = 0.04111245
#
# Stress axis : x y z
#
# Youngs Moduli (GPa) = 41.33643 41.33643 193.06280
#
# Poissons Ratio (x) = -0.15165 0.95508
# Poissons Ratio (y) = -0.15165 0.95508
# Poissons Ratio (z) = 0.20449 0.20449
#
# Static dielectric constant tensor:
#      x y z
#    x 1.775570 0.000000 0.000000 
#    y 0.000000 1.775570 0.000000 
#    z 0.000000 0.000000 1.904190 
# 
# From -- ./inp_files/3361.got.cif
#   From: 2010.05.17/outbox.cif.g08.bks.cpg/sg175_2_cif.got.tgz:3361.got - 2010.05.20 11:23:22.
