data_PCOD9581950
_publ_section_title
;
Structure prediction by ZEFSAII (Michael W. Deem and Ramdas Pophale) SiO2 
 PCOD9581950
Probable space group: P 63/M
;
_chemical_formula_sum "Si O2"
_cell_formula_units_Z 66
_cell_length_a 11.719085
_cell_length_b 11.719085
_cell_length_c 28.163175
_cell_angle_alpha 90.000000
_cell_angle_beta 90.000000
_cell_angle_gamma 120.000000
_cell_volume 3349.651723
_symmetry_space_group_name_H-M "P 63/M"
_symmetry_group_IT_number 176
_symmetry_cell_setting 'hexagonal'
loop_
_space_group_symop_operation_xyz
x,y,z
x-y,x,1/2+z
-y,x-y,z
-x,-y,1/2+z
-x+y,-x,z
y,-x+y,1/2+z
-x,-y,-z
-x+y,-x,1/2-z
y,-x+y,-z
x,y,1/2-z
x-y,x,-z
-y,x-y,1/2-z
loop_
_atom_site_type_symbol
_atom_site_label
_atom_site_fract_x
_atom_site_fract_y
_atom_site_fract_z
Si Si1 0.088724 0.703307 0.197923
Si Si2 0.348088 0.522371 0.750000
Si Si3 0.302449 0.914847 0.894979
Si Si4 0.432348 0.066340 0.414919
Si Si5 0.629338 0.064630 0.820638
Si Si6 0.977966 0.258615 0.991916
O O1 0.032684 0.698490 0.250000
O O2 0.220775 0.843064 0.193650
O O3 0.124942 0.587002 0.194385
O O4 0.987100 0.667472 0.154812
O O5 0.459780 0.679284 0.750000
O O6 0.365834 0.445604 0.794852
O O7 0.413329 0.874678 0.905315
O O8 0.164080 0.782872 0.898942
O O9 0.319298 0.011506 0.938265
O O10 0.387258 0.033316 0.469235
O O11 0.371867 0.947539 0.377490
O O12 0.113427 0.259566 0.002376
#
# Coordination Sequence:
#
# PCOD9581950 Si02
#       6
#    12   6  12  12  12  12
#     4  11  21  37  56  87 116 161 203 246 302 350
#     4  10  24  36  60  94 124 158 208 254 312 356
#     4  10  22  37  59  85 121 155 199 252 309 378
#     4  10  22  36  57  87 117 155 195 252 312 367
#     4  11  22  38  60  88 123 161 204 260 296 367
#     4  10  20  38  59  83 110 151 199 250 306 371
#
# _framework density 19.703541000000001
#
# number of rings (size 3 to 8) (size 9 to 14) (size 15 to 20)
#    0.182    1.455    1.818    2.545    5.091    0.000 
#    0.000    0.000    0.000   12.364    0.000    0.000 
#    0.000    0.000    0.000    0.000    0.000    0.000 
#
# Total GULP energy -368103.281505 kJ/mol
# GULP energy per Si atom -5577.322447 kJ/mol
# Density = 1.965869 g / cm^3
# Si number density = 19.703541 Si / 1000 Ang^3
#
#
#
# Elastic Constant Matrix: (Units=GPa)
#
#
# Indices 1 2 3 4 5 6 
#
# 1 14.2541 64.8432 28.7795 0.0000 0.0000 0.0000
# 2 64.8432 14.2541 28.7795 0.0000 0.0000 0.0000
# 3 28.7795 28.7795 148.4843 0.0000 0.0000 0.0000
# 4 0.0000 0.0000 0.0000 -17.8019 0.0000 0.0000
# 5 0.0000 0.0000 0.0000 0.0000 -17.8019 0.0000
# 6 0.0000 0.0000 0.0000 0.0000 0.0000 -25.2945
#
#
#
# Elastic Compliance Matrix: (Units=1/GPa)
#
#
# Indices 1 2 3 4 5 6 
#
# 1 -0.002524 0.017243 -0.002853 0.000000 0.000000 0.000000
# 2 0.017243 -0.002524 -0.002853 0.000000 0.000000 0.000000
# 3 -0.002853 -0.002853 0.007841 0.000000 0.000000 0.000000
# 4 0.000000 0.000000 0.000000 -0.056174 0.000000 0.000000
# 5 0.000000 0.000000 0.000000 0.000000 -0.056174 0.000000
# 6 0.000000 0.000000 0.000000 0.000000 0.000000 -0.039534
#
#
# Mechanical properties :
#
#
# Convention : Reuss Voigt Hill
#
# Bulk Modulus (GPa) = 38.65978 46.86633 42.76306
# Shear Modulus (GPa) = -30.57322 -8.54032 -19.55677
#
# Velocity S-wave (km/s) = -3.94339 -2.08418 -3.15390
# Velocity P-wave (km/s) = 1.03460 4.24801 2.91335
#
# Compressibility (1/GPa) = 0.02586667
#
# Stress axis : x y z
#
# Youngs Moduli (GPa) = -396.15874 -396.15874 127.54150
#
# Poissons Ratio (x) = 6.83091 0.36385
# Poissons Ratio (y) = 6.83091 0.36385
# Poissons Ratio (z) = -1.13016 -1.13016
#
# Static dielectric constant tensor:
#      x y z
#    x 1.690120 0.000000 0.000000 
#    y 0.000000 1.690120 0.000000 
#    z 0.000000 0.000000 1.736030 
# 
# From -- ./inp_files/4480.got.cif
#   From: 2010.05.17/outbox.cif.g08.bks.cpg/sg176_3_cif.got.tgz:4480.got - 2010.06.03 11:36:45.
