data_PCOD9581985
_publ_section_title
;
Structure prediction by ZEFSAII (Michael W. Deem and Ramdas Pophale) SiO2 
 PCOD9581985
Probable space group: P 63/M
;
_chemical_formula_sum "Si O2"
_cell_formula_units_Z 52
_cell_length_a 13.200339
_cell_length_b 13.200339
_cell_length_c 13.245670
_cell_angle_alpha 90.000000
_cell_angle_beta 90.000000
_cell_angle_gamma 120.000000
_cell_volume 1998.824811
_symmetry_space_group_name_H-M "P 63/M"
_symmetry_group_IT_number 176
_symmetry_cell_setting 'hexagonal'
loop_
_space_group_symop_operation_xyz
x,y,z
x-y,x,1/2+z
-y,x-y,z
-x,-y,1/2+z
-x+y,-x,z
y,-x+y,1/2+z
-x,-y,-z
-x+y,-x,1/2-z
y,-x+y,-z
x,y,1/2-z
x-y,x,-z
-y,x-y,1/2-z
loop_
_atom_site_type_symbol
_atom_site_label
_atom_site_fract_x
_atom_site_fract_y
_atom_site_fract_z
Si Si1 0.231727 0.978887 0.859705
Si Si2 0.000000 0.000000 0.117228
Si Si3 0.467962 0.780220 0.917384
Si Si4 0.467827 0.223173 0.856754
Si Si5 0.377946 0.980712 0.452430
O O1 0.239230 0.927922 0.750000
O O2 0.336947 0.113043 0.858001
O O3 0.107395 0.976191 0.858897
O O4 0.274674 0.943055 0.963017
O O5 0.000000 0.000000 0.000000
O O6 0.471706 0.779396 0.039749
O O7 0.350790 0.782595 0.884367
O O8 0.500000 0.000000 0.000000
O O9 0.586811 0.897243 0.896174
O O10 0.520629 0.219401 0.750000
O O11 0.452491 0.334421 0.869543
#
# Coordination Sequence:
#
# PCOD9581985 Si02
#       5
#    12   4  12  12  12
#     4  10  23  40  62  94 130 172 226 281 337 408
#     4  12  22  41  67  96 139 194 230 281 352 417
#     4   9  18  35  55  83 111 157 200 256 323 391
#     4  10  21  36  57  89 121 156 207 266 328 394
#     4  11  20  37  60  87 128 166 212 275 345 406
#
# _framework density 26.015286
#
# number of rings (size 3 to 8) (size 9 to 14) (size 15 to 20)
#    0.462    1.385    2.308    2.077    0.000    3.692 
#    0.000    0.000    0.000    1.385    0.000    0.000 
#    0.000    0.000    0.000    0.000    0.000    0.000 
#
# Total GULP energy -289679.411878 kJ/mol
# GULP energy per Si atom -5570.757921 kJ/mol
# Density = 2.595607 g / cm^3
# Si number density = 26.015286 Si / 1000 Ang^3
#
#
#
# Elastic Constant Matrix: (Units=GPa)
#
#
# Indices 1 2 3 4 5 6 
#
# 1 114.0593 10.2199 14.6062 0.0000 0.0000 0.0000
# 2 10.2199 114.0593 14.6062 0.0000 0.0000 0.0000
# 3 14.6062 14.6062 113.5267 0.0000 0.0000 0.0000
# 4 0.0000 0.0000 0.0000 14.3751 0.0000 0.0000
# 5 0.0000 0.0000 0.0000 0.0000 14.3751 0.0000
# 6 0.0000 0.0000 0.0000 0.0000 0.0000 51.9197
#
#
#
# Elastic Compliance Matrix: (Units=1/GPa)
#
#
# Indices 1 2 3 4 5 6 
#
# 1 0.008964 -0.000666 -0.001068 0.000000 0.000000 0.000000
# 2 -0.000666 0.008964 -0.001068 0.000000 0.000000 0.000000
# 3 -0.001068 -0.001068 0.009083 0.000000 0.000000 0.000000
# 4 0.000000 0.000000 0.000000 0.069565 0.000000 0.000000
# 5 0.000000 0.000000 0.000000 0.000000 0.069565 0.000000
# 6 0.000000 0.000000 0.000000 0.000000 0.000000 0.019261
#
#
# Mechanical properties :
#
#
# Convention : Reuss Voigt Hill
#
# Bulk Modulus (GPa) = 46.71203 46.72330 46.71767
# Shear Modulus (GPa) = 25.23475 36.28153 30.75814
#
# Velocity S-wave (km/s) = 3.11786 3.73852 3.44220
# Velocity P-wave (km/s) = 5.56381 6.05263 5.81336
#
# Compressibility (1/GPa) = 0.02140776
#
# Stress axis : x y z
#
# Youngs Moduli (GPa) = 111.55995 111.55995 110.09344
#
# Poissons Ratio (x) = 0.07435 0.11753
# Poissons Ratio (y) = 0.07435 0.11753
# Poissons Ratio (z) = 0.11909 0.11909
#
# Static dielectric constant tensor:
#      x y z
#    x 2.132560 0.000000 0.000000 
#    y 0.000000 2.132560 0.000000 
#    z 0.000000 0.000000 2.043670 
# 
# From -- ./inp_files/2576.got.cif
#   From: 2010.05.17/outbox.cif.g08.bks.cpg/sg176_2_cif.got.tgz:2576.got - 2010.06.03 11:36:45.
