data_PCOD9581028
_publ_section_title
;
Structure prediction by ZEFSAII (Michael W. Deem and Ramdas Pophale) SiO2 
 PCOD9581028
Probable space group: P 63
;
_chemical_formula_sum "Si O2"
_cell_formula_units_Z 42
_cell_length_a 13.723121
_cell_length_b 13.723121
_cell_length_c 10.642737
_cell_angle_alpha 90.000000
_cell_angle_beta 90.000000
_cell_angle_gamma 120.000000
_cell_volume 1735.760284
_symmetry_space_group_name_H-M "P 63"
_symmetry_group_IT_number 173
_symmetry_cell_setting 'hexagonal'
loop_
_space_group_symop_operation_xyz
x,y,z
x-y,x,1/2+z
-y,x-y,z
-x,-y,1/2+z
-x+y,-x,z
y,-x+y,1/2+z
loop_
_atom_site_type_symbol
_atom_site_label
_atom_site_fract_x
_atom_site_fract_y
_atom_site_fract_z
Si Si1 0.549150 0.705519 0.692990
Si Si2 0.071768 0.325708 0.259021
Si Si3 0.197762 0.114430 0.197556
Si Si4 0.040962 0.851134 0.953510
Si Si5 0.596380 0.113400 0.462761
Si Si6 0.573880 0.823690 0.069936
Si Si7 0.610188 0.531677 0.120631
O O1 0.684040 0.768403 0.699506
O O2 0.491797 0.645025 0.824495
O O3 0.488529 0.596666 0.607276
O O4 0.526844 0.804795 0.650045
O O5 0.198575 0.381128 0.208686
O O6 0.911524 0.059819 0.339126
O O7 0.055431 0.268541 0.394283
O O8 0.985964 0.212121 0.179909
O O9 0.388858 0.990244 0.231679
O O10 0.129928 0.123352 0.081721
O O11 0.138663 0.822872 0.985149
O O12 0.485421 0.111870 0.512424
O O13 0.693975 0.207212 0.547725
O O14 0.588711 0.995035 0.496515
#
# Coordination Sequence:
#
# PCOD9581028 Si02
#       7
#     6   6   6   6   6   6   6
#     4  11  19  37  59  94 138 192 228 301 341 422
#     4   8  20  38  58  95 134 180 234 295 348 436
#     4   9  20  38  65  94 136 182 240 295 374 425
#     4  10  19  41  60  99 133 181 238 298 363 438
#     4  11  21  35  62  99 142 187 242 283 353 433
#     4  11  20  38  64 101 140 188 238 290 355 431
#     4  10  21  35  60  98 139 182 248 278 354 437
#
# _framework density 24.19689
#
# number of rings (size 3 to 8) (size 9 to 14) (size 15 to 20)
#    0.857    1.143    1.429    3.143    0.000    0.000 
#    2.571    2.857    0.000    0.571    0.000   12.000 
#    0.000    0.000    0.000    0.000    0.000    0.000 
#
# Total GULP energy -233961.904527 kJ/mol
# GULP energy per Si atom -5570.521536 kJ/mol
# Density = 2.414182 g / cm^3
# Si number density = 24.196890 Si / 1000 Ang^3
#
#
#
# Elastic Constant Matrix: (Units=GPa)
#
#
# Indices 1 2 3 4 5 6 
#
# 1 118.9934 51.5067 37.8819 0.0000 0.0000 0.0000
# 2 51.5067 118.9934 37.8819 0.0000 0.0000 0.0000
# 3 37.8819 37.8819 93.2738 0.0000 0.0000 0.0000
# 4 0.0000 0.0000 0.0000 25.2473 0.0000 0.0000
# 5 0.0000 0.0000 0.0000 0.0000 25.2473 0.0000
# 6 0.0000 0.0000 0.0000 0.0000 0.0000 33.7433
#
#
#
# Elastic Compliance Matrix: (Units=1/GPa)
#
#
# Indices 1 2 3 4 5 6 
#
# 1 0.010987 -0.003831 -0.002907 0.000000 0.000000 0.000000
# 2 -0.003831 0.010987 -0.002907 0.000000 0.000000 0.000000
# 3 -0.002907 -0.002907 0.013082 0.000000 0.000000 0.000000
# 4 0.000000 0.000000 0.000000 0.039608 0.000000 0.000000
# 5 0.000000 0.000000 0.000000 0.000000 0.039608 0.000000
# 6 0.000000 0.000000 0.000000 0.000000 0.000000 0.029635
#
#
# Mechanical properties :
#
#
# Convention : Reuss Voigt Hill
#
# Bulk Modulus (GPa) = 63.41530 65.08908 64.25219
# Shear Modulus (GPa) = 29.68200 30.44691 30.06445
#
# Velocity S-wave (km/s) = 3.50621 3.55110 3.52872
# Velocity P-wave (km/s) = 6.53118 6.61603 6.57374
#
# Compressibility (1/GPa) = 0.01576907
#
# Stress axis : x y z
#
# Youngs Moduli (GPa) = 91.01492 91.01492 76.44049
#
# Poissons Ratio (x) = 0.34864 0.22218
# Poissons Ratio (y) = 0.34864 0.22218
# Poissons Ratio (z) = 0.26454 0.26454
#
# Static dielectric constant tensor:
#      x y z
#    x 1.988300 0.000000 0.000000 
#    y 0.000000 1.988300 0.000000 
#    z 0.000000 0.000000 2.035560 
# 
# From -- ./inp_files/914.got.cif
#   From: 2010.05.17/outbox.cif.g08.bks.cpg/sg173_cif.got.tgz:914.got - 2010.05.20 11:21:53.
