data_PCOD9581897
_publ_section_title
;
Structure prediction by ZEFSAII (Michael W. Deem and Ramdas Pophale) SiO2 
 PCOD9581897
Probable space group: P 63/M
;
_chemical_formula_sum "Si O2"
_cell_formula_units_Z 40
_cell_length_a 16.874657
_cell_length_b 16.874657
_cell_length_c 7.311842
_cell_angle_alpha 90.000000
_cell_angle_beta 90.000000
_cell_angle_gamma 120.000000
_cell_volume 1803.131241
_symmetry_space_group_name_H-M "P 63/M"
_symmetry_group_IT_number 176
_symmetry_cell_setting 'hexagonal'
loop_
_space_group_symop_operation_xyz
x,y,z
x-y,x,1/2+z
-y,x-y,z
-x,-y,1/2+z
-x+y,-x,z
y,-x+y,1/2+z
-x,-y,-z
-x+y,-x,1/2-z
y,-x+y,-z
x,y,1/2-z
x-y,x,-z
-y,x-y,1/2-z
loop_
_atom_site_type_symbol
_atom_site_label
_atom_site_fract_x
_atom_site_fract_y
_atom_site_fract_z
Si Si1 0.431084 0.562850 0.972001
Si Si2 0.608488 0.744376 0.961780
Si Si3 0.333334 0.666668 0.530075
Si Si4 0.698896 0.635383 0.028865
O O1 0.436497 0.561037 0.750000
O O2 0.522751 0.651616 0.040657
O O3 0.352376 0.586675 0.023448
O O4 0.391992 0.458941 0.034019
O O5 0.583191 0.745832 0.750000
O O6 0.631301 0.843039 0.034125
O O7 0.690305 0.721856 0.969916
O O8 0.333334 0.666668 0.750000
O O9 0.698910 0.635771 0.250000
#
# Coordination Sequence:
#
# PCOD9581897 Si02
#       4
#    12  12   4  12
#     4   9  15  27  48  74 102 134 170 201 233 281
#     4  10  20  33  51  75 101 131 167 205 246 292
#     4   9  12  21  45  72 100 134 169 201 226 269
#     4  10  20  33  51  75 101 131 167 205 246 292
#
# _framework density 22.183633
#
# number of rings (size 3 to 8) (size 9 to 14) (size 15 to 20)
#    0.000    2.400    3.000    0.900    0.000    1.200 
#    0.000    0.000    0.000    0.600    0.000    0.000 
#    0.000    0.000    0.000    0.000    0.000    0.000 
#
# Total GULP energy -223224.433041 kJ/mol
# GULP energy per Si atom -5580.610826 kJ/mol
# Density = 2.213314 g / cm^3
# Si number density = 22.183633 Si / 1000 Ang^3
#
#
#
# Elastic Constant Matrix: (Units=GPa)
#
#
# Indices 1 2 3 4 5 6 
#
# 1 117.4628 56.7411 -5.8454 0.0000 0.0000 0.0001
# 2 56.7411 117.4635 -5.8455 0.0000 0.0000 0.0008
# 3 -5.8454 -5.8455 90.4458 0.0000 0.0000 0.0000
# 4 0.0000 0.0000 0.0000 6.1907 0.0000 0.0000
# 5 0.0000 0.0000 0.0000 0.0000 6.1907 0.0000
# 6 0.0001 0.0008 0.0000 0.0000 0.0000 30.3610
#
#
#
# Elastic Compliance Matrix: (Units=1/GPa)
#
#
# Indices 1 2 3 4 5 6 
#
# 1 0.011117 -0.005352 0.000373 0.000000 0.000000 0.000000
# 2 -0.005352 0.011117 0.000373 0.000000 0.000000 0.000000
# 3 0.000373 0.000373 0.011105 0.000000 0.000000 0.000000
# 4 0.000000 0.000000 0.000000 0.161534 0.000001 0.000000
# 5 0.000000 0.000000 0.000000 0.000001 0.161533 0.000000
# 6 0.000000 0.000000 0.000000 0.000000 0.000000 0.032937
#
#
# Mechanical properties :
#
#
# Convention : Reuss Voigt Hill
#
# Bulk Modulus (GPa) = 41.44949 46.16362 43.80655
# Shear Modulus (GPa) = 12.29719 27.23659 19.76689
#
# Velocity S-wave (km/s) = 2.35699 3.50777 2.98830
# Velocity P-wave (km/s) = 5.11199 6.10417 5.62998
#
# Compressibility (1/GPa) = 0.02412575
#
# Stress axis : x y z
#
# Youngs Moduli (GPa) = 89.95249 89.95309 90.05353
#
# Poissons Ratio (x) = 0.48139 -0.03355
# Poissons Ratio (y) = 0.48139 -0.03356
# Poissons Ratio (z) = -0.03352 -0.03352
#
# Static dielectric constant tensor:
#      x y z
#    x 1.836200 0.000000 0.000000 
#    y 0.000000 1.836190 0.000000 
#    z 0.000000 0.000000 1.901250 
# 
# From -- ./inp_files/474.got.cif
#   From: 2010.05.17/outbox.cif.g08.bks.cpg/sg176_1_cif.got.tgz:474.got - 2010.06.03 11:36:45.
