data_PCOD9581673
_publ_section_title
;
Structure prediction by ZEFSAII (Michael W. Deem and Ramdas Pophale) SiO2 
 PCOD9581673
Probable space group: P 6/M
;
_chemical_formula_sum "Si O2"
_cell_formula_units_Z 66
_cell_length_a 22.191958
_cell_length_b 22.191958
_cell_length_c 7.582473
_cell_angle_alpha 90.000000
_cell_angle_beta 90.000000
_cell_angle_gamma 120.000000
_cell_volume 3233.945881
_symmetry_space_group_name_H-M "P 6/M"
_symmetry_group_IT_number 175
_symmetry_cell_setting 'hexagonal'
loop_
_space_group_symop_operation_xyz
x,y,z
x-y,x,z
-y,x-y,z
-x,-y,z
-x+y,-x,z
y,-x+y,z
-x,-y,-z
-x+y,-x,-z
y,-x+y,-z
x,y,-z
x-y,x,-z
-y,x-y,-z
loop_
_atom_site_type_symbol
_atom_site_label
_atom_site_fract_x
_atom_site_fract_y
_atom_site_fract_z
Si Si1 0.843663 0.974313 0.000000
Si Si2 0.761155 0.765766 0.701357
Si Si3 0.679946 0.201599 0.716348
Si Si4 0.537203 0.188858 0.711746
Si Si5 0.862847 0.629143 0.290322
Si Si6 0.099719 0.715846 0.205964
O O1 0.862425 0.913087 0.000000
O O2 0.798050 0.970662 0.170943
O O3 0.781150 0.791224 0.500000
O O4 0.703165 0.781934 0.779151
O O5 0.719690 0.681747 0.698887
O O6 0.680516 0.201681 0.500000
O O7 0.605186 0.187737 0.775625
O O8 0.741561 0.278180 0.772758
O O9 0.701686 0.145209 0.774390
O O10 0.541631 0.193711 0.500000
O O11 0.463285 0.121571 0.755306
O O12 0.875813 0.633007 0.500000
O O13 0.787789 0.619982 0.258235
O O14 0.086278 0.715125 0.000000
#
# Coordination Sequence:
#
# PCOD9581673 Si02
#       6
#     6  12  12  12  12  12
#     4  12  27  46  70 100 131 160 192 230 282 346
#     4  11  23  41  66  93 123 159 199 242 289 348
#     4   8  14  27  49  78 107 146 199 254 305 356
#     4   9  16  29  51  77 110 151 201 256 309 358
#     4   9  19  35  57  83 111 147 198 250 297 348
#     4  11  21  34  54  81 115 152 196 246 297 353
#
# _framework density 20.408505000000002
#
# number of rings (size 3 to 8) (size 9 to 14) (size 15 to 20)
#    0.000    2.182    0.909    4.273    1.273    3.636 
#    0.000    4.545    0.000    6.545    0.000    0.000 
#    0.000    0.000    0.000    0.000    0.000    0.000 
#
# Total GULP energy -368191.205379 kJ/mol
# GULP energy per Si atom -5578.654627 kJ/mol
# Density = 2.036205 g / cm^3
# Si number density = 20.408505 Si / 1000 Ang^3
#
#
#
# Elastic Constant Matrix: (Units=GPa)
#
#
# Indices 1 2 3 4 5 6 
#
# 1 67.8468 -0.2334 3.3680 0.0000 0.0000 0.0000
# 2 -0.2334 67.8468 3.3680 0.0000 0.0000 0.0000
# 3 3.3680 3.3680 85.8818 0.0000 0.0000 0.0000
# 4 0.0000 0.0000 0.0000 31.7562 0.0000 0.0000
# 5 0.0000 0.0000 0.0000 0.0000 31.7562 0.0000
# 6 0.0000 0.0000 0.0000 0.0000 0.0000 34.0401
#
#
#
# Elastic Compliance Matrix: (Units=1/GPa)
#
#
# Indices 1 2 3 4 5 6 
#
# 1 0.014768 0.000080 -0.000582 0.000000 0.000000 0.000000
# 2 0.000080 0.014768 -0.000582 0.000000 0.000000 0.000000
# 3 -0.000582 -0.000582 0.011690 0.000000 0.000000 0.000000
# 4 0.000000 0.000000 0.000000 0.031490 0.000000 0.000000
# 5 0.000000 0.000000 0.000000 0.000000 0.031490 0.000000
# 6 0.000000 0.000000 0.000000 0.000000 0.000000 0.029377
#
#
# Mechanical properties :
#
#
# Convention : Reuss Voigt Hill
#
# Bulk Modulus (GPa) = 25.60403 26.06453 25.83428
# Shear Modulus (GPa) = 33.60855 33.84867 33.72861
#
# Velocity S-wave (km/s) = 4.06247 4.07696 4.06972
# Velocity P-wave (km/s) = 5.88030 5.91280 5.89657
#
# Compressibility (1/GPa) = 0.03905635
#
# Stress axis : x y z
#
# Youngs Moduli (GPa) = 67.71276 67.71276 85.54622
#
# Poissons Ratio (x) = -0.00540 0.04981
# Poissons Ratio (y) = -0.00540 0.04981
# Poissons Ratio (z) = 0.03943 0.03943
#
# Static dielectric constant tensor:
#      x y z
#    x 1.741960 0.000000 0.000000 
#    y 0.000000 1.741960 0.000000 
#    z 0.000000 0.000000 1.749520 
# 
# From -- ./inp_files/973.got.cif
#   From: 2010.05.17/outbox.cif.g08.bks.cpg/sg175_1_cif.got.tgz:973.got - 2010.05.20 11:23:22.
