data_PCOD9581738
_publ_section_title
;
Structure prediction by ZEFSAII (Michael W. Deem and Ramdas Pophale) SiO2 
 PCOD9581738
Probable space group: P 63/M
;
_chemical_formula_sum "Si O2"
_cell_formula_units_Z 84
_cell_length_a 25.801870
_cell_length_b 25.801870
_cell_length_c 7.405924
_cell_angle_alpha 90.000000
_cell_angle_beta 90.000000
_cell_angle_gamma 120.000000
_cell_volume 4269.846359
_symmetry_space_group_name_H-M "P 63/M"
_symmetry_group_IT_number 176
_symmetry_cell_setting 'hexagonal'
loop_
_space_group_symop_operation_xyz
x,y,z
x-y,x,1/2+z
-y,x-y,z
-x,-y,1/2+z
-x+y,-x,z
y,-x+y,1/2+z
-x,-y,-z
-x+y,-x,1/2-z
y,-x+y,-z
x,y,1/2-z
x-y,x,-z
-y,x-y,1/2-z
loop_
_atom_site_type_symbol
_atom_site_label
_atom_site_fract_x
_atom_site_fract_y
_atom_site_fract_z
Si Si1 0.400163 0.194527 0.028689
Si Si2 0.017380 0.791395 0.031909
Si Si3 0.071257 0.529445 0.967200
Si Si4 0.146972 0.882748 0.959776
Si Si5 0.885833 0.561362 0.030985
Si Si6 0.338944 0.009822 0.532188
Si Si7 0.460380 0.119757 0.045084
O O1 0.398002 0.190301 0.250000
O O2 0.330947 0.167360 0.966892
O O3 0.437539 0.264209 0.975928
O O4 0.433398 0.159115 0.964352
O O5 0.017684 0.794006 0.250000
O O6 0.028437 0.737414 0.976439
O O7 0.950399 0.771042 0.966910
O O8 0.075437 0.851633 0.970628
O O9 0.076899 0.532647 0.750000
O O10 0.097961 0.488155 0.032551
O O11 0.109064 0.597494 0.037694
O O12 0.000000 0.500000 0.000000
O O13 0.165502 0.890113 0.750000
O O14 0.884277 0.558364 0.250000
O O15 0.941860 0.625635 0.981882
O O16 0.344608 0.014027 0.750000
O O17 0.403080 0.053392 0.451950
O O18 0.479037 0.141882 0.250000
#
# Coordination Sequence:
#
# PCOD9581738 Si02
#       7
#    12  12  12  12  12  12  12
#     4   9  16  28  46  66  91 125 157 187 229 282
#     4  10  20  32  48  73  99 123 161 195 225 285
#     4  10  19  29  45  69  93 121 157 194 234 278
#     4  10  19  32  50  70  94 127 159 188 237 286
#     4   9  16  28  45  64  91 128 159 182 225 285
#     4  10  17  27  46  69  93 124 157 186 223 280
#     4  10  19  29  44  69  96 121 156 195 232 275
#
# _framework density 19.672840000000001
#
# number of rings (size 3 to 8) (size 9 to 14) (size 15 to 20)
#    0.000    2.286    4.286    0.000    0.000    0.571 
#    0.000    0.000    0.000    3.429    0.000    4.000 
#    0.000    0.000    0.000    0.000    0.000    0.000 
#
# Total GULP energy -468488.064761 kJ/mol
# GULP energy per Si atom -5577.238866 kJ/mol
# Density = 1.962806 g / cm^3
# Si number density = 19.672840 Si / 1000 Ang^3
#
#
#
# Elastic Constant Matrix: (Units=GPa)
#
#
# Indices 1 2 3 4 5 6 
#
# 1 111.1258 44.4315 -4.2482 0.0000 0.0000 0.0000
# 2 44.4315 111.1258 -4.2482 0.0000 0.0000 0.0000
# 3 -4.2482 -4.2482 62.6521 0.0000 0.0000 0.0000
# 4 0.0000 0.0000 0.0000 -8.6400 0.0000 0.0000
# 5 0.0000 0.0000 0.0000 0.0000 -8.6400 0.0000
# 6 0.0000 0.0000 0.0000 0.0000 0.0000 33.3471
#
#
#
# Elastic Compliance Matrix: (Units=1/GPa)
#
#
# Indices 1 2 3 4 5 6 
#
# 1 0.010723 -0.004271 0.000438 0.000000 0.000000 0.000000
# 2 -0.004271 0.010723 0.000438 0.000000 0.000000 0.000000
# 3 0.000438 0.000438 0.016020 0.000000 0.000000 0.000000
# 4 0.000000 0.000000 0.000000 -0.115741 0.000000 0.000000
# 5 0.000000 0.000000 0.000000 0.000000 -0.115741 0.000000
# 6 0.000000 0.000000 0.000000 0.000000 0.000000 0.029988
#
#
# Mechanical properties :
#
#
# Convention : Reuss Voigt Hill
#
# Bulk Modulus (GPa) = 32.59948 39.64153 36.12050
# Shear Modulus (GPa) = -34.01083 19.81135 -7.09974
#
# Velocity S-wave (km/s) = -4.16242 3.17683 -1.90177
# Velocity P-wave (km/s) = 2.54838 5.80090 3.68485
#
# Compressibility (1/GPa) = 0.03067534
#
# Stress axis : x y z
#
# Youngs Moduli (GPa) = 93.25665 93.25665 62.42011
#
# Poissons Ratio (x) = 0.39827 -0.02731
# Poissons Ratio (y) = 0.39827 -0.02731
# Poissons Ratio (z) = -0.04080 -0.04080
#
# Static dielectric constant tensor:
#      x y z
#    x 1.684170 0.000000 0.000000 
#    y 0.000000 1.684170 0.000000 
#    z 0.000000 0.000000 1.782540 
# 
# From -- ./inp_files/2149.got.cif
#   From: 2010.05.17/outbox.cif.g08.bks.cpg/sg176_2_cif.got.tgz:2149.got - 2010.06.03 11:36:45.
