data_PCOD9581559
_publ_section_title
;
Structure prediction by ZEFSAII (Michael W. Deem and Ramdas Pophale) SiO2 
 PCOD9581559
Probable space group: P 6/M
;
_chemical_formula_sum "Si O2"
_cell_formula_units_Z 46
_cell_length_a 17.189500
_cell_length_b 17.189500
_cell_length_c 9.508392
_cell_angle_alpha 90.000000
_cell_angle_beta 90.000000
_cell_angle_gamma 120.000000
_cell_volume 2433.123752
_symmetry_space_group_name_H-M "P 6/M"
_symmetry_group_IT_number 175
_symmetry_cell_setting 'hexagonal'
loop_
_space_group_symop_operation_xyz
x,y,z
x-y,x,z
-y,x-y,z
-x,-y,z
-x+y,-x,z
y,-x+y,z
-x,-y,-z
-x+y,-x,-z
y,-x+y,-z
x,y,-z
x-y,x,-z
-y,x-y,-z
loop_
_atom_site_type_symbol
_atom_site_label
_atom_site_fract_x
_atom_site_fract_y
_atom_site_fract_z
Si Si1 0.196906 0.358573 0.333624
Si Si2 0.331365 0.310583 0.834107
Si Si3 0.666668 0.333334 0.838997
Si Si4 0.500000 0.000000 0.246126
Si Si5 0.552118 0.186707 0.649090
O O1 0.179654 0.329414 0.500000
O O2 0.252940 0.320467 0.247220
O O3 0.107909 0.342098 0.250260
O O4 0.267799 0.465086 0.338362
O O5 0.424966 0.407813 0.829754
O O6 0.309883 0.287949 0.000000
O O7 0.617337 0.234889 0.776638
O O8 0.666667 0.333334 0.000000
O O9 0.522648 0.084265 0.340887
O O10 0.597190 0.221564 0.500000
#
# Coordination Sequence:
#
# PCOD9581559 Si02
#       5
#    12  12   4   6  12
#     4  10  22  39  60  85 114 150 193 238 285 339
#     4  11  22  38  60  88 119 154 193 239 292 347
#     4  12  25  35  49  75 109 143 181 228 280 329
#     4  10  22  36  58  84 114 148 190 238 286 336
#     4  10  21  37  56  77 105 146 191 233 278 334
#
# _framework density 18.905736999999998
#
# number of rings (size 3 to 8) (size 9 to 14) (size 15 to 20)
#    0.000    1.565    0.000    4.696    0.000   13.565 
#    0.000    0.000    0.000    0.522    0.000    3.652 
#    0.000    0.000    0.000    0.000    0.000    0.000 
#
# Total GULP energy -256346.095712 kJ/mol
# GULP energy per Si atom -5572.741211 kJ/mol
# Density = 1.886271 g / cm^3
# Si number density = 18.905737 Si / 1000 Ang^3
#
#
#
# Elastic Constant Matrix: (Units=GPa)
#
#
# Indices 1 2 3 4 5 6 
#
# 1 112.6499 57.2310 69.2460 0.0000 0.0000 0.0005
# 2 57.2310 112.6489 69.2459 0.0000 0.0000 -0.0001
# 3 69.2460 69.2459 209.3201 0.0000 0.0000 0.0006
# 4 0.0000 0.0000 0.0000 11.5445 0.0000 0.0000
# 5 0.0000 0.0000 0.0000 0.0000 11.5444 0.0000
# 6 0.0005 -0.0001 0.0006 0.0000 0.0000 27.7091
#
#
#
# Elastic Compliance Matrix: (Units=1/GPa)
#
#
# Indices 1 2 3 4 5 6 
#
# 1 0.013052 -0.004992 -0.002666 0.000000 0.000000 0.000000
# 2 -0.004992 0.013052 -0.002666 0.000000 0.000000 0.000000
# 3 -0.002666 -0.002666 0.006542 0.000000 0.000000 0.000000
# 4 0.000000 0.000000 0.000000 0.086622 0.000000 0.000000
# 5 0.000000 0.000000 0.000000 0.000000 0.086622 0.000000
# 6 0.000000 0.000000 0.000000 0.000000 0.000000 0.036089
#
#
# Mechanical properties :
#
#
# Convention : Reuss Voigt Hill
#
# Bulk Modulus (GPa) = 83.35896 91.78497 87.57197
# Shear Modulus (GPa) = 18.75272 26.08600 22.41936
#
# Velocity S-wave (km/s) = 3.15287 3.71859 3.44735
# Velocity P-wave (km/s) = 7.57903 8.19093 7.89091
#
# Compressibility (1/GPa) = 0.01199631
#
# Stress axis : x y z
#
# Youngs Moduli (GPa) = 76.61465 76.61381 152.86864
#
# Poissons Ratio (x) = 0.38247 0.40761
# Poissons Ratio (y) = 0.38247 0.40762
# Poissons Ratio (z) = 0.20429 0.20429
#
# Static dielectric constant tensor:
#      x y z
#    x 1.672720 0.000000 0.000000 
#    y 0.000000 1.672720 0.000000 
#    z 0.000000 0.000000 1.657860 
# 
# From -- ./inp_files/589.got.cif
#   From: 2010.05.17/outbox.cif.g08.bks.cpg/sg175_1_cif.got.tgz:589.got - 2010.05.20 11:23:22.
