data_PCOD9581661
_publ_section_title
;
Structure prediction by ZEFSAII (Michael W. Deem and Ramdas Pophale) SiO2 
 PCOD9581661
Probable space group: P 6/M
;
_chemical_formula_sum "Si O2"
_cell_formula_units_Z 60
_cell_length_a 14.447109
_cell_length_b 14.447109
_cell_length_c 13.792652
_cell_angle_alpha 90.000000
_cell_angle_beta 90.000000
_cell_angle_gamma 120.000000
_cell_volume 2493.103505
_symmetry_space_group_name_H-M "P 6/M"
_symmetry_group_IT_number 175
_symmetry_cell_setting 'hexagonal'
loop_
_space_group_symop_operation_xyz
x,y,z
x-y,x,z
-y,x-y,z
-x,-y,z
-x+y,-x,z
y,-x+y,z
-x,-y,-z
-x+y,-x,-z
y,-x+y,-z
x,y,-z
x-y,x,-z
-y,x-y,-z
loop_
_atom_site_type_symbol
_atom_site_label
_atom_site_fract_x
_atom_site_fract_y
_atom_site_fract_z
Si Si1 0.550376 0.923835 0.890867
Si Si2 0.509137 0.396303 0.612554
Si Si3 0.995719 0.208437 0.131860
Si Si4 0.039930 0.813043 0.637773
Si Si5 0.817902 0.275719 0.313656
O O1 0.678774 0.993554 0.893074
O O2 0.531021 0.846933 0.797938
O O3 0.500000 0.000000 0.874360
O O4 0.515968 0.875164 0.000000
O O5 0.500000 0.500000 0.641848
O O6 0.478635 0.371585 0.500000
O O7 0.449727 0.289043 0.676359
O O8 0.634776 0.441482 0.628942
O O9 0.982146 0.192193 0.247238
O O10 0.102992 0.213433 0.098759
O O11 0.087455 0.733724 0.631864
O O12 0.926235 0.791188 0.601362
#
# Coordination Sequence:
#
# PCOD9581661 Si02
#       5
#    12  12  12  12  12
#     4  10  23  42  65  95 135 185 236 285 341 413
#     4  11  24  42  67 100 133 168 221 290 360 427
#     4   9  18  34  59  92 130 173 222 277 336 400
#     4   9  17  31  56  90 127 165 206 254 315 391
#     4  11  22  41  66  92 128 175 226 278 342 412
#
# _framework density 24.066389000000001
#
# number of rings (size 3 to 8) (size 9 to 14) (size 15 to 20)
#    0.000    2.000    0.000    3.200    0.000    8.800 
#    0.000    3.000    0.000    2.600    0.000    0.000 
#    0.000    9.600    0.000    0.200    0.000    0.200 
#
# Total GULP energy -335043.777089 kJ/mol
# GULP energy per Si atom -5584.062951 kJ/mol
# Density = 2.401161 g / cm^3
# Si number density = 24.066389 Si / 1000 Ang^3
#
#
#
# Elastic Constant Matrix: (Units=GPa)
#
#
# Indices 1 2 3 4 5 6 
#
# 1 146.3580 75.9657 31.0776 0.0000 0.0000 0.0000
# 2 75.9657 146.3580 31.0776 0.0000 0.0000 0.0000
# 3 31.0776 31.0776 192.5581 0.0000 0.0000 0.0000
# 4 0.0000 0.0000 0.0000 -231.4841 0.0000 0.0000
# 5 0.0000 0.0000 0.0000 0.0000 -231.4841 0.0000
# 6 0.0000 0.0000 0.0000 0.0000 0.0000 35.1961
#
#
#
# Elastic Compliance Matrix: (Units=1/GPa)
#
#
# Indices 1 2 3 4 5 6 
#
# 1 0.009458 -0.004748 -0.000760 0.000000 0.000000 0.000000
# 2 -0.004748 0.009458 -0.000760 0.000000 0.000000 0.000000
# 3 -0.000760 -0.000760 0.005439 0.000000 0.000000 0.000000
# 4 0.000000 0.000000 0.000000 -0.004320 0.000000 0.000000
# 5 0.000000 0.000000 0.000000 0.000000 -0.004320 0.000000
# 6 0.000000 0.000000 0.000000 0.000000 0.000000 0.028412
#
#
# Mechanical properties :
#
#
# Convention : Reuss Voigt Hill
#
# Bulk Modulus (GPa) = 84.61208 84.61287 84.61247
# Shear Modulus (GPa) = 82.50328 -62.41086 10.04621
#
# Velocity S-wave (km/s) = 5.86140 -5.09795 2.04534
# Velocity P-wave (km/s) = 9.00234 0.76310 6.38844
#
# Compressibility (1/GPa) = 0.01181864
#
# Stress axis : x y z
#
# Youngs Moduli (GPa) = 105.72730 105.72730 183.86976
#
# Poissons Ratio (x) = 0.50197 0.13979
# Poissons Ratio (y) = 0.50197 0.13979
# Poissons Ratio (z) = 0.08038 0.08038
#
# Static dielectric constant tensor:
#      x y z
#    x 1.951280 0.000000 0.000000 
#    y 0.000000 1.951280 0.000000 
#    z 0.000000 0.000000 1.959590 
# 
# From -- ./inp_files/2359.got.cif
#   From: 2010.05.17/outbox.cif.g08.bks.cpg/sg175_2_cif.got.tgz:2359.got - 2010.05.20 11:23:22.
