data_PCOD9581822
_publ_section_title
;
Structure prediction by ZEFSAII (Michael W. Deem and Ramdas Pophale) SiO2 
 PCOD9581822
Probable space group: P 63/M
;
_chemical_formula_sum "Si O2"
_cell_formula_units_Z 72
_cell_length_a 23.670137
_cell_length_b 23.670137
_cell_length_c 8.466895
_cell_angle_alpha 90.000000
_cell_angle_beta 90.000000
_cell_angle_gamma 120.000000
_cell_volume 4108.245128
_symmetry_space_group_name_H-M "P 63/M"
_symmetry_group_IT_number 176
_symmetry_cell_setting 'hexagonal'
loop_
_space_group_symop_operation_xyz
x,y,z
x-y,x,1/2+z
-y,x-y,z
-x,-y,1/2+z
-x+y,-x,z
y,-x+y,1/2+z
-x,-y,-z
-x+y,-x,1/2-z
y,-x+y,-z
x,y,1/2-z
x-y,x,-z
-y,x-y,1/2-z
loop_
_atom_site_type_symbol
_atom_site_label
_atom_site_fract_x
_atom_site_fract_y
_atom_site_fract_z
Si Si1 0.382706 0.129327 0.440991
Si Si2 0.469875 0.070187 0.059121
Si Si3 0.254320 0.996971 0.442348
Si Si4 0.131902 0.119224 0.937832
Si Si5 0.076960 0.476574 0.938903
Si Si6 0.609494 0.739597 0.061258
O O1 0.381962 0.131120 0.250000
O O2 0.440396 0.115390 0.490323
O O3 0.390201 0.196103 0.503319
O O4 0.314963 0.066005 0.493683
O O5 0.467256 0.066664 0.250000
O O6 0.543628 0.092200 0.009709
O O7 0.424388 0.996727 0.997253
O O8 0.256018 0.997310 0.250000
O O9 0.185403 0.989116 0.489845
O O10 0.259966 0.935021 0.496065
O O11 0.136093 0.111249 0.750000
O O12 0.069230 0.125865 0.975541
O O13 0.077884 0.475320 0.750000
O O14 0.123716 0.451573 0.004076
O O15 0.610802 0.739825 0.250000
#
# Coordination Sequence:
#
# PCOD9581822 Si02
#       6
#    12  12  12  12  12  12
#     4  10  19  35  55  78 109 145 179 219 267 319
#     4   9  18  34  56  79 110 142 173 219 270 315
#     4   9  19  35  54  74 104 139 172 213 270 319
#     4  11  22  37  54  72  93 126 170 219 266 319
#     4  10  19  32  54  83 108 140 181 218 261 319
#     4  11  21  35  53  79 113 147 178 221 270 316
#
# _framework density 17.525732000000001
#
# number of rings (size 3 to 8) (size 9 to 14) (size 15 to 20)
#    0.000    2.000    1.667    2.667    0.000    1.333 
#    0.000    3.333    0.000    0.667    0.000    2.333 
#    0.000    0.000    0.000    0.000    0.000    0.000 
#
# Total GULP energy -401934.528997 kJ/mol
# GULP energy per Si atom -5582.424014 kJ/mol
# Density = 1.748584 g / cm^3
# Si number density = 17.525732 Si / 1000 Ang^3
#
#
#
# Elastic Constant Matrix: (Units=GPa)
#
#
# Indices 1 2 3 4 5 6 
#
# 1 108.5178 54.0804 10.3051 0.0000 0.0000 0.0000
# 2 54.0804 108.5178 10.3051 0.0000 0.0000 0.0000
# 3 10.3051 10.3051 9.5390 0.0000 0.0000 0.0000
# 4 0.0000 0.0000 0.0000 19.4573 0.0000 0.0000
# 5 0.0000 0.0000 0.0000 0.0000 19.4573 0.0000
# 6 0.0000 0.0000 0.0000 0.0000 0.0000 27.2187
#
#
#
# Elastic Compliance Matrix: (Units=1/GPa)
#
#
# Indices 1 2 3 4 5 6 
#
# 1 0.012748 -0.005622 -0.007698 0.000000 0.000000 0.000000
# 2 -0.005622 0.012748 -0.007698 0.000000 0.000000 0.000000
# 3 -0.007698 -0.007698 0.121466 0.000000 0.000000 0.000000
# 4 0.000000 0.000000 0.000000 0.051394 0.000000 0.000000
# 5 0.000000 0.000000 0.000000 0.000000 0.051394 0.000000
# 6 0.000000 0.000000 0.000000 0.000000 0.000000 0.036739
#
#
# Mechanical properties :
#
#
# Convention : Reuss Voigt Hill
#
# Bulk Modulus (GPa) = 9.53067 41.77287 25.65177
# Shear Modulus (GPa) = 13.75512 23.35227 18.55370
#
# Velocity S-wave (km/s) = 2.80456 3.65424 3.25723
# Velocity P-wave (km/s) = 3.99216 6.45690 5.36791
#
# Compressibility (1/GPa) = 0.10492445
#
# Stress axis : x y z
#
# Youngs Moduli (GPa) = 78.44476 78.44476 8.23279
#
# Poissons Ratio (x) = 0.44101 0.06338
# Poissons Ratio (y) = 0.44101 0.06338
# Poissons Ratio (z) = 0.60389 0.60389
#
# Static dielectric constant tensor:
#      x y z
#    x 1.586510 0.000000 0.000000 
#    y 0.000000 1.586510 0.000000 
#    z 0.000000 0.000000 1.598530 
# 
# From -- ./inp_files/1204.got.cif
#   From: 2010.05.17/outbox.cif.g08.bks.cpg/sg176_1_cif.got.tgz:1204.got - 2010.06.03 11:36:45.
