data_PCOD9581418
_publ_section_title
;
Structure prediction by ZEFSAII (Michael W. Deem and Ramdas Pophale) SiO2 
 PCOD9581418
Probable space group: P 6/M
;
_chemical_formula_sum "Si O2"
_cell_formula_units_Z 60
_cell_length_a 14.046040
_cell_length_b 14.046040
_cell_length_c 15.949624
_cell_angle_alpha 90.000000
_cell_angle_beta 90.000000
_cell_angle_gamma 120.000000
_cell_volume 2725.140404
_symmetry_space_group_name_H-M "P 6/M"
_symmetry_group_IT_number 175
_symmetry_cell_setting 'hexagonal'
loop_
_space_group_symop_operation_xyz
x,y,z
x-y,x,z
-y,x-y,z
-x,-y,z
-x+y,-x,z
y,-x+y,z
-x,-y,-z
-x+y,-x,-z
y,-x+y,-z
x,y,-z
x-y,x,-z
-y,x-y,-z
loop_
_atom_site_type_symbol
_atom_site_label
_atom_site_fract_x
_atom_site_fract_y
_atom_site_fract_z
Si Si1 0.350766 0.085575 0.329287
Si Si2 0.989717 0.772522 0.167965
Si Si3 0.442035 0.313759 0.405338
Si Si4 0.441740 0.866573 0.746990
Si Si5 0.906542 0.533830 0.092009
O O1 0.249059 0.010588 0.267560
O O2 0.362845 0.184451 0.385644
O O3 0.452924 0.146697 0.264443
O O4 0.366035 0.001607 0.388123
O O5 0.883638 0.782630 0.146560
O O6 0.965472 0.659896 0.123396
O O7 0.482473 0.331266 0.500000
O O8 0.538402 0.368392 0.336446
O O9 0.373730 0.830235 0.832761
O O10 0.500000 0.000000 0.748719
O O11 0.000000 0.500000 0.083278
O O12 0.855581 0.522970 0.000000
#
# Coordination Sequence:
#
# PCOD9581418 Si02
#       5
#    12  12  12  12  12
#     4  11  20  37  61  86 124 169 217 276 332 396
#     4  12  23  41  67  97 139 185 232 282 344 411
#     4  11  22  36  58  88 126 171 220 270 334 411
#     4   9  18  37  59  85 118 158 212 269 334 397
#     4  10  19  38  68  96 125 168 223 277 338 405
#
# _framework density 22.017213999999999
#
# number of rings (size 3 to 8) (size 9 to 14) (size 15 to 20)
#    0.000    1.400    8.000    0.800    0.000    5.200 
#    1.200    0.000    0.000    2.000    0.000    2.800 
#    0.000    0.000    0.000    0.000    0.000    0.000 
#
# Total GULP energy -334415.932208 kJ/mol
# GULP energy per Si atom -5573.598870 kJ/mol
# Density = 2.196710 g / cm^3
# Si number density = 22.017214 Si / 1000 Ang^3
#
#
#
# Elastic Constant Matrix: (Units=GPa)
#
#
# Indices 1 2 3 4 5 6 
#
# 1 55.4677 21.5103 17.2450 0.0000 0.0000 0.0000
# 2 21.5103 55.4677 17.2450 0.0000 0.0000 0.0000
# 3 17.2450 17.2450 171.6955 0.0000 0.0000 0.0000
# 4 0.0000 0.0000 0.0000 6.1850 0.0000 0.0000
# 5 0.0000 0.0000 0.0000 0.0000 6.1850 0.0000
# 6 0.0000 0.0000 0.0000 0.0000 0.0000 16.9787
#
#
#
# Elastic Compliance Matrix: (Units=1/GPa)
#
#
# Indices 1 2 3 4 5 6 
#
# 1 0.021526 -0.007923 -0.001366 0.000000 0.000000 0.000000
# 2 -0.007923 0.021526 -0.001366 0.000000 0.000000 0.000000
# 3 -0.001366 -0.001366 0.006099 0.000000 0.000000 0.000000
# 4 0.000000 0.000000 0.000000 0.161682 0.000000 0.000000
# 5 0.000000 0.000000 0.000000 0.000000 0.161682 0.000000
# 6 0.000000 0.000000 0.000000 0.000000 0.000000 0.058897
#
#
# Mechanical properties :
#
#
# Convention : Reuss Voigt Hill
#
# Bulk Modulus (GPa) = 35.92029 43.84796 39.88413
# Shear Modulus (GPa) = 10.82248 20.97844 15.90046
#
# Velocity S-wave (km/s) = 2.21949 3.09013 2.69026
# Velocity P-wave (km/s) = 4.78730 5.71755 5.27298
#
# Compressibility (1/GPa) = 0.02783942
#
# Stress axis : x y z
#
# Youngs Moduli (GPa) = 46.45592 46.45592 163.96888
#
# Poissons Ratio (x) = 0.36807 0.22403
# Poissons Ratio (y) = 0.36807 0.22403
# Poissons Ratio (z) = 0.06347 0.06347
#
# Static dielectric constant tensor:
#      x y z
#    x 1.846550 0.000000 0.000000 
#    y 0.000000 1.846550 0.000000 
#    z 0.000000 0.000000 1.883280 
# 
# From -- ./inp_files/2373.got.cif
#   From: 2010.05.17/outbox.cif.g08.bks.cpg/sg175_2_cif.got.tgz:2373.got - 2010.05.20 11:23:22.
