data_PCOD9581644
_publ_section_title
;
Structure prediction by ZEFSAII (Michael W. Deem and Ramdas Pophale) SiO2 
 PCOD9581644
Probable space group: P 6/M
;
_chemical_formula_sum "Si O2"
_cell_formula_units_Z 60
_cell_length_a 17.694054
_cell_length_b 17.694054
_cell_length_c 11.089178
_cell_angle_alpha 90.000000
_cell_angle_beta 90.000000
_cell_angle_gamma 120.000000
_cell_volume 3006.662515
_symmetry_space_group_name_H-M "P 6/M"
_symmetry_group_IT_number 175
_symmetry_cell_setting 'hexagonal'
loop_
_space_group_symop_operation_xyz
x,y,z
x-y,x,z
-y,x-y,z
-x,-y,z
-x+y,-x,z
y,-x+y,z
-x,-y,-z
-x+y,-x,-z
y,-x+y,-z
x,y,-z
x-y,x,-z
-y,x-y,-z
loop_
_atom_site_type_symbol
_atom_site_label
_atom_site_fract_x
_atom_site_fract_y
_atom_site_fract_z
Si Si1 0.801987 0.615692 0.643176
Si Si2 0.507468 0.116860 0.641391
Si Si3 0.869287 0.801828 0.734768
Si Si4 0.653254 0.674724 0.000000
Si Si5 0.064543 0.433479 0.745106
Si Si6 0.267837 0.115268 0.000000
O O1 0.810469 0.615636 0.500000
O O2 0.709880 0.531601 0.675938
O O3 0.807718 0.705475 0.682932
O O4 0.880783 0.611227 0.704659
O O5 0.532602 0.129242 0.500000
O O6 0.584381 0.121719 0.722840
O O7 0.425639 0.019590 0.661671
O O8 0.836880 0.867910 0.697723
O O9 0.867159 0.789047 0.879332
O O10 0.597294 0.631134 0.880711
O O11 0.684702 0.779217 0.000000
O O12 0.742314 0.670049 0.000000
#
# Coordination Sequence:
#
# PCOD9581644 Si02
#       6
#    12  12  12   6  12   6
#     4  11  22  39  64  90 120 166 213 262 320 384
#     4  10  22  40  64  93 126 159 206 262 315 383
#     4  12  23  38  59  90 130 174 218 266 315 374
#     4  12  24  37  66  92 127 165 214 265 311 379
#     4  11  22  40  62  91 123 161 203 261 318 372
#     4  12  20  38  57  89 122 162 215 261 305 369
#
# _framework density 19.955680999999998
#
# number of rings (size 3 to 8) (size 9 to 14) (size 15 to 20)
#    0.000    0.800    4.000    5.000    0.000    4.000 
#    1.200    3.000    0.000    1.200    0.000    0.000 
#    0.000    0.000    0.000    0.000    0.000    0.000 
#
# Total GULP energy -335359.404386 kJ/mol
# GULP energy per Si atom -5589.323406 kJ/mol
# Density = 1.991026 g / cm^3
# Si number density = 19.955681 Si / 1000 Ang^3
#
#
#
# Elastic Constant Matrix: (Units=GPa)
#
#
# Indices 1 2 3 4 5 6 
#
# 1 65.6889 0.2819 6.3861 0.0000 0.0000 0.0000
# 2 0.2819 65.6889 6.3861 0.0000 0.0000 0.0000
# 3 6.3861 6.3861 28.1021 0.0000 0.0000 0.0000
# 4 0.0000 0.0000 0.0000 13.6674 0.0000 0.0000
# 5 0.0000 0.0000 0.0000 0.0000 13.6674 0.0000
# 6 0.0000 0.0000 0.0000 0.0000 0.0000 32.7035
#
#
#
# Elastic Compliance Matrix: (Units=1/GPa)
#
#
# Indices 1 2 3 4 5 6 
#
# 1 0.015572 0.000283 -0.003603 0.000000 0.000000 0.000000
# 2 0.000283 0.015572 -0.003603 0.000000 0.000000 0.000000
# 3 -0.003603 -0.003603 0.037222 0.000000 0.000000 0.000000
# 4 0.000000 0.000000 0.000000 0.073167 0.000000 0.000000
# 5 0.000000 0.000000 0.000000 0.000000 0.073167 0.000000
# 6 0.000000 0.000000 0.000000 0.000000 0.000000 0.030578
#
#
# Mechanical properties :
#
#
# Convention : Reuss Voigt Hill
#
# Bulk Modulus (GPa) = 18.34153 20.62091 19.48122
# Shear Modulus (GPa) = 18.03113 21.76935 19.90024
#
# Velocity S-wave (km/s) = 3.00919 3.30644 3.16131
# Velocity P-wave (km/s) = 4.61353 4.99325 4.80714
#
# Compressibility (1/GPa) = 0.05452108
#
# Stress axis : x y z
#
# Youngs Moduli (GPa) = 64.21642 64.21642 26.86570
#
# Poissons Ratio (x) = -0.01820 0.09680
# Poissons Ratio (y) = -0.01820 0.09680
# Poissons Ratio (z) = 0.23138 0.23138
#
# Static dielectric constant tensor:
#      x y z
#    x 1.719590 0.000000 0.000000 
#    y 0.000000 1.719590 0.000000 
#    z 0.000000 0.000000 1.686060 
# 
# From -- ./inp_files/1846.got.cif
#   From: 2010.05.17/outbox.cif.g08.bks.cpg/sg175_1_cif.got.tgz:1846.got - 2010.05.20 11:23:22.
