data_PCOD9581120
_publ_section_title
;
Structure prediction by ZEFSAII (Michael W. Deem and Ramdas Pophale) SiO2 
 PCOD9581120
Probable space group: P 63
;
_chemical_formula_sum "Si O2"
_cell_formula_units_Z 48
_cell_length_a 14.171566
_cell_length_b 14.171566
_cell_length_c 11.375142
_cell_angle_alpha 90.000000
_cell_angle_beta 90.000000
_cell_angle_gamma 120.000000
_cell_volume 1978.441193
_symmetry_space_group_name_H-M "P 63"
_symmetry_group_IT_number 173
_symmetry_cell_setting 'hexagonal'
loop_
_space_group_symop_operation_xyz
x,y,z
x-y,x,1/2+z
-y,x-y,z
-x,-y,1/2+z
-x+y,-x,z
y,-x+y,1/2+z
loop_
_atom_site_type_symbol
_atom_site_label
_atom_site_fract_x
_atom_site_fract_y
_atom_site_fract_z
Si Si1 0.591279 0.453083 0.406110
Si Si2 0.838901 0.176431 0.404776
Si Si3 0.440692 0.563477 0.407463
Si Si4 0.750239 0.680077 0.905783
Si Si5 0.337530 0.161100 0.660932
Si Si6 0.546917 0.138195 0.659598
Si Si7 0.070163 0.750239 0.659925
Si Si8 0.877215 0.440692 0.158245
O O1 0.717909 0.543711 0.405139
O O2 0.531521 0.526025 0.404540
O O3 0.565871 0.396003 0.532854
O O4 0.558524 0.386393 0.284365
O O5 0.892325 0.180436 0.532854
O O6 0.897808 0.183804 0.281140
O O7 0.730152 0.059802 0.402994
O O8 0.326897 0.449874 0.408010
O O9 0.441477 0.613607 0.281343
O O10 0.452991 0.621076 0.532854
O O11 0.816196 0.714004 0.784568
O O12 0.809377 0.712688 0.032854
O O13 0.456289 0.174198 0.660570
O O14 0.329650 0.269848 0.662714
O O15 0.473974 0.005496 0.661168
O O16 0.122977 0.673103 0.657698
#
# Coordination Sequence:
#
# PCOD9581120 Si02
#       8
#     6   6   6   6   6   6   6   6
#     4   8  13  22  37  56  77 100 125 154 190 233
#     4   9  17  28  42  61  84 109 139 176 214 251
#     4   8  13  22  37  56  77 100 125 154 190 233
#     4   9  17  28  42  61  84 109 139 176 214 251
#     4   9  17  28  42  61  84 109 139 176 214 251
#     4   8  13  22  37  56  77 100 125 154 190 233
#     4   9  17  28  42  61  84 109 139 176 214 251
#     4   8  13  22  37  56  77 100 125 154 190 233
#
# _framework density 24.261524999999999
#
# number of rings (size 3 to 8) (size 9 to 14) (size 15 to 20)
#    0.000    3.500    0.000    0.000    0.000    1.000 
#    0.000    0.000    0.000    1.500    0.000    7.000 
#    0.000    0.000    0.000   34.000    0.000   30.000 
#
# Total GULP energy -267579.786256 kJ/mol
# GULP energy per Si atom -5574.578880 kJ/mol
# Density = 2.420630 g / cm^3
# Si number density = 24.261525 Si / 1000 Ang^3
#
#
#
# Elastic Constant Matrix: (Units=GPa)
#
#
# Indices 1 2 3 4 5 6 
#
# 1 39.4613 0.9386 36.2520 0.0000 0.0000 0.0000
# 2 0.9386 39.4613 36.2520 0.0000 0.0000 0.0000
# 3 36.2520 36.2520 350.6329 0.0000 0.0000 0.0000
# 4 0.0000 0.0000 0.0000 19.7885 0.0000 0.0000
# 5 0.0000 0.0000 0.0000 0.0000 19.7885 0.0000
# 6 0.0000 0.0000 0.0000 0.0000 0.0000 19.2613
#
#
#
# Elastic Compliance Matrix: (Units=1/GPa)
#
#
# Indices 1 2 3 4 5 6 
#
# 1 0.028175 0.002217 -0.003142 0.000000 0.000000 0.000000
# 2 0.002217 0.028175 -0.003142 0.000000 0.000000 0.000000
# 3 -0.003142 -0.003142 0.003502 0.000000 0.000000 0.000000
# 4 0.000000 0.000000 0.000000 0.050534 0.000000 0.000000
# 5 0.000000 0.000000 0.000000 0.000000 0.050534 0.000000
# 6 0.000000 0.000000 0.000000 0.000000 0.000000 0.051917
#
#
# Mechanical properties :
#
#
# Convention : Reuss Voigt Hill
#
# Bulk Modulus (GPa) = 19.33623 64.04894 41.69259
# Shear Modulus (GPa) = 20.98963 35.50855 28.24909
#
# Velocity S-wave (km/s) = 2.94452 3.82982 3.41597
# Velocity P-wave (km/s) = 4.42125 6.78332 5.72542
#
# Compressibility (1/GPa) = 0.05171638
#
# Stress axis : x y z
#
# Youngs Moduli (GPa) = 35.49217 35.49217 285.57312
#
# Poissons Ratio (x) = -0.07867 0.89733
# Poissons Ratio (y) = -0.07867 0.89733
# Poissons Ratio (z) = 0.11152 0.11152
#
# Static dielectric constant tensor:
#      x y z
#    x 1.876660 0.000000 0.000000 
#    y 0.000000 1.876660 0.000000 
#    z 0.000000 0.000000 2.088870 
# 
# From -- ./inp_files/943.got.cif
#   From: 2010.05.17/outbox.cif.g08.bks.cpg/sg173_cif.got.tgz:943.got - 2010.05.20 11:21:53.
