data_PCOD9581901
_publ_section_title
;
Structure prediction by ZEFSAII (Michael W. Deem and Ramdas Pophale) SiO2 
 PCOD9581901
Probable space group: P 63/M
;
_chemical_formula_sum "Si O2"
_cell_formula_units_Z 72
_cell_length_a 23.116359
_cell_length_b 23.116359
_cell_length_c 8.911846
_cell_angle_alpha 90.000000
_cell_angle_beta 90.000000
_cell_angle_gamma 120.000000
_cell_volume 4124.175765
_symmetry_space_group_name_H-M "P 63/M"
_symmetry_group_IT_number 176
_symmetry_cell_setting 'hexagonal'
loop_
_space_group_symop_operation_xyz
x,y,z
x-y,x,1/2+z
-y,x-y,z
-x,-y,1/2+z
-x+y,-x,z
y,-x+y,1/2+z
-x,-y,-z
-x+y,-x,1/2-z
y,-x+y,-z
x,y,1/2-z
x-y,x,-z
-y,x-y,1/2-z
loop_
_atom_site_type_symbol
_atom_site_label
_atom_site_fract_x
_atom_site_fract_y
_atom_site_fract_z
Si Si1 0.527275 0.600570 0.077645
Si Si2 0.331851 0.289813 0.929677
Si Si3 0.596024 0.507235 0.421873
Si Si4 0.140947 0.294221 0.571711
Si Si5 0.144049 0.050011 0.071355
Si Si6 0.720656 0.618128 0.927792
O O1 0.508068 0.601266 0.250000
O O2 0.588478 0.673113 0.036857
O O3 0.561460 0.553756 0.071554
O O4 0.461273 0.564737 0.978160
O O5 0.324554 0.295157 0.750000
O O6 0.295726 0.214341 0.984052
O O7 0.303811 0.330925 0.017406
O O8 0.614297 0.505625 0.250000
O O9 0.662093 0.545223 0.521874
O O10 0.133622 0.298938 0.750000
O O11 0.137448 0.223539 0.542986
O O12 0.209641 0.355367 0.512196
O O13 0.132780 0.038366 0.250000
O O14 0.120596 0.101531 0.016365
O O15 0.729818 0.621455 0.750000
#
# Coordination Sequence:
#
# PCOD9581901 Si02
#       6
#    12  12  12  12  12  12
#     4   8  15  27  44  68  97 127 157 189 229 278
#     4  10  20  34  51  72 100 132 166 206 251 303
#     4   9  16  27  45  69  97 127 159 194 230 274
#     4  11  23  37  53  74 100 132 170 212 262 320
#     4  11  24  40  58  76  96 124 164 218 275 331
#     4  11  21  33  50  71  99 134 168 205 251 302
#
# _framework density 17.458034999999999
#
# number of rings (size 3 to 8) (size 9 to 14) (size 15 to 20)
#    0.000    2.000    0.000    5.667    0.000   10.000 
#    0.000    0.000    0.000    0.000    0.000    0.000 
#    1.667    0.000    3.000    0.000    3.000    0.000 
#
# Total GULP energy -401753.070601 kJ/mol
# GULP energy per Si atom -5579.903758 kJ/mol
# Density = 1.741830 g / cm^3
# Si number density = 17.458035 Si / 1000 Ang^3
#
#
#
# Elastic Constant Matrix: (Units=GPa)
#
#
# Indices 1 2 3 4 5 6 
#
# 1 30.1613 -9.9522 4.5582 0.0000 0.0000 0.0000
# 2 -9.9522 30.1613 4.5582 0.0000 0.0000 0.0000
# 3 4.5582 4.5582 49.8598 0.0000 0.0000 0.0000
# 4 0.0000 0.0000 0.0000 24.6569 0.0000 0.0000
# 5 0.0000 0.0000 0.0000 0.0000 24.6569 0.0000
# 6 0.0000 0.0000 0.0000 0.0000 0.0000 20.0568
#
#
#
# Elastic Compliance Matrix: (Units=1/GPa)
#
#
# Indices 1 2 3 4 5 6 
#
# 1 0.038270 0.013341 -0.004718 0.000000 0.000000 0.000000
# 2 0.013341 0.038270 -0.004718 0.000000 0.000000 0.000000
# 3 -0.004718 -0.004718 0.020919 0.000000 0.000000 0.000000
# 4 0.000000 0.000000 0.000000 0.040557 0.000000 0.000000
# 5 0.000000 0.000000 0.000000 0.000000 0.040557 0.000000
# 6 0.000000 0.000000 0.000000 0.000000 0.000000 0.049859
#
#
# Mechanical properties :
#
#
# Convention : Reuss Voigt Hill
#
# Bulk Modulus (GPa) = 9.49959 12.05676 10.77818
# Shear Modulus (GPa) = 19.55328 21.27532 20.41430
#
# Velocity S-wave (km/s) = 3.35029 3.49471 3.42326
# Velocity P-wave (km/s) = 4.51876 4.81717 4.67035
#
# Compressibility (1/GPa) = 0.10526772
#
# Stress axis : x y z
#
# Youngs Moduli (GPa) = 26.13005 26.13005 47.80359
#
# Poissons Ratio (x) = -0.34860 0.22555
# Poissons Ratio (y) = -0.34860 0.22555
# Poissons Ratio (z) = 0.12329 0.12329
#
# Static dielectric constant tensor:
#      x y z
#    x 1.603600 0.000000 0.000000 
#    y 0.000000 1.603600 0.000000 
#    z 0.000000 0.000000 1.577330 
# 
# From -- ./inp_files/1210.got.cif
#   From: 2010.05.17/outbox.cif.g08.bks.cpg/sg176_1_cif.got.tgz:1210.got - 2010.06.03 11:36:45.
