data_PCOD9581437
_publ_section_title
;
Structure prediction by ZEFSAII (Michael W. Deem and Ramdas Pophale) SiO2 
 PCOD9581437
Probable space group: P 6/M
;
_chemical_formula_sum "Si O2"
_cell_formula_units_Z 90
_cell_length_a 25.922395
_cell_length_b 25.922395
_cell_length_c 10.240565
_cell_angle_alpha 90.000000
_cell_angle_beta 90.000000
_cell_angle_gamma 120.000000
_cell_volume 5959.431034
_symmetry_space_group_name_H-M "P 6/M"
_symmetry_group_IT_number 175
_symmetry_cell_setting 'hexagonal'
loop_
_space_group_symop_operation_xyz
x,y,z
x-y,x,z
-y,x-y,z
-x,-y,z
-x+y,-x,z
y,-x+y,z
-x,-y,-z
-x+y,-x,-z
y,-x+y,-z
x,y,-z
x-y,x,-z
-y,x-y,-z
loop_
_atom_site_type_symbol
_atom_site_label
_atom_site_fract_x
_atom_site_fract_y
_atom_site_fract_z
Si Si1 0.678999 0.160194 0.354119
Si Si2 0.516579 0.231415 0.261263
Si Si3 0.987070 0.325395 0.156700
Si Si4 0.410767 0.712607 0.000000
Si Si5 0.615081 0.854060 0.157224
Si Si6 0.467968 0.039264 0.847376
Si Si7 0.883199 0.626993 0.156663
Si Si8 0.548184 0.139551 0.648233
O O1 0.683861 0.139512 0.500000
O O2 0.720401 0.231352 0.346878
O O3 0.703460 0.135742 0.240415
O O4 0.611522 0.143964 0.332147
O O5 0.549531 0.262630 0.127524
O O6 0.449537 0.180126 0.224575
O O7 0.550896 0.202011 0.329505
O O8 0.048361 0.328104 0.195890
O O9 0.922768 0.272460 0.202715
O O10 0.991303 0.389082 0.185439
O O11 0.985047 0.320044 0.000000
O O12 0.359284 0.730824 0.000000
O O13 0.644093 0.812146 0.181379
O O14 0.606327 0.853759 0.000000
O O15 0.502728 0.094882 0.753596
O O16 0.500000 0.000000 0.832492
O O17 0.473723 0.057150 0.000000
O O18 0.881606 0.615347 0.000000
O O19 0.528340 0.119064 0.500000
#
# Coordination Sequence:
#
# PCOD9581437 Si02
#       8
#    12  12  12   6  12  12  12  12
#     4  10  22  36  49  64  91 123 152 191 242 291
#     4  11  19  35  50  66  90 117 151 194 240 294
#     4   9  16  29  47  73  98 117 148 191 233 279
#     4  10  22  32  46  76  93 107 149 210 252 284
#     4   9  16  28  49  74  93 118 146 186 234 270
#     4  10  20  33  51  71  92 120 152 193 243 284
#     4   9  18  32  53  73  92 119 155 191 229 278
#     4  11  23  35  49  67  90 123 154 192 242 292
#
# _framework density 15.102112
#
# number of rings (size 3 to 8) (size 9 to 14) (size 15 to 20)
#    0.133    2.000    2.000    2.000    1.867    1.867 
#    0.800    0.667    0.000    0.000    0.000    0.000 
#    0.000    0.000    0.000    0.400    0.000   12.800 
#
# Total GULP energy -501377.646888 kJ/mol
# GULP energy per Si atom -5570.862743 kJ/mol
# Density = 1.506774 g / cm^3
# Si number density = 15.102112 Si / 1000 Ang^3
#
#
#
# Elastic Constant Matrix: (Units=GPa)
#
#
# Indices 1 2 3 4 5 6 
#
# 1 71.4889 33.1704 16.5830 0.0000 0.0000 0.0000
# 2 33.1704 71.4889 16.5830 0.0000 0.0000 0.0000
# 3 16.5830 16.5830 33.2339 0.0000 0.0000 0.0000
# 4 0.0000 0.0000 0.0000 -15.3159 0.0000 0.0000
# 5 0.0000 0.0000 0.0000 0.0000 -15.3159 0.0000
# 6 0.0000 0.0000 0.0000 0.0000 0.0000 19.1593
#
#
#
# Elastic Compliance Matrix: (Units=1/GPa)
#
#
# Indices 1 2 3 4 5 6 
#
# 1 0.018723 -0.007374 -0.005663 0.000000 0.000000 0.000000
# 2 -0.007374 0.018723 -0.005663 0.000000 0.000000 0.000000
# 3 -0.005663 -0.005663 0.035741 0.000000 0.000000 0.000000
# 4 0.000000 0.000000 0.000000 -0.065292 0.000000 0.000000
# 5 0.000000 0.000000 0.000000 0.000000 -0.065292 0.000000
# 6 0.000000 0.000000 0.000000 0.000000 0.000000 0.052194
#
#
# Mechanical properties :
#
#
# Convention : Reuss Voigt Hill
#
# Bulk Modulus (GPa) = 27.94257 34.32050 31.13153
# Shear Modulus (GPa) = 113.30684 5.03052 59.16868
#
# Velocity S-wave (km/s) = 8.67122 1.82708 6.26611
# Velocity P-wave (km/s) = 10.89936 5.21785 8.54464
#
# Compressibility (1/GPa) = 0.03578769
#
# Stress axis : x y z
#
# Youngs Moduli (GPa) = 53.40961 53.40961 27.97879
#
# Poissons Ratio (x) = 0.39383 0.15845
# Poissons Ratio (y) = 0.39383 0.15845
# Poissons Ratio (z) = 0.30247 0.30247
#
# Static dielectric constant tensor:
#      x y z
#    x 1.515260 0.000000 0.000000 
#    y 0.000000 1.515260 0.000000 
#    z 0.000000 0.000000 1.501110 
# 
# From -- ./inp_files/1474.got.cif
#   From: 2010.05.17/outbox.cif.g08.bks.cpg/sg175_1_cif.got.tgz:1474.got - 2010.05.20 11:23:22.
