data_PCOD9581233
_publ_section_title
;
Structure prediction by ZEFSAII (Michael W. Deem and Ramdas Pophale) SiO2 
 PCOD9581233
Probable space group: P 6/M
;
_chemical_formula_sum "Si O2"
_cell_formula_units_Z 72
_cell_length_a 23.214686
_cell_length_b 23.214686
_cell_length_c 8.876087
_cell_angle_alpha 90.000000
_cell_angle_beta 90.000000
_cell_angle_gamma 120.000000
_cell_volume 4142.645870
_symmetry_space_group_name_H-M "P 6/M"
_symmetry_group_IT_number 175
_symmetry_cell_setting 'hexagonal'
loop_
_space_group_symop_operation_xyz
x,y,z
x-y,x,z
-y,x-y,z
-x,-y,z
-x+y,-x,z
y,-x+y,z
-x,-y,-z
-x+y,-x,-z
y,-x+y,-z
x,y,-z
x-y,x,-z
-y,x-y,-z
loop_
_atom_site_type_symbol
_atom_site_label
_atom_site_fract_x
_atom_site_fract_y
_atom_site_fract_z
Si Si1 0.412205 0.918212 0.180780
Si Si2 0.049267 0.710187 0.822204
Si Si3 0.943828 0.845617 0.819663
Si Si4 0.272587 0.890445 0.822869
Si Si5 0.464891 0.065030 0.679891
Si Si6 0.152082 0.290044 0.322685
O O1 0.333326 0.877217 0.210555
O O2 0.461459 0.895019 0.248361
O O3 0.436276 0.989955 0.256929
O O4 0.420998 0.926909 0.000000
O O5 0.082572 0.672527 0.737677
O O6 0.079430 0.784045 0.760161
O O7 0.969715 0.667335 0.800035
O O8 0.061433 0.711085 0.000000
O O9 0.897250 0.877043 0.782767
O O10 0.913194 0.775535 0.736397
O O11 0.940085 0.834010 0.000000
O O12 0.207185 0.852944 0.724083
O O13 0.255395 0.876689 0.000000
O O14 0.468322 0.065654 0.500000
O O15 0.158535 0.286605 0.500000
#
# Coordination Sequence:
#
# PCOD9581233 Si02
#       6
#    12  12  12  12  12  12
#     4   9  16  28  46  68  95 128 162 188 220 272
#     4  10  20  35  52  68  93 130 169 204 241 295
#     4  10  21  38  58  75  92 121 167 220 272 329
#     4   9  19  34  51  69  92 128 168 203 240 290
#     4  10  17  26  44  71 100 125 152 189 233 274
#     4  12  24  34  48  72 101 130 162 206 263 320
#
# _framework density 17.380198
#
# number of rings (size 3 to 8) (size 9 to 14) (size 15 to 20)
#    0.000    2.000    0.000    7.167    0.000    9.333 
#    0.000    0.000    0.000    1.000    0.000    0.000 
#    1.667    0.000    3.000    0.000    3.000    0.000 
#
# Total GULP energy -401666.747115 kJ/mol
# GULP energy per Si atom -5578.704821 kJ/mol
# Density = 1.734064 g / cm^3
# Si number density = 17.380198 Si / 1000 Ang^3
#
#
#
# Elastic Constant Matrix: (Units=GPa)
#
#
# Indices 1 2 3 4 5 6 
#
# 1 35.9644 -6.0329 17.5058 0.0000 0.0000 0.0000
# 2 -6.0329 35.9644 17.5058 0.0000 0.0000 0.0000
# 3 17.5058 17.5058 70.6722 0.0000 0.0000 0.0000
# 4 0.0000 0.0000 0.0000 25.7202 0.0000 0.0000
# 5 0.0000 0.0000 0.0000 0.0000 25.7202 0.0000
# 6 0.0000 0.0000 0.0000 0.0000 0.0000 20.9987
#
#
#
# Elastic Compliance Matrix: (Units=1/GPa)
#
#
# Indices 1 2 3 4 5 6 
#
# 1 0.035425 0.011614 -0.011652 0.000000 0.000000 0.000000
# 2 0.011614 0.035425 -0.011652 0.000000 0.000000 0.000000
# 3 -0.011652 -0.011652 0.019922 0.000000 0.000000 0.000000
# 4 0.000000 0.000000 0.000000 0.038880 0.000000 0.000000
# 5 0.000000 0.000000 0.000000 0.000000 0.038880 0.000000
# 6 0.000000 0.000000 0.000000 0.000000 0.000000 0.047622
#
#
# Mechanical properties :
#
#
# Convention : Reuss Voigt Hill
#
# Bulk Modulus (GPa) = 14.83834 22.28428 18.56131
# Shear Modulus (GPa) = 19.08416 22.06264 20.57340
#
# Velocity S-wave (km/s) = 3.31726 3.56675 3.44427
# Velocity P-wave (km/s) = 4.81958 5.46001 5.14976
#
# Compressibility (1/GPa) = 0.06739298
#
# Stress axis : x y z
#
# Youngs Moduli (GPa) = 28.22871 28.22871 50.19531
#
# Poissons Ratio (x) = -0.32784 0.58486
# Poissons Ratio (y) = -0.32784 0.58486
# Poissons Ratio (z) = 0.32891 0.32891
#
# Static dielectric constant tensor:
#      x y z
#    x 1.616470 0.000000 0.000000 
#    y 0.000000 1.616470 0.000000 
#    z 0.000000 0.000000 1.572280 
# 
# From -- ./inp_files/1227.got.cif
#   From: 2010.05.17/outbox.cif.g08.bks.cpg/sg175_1_cif.got.tgz:1227.got - 2010.05.20 11:23:22.
