data_PCOD9581373
_publ_section_title
;
Structure prediction by ZEFSAII (Michael W. Deem and Ramdas Pophale) SiO2 
 PCOD9581373
Probable space group: P 6/M
;
_chemical_formula_sum "Si O2"
_cell_formula_units_Z 90
_cell_length_a 26.138322
_cell_length_b 26.138322
_cell_length_c 9.273299
_cell_angle_alpha 90.000000
_cell_angle_beta 90.000000
_cell_angle_gamma 120.000000
_cell_volume 5486.814810
_symmetry_space_group_name_H-M "P 6/M"
_symmetry_group_IT_number 175
_symmetry_cell_setting 'hexagonal'
loop_
_space_group_symop_operation_xyz
x,y,z
x-y,x,z
-y,x-y,z
-x,-y,z
-x+y,-x,z
y,-x+y,z
-x,-y,-z
-x+y,-x,-z
y,-x+y,-z
x,y,-z
x-y,x,-z
-y,x-y,-z
loop_
_atom_site_type_symbol
_atom_site_label
_atom_site_fract_x
_atom_site_fract_y
_atom_site_fract_z
Si Si1 0.142925 0.763605 0.324815
Si Si2 0.879735 0.639073 0.831940
Si Si3 0.930150 0.478722 0.162949
Si Si4 0.247239 0.065648 0.662067
Si Si5 0.589414 0.634666 0.326638
Si Si6 0.012799 0.126394 0.000000
Si Si7 0.440283 0.082403 0.173547
Si Si8 0.941927 0.776088 0.767092
O O1 0.145969 0.759945 0.500000
O O2 0.200495 0.819598 0.257476
O O3 0.089176 0.775685 0.281422
O O4 0.128671 0.703438 0.246525
O O5 0.918248 0.616613 0.747456
O O6 0.915794 0.710629 0.829482
O O7 0.869164 0.620193 0.000000
O O8 0.923999 0.520718 0.277750
O O9 0.901067 0.409377 0.194572
O O10 0.000000 0.500000 0.159392
O O11 0.914306 0.487947 0.000000
O O12 0.257331 0.087955 0.500000
O O13 0.220517 0.104096 0.729040
O O14 0.208015 0.995021 0.660804
O O15 0.596066 0.637623 0.500000
O O16 0.620684 0.600756 0.254362
O O17 0.066387 0.113969 0.000000
O O18 0.020605 0.168637 0.869001
O O19 0.429108 0.076103 0.000000
#
# Coordination Sequence:
#
# PCOD9581373 Si02
#       8
#    12  12  12  12  12   6  12  12
#     4  10  21  35  51  74 103 134 170 215 263 312
#     4  11  22  35  52  73 101 138 175 213 257 315
#     4   8  16  31  50  72 102 136 173 210 246 288
#     4  10  21  35  51  70  95 125 158 202 259 323
#     4  11  21  32  49  75 107 141 176 214 259 308
#     4  12  23  40  58  74  96 118 159 223 283 333
#     4  10  19  33  52  75 103 138 177 216 255 303
#     4  11  21  35  54  72  92 122 163 205 260 321
#
# _framework density 16.40296
#
# number of rings (size 3 to 8) (size 9 to 14) (size 15 to 20)
#    0.000    1.733    2.000    4.467    0.000    5.600 
#    1.200    0.000    0.000    0.000    0.000    1.867 
#    1.333    0.000    2.400    0.000    2.400    0.000 
#
# Total GULP energy -501073.360428 kJ/mol
# GULP energy per Si atom -5567.481783 kJ/mol
# Density = 1.636563 g / cm^3
# Si number density = 16.402960 Si / 1000 Ang^3
#
#
#
# Elastic Constant Matrix: (Units=GPa)
#
#
# Indices 1 2 3 4 5 6 
#
# 1 75.5134 27.3384 37.8400 0.0000 0.0000 0.0000
# 2 27.3384 75.5134 37.8400 0.0000 0.0000 0.0000
# 3 37.8400 37.8400 107.6361 0.0000 0.0000 0.0000
# 4 0.0000 0.0000 0.0000 22.2863 0.0000 0.0000
# 5 0.0000 0.0000 0.0000 0.0000 22.2863 0.0000
# 6 0.0000 0.0000 0.0000 0.0000 0.0000 24.0875
#
#
#
# Elastic Compliance Matrix: (Units=1/GPa)
#
#
# Indices 1 2 3 4 5 6 
#
# 1 0.016937 -0.003821 -0.004611 0.000000 0.000000 0.000000
# 2 -0.003821 0.016937 -0.004611 0.000000 0.000000 0.000000
# 3 -0.004611 -0.004611 0.012532 0.000000 0.000000 0.000000
# 4 0.000000 0.000000 0.000000 0.044871 0.000000 0.000000
# 5 0.000000 0.000000 0.000000 0.000000 0.044871 0.000000
# 6 0.000000 0.000000 0.000000 0.000000 0.000000 0.041515
#
#
# Mechanical properties :
#
#
# Convention : Reuss Voigt Hill
#
# Bulk Modulus (GPa) = 49.21224 51.63326 50.42275
# Shear Modulus (GPa) = 23.75064 24.10834 23.92949
#
# Velocity S-wave (km/s) = 3.80932 3.83790 3.82364
# Velocity P-wave (km/s) = 7.02959 7.15441 7.09227
#
# Compressibility (1/GPa) = 0.02032015
#
# Stress axis : x y z
#
# Youngs Moduli (GPa) = 59.04396 59.04396 79.79283
#
# Poissons Ratio (x) = 0.22561 0.36791
# Poissons Ratio (y) = 0.22561 0.36791
# Poissons Ratio (z) = 0.27224 0.27224
#
# Static dielectric constant tensor:
#      x y z
#    x 1.560100 0.000000 0.000000 
#    y 0.000000 1.560100 0.000000 
#    z 0.000000 0.000000 1.584670 
# 
# From -- ./inp_files/1442.got.cif
#   From: 2010.05.17/outbox.cif.g08.bks.cpg/sg175_1_cif.got.tgz:1442.got - 2010.05.20 11:23:22.
