data_PCOD9581603
_publ_section_title
;
Structure prediction by ZEFSAII (Michael W. Deem and Ramdas Pophale) SiO2 
 PCOD9581603
Probable space group: P 6/M
;
_chemical_formula_sum "Si O2"
_cell_formula_units_Z 60
_cell_length_a 13.885123
_cell_length_b 13.885123
_cell_length_c 14.684058
_cell_angle_alpha 90.000000
_cell_angle_beta 90.000000
_cell_angle_gamma 120.000000
_cell_volume 2451.750008
_symmetry_space_group_name_H-M "P 6/M"
_symmetry_group_IT_number 175
_symmetry_cell_setting 'hexagonal'
loop_
_space_group_symop_operation_xyz
x,y,z
x-y,x,z
-y,x-y,z
-x,-y,z
-x+y,-x,z
y,-x+y,z
-x,-y,-z
-x+y,-x,-z
y,-x+y,-z
x,y,-z
x-y,x,-z
-y,x-y,-z
loop_
_atom_site_type_symbol
_atom_site_label
_atom_site_fract_x
_atom_site_fract_y
_atom_site_fract_z
Si Si1 0.216674 0.749464 0.398220
Si Si2 0.590418 0.130200 0.712642
Si Si3 0.811292 0.760637 0.639809
Si Si4 0.500383 0.116572 0.098775
Si Si5 0.058126 0.809823 0.859400
O O1 0.260991 0.780776 0.500000
O O2 0.287307 0.839704 0.319266
O O3 0.197118 0.632748 0.362751
O O4 0.093000 0.731534 0.396198
O O5 0.575434 0.170606 0.811861
O O6 0.500000 0.000000 0.709247
O O7 0.788067 0.855556 0.608853
O O8 0.809055 0.756894 0.749634
O O9 0.373634 0.089834 0.113713
O O10 0.500000 0.000000 0.093684
O O11 0.539178 0.172286 0.000000
O O12 0.933598 0.779809 0.889463
#
# Coordination Sequence:
#
# PCOD9581603 Si02
#       5
#    12  12  12  12  12
#     4  12  25  42  67 101 133 176 236 292 357 431
#     4  11  25  45  70  95 136 178 223 292 364 427
#     4  10  21  38  63  98 139 185 229 283 349 428
#     4  10  23  42  68 100 137 187 243 297 359 432
#     4  10  21  40  70 108 151 196 243 298 363 440
#
# _framework density 24.472317
#
# number of rings (size 3 to 8) (size 9 to 14) (size 15 to 20)
#    0.000    1.400    2.000    2.600    8.400    6.400 
#    0.000    3.000    0.000    3.200    0.000    0.000 
#    0.000    0.000    0.000    0.000    0.000    0.000 
#
# Total GULP energy -335489.440927 kJ/mol
# GULP energy per Si atom -5591.490682 kJ/mol
# Density = 2.441662 g / cm^3
# Si number density = 24.472317 Si / 1000 Ang^3
#
#
#
# Elastic Constant Matrix: (Units=GPa)
#
#
# Indices 1 2 3 4 5 6 
#
# 1 101.3723 16.3567 37.1242 0.0000 0.0000 0.0000
# 2 16.3567 101.3723 37.1242 0.0000 0.0000 0.0000
# 3 37.1242 37.1242 164.5489 0.0000 0.0000 0.0000
# 4 0.0000 0.0000 0.0000 10.1121 0.0000 0.0000
# 5 0.0000 0.0000 0.0000 0.0000 10.1121 0.0000
# 6 0.0000 0.0000 0.0000 0.0000 0.0000 42.5078
#
#
#
# Elastic Compliance Matrix: (Units=1/GPa)
#
#
# Indices 1 2 3 4 5 6 
#
# 1 0.010833 -0.000930 -0.002234 0.000000 0.000000 0.000000
# 2 -0.000930 0.010833 -0.002234 0.000000 0.000000 0.000000
# 3 -0.002234 -0.002234 0.007085 0.000000 0.000000 0.000000
# 4 0.000000 0.000000 0.000000 0.098892 0.000000 0.000000
# 5 0.000000 0.000000 0.000000 0.000000 0.098892 0.000000
# 6 0.000000 0.000000 0.000000 0.000000 0.000000 0.023525
#
#
# Mechanical properties :
#
#
# Convention : Reuss Voigt Hill
#
# Bulk Modulus (GPa) = 55.69596 60.94488 58.32042
# Shear Modulus (GPa) = 18.73774 30.99227 24.86501
#
# Velocity S-wave (km/s) = 2.77008 3.56254 3.19101
# Velocity P-wave (km/s) = 5.74798 6.47147 6.12043
#
# Compressibility (1/GPa) = 0.01795462
#
# Stress axis : x y z
#
# Youngs Moduli (GPa) = 92.31171 92.31171 141.13565
#
# Poissons Ratio (x) = 0.08582 0.31534
# Poissons Ratio (y) = 0.08582 0.31534
# Poissons Ratio (z) = 0.20625 0.20625
#
# Static dielectric constant tensor:
#      x y z
#    x 1.930010 0.000000 0.000000 
#    y 0.000000 1.930010 0.000000 
#    z 0.000000 0.000000 1.947670 
# 
# From -- ./inp_files/2354.got.cif
#   From: 2010.05.17/outbox.cif.g08.bks.cpg/sg175_2_cif.got.tgz:2354.got - 2010.05.20 11:23:22.
