data_PCOD9581842
_publ_section_title
;
Structure prediction by ZEFSAII (Michael W. Deem and Ramdas Pophale) SiO2 
 PCOD9581842
Probable space group: P 63/M
;
_chemical_formula_sum "Si O2"
_cell_formula_units_Z 76
_cell_length_a 16.951333
_cell_length_b 16.951333
_cell_length_c 15.235927
_cell_angle_alpha 90.000000
_cell_angle_beta 90.000000
_cell_angle_gamma 120.000000
_cell_volume 3791.466523
_symmetry_space_group_name_H-M "P 63/M"
_symmetry_group_IT_number 176
_symmetry_cell_setting 'hexagonal'
loop_
_space_group_symop_operation_xyz
x,y,z
x-y,x,1/2+z
-y,x-y,z
-x,-y,1/2+z
-x+y,-x,z
y,-x+y,1/2+z
-x,-y,-z
-x+y,-x,1/2-z
y,-x+y,-z
x,y,1/2-z
x-y,x,-z
-y,x-y,1/2-z
loop_
_atom_site_type_symbol
_atom_site_label
_atom_site_fract_x
_atom_site_fract_y
_atom_site_fract_z
Si Si1 0.911427 0.473917 0.942724
Si Si2 0.964886 0.887787 0.143602
Si Si3 0.459965 0.212208 0.750000
Si Si4 0.333334 0.666667 0.645021
Si Si5 0.955861 0.703436 0.148343
Si Si6 0.801600 0.532351 0.071878
Si Si7 0.726440 0.591656 0.571784
Si Si8 0.880713 0.463296 0.750000
O O1 0.857888 0.364798 0.933086
O O2 0.931412 0.507084 0.841531
O O3 0.852079 0.505858 0.997172
O O4 0.000000 0.500000 0.000000
O O5 0.962045 0.885685 0.250000
O O6 0.941358 0.787008 0.118033
O O7 0.903588 0.933458 0.116722
O O8 0.406341 0.188816 0.658292
O O9 0.530167 0.319303 0.750000
O O10 0.505818 0.148620 0.750000
O O11 0.333334 0.666668 0.750000
O O12 0.284996 0.722592 0.610595
O O13 0.987095 0.721560 0.250000
O O14 0.871389 0.601550 0.142515
O O15 0.032933 0.703244 0.088039
O O16 0.771339 0.595185 0.019976
#
# Coordination Sequence:
#
# PCOD9581842 Si02
#       8
#    12  12   6   4  12  12  12   6
#     4  11  22  40  61  88 129 174 214 266 331 393
#     4   7  14  34  63  91 122 166 210 257 319 393
#     4  10  19  34  58  92 113 153 209 261 326 390
#     4  12  27  48  66  94 125 184 243 273 336 424
#     4  11  22  40  67  96 133 174 222 277 340 405
#     4  12  24  41  68  91 131 176 222 280 341 400
#     4  11  22  38  61  94 124 165 215 267 332 391
#     4  10  21  34  64  90 121 159 211 269 324 392
#
# _framework density 20.045013999999998
#
# number of rings (size 3 to 8) (size 9 to 14) (size 15 to 20)
#    0.316    1.263    5.526    0.632    0.000    0.000 
#    4.263    0.000    0.000    0.947    0.000    0.000 
#    0.000    0.000    0.000    0.000    0.000    0.000 
#
# Total GULP energy -423183.956520 kJ/mol
# GULP energy per Si atom -5568.209954 kJ/mol
# Density = 1.999939 g / cm^3
# Si number density = 20.045014 Si / 1000 Ang^3
#
#
#
# Elastic Constant Matrix: (Units=GPa)
#
#
# Indices 1 2 3 4 5 6 
#
# 1 70.4454 18.5360 22.9591 0.0000 0.0000 0.0002
# 2 18.5360 70.4455 22.9589 0.0000 0.0000 0.0002
# 3 22.9591 22.9589 110.1218 0.0000 0.0000 0.0001
# 4 0.0000 0.0000 0.0000 24.0794 0.0000 0.0000
# 5 0.0000 0.0000 0.0000 0.0000 24.0796 0.0000
# 6 0.0002 0.0002 0.0001 0.0000 0.0000 25.9547
#
#
#
# Elastic Compliance Matrix: (Units=1/GPa)
#
#
# Indices 1 2 3 4 5 6 
#
# 1 0.015929 -0.003336 -0.002626 0.000000 0.000000 0.000000
# 2 -0.003336 0.015929 -0.002625 0.000000 0.000000 0.000000
# 3 -0.002626 -0.002625 0.010176 0.000000 0.000000 0.000000
# 4 0.000000 0.000000 0.000000 0.041529 0.000000 0.000000
# 5 0.000000 0.000000 0.000000 0.000000 0.041529 0.000000
# 6 0.000000 0.000000 0.000000 0.000000 0.000000 0.038529
#
#
# Mechanical properties :
#
#
# Convention : Reuss Voigt Hill
#
# Bulk Modulus (GPa) = 40.22544 42.21343 41.21943
# Shear Modulus (GPa) = 26.44386 27.25999 26.85193
#
# Velocity S-wave (km/s) = 3.63605 3.69174 3.66400
# Velocity P-wave (km/s) = 6.14320 6.26713 6.20548
#
# Compressibility (1/GPa) = 0.02485989
#
# Stress axis : x y z
#
# Youngs Moduli (GPa) = 62.77955 62.77968 98.27405
#
# Poissons Ratio (x) = 0.20941 0.25802
# Poissons Ratio (y) = 0.20941 0.25802
# Poissons Ratio (z) = 0.16483 0.16483
#
# Static dielectric constant tensor:
#      x y z
#    x 1.731250 0.000000 0.000000 
#    y 0.000000 1.731250 0.000000 
#    z 0.000000 0.000000 1.762320 
# 
# From -- ./inp_files/2891.got.cif
#   From: 2010.05.17/outbox.cif.g08.bks.cpg/sg176_2_cif.got.tgz:2891.got - 2010.06.03 11:36:45.
