data_PCOD9581354
_publ_section_title
;
Structure prediction by ZEFSAII (Michael W. Deem and Ramdas Pophale) SiO2 
 PCOD9581354
Probable space group: P 6/M
;
_chemical_formula_sum "Si O2"
_cell_formula_units_Z 30
_cell_length_a 11.044509
_cell_length_b 11.044509
_cell_length_c 13.730882
_cell_angle_alpha 90.000000
_cell_angle_beta 90.000000
_cell_angle_gamma 120.000000
_cell_volume 1450.513895
_symmetry_space_group_name_H-M "P 6/M"
_symmetry_group_IT_number 175
_symmetry_cell_setting 'hexagonal'
loop_
_space_group_symop_operation_xyz
x,y,z
x-y,x,z
-y,x-y,z
-x,-y,z
-x+y,-x,z
y,-x+y,z
-x,-y,-z
-x+y,-x,-z
y,-x+y,-z
x,y,-z
x-y,x,-z
-y,x-y,-z
loop_
_atom_site_type_symbol
_atom_site_label
_atom_site_fract_x
_atom_site_fract_y
_atom_site_fract_z
Si Si1 0.939448 0.254554 0.000000
Si Si2 0.491062 0.827632 0.607976
Si Si3 0.059878 0.744257 0.211816
O O1 0.925571 0.311051 0.104977
O O2 0.091705 0.269443 0.000000
O O3 0.331351 0.795120 0.613253
O O4 0.547507 0.883457 0.500000
O O5 0.582008 0.911780 0.698581
O O6 0.907404 0.728371 0.217308
#
# Coordination Sequence:
#
# PCOD9581354 Si02
#       3
#     6  12  12
#     4   8  15  28  46  70 100 134 165 190 232 296
#     4   8  18  37  54  71  93 130 176 206 239 290
#     4  10  19  32  52  77 104 131 161 202 249 296
#
# _framework density 20.682324000000001
#
# number of rings (size 3 to 8) (size 9 to 14) (size 15 to 20)
#    0.800    2.400    0.000    0.600    0.000    6.400 
#    0.000    6.000    0.000    9.600    0.000    0.000 
#    0.000    0.000    0.000    0.000    0.000    0.000 
#
# Total GULP energy -167108.163354 kJ/mol
# GULP energy per Si atom -5570.272112 kJ/mol
# Density = 2.063525 g / cm^3
# Si number density = 20.682324 Si / 1000 Ang^3
#
#
#
# Elastic Constant Matrix: (Units=GPa)
#
#
# Indices 1 2 3 4 5 6 
#
# 1 56.1333 13.1282 58.9762 0.0000 0.0000 0.0000
# 2 13.1282 56.1333 58.9762 0.0000 0.0000 0.0000
# 3 58.9762 58.9762 219.6424 0.0000 0.0000 0.0000
# 4 0.0000 0.0000 0.0000 -37.4964 0.0000 0.0000
# 5 0.0000 0.0000 0.0000 0.0000 -37.4964 0.0000
# 6 0.0000 0.0000 0.0000 0.0000 0.0000 21.5026
#
#
#
# Elastic Compliance Matrix: (Units=1/GPa)
#
#
# Indices 1 2 3 4 5 6 
#
# 1 0.024928 0.001675 -0.007143 0.000000 0.000000 0.000000
# 2 0.001675 0.024928 -0.007143 0.000000 0.000000 0.000000
# 3 -0.007143 -0.007143 0.008389 0.000000 0.000000 0.000000
# 4 0.000000 0.000000 0.000000 -0.026669 0.000000 0.000000
# 5 0.000000 0.000000 0.000000 0.000000 -0.026669 0.000000
# 6 0.000000 0.000000 0.000000 0.000000 0.000000 0.046506
#
#
# Mechanical properties :
#
#
# Convention : Reuss Voigt Hill
#
# Bulk Modulus (GPa) = 30.28291 66.00783 48.14537
# Shear Modulus (GPa) = 57.05007 2.69051 29.87029
#
# Velocity S-wave (km/s) = 5.25774 1.14180 3.80444
# Velocity P-wave (km/s) = 7.17859 5.80712 6.52897
#
# Compressibility (1/GPa) = 0.03302192
#
# Stress axis : x y z
#
# Youngs Moduli (GPa) = 40.11569 40.11569 119.20573
#
# Poissons Ratio (x) = -0.06719 0.85150
# Poissons Ratio (y) = -0.06719 0.85150
# Poissons Ratio (z) = 0.28655 0.28655
#
# Static dielectric constant tensor:
#      x y z
#    x 1.741490 0.000000 0.000000 
#    y 0.000000 1.741490 0.000000 
#    z 0.000000 0.000000 1.779260 
# 
# From -- ./inp_files/1505.got.cif
#   From: 2010.05.17/outbox.cif.g08.bks.cpg/sg175_1_cif.got.tgz:1505.got - 2010.05.20 11:23:22.
