data_PCOD9581642
_publ_section_title
;
Structure prediction by ZEFSAII (Michael W. Deem and Ramdas Pophale) SiO2 
 PCOD9581642
Probable space group: P 6/M
;
_chemical_formula_sum "Si O2"
_cell_formula_units_Z 60
_cell_length_a 15.802897
_cell_length_b 15.802897
_cell_length_c 13.790881
_cell_angle_alpha 90.000000
_cell_angle_beta 90.000000
_cell_angle_gamma 120.000000
_cell_volume 2982.607198
_symmetry_space_group_name_H-M "P 6/M"
_symmetry_group_IT_number 175
_symmetry_cell_setting 'hexagonal'
loop_
_space_group_symop_operation_xyz
x,y,z
x-y,x,z
-y,x-y,z
-x,-y,z
-x+y,-x,z
y,-x+y,z
-x,-y,-z
-x+y,-x,-z
y,-x+y,-z
x,y,-z
x-y,x,-z
-y,x-y,-z
loop_
_atom_site_type_symbol
_atom_site_label
_atom_site_fract_x
_atom_site_fract_y
_atom_site_fract_z
Si Si1 0.052124 0.220980 0.500000
Si Si2 0.273412 0.356877 0.815809
Si Si3 0.655724 0.436704 0.201296
Si Si4 0.432189 0.882370 0.388997
Si Si5 0.048463 0.827278 0.000000
Si Si6 0.253935 0.893840 0.315554
O O1 0.130682 0.186355 0.500000
O O2 0.068308 0.283493 0.403260
O O3 0.336497 0.469736 0.850570
O O4 0.335510 0.319681 0.755861
O O5 0.190075 0.354812 0.745401
O O6 0.222741 0.285804 0.905275
O O7 0.571838 0.324325 0.181495
O O8 0.634312 0.453533 0.312346
O O9 0.443961 0.860820 0.500000
O O10 0.323545 0.859922 0.365805
O O11 0.500000 0.000000 0.374914
O O12 0.940777 0.812139 0.000000
#
# Coordination Sequence:
#
# PCOD9581642 Si02
#       6
#     6  12  12  12   6  12
#     4  12  25  38  57  90 126 176 218 258 323 418
#     4  12  24  43  69  95 131 172 220 284 346 406
#     4  10  22  40  63  93 133 180 217 275 335 389
#     4  11  22  35  60  98 135 179 232 277 321 395
#     4  12  27  48  76 108 130 168 231 294 360 418
#     4  12  22  39  65  91 131 173 216 269 336 399
#
# _framework density 20.116627999999999
#
# number of rings (size 3 to 8) (size 9 to 14) (size 15 to 20)
#    0.400    0.200    9.000    0.200    0.000    0.800 
#    1.800    1.000    0.000    2.400    0.000    0.000 
#    0.000    0.000    0.000    0.000    0.000    0.000 
#
# Total GULP energy -335003.226528 kJ/mol
# GULP energy per Si atom -5583.387109 kJ/mol
# Density = 2.007084 g / cm^3
# Si number density = 20.116628 Si / 1000 Ang^3
#
#
#
# Elastic Constant Matrix: (Units=GPa)
#
#
# Indices 1 2 3 4 5 6 
#
# 1 82.6147 20.2879 18.9112 0.0000 0.0000 0.0000
# 2 20.2879 82.6147 18.9112 0.0000 0.0000 0.0000
# 3 18.9112 18.9112 65.6999 0.0000 0.0000 0.0000
# 4 0.0000 0.0000 0.0000 17.7174 0.0000 0.0000
# 5 0.0000 0.0000 0.0000 0.0000 17.7174 0.0000
# 6 0.0000 0.0000 0.0000 0.0000 0.0000 31.1634
#
#
#
# Elastic Compliance Matrix: (Units=1/GPa)
#
#
# Indices 1 2 3 4 5 6 
#
# 1 0.013456 -0.002588 -0.003128 0.000000 0.000000 0.000000
# 2 -0.002588 0.013456 -0.003128 0.000000 0.000000 0.000000
# 3 -0.003128 -0.003128 0.017022 0.000000 0.000000 0.000000
# 4 0.000000 0.000000 0.000000 0.056442 0.000000 0.000000
# 5 0.000000 0.000000 0.000000 0.000000 0.056442 0.000000
# 6 0.000000 0.000000 0.000000 0.000000 0.000000 0.032089
#
#
# Mechanical properties :
#
#
# Convention : Reuss Voigt Hill
#
# Bulk Modulus (GPa) = 38.10359 38.57222 38.33791
# Shear Modulus (GPa) = 23.21873 24.84092 24.02983
#
# Velocity S-wave (km/s) = 3.40105 3.51785 3.45994
# Velocity P-wave (km/s) = 5.86560 5.97631 5.92121
#
# Compressibility (1/GPa) = 0.02624424
#
# Stress axis : x y z
#
# Youngs Moduli (GPa) = 74.31583 74.31583 58.74891
#
# Poissons Ratio (x) = 0.19236 0.18378
# Poissons Ratio (y) = 0.19236 0.18378
# Poissons Ratio (z) = 0.23247 0.23247
#
# Static dielectric constant tensor:
#      x y z
#    x 1.719120 0.000000 0.000000 
#    y 0.000000 1.719120 0.000000 
#    z 0.000000 0.000000 1.676210 
# 
# From -- ./inp_files/1850.got.cif
#   From: 2010.05.17/outbox.cif.g08.bks.cpg/sg175_1_cif.got.tgz:1850.got - 2010.05.20 11:23:22.
