data_PCOD9581865
_publ_section_title
;
Structure prediction by ZEFSAII (Michael W. Deem and Ramdas Pophale) SiO2 
 PCOD9581865
Probable space group: P 63/M
;
_chemical_formula_sum "Si O2"
_cell_formula_units_Z 48
_cell_length_a 17.468623
_cell_length_b 17.468623
_cell_length_c 8.130187
_cell_angle_alpha 90.000000
_cell_angle_beta 90.000000
_cell_angle_gamma 120.000000
_cell_volume 2148.565069
_symmetry_space_group_name_H-M "P 63/M"
_symmetry_group_IT_number 176
_symmetry_cell_setting 'hexagonal'
loop_
_space_group_symop_operation_xyz
x,y,z
x-y,x,1/2+z
-y,x-y,z
-x,-y,1/2+z
-x+y,-x,z
y,-x+y,1/2+z
-x,-y,-z
-x+y,-x,1/2-z
y,-x+y,-z
x,y,1/2-z
x-y,x,-z
-y,x-y,1/2-z
loop_
_atom_site_type_symbol
_atom_site_label
_atom_site_fract_x
_atom_site_fract_y
_atom_site_fract_z
Si Si1 0.049087 0.864116 0.065856
Si Si2 0.524517 0.703012 0.450510
Si Si3 0.677028 0.997641 0.555376
Si Si4 0.140477 0.629990 0.050542
O O1 0.081882 0.893717 0.250000
O O2 0.050697 0.775004 0.027399
O O3 0.947166 0.838055 0.048019
O O4 0.524754 0.703064 0.250000
O O5 0.619330 0.717871 0.503680
O O6 0.502732 0.777975 0.502254
O O7 0.448519 0.605685 0.502550
O O8 0.690538 0.998149 0.750000
O O9 0.573069 0.946932 0.517942
O O10 0.136087 0.628578 0.250000
#
# Coordination Sequence:
#
# PCOD9581865 Si02
#       4
#    12  12  12  12
#     4  12  25  43  65  91 121 157 197 242 292 349
#     4   9  19  34  57  84 112 146 195 249 301 357
#     4  11  22  37  56  86 122 157 196 243 294 354
#     4  10  19  36  59  83 111 152 199 250 306 362
#
# _framework density 22.340491
#
# number of rings (size 3 to 8) (size 9 to 14) (size 15 to 20)
#    0.000    1.500    0.000    6.000    0.000    4.000 
#    0.000    3.750    0.000    0.000    0.000    0.000 
#    0.000    0.000    0.000    0.000    0.000    0.000 
#
# Total GULP energy -268641.224413 kJ/mol
# GULP energy per Si atom -5596.692175 kJ/mol
# Density = 2.228964 g / cm^3
# Si number density = 22.340491 Si / 1000 Ang^3
#
#
#
# Elastic Constant Matrix: (Units=GPa)
#
#
# Indices 1 2 3 4 5 6 
#
# 1 80.3042 -6.0358 -0.2967 0.0000 0.0000 0.0000
# 2 -6.0358 80.3042 -0.2967 0.0000 0.0000 0.0000
# 3 -0.2967 -0.2967 39.0823 0.0000 0.0000 0.0000
# 4 0.0000 0.0000 0.0000 21.0665 0.0000 0.0000
# 5 0.0000 0.0000 0.0000 0.0000 21.0665 0.0000
# 6 0.0000 0.0000 0.0000 0.0000 0.0000 43.1700
#
#
#
# Elastic Compliance Matrix: (Units=1/GPa)
#
#
# Indices 1 2 3 4 5 6 
#
# 1 0.012524 0.000942 0.000102 0.000000 0.000000 0.000000
# 2 0.000942 0.012524 0.000102 0.000000 0.000000 0.000000
# 3 0.000102 0.000102 0.025589 0.000000 0.000000 0.000000
# 4 0.000000 0.000000 0.000000 0.047469 0.000000 0.000000
# 5 0.000000 0.000000 0.000000 0.000000 0.047469 0.000000
# 6 0.000000 0.000000 0.000000 0.000000 0.000000 0.023164
#
#
# Mechanical properties :
#
#
# Convention : Reuss Voigt Hill
#
# Bulk Modulus (GPa) = 18.89342 20.71470 19.80406
# Shear Modulus (GPa) = 27.16082 30.81523 28.98803
#
# Velocity S-wave (km/s) = 3.49057 3.71798 3.60607
# Velocity P-wave (km/s) = 4.97200 5.26532 5.12076
#
# Compressibility (1/GPa) = 0.05292848
#
# Stress axis : x y z
#
# Youngs Moduli (GPa) = 79.84794 79.84794 39.07991
#
# Poissons Ratio (x) = -0.07519 -0.00400
# Poissons Ratio (y) = -0.07519 -0.00400
# Poissons Ratio (z) = -0.00816 -0.00816
#
# Static dielectric constant tensor:
#      x y z
#    x 1.792300 0.000000 0.000000 
#    y 0.000000 1.792300 0.000000 
#    z 0.000000 0.000000 1.786520 
# 
# From -- ./inp_files/568.got.cif
#   From: 2010.05.17/outbox.cif.g08.bks.cpg/sg176_1_cif.got.tgz:568.got - 2010.06.03 11:36:45.
