data_PCOD9581879
_publ_section_title
;
Structure prediction by ZEFSAII (Michael W. Deem and Ramdas Pophale) SiO2 
 PCOD9581879
Probable space group: P 63/M
;
_chemical_formula_sum "Si O2"
_cell_formula_units_Z 66
_cell_length_a 20.403663
_cell_length_b 20.403663
_cell_length_c 9.985744
_cell_angle_alpha 90.000000
_cell_angle_beta 90.000000
_cell_angle_gamma 120.000000
_cell_volume 3600.205934
_symmetry_space_group_name_H-M "P 63/M"
_symmetry_group_IT_number 176
_symmetry_cell_setting 'hexagonal'
loop_
_space_group_symop_operation_xyz
x,y,z
x-y,x,1/2+z
-y,x-y,z
-x,-y,1/2+z
-x+y,-x,z
y,-x+y,1/2+z
-x,-y,-z
-x+y,-x,1/2-z
y,-x+y,-z
x,y,1/2-z
x-y,x,-z
-y,x-y,1/2-z
loop_
_atom_site_type_symbol
_atom_site_label
_atom_site_fract_x
_atom_site_fract_y
_atom_site_fract_z
Si Si1 0.878430 0.044601 0.001860
Si Si2 0.767845 0.159954 0.750000
Si Si3 0.457615 0.801980 0.096747
Si Si4 0.588379 0.684510 0.750000
Si Si5 0.404374 0.087847 0.750000
Si Si6 0.190265 0.504074 0.004478
Si Si7 0.724359 0.852317 0.750000
Si Si8 0.229296 0.987915 0.250000
O O1 0.822257 0.028660 0.880131
O O2 0.860403 0.085504 0.120907
O O3 0.963923 0.097869 0.953858
O O4 0.858620 0.223688 0.750000
O O5 0.729568 0.171753 0.619746
O O6 0.746165 0.073821 0.750000
O O7 0.440765 0.767787 0.250000
O O8 0.538083 0.878349 0.122930
O O9 0.463831 0.744819 0.993475
O O10 0.392322 0.818771 0.055513
O O11 0.638630 0.641968 0.750000
O O12 0.535890 0.671252 0.879479
O O13 0.649660 0.773035 0.750000
O O14 0.710622 0.923438 0.750000
#
# Coordination Sequence:
#
# PCOD9581879 Si02
#       8
#    12   6  12   6   6  12   6   6
#     4  10  20  34  54  79 107 147 203 265 318 358
#     4  10  19  41  63  90 111 169 223 239 290 374
#     4   9  18  40  67  95 113 161 216 243 285 357
#     4  12  26  39  54  96 138 160 190 258 327 358
#     4   8  21  37  62  88 126 163 202 254 294 363
#     4  11  21  39  70  94 125 156 203 254 298 362
#     4  10  23  41  52  80 120 162 202 252 310 359
#     4  10  21  36  57  80 111 160 211 249 297 370
#
# _framework density 18.332284999999999
#
# number of rings (size 3 to 8) (size 9 to 14) (size 15 to 20)
#    0.545    1.455    1.818    2.182    2.545    1.455 
#    9.818    1.818    0.000    0.000    0.000    0.000 
#    0.000    0.000    0.000    0.000    0.000    0.000 
#
# Total GULP energy -367570.770506 kJ/mol
# GULP energy per Si atom -5569.254099 kJ/mol
# Density = 1.829056 g / cm^3
# Si number density = 18.332285 Si / 1000 Ang^3
#
#
#
# Elastic Constant Matrix: (Units=GPa)
#
#
# Indices 1 2 3 4 5 6 
#
# 1 89.9361 54.3323 18.5012 0.0000 0.0000 0.0000
# 2 54.3323 89.9361 18.5012 0.0000 0.0000 0.0000
# 3 18.5012 18.5012 67.6314 0.0000 0.0000 0.0000
# 4 0.0000 0.0000 0.0000 14.7587 0.0000 0.0000
# 5 0.0000 0.0000 0.0000 0.0000 14.7587 0.0000
# 6 0.0000 0.0000 0.0000 0.0000 0.0000 17.8019
#
#
#
# Elastic Compliance Matrix: (Units=1/GPa)
#
#
# Indices 1 2 3 4 5 6 
#
# 1 0.017771 -0.010316 -0.002039 0.000000 0.000000 0.000000
# 2 -0.010316 0.017771 -0.002039 0.000000 0.000000 0.000000
# 3 -0.002039 -0.002039 0.015902 0.000000 0.000000 0.000000
# 4 0.000000 0.000000 0.000000 0.067757 0.000000 0.000000
# 5 0.000000 0.000000 0.000000 0.000000 0.067757 0.000000
# 6 0.000000 0.000000 0.000000 0.000000 0.000000 0.056174
#
#
# Mechanical properties :
#
#
# Convention : Reuss Voigt Hill
#
# Bulk Modulus (GPa) = 44.14266 47.79700 45.96983
# Shear Modulus (GPa) = 17.89092 19.87511 18.88302
#
# Velocity S-wave (km/s) = 3.12737 3.29623 3.21291
# Velocity P-wave (km/s) = 6.09689 6.37307 6.23651
#
# Compressibility (1/GPa) = 0.02265382
#
# Stress axis : x y z
#
# Youngs Moduli (GPa) = 56.27234 56.27234 62.88619
#
# Poissons Ratio (x) = 0.58051 0.12824
# Poissons Ratio (y) = 0.58051 0.12824
# Poissons Ratio (z) = 0.11475 0.11475
#
# Static dielectric constant tensor:
#      x y z
#    x 1.655630 0.000000 0.000000 
#    y 0.000000 1.655630 0.000000 
#    z 0.000000 0.000000 1.635090 
# 
# From -- ./inp_files/1070.got.cif
#   From: 2010.05.17/outbox.cif.g08.bks.cpg/sg176_1_cif.got.tgz:1070.got - 2010.06.03 11:36:45.
