data_PCOD9581074
_publ_section_title
;
Structure prediction by ZEFSAII (Michael W. Deem and Ramdas Pophale) SiO2 
 PCOD9581074
Probable space group: P 63
;
_chemical_formula_sum "Si O2"
_cell_formula_units_Z 26
_cell_length_a 9.894681
_cell_length_b 9.894681
_cell_length_c 13.337671
_cell_angle_alpha 90.000000
_cell_angle_beta 90.000000
_cell_angle_gamma 120.000000
_cell_volume 1130.874020
_symmetry_space_group_name_H-M "P 63"
_symmetry_group_IT_number 173
_symmetry_cell_setting 'hexagonal'
loop_
_space_group_symop_operation_xyz
x,y,z
x-y,x,1/2+z
-y,x-y,z
-x,-y,1/2+z
-x+y,-x,z
y,-x+y,1/2+z
loop_
_atom_site_type_symbol
_atom_site_label
_atom_site_fract_x
_atom_site_fract_y
_atom_site_fract_z
Si Si1 0.333334 0.666666 0.925817
Si Si2 0.747647 0.670703 0.178323
Si Si3 0.000000 0.000000 0.655809
Si Si4 0.666668 0.333334 0.664791
Si Si5 0.008832 0.589443 0.119857
Si Si6 0.000000 0.000000 0.894070
Si Si7 0.760024 0.658290 0.406203
O O1 0.272927 0.781532 0.892838
O O2 0.333334 0.666667 0.044311
O O3 0.593144 0.549045 0.120751
O O4 0.703534 0.674527 0.295169
O O5 0.878350 0.618522 0.169920
O O6 0.838054 0.844724 0.132441
O O7 0.000000 0.000000 0.775338
O O8 0.505908 0.172059 0.683411
O O9 0.032786 0.652067 0.004908
O O10 0.092170 0.913589 0.925321
#
# Coordination Sequence:
#
# PCOD9581074 Si02
#       7
#     2   6   2   2   6   2   6
#     4   9  18  36  60  84 121 167 205 264 330 390
#     4  11  22  41  65  95 129 172 220 278 333 393
#     4   9  21  40  65  94 130 170 220 271 326 388
#     4   9  21  39  57  90 130 170 214 267 333 393
#     4  11  23  40  66  95 131 176 221 271 335 399
#     4   9  21  40  65  91 127 173 217 274 329 379
#     4  10  22  40  64  95 130 170 221 273 334 402
#
# _framework density 22.991067000000001
#
# number of rings (size 3 to 8) (size 9 to 14) (size 15 to 20)
#    0.000    1.846    0.000    3.231    0.000    7.385 
#    0.000    4.615    0.000    0.923    0.000    0.000 
#    0.000    0.000    0.000    0.000    0.000    0.000 
#
# Total GULP energy -145104.041833 kJ/mol
# GULP energy per Si atom -5580.924686 kJ/mol
# Density = 2.293874 g / cm^3
# Si number density = 22.991067 Si / 1000 Ang^3
#
#
#
# Elastic Constant Matrix: (Units=GPa)
#
#
# Indices 1 2 3 4 5 6 
#
# 1 106.6391 54.7914 23.4730 0.0000 0.0000 0.0001
# 2 54.7914 106.6386 23.4727 0.0000 0.0000 -0.0004
# 3 23.4730 23.4727 134.0216 0.0000 0.0000 0.0001
# 4 0.0000 0.0000 0.0000 20.5658 0.0002 0.0000
# 5 0.0000 0.0000 0.0000 0.0002 20.5659 0.0000
# 6 0.0001 -0.0004 0.0001 0.0000 0.0000 25.9237
#
#
#
# Elastic Compliance Matrix: (Units=1/GPa)
#
#
# Indices 1 2 3 4 5 6 
#
# 1 0.012907 -0.006380 -0.001143 0.000000 0.000000 0.000000
# 2 -0.006380 0.012907 -0.001143 0.000000 0.000000 0.000000
# 3 -0.001143 -0.001143 0.007862 0.000000 0.000000 0.000000
# 4 0.000000 0.000000 0.000000 0.048624 0.000000 0.000000
# 5 0.000000 0.000000 0.000000 0.000000 0.048624 0.000000
# 6 0.000000 0.000000 0.000000 0.000000 0.000000 0.038575
#
#
# Mechanical properties :
#
#
# Convention : Reuss Voigt Hill
#
# Bulk Modulus (GPa) = 61.18682 61.19708 61.19195
# Shear Modulus (GPa) = 26.00370 29.78190 27.89280
#
# Velocity S-wave (km/s) = 3.36673 3.60303 3.48688
# Velocity P-wave (km/s) = 6.46408 6.63209 6.54862
#
# Compressibility (1/GPa) = 0.01634339
#
# Stress axis : x y z
#
# Youngs Moduli (GPa) = 77.47622 77.47590 127.19543
#
# Poissons Ratio (x) = 0.49431 0.14541
# Poissons Ratio (y) = 0.49431 0.14540
# Poissons Ratio (z) = 0.08857 0.08857
#
# Static dielectric constant tensor:
#      x y z
#    x 1.970950 0.000000 0.000000 
#    y 0.000000 1.970960 0.000000 
#    z 0.000000 0.000000 1.856320 
# 
# From -- ./inp_files/1004.got.cif
#   From: 2010.05.17/outbox.cif.g08.bks.cpg/sg173_cif.got.tgz:1004.got - 2010.05.20 11:21:53.
