data_PCOD9581941
_publ_section_title
;
Structure prediction by ZEFSAII (Michael W. Deem and Ramdas Pophale) SiO2 
 PCOD9581941
Probable space group: P 63/M
;
_chemical_formula_sum "Si O2"
_cell_formula_units_Z 44
_cell_length_a 12.872324
_cell_length_b 12.872324
_cell_length_c 15.666972
_cell_angle_alpha 90.000000
_cell_angle_beta 90.000000
_cell_angle_gamma 120.000000
_cell_volume 2248.172463
_symmetry_space_group_name_H-M "P 63/M"
_symmetry_group_IT_number 176
_symmetry_cell_setting 'hexagonal'
loop_
_space_group_symop_operation_xyz
x,y,z
x-y,x,1/2+z
-y,x-y,z
-x,-y,1/2+z
-x+y,-x,z
y,-x+y,1/2+z
-x,-y,-z
-x+y,-x,1/2-z
y,-x+y,-z
x,y,1/2-z
x-y,x,-z
-y,x-y,1/2-z
loop_
_atom_site_type_symbol
_atom_site_label
_atom_site_fract_x
_atom_site_fract_y
_atom_site_fract_z
Si Si1 0.577895 0.516832 0.413627
Si Si2 0.333335 0.666668 0.855386
Si Si3 0.333334 0.666668 0.145755
Si Si4 0.438100 0.101787 0.654381
Si Si5 0.966609 0.227258 0.996831
O O1 0.500000 0.500000 0.500000
O O2 0.615875 0.417782 0.391849
O O3 0.480826 0.504781 0.344615
O O4 0.695595 0.644730 0.428711
O O5 0.333334 0.666668 0.750000
O O6 0.333334 0.666668 0.250000
O O7 0.303812 0.535593 0.117773
O O8 0.405061 0.115546 0.750000
O O9 0.326404 0.040143 0.592202
O O10 0.092945 0.234763 0.003382
#
# Coordination Sequence:
#
# PCOD9581941 Si02
#       5
#    12   4   4  12  12
#     4  10  21  36  58  87 121 157 197 247 309 373
#     4  12  24  40  62  94 127 161 208 267 321 376
#     4   9  18  31  53  82 114 147 187 239 295 346
#     4  10  20  37  59  88 119 152 194 244 296 358
#     4  11  23  40  60  83 116 159 202 245 296 357
#
# _framework density 19.571452000000001
#
# number of rings (size 3 to 8) (size 9 to 14) (size 15 to 20)
#    0.000    1.636    0.000    6.000    0.000    6.545 
#    0.000    4.091    0.000    0.000    0.000    0.000 
#    0.000    0.000    0.000    0.000    0.000    0.000 
#
# Total GULP energy -245516.339959 kJ/mol
# GULP energy per Si atom -5579.916817 kJ/mol
# Density = 1.952691 g / cm^3
# Si number density = 19.571452 Si / 1000 Ang^3
#
#
#
# Elastic Constant Matrix: (Units=GPa)
#
#
# Indices 1 2 3 4 5 6 
#
# 1 131.8641 45.5359 29.1404 0.0000 0.0000 -0.0006
# 2 45.5359 131.8623 29.1408 0.0000 0.0000 0.0002
# 3 29.1404 29.1408 89.5729 0.0000 0.0000 0.0000
# 4 0.0000 0.0000 0.0000 20.7130 0.0001 0.0000
# 5 0.0000 0.0000 0.0000 0.0001 20.7131 0.0000
# 6 -0.0006 0.0002 0.0000 0.0000 0.0000 43.1635
#
#
#
# Elastic Compliance Matrix: (Units=1/GPa)
#
#
# Indices 1 2 3 4 5 6 
#
# 1 0.008948 -0.002636 -0.002053 0.000000 0.000000 0.000000
# 2 -0.002636 0.008948 -0.002053 0.000000 0.000000 0.000000
# 3 -0.002053 -0.002053 0.012500 0.000000 0.000000 0.000000
# 4 0.000000 0.000000 0.000000 0.048279 0.000000 0.000000
# 5 0.000000 0.000000 0.000000 0.000000 0.048279 0.000000
# 6 0.000000 0.000000 0.000000 0.000000 0.000000 0.023168
#
#
# Mechanical properties :
#
#
# Convention : Reuss Voigt Hill
#
# Bulk Modulus (GPa) = 59.13684 62.32596 60.73140
# Shear Modulus (GPa) = 29.54332 33.55005 31.54668
#
# Velocity S-wave (km/s) = 3.88946 4.14482 4.01917
# Velocity P-wave (km/s) = 7.10295 7.40409 7.25509
#
# Compressibility (1/GPa) = 0.01690993
#
# Stress axis : x y z
#
# Youngs Moduli (GPa) = 111.76140 111.75946 79.99930
#
# Poissons Ratio (x) = 0.29461 0.16426
# Poissons Ratio (y) = 0.29462 0.16427
# Poissons Ratio (z) = 0.22948 0.22949
#
# Static dielectric constant tensor:
#      x y z
#    x 1.686210 0.000000 0.000000 
#    y 0.000000 1.686210 0.000000 
#    z 0.000000 0.000000 1.742600 
# 
# From -- ./inp_files/3183.got.cif
#   From: 2010.05.17/outbox.cif.g08.bks.cpg/sg176_2_cif.got.tgz:3183.got - 2010.06.03 11:36:45.
