data_PCOD9581209
_publ_section_title
;
Structure prediction by ZEFSAII (Michael W. Deem and Ramdas Pophale) SiO2 
 PCOD9581209
Probable space group: P -6
;
_chemical_formula_sum "Si O2"
_cell_formula_units_Z 45
_cell_length_a 17.663709
_cell_length_b 17.663709
_cell_length_c 7.218843
_cell_angle_alpha 90.000000
_cell_angle_beta 90.000000
_cell_angle_gamma 120.000000
_cell_volume 1950.572203
_symmetry_space_group_name_H-M "P -6"
_symmetry_group_IT_number 174
_symmetry_cell_setting 'hexagonal'
loop_
_space_group_symop_operation_xyz
x,y,z
-x+y,-x,-z
-y,x-y,z
x,y,-z
-x+y,-x,z
-y,x-y,-z
loop_
_atom_site_type_symbol
_atom_site_label
_atom_site_fract_x
_atom_site_fract_y
_atom_site_fract_z
Si Si1 0.957951 0.560344 0.273950
Si Si2 0.129019 0.444907 0.721587
Si Si3 0.875344 0.807670 0.725139
Si Si4 0.260073 0.375246 0.275554
Si Si5 0.813740 0.611078 0.274403
Si Si6 0.624145 0.558927 0.275428
Si Si7 0.813415 0.933411 0.275174
Si Si8 0.222334 0.586850 0.000000
O O1 0.958901 0.560730 0.500000
O O2 0.879817 0.577934 0.216459
O O3 0.940829 0.465892 0.215376
O O4 0.052281 0.640546 0.214247
O O5 0.132130 0.454637 0.500000
O O6 0.196066 0.412027 0.776807
O O7 0.027487 0.382739 0.774102
O O8 0.165683 0.537733 0.821846
O O9 0.871160 0.804418 0.500000
O O10 0.847917 0.710691 0.783963
O O11 0.817707 0.849287 0.787168
O O12 0.975555 0.871960 0.778082
O O13 0.263356 0.380434 0.500000
O O14 0.206523 0.273926 0.219954
O O15 0.815202 0.610055 0.500000
O O16 0.712222 0.560442 0.216117
O O17 0.625557 0.558342 0.500000
O O18 0.812023 0.931056 0.500000
O O19 0.309289 0.576651 0.000000
#
# Coordination Sequence:
#
# PCOD9581209 Si02
#       8
#     6   6   6   6   6   6   6   3
#     4   9  16  26  42  66  99 141 188 235 288 346
#     4  10  21  38  61  86 116 157 198 244 296 353
#     4   9  14  19  30  48  82 124 158 204 267 319
#     4   9  16  27  46  71  98 138 186 230 283 344
#     4   9  15  26  39  61  99 137 177 235 285 331
#     4   9  18  30  48  74 103 147 200 238 292 359
#     4   9  14  20  31  56  90 127 169 212 264 328
#     4  10  26  42  56  88 120 150 196 244 300 362
#
# _framework density 23.070153000000001
#
# number of rings (size 3 to 8) (size 9 to 14) (size 15 to 20)
#    0.133    2.667    1.333    1.067    1.867    4.800 
#    0.800    0.000    0.000    0.000    0.000    1.867 
#    0.000    0.000    0.000    0.000    0.000    0.000 
#
# Total GULP energy -251300.115982 kJ/mol
# GULP energy per Si atom -5584.447022 kJ/mol
# Density = 2.301764 g / cm^3
# Si number density = 23.070153 Si / 1000 Ang^3
#
#
#
# Elastic Constant Matrix: (Units=GPa)
#
#
# Indices 1 2 3 4 5 6 
#
# 1 153.8431 70.1306 1.4605 0.0000 0.0000 0.0000
# 2 70.1306 153.8431 1.4605 0.0000 0.0000 0.0000
# 3 1.4605 1.4605 103.7986 0.0000 0.0000 0.0000
# 4 0.0000 0.0000 0.0000 -80.0105 0.0000 0.0000
# 5 0.0000 0.0000 0.0000 0.0000 -80.0105 0.0000
# 6 0.0000 0.0000 0.0000 0.0000 0.0000 41.8562
#
#
#
# Elastic Compliance Matrix: (Units=1/GPa)
#
#
# Indices 1 2 3 4 5 6 
#
# 1 0.008206 -0.003740 -0.000063 0.000000 0.000000 0.000000
# 2 -0.003740 0.008206 -0.000063 0.000000 0.000000 0.000000
# 3 -0.000063 -0.000063 0.009636 0.000000 0.000000 0.000000
# 4 0.000000 0.000000 0.000000 -0.012498 0.000000 0.000000
# 5 0.000000 0.000000 0.000000 0.000000 -0.012498 0.000000
# 6 0.000000 0.000000 0.000000 0.000000 0.000000 0.023891
#
#
# Mechanical properties :
#
#
# Convention : Reuss Voigt Hill
#
# Bulk Modulus (GPa) = 54.59790 61.95425 58.27607
# Shear Modulus (GPa) = 128.93815 -1.07076 63.93370
#
# Velocity S-wave (km/s) = 7.48404 -0.68201 5.27000
# Velocity P-wave (km/s) = 9.91961 5.12765 7.89593
#
# Compressibility (1/GPa) = 0.01831572
#
# Stress axis : x y z
#
# Youngs Moduli (GPa) = 121.86740 121.86740 103.77959
#
# Poissons Ratio (x) = 0.45579 0.00652
# Poissons Ratio (y) = 0.45579 0.00652
# Poissons Ratio (z) = 0.00766 0.00766
#
# Static dielectric constant tensor:
#      x y z
#    x 1.833320 0.000000 0.000000 
#    y 0.000000 1.833320 0.000000 
#    z 0.000000 0.000000 1.891420 
# 
# From -- ./inp_files/535.got.cif
#   From: 2010.05.17/outbox.cif.g08.bks.cpg/sg174_cif.got.tgz:535.got - 2010.05.20 11:22:48.
