data_PCOD9581252
_publ_section_title
;
Structure prediction by ZEFSAII (Michael W. Deem and Ramdas Pophale) SiO2 
 PCOD9581252
Probable space group: P 6/M
;
_chemical_formula_sum "Si O2"
_cell_formula_units_Z 70
_cell_length_a 17.950264
_cell_length_b 17.950264
_cell_length_c 18.871522
_cell_angle_alpha 90.000000
_cell_angle_beta 90.000000
_cell_angle_gamma 120.000000
_cell_volume 5265.980419
_symmetry_space_group_name_H-M "P 6/M"
_symmetry_group_IT_number 175
_symmetry_cell_setting 'hexagonal'
loop_
_space_group_symop_operation_xyz
x,y,z
x-y,x,z
-y,x-y,z
-x,-y,z
-x+y,-x,z
y,-x+y,z
-x,-y,-z
-x+y,-x,-z
y,-x+y,-z
x,y,-z
x-y,x,-z
-y,x-y,-z
loop_
_atom_site_type_symbol
_atom_site_label
_atom_site_fract_x
_atom_site_fract_y
_atom_site_fract_z
Si Si1 0.430018 0.403555 0.583243
Si Si2 0.333334 0.666668 0.413810
Si Si3 0.526947 0.746857 0.416582
Si Si4 0.196624 0.046495 0.923917
Si Si5 0.198022 0.046847 0.767375
Si Si6 0.152988 0.195593 0.500000
Si Si7 0.680949 0.920769 0.365262
O O1 0.500000 0.500000 0.604226
O O2 0.408391 0.406566 0.500000
O O3 0.468310 0.339957 0.587889
O O4 0.342325 0.363441 0.626843
O O5 0.333334 0.666668 0.500000
O O6 0.432499 0.725164 0.392426
O O7 0.537409 0.772459 0.500000
O O8 0.605264 0.822746 0.374961
O O9 0.164043 0.115016 0.924133
O O10 0.237704 0.056217 0.846512
O O11 0.242922 0.057443 0.000000
O O12 0.166422 0.116719 0.760649
O O13 0.266028 0.063320 0.706340
O O14 0.167031 0.114197 0.500000
O O15 0.197330 0.253119 0.430771
#
# Coordination Sequence:
#
# PCOD9581252 Si02
#       7
#    12   4  12  12  12   6  12
#     4  10  19  31  46  61  77 100 134 174 215 254
#     4   9  18  30  48  66  78  93 124 170 223 270
#     4  10  18  30  44  59  78  99 131 171 212 253
#     4   8  13  22  37  56  77 103 136 174 211 244
#     4  10  19  29  41  58  83 114 148 179 207 236
#     4  12  23  34  43  54  76 112 152 182 198 220
#     4  12  21  31  44  59  81 110 141 173 208 244
#
# _framework density 13.292871999999999
#
# number of rings (size 3 to 8) (size 9 to 14) (size 15 to 20)
#    0.000    1.886    1.714    4.543    0.000    4.800 
#    0.000    1.714    0.000    0.000    0.000    0.000 
#    0.000    0.686    0.000    5.829    0.000    4.114 
#
# Total GULP energy -390156.666923 kJ/mol
# GULP energy per Si atom -5573.666670 kJ/mol
# Density = 1.326262 g / cm^3
# Si number density = 13.292872 Si / 1000 Ang^3
#
#
#
# Elastic Constant Matrix: (Units=GPa)
#
#
# Indices 1 2 3 4 5 6 
#
# 1 67.3158 32.6683 39.2669 0.0000 0.0000 0.0006
# 2 32.6683 67.3169 39.2672 0.0000 0.0000 0.0004
# 3 39.2669 39.2672 113.0957 0.0000 0.0000 0.0001
# 4 0.0000 0.0000 0.0000 8.4000 0.0000 0.0000
# 5 0.0000 0.0000 0.0000 0.0000 8.3998 0.0000
# 6 0.0006 0.0004 0.0001 0.0000 0.0000 17.3243
#
#
#
# Elastic Compliance Matrix: (Units=1/GPa)
#
#
# Indices 1 2 3 4 5 6 
#
# 1 0.021307 -0.007555 -0.004775 0.000000 0.000000 -0.000001
# 2 -0.007555 0.021307 -0.004775 0.000000 0.000000 0.000000
# 3 -0.004775 -0.004775 0.012158 0.000000 0.000000 0.000000
# 4 0.000000 0.000000 0.000000 0.119047 0.000000 0.000000
# 5 0.000000 0.000000 0.000000 0.000000 0.119051 0.000000
# 6 -0.000001 0.000000 0.000000 0.000000 0.000000 0.057722
#
#
# Mechanical properties :
#
#
# Convention : Reuss Voigt Hill
#
# Bulk Modulus (GPa) = 48.63187 52.23701 50.43444
# Shear Modulus (GPa) = 12.76637 15.92656 14.34647
#
# Velocity S-wave (km/s) = 3.10238 3.46515 3.28877
# Velocity P-wave (km/s) = 7.03544 7.44258 7.24187
#
# Compressibility (1/GPa) = 0.02056265
#
# Stress axis : x y z
#
# Youngs Moduli (GPa) = 46.93306 46.93387 82.25299
#
# Poissons Ratio (x) = 0.35458 0.39273
# Poissons Ratio (y) = 0.35458 0.39273
# Poissons Ratio (z) = 0.22409 0.22409
#
# Static dielectric constant tensor:
#      x y z
#    x 1.431880 0.000000 0.000000 
#    y 0.000000 1.431880 0.000000 
#    z 0.000000 0.000000 1.447800 
# 
# From -- ./inp_files/2937.got.cif
#   From: 2010.05.17/outbox.cif.g08.bks.cpg/sg175_2_cif.got.tgz:2937.got - 2010.05.20 11:23:22.
