data_PCOD9581331
_publ_section_title
;
Structure prediction by ZEFSAII (Michael W. Deem and Ramdas Pophale) SiO2 
 PCOD9581331
Probable space group: P 6/M
;
_chemical_formula_sum "Si O2"
_cell_formula_units_Z 96
_cell_length_a 22.005276
_cell_length_b 22.005276
_cell_length_c 13.352595
_cell_angle_alpha 90.000000
_cell_angle_beta 90.000000
_cell_angle_gamma 120.000000
_cell_volume 5599.509017
_symmetry_space_group_name_H-M "P 6/M"
_symmetry_group_IT_number 175
_symmetry_cell_setting 'hexagonal'
loop_
_space_group_symop_operation_xyz
x,y,z
x-y,x,z
-y,x-y,z
-x,-y,z
-x+y,-x,z
y,-x+y,z
-x,-y,-z
-x+y,-x,-z
y,-x+y,-z
x,y,-z
x-y,x,-z
-y,x-y,-z
loop_
_atom_site_type_symbol
_atom_site_label
_atom_site_fract_x
_atom_site_fract_y
_atom_site_fract_z
Si Si1 0.141141 0.665812 0.292176
Si Si2 0.557391 0.574892 0.258227
Si Si3 0.850710 0.458330 0.618605
Si Si4 0.745571 0.609942 0.887193
Si Si5 0.928043 0.832327 0.617788
Si Si6 0.344509 0.312885 0.886956
Si Si7 0.302936 0.185448 0.244169
Si Si8 0.807090 0.567061 0.385150
O O1 0.166222 0.610932 0.319884
O O2 0.161678 0.703593 0.183736
O O3 0.173907 0.730294 0.368577
O O4 0.056425 0.621368 0.295608
O O5 0.500000 0.500000 0.212024
O O6 0.517433 0.588415 0.348084
O O7 0.586249 0.637089 0.177565
O O8 0.846942 0.443898 0.500000
O O9 0.805063 0.494936 0.643503
O O10 0.696303 0.644155 0.893549
O O11 0.815196 0.666103 0.828952
O O12 0.760002 0.595567 0.000000
O O13 0.884547 0.873044 0.632823
O O14 0.918238 0.809703 0.500000
O O15 0.900794 0.766394 0.693129
O O16 0.297577 0.242071 0.825090
O O17 0.359217 0.298904 0.000000
O O18 0.366742 0.228287 0.321402
O O19 0.828392 0.579975 0.500000
#
# Coordination Sequence:
#
# PCOD9581331 Si02
#       8
#    12  12  12  12  12  12  12  12
#     4   9  19  33  53  71 100 135 175 213 257 322
#     4   9  18  33  51  74 101 132 171 215 264 315
#     4  10  19  33  51  74 104 136 173 214 260 316
#     4   9  19  34  52  76 104 137 173 219 274 322
#     4  10  21  37  57  82 115 155 196 234 278 336
#     4  10  19  32  50  74 102 132 172 217 269 326
#     4  11  19  33  54  78 109 139 180 226 277 334
#     4  10  20  33  50  74 106 137 169 219 269 321
#
# _framework density 17.144359999999999
#
# number of rings (size 3 to 8) (size 9 to 14) (size 15 to 20)
#    0.000    2.250    1.250    2.000    0.000    3.500 
#    0.750    1.875    0.000    0.000    0.000    0.000 
#    0.000    6.000    0.000    0.000    0.000    0.000 
#
# Total GULP energy -534629.428827 kJ/mol
# GULP energy per Si atom -5569.056550 kJ/mol
# Density = 1.710534 g / cm^3
# Si number density = 17.144360 Si / 1000 Ang^3
#
#
#
# Elastic Constant Matrix: (Units=GPa)
#
#
# Indices 1 2 3 4 5 6 
#
# 1 63.7676 20.6983 46.6043 0.0000 0.0000 0.0000
# 2 20.6983 63.7676 46.6043 0.0000 0.0000 0.0000
# 3 46.6043 46.6043 97.2876 0.0000 0.0000 0.0000
# 4 0.0000 0.0000 0.0000 18.4980 0.0000 0.0000
# 5 0.0000 0.0000 0.0000 0.0000 18.4980 0.0000
# 6 0.0000 0.0000 0.0000 0.0000 0.0000 21.5347
#
#
#
# Elastic Compliance Matrix: (Units=1/GPa)
#
#
# Indices 1 2 3 4 5 6 
#
# 1 0.024167 0.000949 -0.012031 0.000000 0.000000 0.000000
# 2 0.000949 0.024167 -0.012031 0.000000 0.000000 0.000000
# 3 -0.012031 -0.012031 0.021806 0.000000 0.000000 0.000000
# 4 0.000000 0.000000 0.000000 0.054060 0.000000 0.000000
# 5 0.000000 0.000000 0.000000 0.000000 0.054060 0.000000
# 6 0.000000 0.000000 0.000000 0.000000 0.000000 0.046437
#
#
# Mechanical properties :
#
#
# Convention : Reuss Voigt Hill
#
# Bulk Modulus (GPa) = 41.82039 50.29295 46.05667
# Shear Modulus (GPa) = 17.92792 19.10056 18.51424
#
# Velocity S-wave (km/s) = 3.23724 3.34144 3.28975
# Velocity P-wave (km/s) = 6.19831 6.65474 6.43058
#
# Compressibility (1/GPa) = 0.02391178
#
# Stress axis : x y z
#
# Youngs Moduli (GPa) = 41.37869 41.37869 45.85969
#
# Poissons Ratio (x) = -0.03925 0.55175
# Poissons Ratio (y) = -0.03925 0.55175
# Poissons Ratio (z) = 0.49784 0.49784
#
# Static dielectric constant tensor:
#      x y z
#    x 1.588960 0.000000 0.000000 
#    y 0.000000 1.588960 0.000000 
#    z 0.000000 0.000000 1.598000 
# 
# From -- ./inp_files/2167.got.cif
#   From: 2010.05.17/outbox.cif.g08.bks.cpg/sg175_2_cif.got.tgz:2167.got - 2010.05.20 11:23:22.
