data_PCOD9581848
_publ_section_title
;
Structure prediction by ZEFSAII (Michael W. Deem and Ramdas Pophale) SiO2 
 PCOD9581848
Probable space group: P 63/M
;
_chemical_formula_sum "Si O2"
_cell_formula_units_Z 90
_cell_length_a 16.637080
_cell_length_b 16.637080
_cell_length_c 18.372069
_cell_angle_alpha 90.000000
_cell_angle_beta 90.000000
_cell_angle_gamma 120.000000
_cell_volume 4403.955373
_symmetry_space_group_name_H-M "P 63/M"
_symmetry_group_IT_number 176
_symmetry_cell_setting 'hexagonal'
loop_
_space_group_symop_operation_xyz
x,y,z
x-y,x,1/2+z
-y,x-y,z
-x,-y,1/2+z
-x+y,-x,z
y,-x+y,1/2+z
-x,-y,-z
-x+y,-x,1/2-z
y,-x+y,-z
x,y,1/2-z
x-y,x,-z
-y,x-y,1/2-z
loop_
_atom_site_type_symbol
_atom_site_label
_atom_site_fract_x
_atom_site_fract_y
_atom_site_fract_z
Si Si1 0.336070 0.267521 0.385798
Si Si2 0.466524 0.993602 0.879112
Si Si3 0.415709 0.330188 0.828224
Si Si4 0.477140 0.867726 0.510169
Si Si5 0.097689 0.112601 0.750000
Si Si6 0.721840 0.932534 0.642828
Si Si7 0.458836 0.275556 0.521360
Si Si8 0.173889 0.200065 0.488612
O O1 0.399920 0.366269 0.347015
O O2 0.328010 0.178104 0.344992
O O3 0.389527 0.278044 0.462136
O O4 0.233123 0.240095 0.414602
O O5 0.561522 0.055656 0.836272
O O6 0.471967 0.049353 0.952635
O O7 0.475110 0.907050 0.910270
O O8 0.425689 0.293998 0.750000
O O9 0.315352 0.323085 0.830213
O O10 0.422602 0.274873 0.897492
O O11 0.524125 0.806355 0.501529
O O12 0.370430 0.814100 0.485515
O O13 0.150527 0.177209 0.681007
O O14 0.092038 0.012523 0.750000
O O15 0.730188 0.946669 0.556105
O O16 0.177467 0.108877 0.512795
#
# Coordination Sequence:
#
# PCOD9581848 Si02
#       8
#    12  12  12  12   6  12  12  12
#     4  10  21  34  59  91 115 148 196 263 308 368
#     4   9  20  36  56  85 117 150 189 246 309 361
#     4  11  22  40  59  82 119 164 201 246 307 371
#     4   9  18  32  58  80 114 142 183 243 296 355
#     4  10  26  44  60  78 126 184 218 248 294 372
#     4  11  22  40  60  87 119 160 212 253 308 371
#     4  10  19  35  56  87 112 148 194 242 311 362
#     4  10  22  33  55  87 121 154 196 261 315 356
#
# _framework density 20.436174999999999
#
# number of rings (size 3 to 8) (size 9 to 14) (size 15 to 20)
#    0.133    1.867    2.000    2.000    7.467    0.000 
#    1.200    2.667    0.000    0.533    0.000    0.000 
#    0.000    0.000    0.000    0.000    0.000    0.000 
#
# Total GULP energy -501952.608455 kJ/mol
# GULP energy per Si atom -5577.251205 kJ/mol
# Density = 2.038966 g / cm^3
# Si number density = 20.436175 Si / 1000 Ang^3
#
#
#
# Elastic Constant Matrix: (Units=GPa)
#
#
# Indices 1 2 3 4 5 6 
#
# 1 86.0247 26.7621 -2.9118 0.0000 0.0000 0.0000
# 2 26.7621 86.0247 -2.9118 0.0000 0.0000 0.0000
# 3 -2.9118 -2.9118 40.0217 0.0000 0.0000 0.0000
# 4 0.0000 0.0000 0.0000 13.8459 0.0000 0.0000
# 5 0.0000 0.0000 0.0000 0.0000 13.8459 0.0000
# 6 0.0000 0.0000 0.0000 0.0000 0.0000 29.6313
#
#
#
# Elastic Compliance Matrix: (Units=1/GPa)
#
#
# Indices 1 2 3 4 5 6 
#
# 1 0.012887 -0.003987 0.000648 0.000000 0.000000 0.000000
# 2 -0.003987 0.012887 0.000648 0.000000 0.000000 0.000000
# 3 0.000648 0.000648 0.025081 0.000000 0.000000 0.000000
# 4 0.000000 0.000000 0.000000 0.072224 0.000000 0.000000
# 5 0.000000 0.000000 0.000000 0.000000 0.072224 0.000000
# 6 0.000000 0.000000 0.000000 0.000000 0.000000 0.033748
#
#
# Mechanical properties :
#
#
# Convention : Reuss Voigt Hill
#
# Bulk Modulus (GPa) = 21.99248 28.21646 25.10447
# Shear Modulus (GPa) = 20.03278 24.20680 22.11979
#
# Velocity S-wave (km/s) = 3.13431 3.44540 3.29353
# Velocity P-wave (km/s) = 4.88707 5.44654 5.17437
#
# Compressibility (1/GPa) = 0.04547009
#
# Stress axis : x y z
#
# Youngs Moduli (GPa) = 77.59834 77.59834 39.87139
#
# Poissons Ratio (x) = 0.30940 -0.02582
# Poissons Ratio (y) = 0.30940 -0.02582
# Poissons Ratio (z) = -0.05025 -0.05025
#
# Static dielectric constant tensor:
#      x y z
#    x 1.772690 0.000000 0.000000 
#    y 0.000000 1.772690 0.000000 
#    z 0.000000 0.000000 1.747770 
# 
# From -- ./inp_files/3530.got.cif
#   From: 2010.05.17/outbox.cif.g08.bks.cpg/sg176_2_cif.got.tgz:3530.got - 2010.06.03 11:36:45.
