data_PCOD9581526
_publ_section_title
;
Structure prediction by ZEFSAII (Michael W. Deem and Ramdas Pophale) SiO2 
 PCOD9581526
Probable space group: P 6/M
;
_chemical_formula_sum "Si O2"
_cell_formula_units_Z 48
_cell_length_a 19.060547
_cell_length_b 19.060547
_cell_length_c 7.721642
_cell_angle_alpha 90.000000
_cell_angle_beta 90.000000
_cell_angle_gamma 120.000000
_cell_volume 2429.467054
_symmetry_space_group_name_H-M "P 6/M"
_symmetry_group_IT_number 175
_symmetry_cell_setting 'hexagonal'
loop_
_space_group_symop_operation_xyz
x,y,z
x-y,x,z
-y,x-y,z
-x,-y,z
-x+y,-x,z
y,-x+y,z
-x,-y,-z
-x+y,-x,-z
y,-x+y,-z
x,y,-z
x-y,x,-z
-y,x-y,-z
loop_
_atom_site_type_symbol
_atom_site_label
_atom_site_fract_x
_atom_site_fract_y
_atom_site_fract_z
Si Si1 0.630588 0.469926 0.500000
Si Si2 0.181976 0.127548 0.211065
Si Si3 0.554871 0.957373 0.196043
Si Si4 0.290926 0.802876 0.500000
Si Si5 0.897849 0.635688 0.204477
O O1 0.635149 0.522078 0.334095
O O2 0.545688 0.387152 0.500000
O O3 0.706697 0.457114 0.500000
O O4 0.118715 0.155499 0.269336
O O5 0.274221 0.192809 0.256263
O O6 0.179366 0.126174 0.000000
O O7 0.500000 0.000000 0.213584
O O8 0.648872 0.022925 0.222904
O O9 0.545183 0.926606 0.000000
O O10 0.263080 0.832339 0.331545
O O11 0.875040 0.623172 0.000000
#
# Coordination Sequence:
#
# PCOD9581526 Si02
#       5
#     6  12  12   6  12
#     4  12  25  41  62  89 125 165 206 252 312 383
#     4   9  18  34  58  89 126 165 203 245 300 367
#     4  10  20  39  67  91 116 155 204 262 319 365
#     4  12  26  42  61  88 127 167 205 253 313 378
#     4  10  22  40  63  93 124 158 208 263 312 365
#
# _framework density 19.75742
#
# number of rings (size 3 to 8) (size 9 to 14) (size 15 to 20)
#    0.000    1.750    2.500    1.625    3.500    2.000 
#    0.000    0.000    0.000    3.000    0.000    1.750 
#    0.000    0.000    0.000    0.000    0.000    0.000 
#
# Total GULP energy -268208.395637 kJ/mol
# GULP energy per Si atom -5587.674909 kJ/mol
# Density = 1.971245 g / cm^3
# Si number density = 19.757420 Si / 1000 Ang^3
#
#
#
# Elastic Constant Matrix: (Units=GPa)
#
#
# Indices 1 2 3 4 5 6 
#
# 1 109.5109 41.3276 41.0654 0.0000 0.0000 0.0000
# 2 41.3276 109.5109 41.0654 0.0000 0.0000 0.0000
# 3 41.0654 41.0654 68.9885 0.0000 0.0000 0.0000
# 4 0.0000 0.0000 0.0000 1927.3935 -0.0002 0.0000
# 5 0.0000 0.0000 0.0000 -0.0002 1927.3937 0.0000
# 6 0.0000 0.0000 0.0000 0.0000 0.0000 34.0916
#
#
#
# Elastic Compliance Matrix: (Units=1/GPa)
#
#
# Indices 1 2 3 4 5 6 
#
# 1 0.012238 -0.002429 -0.005839 0.000000 0.000000 0.000000
# 2 -0.002429 0.012238 -0.005839 0.000000 0.000000 0.000000
# 3 -0.005839 -0.005839 0.021446 0.000000 0.000000 0.000000
# 4 0.000000 0.000000 0.000000 0.000519 0.000000 0.000000
# 5 0.000000 0.000000 0.000000 0.000000 0.000519 0.000000
# 6 0.000000 0.000000 0.000000 0.000000 0.000000 0.029333
#
#
# Mechanical properties :
#
#
# Convention : Reuss Voigt Hill
#
# Bulk Modulus (GPa) = 56.46861 59.43633 57.95247
# Shear Modulus (GPa) = 45.28713 788.74590 417.01651
#
# Velocity S-wave (km/s) = 4.79284 20.00204 14.54395
# Velocity P-wave (km/s) = 7.69880 23.74006 17.64741
#
# Compressibility (1/GPa) = 0.01770895
#
# Stress axis : x y z
#
# Youngs Moduli (GPa) = 81.71582 81.71582 46.62863
#
# Poissons Ratio (x) = 0.19847 0.27225
# Poissons Ratio (y) = 0.19847 0.27225
# Poissons Ratio (z) = 0.47711 0.47711
#
# Static dielectric constant tensor:
#      x y z
#    x 1.666030 0.000000 0.000000 
#    y 0.000000 1.666030 0.000000 
#    z 0.000000 0.000000 1.737710 
# 
# From -- ./inp_files/627.got.cif
#   From: 2010.05.17/outbox.cif.g08.bks.cpg/sg175_1_cif.got.tgz:627.got - 2010.05.20 11:23:22.
