data_PCOD9581303
_publ_section_title
;
Structure prediction by ZEFSAII (Michael W. Deem and Ramdas Pophale) SiO2 
 PCOD9581303
Probable space group: P 6/M
;
_chemical_formula_sum "Si O2"
_cell_formula_units_Z 74
_cell_length_a 13.445046
_cell_length_b 13.445046
_cell_length_c 29.083499
_cell_angle_alpha 90.000000
_cell_angle_beta 90.000000
_cell_angle_gamma 120.000000
_cell_volume 4553.044252
_symmetry_space_group_name_H-M "P 6/M"
_symmetry_group_IT_number 175
_symmetry_cell_setting 'hexagonal'
loop_
_space_group_symop_operation_xyz
x,y,z
x-y,x,z
-y,x-y,z
-x,-y,z
-x+y,-x,z
y,-x+y,z
-x,-y,-z
-x+y,-x,-z
y,-x+y,-z
x,y,-z
x-y,x,-z
-y,x-y,-z
loop_
_atom_site_type_symbol
_atom_site_label
_atom_site_fract_x
_atom_site_fract_y
_atom_site_fract_z
Si Si1 0.034170 0.253704 0.150559
Si Si2 0.089376 0.453967 0.671128
Si Si3 0.333334 0.666668 0.330517
Si Si4 0.780412 0.034151 0.600968
Si Si5 0.251861 0.218152 0.500000
Si Si6 0.333334 0.666668 0.780911
Si Si7 0.966109 0.746973 0.950642
Si Si8 0.546042 0.635415 0.779282
O O1 0.137512 0.225865 0.154145
O O2 0.041151 0.306782 0.099407
O O3 0.048728 0.342620 0.189799
O O4 0.214991 0.554761 0.655616
O O5 0.096012 0.429415 0.725204
O O6 0.000000 0.500000 0.667397
O O7 0.048707 0.342625 0.640214
O O8 0.333334 0.666667 0.274803
O O9 0.774053 0.911597 0.604554
O O10 0.734246 0.041129 0.549815
O O11 0.221912 0.087079 0.500000
O O12 0.445241 0.660235 0.794781
O O13 0.864206 0.776540 0.950757
O O14 0.958106 0.687476 0.000000
O O15 0.500000 0.500000 0.783014
#
# Coordination Sequence:
#
# PCOD9581303 Si02
#       8
#    12  12   4  12   6   4  12  12
#     4  10  19  30  46  70 100 129 155 189 236 286
#     4  10  20  34  52  72  94 124 160 199 239 282
#     4   9  18  33  51  70  94 124 160 198 237 277
#     4  10  19  32  51  75 101 128 158 193 234 279
#     4   8  15  28  47  70  96 126 159 192 226 270
#     4   9  18  33  51  69  89 122 165 201 231 274
#     4   8  13  22  38  61  89 121 155 188 224 271
#     4  10  20  34  51  70  93 122 161 202 238 278
#
# _framework density 16.252863000000001
#
# number of rings (size 3 to 8) (size 9 to 14) (size 15 to 20)
#    0.000    2.595    0.000    2.514    0.000    7.135 
#    0.000    0.405    0.000    3.405    0.000    1.135 
#    0.000    0.000    0.000    0.000    0.000    0.000 
#
# Total GULP energy -411948.631582 kJ/mol
# GULP energy per Si atom -5566.873400 kJ/mol
# Density = 1.621587 g / cm^3
# Si number density = 16.252863 Si / 1000 Ang^3
#
#
#
# Elastic Constant Matrix: (Units=GPa)
#
#
# Indices 1 2 3 4 5 6 
#
# 1 62.4157 17.3598 56.0806 0.0000 0.0000 0.0003
# 2 17.3598 62.4146 56.0809 0.0000 0.0000 -0.0005
# 3 56.0806 56.0809 129.2866 0.0000 0.0000 0.0000
# 4 0.0000 0.0000 0.0000 18.3605 0.0001 0.0000
# 5 0.0000 0.0000 0.0000 0.0001 18.3601 0.0000
# 6 0.0003 -0.0005 0.0000 0.0000 0.0000 22.5276
#
#
#
# Elastic Compliance Matrix: (Units=1/GPa)
#
#
# Indices 1 2 3 4 5 6 
#
# 1 0.027162 0.004968 -0.013937 0.000000 0.000000 0.000000
# 2 0.004968 0.027163 -0.013938 0.000000 0.000000 0.000001
# 3 -0.013937 -0.013938 0.019826 0.000000 0.000000 0.000000
# 4 0.000000 0.000000 0.000000 0.054465 0.000000 0.000000
# 5 0.000000 0.000000 0.000000 0.000000 0.054466 0.000000
# 6 0.000000 0.000001 0.000000 0.000000 0.000000 0.044390
#
#
# Mechanical properties :
#
#
# Convention : Reuss Voigt Hill
#
# Bulk Modulus (GPa) = 35.28813 57.01772 46.15292
# Shear Modulus (GPa) = 17.68457 20.15603 18.92030
#
# Velocity S-wave (km/s) = 3.30220 3.52540 3.41562
# Velocity P-wave (km/s) = 6.02482 7.19229 6.63429
#
# Compressibility (1/GPa) = 0.02833814
#
# Stress axis : x y z
#
# Youngs Moduli (GPa) = 36.81549 36.81420 50.43860
#
# Poissons Ratio (x) = -0.18289 0.70297
# Poissons Ratio (y) = -0.18290 0.70300
# Poissons Ratio (z) = 0.51311 0.51311
#
# Static dielectric constant tensor:
#      x y z
#    x 1.522730 0.000000 0.000000 
#    y 0.000000 1.522730 0.000000 
#    z 0.000000 0.000000 1.593240 
# 
# From -- ./inp_files/3393.got.cif
#   From: 2010.05.17/outbox.cif.g08.bks.cpg/sg175_2_cif.got.tgz:3393.got - 2010.05.20 11:23:22.
