data_PCOD9581360
_publ_section_title
;
Structure prediction by ZEFSAII (Michael W. Deem and Ramdas Pophale) SiO2 
 PCOD9581360
Probable space group: P 6/M
;
_chemical_formula_sum "Si O2"
_cell_formula_units_Z 84
_cell_length_a 24.505838
_cell_length_b 24.505838
_cell_length_c 7.380016
_cell_angle_alpha 90.000000
_cell_angle_beta 90.000000
_cell_angle_gamma 120.000000
_cell_volume 3838.195143
_symmetry_space_group_name_H-M "P 6/M"
_symmetry_group_IT_number 175
_symmetry_cell_setting 'hexagonal'
loop_
_space_group_symop_operation_xyz
x,y,z
x-y,x,z
-y,x-y,z
-x,-y,z
-x+y,-x,z
y,-x+y,z
-x,-y,-z
-x+y,-x,-z
y,-x+y,-z
x,y,-z
x-y,x,-z
-y,x-y,-z
loop_
_atom_site_type_symbol
_atom_site_label
_atom_site_fract_x
_atom_site_fract_y
_atom_site_fract_z
Si Si1 0.568972 0.523752 0.789157
Si Si2 0.279127 0.753417 0.283911
Si Si3 0.053604 0.274179 0.221364
Si Si4 0.422098 0.811485 0.280008
Si Si5 0.809785 0.190554 0.216003
Si Si6 0.111007 0.974369 0.778855
Si Si7 0.944536 0.303189 0.222003
O O1 0.500000 0.500000 0.708963
O O2 0.585844 0.468497 0.778977
O O3 0.628681 0.586585 0.713969
O O4 0.565189 0.538461 0.000000
O O5 0.282695 0.748141 0.500000
O O6 0.350581 0.784958 0.217125
O O7 0.233958 0.682269 0.216884
O O8 0.245814 0.794295 0.248958
O O9 0.122385 0.327977 0.283714
O O10 0.038726 0.205089 0.278157
O O11 0.998883 0.288457 0.276529
O O12 0.053934 0.274495 0.000000
O O13 0.422612 0.811771 0.500000
O O14 0.875847 0.248304 0.283390
O O15 0.816924 0.189027 0.000000
O O16 0.042689 0.918833 0.721247
O O17 0.110960 0.974431 0.000000
O O18 0.943046 0.303507 0.000000
#
# Coordination Sequence:
#
# PCOD9581360 Si02
#       7
#    12  12  12  12  12  12  12
#     4  10  21  35  53  77 107 140 174 217 263 307
#     4  10  21  37  56  77 101 131 167 211 261 311
#     4   9  17  27  44  69  98 132 170 210 254 305
#     4  10  21  38  58  78 103 136 173 214 263 320
#     4  10  19  32  53  77 101 134 174 214 254 304
#     4   9  15  23  36  59  93 133 173 211 250 294
#     4   9  17  31  47  70 102 132 167 211 256 302
#
# _framework density 21.885285
#
# number of rings (size 3 to 8) (size 9 to 14) (size 15 to 20)
#    0.000    2.429    1.429    1.286    2.000    6.000 
#    0.000    0.000    0.000    2.571    0.000    0.000 
#    0.000    0.000    0.000    0.286    0.000    5.286 
#
# Total GULP energy -469534.433737 kJ/mol
# GULP energy per Si atom -5589.695640 kJ/mol
# Density = 2.183547 g / cm^3
# Si number density = 21.885285 Si / 1000 Ang^3
#
#
#
# Elastic Constant Matrix: (Units=GPa)
#
#
# Indices 1 2 3 4 5 6 
#
# 1 208.0278 124.3237 -7.5669 0.0000 0.0000 0.0000
# 2 124.3237 208.0278 -7.5669 0.0000 0.0000 0.0000
# 3 -7.5669 -7.5669 74.4672 0.0000 0.0000 0.0000
# 4 0.0000 0.0000 0.0000 -43.7785 0.0000 0.0000
# 5 0.0000 0.0000 0.0000 0.0000 -43.7785 0.0000
# 6 0.0000 0.0000 0.0000 0.0000 0.0000 41.8521
#
#
#
# Elastic Compliance Matrix: (Units=1/GPa)
#
#
# Indices 1 2 3 4 5 6 
#
# 1 0.007485 -0.004462 0.000307 0.000000 0.000000 0.000000
# 2 -0.004462 0.007485 0.000307 0.000000 0.000000 0.000000
# 3 0.000307 0.000307 0.013491 0.000000 0.000000 0.000000
# 4 0.000000 0.000000 0.000000 -0.022842 0.000000 0.000000
# 5 0.000000 0.000000 0.000000 0.000000 -0.022842 0.000000
# 6 0.000000 0.000000 0.000000 0.000000 0.000000 0.023894
#
#
# Mechanical properties :
#
#
# Convention : Reuss Voigt Hill
#
# Bulk Modulus (GPa) = 48.15680 78.76696 63.46188
# Shear Modulus (GPa) = 234.88291 16.28120 125.58205
#
# Velocity S-wave (km/s) = 10.37100 2.73047 7.58331
# Velocity P-wave (km/s) = 12.86321 6.78304 10.28279
#
# Compressibility (1/GPa) = 0.02076550
#
# Stress axis : x y z
#
# Youngs Moduli (GPa) = 133.60332 133.60333 74.12265
#
# Poissons Ratio (x) = 0.59614 -0.02277
# Poissons Ratio (y) = 0.59614 -0.02277
# Poissons Ratio (z) = -0.04104 -0.04104
#
# Static dielectric constant tensor:
#      x y z
#    x 1.749210 0.000000 0.000000 
#    y 0.000000 1.749210 0.000000 
#    z 0.000000 0.000000 1.850710 
# 
# From -- ./inp_files/1976.got.cif
#   From: 2010.05.17/outbox.cif.g08.bks.cpg/sg175_1_cif.got.tgz:1976.got - 2010.05.20 11:23:22.
