data_PCOD9581552
_publ_section_title
;
Structure prediction by ZEFSAII (Michael W. Deem and Ramdas Pophale) SiO2 
 PCOD9581552
Probable space group: P 6/M
;
_chemical_formula_sum "Si O2"
_cell_formula_units_Z 58
_cell_length_a 15.242920
_cell_length_b 15.242920
_cell_length_c 14.382298
_cell_angle_alpha 90.000000
_cell_angle_beta 90.000000
_cell_angle_gamma 120.000000
_cell_volume 2893.978200
_symmetry_space_group_name_H-M "P 6/M"
_symmetry_group_IT_number 175
_symmetry_cell_setting 'hexagonal'
loop_
_space_group_symop_operation_xyz
x,y,z
x-y,x,z
-y,x-y,z
-x,-y,z
-x+y,-x,z
y,-x+y,z
-x,-y,-z
-x+y,-x,-z
y,-x+y,-z
x,y,-z
x-y,x,-z
-y,x-y,-z
loop_
_atom_site_type_symbol
_atom_site_label
_atom_site_fract_x
_atom_site_fract_y
_atom_site_fract_z
Si Si1 0.827030 0.262787 0.100251
Si Si2 0.500000 0.000000 0.736620
Si Si3 0.333333 0.666666 0.391645
Si Si4 0.897816 0.139644 0.612164
Si Si5 0.057897 0.407149 0.101356
Si Si6 0.536353 0.826731 0.693124
O O1 0.766303 0.142450 0.104154
O O2 0.801259 0.293122 0.197764
O O3 0.946605 0.312608 0.103142
O O4 0.800830 0.291991 0.000000
O O5 0.591075 0.064540 0.809990
O O6 0.473310 0.072899 0.678633
O O7 0.333334 0.666668 0.500000
O O8 0.282196 0.550779 0.359196
O O9 0.889973 0.150590 0.500000
O O10 0.854082 0.203981 0.665411
O O11 0.018442 0.186683 0.632909
O O12 0.070881 0.459211 0.000000
#
# Coordination Sequence:
#
# PCOD9581552 Si02
#       6
#    12   6   4  12  12  12
#     4   9  19  34  56  85 118 158 205 252 303 363
#     4  10  21  36  57  84 114 160 210 260 300 366
#     4  12  27  45  61  89 133 174 210 261 322 389
#     4  10  23  44  71  98 123 157 210 275 332 379
#     4   9  17  32  53  79 112 155 203 253 301 353
#     4  11  24  40  63  92 129 171 214 254 315 383
#
# _framework density 20.041615
#
# number of rings (size 3 to 8) (size 9 to 14) (size 15 to 20)
#    0.000    2.069    0.000    2.379    8.690    1.655 
#    0.000    2.069    0.000    0.414    0.000    2.897 
#    0.000    0.000    0.000    0.000    0.000    0.000 
#
# Total GULP energy -323095.195838 kJ/mol
# GULP energy per Si atom -5570.606825 kJ/mol
# Density = 1.999600 g / cm^3
# Si number density = 20.041615 Si / 1000 Ang^3
#
#
#
# Elastic Constant Matrix: (Units=GPa)
#
#
# Indices 1 2 3 4 5 6 
#
# 1 45.9497 109.6207 32.8399 0.0000 0.0000 0.0015
# 2 109.6207 45.9497 32.8418 0.0000 0.0000 -0.0002
# 3 32.8399 32.8418 89.2259 0.0000 0.0000 0.0020
# 4 0.0000 0.0000 0.0000 2.7010 -0.0003 0.0000
# 5 0.0000 0.0000 0.0000 -0.0003 2.7010 0.0000
# 6 0.0015 -0.0002 0.0020 0.0000 0.0000 -31.8381
#
#
#
# Elastic Compliance Matrix: (Units=1/GPa)
#
#
# Indices 1 2 3 4 5 6 
#
# 1 -0.004047 0.011658 -0.002801 0.000000 0.000000 0.000000
# 2 0.011658 -0.004048 -0.002801 0.000000 0.000000 0.000000
# 3 -0.002801 -0.002801 0.013270 0.000000 0.000000 0.000001
# 4 0.000000 0.000000 0.000000 0.370239 0.000040 0.000000
# 5 0.000000 0.000000 0.000000 0.000040 0.370235 0.000000
# 6 0.000000 0.000000 0.000001 0.000000 0.000000 -0.031409
#
#
# Mechanical properties :
#
#
# Convention : Reuss Voigt Hill
#
# Bulk Modulus (GPa) = 57.85028 59.08114 58.46571
# Shear Modulus (GPa) = 7.06325 -4.89904 1.08211
#
# Velocity S-wave (km/s) = 1.87935 -1.56516 0.73560
# Velocity P-wave (km/s) = 5.79974 5.12610 5.47329
#
# Compressibility (1/GPa) = 0.01728600
#
# Stress axis : x y z
#
# Youngs Moduli (GPa) = -247.06774 -247.05774 75.36053
#
# Poissons Ratio (x) = 2.88024 0.21111
# Poissons Ratio (y) = 2.88036 0.21109
# Poissons Ratio (z) = -0.69213 -0.69201
#
# Static dielectric constant tensor:
#      x y z
#    x 1.712920 0.000000 0.000000 
#    y 0.000000 1.712920 0.000000 
#    z 0.000000 0.000000 1.778990 
# 
# From -- ./inp_files/2394.got.cif
#   From: 2010.05.17/outbox.cif.g08.bks.cpg/sg175_2_cif.got.tgz:2394.got - 2010.05.20 11:23:22.
