data_PCOD9581398
_publ_section_title
;
Structure prediction by ZEFSAII (Michael W. Deem and Ramdas Pophale) SiO2 
 PCOD9581398
Probable space group: P 6/M
;
_chemical_formula_sum "Si O2"
_cell_formula_units_Z 72
_cell_length_a 10.809377
_cell_length_b 10.809377
_cell_length_c 33.522032
_cell_angle_alpha 90.000000
_cell_angle_beta 90.000000
_cell_angle_gamma 120.000000
_cell_volume 3392.050397
_symmetry_space_group_name_H-M "P 6/M"
_symmetry_group_IT_number 175
_symmetry_cell_setting 'hexagonal'
loop_
_space_group_symop_operation_xyz
x,y,z
x-y,x,z
-y,x-y,z
-x,-y,z
-x+y,-x,z
y,-x+y,z
-x,-y,-z
-x+y,-x,-z
y,-x+y,-z
x,y,-z
x-y,x,-z
-y,x-y,-z
loop_
_atom_site_type_symbol
_atom_site_label
_atom_site_fract_x
_atom_site_fract_y
_atom_site_fract_z
Si Si1 0.831424 0.490772 0.500000
Si Si2 0.257313 0.933817 0.336306
Si Si3 0.511085 0.343018 0.173557
Si Si4 0.741591 0.065840 0.423033
Si Si5 0.500000 0.500000 0.101536
Si Si6 0.923845 0.249308 0.953074
Si Si7 0.323016 0.259943 0.249714
O O1 0.671520 0.468708 0.500000
O O2 0.905897 0.572189 0.459864
O O3 0.313942 0.918161 0.379298
O O4 0.315295 0.919474 0.293363
O O5 0.090356 0.815626 0.336314
O O6 0.529170 0.204574 0.174600
O O7 0.457818 0.368176 0.131699
O O8 0.425052 0.335871 0.212584
O O9 0.909023 0.185680 0.425436
O O10 0.363515 0.456201 0.073686
O O11 0.084377 0.277890 0.945727
O O12 0.914504 0.277171 0.000000
O O13 0.183961 0.277054 0.247637
#
# Coordination Sequence:
#
# PCOD9581398 Si02
#       7
#     6  12  12  12   6  12  12
#     4  10  24  40  50  70 102 156 192 218 262 334
#     4   8  15  28  51  82 113 141 175 226 291 350
#     4  10  23  38  56  81 113 160 196 248 301 344
#     4  10  19  34  58  86 110 134 173 234 296 345
#     4  12  21  40  64  92 124 160 220 251 302 362
#     4  10  22  41  66  97 131 166 205 258 319 376
#     4  10  19  35  58  86 117 152 194 240 292 355
#
# _framework density 21.226101
#
# number of rings (size 3 to 8) (size 9 to 14) (size 15 to 20)
#    0.500    1.667    0.000    3.417    0.000    4.667 
#    1.000    2.500    0.000    8.000    0.000    0.000 
#    0.000    0.000    0.000    0.000    0.000    0.000 
#
# Total GULP energy -401595.848232 kJ/mol
# GULP energy per Si atom -5577.720114 kJ/mol
# Density = 2.117779 g / cm^3
# Si number density = 21.226101 Si / 1000 Ang^3
#
#
#
# Elastic Constant Matrix: (Units=GPa)
#
#
# Indices 1 2 3 4 5 6 
#
# 1 65.5880 5.8806 55.4887 0.0000 0.0000 0.0000
# 2 5.8806 65.5880 55.4887 0.0000 0.0000 0.0000
# 3 55.4887 55.4887 193.9947 0.0000 0.0000 0.0000
# 4 0.0000 0.0000 0.0000 18.1018 0.0000 0.0000
# 5 0.0000 0.0000 0.0000 0.0000 18.1018 0.0000
# 6 0.0000 0.0000 0.0000 0.0000 0.0000 29.8537
#
#
#
# Elastic Compliance Matrix: (Units=1/GPa)
#
#
# Indices 1 2 3 4 5 6 
#
# 1 0.020961 0.004212 -0.007200 0.000000 0.000000 0.000000
# 2 0.004212 0.020961 -0.007200 0.000000 0.000000 0.000000
# 3 -0.007200 -0.007200 0.009274 0.000000 0.000000 0.000000
# 4 0.000000 0.000000 0.000000 0.055243 0.000000 0.000000
# 5 0.000000 0.000000 0.000000 0.000000 0.055243 0.000000
# 6 0.000000 0.000000 0.000000 0.000000 0.000000 0.033497
#
#
# Mechanical properties :
#
#
# Convention : Reuss Voigt Hill
#
# Bulk Modulus (GPa) = 32.44814 62.09852 47.27333
# Shear Modulus (GPa) = 22.14085 27.09898 24.61992
#
# Velocity S-wave (km/s) = 3.23320 3.57694 3.40941
# Velocity P-wave (km/s) = 5.40909 6.81019 6.14967
#
# Compressibility (1/GPa) = 0.03081841
#
# Stress axis : x y z
#
# Youngs Moduli (GPa) = 47.70866 47.70866 107.83115
#
# Poissons Ratio (x) = -0.20096 0.77641
# Poissons Ratio (y) = -0.20096 0.77641
# Poissons Ratio (z) = 0.34351 0.34351
#
# Static dielectric constant tensor:
#      x y z
#    x 1.777820 0.000000 0.000000 
#    y 0.000000 1.777820 0.000000 
#    z 0.000000 0.000000 1.796840 
# 
# From -- ./inp_files/3391.got.cif
#   From: 2010.05.17/outbox.cif.g08.bks.cpg/sg175_2_cif.got.tgz:3391.got - 2010.05.20 11:23:22.
