data_PCOD9581719
_publ_section_title
;
Structure prediction by ZEFSAII (Michael W. Deem and Ramdas Pophale) SiO2 
 PCOD9581719
Probable space group: P 6/M
;
_chemical_formula_sum "Si O2"
_cell_formula_units_Z 72
_cell_length_a 24.000000
_cell_length_b 24.000000
_cell_length_c 9.000000
_cell_angle_alpha 90.000000
_cell_angle_beta 90.000000
_cell_angle_gamma 120.000000
_cell_volume 4489.475693
_symmetry_space_group_name_H-M "P 6/M"
_symmetry_group_IT_number 175
_symmetry_cell_setting 'hexagonal'
loop_
_space_group_symop_operation_xyz
x,y,z
x-y,x,z
-y,x-y,z
-x,-y,z
-x+y,-x,z
y,-x+y,z
-x,-y,-z
-x+y,-x,-z
y,-x+y,-z
x,y,-z
x-y,x,-z
-y,x-y,-z
loop_
_atom_site_type_symbol
_atom_site_label
_atom_site_fract_x
_atom_site_fract_y
_atom_site_fract_z
Si Si1 0.366669 0.850093 0.830474
Si Si2 0.942158 0.311807 0.321458
Si Si3 0.743481 0.263540 0.330417
Si Si4 0.713200 0.075142 0.169418
Si Si5 0.363633 0.177080 0.670063
Si Si6 0.515556 0.130337 0.321322
O O1 0.319053 0.779490 0.765285
O O2 0.328123 0.888607 0.822777
O O3 0.431730 0.885359 0.737432
O O4 0.382577 0.845980 0.000000
O O5 0.938249 0.310700 0.500000
O O6 0.892146 0.239559 0.271401
O O7 0.916429 0.359270 0.269038
O O8 0.012812 0.334840 0.269248
O O9 0.725078 0.268080 0.500000
O O10 0.783018 0.224901 0.334828
O O11 0.796603 0.333443 0.274070
O O12 0.783343 0.125039 0.229597
O O13 0.714754 0.057253 0.000000
O O14 0.341616 0.173141 0.500000
O O15 0.515100 0.130383 0.500000
#
# Coordination Sequence:
#
# PCOD9581719 Si02
#       6
#    12  12  12  12  12  12
#     4  10  20  31  43  62  88 115 144 183 232 283
#     4   9  18  32  50  70  89 115 153 190 224 265
#     4   8  15  30  48  61  75 102 142 183 225 273
#     4  10  20  31  45  68  95 122 149 178 222 277
#     4   8  15  30  50  67  85 111 145 184 218 254
#     4   9  18  32  48  64  82 109 148 192 235 276
#
# _framework density 16.037507000000002
#
# number of rings (size 3 to 8) (size 9 to 14) (size 15 to 20)
#    0.000    3.000    0.000    3.000    0.000    4.667 
#    1.000    6.667    0.000    0.000    0.000    0.000 
#    0.000    0.000    0.000    0.500    0.000    9.667 
#
# Total GULP energy -400848.374327 kJ/mol
# GULP energy per Si atom -5567.338532 kJ/mol
# Density = 1.600101 g / cm^3
# Si number density = 16.037507 Si / 1000 Ang^3
#
#
#
# Elastic Constant Matrix: (Units=GPa)
#
#
# Indices 1 2 3 4 5 6 
#
# 1 1.5749 5.4646 19.0378 0.0000 0.0000 0.0000
# 2 5.4646 1.5749 19.0378 0.0000 0.0000 0.0000
# 3 19.0378 19.0378 16.9396 0.0000 0.0000 0.0000
# 4 0.0000 0.0000 0.0000 -2.9184 0.0000 0.0000
# 5 0.0000 0.0000 0.0000 0.0000 -2.9184 0.0000
# 6 0.0000 0.0000 0.0000 0.0000 0.0000 -1.9448
#
#
#
# Elastic Compliance Matrix: (Units=1/GPa)
#
#
# Indices 1 2 3 4 5 6 
#
# 1 -0.142531 0.114561 0.031435 0.000000 0.000000 0.000000
# 2 0.114561 -0.142531 0.031435 0.000000 0.000000 0.000000
# 3 0.031435 0.031435 -0.011623 0.000000 0.000000 0.000000
# 4 0.000000 0.000000 0.000000 -0.342649 0.000000 0.000000
# 5 0.000000 0.000000 0.000000 0.000000 -0.342649 0.000000
# 6 0.000000 0.000000 0.000000 0.000000 0.000000 -0.514185
#
#
# Mechanical properties :
#
#
# Convention : Reuss Voigt Hill
#
# Bulk Modulus (GPa) = 17.18954 11.90778 14.54866
# Shear Modulus (GPa) = -2.72979 -3.11972 -2.92476
#
# Velocity S-wave (km/s) = -1.30607 -1.39624 -1.35191
# Velocity P-wave (km/s) = 2.90984 2.20040 2.57962
#
# Compressibility (1/GPa) = 0.05817490
#
# Stress axis : x y z
#
# Youngs Moduli (GPa) = -7.01599 -7.01599 -86.03278
#
# Poissons Ratio (x) = 0.80376 2.70442
# Poissons Ratio (y) = 0.80376 2.70442
# Poissons Ratio (z) = 0.22055 0.22055
#
# Static dielectric constant tensor:
#      x y z
#    x 1.534360 0.000000 0.000000 
#    y 0.000000 1.534360 0.000000 
#    z 0.000000 0.000000 1.537380 
# 
# From -- ./inp_files/1148.got.cif
#   From: 2010.05.17/outbox.ucp.g08.bks.cvg/sg175_1_cif.got.tgz:1148.got - 2010.06.11 15:18:44.
