data_PCOD9581346
_publ_section_title
;
Structure prediction by ZEFSAII (Michael W. Deem and Ramdas Pophale) SiO2 
 PCOD9581346
Probable space group: P 6/M
;
_chemical_formula_sum "Si O2"
_cell_formula_units_Z 66
_cell_length_a 10.557264
_cell_length_b 10.557264
_cell_length_c 30.801532
_cell_angle_alpha 90.000000
_cell_angle_beta 90.000000
_cell_angle_gamma 120.000000
_cell_volume 2973.073961
_symmetry_space_group_name_H-M "P 6/M"
_symmetry_group_IT_number 175
_symmetry_cell_setting 'hexagonal'
loop_
_space_group_symop_operation_xyz
x,y,z
x-y,x,z
-y,x-y,z
-x,-y,z
-x+y,-x,z
y,-x+y,z
-x,-y,-z
-x+y,-x,-z
y,-x+y,-z
x,y,-z
x-y,x,-z
-y,x-y,-z
loop_
_atom_site_type_symbol
_atom_site_label
_atom_site_fract_x
_atom_site_fract_y
_atom_site_fract_z
Si Si1 0.255432 0.918366 0.814090
Si Si2 0.670588 0.736495 0.452496
Si Si3 0.339251 0.253072 0.092999
Si Si4 0.341422 0.834656 0.366463
Si Si5 0.747847 0.087462 0.000000
Si Si6 0.072349 0.332563 0.279717
O O1 0.313105 0.895587 0.860473
O O2 0.314980 0.903820 0.767340
O O3 0.082323 0.801634 0.814125
O O4 0.812161 0.718937 0.450519
O O5 0.598698 0.681066 0.500000
O O6 0.571254 0.663557 0.410954
O O7 0.201784 0.280929 0.092978
O O8 0.418589 0.310959 0.046501
O O9 0.199630 0.672310 0.366639
O O10 0.334311 0.904473 0.321552
O O11 0.921904 0.202545 0.000000
O O12 0.192458 0.281165 0.281464
#
# Coordination Sequence:
#
# PCOD9581346 Si02
#       6
#    12  12  12  12   6  12
#     4   8  13  20  32  52  77 105 139 183 234 282
#     4  10  21  38  62  89 113 135 161 199 243 282
#     4   8  11  14  20  34  60  95 135 174 212 260
#     4  10  24  40  52  73 103 138 174 203 235 284
#     4   8  11  12  16  28  52  92 136 172 204 248
#     4  10  19  32  52  75  97 123 159 207 257 298
#
# _framework density 22.199245000000001
#
# number of rings (size 3 to 8) (size 9 to 14) (size 15 to 20)
#    0.364    2.545    0.000    1.909    0.000    8.727 
#    0.000    3.636    0.000    0.000    0.000    0.000 
#    0.000    0.000    0.000    1.636    0.000   36.364 
#
# Total GULP energy -367791.562103 kJ/mol
# GULP energy per Si atom -5572.599426 kJ/mol
# Density = 2.214872 g / cm^3
# Si number density = 22.199245 Si / 1000 Ang^3
#
#
#
# Elastic Constant Matrix: (Units=GPa)
#
#
# Indices 1 2 3 4 5 6 
#
# 1 49.9670 3.1508 52.6248 0.0000 0.0000 0.0000
# 2 3.1508 49.9670 52.6248 0.0000 0.0000 0.0000
# 3 52.6248 52.6248 288.4496 0.0000 0.0000 0.0000
# 4 0.0000 0.0000 0.0000 -50.6789 0.0000 0.0000
# 5 0.0000 0.0000 0.0000 0.0000 -50.6789 0.0000
# 6 0.0000 0.0000 0.0000 0.0000 0.0000 23.4081
#
#
#
# Elastic Compliance Matrix: (Units=1/GPa)
#
#
# Indices 1 2 3 4 5 6 
#
# 1 0.025422 0.004062 -0.005379 0.000000 0.000000 0.000000
# 2 0.004062 0.025422 -0.005379 0.000000 0.000000 0.000000
# 3 -0.005379 -0.005379 0.005430 0.000000 0.000000 0.000000
# 4 0.000000 0.000000 0.000000 -0.019732 0.000000 0.000000
# 5 0.000000 0.000000 0.000000 0.000000 -0.019732 0.000000
# 6 0.000000 0.000000 0.000000 0.000000 0.000000 0.042720
#
#
# Mechanical properties :
#
#
# Convention : Reuss Voigt Hill
#
# Bulk Modulus (GPa) = 23.31980 67.24273 45.28127
# Shear Modulus (GPa) = 57.32857 3.07561 30.20209
#
# Velocity S-wave (km/s) = 5.08730 1.17833 3.69250
# Velocity P-wave (km/s) = 6.71082 5.67517 6.21461
#
# Compressibility (1/GPa) = 0.04288201
#
# Stress axis : x y z
#
# Youngs Moduli (GPa) = 39.33549 39.33549 184.17678
#
# Poissons Ratio (x) = -0.15979 0.99072
# Poissons Ratio (y) = -0.15979 0.99072
# Poissons Ratio (z) = 0.21159 0.21159
#
# Static dielectric constant tensor:
#      x y z
#    x 1.780690 0.000000 0.000000 
#    y 0.000000 1.780690 0.000000 
#    z 0.000000 0.000000 1.905700 
# 
# From -- ./inp_files/3355.got.cif
#   From: 2010.05.17/outbox.cif.g08.bks.cpg/sg175_2_cif.got.tgz:3355.got - 2010.05.20 11:23:22.
