data_PCOD9581517
_publ_section_title
;
Structure prediction by ZEFSAII (Michael W. Deem and Ramdas Pophale) SiO2 
 PCOD9581517
Probable space group: P 6/M
;
_chemical_formula_sum "Si O2"
_cell_formula_units_Z 48
_cell_length_a 9.641537
_cell_length_b 9.641537
_cell_length_c 23.605140
_cell_angle_alpha 90.000000
_cell_angle_beta 90.000000
_cell_angle_gamma 120.000000
_cell_volume 1900.333204
_symmetry_space_group_name_H-M "P 6/M"
_symmetry_group_IT_number 175
_symmetry_cell_setting 'hexagonal'
loop_
_space_group_symop_operation_xyz
x,y,z
x-y,x,z
-y,x-y,z
-x,-y,z
-x+y,-x,z
y,-x+y,z
-x,-y,-z
-x+y,-x,-z
y,-x+y,-z
x,y,-z
x-y,x,-z
-y,x-y,-z
loop_
_atom_site_type_symbol
_atom_site_label
_atom_site_fract_x
_atom_site_fract_y
_atom_site_fract_z
Si Si1 0.623709 0.739659 0.060455
Si Si2 0.636926 0.908368 0.500000
Si Si3 0.628168 0.735749 0.696485
Si Si4 0.000000 0.500000 0.399774
Si Si5 0.374905 0.260633 0.818749
O O1 0.698295 0.931376 0.060439
O O2 0.536465 0.677311 0.120948
O O3 0.536166 0.677694 0.000000
O O4 0.542362 0.898518 0.556819
O O5 0.784067 0.087202 0.500000
O O6 0.773536 0.698091 0.693757
O O7 0.524828 0.639831 0.643089
O O8 0.542440 0.678610 0.757899
O O9 0.231323 0.300805 0.818749
#
# Coordination Sequence:
#
# PCOD9581517 Si02
#       5
#    12   6  12   6  12
#     4   8  11  14  23  47  85 130 175 225 286 348
#     4  11  25  50  76 102 123 155 194 234 276 331
#     4  10  20  38  60  88 118 159 206 251 294 342
#     4  11  24  40  58  98 127 152 184 220 291 332
#     4   8  13  21  38  62  96 137 186 238 288 341
#
# _framework density 25.25873
#
# number of rings (size 3 to 8) (size 9 to 14) (size 15 to 20)
#    0.000    2.750    0.000    2.375    0.000    5.000 
#   21.000    2.500    0.000    0.000    0.000    0.875 
#    0.000    0.000    0.000    0.000    1.000    0.000 
#
# Total GULP energy -268313.456891 kJ/mol
# GULP energy per Si atom -5589.863685 kJ/mol
# Density = 2.520124 g / cm^3
# Si number density = 25.258730 Si / 1000 Ang^3
#
#
#
# Elastic Constant Matrix: (Units=GPa)
#
#
# Indices 1 2 3 4 5 6 
#
# 1 92.6809 36.3345 54.9960 0.0000 0.0000 0.0000
# 2 36.3345 92.6809 54.9960 0.0000 0.0000 0.0000
# 3 54.9960 54.9960 329.5587 0.0000 0.0000 0.0000
# 4 0.0000 0.0000 0.0000 74.8371 0.0000 0.0000
# 5 0.0000 0.0000 0.0000 0.0000 74.8371 0.0000
# 6 0.0000 0.0000 0.0000 0.0000 0.0000 28.1732
#
#
#
# Elastic Compliance Matrix: (Units=1/GPa)
#
#
# Indices 1 2 3 4 5 6 
#
# 1 0.013392 -0.004355 -0.001508 0.000000 0.000000 0.000000
# 2 -0.004355 0.013392 -0.001508 0.000000 0.000000 0.000000
# 3 -0.001508 -0.001508 0.003538 0.000000 0.000000 0.000000
# 4 0.000000 0.000000 0.000000 0.013362 0.000000 0.000000
# 5 0.000000 0.000000 0.000000 0.000000 0.013362 0.000000
# 6 0.000000 0.000000 0.000000 0.000000 0.000000 0.035495
#
#
# Mechanical properties :
#
#
# Convention : Reuss Voigt Hill
#
# Bulk Modulus (GPa) = 64.18924 89.73039 76.95981
# Shear Modulus (GPa) = 44.45357 60.14242 52.29800
#
# Velocity S-wave (km/s) = 4.19970 4.88490 4.55520
# Velocity P-wave (km/s) = 6.99889 8.21084 7.62897
#
# Compressibility (1/GPa) = 0.01557894
#
# Stress axis : x y z
#
# Youngs Moduli (GPa) = 74.67135 74.67135 282.67195
#
# Poissons Ratio (x) = 0.32522 0.42627
# Poissons Ratio (y) = 0.32522 0.42627
# Poissons Ratio (z) = 0.11261 0.11261
#
# Static dielectric constant tensor:
#      x y z
#    x 1.976150 0.000000 0.000000 
#    y 0.000000 1.976150 0.000000 
#    z 0.000000 0.000000 2.064590 
# 
# From -- ./inp_files/3193.got.cif
#   From: 2010.05.17/outbox.cif.g08.bks.cpg/sg175_2_cif.got.tgz:3193.got - 2010.05.20 11:23:22.
