data_PCOD9581962
_publ_section_title
;
Structure prediction by ZEFSAII (Michael W. Deem and Ramdas Pophale) SiO2 
 PCOD9581962
Probable space group: P 63/M
;
_chemical_formula_sum "Si O2"
_cell_formula_units_Z 90
_cell_length_a 17.220310
_cell_length_b 17.220310
_cell_length_c 15.117106
_cell_angle_alpha 90.000000
_cell_angle_beta 90.000000
_cell_angle_gamma 120.000000
_cell_volume 3882.229638
_symmetry_space_group_name_H-M "P 63/M"
_symmetry_group_IT_number 176
_symmetry_cell_setting 'hexagonal'
loop_
_space_group_symop_operation_xyz
x,y,z
x-y,x,1/2+z
-y,x-y,z
-x,-y,1/2+z
-x+y,-x,z
y,-x+y,1/2+z
-x,-y,-z
-x+y,-x,1/2-z
y,-x+y,-z
x,y,1/2-z
x-y,x,-z
-y,x-y,1/2-z
loop_
_atom_site_type_symbol
_atom_site_label
_atom_site_fract_x
_atom_site_fract_y
_atom_site_fract_z
Si Si1 0.564780 0.141873 0.349636
Si Si2 0.412704 0.463117 0.357890
Si Si3 0.552044 0.297200 0.750000
Si Si4 0.854140 0.126648 0.354245
Si Si5 0.757161 0.041757 0.857806
Si Si6 0.862200 0.525132 0.587023
Si Si7 0.707445 0.933464 0.141844
Si Si8 0.245884 0.768107 0.906134
O O1 0.527311 0.127486 0.250000
O O2 0.379322 0.202818 0.365668
O O3 0.668947 0.217105 0.349721
O O4 0.562823 0.051494 0.379228
O O5 0.413156 0.468854 0.250000
O O6 0.449383 0.559811 0.401801
O O7 0.315035 0.384058 0.385880
O O8 0.602301 0.240664 0.750000
O O9 0.492824 0.284991 0.665937
O O10 0.865752 0.116395 0.250000
O O11 0.953135 0.195534 0.389303
O O12 0.792937 0.026239 0.389966
O O13 0.749888 0.038566 0.750000
O O14 0.676107 0.052872 0.896034
O O15 0.847136 0.132957 0.884177
O O16 0.810901 0.521139 0.499188
O O17 0.707181 0.935302 0.250000
O O18 0.173588 0.664014 0.908659
#
# Coordination Sequence:
#
# PCOD9581962 Si02
#       8
#    12  12   6  12  12  12  12  12
#     4  11  23  42  66  95 133 186 232 277 341 411
#     4  10  20  39  68  96 138 187 233 281 349 431
#     4  10  26  40  66  88 132 188 218 282 350 408
#     4  10  20  44  68  96 135 180 227 283 350 418
#     4  10  21  40  70  96 132 179 229 284 349 424
#     4  12  25  41  63 100 134 180 232 288 343 418
#     4   9  19  36  68 104 131 174 233 289 351 419
#     4  12  26  39  63  98 138 176 232 294 337 393
#
# _framework density 23.182555000000001
#
# number of rings (size 3 to 8) (size 9 to 14) (size 15 to 20)
#    0.133    1.333    2.667    2.267    3.733    2.667 
#    5.600    0.000    0.000    0.000    0.000    0.933 
#    0.000    0.000    0.000    0.000    0.000    0.000 
#
# Total GULP energy -503841.301840 kJ/mol
# GULP energy per Si atom -5598.236687 kJ/mol
# Density = 2.312979 g / cm^3
# Si number density = 23.182555 Si / 1000 Ang^3
#
#
#
# Elastic Constant Matrix: (Units=GPa)
#
#
# Indices 1 2 3 4 5 6 
#
# 1 120.3911 31.5757 15.8915 0.0000 0.0000 0.0000
# 2 31.5757 120.3911 15.8915 0.0000 0.0000 0.0000
# 3 15.8915 15.8915 61.5652 0.0000 0.0000 0.0000
# 4 0.0000 0.0000 0.0000 18.2675 0.0000 0.0000
# 5 0.0000 0.0000 0.0000 0.0000 18.2675 0.0000
# 6 0.0000 0.0000 0.0000 0.0000 0.0000 44.4077
#
#
#
# Elastic Compliance Matrix: (Units=1/GPa)
#
#
# Indices 1 2 3 4 5 6 
#
# 1 0.009108 -0.002152 -0.001795 0.000000 0.000000 0.000000
# 2 -0.002152 0.009108 -0.001795 0.000000 0.000000 0.000000
# 3 -0.001795 -0.001795 0.017170 0.000000 0.000000 0.000000
# 4 0.000000 0.000000 0.000000 0.054742 0.000000 0.000000
# 5 0.000000 0.000000 0.000000 0.000000 0.054742 0.000000
# 6 0.000000 0.000000 0.000000 0.000000 0.000000 0.022519
#
#
# Mechanical properties :
#
#
# Convention : Reuss Voigt Hill
#
# Bulk Modulus (GPa) = 41.84149 47.67384 44.75767
# Shear Modulus (GPa) = 26.76092 32.12114 29.44103
#
# Velocity S-wave (km/s) = 3.40127 3.72637 3.56752
# Velocity P-wave (km/s) = 5.78902 6.25489 6.02645
#
# Compressibility (1/GPa) = 0.02389972
#
# Stress axis : x y z
#
# Youngs Moduli (GPa) = 109.79842 109.79842 58.24155
#
# Poissons Ratio (x) = 0.23625 0.10457
# Poissons Ratio (y) = 0.23625 0.10457
# Poissons Ratio (z) = 0.19714 0.19714
#
# Static dielectric constant tensor:
#      x y z
#    x 1.854200 0.000000 0.000000 
#    y 0.000000 1.854200 0.000000 
#    z 0.000000 0.000000 1.912200 
# 
# From -- ./inp_files/3542.got.cif
#   From: 2010.05.17/outbox.cif.g08.bks.cpg/sg176_2_cif.got.tgz:3542.got - 2010.06.03 11:36:45.
