data_PCOD9581925
_publ_section_title
;
Structure prediction by ZEFSAII (Michael W. Deem and Ramdas Pophale) SiO2 
 PCOD9581925
Probable space group: P 63/M
;
_chemical_formula_sum "Si O2"
_cell_formula_units_Z 80
_cell_length_a 17.534562
_cell_length_b 17.534562
_cell_length_c 17.522079
_cell_angle_alpha 90.000000
_cell_angle_beta 90.000000
_cell_angle_gamma 120.000000
_cell_volume 4665.585040
_symmetry_space_group_name_H-M "P 63/M"
_symmetry_group_IT_number 176
_symmetry_cell_setting 'hexagonal'
loop_
_space_group_symop_operation_xyz
x,y,z
x-y,x,1/2+z
-y,x-y,z
-x,-y,1/2+z
-x+y,-x,z
y,-x+y,1/2+z
-x,-y,-z
-x+y,-x,1/2-z
y,-x+y,-z
x,y,1/2-z
x-y,x,-z
-y,x-y,1/2-z
loop_
_atom_site_type_symbol
_atom_site_label
_atom_site_fract_x
_atom_site_fract_y
_atom_site_fract_z
Si Si1 0.799379 0.625270 0.534544
Si Si2 0.666668 0.333334 0.086156
Si Si3 0.010877 0.328979 0.468817
Si Si4 0.442919 0.076924 0.164016
Si Si5 0.666668 0.333334 0.902294
Si Si6 0.473042 0.260404 0.120031
Si Si7 0.449360 0.413821 0.393665
Si Si8 0.670286 0.504490 0.659362
O O1 0.750529 0.678208 0.510659
O O2 0.903968 0.680872 0.535331
O O3 0.779481 0.556018 0.466016
O O4 0.757059 0.572205 0.611890
O O5 0.577052 0.323430 0.117476
O O6 0.666668 0.333334 0.994218
O O7 0.030384 0.414589 0.519895
O O8 0.983937 0.340379 0.384526
O O9 0.442205 0.046921 0.250000
O O10 0.453124 0.173456 0.165215
O O11 0.520427 0.072991 0.118107
O O12 0.762932 0.355417 0.871747
O O13 0.430210 0.320047 0.142513
O O14 0.399157 0.462391 0.360037
O O15 0.682961 0.506850 0.750000
#
# Coordination Sequence:
#
# PCOD9581925 Si02
#       8
#    12   4  12  12   4  12  12  12
#     4   9  19  36  57  79  99 139 175 219 264 320
#     4  12  18  34  56  76  96 139 188 229 270 304
#     4   9  20  36  57  76 103 135 180 220 263 325
#     4  11  22  32  49  77 106 137 174 225 275 314
#     4  12  25  37  54  79 109 139 188 232 277 322
#     4  10  20  36  53  74 102 137 187 227 261 311
#     4  10  21  37  55  73 102 146 188 220 264 319
#     4  11  23  36  51  77 112 145 177 222 276 327
#
# _framework density 17.146832
#
# number of rings (size 3 to 8) (size 9 to 14) (size 15 to 20)
#    0.000    1.800    3.000    1.350    2.100    1.800 
#    0.000    0.000    0.000    0.300    0.000    0.000 
#    0.000    0.000    0.000    0.900    0.000    0.000 
#
# Total GULP energy -445907.149783 kJ/mol
# GULP energy per Si atom -5573.839372 kJ/mol
# Density = 1.710780 g / cm^3
# Si number density = 17.146832 Si / 1000 Ang^3
#
#
#
# Elastic Constant Matrix: (Units=GPa)
#
#
# Indices 1 2 3 4 5 6 
#
# 1 82.7322 41.4936 7.7091 0.0000 0.0000 -0.0001
# 2 41.4936 82.7324 7.7089 0.0000 0.0000 0.0001
# 3 7.7091 7.7089 34.8810 0.0000 0.0000 -0.0001
# 4 0.0000 0.0000 0.0000 4.8871 0.0000 0.0000
# 5 0.0000 0.0000 0.0000 0.0000 4.8869 0.0000
# 6 -0.0001 0.0001 -0.0001 0.0000 0.0000 20.6193
#
#
#
# Elastic Compliance Matrix: (Units=1/GPa)
#
#
# Indices 1 2 3 4 5 6 
#
# 1 0.016263 -0.007986 -0.001829 0.000000 0.000000 0.000000
# 2 -0.007986 0.016263 -0.001829 0.000000 0.000000 0.000000
# 3 -0.001829 -0.001829 0.029477 0.000000 0.000000 0.000000
# 4 0.000000 0.000000 0.000000 0.204622 0.000000 0.000000
# 5 0.000000 0.000000 0.000000 0.000000 0.204629 0.000000
# 6 0.000000 0.000000 0.000000 0.000000 0.000000 0.048498
#
#
# Mechanical properties :
#
#
# Convention : Reuss Voigt Hill
#
# Bulk Modulus (GPa) = 25.83033 34.90765 30.36899
# Shear Modulus (GPa) = 8.99367 15.64091 12.31729
#
# Velocity S-wave (km/s) = 2.29270 3.02350 2.68310
# Velocity P-wave (km/s) = 4.70165 5.70885 5.22956
#
# Compressibility (1/GPa) = 0.03871417
#
# Stress axis : x y z
#
# Youngs Moduli (GPa) = 61.48922 61.48947 33.92425
#
# Poissons Ratio (x) = 0.49106 0.06206
# Poissons Ratio (y) = 0.49106 0.06205
# Poissons Ratio (z) = 0.11249 0.11247
#
# Static dielectric constant tensor:
#      x y z
#    x 1.591230 0.000000 0.000000 
#    y 0.000000 1.591230 0.000000 
#    z 0.000000 0.000000 1.593770 
# 
# From -- ./inp_files/3518.got.cif
#   From: 2010.05.17/outbox.cif.g08.bks.cpg/sg176_2_cif.got.tgz:3518.got - 2010.06.03 11:36:45.
