data_PCOD9581946
_publ_section_title
;
Structure prediction by ZEFSAII (Michael W. Deem and Ramdas Pophale) SiO2 
 PCOD9581946
Probable space group: P 63/M
;
_chemical_formula_sum "Si O2"
_cell_formula_units_Z 84
_cell_length_a 18.530641
_cell_length_b 18.530641
_cell_length_c 14.048309
_cell_angle_alpha 90.000000
_cell_angle_beta 90.000000
_cell_angle_gamma 120.000000
_cell_volume 4177.683816
_symmetry_space_group_name_H-M "P 63/M"
_symmetry_group_IT_number 176
_symmetry_cell_setting 'hexagonal'
loop_
_space_group_symop_operation_xyz
x,y,z
x-y,x,1/2+z
-y,x-y,z
-x,-y,1/2+z
-x+y,-x,z
y,-x+y,1/2+z
-x,-y,-z
-x+y,-x,1/2-z
y,-x+y,-z
x,y,1/2-z
x-y,x,-z
-y,x-y,1/2-z
loop_
_atom_site_type_symbol
_atom_site_label
_atom_site_fract_x
_atom_site_fract_y
_atom_site_fract_z
Si Si1 0.510544 0.698041 0.364909
Si Si2 0.781646 0.079812 0.855931
Si Si3 0.755104 0.097718 0.364101
Si Si4 0.065583 0.188977 0.514440
Si Si5 0.580955 0.991101 0.028555
Si Si6 0.636280 0.474205 0.637450
Si Si7 0.626618 0.906632 0.858470
O O1 0.463228 0.824310 0.250000
O O2 0.604920 0.722211 0.379234
O O3 0.441546 0.609282 0.402574
O O4 0.491873 0.767932 0.402684
O O5 0.814255 0.106859 0.750000
O O6 0.723681 0.979965 0.858309
O O7 0.853488 0.110291 0.931396
O O8 0.738109 0.082574 0.250000
O O9 0.813180 0.059971 0.402283
O O10 0.670922 0.062909 0.428827
O O11 0.817857 0.197838 0.376024
O O12 0.120552 0.145211 0.525464
O O13 0.549481 0.927380 0.116332
O O14 0.500000 0.000000 0.000000
O O15 0.590027 0.939963 0.939776
O O16 0.497965 0.304647 0.750000
O O17 0.596343 0.907433 0.750000
#
# Coordination Sequence:
#
# PCOD9581946 Si02
#       7
#    12  12  12  12  12  12  12
#     4   9  19  34  56  85 126 169 209 262 333 401
#     4  10  20  37  62  89 117 165 221 265 316 385
#     4  11  24  44  67  94 128 170 219 274 330 397
#     4  12  25  42  65  95 132 171 217 269 333 398
#     4  12  25  39  64  98 128 165 218 277 327 383
#     4  10  21  36  56  90 129 163 205 264 329 390
#     4  10  22  42  65  88 125 173 217 264 327 394
#
# _framework density 20.106835
#
# number of rings (size 3 to 8) (size 9 to 14) (size 15 to 20)
#    0.000    1.429    2.857    1.714    4.000    4.000 
#    0.000    0.000    0.000    2.286    0.000    0.000 
#    0.000    0.000    0.000    0.000    0.000    0.000 
#
# Total GULP energy -467893.536578 kJ/mol
# GULP energy per Si atom -5570.161150 kJ/mol
# Density = 2.006107 g / cm^3
# Si number density = 20.106835 Si / 1000 Ang^3
#
#
#
# Elastic Constant Matrix: (Units=GPa)
#
#
# Indices 1 2 3 4 5 6 
#
# 1 97.8978 51.5740 44.1784 0.0000 0.0000 0.0000
# 2 51.5740 97.8978 44.1784 0.0000 0.0000 0.0000
# 3 44.1784 44.1784 86.1810 0.0000 0.0000 0.0000
# 4 0.0000 0.0000 0.0000 20.4361 0.0000 0.0000
# 5 0.0000 0.0000 0.0000 0.0000 20.4361 0.0000
# 6 0.0000 0.0000 0.0000 0.0000 0.0000 23.1619
#
#
#
# Elastic Compliance Matrix: (Units=1/GPa)
#
#
# Indices 1 2 3 4 5 6 
#
# 1 0.015593 -0.005994 -0.004921 0.000000 0.000000 0.000000
# 2 -0.005994 0.015593 -0.004921 0.000000 0.000000 0.000000
# 3 -0.004921 -0.004921 0.016648 0.000000 0.000000 0.000000
# 4 0.000000 0.000000 0.000000 0.048933 0.000000 0.000000
# 5 0.000000 0.000000 0.000000 0.000000 0.048933 0.000000
# 6 0.000000 0.000000 0.000000 0.000000 0.000000 0.043174
#
#
# Mechanical properties :
#
#
# Convention : Reuss Voigt Hill
#
# Bulk Modulus (GPa) = 61.86712 62.42648 62.14680
# Shear Modulus (GPa) = 22.13038 22.27652 22.20345
#
# Velocity S-wave (km/s) = 3.32119 3.33214 3.32667
# Velocity P-wave (km/s) = 6.74856 6.77635 6.76247
#
# Compressibility (1/GPa) = 0.01616367
#
# Stress axis : x y z
#
# Youngs Moduli (GPa) = 64.13100 64.13100 60.06599
#
# Poissons Ratio (x) = 0.38441 0.29556
# Poissons Ratio (y) = 0.38441 0.29556
# Poissons Ratio (z) = 0.31557 0.31557
#
# Static dielectric constant tensor:
#      x y z
#    x 1.742430 0.000000 0.000000 
#    y 0.000000 1.742430 0.000000 
#    z 0.000000 0.000000 1.788140 
# 
# From -- ./inp_files/2937.got.cif
#   From: 2010.05.17/outbox.cif.g08.bks.cpg/sg176_2_cif.got.tgz:2937.got - 2010.06.03 11:36:45.
