data_PCOD9581115
_publ_section_title
;
Structure prediction by ZEFSAII (Michael W. Deem and Ramdas Pophale) SiO2 
 PCOD9581115
Probable space group: P 63
;
_chemical_formula_sum "Si O2"
_cell_formula_units_Z 34
_cell_length_a 14.411258
_cell_length_b 14.411258
_cell_length_c 8.747560
_cell_angle_alpha 90.000000
_cell_angle_beta 90.000000
_cell_angle_gamma 120.000000
_cell_volume 1573.335523
_symmetry_space_group_name_H-M "P 63"
_symmetry_group_IT_number 173
_symmetry_cell_setting 'hexagonal'
loop_
_space_group_symop_operation_xyz
x,y,z
x-y,x,1/2+z
-y,x-y,z
-x,-y,1/2+z
-x+y,-x,z
y,-x+y,1/2+z
loop_
_atom_site_type_symbol
_atom_site_label
_atom_site_fract_x
_atom_site_fract_y
_atom_site_fract_z
Si Si1 0.576256 0.108320 0.725130
Si Si2 0.214463 0.164550 0.361826
Si Si3 0.792712 0.845626 0.519999
Si Si4 0.630328 0.604861 0.489694
Si Si5 0.666668 0.333335 0.248629
Si Si6 0.185257 0.454634 0.930831
Si Si7 0.666668 0.333335 0.880881
O O1 0.465173 0.038602 0.637267
O O2 0.665344 0.151989 0.589833
O O3 0.592798 0.213794 0.813604
O O4 0.583912 0.031081 0.848254
O O5 0.140584 0.214546 0.402260
O O6 0.339568 0.251136 0.379186
O O7 0.176430 0.064482 0.475524
O O8 0.193243 0.114795 0.193174
O O9 0.687556 0.730504 0.518641
O O10 0.719270 0.571836 0.451951
O O11 0.677400 0.234142 0.317484
O O12 0.666668 0.333334 0.065032
#
# Coordination Sequence:
#
# PCOD9581115 Si02
#       7
#     6   6   6   6   2   6   2
#     4  12  26  51  73 113 151 204 257 318 389 461
#     4  11  26  45  76 105 149 195 244 314 374 460
#     4  11  26  47  73 111 145 195 247 307 381 451
#     4  11  28  45  77 109 150 197 253 316 379 462
#     4  12  25  50  76 117 148 209 265 312 397 458
#     4  11  25  49  76 103 155 202 247 324 378 458
#     4  12  28  47  85 102 160 212 259 315 400 470
#
# _framework density 21.610140000000001
#
# number of rings (size 3 to 8) (size 9 to 14) (size 15 to 20)
#    0.000    0.706    3.529    1.412   17.294    0.000 
#    0.000    0.000    0.000    0.000    0.000    0.000 
#    0.000    0.000    0.000    0.000    0.000    0.000 
#
# Total GULP energy -190207.843068 kJ/mol
# GULP energy per Si atom -5594.348326 kJ/mol
# Density = 2.156095 g / cm^3
# Si number density = 21.610140 Si / 1000 Ang^3
#
#
#
# Elastic Constant Matrix: (Units=GPa)
#
#
# Indices 1 2 3 4 5 6 
#
# 1 115.1255 39.6128 41.0437 0.0000 0.0000 -0.0003
# 2 39.6128 115.1259 41.0434 0.0000 0.0000 -0.0005
# 3 41.0437 41.0434 111.1152 0.0000 0.0000 0.0002
# 4 0.0000 0.0000 0.0000 30.9944 0.0001 0.0000
# 5 0.0000 0.0000 0.0000 0.0001 30.9945 0.0000
# 6 -0.0003 -0.0005 0.0002 0.0000 0.0000 37.7565
#
#
#
# Elastic Compliance Matrix: (Units=1/GPa)
#
#
# Indices 1 2 3 4 5 6 
#
# 1 0.010640 -0.002603 -0.002969 0.000000 0.000000 0.000000
# 2 -0.002603 0.010640 -0.002969 0.000000 0.000000 0.000000
# 3 -0.002969 -0.002969 0.011193 0.000000 0.000000 0.000000
# 4 0.000000 0.000000 0.000000 0.032264 0.000000 0.000000
# 5 0.000000 0.000000 0.000000 0.000000 0.032264 0.000000
# 6 0.000000 0.000000 0.000000 0.000000 0.000000 0.026486
#
#
# Mechanical properties :
#
#
# Convention : Reuss Voigt Hill
#
# Bulk Modulus (GPa) = 64.96710 64.97405 64.97057
# Shear Modulus (GPa) = 34.31757 34.59352 34.45555
#
# Velocity S-wave (km/s) = 3.98933 4.00534 3.99735
# Velocity P-wave (km/s) = 7.16577 7.17789 7.17183
#
# Compressibility (1/GPa) = 0.01539241
#
# Stress axis : x y z
#
# Youngs Moduli (GPa) = 93.98362 93.98420 89.34207
#
# Poissons Ratio (x) = 0.24461 0.26525
# Poissons Ratio (y) = 0.24461 0.26524
# Poissons Ratio (z) = 0.27903 0.27902
#
# Static dielectric constant tensor:
#      x y z
#    x 1.795960 0.000000 0.000000 
#    y 0.000000 1.795960 0.000000 
#    z 0.000000 0.000000 1.784640 
# 
# From -- ./inp_files/555.got.cif
#   From: 2010.05.17/outbox.cif.g08.bks.cpg/sg173_cif.got.tgz:555.got - 2010.05.20 11:21:53.
