data_PCOD9581124
_publ_section_title
;
Structure prediction by ZEFSAII (Michael W. Deem and Ramdas Pophale) SiO2 
 PCOD9581124
Probable space group: P -6
;
_chemical_formula_sum "Si O2"
_cell_formula_units_Z 38
_cell_length_a 16.522622
_cell_length_b 16.522622
_cell_length_c 11.549287
_cell_angle_alpha 90.000000
_cell_angle_beta 90.000000
_cell_angle_gamma 120.000000
_cell_volume 2730.509803
_symmetry_space_group_name_H-M "P -6"
_symmetry_group_IT_number 174
_symmetry_cell_setting 'hexagonal'
loop_
_space_group_symop_operation_xyz
x,y,z
-x+y,-x,-z
-y,x-y,z
x,y,-z
-x+y,-x,z
-y,x-y,-z
loop_
_atom_site_type_symbol
_atom_site_label
_atom_site_fract_x
_atom_site_fract_y
_atom_site_fract_z
Si Si1 0.000000 0.000000 0.358977
Si Si2 0.180729 0.178341 0.000000
Si Si3 0.997611 0.178340 0.000000
Si Si4 0.783437 0.891718 0.638258
Si Si5 0.764909 0.716745 0.244106
Si Si6 0.283255 0.235091 0.755894
Si Si7 0.665517 0.524699 0.864036
Si Si8 0.475301 0.334483 0.135964
O O1 0.053758 0.107516 0.320479
O O2 0.000000 0.000000 0.500000
O O3 0.241777 0.212751 0.114701
O O4 0.104881 0.209763 0.000000
O O5 0.133219 0.066610 0.000000
O O6 0.970973 0.212750 0.114701
O O7 0.782194 0.891097 0.500000
O O8 0.742364 0.786382 0.684349
O O9 0.742364 0.955982 0.684349
O O10 0.860390 0.720780 0.289067
O O11 0.686990 0.609373 0.222783
O O12 0.390627 0.313010 0.777217
O O13 0.754896 0.509791 0.855410
O O14 0.570057 0.429943 0.838964
O O15 0.662002 0.549145 0.000000
O O16 0.450855 0.337997 0.000000
#
# Coordination Sequence:
#
# PCOD9581124 Si02
#       8
#     2   3   3   6   6   6   6   6
#     4   9  18  30  39  55  83 121 162 183 199 236
#     4  10  17  24  35  56  86 122 148 168 205 257
#     4  10  17  24  35  56  86 122 148 168 205 257
#     4  11  20  29  43  61  87 124 159 183 207 244
#     4  10  18  27  40  60  89 118 149 180 211 253
#     4  10  18  27  40  60  89 118 149 180 211 253
#     4   9  16  27  43  64  89 117 147 179 218 263
#     4   9  16  27  43  64  89 117 147 179 218 263
#
# _framework density 13.916814
#
# number of rings (size 3 to 8) (size 9 to 14) (size 15 to 20)
#    0.000    2.211    4.737    0.474    0.000    1.263 
#    0.000    0.000    0.000    0.947    0.000    0.000 
#    1.579    2.526    1.895    0.000    0.000    0.000 
#
# Total GULP energy -211565.218002 kJ/mol
# GULP energy per Si atom -5567.505737 kJ/mol
# Density = 1.388514 g / cm^3
# Si number density = 13.916814 Si / 1000 Ang^3
#
#
#
# Elastic Constant Matrix: (Units=GPa)
#
#
# Indices 1 2 3 4 5 6 
#
# 1 83.0657 39.7200 23.3027 0.0000 0.0000 0.0000
# 2 39.7200 83.0657 23.3027 0.0000 0.0000 0.0000
# 3 23.3027 23.3027 45.8514 0.0000 0.0000 0.0000
# 4 0.0000 0.0000 0.0000 12.1824 0.0000 0.0000
# 5 0.0000 0.0000 0.0000 0.0000 12.1824 0.0000
# 6 0.0000 0.0000 0.0000 0.0000 0.0000 21.6729
#
#
#
# Elastic Compliance Matrix: (Units=1/GPa)
#
#
# Indices 1 2 3 4 5 6 
#
# 1 0.016581 -0.006490 -0.005128 0.000000 0.000000 0.000000
# 2 -0.006490 0.016581 -0.005128 0.000000 0.000000 0.000000
# 3 -0.005128 -0.005128 0.027022 0.000000 0.000000 0.000000
# 4 0.000000 0.000000 0.000000 0.082085 0.000000 0.000000
# 5 0.000000 0.000000 0.000000 0.000000 0.082085 0.000000
# 6 0.000000 0.000000 0.000000 0.000000 0.000000 0.046141
#
#
# Mechanical properties :
#
#
# Convention : Reuss Voigt Hill
#
# Bulk Modulus (GPa) = 37.46660 42.73706 40.10183
# Shear Modulus (GPa) = 15.98033 17.58472 16.78252
#
# Velocity S-wave (km/s) = 3.39230 3.55851 3.47640
# Velocity P-wave (km/s) = 6.50568 6.90360 6.70759
#
# Compressibility (1/GPa) = 0.02669044
#
# Stress axis : x y z
#
# Youngs Moduli (GPa) = 60.31155 60.31155 37.00646
#
# Poissons Ratio (x) = 0.39141 0.18978
# Poissons Ratio (y) = 0.39141 0.18978
# Poissons Ratio (z) = 0.30930 0.30930
#
# Static dielectric constant tensor:
#      x y z
#    x 1.461300 0.000000 0.000000 
#    y 0.000000 1.461300 0.000000 
#    z 0.000000 0.000000 1.462960 
# 
# From -- ./inp_files/747.got.cif
#   From: 2010.05.17/outbox.cif.g08.bks.cpg/sg174_cif.got.tgz:747.got - 2010.05.20 11:22:48.
