data_PCOD9581678
_publ_section_title
;
Structure prediction by ZEFSAII (Michael W. Deem and Ramdas Pophale) SiO2 
 PCOD9581678
Probable space group: P 6/M
;
_chemical_formula_sum "Si O2"
_cell_formula_units_Z 72
_cell_length_a 15.038070
_cell_length_b 15.038070
_cell_length_c 18.261045
_cell_angle_alpha 90.000000
_cell_angle_beta 90.000000
_cell_angle_gamma 120.000000
_cell_volume 3576.353689
_symmetry_space_group_name_H-M "P 6/M"
_symmetry_group_IT_number 175
_symmetry_cell_setting 'hexagonal'
loop_
_space_group_symop_operation_xyz
x,y,z
x-y,x,z
-y,x-y,z
-x,-y,z
-x+y,-x,z
y,-x+y,z
-x,-y,-z
-x+y,-x,-z
y,-x+y,-z
x,y,-z
x-y,x,-z
-y,x-y,-z
loop_
_atom_site_type_symbol
_atom_site_label
_atom_site_fract_x
_atom_site_fract_y
_atom_site_fract_z
Si Si1 0.894112 0.310267 0.084012
Si Si2 0.844151 0.085205 0.697240
Si Si3 0.878119 0.417916 0.369672
Si Si4 0.436322 0.876070 0.794462
Si Si5 0.747551 0.109689 0.844894
Si Si6 0.765889 0.190455 0.582624
O O1 0.851071 0.366855 0.135961
O O2 0.820102 0.189633 0.095056
O O3 0.003211 0.335618 0.117455
O O4 0.903188 0.342298 0.000000
O O5 0.811593 0.096863 0.779639
O O6 0.787739 0.124078 0.641322
O O7 0.965872 0.158037 0.686695
O O8 0.842634 0.389906 0.284956
O O9 0.847753 0.311088 0.407957
O O10 0.823807 0.477439 0.402840
O O11 0.000000 0.500000 0.372483
O O12 0.320211 0.846613 0.807706
O O13 0.500000 0.000000 0.790506
O O14 0.770213 0.157468 0.500000
#
# Coordination Sequence:
#
# PCOD9581678 Si02
#       6
#    12  12  12  12  12  12
#     4  11  23  39  64  97 135 172 217 274 335 400
#     4  12  25  45  71  97 132 180 237 292 346 412
#     4  11  23  43  68  95 134 176 218 270 330 405
#     4   9  21  38  63  90 120 167 211 252 315 391
#     4  11  21  41  66  92 128 174 221 268 333 400
#     4  12  26  42  68 103 138 177 223 279 348 417
#
# _framework density 20.132237
#
# number of rings (size 3 to 8) (size 9 to 14) (size 15 to 20)
#    0.000    1.000    3.333    3.500    2.333    7.000 
#    1.000    0.000    0.000    1.000    0.000    2.333 
#    0.000    0.000    0.000    0.000    0.000    0.000 
#
# Total GULP energy -402484.147148 kJ/mol
# GULP energy per Si atom -5590.057599 kJ/mol
# Density = 2.008641 g / cm^3
# Si number density = 20.132237 Si / 1000 Ang^3
#
#
#
# Elastic Constant Matrix: (Units=GPa)
#
#
# Indices 1 2 3 4 5 6 
#
# 1 64.8195 11.7470 14.7654 0.0000 0.0000 0.0000
# 2 11.7470 64.8195 14.7654 0.0000 0.0000 0.0000
# 3 14.7654 14.7654 111.8222 0.0000 0.0000 0.0000
# 4 0.0000 0.0000 0.0000 7.3861 0.0000 0.0000
# 5 0.0000 0.0000 0.0000 0.0000 7.3861 0.0000
# 6 0.0000 0.0000 0.0000 0.0000 0.0000 26.5363
#
#
#
# Elastic Compliance Matrix: (Units=1/GPa)
#
#
# Indices 1 2 3 4 5 6 
#
# 1 0.016302 -0.002540 -0.001817 0.000000 0.000000 0.000000
# 2 -0.002540 0.016302 -0.001817 0.000000 0.000000 0.000000
# 3 -0.001817 -0.001817 0.009423 0.000000 0.000000 0.000000
# 4 0.000000 0.000000 0.000000 0.135390 0.000000 0.000000
# 5 0.000000 0.000000 0.000000 0.000000 0.135390 0.000000
# 6 0.000000 0.000000 0.000000 0.000000 0.000000 0.037684
#
#
# Mechanical properties :
#
#
# Convention : Reuss Voigt Hill
#
# Bulk Modulus (GPa) = 33.69615 36.00188 34.84901
# Shear Modulus (GPa) = 13.41449 21.60725 17.51087
#
# Velocity S-wave (km/s) = 2.58412 3.27963 2.95242
# Velocity P-wave (km/s) = 5.06728 5.68004 5.38238
#
# Compressibility (1/GPa) = 0.02967698
#
# Stress axis : x y z
#
# Youngs Moduli (GPa) = 61.34310 61.34310 106.12732
#
# Poissons Ratio (x) = 0.15583 0.19284
# Poissons Ratio (y) = 0.15583 0.19284
# Poissons Ratio (z) = 0.11147 0.11147
#
# Static dielectric constant tensor:
#      x y z
#    x 1.712430 0.000000 0.000000 
#    y 0.000000 1.712430 0.000000 
#    z 0.000000 0.000000 1.701880 
# 
# From -- ./inp_files/2877.got.cif
#   From: 2010.05.17/outbox.cif.g08.bks.cpg/sg175_2_cif.got.tgz:2877.got - 2010.05.20 11:23:22.
