data_PCOD9581034
_publ_section_title
;
Structure prediction by ZEFSAII (Michael W. Deem and Ramdas Pophale) SiO2 
 PCOD9581034
Probable space group: P 63
;
_chemical_formula_sum "Si O2"
_cell_formula_units_Z 30
_cell_length_a 19.957445
_cell_length_b 19.957445
_cell_length_c 5.113377
_cell_angle_alpha 90.000000
_cell_angle_beta 90.000000
_cell_angle_gamma 120.000000
_cell_volume 1763.795895
_symmetry_space_group_name_H-M "P 63"
_symmetry_group_IT_number 173
_symmetry_cell_setting 'hexagonal'
loop_
_space_group_symop_operation_xyz
x,y,z
x-y,x,1/2+z
-y,x-y,z
-x,-y,1/2+z
-x+y,-x,z
y,-x+y,1/2+z
loop_
_atom_site_type_symbol
_atom_site_label
_atom_site_fract_x
_atom_site_fract_y
_atom_site_fract_z
Si Si1 0.699057 0.266261 0.048680
Si Si2 0.899561 0.332886 0.581574
Si Si3 0.202748 0.461474 0.049713
Si Si4 0.945787 0.568271 0.821523
Si Si5 0.577220 0.488741 0.097604
O O1 0.720316 0.223654 0.270401
O O2 0.716274 0.245703 0.764004
O O3 0.592115 0.097717 0.011502
O O4 0.748009 0.360135 0.073747
O O5 0.878409 0.380502 0.372071
O O6 0.834305 0.243720 0.558883
O O7 0.893637 0.361755 0.866844
O O8 0.987366 0.360179 0.488012
O O9 0.114229 0.420247 0.147856
O O10 0.995698 0.543558 0.637571
#
# Coordination Sequence:
#
# PCOD9581034 Si02
#       5
#     6   6   6   6   6
#     4  10  25  36  45  74  99 130 162 223 269 324
#     4  10  22  37  49  76  95 125 169 227 250 329
#     4  12  24  35  58  70 100 133 175 214 286 315
#     4  10  23  35  57  72  94 139 169 218 274 323
#     4  10  20  35  55  70 102 125 173 216 265 315
#
# _framework density 17.008770999999999
#
# number of rings (size 3 to 8) (size 9 to 14) (size 15 to 20)
#    1.600    0.000    2.000    2.400   11.200    0.000 
#    0.000    0.000    0.000    0.000    0.000    0.000 
#    0.000    0.000    0.000    0.000    0.000    0.000 
#
# Total GULP energy -167231.903149 kJ/mol
# GULP energy per Si atom -5574.396772 kJ/mol
# Density = 1.697006 g / cm^3
# Si number density = 17.008771 Si / 1000 Ang^3
#
#
#
# Elastic Constant Matrix: (Units=GPa)
#
#
# Indices 1 2 3 4 5 6 
#
# 1 56.5300 9.7801 -2.3466 0.0000 0.0000 0.0000
# 2 9.7801 56.5300 -2.3466 0.0000 0.0000 0.0000
# 3 -2.3466 -2.3466 71.8906 0.0000 0.0000 0.0000
# 4 0.0000 0.0000 0.0000 21.6485 0.0000 0.0000
# 5 0.0000 0.0000 0.0000 0.0000 21.6485 0.0000
# 6 0.0000 0.0000 0.0000 0.0000 0.0000 23.3749
#
#
#
# Elastic Compliance Matrix: (Units=1/GPa)
#
#
# Indices 1 2 3 4 5 6 
#
# 1 0.018253 -0.003137 0.000493 0.000000 0.000000 0.000000
# 2 -0.003137 0.018253 0.000493 0.000000 0.000000 0.000000
# 3 0.000493 0.000493 0.013942 0.000000 0.000000 0.000000
# 4 0.000000 0.000000 0.000000 0.046193 0.000000 0.000000
# 5 0.000000 0.000000 0.000000 0.000000 0.046193 0.000000
# 6 0.000000 0.000000 0.000000 0.000000 0.000000 0.042781
#
#
# Mechanical properties :
#
#
# Convention : Reuss Voigt Hill
#
# Bulk Modulus (GPa) = 21.66989 21.68047 21.67518
# Shear Modulus (GPa) = 24.35484 25.32529 24.84006
#
# Velocity S-wave (km/s) = 3.78815 3.86288 3.82570
# Velocity P-wave (km/s) = 5.64814 5.71578 5.68206
#
# Compressibility (1/GPa) = 0.04614699
#
# Stress axis : x y z
#
# Youngs Moduli (GPa) = 54.78548 54.78548 71.72448
#
# Poissons Ratio (x) = 0.17189 -0.03539
# Poissons Ratio (y) = 0.17189 -0.03539
# Poissons Ratio (z) = -0.02703 -0.02703
#
# Static dielectric constant tensor:
#      x y z
#    x 1.674160 0.000000 0.000000 
#    y 0.000000 1.674160 0.000000 
#    z 0.000000 0.000000 1.602130 
# 
# From -- ./inp_files/111.got.cif
#   From: 2010.05.17/outbox.cif.g08.bks.cpg/sg173_cif.got.tgz:111.got - 2010.05.20 11:21:53.
