data_PCOD9581425
_publ_section_title
;
Structure prediction by ZEFSAII (Michael W. Deem and Ramdas Pophale) SiO2 
 PCOD9581425
Probable space group: P 6/M
;
_chemical_formula_sum "Si O2"
_cell_formula_units_Z 66
_cell_length_a 21.334798
_cell_length_b 21.334798
_cell_length_c 7.561262
_cell_angle_alpha 90.000000
_cell_angle_beta 90.000000
_cell_angle_gamma 120.000000
_cell_volume 2980.588277
_symmetry_space_group_name_H-M "P 6/M"
_symmetry_group_IT_number 175
_symmetry_cell_setting 'hexagonal'
loop_
_space_group_symop_operation_xyz
x,y,z
x-y,x,z
-y,x-y,z
-x,-y,z
-x+y,-x,z
y,-x+y,z
-x,-y,-z
-x+y,-x,-z
y,-x+y,-z
x,y,-z
x-y,x,-z
-y,x-y,-z
loop_
_atom_site_type_symbol
_atom_site_label
_atom_site_fract_x
_atom_site_fract_y
_atom_site_fract_z
Si Si1 0.865356 0.357080 0.800459
Si Si2 0.343813 0.016781 0.699651
Si Si3 0.175409 0.090602 0.000000
Si Si4 0.601878 0.090797 0.788484
Si Si5 0.547952 0.758749 0.787330
Si Si6 0.285855 0.185939 0.706363
O O1 0.905189 0.437725 0.724094
O O2 0.794955 0.291902 0.714823
O O3 0.916968 0.322135 0.805363
O O4 0.847587 0.368751 0.000000
O O5 0.341656 0.040621 0.500000
O O6 0.376295 0.962938 0.698853
O O7 0.261757 0.971088 0.765597
O O8 0.124499 0.127681 0.000000
O O9 0.229534 0.122182 0.831016
O O10 0.673254 0.167643 0.758856
O O11 0.593890 0.072103 0.000000
O O12 0.630635 0.795029 0.720187
O O13 0.554420 0.768757 0.000000
O O14 0.265015 0.173147 0.500000
#
# Coordination Sequence:
#
# PCOD9581425 Si02
#       6
#    12  12   6  12  12  12
#     4  10  20  31  53  83 114 157 208 255 306 371
#     4  10  21  34  54  85 118 151 196 252 311 369
#     4  12  29  50  76 102 133 171 203 249 305 391
#     4   9  18  34  50  75 113 159 199 249 308 366
#     4   9  18  35  57  82 123 168 214 266 320 374
#     4  10  23  42  68 101 131 165 208 262 320 374
#
# _framework density 22.143281000000002
#
# number of rings (size 3 to 8) (size 9 to 14) (size 15 to 20)
#    0.000    2.182    0.909    1.182    5.091    4.364 
#    1.091    0.000    0.000    1.091    0.000    0.000 
#    0.000    0.000    0.000    0.000    0.000    0.000 
#
# Total GULP energy -368246.406285 kJ/mol
# GULP energy per Si atom -5579.491004 kJ/mol
# Density = 2.209288 g / cm^3
# Si number density = 22.143281 Si / 1000 Ang^3
#
#
#
# Elastic Constant Matrix: (Units=GPa)
#
#
# Indices 1 2 3 4 5 6 
#
# 1 55.7274 1.9315 4.3291 0.0000 0.0000 0.0000
# 2 1.9315 55.7274 4.3291 0.0000 0.0000 0.0000
# 3 4.3291 4.3291 73.9877 0.0000 0.0000 0.0000
# 4 0.0000 0.0000 0.0000 72.4381 0.0000 0.0000
# 5 0.0000 0.0000 0.0000 0.0000 72.4381 0.0000
# 6 0.0000 0.0000 0.0000 0.0000 0.0000 26.8980
#
#
#
# Elastic Compliance Matrix: (Units=1/GPa)
#
#
# Indices 1 2 3 4 5 6 
#
# 1 0.018043 -0.000546 -0.001024 0.000000 0.000000 0.000000
# 2 -0.000546 0.018043 -0.001024 0.000000 0.000000 0.000000
# 3 -0.001024 -0.001024 0.013636 0.000000 0.000000 0.000000
# 4 0.000000 0.000000 0.000000 0.013805 0.000000 0.000000
# 5 0.000000 0.000000 0.000000 0.000000 0.013805 0.000000
# 6 0.000000 0.000000 0.000000 0.000000 0.000000 0.037177
#
#
# Mechanical properties :
#
#
# Convention : Reuss Voigt Hill
#
# Bulk Modulus (GPa) = 22.45439 22.95797 22.70618
# Shear Modulus (GPa) = 37.16358 46.01169 41.58763
#
# Velocity S-wave (km/s) = 4.10118 4.56335 4.33842
# Velocity P-wave (km/s) = 5.70865 6.17705 5.94747
#
# Compressibility (1/GPa) = 0.04453472
#
# Stress axis : x y z
#
# Youngs Moduli (GPa) = 55.42337 55.42337 73.33761
#
# Poissons Ratio (x) = 0.03025 0.07508
# Poissons Ratio (y) = 0.03025 0.07508
# Poissons Ratio (z) = 0.05674 0.05674
#
# Static dielectric constant tensor:
#      x y z
#    x 1.844900 0.000000 0.000000 
#    y 0.000000 1.844900 0.000000 
#    z 0.000000 0.000000 1.826020 
# 
# From -- ./inp_files/984.got.cif
#   From: 2010.05.17/outbox.cif.g08.bks.cpg/sg175_1_cif.got.tgz:984.got - 2010.05.20 11:23:22.
