data_PCOD9581629
_publ_section_title
;
Structure prediction by ZEFSAII (Michael W. Deem and Ramdas Pophale) SiO2 
 PCOD9581629
Probable space group: P 6/M
;
_chemical_formula_sum "Si O2"
_cell_formula_units_Z 66
_cell_length_a 19.698536
_cell_length_b 19.698536
_cell_length_c 10.473107
_cell_angle_alpha 90.000000
_cell_angle_beta 90.000000
_cell_angle_gamma 120.000000
_cell_volume 3519.444113
_symmetry_space_group_name_H-M "P 6/M"
_symmetry_group_IT_number 175
_symmetry_cell_setting 'hexagonal'
loop_
_space_group_symop_operation_xyz
x,y,z
x-y,x,z
-y,x-y,z
-x,-y,z
-x+y,-x,z
y,-x+y,z
-x,-y,-z
-x+y,-x,-z
y,-x+y,-z
x,y,-z
x-y,x,-z
-y,x-y,-z
loop_
_atom_site_type_symbol
_atom_site_label
_atom_site_fract_x
_atom_site_fract_y
_atom_site_fract_z
Si Si1 0.530824 0.442783 0.648378
Si Si2 0.851525 0.843828 0.845964
Si Si3 0.421364 0.120250 0.352132
Si Si4 0.436190 0.708845 0.000000
Si Si5 0.173457 0.447571 0.777840
Si Si6 0.687158 0.691033 0.852475
O O1 0.500000 0.500000 0.702017
O O2 0.507061 0.430389 0.500000
O O3 0.624764 0.490829 0.655858
O O4 0.494559 0.358260 0.710074
O O5 0.844679 0.916541 0.795673
O O6 0.773108 0.763129 0.825458
O O7 0.859438 0.852279 0.000000
O O8 0.395760 0.098821 0.500000
O O9 0.419853 0.198133 0.310951
O O10 0.372318 0.049988 0.252596
O O11 0.383290 0.750713 0.000000
O O12 0.493252 0.728941 0.119762
O O13 0.096472 0.373953 0.838307
O O14 0.683152 0.664050 0.000000
#
# Coordination Sequence:
#
# PCOD9581629 Si02
#       6
#    12  12  12   6  12  12
#     4  10  21  41  64  89 124 166 217 272 326 395
#     4   9  17  31  53  83 119 157 200 249 305 368
#     4  11  25  42  66  95 127 169 217 275 333 392
#     4  10  24  42  59  91 133 168 213 272 331 398
#     4  12  22  41  65  92 126 173 216 267 335 391
#     4  11  23  39  62  93 128 169 214 264 324 399
#
# _framework density 18.752960999999999
#
# number of rings (size 3 to 8) (size 9 to 14) (size 15 to 20)
#    0.182    1.273    2.727    2.909    1.273    2.909 
#    2.727    1.364    0.000    0.000    0.000    0.000 
#    0.000    2.909    0.000    0.000    0.000    0.000 
#
# Total GULP energy -368101.769636 kJ/mol
# GULP energy per Si atom -5577.299540 kJ/mol
# Density = 1.871028 g / cm^3
# Si number density = 18.752961 Si / 1000 Ang^3
#
#
#
# Elastic Constant Matrix: (Units=GPa)
#
#
# Indices 1 2 3 4 5 6 
#
# 1 58.2798 -2.5163 29.5876 0.0000 0.0000 0.0000
# 2 -2.5163 58.2798 29.5876 0.0000 0.0000 0.0000
# 3 29.5876 29.5876 86.7752 0.0000 0.0000 0.0000
# 4 0.0000 0.0000 0.0000 19.7374 0.0000 0.0000
# 5 0.0000 0.0000 0.0000 0.0000 19.7374 0.0000
# 6 0.0000 0.0000 0.0000 0.0000 0.0000 30.3981
#
#
#
# Elastic Compliance Matrix: (Units=1/GPa)
#
#
# Indices 1 2 3 4 5 6 
#
# 1 0.022274 0.005826 -0.009581 0.000000 0.000000 0.000000
# 2 0.005826 0.022274 -0.009581 0.000000 0.000000 0.000000
# 3 -0.009581 -0.009581 0.018058 0.000000 0.000000 0.000000
# 4 0.000000 0.000000 0.000000 0.050665 0.000000 0.000000
# 5 0.000000 0.000000 0.000000 0.000000 0.050665 0.000000
# 6 0.000000 0.000000 0.000000 0.000000 0.000000 0.032897
#
#
# Mechanical properties :
#
#
# Convention : Reuss Voigt Hill
#
# Bulk Modulus (GPa) = 27.82931 35.18364 31.50647
# Shear Modulus (GPa) = 21.23277 23.75299 22.49288
#
# Velocity S-wave (km/s) = 3.36852 3.56283 3.46704
# Velocity P-wave (km/s) = 5.47736 5.97724 5.73275
#
# Compressibility (1/GPa) = 0.03593334
#
# Stress axis : x y z
#
# Youngs Moduli (GPa) = 44.89453 44.89453 55.37734
#
# Poissons Ratio (x) = -0.26156 0.53059
# Poissons Ratio (y) = -0.26156 0.53059
# Poissons Ratio (z) = 0.43015 0.43015
#
# Static dielectric constant tensor:
#      x y z
#    x 1.652000 0.000000 0.000000 
#    y 0.000000 1.652000 0.000000 
#    z 0.000000 0.000000 1.641950 
# 
# From -- ./inp_files/960.got.cif
#   From: 2010.05.17/outbox.cif.g08.bks.cpg/sg175_1_cif.got.tgz:960.got - 2010.05.20 11:23:22.
