data_PCOD9581013
_publ_section_title
;
Structure prediction by ZEFSAII (Michael W. Deem and Ramdas Pophale) SiO2 
 PCOD9581013
Probable space group: P 63
;
_chemical_formula_sum "Si O2"
_cell_formula_units_Z 42
_cell_length_a 16.275770
_cell_length_b 16.275770
_cell_length_c 10.810432
_cell_angle_alpha 90.000000
_cell_angle_beta 90.000000
_cell_angle_gamma 120.000000
_cell_volume 2480.029056
_symmetry_space_group_name_H-M "P 63"
_symmetry_group_IT_number 173
_symmetry_cell_setting 'hexagonal'
loop_
_space_group_symop_operation_xyz
x,y,z
x-y,x,1/2+z
-y,x-y,z
-x,-y,1/2+z
-x+y,-x,z
y,-x+y,1/2+z
loop_
_atom_site_type_symbol
_atom_site_label
_atom_site_fract_x
_atom_site_fract_y
_atom_site_fract_z
Si Si1 0.146264 0.853736 0.106050
Si Si2 0.479321 0.145855 0.143055
Si Si3 0.708707 0.956605 0.489083
Si Si4 0.763900 0.652306 0.349073
Si Si5 0.043395 0.291292 0.723017
Si Si6 0.763900 0.111596 0.863027
Si Si7 0.479321 0.333466 0.069045
O O1 0.202772 0.849154 0.225440
O O2 0.036764 0.802045 0.152393
O O3 0.150844 0.797227 0.986659
O O4 0.197956 0.963236 0.059707
O O5 0.445870 0.133700 0.285553
O O6 0.502406 0.251203 0.106050
O O7 0.565919 0.131838 0.106050
O O8 0.384419 0.071498 0.069414
O O9 0.700204 0.856464 0.452438
O O10 0.706403 0.000001 0.356050
O O11 0.856463 0.700205 0.259662
O O12 0.719855 0.719856 0.356050
O O13 0.071498 0.384418 0.642685
O O14 0.687830 0.133701 0.926547
#
# Coordination Sequence:
#
# PCOD9581013 Si02
#       7
#     6   6   6   6   6   6   6
#     4  10  18  34  56  80 112 150 186 236 280 350
#     4  10  20  35  55  81 109 144 189 234 286 343
#     4   9  19  33  53  80 110 148 187 230 284 335
#     4  10  19  33  57  82 111 152 188 235 288 339
#     4   9  19  33  53  80 110 148 187 230 284 335
#     4  10  19  33  57  82 111 152 188 235 288 339
#     4  10  20  35  55  81 109 144 189 234 286 343
#
# _framework density 16.935286999999999
#
# number of rings (size 3 to 8) (size 9 to 14) (size 15 to 20)
#    0.000    2.286    2.857    0.286    0.000    1.143 
#    0.000    0.000    0.000   25.714    0.000    0.000 
#    1.429    0.000    0.000    0.000    0.000    0.000 
#
# Total GULP energy -233830.133588 kJ/mol
# GULP energy per Si atom -5567.384133 kJ/mol
# Density = 1.689674 g / cm^3
# Si number density = 16.935287 Si / 1000 Ang^3
#
#
#
# Elastic Constant Matrix: (Units=GPa)
#
#
# Indices 1 2 3 4 5 6 
#
# 1 91.2297 59.3870 43.0280 0.0000 0.0000 0.0000
# 2 59.3870 91.2297 43.0280 0.0000 0.0000 0.0000
# 3 43.0280 43.0280 124.1481 0.0000 0.0000 0.0000
# 4 0.0000 0.0000 0.0000 20.9407 0.0000 0.0000
# 5 0.0000 0.0000 0.0000 0.0000 20.9407 0.0000
# 6 0.0000 0.0000 0.0000 0.0000 0.0000 15.9214
#
#
#
# Elastic Compliance Matrix: (Units=1/GPa)
#
#
# Indices 1 2 3 4 5 6 
#
# 1 0.019842 -0.011563 -0.002869 0.000000 0.000000 0.000000
# 2 -0.011563 0.019842 -0.002869 0.000000 0.000000 0.000000
# 3 -0.002869 -0.002869 0.010044 0.000000 0.000000 0.000000
# 4 0.000000 0.000000 0.000000 0.047754 0.000000 0.000000
# 5 0.000000 0.000000 0.000000 0.000000 0.047754 0.000000
# 6 0.000000 0.000000 0.000000 0.000000 0.000000 0.062809
#
#
# Mechanical properties :
#
#
# Convention : Reuss Voigt Hill
#
# Bulk Modulus (GPa) = 66.11950 66.38817 66.25383
# Shear Modulus (GPa) = 20.18675 22.30488 21.24581
#
# Velocity S-wave (km/s) = 3.45627 3.63308 3.54578
# Velocity P-wave (km/s) = 7.41990 7.54223 7.48131
#
# Compressibility (1/GPa) = 0.01512413
#
# Stress axis : x y z
#
# Youngs Moduli (GPa) = 50.39932 50.39932 99.56367
#
# Poissons Ratio (x) = 0.58276 0.28568
# Poissons Ratio (y) = 0.58276 0.28568
# Poissons Ratio (z) = 0.14461 0.14461
#
# Static dielectric constant tensor:
#      x y z
#    x 1.564840 0.000000 0.000000 
#    y 0.000000 1.564840 0.000000 
#    z 0.000000 0.000000 1.634640 
# 
# From -- ./inp_files/897.got.cif
#   From: 2010.05.17/outbox.cif.g08.bks.cpg/sg173_cif.got.tgz:897.got - 2010.05.20 11:21:53.
