data_PCOD9581550
_publ_section_title
;
Structure prediction by ZEFSAII (Michael W. Deem and Ramdas Pophale) SiO2 
 PCOD9581550
Probable space group: P 6/M
;
_chemical_formula_sum "Si O2"
_cell_formula_units_Z 42
_cell_length_a 11.220816
_cell_length_b 11.220816
_cell_length_c 18.526561
_cell_angle_alpha 90.000000
_cell_angle_beta 90.000000
_cell_angle_gamma 120.000000
_cell_volume 2020.106770
_symmetry_space_group_name_H-M "P 6/M"
_symmetry_group_IT_number 175
_symmetry_cell_setting 'hexagonal'
loop_
_space_group_symop_operation_xyz
x,y,z
x-y,x,z
-y,x-y,z
-x,-y,z
-x+y,-x,z
y,-x+y,z
-x,-y,-z
-x+y,-x,-z
y,-x+y,-z
x,y,-z
x-y,x,-z
-y,x-y,-z
loop_
_atom_site_type_symbol
_atom_site_label
_atom_site_fract_x
_atom_site_fract_y
_atom_site_fract_z
Si Si1 0.937398 0.688863 0.371148
Si Si2 0.513614 0.339632 0.500000
Si Si3 0.512951 0.339347 0.080318
Si Si4 0.749908 0.058297 0.793120
O O1 0.821509 0.733391 0.380384
O O2 0.902845 0.571449 0.429478
O O3 0.929415 0.638172 0.288876
O O4 0.536834 0.207313 0.500000
O O5 0.537197 0.207999 0.084791
O O6 0.420230 0.332277 0.145984
O O7 0.459208 0.339973 0.000000
O O8 0.909206 0.175068 0.800939
#
# Coordination Sequence:
#
# PCOD9581550 Si02
#       4
#    12   6  12  12
#     4  10  21  38  60  83 108 142 184 227 267 315
#     4  10  24  40  54  80 116 148 172 218 274 326
#     4   8  18  37  56  78 108 143 187 231 268 312
#     4  10  21  36  56  83 113 143 177 222 275 327
#
# _framework density 20.790980999999999
#
# number of rings (size 3 to 8) (size 9 to 14) (size 15 to 20)
#    0.857    1.714    0.000    1.429    0.000    9.143 
#    0.000   10.000    0.000    1.714    0.000    0.000 
#    0.000    0.000    0.000    0.000    0.000    0.000 
#
# Total GULP energy -234495.111752 kJ/mol
# GULP energy per Si atom -5583.216946 kJ/mol
# Density = 2.074366 g / cm^3
# Si number density = 20.790981 Si / 1000 Ang^3
#
#
#
# Elastic Constant Matrix: (Units=GPa)
#
#
# Indices 1 2 3 4 5 6 
#
# 1 77.7378 13.8681 58.2740 0.0000 0.0000 0.0000
# 2 13.8681 77.7378 58.2740 0.0000 0.0000 0.0000
# 3 58.2740 58.2740 138.6206 0.0000 0.0000 0.0000
# 4 0.0000 0.0000 0.0000 -22.0417 0.0000 0.0000
# 5 0.0000 0.0000 0.0000 0.0000 -22.0417 0.0000
# 6 0.0000 0.0000 0.0000 0.0000 0.0000 31.9348
#
#
#
# Elastic Compliance Matrix: (Units=1/GPa)
#
#
# Indices 1 2 3 4 5 6 
#
# 1 0.019562 0.003906 -0.009866 0.000000 0.000000 0.000000
# 2 0.003906 0.019562 -0.009866 0.000000 0.000000 0.000000
# 3 -0.009866 -0.009866 0.015509 0.000000 0.000000 0.000000
# 4 0.000000 0.000000 0.000000 -0.045369 0.000000 0.000000
# 5 0.000000 0.000000 0.000000 0.000000 -0.045369 0.000000
# 6 0.000000 0.000000 0.000000 0.000000 0.000000 0.031314
#
#
# Mechanical properties :
#
#
# Convention : Reuss Voigt Hill
#
# Bulk Modulus (GPa) = 43.51166 61.65871 52.58518
# Shear Modulus (GPa) = 144.83390 8.48231 76.65810
#
# Velocity S-wave (km/s) = 8.35542 2.02204 6.07872
# Velocity P-wave (km/s) = 10.67978 5.93063 8.63800
#
# Compressibility (1/GPa) = 0.02298235
#
# Stress axis : x y z
#
# Youngs Moduli (GPa) = 51.11824 51.11824 64.48019
#
# Poissons Ratio (x) = -0.19965 0.63614
# Poissons Ratio (y) = -0.19965 0.63614
# Poissons Ratio (z) = 0.50431 0.50431
#
# Static dielectric constant tensor:
#      x y z
#    x 1.744580 0.000000 0.000000 
#    y 0.000000 1.744580 0.000000 
#    z 0.000000 0.000000 1.720220 
# 
# From -- ./inp_files/2769.got.cif
#   From: 2010.05.17/outbox.cif.g08.bks.cpg/sg175_2_cif.got.tgz:2769.got - 2010.05.20 11:23:22.
