data_PCOD9581450
_publ_section_title
;
Structure prediction by ZEFSAII (Michael W. Deem and Ramdas Pophale) SiO2 
 PCOD9581450
Probable space group: P 6/M
;
_chemical_formula_sum "Si O2"
_cell_formula_units_Z 84
_cell_length_a 20.565252
_cell_length_b 20.565252
_cell_length_c 14.335449
_cell_angle_alpha 90.000000
_cell_angle_beta 90.000000
_cell_angle_gamma 120.000000
_cell_volume 5250.612920
_symmetry_space_group_name_H-M "P 6/M"
_symmetry_group_IT_number 175
_symmetry_cell_setting 'hexagonal'
loop_
_space_group_symop_operation_xyz
x,y,z
x-y,x,z
-y,x-y,z
-x,-y,z
-x+y,-x,z
y,-x+y,z
-x,-y,-z
-x+y,-x,-z
y,-x+y,-z
x,y,-z
x-y,x,-z
-y,x-y,-z
loop_
_atom_site_type_symbol
_atom_site_label
_atom_site_fract_x
_atom_site_fract_y
_atom_site_fract_z
Si Si1 0.876079 0.049921 0.606371
Si Si2 0.707922 0.933908 0.889342
Si Si3 0.830202 0.538799 0.232139
Si Si4 0.088290 0.284658 0.221600
Si Si5 0.323409 0.745794 0.390431
Si Si6 0.532257 0.831913 0.108615
Si Si7 0.438277 0.914252 0.889738
O O1 0.857907 0.964716 0.616862
O O2 0.855120 0.058380 0.500000
O O3 0.832963 0.068036 0.685462
O O4 0.725716 0.873891 0.840412
O O5 0.618135 0.898684 0.878203
O O6 0.753929 0.013617 0.838871
O O7 0.723998 0.940087 0.000000
O O8 0.872859 0.627808 0.248055
O O9 0.802258 0.488060 0.324360
O O10 0.755952 0.518883 0.172390
O O11 0.883461 0.519012 0.171686
O O12 0.259359 0.658287 0.373267
O O13 0.321407 0.761112 0.500000
O O14 0.475975 0.862866 0.126410
O O15 0.525255 0.809116 0.000000
O O16 0.500000 0.000000 0.868283
O O17 0.420043 0.910945 0.000000
#
# Coordination Sequence:
#
# PCOD9581450 Si02
#       7
#    12  12  12  12  12  12  12
#     4  10  20  37  60  81 104 132 166 214 270 317
#     4  10  20  35  52  73 105 144 181 216 257 308
#     4  11  20  31  53  79 104 136 177 217 265 309
#     4  11  21  33  53  78 106 139 177 217 257 314
#     4   8  17  34  55  76 100 132 170 216 269 317
#     4   9  19  33  49  74 105 136 178 221 260 307
#     4  10  20  34  51  73 105 144 179 214 261 314
#
# _framework density 15.998132
#
# number of rings (size 3 to 8) (size 9 to 14) (size 15 to 20)
#    0.286    1.857    1.429    2.714    0.000    4.000 
#    0.857    0.000    0.000    0.429    0.000    2.000 
#    0.000    0.000    0.000    0.000    0.000    0.000 
#
# Total GULP energy -468430.716887 kJ/mol
# GULP energy per Si atom -5576.556153 kJ/mol
# Density = 1.596172 g / cm^3
# Si number density = 15.998132 Si / 1000 Ang^3
#
#
#
# Elastic Constant Matrix: (Units=GPa)
#
#
# Indices 1 2 3 4 5 6 
#
# 1 76.1654 40.4109 60.5821 0.0000 0.0000 0.0000
# 2 40.4109 76.1654 60.5821 0.0000 0.0000 0.0000
# 3 60.5821 60.5821 109.4228 0.0000 0.0000 0.0000
# 4 0.0000 0.0000 0.0000 26.1516 0.0000 0.0000
# 5 0.0000 0.0000 0.0000 0.0000 26.1516 0.0000
# 6 0.0000 0.0000 0.0000 0.0000 0.0000 17.8772
#
#
#
# Elastic Compliance Matrix: (Units=1/GPa)
#
#
# Indices 1 2 3 4 5 6 
#
# 1 0.024087 -0.003882 -0.011186 0.000000 0.000000 0.000000
# 2 -0.003882 0.024087 -0.011186 0.000000 0.000000 0.000000
# 3 -0.011186 -0.011186 0.021526 0.000000 0.000000 0.000000
# 4 0.000000 0.000000 0.000000 0.038239 0.000000 0.000000
# 5 0.000000 0.000000 0.000000 0.000000 0.038239 0.000000
# 6 0.000000 0.000000 0.000000 0.000000 0.000000 0.055937
#
#
# Mechanical properties :
#
#
# Convention : Reuss Voigt Hill
#
# Bulk Modulus (GPa) = 58.17512 64.98931 61.58221
# Shear Modulus (GPa) = 19.20477 20.71465 19.95971
#
# Velocity S-wave (km/s) = 3.46849 3.60226 3.53601
# Velocity P-wave (km/s) = 7.24453 7.61662 7.43291
#
# Compressibility (1/GPa) = 0.01718948
#
# Stress axis : x y z
#
# Youngs Moduli (GPa) = 41.51687 41.51687 46.45652
#
# Poissons Ratio (x) = 0.16117 0.51968
# Poissons Ratio (y) = 0.16117 0.51968
# Poissons Ratio (z) = 0.46442 0.46442
#
# Static dielectric constant tensor:
#      x y z
#    x 1.519450 0.000000 0.000000 
#    y 0.000000 1.519450 0.000000 
#    z 0.000000 0.000000 1.513110 
# 
# From -- ./inp_files/2623.got.cif
#   From: 2010.05.17/outbox.cif.g08.bks.cpg/sg175_2_cif.got.tgz:2623.got - 2010.05.20 11:23:22.
