data_PCOD9581541
_publ_section_title
;
Structure prediction by ZEFSAII (Michael W. Deem and Ramdas Pophale) SiO2 
 PCOD9581541
Probable space group: P 6/M
;
_chemical_formula_sum "Si O2"
_cell_formula_units_Z 78
_cell_length_a 23.615182
_cell_length_b 23.615182
_cell_length_c 7.667608
_cell_angle_alpha 90.000000
_cell_angle_beta 90.000000
_cell_angle_gamma 120.000000
_cell_volume 3703.165549
_symmetry_space_group_name_H-M "P 6/M"
_symmetry_group_IT_number 175
_symmetry_cell_setting 'hexagonal'
loop_
_space_group_symop_operation_xyz
x,y,z
x-y,x,z
-y,x-y,z
-x,-y,z
-x+y,-x,z
y,-x+y,z
-x,-y,-z
-x+y,-x,-z
y,-x+y,-z
x,y,-z
x-y,x,-z
-y,x-y,-z
loop_
_atom_site_type_symbol
_atom_site_label
_atom_site_fract_x
_atom_site_fract_y
_atom_site_fract_z
Si Si1 0.858320 0.969546 0.708469
Si Si2 0.456223 0.027753 0.300546
Si Si3 0.508838 0.722158 0.791380
Si Si4 0.259107 0.592111 0.500000
Si Si5 0.723936 0.963339 0.210216
Si Si6 0.421841 0.133101 0.202084
Si Si7 0.310561 0.931830 0.791046
O O1 0.866575 0.971000 0.500000
O O2 0.785405 0.956365 0.738816
O O3 0.912121 0.041392 0.776528
O O4 0.478003 0.047017 0.500000
O O5 0.381328 0.970493 0.295266
O O6 0.500000 0.000000 0.220759
O O7 0.454396 0.087920 0.212856
O O8 0.449314 0.672187 0.671314
O O9 0.530097 0.795203 0.729326
O O10 0.574229 0.718280 0.759779
O O11 0.493645 0.712704 0.000000
O O12 0.334260 0.606500 0.500000
O O13 0.730032 0.032718 0.263047
O O14 0.652076 0.907772 0.276218
O O15 0.721529 0.961003 0.000000
O O16 0.412704 0.144247 0.000000
O O17 0.320809 0.942094 0.000000
#
# Coordination Sequence:
#
# PCOD9581541 Si02
#       7
#    12  12  12   6  12  12  12
#     4  10  22  39  56  79 113 159 209 251 301 364
#     4  10  21  35  54  86 119 152 189 242 304 366
#     4  10  22  42  68  94 124 171 214 257 319 376
#     4  10  26  46  62  92 132 167 210 269 310 366
#     4   9  19  36  59  87 122 153 190 253 317 369
#     4   9  20  38  59  86 119 155 198 245 304 376
#     4   9  20  38  59  86 119 155 198 245 304 376
#
# _framework density 21.063061000000001
#
# number of rings (size 3 to 8) (size 9 to 14) (size 15 to 20)
#    0.154    2.308    0.000    1.538    4.308    6.769 
#    0.000    3.077    0.000    0.923    0.000    0.000 
#    0.000    0.000    0.000    0.000    0.000    0.000 
#
# Total GULP energy -435025.969073 kJ/mol
# GULP energy per Si atom -5577.256014 kJ/mol
# Density = 2.101512 g / cm^3
# Si number density = 21.063061 Si / 1000 Ang^3
#
#
#
# Elastic Constant Matrix: (Units=GPa)
#
#
# Indices 1 2 3 4 5 6 
#
# 1 35.9688 -11.7834 3.2211 0.0000 0.0000 0.0000
# 2 -11.7834 35.9688 3.2211 0.0000 0.0000 0.0000
# 3 3.2211 3.2211 46.4914 0.0000 0.0000 0.0000
# 4 0.0000 0.0000 0.0000 19.5966 0.0000 0.0000
# 5 0.0000 0.0000 0.0000 0.0000 19.5966 0.0000
# 6 0.0000 0.0000 0.0000 0.0000 0.0000 23.8761
#
#
#
# Elastic Compliance Matrix: (Units=1/GPa)
#
#
# Indices 1 2 3 4 5 6 
#
# 1 0.031533 0.010592 -0.002919 0.000000 0.000000 0.000000
# 2 0.010592 0.031533 -0.002919 0.000000 0.000000 0.000000
# 3 -0.002919 -0.002919 0.021914 0.000000 0.000000 0.000000
# 4 0.000000 0.000000 0.000000 0.051029 0.000000 0.000000
# 5 0.000000 0.000000 0.000000 0.000000 0.051029 0.000000
# 6 0.000000 0.000000 0.000000 0.000000 0.000000 0.041883
#
#
# Mechanical properties :
#
#
# Convention : Reuss Voigt Hill
#
# Bulk Modulus (GPa) = 10.58326 11.97185 11.27755
# Shear Modulus (GPa) = 19.92758 20.86521 20.39640
#
# Velocity S-wave (km/s) = 3.07920 3.15081 3.11521
# Velocity P-wave (km/s) = 4.20445 4.35120 4.27845
#
# Compressibility (1/GPa) = 0.09448885
#
# Stress axis : x y z
#
# Youngs Moduli (GPa) = 31.71276 31.71276 45.63345
#
# Poissons Ratio (x) = -0.33589 0.13318
# Poissons Ratio (y) = -0.33589 0.13318
# Poissons Ratio (z) = 0.09256 0.09256
#
# Static dielectric constant tensor:
#      x y z
#    x 1.759010 0.000000 0.000000 
#    y 0.000000 1.759010 0.000000 
#    z 0.000000 0.000000 1.774190 
# 
# From -- ./inp_files/1343.got.cif
#   From: 2010.05.17/outbox.cif.g08.bks.cpg/sg175_1_cif.got.tgz:1343.got - 2010.05.20 11:23:22.
