data_PCOD9581234
_publ_section_title
;
Structure prediction by ZEFSAII (Michael W. Deem and Ramdas Pophale) SiO2 
 PCOD9581234
Probable space group: P 6/M
;
_chemical_formula_sum "Si O2"
_cell_formula_units_Z 42
_cell_length_a 18.457102
_cell_length_b 18.457102
_cell_length_c 5.693598
_cell_angle_alpha 90.000000
_cell_angle_beta 90.000000
_cell_angle_gamma 120.000000
_cell_volume 1679.749253
_symmetry_space_group_name_H-M "P 6/M"
_symmetry_group_IT_number 175
_symmetry_cell_setting 'hexagonal'
loop_
_space_group_symop_operation_xyz
x,y,z
x-y,x,z
-y,x-y,z
-x,-y,z
-x+y,-x,z
y,-x+y,z
-x,-y,-z
-x+y,-x,-z
y,-x+y,-z
x,y,-z
x-y,x,-z
-y,x-y,-z
loop_
_atom_site_type_symbol
_atom_site_label
_atom_site_fract_x
_atom_site_fract_y
_atom_site_fract_z
Si Si1 0.941633 0.285073 0.500000
Si Si2 0.836874 0.082669 0.500000
Si Si3 0.894828 0.278219 0.000000
Si Si4 0.224709 0.198055 0.000000
Si Si5 0.574676 0.712997 0.000000
Si Si6 0.546795 0.445968 0.749069
O O1 0.033923 0.297957 0.500000
O O2 0.926532 0.318802 0.256464
O O3 0.879685 0.183027 0.500000
O O4 0.851161 0.048844 0.750879
O O5 0.795635 0.226906 0.000000
O O6 0.933230 0.213206 0.000000
O O7 0.326266 0.248516 0.000000
O O8 0.526881 0.650348 0.213643
O O9 0.500000 0.500000 0.744058
O O10 0.588203 0.451556 0.500000
O O11 0.593888 0.464784 0.000000
#
# Coordination Sequence:
#
# PCOD9581234 Si02
#       6
#     6   6   6   6   6  12
#     4  10  18  30  40  55  74  98 128 166 202 246
#     4  10  18  30  40  55  74  98 128 166 202 246
#     4  10  20  27  39  58  80  99 132 163 193 240
#     4  10  20  27  39  58  80  99 132 163 193 240
#     4  10  17  26  46  52  82 106 137 146 210 210
#     4   8  16  26  38  58  76  98 132 157 176 217
#
# _framework density 25.003733
#
# number of rings (size 3 to 8) (size 9 to 14) (size 15 to 20)
#    0.857    1.714    2.857    0.000    4.000    0.000 
#    0.000    0.000    0.000    0.286    0.000    0.000 
#    0.000    6.857    0.000    6.857    0.000    9.143 
#
# Total GULP energy -234219.987265 kJ/mol
# GULP energy per Si atom -5576.666363 kJ/mol
# Density = 2.494682 g / cm^3
# Si number density = 25.003733 Si / 1000 Ang^3
#
#
#
# Elastic Constant Matrix: (Units=GPa)
#
#
# Indices 1 2 3 4 5 6 
#
# 1 95.6818 22.1102 33.4470 0.0000 0.0000 0.0000
# 2 22.1102 95.6818 33.4470 0.0000 0.0000 0.0000
# 3 33.4470 33.4470 281.4650 0.0000 0.0000 0.0000
# 4 0.0000 0.0000 0.0000 -171.0133 0.0000 0.0000
# 5 0.0000 0.0000 0.0000 0.0000 -171.0133 0.0000
# 6 0.0000 0.0000 0.0000 0.0000 0.0000 36.7858
#
#
#
# Elastic Compliance Matrix: (Units=1/GPa)
#
#
# Indices 1 2 3 4 5 6 
#
# 1 0.011348 -0.002244 -0.001082 0.000000 0.000000 0.000000
# 2 -0.002244 0.011348 -0.001082 0.000000 0.000000 0.000000
# 3 -0.001082 -0.001082 0.003810 0.000000 0.000000 0.000000
# 4 0.000000 0.000000 0.000000 -0.005847 0.000000 0.000000
# 5 0.000000 0.000000 0.000000 0.000000 -0.005847 0.000000
# 6 0.000000 0.000000 0.000000 0.000000 0.000000 0.027184
#
#
# Mechanical properties :
#
#
# Convention : Reuss Voigt Hill
#
# Bulk Modulus (GPa) = 56.52772 72.31524 64.42148
# Shear Modulus (GPa) = 88.17111 -35.45987 26.35562
#
# Velocity S-wave (km/s) = 5.94472 -3.76996 3.25016
# Velocity P-wave (km/s) = 8.35323 3.16771 6.31707
#
# Compressibility (1/GPa) = 0.01769044
#
# Stress axis : x y z
#
# Youngs Moduli (GPa) = 88.12081 88.12081 262.47040
#
# Poissons Ratio (x) = 0.19776 0.28395
# Poissons Ratio (y) = 0.19776 0.28395
# Poissons Ratio (z) = 0.09533 0.09533
#
# Static dielectric constant tensor:
#      x y z
#    x 2.010860 0.000000 0.000000 
#    y 0.000000 2.010860 0.000000 
#    z 0.000000 0.000000 2.148240 
# 
# From -- ./inp_files/132.got.cif
#   From: 2010.05.17/outbox.cif.g08.bks.cpg/sg175_1_cif.got.tgz:132.got - 2010.05.20 11:23:22.
