data_PCOD9581612
_publ_section_title
;
Structure prediction by ZEFSAII (Michael W. Deem and Ramdas Pophale) SiO2 
 PCOD9581612
Probable space group: P 6/M
;
_chemical_formula_sum "Si O2"
_cell_formula_units_Z 72
_cell_length_a 14.854552
_cell_length_b 14.854552
_cell_length_c 17.174515
_cell_angle_alpha 90.000000
_cell_angle_beta 90.000000
_cell_angle_gamma 120.000000
_cell_volume 3281.967153
_symmetry_space_group_name_H-M "P 6/M"
_symmetry_group_IT_number 175
_symmetry_cell_setting 'hexagonal'
loop_
_space_group_symop_operation_xyz
x,y,z
x-y,x,z
-y,x-y,z
-x,-y,z
-x+y,-x,z
y,-x+y,z
-x,-y,-z
-x+y,-x,-z
y,-x+y,-z
x,y,-z
x-y,x,-z
-y,x-y,-z
loop_
_atom_site_type_symbol
_atom_site_label
_atom_site_fract_x
_atom_site_fract_y
_atom_site_fract_z
Si Si1 0.764637 0.833092 0.876716
Si Si2 0.119235 0.586364 0.825938
Si Si3 0.068670 0.235602 0.310841
Si Si4 0.587145 0.468104 0.359294
Si Si5 0.567142 0.753401 0.588679
Si Si6 0.252188 0.788191 0.088841
O O1 0.850489 0.802628 0.898811
O O2 0.753633 0.824352 0.782627
O O3 0.650163 0.761306 0.909719
O O4 0.134818 0.602470 0.733604
O O5 0.153319 0.694530 0.868578
O O6 0.188787 0.541967 0.862323
O O7 0.000000 0.500000 0.839886
O O8 0.149679 0.197595 0.332528
O O9 0.107781 0.345155 0.352163
O O10 0.500000 0.500000 0.374204
O O11 0.538678 0.352502 0.392745
O O12 0.697632 0.544906 0.396787
O O13 0.598880 0.753385 0.500000
O O14 0.259638 0.760676 0.000000
#
# Coordination Sequence:
#
# PCOD9581612 Si02
#       6
#    12  12  12  12  12  12
#     4  10  21  39  63  90 121 160 206 251 294 346
#     4  11  24  43  66  89 117 158 206 251 294 350
#     4  10  21  39  63  90 121 160 206 251 294 346
#     4  11  24  43  66  89 117 158 206 251 294 350
#     4  12  25  40  61  91 126 159 194 245 306 363
#     4  12  25  40  61  91 126 159 194 245 306 363
#
# _framework density 21.938063
#
# number of rings (size 3 to 8) (size 9 to 14) (size 15 to 20)
#    0.000    1.000    0.000    7.000    0.000   13.333 
#    0.000    0.000    0.000    2.000    0.000    0.000 
#    0.000    0.000    0.000    0.000    0.000    0.000 
#
# Total GULP energy -403343.669760 kJ/mol
# GULP energy per Si atom -5601.995413 kJ/mol
# Density = 2.188813 g / cm^3
# Si number density = 21.938063 Si / 1000 Ang^3
#
#
#
# Elastic Constant Matrix: (Units=GPa)
#
#
# Indices 1 2 3 4 5 6 
#
# 1 54.7411 -10.6338 8.4489 0.0000 0.0000 0.0000
# 2 -10.6338 54.7411 8.4489 0.0000 0.0000 0.0000
# 3 8.4489 8.4489 51.8986 0.0000 0.0000 0.0000
# 4 0.0000 0.0000 0.0000 -52.6715 0.0000 0.0000
# 5 0.0000 0.0000 0.0000 0.0000 -52.6715 0.0000
# 6 0.0000 0.0000 0.0000 0.0000 0.0000 32.6875
#
#
#
# Elastic Compliance Matrix: (Units=1/GPa)
#
#
# Indices 1 2 3 4 5 6 
#
# 1 0.019738 0.004442 -0.003936 0.000000 0.000000 0.000000
# 2 0.004442 0.019738 -0.003936 0.000000 0.000000 0.000000
# 3 -0.003936 -0.003936 0.020550 0.000000 0.000000 0.000000
# 4 0.000000 0.000000 0.000000 -0.018986 0.000000 0.000000
# 5 0.000000 0.000000 0.000000 0.000000 -0.018986 0.000000
# 6 0.000000 0.000000 0.000000 0.000000 0.000000 0.030593
#
#
# Mechanical properties :
#
#
# Convention : Reuss Voigt Hill
#
# Bulk Modulus (GPa) = 18.80956 19.32319 19.06637
# Shear Modulus (GPa) = 64.74053 -4.18997 30.27528
#
# Velocity S-wave (km/s) = 5.43826 -1.38349 3.71891
# Velocity P-wave (km/s) = 6.93004 2.50502 5.21059
#
# Compressibility (1/GPa) = 0.05316445
#
# Stress axis : x y z
#
# Youngs Moduli (GPa) = 50.66318 50.66318 48.66182
#
# Poissons Ratio (x) = -0.22504 0.19155
# Poissons Ratio (y) = -0.22504 0.19155
# Poissons Ratio (z) = 0.19943 0.19943
#
# Static dielectric constant tensor:
#      x y z
#    x 1.790320 0.000000 0.000000 
#    y 0.000000 1.790320 0.000000 
#    z 0.000000 0.000000 1.768390 
# 
# From -- ./inp_files/2863.got.cif
#   From: 2010.05.17/outbox.cif.g08.bks.cpg/sg175_2_cif.got.tgz:2863.got - 2010.05.20 11:23:22.
