data_PCOD9581949
_publ_section_title
;
Structure prediction by ZEFSAII (Michael W. Deem and Ramdas Pophale) SiO2 
 PCOD9581949
Probable space group: P 63/M
;
_chemical_formula_sum "Si O2"
_cell_formula_units_Z 60
_cell_length_a 16.017121
_cell_length_b 16.017121
_cell_length_c 11.582578
_cell_angle_alpha 90.000000
_cell_angle_beta 90.000000
_cell_angle_gamma 120.000000
_cell_volume 2573.385077
_symmetry_space_group_name_H-M "P 63/M"
_symmetry_group_IT_number 176
_symmetry_cell_setting 'hexagonal'
loop_
_space_group_symop_operation_xyz
x,y,z
x-y,x,1/2+z
-y,x-y,z
-x,-y,1/2+z
-x+y,-x,z
y,-x+y,1/2+z
-x,-y,-z
-x+y,-x,1/2-z
y,-x+y,-z
x,y,1/2-z
x-y,x,-z
-y,x-y,1/2-z
loop_
_atom_site_type_symbol
_atom_site_label
_atom_site_fract_x
_atom_site_fract_y
_atom_site_fract_z
Si Si1 0.751314 0.036471 0.250000
Si Si2 0.765186 0.715321 0.250000
Si Si3 0.497240 0.813183 0.750000
Si Si4 0.456810 0.974641 0.750000
Si Si5 0.294014 0.012757 0.500093
Si Si6 0.887278 0.497932 0.562114
Si Si7 0.277855 0.486643 0.997465
O O1 0.846686 0.139697 0.250000
O O2 0.642978 0.022931 0.250000
O O3 0.758137 0.999407 0.377958
O O4 0.687970 0.601324 0.250000
O O5 0.751849 0.755198 0.372961
O O6 0.491441 0.755654 0.634769
O O7 0.433540 0.864920 0.750000
O O8 0.528874 0.035121 0.645575
O O9 0.377416 0.123754 0.500146
O O10 0.343624 0.945370 0.500533
O O11 0.839667 0.391817 0.509406
O O12 0.787747 0.498395 0.590250
#
# Coordination Sequence:
#
# PCOD9581949 Si02
#       7
#     6   6   6   6  12  12  12
#     4  12  24  39  71  99 124 189 247 284 356 454
#     4  10  22  42  62  98 127 172 237 293 342 426
#     4  10  20  38  57  82 115 164 234 287 350 410
#     4  12  22  41  68  85 134 191 234 292 380 428
#     4  11  21  42  64  91 135 184 239 299 376 409
#     4  12  23  40  61  94 136 185 239 306 358 426
#     4  11  23  37  60  91 124 179 244 291 351 428
#
# _framework density 23.315595999999999
#
# number of rings (size 3 to 8) (size 9 to 14) (size 15 to 20)
#    0.000    0.800    6.000    4.600    0.000    2.400 
#    0.000    3.000    0.000    0.400    0.000    0.000 
#    0.000    0.000    0.000  103.200    0.000    0.000 
#
# Total GULP energy -334110.582192 kJ/mol
# GULP energy per Si atom -5568.509703 kJ/mol
# Density = 2.326253 g / cm^3
# Si number density = 23.315596 Si / 1000 Ang^3
#
#
#
# Elastic Constant Matrix: (Units=GPa)
#
#
# Indices 1 2 3 4 5 6 
#
# 1 78.9220 19.4478 41.2906 0.0000 0.0000 0.0000
# 2 19.4478 78.9220 41.2906 0.0000 0.0000 0.0000
# 3 41.2906 41.2906 155.3079 0.0000 0.0000 0.0000
# 4 0.0000 0.0000 0.0000 -6.0443 0.0000 0.0000
# 5 0.0000 0.0000 0.0000 0.0000 -6.0443 0.0000
# 6 0.0000 0.0000 0.0000 0.0000 0.0000 29.7371
#
#
#
# Elastic Compliance Matrix: (Units=1/GPa)
#
#
# Indices 1 2 3 4 5 6 
#
# 1 0.014950 -0.001864 -0.003479 0.000000 0.000000 0.000000
# 2 -0.001864 0.014950 -0.003479 0.000000 0.000000 0.000000
# 3 -0.003479 -0.003479 0.008289 0.000000 0.000000 0.000000
# 4 0.000000 0.000000 0.000000 -0.165446 0.000000 0.000000
# 5 0.000000 0.000000 0.000000 0.000000 -0.165446 0.000000
# 6 0.000000 0.000000 0.000000 0.000000 0.000000 0.033628
#
#
# Mechanical properties :
#
#
# Convention : Reuss Voigt Hill
#
# Bulk Modulus (GPa) = 48.67372 57.46779 53.07076
# Shear Modulus (GPa) = -21.31451 17.60458 -1.85496
#
# Velocity S-wave (km/s) = -3.02681 2.75081 -0.89293
# Velocity P-wave (km/s) = 2.95058 5.89835 4.66350
#
# Compressibility (1/GPa) = 0.02054497
#
# Stress axis : x y z
#
# Youngs Moduli (GPa) = 66.88848 66.88848 120.64447
#
# Poissons Ratio (x) = 0.12466 0.41975
# Poissons Ratio (y) = 0.12466 0.41975
# Poissons Ratio (z) = 0.23272 0.23272
#
# Static dielectric constant tensor:
#      x y z
#    x 1.896740 0.000000 0.000000 
#    y 0.000000 1.896740 0.000000 
#    z 0.000000 0.000000 2.077620 
# 
# From -- ./inp_files/1944.got.cif
#   From: 2010.05.17/outbox.cif.g08.bks.cpg/sg176_1_cif.got.tgz:1944.got - 2010.06.03 11:36:45.
