data_PCOD9581772
_publ_section_title
;
Structure prediction by ZEFSAII (Michael W. Deem and Ramdas Pophale) SiO2 
 PCOD9581772
Probable space group: P 63/M
;
_chemical_formula_sum "Si O2"
_cell_formula_units_Z 66
_cell_length_a 13.729011
_cell_length_b 13.729011
_cell_length_c 21.895094
_cell_angle_alpha 90.000000
_cell_angle_beta 90.000000
_cell_angle_gamma 120.000000
_cell_volume 3574.011550
_symmetry_space_group_name_H-M "P 63/M"
_symmetry_group_IT_number 176
_symmetry_cell_setting 'hexagonal'
loop_
_space_group_symop_operation_xyz
x,y,z
x-y,x,1/2+z
-y,x-y,z
-x,-y,1/2+z
-x+y,-x,z
y,-x+y,1/2+z
-x,-y,-z
-x+y,-x,1/2-z
y,-x+y,-z
x,y,1/2-z
x-y,x,-z
-y,x-y,1/2-z
loop_
_atom_site_type_symbol
_atom_site_label
_atom_site_fract_x
_atom_site_fract_y
_atom_site_fract_z
Si Si1 0.887534 0.148114 0.983627
Si Si2 0.883979 0.337978 0.053302
Si Si3 0.794764 0.333109 0.317089
Si Si4 0.828004 0.259274 0.616703
Si Si5 0.595829 0.129877 0.550201
Si Si6 0.283221 0.519532 0.250000
O O1 0.872546 0.182648 0.914685
O O2 0.843808 0.216640 0.024817
O O3 0.017168 0.197664 0.001447
O O4 0.861498 0.332918 0.124538
O O5 0.017147 0.415600 0.041553
O O6 0.832546 0.401969 0.014503
O O7 0.771444 0.437919 0.320274
O O8 0.841612 0.333424 0.250000
O O9 0.704933 0.216905 0.586890
O O10 0.899772 0.386027 0.591254
O O11 0.812303 0.259092 0.688914
O O12 0.411805 0.626217 0.250000
#
# Coordination Sequence:
#
# PCOD9581772 Si02
#       6
#    12  12  12  12  12   6
#     4  11  24  42  63  84 114 155 216 267 311 343
#     4  10  21  34  58  84 112 145 193 249 292 353
#     4   8  18  34  52  78 115 155 187 218 287 360
#     4  11  20  36  58  87 126 156 193 236 299 377
#     4  10  20  33  53  89 113 147 188 233 296 359
#     4  10  18  34  58  88 126 172 186 218 296 380
#
# _framework density 18.466645
#
# number of rings (size 3 to 8) (size 9 to 14) (size 15 to 20)
#    0.545    1.455    3.636    0.545    5.091    0.000 
#    3.273    0.000    2.000    0.000    0.000    0.000 
#    0.000    0.000    0.000    0.000    0.000    0.000 
#
# Total GULP energy -367848.881127 kJ/mol
# GULP energy per Si atom -5573.467896 kJ/mol
# Density = 1.842461 g / cm^3
# Si number density = 18.466645 Si / 1000 Ang^3
#
#
#
# Elastic Constant Matrix: (Units=GPa)
#
#
# Indices 1 2 3 4 5 6 
#
# 1 58.4583 19.0117 36.2142 0.0000 0.0000 0.0000
# 2 19.0117 58.4583 36.2142 0.0000 0.0000 0.0000
# 3 36.2142 36.2142 177.5481 0.0000 0.0000 0.0000
# 4 0.0000 0.0000 0.0000 14.3818 0.0000 0.0000
# 5 0.0000 0.0000 0.0000 0.0000 14.3818 0.0000
# 6 0.0000 0.0000 0.0000 0.0000 0.0000 19.7233
#
#
#
# Elastic Compliance Matrix: (Units=1/GPa)
#
#
# Indices 1 2 3 4 5 6 
#
# 1 0.020650 -0.004700 -0.003253 0.000000 0.000000 0.000000
# 2 -0.004700 0.020650 -0.003253 0.000000 0.000000 0.000000
# 3 -0.003253 -0.003253 0.006959 0.000000 0.000000 0.000000
# 4 0.000000 0.000000 0.000000 0.069532 0.000000 0.000000
# 5 0.000000 0.000000 0.000000 0.000000 0.069532 0.000000
# 6 0.000000 0.000000 0.000000 0.000000 0.000000 0.050701
#
#
# Mechanical properties :
#
#
# Convention : Reuss Voigt Hill
#
# Bulk Modulus (GPa) = 38.69080 53.03830 45.86455
# Shear Modulus (GPa) = 18.58355 23.23236 20.90796
#
# Velocity S-wave (km/s) = 3.17571 3.55078 3.36847
# Velocity P-wave (km/s) = 5.86891 6.75235 6.32607
#
# Compressibility (1/GPa) = 0.02584594
#
# Stress axis : x y z
#
# Youngs Moduli (GPa) = 48.42556 48.42556 143.69065
#
# Poissons Ratio (x) = 0.22762 0.46746
# Poissons Ratio (y) = 0.22762 0.46746
# Poissons Ratio (z) = 0.15754 0.15754
#
# Static dielectric constant tensor:
#      x y z
#    x 1.662980 0.000000 0.000000 
#    y 0.000000 1.662980 0.000000 
#    z 0.000000 0.000000 1.639530 
# 
# From -- ./inp_files/3806.got.cif
#   From: 2010.05.17/outbox.cif.g08.bks.cpg/sg176_2_cif.got.tgz:3806.got - 2010.06.03 11:36:45.
