data_PCOD9581189
_publ_section_title
;
Structure prediction by ZEFSAII (Michael W. Deem and Ramdas Pophale) SiO2 
 PCOD9581189
Probable space group: P -6
;
_chemical_formula_sum "Si O2"
_cell_formula_units_Z 21
_cell_length_a 8.748739
_cell_length_b 8.748739
_cell_length_c 16.689185
_cell_angle_alpha 90.000000
_cell_angle_beta 90.000000
_cell_angle_gamma 120.000000
_cell_volume 1106.258655
_symmetry_space_group_name_H-M "P -6"
_symmetry_group_IT_number 174
_symmetry_cell_setting 'hexagonal'
loop_
_space_group_symop_operation_xyz
x,y,z
-x+y,-x,-z
-y,x-y,z
x,y,-z
-x+y,-x,z
-y,x-y,-z
loop_
_atom_site_type_symbol
_atom_site_label
_atom_site_fract_x
_atom_site_fract_y
_atom_site_fract_z
Si Si1 0.669880 0.996532 0.758964
Si Si2 0.543138 0.859614 0.410036
Si Si3 0.663617 0.533729 0.000000
Si Si4 0.664596 0.661395 0.175262
O O1 0.661464 0.969690 0.663407
O O2 0.711903 0.856597 0.800590
O O3 0.812045 0.190886 0.786476
O O4 0.477550 0.952918 0.788606
O O5 0.346864 0.837210 0.403130
O O6 0.609864 0.921230 0.500000
O O7 0.500606 0.330852 0.000000
O O8 0.662022 0.630468 0.080393
#
# Coordination Sequence:
#
# PCOD9581189 Si02
#       4
#     6   6   3   6
#     4  12  22  42  60 101 118 173 206 258 312 377
#     4   8  15  33  63  91 124 163 204 256 312 374
#     4  10  20  42  62  92 122 166 206 260 318 366
#     4  12  24  39  68  86 134 160 213 259 310 374
#
# _framework density 18.982903
#
# number of rings (size 3 to 8) (size 9 to 14) (size 15 to 20)
#    0.857    0.571    5.714    1.714    0.000    2.286 
#    0.000    2.857    0.000    0.000    0.000    0.000 
#    0.000    0.000    0.000    0.000    0.000    0.000 
#
# Total GULP energy -117142.415325 kJ/mol
# GULP energy per Si atom -5578.210254 kJ/mol
# Density = 1.893970 g / cm^3
# Si number density = 18.982903 Si / 1000 Ang^3
#
#
#
# Elastic Constant Matrix: (Units=GPa)
#
#
# Indices 1 2 3 4 5 6 
#
# 1 40.1853 -12.8175 24.4246 0.0000 0.0000 0.0000
# 2 -12.8175 40.1853 24.4246 0.0000 0.0000 0.0000
# 3 24.4246 24.4246 210.8452 0.0000 0.0000 0.0000
# 4 0.0000 0.0000 0.0000 8.1647 0.0000 0.0000
# 5 0.0000 0.0000 0.0000 0.0000 8.1647 0.0000
# 6 0.0000 0.0000 0.0000 0.0000 0.0000 26.5014
#
#
#
# Elastic Compliance Matrix: (Units=1/GPa)
#
#
# Indices 1 2 3 4 5 6 
#
# 1 0.032465 0.013598 -0.005336 0.000000 0.000000 0.000000
# 2 0.013598 0.032465 -0.005336 0.000000 0.000000 0.000000
# 3 -0.005336 -0.005336 0.005979 0.000000 0.000000 0.000000
# 4 0.000000 0.000000 0.000000 0.122479 0.000000 0.000000
# 5 0.000000 0.000000 0.000000 0.000000 0.122479 0.000000
# 6 0.000000 0.000000 0.000000 0.000000 0.000000 0.037734
#
#
# Mechanical properties :
#
#
# Convention : Reuss Voigt Hill
#
# Bulk Modulus (GPa) = 13.02722 40.36435 26.69579
# Shear Modulus (GPa) = 13.39277 25.57844 19.48561
#
# Velocity S-wave (km/s) = 2.65904 3.67474 3.20735
# Velocity P-wave (km/s) = 4.03792 6.27014 5.27349
#
# Compressibility (1/GPa) = 0.07676234
#
# Stress axis : x y z
#
# Youngs Moduli (GPa) = 30.80206 30.80206 167.24929
#
# Poissons Ratio (x) = -0.41886 0.89246
# Poissons Ratio (y) = -0.41886 0.89246
# Poissons Ratio (z) = 0.16436 0.16436
#
# Static dielectric constant tensor:
#      x y z
#    x 1.637580 0.000000 0.000000 
#    y 0.000000 1.637580 0.000000 
#    z 0.000000 0.000000 1.642900 
# 
# From -- ./inp_files/959.got.cif
#   From: 2010.05.17/outbox.cif.g08.bks.cpg/sg174_cif.got.tgz:959.got - 2010.05.20 11:22:48.
