data_PCOD9581690
_publ_section_title
;
Structure prediction by ZEFSAII (Michael W. Deem and Ramdas Pophale) SiO2 
 PCOD9581690
Probable space group: P 6/M
;
_chemical_formula_sum "Si O2"
_cell_formula_units_Z 72
_cell_length_a 14.403760
_cell_length_b 14.403760
_cell_length_c 17.870273
_cell_angle_alpha 90.000000
_cell_angle_beta 90.000000
_cell_angle_gamma 120.000000
_cell_volume 3210.802346
_symmetry_space_group_name_H-M "P 6/M"
_symmetry_group_IT_number 175
_symmetry_cell_setting 'hexagonal'
loop_
_space_group_symop_operation_xyz
x,y,z
x-y,x,z
-y,x-y,z
-x,-y,z
-x+y,-x,z
y,-x+y,z
-x,-y,-z
-x+y,-x,-z
y,-x+y,-z
x,y,-z
x-y,x,-z
-y,x-y,-z
loop_
_atom_site_type_symbol
_atom_site_label
_atom_site_fract_x
_atom_site_fract_y
_atom_site_fract_z
Si Si1 0.821112 0.582351 0.416155
Si Si2 0.129812 0.569820 0.201704
Si Si3 0.727344 0.659750 0.847222
Si Si4 0.033993 0.236961 0.301708
Si Si5 0.127135 0.581203 0.632818
Si Si6 0.580923 0.720513 0.915846
O O1 0.835011 0.628077 0.500000
O O2 0.916935 0.664402 0.360908
O O3 0.823378 0.472018 0.419664
O O4 0.702182 0.545580 0.385021
O O5 0.142475 0.684134 0.185899
O O6 0.169039 0.572568 0.285033
O O7 0.169592 0.519922 0.138568
O O8 0.000000 0.500000 0.204695
O O9 0.727566 0.734542 0.778876
O O10 0.646357 0.657352 0.908877
O O11 0.830265 0.670726 0.889110
O O12 0.128114 0.207595 0.309717
O O13 0.000000 0.500000 0.629824
O O14 0.546956 0.724646 0.000000
#
# Coordination Sequence:
#
# PCOD9581690 Si02
#       6
#    12  12  12  12  12  12
#     4  12  26  44  71 107 146 192 245 306 381 454
#     4   9  21  39  65  93 127 181 232 283 349 438
#     4  11  22  42  68  97 137 186 243 297 368 455
#     4  12  25  45  75 103 142 196 259 317 382 461
#     4  11  24  44  69  99 141 187 237 293 356 439
#     4  11  23  40  66  99 140 184 237 308 376 443
#
# _framework density 22.424301
#
# number of rings (size 3 to 8) (size 9 to 14) (size 15 to 20)
#    0.000    1.000    1.667    6.500    2.333    7.000 
#    1.000    0.000    0.000    1.000    0.000    2.333 
#    0.000    0.000    0.000    0.000    0.000    0.000 
#
# Total GULP energy -401027.618518 kJ/mol
# GULP energy per Si atom -5569.828035 kJ/mol
# Density = 2.237326 g / cm^3
# Si number density = 22.424301 Si / 1000 Ang^3
#
#
#
# Elastic Constant Matrix: (Units=GPa)
#
#
# Indices 1 2 3 4 5 6 
#
# 1 89.9585 27.3474 44.4658 0.0000 0.0000 0.0000
# 2 27.3474 89.9585 44.4658 0.0000 0.0000 0.0000
# 3 44.4658 44.4658 158.4639 0.0000 0.0000 0.0000
# 4 0.0000 0.0000 0.0000 16.5683 0.0000 0.0000
# 5 0.0000 0.0000 0.0000 0.0000 16.5683 0.0000
# 6 0.0000 0.0000 0.0000 0.0000 0.0000 31.3055
#
#
#
# Elastic Compliance Matrix: (Units=1/GPa)
#
#
# Indices 1 2 3 4 5 6 
#
# 1 0.013400 -0.002572 -0.003038 0.000000 0.000000 0.000000
# 2 -0.002572 0.013400 -0.003038 0.000000 0.000000 0.000000
# 3 -0.003038 -0.003038 0.008016 0.000000 0.000000 0.000000
# 4 0.000000 0.000000 0.000000 0.060356 0.000000 0.000000
# 5 0.000000 0.000000 0.000000 0.000000 0.060356 0.000000
# 6 0.000000 0.000000 0.000000 0.000000 0.000000 0.031943
#
#
# Mechanical properties :
#
#
# Convention : Reuss Voigt Hill
#
# Bulk Modulus (GPa) = 57.08276 63.43766 60.26021
# Shear Modulus (GPa) = 23.74078 27.69522 25.71800
#
# Velocity S-wave (km/s) = 3.25731 3.51815 3.39024
# Velocity P-wave (km/s) = 6.29744 6.69733 6.50046
#
# Compressibility (1/GPa) = 0.01751842
#
# Stress axis : x y z
#
# Youngs Moduli (GPa) = 74.62732 74.62732 124.75370
#
# Poissons Ratio (x) = 0.19192 0.37906
# Poissons Ratio (y) = 0.19192 0.37906
# Poissons Ratio (z) = 0.22675 0.22675
#
# Static dielectric constant tensor:
#      x y z
#    x 1.911290 0.000000 0.000000 
#    y 0.000000 1.911290 0.000000 
#    z 0.000000 0.000000 1.973970 
# 
# From -- ./inp_files/2872.got.cif
#   From: 2010.05.17/outbox.cif.g08.bks.cpg/sg175_2_cif.got.tgz:2872.got - 2010.05.20 11:23:22.
