data_PCOD9581291
_publ_section_title
;
Structure prediction by ZEFSAII (Michael W. Deem and Ramdas Pophale) SiO2 
 PCOD9581291
Probable space group: P 6/M
;
_chemical_formula_sum "Si O2"
_cell_formula_units_Z 66
_cell_length_a 16.747510
_cell_length_b 16.747510
_cell_length_c 18.981973
_cell_angle_alpha 90.000000
_cell_angle_beta 90.000000
_cell_angle_gamma 120.000000
_cell_volume 4610.759551
_symmetry_space_group_name_H-M "P 6/M"
_symmetry_group_IT_number 175
_symmetry_cell_setting 'hexagonal'
loop_
_space_group_symop_operation_xyz
x,y,z
x-y,x,z
-y,x-y,z
-x,-y,z
-x+y,-x,z
y,-x+y,z
-x,-y,-z
-x+y,-x,-z
y,-x+y,-z
x,y,-z
x-y,x,-z
-y,x-y,-z
loop_
_atom_site_type_symbol
_atom_site_label
_atom_site_fract_x
_atom_site_fract_y
_atom_site_fract_z
Si Si1 0.465002 0.166000 0.583054
Si Si2 0.180321 0.978797 0.230801
Si Si3 0.131529 0.500145 0.583061
Si Si4 0.204245 0.174632 0.500000
Si Si5 0.978743 0.799384 0.924318
Si Si6 0.297583 0.995277 0.364966
O O1 0.442107 0.143642 0.500000
O O2 0.544143 0.142074 0.601556
O O3 0.502460 0.274072 0.591067
O O4 0.372103 0.103138 0.625764
O O5 0.217259 0.974298 0.152504
O O6 0.242032 0.974811 0.293106
O O7 0.075848 0.894153 0.236899
O O8 0.105735 0.483539 0.500000
O O9 0.057869 0.412437 0.626146
O O10 0.111631 0.181262 0.500000
O O11 0.262237 0.227081 0.430723
O O12 0.895025 0.820220 0.924458
O O13 0.973754 0.752324 0.000000
#
# Coordination Sequence:
#
# PCOD9581291 Si02
#       6
#    12  12  12   6  12  12
#     4  10  19  32  48  65  82 104 136 177 220 259
#     4  10  19  29  41  58  82 113 146 179 211 246
#     4  10  19  32  48  65  82 104 136 177 220 259
#     4  12  23  34  43  54  76 112 152 182 203 230
#     4   8  13  22  37  56  77 102 134 171 210 250
#     4  12  21  31  45  60  84 112 142 174 209 246
#
# _framework density 14.314344
#
# number of rings (size 3 to 8) (size 9 to 14) (size 15 to 20)
#    0.000    1.818    1.818    4.636    0.000    5.091 
#    0.000    1.818    0.000    0.000    0.000    0.000 
#    0.000    2.909    0.000    0.727    0.000    9.091 
#
# Total GULP energy -368025.037858 kJ/mol
# GULP energy per Si atom -5576.136937 kJ/mol
# Density = 1.428176 g / cm^3
# Si number density = 14.314344 Si / 1000 Ang^3
#
#
#
# Elastic Constant Matrix: (Units=GPa)
#
#
# Indices 1 2 3 4 5 6 
#
# 1 42.4758 3.0578 20.2577 0.0000 0.0000 0.0000
# 2 3.0578 42.4758 20.2577 0.0000 0.0000 0.0000
# 3 20.2577 20.2577 107.2029 0.0000 0.0000 0.0000
# 4 0.0000 0.0000 0.0000 10.3023 0.0000 0.0000
# 5 0.0000 0.0000 0.0000 0.0000 10.3023 0.0000
# 6 0.0000 0.0000 0.0000 0.0000 0.0000 19.7090
#
#
#
# Elastic Compliance Matrix: (Units=1/GPa)
#
#
# Indices 1 2 3 4 5 6 
#
# 1 0.025885 0.000516 -0.004989 0.000000 0.000000 0.000000
# 2 0.000516 0.025885 -0.004989 0.000000 0.000000 0.000000
# 3 -0.004989 -0.004989 0.011214 0.000000 0.000000 0.000000
# 4 0.000000 0.000000 0.000000 0.097066 0.000000 0.000000
# 5 0.000000 0.000000 0.000000 0.000000 0.097066 0.000000
# 6 0.000000 0.000000 0.000000 0.000000 0.000000 0.050738
#
#
# Mechanical properties :
#
#
# Convention : Reuss Voigt Hill
#
# Bulk Modulus (GPa) = 22.69645 31.03345 26.86495
# Shear Modulus (GPa) = 14.64286 17.96814 16.30550
#
# Velocity S-wave (km/s) = 3.20183 3.54680 3.37872
# Velocity P-wave (km/s) = 5.43683 6.20484 5.83349
#
# Compressibility (1/GPa) = 0.04405975
#
# Stress axis : x y z
#
# Youngs Moduli (GPa) = 38.63245 38.63245 89.17774
#
# Poissons Ratio (x) = -0.01993 0.44490
# Poissons Ratio (y) = -0.01993 0.44490
# Poissons Ratio (z) = 0.19273 0.19273
#
# Static dielectric constant tensor:
#      x y z
#    x 1.474260 0.000000 0.000000 
#    y 0.000000 1.474260 0.000000 
#    z 0.000000 0.000000 1.490090 
# 
# From -- ./inp_files/3119.got.cif
#   From: 2010.05.17/outbox.cif.g08.bks.cpg/sg175_2_cif.got.tgz:3119.got - 2010.05.20 11:23:22.
