data_PCOD9581929
_publ_section_title
;
Structure prediction by ZEFSAII (Michael W. Deem and Ramdas Pophale) SiO2 
 PCOD9581929
Probable space group: P 63/M
;
_chemical_formula_sum "Si O2"
_cell_formula_units_Z 76
_cell_length_a 18.283590
_cell_length_b 18.283590
_cell_length_c 12.532577
_cell_angle_alpha 90.000000
_cell_angle_beta 90.000000
_cell_angle_gamma 120.000000
_cell_volume 3628.222908
_symmetry_space_group_name_H-M "P 63/M"
_symmetry_group_IT_number 176
_symmetry_cell_setting 'hexagonal'
loop_
_space_group_symop_operation_xyz
x,y,z
x-y,x,1/2+z
-y,x-y,z
-x,-y,1/2+z
-x+y,-x,z
y,-x+y,1/2+z
-x,-y,-z
-x+y,-x,1/2-z
y,-x+y,-z
x,y,1/2-z
x-y,x,-z
-y,x-y,1/2-z
loop_
_atom_site_type_symbol
_atom_site_label
_atom_site_fract_x
_atom_site_fract_y
_atom_site_fract_z
Si Si1 0.279824 0.954139 0.372394
Si Si2 0.492549 0.736199 0.961227
Si Si3 0.148347 0.804608 0.869251
Si Si4 0.666667 0.333334 0.618826
Si Si5 0.551430 0.129277 0.416422
Si Si6 0.936647 0.500202 0.868542
Si Si7 0.192238 0.126179 0.488249
O O1 0.259278 0.927278 0.250000
O O2 0.334534 0.056349 0.376118
O O3 0.346081 0.924271 0.405544
O O4 0.194818 0.933806 0.431666
O O5 0.427564 0.705824 0.063289
O O6 0.593503 0.794689 0.962990
O O7 0.473831 0.651419 0.901476
O O8 0.471881 0.799102 0.893884
O O9 0.182705 0.809915 0.750000
O O10 0.134415 0.883951 0.887596
O O11 0.666667 0.333334 0.750000
O O12 0.534251 0.105641 0.542925
O O13 0.500322 0.037425 0.365170
O O14 0.901632 0.472832 0.750000
O O15 0.120839 0.151279 0.470374
#
# Coordination Sequence:
#
# PCOD9581929 Si02
#       7
#    12  12  12   4  12  12  12
#     4   9  18  35  60  84 114 159 204 248 305 370
#     4  10  20  37  59  86 121 163 202 254 307 362
#     4  10  20  36  58  83 117 162 205 253 312 367
#     4   9  21  39  61  92 127 165 207 255 310 359
#     4  10  21  35  58  86 116 154 203 245 299 360
#     4  10  20  37  58  83 116 157 200 249 298 355
#     4  10  21  37  59  88 121 158 202 258 316 380
#
# _framework density 20.946894
#
# number of rings (size 3 to 8) (size 9 to 14) (size 15 to 20)
#    0.000    2.211    1.579    1.421    0.000    3.789 
#    0.000    3.158    0.000    4.737    0.000    0.000 
#    0.000    0.000    0.000    0.000    0.000    0.000 
#
# Total GULP energy -423271.235748 kJ/mol
# GULP energy per Si atom -5569.358365 kJ/mol
# Density = 2.089922 g / cm^3
# Si number density = 20.946894 Si / 1000 Ang^3
#
#
#
# Elastic Constant Matrix: (Units=GPa)
#
#
# Indices 1 2 3 4 5 6 
#
# 1 80.2359 22.1221 17.4418 0.0000 0.0000 0.0000
# 2 22.1221 80.2361 17.4419 0.0000 0.0000 -0.0001
# 3 17.4418 17.4419 76.9738 0.0000 0.0000 0.0000
# 4 0.0000 0.0000 0.0000 11.1450 0.0000 0.0000
# 5 0.0000 0.0000 0.0000 0.0000 11.1448 0.0000
# 6 0.0000 -0.0001 0.0000 0.0000 0.0000 29.0568
#
#
#
# Elastic Compliance Matrix: (Units=1/GPa)
#
#
# Indices 1 2 3 4 5 6 
#
# 1 0.013897 -0.003310 -0.002399 0.000000 0.000000 0.000000
# 2 -0.003310 0.013897 -0.002399 0.000000 0.000000 0.000000
# 3 -0.002399 -0.002399 0.014079 0.000000 0.000000 0.000000
# 4 0.000000 0.000000 0.000000 0.089727 0.000000 0.000000
# 5 0.000000 0.000000 0.000000 0.000000 0.089728 0.000000
# 6 0.000000 0.000000 0.000000 0.000000 0.000000 0.034415
#
#
# Mechanical properties :
#
#
# Convention : Reuss Voigt Hill
#
# Bulk Modulus (GPa) = 38.97567 39.05082 39.01324
# Shear Modulus (GPa) = 17.82453 22.29863 20.06158
#
# Velocity S-wave (km/s) = 2.92025 3.26626 3.09809
# Velocity P-wave (km/s) = 5.47885 5.73653 5.60917
#
# Compressibility (1/GPa) = 0.02565703
#
# Stress axis : x y z
#
# Youngs Moduli (GPa) = 71.95584 71.95600 71.02964
#
# Poissons Ratio (x) = 0.23819 0.17040
# Poissons Ratio (y) = 0.23819 0.17040
# Poissons Ratio (z) = 0.17262 0.17262
#
# Static dielectric constant tensor:
#      x y z
#    x 1.792350 0.000000 0.000000 
#    y 0.000000 1.792350 0.000000 
#    z 0.000000 0.000000 1.765000 
# 
# From -- ./inp_files/2863.got.cif
#   From: 2010.05.17/outbox.cif.g08.bks.cpg/sg176_2_cif.got.tgz:2863.got - 2010.06.03 11:36:45.
