data_PCOD9581651
_publ_section_title
;
Structure prediction by ZEFSAII (Michael W. Deem and Ramdas Pophale) SiO2 
 PCOD9581651
Probable space group: P 6/M
;
_chemical_formula_sum "Si O2"
_cell_formula_units_Z 76
_cell_length_a 18.368553
_cell_length_b 18.368553
_cell_length_c 14.362591
_cell_angle_alpha 90.000000
_cell_angle_beta 90.000000
_cell_angle_gamma 120.000000
_cell_volume 4196.752100
_symmetry_space_group_name_H-M "P 6/M"
_symmetry_group_IT_number 175
_symmetry_cell_setting 'hexagonal'
loop_
_space_group_symop_operation_xyz
x,y,z
x-y,x,z
-y,x-y,z
-x,-y,z
-x+y,-x,z
y,-x+y,z
-x,-y,-z
-x+y,-x,-z
y,-x+y,-z
x,y,-z
x-y,x,-z
-y,x-y,-z
loop_
_atom_site_type_symbol
_atom_site_label
_atom_site_fract_x
_atom_site_fract_y
_atom_site_fract_z
Si Si1 0.864933 0.469626 0.606823
Si Si2 0.202583 0.497902 0.212161
Si Si3 0.740009 0.639726 0.214793
Si Si4 0.428711 0.403370 0.110029
Si Si5 0.333334 0.666668 0.110750
Si Si6 0.804120 0.935295 0.108476
Si Si7 0.361397 0.407505 0.606349
O O1 0.834484 0.459755 0.500000
O O2 0.803984 0.469349 0.685622
O O3 0.893039 0.400343 0.625002
O O4 0.951627 0.559486 0.612991
O O5 0.232288 0.429986 0.216781
O O6 0.110537 0.455596 0.165713
O O7 0.266085 0.575900 0.149827
O O8 0.659317 0.611220 0.148575
O O9 0.814743 0.726060 0.175244
O O10 0.707922 0.644838 0.317491
O O11 0.500000 0.500000 0.125341
O O12 0.423198 0.385378 0.000000
O O13 0.333334 0.666668 0.000000
O O14 0.842590 0.874663 0.122449
O O15 0.776207 0.925916 0.000000
O O16 0.330987 0.390773 0.500000
#
# Coordination Sequence:
#
# PCOD9581651 Si02
#       7
#    12  12  12  12   4  12  12
#     4   9  18  36  62  87 114 154 201 247 296 347
#     4  12  24  39  60  86 120 158 199 252 300 358
#     4  12  23  35  59  91 122 150 192 249 309 361
#     4  11  23  39  58  79 111 159 207 245 289 352
#     4  12  27  42  55  80 121 171 210 243 295 353
#     4  10  22  41  64  89 118 155 200 253 312 372
#     4   9  18  35  60  86 117 155 194 238 291 352
#
# _framework density 18.109241999999998
#
# number of rings (size 3 to 8) (size 9 to 14) (size 15 to 20)
#    0.000    1.421    1.579    5.842    0.000    6.316 
#    0.000    0.789    0.000    0.000    0.000    0.000 
#    0.000    1.263    0.000    0.000    0.000    0.000 
#
# Total GULP energy -424940.038012 kJ/mol
# GULP energy per Si atom -5591.316290 kJ/mol
# Density = 1.806802 g / cm^3
# Si number density = 18.109242 Si / 1000 Ang^3
#
#
#
# Elastic Constant Matrix: (Units=GPa)
#
#
# Indices 1 2 3 4 5 6 
#
# 1 64.4887 11.2492 52.8495 0.0000 0.0000 0.0002
# 2 11.2492 64.4880 52.8491 0.0000 0.0000 0.0001
# 3 52.8495 52.8491 126.9996 0.0000 0.0000 0.0003
# 4 0.0000 0.0000 0.0000 13.3483 -0.0002 0.0000
# 5 0.0000 0.0000 0.0000 -0.0002 13.3498 0.0000
# 6 0.0002 0.0001 0.0003 0.0000 0.0000 26.6197
#
#
#
# Elastic Compliance Matrix: (Units=1/GPa)
#
#
# Indices 1 2 3 4 5 6 
#
# 1 0.025138 0.006355 -0.013106 0.000000 0.000000 0.000000
# 2 0.006355 0.025139 -0.013106 0.000000 0.000000 0.000000
# 3 -0.013106 -0.013106 0.018782 0.000000 0.000000 0.000000
# 4 0.000000 0.000000 0.000000 0.074916 0.000001 0.000000
# 5 0.000000 0.000000 0.000000 0.000001 0.074907 0.000000
# 6 0.000000 0.000000 0.000000 0.000000 0.000000 0.037566
#
#
# Mechanical properties :
#
#
# Convention : Reuss Voigt Hill
#
# Bulk Modulus (GPa) = 34.07605 54.43022 44.25313
# Shear Modulus (GPa) = 16.34298 19.93215 18.13756
#
# Velocity S-wave (km/s) = 3.00737 3.32122 3.16818
# Velocity P-wave (km/s) = 5.56029 6.69546 6.15410
#
# Compressibility (1/GPa) = 0.02934612
#
# Stress axis : x y z
#
# Youngs Moduli (GPa) = 39.77990 39.77961 53.24371
#
# Poissons Ratio (x) = -0.25281 0.69779
# Poissons Ratio (y) = -0.25281 0.69780
# Poissons Ratio (z) = 0.52134 0.52134
#
# Static dielectric constant tensor:
#      x y z
#    x 1.605970 0.000000 0.000000 
#    y 0.000000 1.605970 0.000000 
#    z 0.000000 0.000000 1.625280 
# 
# From -- ./inp_files/2530.got.cif
#   From: 2010.05.17/outbox.cif.g08.bks.cpg/sg175_2_cif.got.tgz:2530.got - 2010.05.20 11:23:22.
