data_PCOD9581311
_publ_section_title
;
Structure prediction by ZEFSAII (Michael W. Deem and Ramdas Pophale) SiO2 
 PCOD9581311
Probable space group: P 6/M
;
_chemical_formula_sum "Si O2"
_cell_formula_units_Z 72
_cell_length_a 23.574056
_cell_length_b 23.574056
_cell_length_c 7.629348
_cell_angle_alpha 90.000000
_cell_angle_beta 90.000000
_cell_angle_gamma 120.000000
_cell_volume 3671.864771
_symmetry_space_group_name_H-M "P 6/M"
_symmetry_group_IT_number 175
_symmetry_cell_setting 'hexagonal'
loop_
_space_group_symop_operation_xyz
x,y,z
x-y,x,z
-y,x-y,z
-x,-y,z
-x+y,-x,z
y,-x+y,z
-x,-y,-z
-x+y,-x,-z
y,-x+y,-z
x,y,-z
x-y,x,-z
-y,x-y,-z
loop_
_atom_site_type_symbol
_atom_site_label
_atom_site_fract_x
_atom_site_fract_y
_atom_site_fract_z
Si Si1 0.408306 0.910399 0.213337
Si Si2 0.026271 0.705669 0.700689
Si Si3 0.943269 0.850745 0.214432
Si Si4 0.273491 0.879988 0.798544
Si Si5 0.458381 0.062618 0.789208
Si Si6 0.153385 0.291110 0.209773
O O1 0.333636 0.873679 0.279310
O O2 0.466038 0.896784 0.271733
O O3 0.434541 0.986758 0.253813
O O4 0.406146 0.905796 0.000000
O O5 0.007543 0.703056 0.500000
O O6 0.071352 0.671870 0.720145
O O7 0.069955 0.780264 0.758698
O O8 0.957919 0.660821 0.799846
O O9 0.897038 0.879503 0.270230
O O10 0.908810 0.775716 0.274410
O O11 0.943856 0.850481 0.000000
O O12 0.201209 0.845648 0.718097
O O13 0.267248 0.857682 0.000000
O O14 0.458203 0.068080 0.000000
O O15 0.145915 0.292423 0.000000
#
# Coordination Sequence:
#
# PCOD9581311 Si02
#       6
#    12  12  12  12  12  12
#     4   7  11  22  43  67  86 108 139 176 211 244
#     4  11  21  30  42  63  93 122 148 182 226 277
#     4   9  16  26  42  64  86 108 142 193 247 292
#     4   9  17  31  49  66  87 117 154 190 226 270
#     4   8  13  25  44  63  86 114 143 170 204 252
#     4  10  19  31  47  64  86 119 157 193 233 286
#
# _framework density 19.608566
#
# number of rings (size 3 to 8) (size 9 to 14) (size 15 to 20)
#    0.000    3.000    0.000    4.667    0.000    4.000 
#    0.000    6.667    0.000    0.000    0.000    0.000 
#    1.667    2.667    3.000    0.000    1.000    0.000 
#
# Total GULP energy -400980.533538 kJ/mol
# GULP energy per Si atom -5569.174077 kJ/mol
# Density = 1.956394 g / cm^3
# Si number density = 19.608566 Si / 1000 Ang^3
#
#
#
# Elastic Constant Matrix: (Units=GPa)
#
#
# Indices 1 2 3 4 5 6 
#
# 1 38.0713 -10.0106 -2.7506 0.0000 0.0000 0.0000
# 2 -10.0106 38.0713 -2.7506 0.0000 0.0000 0.0000
# 3 -2.7506 -2.7506 40.0441 0.0000 0.0000 0.0000
# 4 0.0000 0.0000 0.0000 -39.9332 0.0000 0.0000
# 5 0.0000 0.0000 0.0000 0.0000 -39.9332 0.0000
# 6 0.0000 0.0000 0.0000 0.0000 0.0000 24.0409
#
#
#
# Elastic Compliance Matrix: (Units=1/GPa)
#
#
# Indices 1 2 3 4 5 6 
#
# 1 0.028461 0.007663 0.002481 0.000000 0.000000 0.000000
# 2 0.007663 0.028461 0.002481 0.000000 0.000000 0.000000
# 3 0.002481 0.002481 0.025313 0.000000 0.000000 0.000000
# 4 0.000000 0.000000 0.000000 -0.025042 0.000000 0.000000
# 5 0.000000 0.000000 0.000000 0.000000 -0.025042 0.000000
# 6 0.000000 0.000000 0.000000 0.000000 0.000000 0.041596
#
#
# Mechanical properties :
#
#
# Convention : Reuss Voigt Hill
#
# Bulk Modulus (GPa) = 9.30358 9.46257 9.38307
# Shear Modulus (GPa) = 59.29467 -2.38521 28.45473
#
# Velocity S-wave (km/s) = 5.50498 -1.10411 3.81351
# Velocity P-wave (km/s) = 6.72022 1.79187 4.91794
#
# Compressibility (1/GPa) = 0.10748549
#
# Stress axis : x y z
#
# Youngs Moduli (GPa) = 35.13618 35.13618 39.50483
#
# Poissons Ratio (x) = -0.26924 -0.09802
# Poissons Ratio (y) = -0.26924 -0.09802
# Poissons Ratio (z) = -0.08718 -0.08718
#
# Static dielectric constant tensor:
#      x y z
#    x 1.725170 0.000000 0.000000 
#    y 0.000000 1.725170 0.000000 
#    z 0.000000 0.000000 1.745410 
# 
# From -- ./inp_files/1226.got.cif
#   From: 2010.05.17/outbox.cif.g08.bks.cpg/sg175_1_cif.got.tgz:1226.got - 2010.05.20 11:23:22.
