data_PCOD9581682
_publ_section_title
;
Structure prediction by ZEFSAII (Michael W. Deem and Ramdas Pophale) SiO2 
 PCOD9581682
Probable space group: P 6/M
;
_chemical_formula_sum "Si O2"
_cell_formula_units_Z 96
_cell_length_a 18.414301
_cell_length_b 18.414301
_cell_length_c 19.866739
_cell_angle_alpha 90.000000
_cell_angle_beta 90.000000
_cell_angle_gamma 120.000000
_cell_volume 5834.017045
_symmetry_space_group_name_H-M "P 6/M"
_symmetry_group_IT_number 175
_symmetry_cell_setting 'hexagonal'
loop_
_space_group_symop_operation_xyz
x,y,z
x-y,x,z
-y,x-y,z
-x,-y,z
-x+y,-x,z
y,-x+y,z
-x,-y,-z
-x+y,-x,-z
y,-x+y,-z
x,y,-z
x-y,x,-z
-y,x-y,-z
loop_
_atom_site_type_symbol
_atom_site_label
_atom_site_fract_x
_atom_site_fract_y
_atom_site_fract_z
Si Si1 1.000000 0.661682 0.580735
Si Si2 0.838188 0.506329 0.073267
Si Si3 0.835335 0.330497 0.358041
Si Si4 0.093472 0.458893 0.784398
Si Si5 0.331860 0.493671 0.926733
Si Si6 0.365421 0.458893 0.784398
Si Si7 0.830981 0.000000 0.418065
Si Si8 0.835335 0.504838 0.358041
O O1 0.000000 0.660687 0.500000
O O2 1.000000 0.746446 0.602714
O O3 0.916905 0.579405 0.606608
O O4 0.083095 0.662500 0.606608
O O5 0.881210 0.554981 0.141534
O O6 0.742657 0.485313 0.075559
O O7 0.841119 0.420560 0.074431
O O8 0.873462 0.547130 0.000000
O O9 0.846943 0.320216 0.278255
O O10 0.833229 0.416615 0.366886
O O11 0.749805 0.250195 0.381969
O O12 0.091204 0.545602 0.788666
O O13 0.153057 0.473273 0.721745
O O14 0.000000 0.386737 0.767425
O O15 0.326229 0.445019 0.858466
O O16 0.326332 0.452870 0.000000
O O17 0.831496 0.000000 0.500000
O O18 0.915416 0.084585 0.396649
#
# Coordination Sequence:
#
# PCOD9581682 Si02
#       8
#    12  12  12  12  12  12  12  12
#     4  11  23  39  57  77 104 137 167 203 261 323
#     4   9  16  25  39  61  90 123 159 201 247 293
#     4  11  22  37  56  77 101 133 174 218 259 304
#     4   9  17  30  46  65  91 123 160 203 251 299
#     4   9  16  25  39  61  90 123 159 201 247 293
#     4   9  17  30  46  65  91 123 160 203 251 299
#     4   9  17  31  53  81 109 134 161 195 238 294
#     4  11  22  37  56  77 101 133 174 218 259 304
#
# _framework density 16.455214000000002
#
# number of rings (size 3 to 8) (size 9 to 14) (size 15 to 20)
#    0.000    2.250    1.250    2.500    0.000    4.500 
#    0.000    5.000    0.000    1.500    0.000    0.000 
#    0.000    0.000    0.000    0.000    0.000    0.000 
#
# Total GULP energy -534688.202763 kJ/mol
# GULP energy per Si atom -5569.668779 kJ/mol
# Density = 1.641776 g / cm^3
# Si number density = 16.455214 Si / 1000 Ang^3
#
#
#
# Elastic Constant Matrix: (Units=GPa)
#
#
# Indices 1 2 3 4 5 6 
#
# 1 107.6025 61.8450 32.6298 0.0000 0.0000 0.0000
# 2 61.8450 107.6025 32.6298 0.0000 0.0000 0.0000
# 3 32.6298 32.6298 65.4604 0.0000 0.0000 0.0000
# 4 0.0000 0.0000 0.0000 19.7124 0.0000 0.0000
# 5 0.0000 0.0000 0.0000 0.0000 19.7124 0.0000
# 6 0.0000 0.0000 0.0000 0.0000 0.0000 22.8787
#
#
#
# Elastic Compliance Matrix: (Units=1/GPa)
#
#
# Indices 1 2 3 4 5 6 
#
# 1 0.014579 -0.007275 -0.003641 0.000000 0.000000 0.000000
# 2 -0.007275 0.014579 -0.003641 0.000000 0.000000 0.000000
# 3 -0.003641 -0.003641 0.018906 0.000000 0.000000 0.000000
# 4 0.000000 0.000000 0.000000 0.050730 0.000000 0.000000
# 5 0.000000 0.000000 0.000000 0.000000 0.050730 0.000000
# 6 0.000000 0.000000 0.000000 0.000000 0.000000 0.043709
#
#
# Mechanical properties :
#
#
# Convention : Reuss Voigt Hill
#
# Bulk Modulus (GPa) = 52.76858 59.43053 56.09955
# Shear Modulus (GPa) = 21.86635 22.69807 22.28221
#
# Velocity S-wave (km/s) = 3.64928 3.71804 3.68382
# Velocity P-wave (km/s) = 7.06356 7.39099 7.22913
#
# Compressibility (1/GPa) = 0.01895067
#
# Stress axis : x y z
#
# Youngs Moduli (GPa) = 68.59178 68.59178 52.89360
#
# Poissons Ratio (x) = 0.49903 0.19257
# Poissons Ratio (y) = 0.49903 0.19257
# Poissons Ratio (z) = 0.24972 0.24972
#
# Static dielectric constant tensor:
#      x y z
#    x 1.542880 0.000000 0.000000 
#    y 0.000000 1.542880 0.000000 
#    z 0.000000 0.000000 1.601520 
# 
# From -- ./inp_files/3188.got.cif
#   From: 2010.05.17/outbox.cif.g08.bks.cpg/sg175_2_cif.got.tgz:3188.got - 2010.05.20 11:23:22.
