data_PCOD9581348
_publ_section_title
;
Structure prediction by ZEFSAII (Michael W. Deem and Ramdas Pophale) SiO2 
 PCOD9581348
Probable space group: P 6/M
;
_chemical_formula_sum "Si O2"
_cell_formula_units_Z 72
_cell_length_a 23.512840
_cell_length_b 23.512840
_cell_length_c 7.683226
_cell_angle_alpha 90.000000
_cell_angle_beta 90.000000
_cell_angle_gamma 120.000000
_cell_volume 3678.615673
_symmetry_space_group_name_H-M "P 6/M"
_symmetry_group_IT_number 175
_symmetry_cell_setting 'hexagonal'
loop_
_space_group_symop_operation_xyz
x,y,z
x-y,x,z
-y,x-y,z
-x,-y,z
-x+y,-x,z
y,-x+y,z
-x,-y,-z
-x+y,-x,-z
y,-x+y,-z
x,y,-z
x-y,x,-z
-y,x-y,-z
loop_
_atom_site_type_symbol
_atom_site_label
_atom_site_fract_x
_atom_site_fract_y
_atom_site_fract_z
Si Si1 0.515327 0.916958 0.286895
Si Si2 0.369265 0.249960 0.289111
Si Si3 0.740327 0.600196 0.300575
Si Si4 0.396649 0.930914 0.711817
Si Si5 0.974639 0.116030 0.710758
Si Si6 0.980505 0.249491 0.199466
O O1 0.516019 0.915985 0.500000
O O2 0.543268 0.870992 0.222571
O O3 0.443261 0.902133 0.232966
O O4 0.565873 0.992446 0.236175
O O5 0.368637 0.248415 0.500000
O O6 0.381604 0.192303 0.223250
O O7 0.426586 0.321613 0.230198
O O8 0.300183 0.243640 0.238191
O O9 0.741934 0.580362 0.500000
O O10 0.735230 0.666093 0.303377
O O11 0.395846 0.930201 0.500000
O O12 0.045584 0.129033 0.770455
O O13 0.974602 0.114887 0.500000
O O14 0.965154 0.176105 0.765633
O O15 0.967652 0.256624 0.000000
#
# Coordination Sequence:
#
# PCOD9581348 Si02
#       6
#    12  12  12  12  12  12
#     4   8  13  24  46  73  97 121 153 195 238 281
#     4  10  19  32  52  75  99 130 169 208 244 291
#     4  10  19  32  52  75  99 130 169 208 244 291
#     4   8  13  24  46  73  97 121 153 195 238 281
#     4  10  21  38  58  75  91 118 161 209 251 296
#     4  12  24  35  48  70 102 135 163 202 255 302
#
# _framework density 19.572579999999999
#
# number of rings (size 3 to 8) (size 9 to 14) (size 15 to 20)
#    0.000    2.333    1.667    3.667    0.000    6.000 
#    0.000    0.000    0.000    3.667    0.000    4.667 
#    0.000    0.000    0.000    0.000    0.000    0.000 
#
# Total GULP energy -401819.376446 kJ/mol
# GULP energy per Si atom -5580.824673 kJ/mol
# Density = 1.952803 g / cm^3
# Si number density = 19.572580 Si / 1000 Ang^3
#
#
#
# Elastic Constant Matrix: (Units=GPa)
#
#
# Indices 1 2 3 4 5 6 
#
# 1 48.8524 -9.7874 -1.8241 0.0000 0.0000 0.0000
# 2 -9.7874 48.8524 -1.8241 0.0000 0.0000 0.0000
# 3 -1.8241 -1.8241 42.0846 0.0000 0.0000 0.0000
# 4 0.0000 0.0000 0.0000 -27.0387 0.0000 0.0000
# 5 0.0000 0.0000 0.0000 0.0000 -27.0387 0.0000
# 6 0.0000 0.0000 0.0000 0.0000 0.0000 29.3199
#
#
#
# Elastic Compliance Matrix: (Units=1/GPa)
#
#
# Indices 1 2 3 4 5 6 
#
# 1 0.021378 0.004325 0.001114 0.000000 0.000000 0.000000
# 2 0.004325 0.021378 0.001114 0.000000 0.000000 0.000000
# 3 0.001114 0.001114 0.023858 0.000000 0.000000 0.000000
# 4 0.000000 0.000000 0.000000 -0.036984 0.000000 0.000000
# 5 0.000000 0.000000 0.000000 0.000000 -0.036984 0.000000
# 6 0.000000 0.000000 0.000000 0.000000 0.000000 0.034107
#
#
# Mechanical properties :
#
#
# Convention : Reuss Voigt Hill
#
# Bulk Modulus (GPa) = 12.54402 12.54646 12.54524
# Shear Modulus (GPa) = 124.31536 5.26348 64.78942
#
# Velocity S-wave (km/s) = 7.97828 1.64166 5.75969
# Velocity P-wave (km/s) = 9.55476 3.16505 7.11727
#
# Compressibility (1/GPa) = 0.07971924
#
# Stress axis : x y z
#
# Youngs Moduli (GPa) = 46.77739 46.77739 41.91427
#
# Poissons Ratio (x) = -0.20229 -0.04669
# Poissons Ratio (y) = -0.20229 -0.04669
# Poissons Ratio (z) = -0.05211 -0.05211
#
# Static dielectric constant tensor:
#      x y z
#    x 1.679550 0.000000 0.000000 
#    y 0.000000 1.679550 0.000000 
#    z 0.000000 0.000000 1.737320 
# 
# From -- ./inp_files/1204.got.cif
#   From: 2010.05.17/outbox.cif.g08.bks.cpg/sg175_1_cif.got.tgz:1204.got - 2010.05.20 11:23:22.
