data_PCOD9581681
_publ_section_title
;
Structure prediction by ZEFSAII (Michael W. Deem and Ramdas Pophale) SiO2 
 PCOD9581681
Probable space group: P 6/M
;
_chemical_formula_sum "Si O2"
_cell_formula_units_Z 66
_cell_length_a 22.623962
_cell_length_b 22.623962
_cell_length_c 7.968162
_cell_angle_alpha 90.000000
_cell_angle_beta 90.000000
_cell_angle_gamma 120.000000
_cell_volume 3532.044057
_symmetry_space_group_name_H-M "P 6/M"
_symmetry_group_IT_number 175
_symmetry_cell_setting 'hexagonal'
loop_
_space_group_symop_operation_xyz
x,y,z
x-y,x,z
-y,x-y,z
-x,-y,z
-x+y,-x,z
y,-x+y,z
-x,-y,-z
-x+y,-x,-z
y,-x+y,-z
x,y,-z
x-y,x,-z
-y,x-y,-z
loop_
_atom_site_type_symbol
_atom_site_label
_atom_site_fract_x
_atom_site_fract_y
_atom_site_fract_z
Si Si1 0.648274 0.760277 0.803684
Si Si2 0.763224 0.984241 0.313675
Si Si3 0.931359 0.540512 0.702863
Si Si4 0.910365 0.402188 0.298323
Si Si5 0.259947 0.382764 0.197633
Si Si6 0.973326 0.127706 0.000000
O O1 0.717004 0.778366 0.706301
O O2 0.588857 0.683120 0.775953
O O3 0.620358 0.810240 0.756187
O O4 0.667275 0.770234 0.000000
O O5 0.782160 0.972924 0.500000
O O6 0.681219 0.938912 0.290610
O O7 0.800683 0.967461 0.164831
O O8 0.927361 0.542175 0.500000
O O9 0.894593 0.461194 0.757832
O O10 0.010863 0.571735 0.747555
O O11 0.906847 0.400657 0.500000
O O12 0.869931 0.325450 0.234534
O O13 0.259451 0.369025 0.000000
O O14 0.048770 0.135685 0.000000
#
# Coordination Sequence:
#
# PCOD9581681 Si02
#       6
#    12  12  12  12  12   6
#     4  11  22  36  56  86 121 154 195 246 295 352
#     4  12  24  41  64  90 123 159 196 249 312 365
#     4   9  18  33  53  80 114 148 186 234 284 340
#     4   9  18  33  53  80 114 148 186 234 284 340
#     4  11  22  36  56  86 121 154 195 246 295 352
#     4  12  27  48  68  90 119 156 204 252 302 368
#
# _framework density 18.686063999999998
#
# number of rings (size 3 to 8) (size 9 to 14) (size 15 to 20)
#    0.000    1.455    3.636    3.364    0.000    5.818 
#    0.000    1.818    0.000    1.818    0.000    0.000 
#    0.000    0.000    0.000    0.000    0.000    0.000 
#
# Total GULP energy -368597.017722 kJ/mol
# GULP energy per Si atom -5584.803299 kJ/mol
# Density = 1.864353 g / cm^3
# Si number density = 18.686064 Si / 1000 Ang^3
#
#
#
# Elastic Constant Matrix: (Units=GPa)
#
#
# Indices 1 2 3 4 5 6 
#
# 1 51.5329 -5.7627 15.8884 0.0000 0.0000 0.0000
# 2 -5.7627 51.5329 15.8884 0.0000 0.0000 0.0000
# 3 15.8884 15.8884 64.3670 0.0000 0.0000 0.0000
# 4 0.0000 0.0000 0.0000 116.3568 0.0000 0.0000
# 5 0.0000 0.0000 0.0000 0.0000 116.3568 0.0000
# 6 0.0000 0.0000 0.0000 0.0000 0.0000 28.6478
#
#
#
# Elastic Compliance Matrix: (Units=1/GPa)
#
#
# Indices 1 2 3 4 5 6 
#
# 1 0.021910 0.004457 -0.006508 0.000000 0.000000 0.000000
# 2 0.004457 0.021910 -0.006508 0.000000 0.000000 0.000000
# 3 -0.006508 -0.006508 0.018749 0.000000 0.000000 0.000000
# 4 0.000000 0.000000 0.000000 0.008594 0.000000 0.000000
# 5 0.000000 0.000000 0.000000 0.000000 0.008594 0.000000
# 6 0.000000 0.000000 0.000000 0.000000 0.000000 0.034907
#
#
# Mechanical properties :
#
#
# Convention : Reuss Voigt Hill
#
# Bulk Modulus (GPa) = 22.00265 24.38454 23.19360
# Shear Modulus (GPa) = 34.02888 61.70024 47.86456
#
# Velocity S-wave (km/s) = 4.27205 5.75248 5.06663
# Velocity P-wave (km/s) = 6.01118 7.56302 6.83131
#
# Compressibility (1/GPa) = 0.04544907
#
# Stress axis : x y z
#
# Youngs Moduli (GPa) = 45.64111 45.64111 53.33627
#
# Poissons Ratio (x) = -0.20341 0.34713
# Poissons Ratio (y) = -0.20341 0.34713
# Poissons Ratio (z) = 0.29705 0.29705
#
# Static dielectric constant tensor:
#      x y z
#    x 1.647070 0.000000 0.000000 
#    y 0.000000 1.647070 0.000000 
#    z 0.000000 0.000000 1.676880 
# 
# From -- ./inp_files/986.got.cif
#   From: 2010.05.17/outbox.cif.g08.bks.cpg/sg175_1_cif.got.tgz:986.got - 2010.05.20 11:23:22.
