data_PCOD9581071
_publ_section_title
;
Structure prediction by ZEFSAII (Michael W. Deem and Ramdas Pophale) SiO2 
 PCOD9581071
Probable space group: P 63
;
_chemical_formula_sum "Si O2"
_cell_formula_units_Z 36
_cell_length_a 20.285035
_cell_length_b 20.285035
_cell_length_c 4.896461
_cell_angle_alpha 90.000000
_cell_angle_beta 90.000000
_cell_angle_gamma 120.000000
_cell_volume 1744.875538
_symmetry_space_group_name_H-M "P 63"
_symmetry_group_IT_number 173
_symmetry_cell_setting 'hexagonal'
loop_
_space_group_symop_operation_xyz
x,y,z
x-y,x,1/2+z
-y,x-y,z
-x,-y,1/2+z
-x+y,-x,z
y,-x+y,1/2+z
loop_
_atom_site_type_symbol
_atom_site_label
_atom_site_fract_x
_atom_site_fract_y
_atom_site_fract_z
Si Si1 0.949823 0.488363 0.637180
Si Si2 0.437455 0.112132 0.732089
Si Si3 0.760587 0.920931 0.074194
Si Si4 0.820385 0.219610 0.260495
Si Si5 0.061602 0.380459 0.862086
Si Si6 0.990022 0.781199 0.591430
O O1 0.892445 0.406677 0.765988
O O2 0.924186 0.547505 0.543428
O O3 0.983628 0.472877 0.361174
O O4 0.452324 0.169144 0.481326
O O5 0.371816 0.020516 0.708036
O O6 0.411635 0.144246 0.985909
O O7 0.679654 0.873221 0.924213
O O8 0.803636 0.875636 0.007556
O O9 0.795864 0.998480 0.910345
O O10 0.761188 0.937759 0.392523
O O11 0.739769 0.141730 0.215513
O O12 0.043486 0.307946 0.046237
#
# Coordination Sequence:
#
# PCOD9581071 Si02
#       6
#     6   6   6   6   6   6
#     4  10  22  37  61  86 121 162 192 248 301 354
#     4  11  21  39  57  89 123 152 198 241 294 360
#     4  11  21  37  55  86 113 164 186 256 297 360
#     4  11  22  35  58  86 121 157 188 245 296 352
#     4  10  22  38  59  89 122 155 196 240 300 365
#     4  11  22  36  60  82 124 148 206 240 308 357
#
# _framework density 20.631843
#
# number of rings (size 3 to 8) (size 9 to 14) (size 15 to 20)
#    0.000    1.333    3.333    3.000    0.000    8.000 
#    0.000    0.000    0.000    7.333    0.000    9.333 
#    0.000    0.000    0.000    0.000    0.000    0.000 
#
# Total GULP energy -200476.324913 kJ/mol
# GULP energy per Si atom -5568.786803 kJ/mol
# Density = 2.058488 g / cm^3
# Si number density = 20.631843 Si / 1000 Ang^3
#
#
#
# Elastic Constant Matrix: (Units=GPa)
#
#
# Indices 1 2 3 4 5 6 
#
# 1 79.7172 51.7800 22.5866 0.0000 0.0000 0.0000
# 2 51.7800 79.7172 22.5866 0.0000 0.0000 0.0000
# 3 22.5866 22.5866 85.6671 0.0000 0.0000 0.0000
# 4 0.0000 0.0000 0.0000 23.0639 0.0000 0.0000
# 5 0.0000 0.0000 0.0000 0.0000 23.0639 0.0000
# 6 0.0000 0.0000 0.0000 0.0000 0.0000 13.9686
#
#
#
# Elastic Compliance Matrix: (Units=1/GPa)
#
#
# Indices 1 2 3 4 5 6 
#
# 1 0.022078 -0.013716 -0.002205 0.000000 0.000000 0.000000
# 2 -0.013716 0.022078 -0.002205 0.000000 0.000000 0.000000
# 3 -0.002205 -0.002205 0.012836 0.000000 0.000000 0.000000
# 4 0.000000 0.000000 0.000000 0.043358 0.000000 0.000000
# 5 0.000000 0.000000 0.000000 0.000000 0.043358 0.000000
# 6 0.000000 0.000000 0.000000 0.000000 0.000000 0.071589
#
#
# Mechanical properties :
#
#
# Convention : Reuss Voigt Hill
#
# Bulk Modulus (GPa) = 48.21364 48.77866 48.49615
# Shear Modulus (GPa) = 19.34517 21.89581 20.62049
#
# Velocity S-wave (km/s) = 3.06541 3.26124 3.16484
# Velocity P-wave (km/s) = 5.99569 6.15424 6.07548
#
# Compressibility (1/GPa) = 0.02074102
#
# Stress axis : x y z
#
# Youngs Moduli (GPa) = 45.29318 45.29318 77.90790
#
# Poissons Ratio (x) = 0.62125 0.17177
# Poissons Ratio (y) = 0.62125 0.17177
# Poissons Ratio (z) = 0.09986 0.09986
#
# Static dielectric constant tensor:
#      x y z
#    x 1.792150 0.000000 0.000000 
#    y 0.000000 1.792150 0.000000 
#    z 0.000000 0.000000 1.772960 
# 
# From -- ./inp_files/155.got.cif
#   From: 2010.05.17/outbox.cif.g08.bks.cpg/sg173_cif.got.tgz:155.got - 2010.05.20 11:21:53.
