data_PCOD9581978
_publ_section_title
;
Structure prediction by ZEFSAII (Michael W. Deem and Ramdas Pophale) SiO2 
 PCOD9581978
Probable space group: P 63/M
;
_chemical_formula_sum "Si O2"
_cell_formula_units_Z 52
_cell_length_a 16.009926
_cell_length_b 16.009926
_cell_length_c 15.280615
_cell_angle_alpha 90.000000
_cell_angle_beta 90.000000
_cell_angle_gamma 120.000000
_cell_volume 3391.955254
_symmetry_space_group_name_H-M "P 63/M"
_symmetry_group_IT_number 176
_symmetry_cell_setting 'hexagonal'
loop_
_space_group_symop_operation_xyz
x,y,z
x-y,x,1/2+z
-y,x-y,z
-x,-y,1/2+z
-x+y,-x,z
y,-x+y,1/2+z
-x,-y,-z
-x+y,-x,1/2-z
y,-x+y,-z
x,y,1/2-z
x-y,x,-z
-y,x-y,1/2-z
loop_
_atom_site_type_symbol
_atom_site_label
_atom_site_fract_x
_atom_site_fract_y
_atom_site_fract_z
Si Si1 0.333717 0.865830 0.250000
Si Si2 0.223113 0.446258 0.854336
Si Si3 0.607748 0.584216 0.397635
Si Si4 0.023509 0.415751 0.602346
Si Si5 0.134175 0.666306 0.250000
Si Si6 0.333334 0.666668 0.856984
O O1 0.350985 0.932995 0.335117
O O2 0.230968 0.769047 0.250000
O O3 0.421060 0.842100 0.250000
O O4 0.225234 0.450582 0.750000
O O5 0.286422 0.399192 0.881883
O O6 0.112754 0.399159 0.881946
O O7 0.278296 0.556610 0.887826
O O8 0.596901 0.596871 0.499994
O O9 0.526450 0.473519 0.373682
O O10 0.932988 0.350955 0.664883
O O11 0.333334 0.666668 0.750000
#
# Coordination Sequence:
#
# PCOD9581978 Si02
#       6
#     6  12  12  12   6   4
#     4  10  21  37  52  70 104 144 178 209 247 300
#     4  11  18  32  52  76 104 135 172 213 259 297
#     4  10  21  34  50  75 105 136 172 213 252 302
#     4  10  21  34  50  75 105 136 172 213 252 302
#     4  10  21  37  52  70 104 144 178 209 247 300
#     4   9  18  24  51  75 102 136 164 211 264 300
#
# _framework density 15.330391000000001
#
# number of rings (size 3 to 8) (size 9 to 14) (size 15 to 20)
#    0.000    1.846    4.615    0.231    3.231    0.000 
#    0.000    0.000    0.000    0.000    0.000    0.000 
#    9.231    1.846    0.000    0.000    0.000    0.000 
#
# Total GULP energy -289930.316864 kJ/mol
# GULP energy per Si atom -5575.583017 kJ/mol
# Density = 1.529550 g / cm^3
# Si number density = 15.330391 Si / 1000 Ang^3
#
#
#
# Elastic Constant Matrix: (Units=GPa)
#
#
# Indices 1 2 3 4 5 6 
#
# 1 106.6205 62.6439 39.9253 0.0000 0.0000 0.0001
# 2 62.6439 106.6200 39.9252 0.0000 0.0000 0.0000
# 3 39.9253 39.9252 89.4825 0.0000 0.0000 0.0000
# 4 0.0000 0.0000 0.0000 12.3853 0.0000 0.0000
# 5 0.0000 0.0000 0.0000 0.0000 12.3851 0.0000
# 6 0.0001 0.0000 0.0000 0.0000 0.0000 21.9887
#
#
#
# Elastic Compliance Matrix: (Units=1/GPa)
#
#
# Indices 1 2 3 4 5 6 
#
# 1 0.015111 -0.007628 -0.003339 0.000000 0.000000 0.000000
# 2 -0.007628 0.015111 -0.003339 0.000000 0.000000 0.000000
# 3 -0.003339 -0.003339 0.014155 0.000000 0.000000 0.000000
# 4 0.000000 0.000000 0.000000 0.080741 0.000000 0.000000
# 5 0.000000 0.000000 0.000000 0.000000 0.080742 0.000000
# 6 0.000000 0.000000 0.000000 0.000000 0.000000 0.045478
#
#
# Mechanical properties :
#
#
# Convention : Reuss Voigt Hill
#
# Bulk Modulus (GPa) = 63.42889 65.30133 64.36511
# Shear Modulus (GPa) = 17.53123 20.03372 18.78247
#
# Velocity S-wave (km/s) = 3.38533 3.61889 3.50405
# Velocity P-wave (km/s) = 7.53293 7.75566 7.64511
#
# Compressibility (1/GPa) = 0.01576569
#
# Stress axis : x y z
#
# Youngs Moduli (GPa) = 66.17607 66.17570 70.64771
#
# Poissons Ratio (x) = 0.50481 0.23587
# Poissons Ratio (y) = 0.50481 0.23588
# Poissons Ratio (z) = 0.22095 0.22095
#
# Static dielectric constant tensor:
#      x y z
#    x 1.535460 0.000000 0.000000 
#    y 0.000000 1.535470 0.000000 
#    z 0.000000 0.000000 1.518110 
# 
# From -- ./inp_files/2593.got.cif
#   From: 2010.05.17/outbox.cif.g08.bks.cpg/sg176_2_cif.got.tgz:2593.got - 2010.06.03 11:36:45.
