data_PCOD9581984
_publ_section_title
;
Structure prediction by ZEFSAII (Michael W. Deem and Ramdas Pophale) SiO2 
 PCOD9581984
Probable space group: P 63/M
;
_chemical_formula_sum "Si O2"
_cell_formula_units_Z 44
_cell_length_a 13.163242
_cell_length_b 13.163242
_cell_length_c 15.031923
_cell_angle_alpha 90.000000
_cell_angle_beta 90.000000
_cell_angle_gamma 120.000000
_cell_volume 2255.645807
_symmetry_space_group_name_H-M "P 63/M"
_symmetry_group_IT_number 176
_symmetry_cell_setting 'hexagonal'
loop_
_space_group_symop_operation_xyz
x,y,z
x-y,x,1/2+z
-y,x-y,z
-x,-y,1/2+z
-x+y,-x,z
y,-x+y,1/2+z
-x,-y,-z
-x+y,-x,1/2-z
y,-x+y,-z
x,y,1/2-z
x-y,x,-z
-y,x-y,1/2-z
loop_
_atom_site_type_symbol
_atom_site_label
_atom_site_fract_x
_atom_site_fract_y
_atom_site_fract_z
Si Si1 0.666668 0.333335 0.393839
Si Si2 0.133622 0.263678 0.750000
Si Si3 0.283885 0.420595 0.586619
Si Si4 0.333334 0.666667 0.106160
Si Si5 0.736321 0.866378 0.250000
Si Si6 0.579405 0.716116 0.413381
O O1 0.658125 0.448047 0.372483
O O2 0.666668 0.333334 0.499999
O O3 0.197957 0.336446 0.662426
O O4 0.151516 0.151516 0.750000
O O5 0.000000 0.227557 0.750000
O O6 0.207445 0.414888 0.500000
O O7 0.376507 0.376507 0.566010
O O8 0.210079 0.551953 0.127516
O O9 0.663554 0.802043 0.337574
#
# Coordination Sequence:
#
# PCOD9581984 Si02
#       6
#     4   6  12   4   6  12
#     4   9  21  37  56  82 112 143 181 229 272 322
#     4  10  21  36  56  82 111 144 182 224 270 322
#     4  10  21  37  57  82 111 145 184 225 273 326
#     4   9  21  37  56  82 112 143 181 229 272 322
#     4  10  21  36  56  82 111 144 182 224 270 322
#     4  10  21  37  57  82 111 145 184 225 273 326
#
# _framework density 19.506608
#
# number of rings (size 3 to 8) (size 9 to 14) (size 15 to 20)
#    0.000    2.182    0.000    1.909    0.000   14.182 
#    0.000    2.727    0.000    8.727    0.000    0.000 
#    0.000    0.000    0.000    0.000    0.000    0.000 
#
# Total GULP energy -245228.662987 kJ/mol
# GULP energy per Si atom -5573.378704 kJ/mol
# Density = 1.946221 g / cm^3
# Si number density = 19.506608 Si / 1000 Ang^3
#
#
#
# Elastic Constant Matrix: (Units=GPa)
#
#
# Indices 1 2 3 4 5 6 
#
# 1 130.5284 77.3994 16.5621 0.0000 0.0000 -0.0003
# 2 77.3994 130.5261 16.5615 0.0000 0.0000 -0.0004
# 3 16.5621 16.5615 70.4313 0.0000 0.0000 -0.0001
# 4 0.0000 0.0000 0.0000 8.7409 0.0007 0.0000
# 5 0.0000 0.0000 0.0000 0.0007 8.7413 0.0000
# 6 -0.0003 -0.0004 -0.0001 0.0000 0.0000 26.5635
#
#
#
# Elastic Compliance Matrix: (Units=1/GPa)
#
#
# Indices 1 2 3 4 5 6 
#
# 1 0.011909 -0.006913 -0.001175 0.000000 0.000000 0.000000
# 2 -0.006913 0.011910 -0.001175 0.000000 0.000000 0.000000
# 3 -0.001175 -0.001175 0.014751 0.000000 0.000000 0.000000
# 4 0.000000 0.000000 0.000000 0.114405 -0.000009 0.000000
# 5 0.000000 0.000000 0.000000 -0.000009 0.114399 0.000000
# 6 0.000000 0.000000 0.000000 0.000000 0.000000 0.037646
#
#
# Mechanical properties :
#
#
# Convention : Reuss Voigt Hill
#
# Bulk Modulus (GPa) = 49.88977 61.39242 55.64110
# Shear Modulus (GPa) = 15.14113 23.54000 19.34056
#
# Velocity S-wave (km/s) = 2.78907 3.47763 3.15221
# Velocity P-wave (km/s) = 6.00027 6.90407 6.46797
#
# Compressibility (1/GPa) = 0.02004419
#
# Stress axis : x y z
#
# Youngs Moduli (GPa) = 83.96701 83.96566 67.79294
#
# Poissons Ratio (x) = 0.58045 0.07966
# Poissons Ratio (y) = 0.58046 0.07965
# Poissons Ratio (z) = 0.09866 0.09865
#
# Static dielectric constant tensor:
#      x y z
#    x 1.745800 0.000000 0.000000 
#    y 0.000000 1.745800 0.000000 
#    z 0.000000 0.000000 1.658260 
# 
# From -- ./inp_files/3200.got.cif
#   From: 2010.05.17/outbox.cif.g08.bks.cpg/sg176_2_cif.got.tgz:3200.got - 2010.06.03 11:36:45.
