data_PCOD9581597
_publ_section_title
;
Structure prediction by ZEFSAII (Michael W. Deem and Ramdas Pophale) SiO2 
 PCOD9581597
Probable space group: P 6/M
;
_chemical_formula_sum "Si O2"
_cell_formula_units_Z 42
_cell_length_a 10.950433
_cell_length_b 10.950433
_cell_length_c 18.526771
_cell_angle_alpha 90.000000
_cell_angle_beta 90.000000
_cell_angle_gamma 120.000000
_cell_volume 1923.946316
_symmetry_space_group_name_H-M "P 6/M"
_symmetry_group_IT_number 175
_symmetry_cell_setting 'hexagonal'
loop_
_space_group_symop_operation_xyz
x,y,z
x-y,x,z
-y,x-y,z
-x,-y,z
-x+y,-x,z
y,-x+y,z
-x,-y,-z
-x+y,-x,-z
y,-x+y,-z
x,y,-z
x-y,x,-z
-y,x-y,-z
loop_
_atom_site_type_symbol
_atom_site_label
_atom_site_fract_x
_atom_site_fract_y
_atom_site_fract_z
Si Si1 0.506540 0.174021 0.781023
Si Si2 0.930817 0.251375 0.641086
Si Si3 0.927059 0.248377 0.918803
Si Si4 0.495716 0.825407 0.500000
O O1 0.664830 0.201180 0.777957
O O2 0.413219 0.094648 0.712529
O O3 0.432512 0.105884 0.855874
O O4 0.900228 0.319138 0.571394
O O5 0.086002 0.272173 0.640182
O O6 0.082964 0.270738 0.911698
O O7 0.913554 0.293559 0.000000
O O8 0.337365 0.799678 0.500000
#
# Coordination Sequence:
#
# PCOD9581597 Si02
#       4
#    12  12  12   6
#     4  10  24  42  59  90 121 160 205 250 305 360
#     4  12  25  42  66  93 125 161 201 253 305 357
#     4  10  21  38  62  90 121 158 200 250 304 362
#     4  10  24  44  64 100 122 164 206 242 294 356
#
# _framework density 21.830133
#
# number of rings (size 3 to 8) (size 9 to 14) (size 15 to 20)
#    0.857    0.571    0.000    4.857    0.000   11.429 
#    0.000    7.143    0.000    0.000    0.000    0.000 
#    0.000    0.000    0.000    0.000    0.000    0.000 
#
# Total GULP energy -235085.755437 kJ/mol
# GULP energy per Si atom -5597.279891 kJ/mol
# Density = 2.178045 g / cm^3
# Si number density = 21.830133 Si / 1000 Ang^3
#
#
#
# Elastic Constant Matrix: (Units=GPa)
#
#
# Indices 1 2 3 4 5 6 
#
# 1 103.5329 15.4514 50.6730 0.0000 0.0000 0.0000
# 2 15.4514 103.5329 50.6730 0.0000 0.0000 0.0000
# 3 50.6730 50.6730 172.7818 0.0000 0.0000 0.0000
# 4 0.0000 0.0000 0.0000 3.8090 0.0000 0.0000
# 5 0.0000 0.0000 0.0000 0.0000 3.8090 0.0000
# 6 0.0000 0.0000 0.0000 0.0000 0.0000 44.0407
#
#
#
# Elastic Compliance Matrix: (Units=1/GPa)
#
#
# Indices 1 2 3 4 5 6 
#
# 1 0.011278 -0.000075 -0.003286 0.000000 0.000000 0.000000
# 2 -0.000075 0.011278 -0.003286 0.000000 0.000000 0.000000
# 3 -0.003286 -0.003286 0.007715 0.000000 0.000000 0.000000
# 4 0.000000 0.000000 0.000000 0.262538 0.000000 0.000000
# 5 0.000000 0.000000 0.000000 0.000000 0.262538 0.000000
# 6 0.000000 0.000000 0.000000 0.000000 0.000000 0.022706
#
#
# Mechanical properties :
#
#
# Convention : Reuss Voigt Hill
#
# Bulk Modulus (GPa) = 58.89810 68.16026 63.52918
# Shear Modulus (GPa) = 8.37514 27.86842 18.12178
#
# Velocity S-wave (km/s) = 1.96082 3.57683 2.88432
# Velocity P-wave (km/s) = 5.67144 6.95335 6.34485
#
# Compressibility (1/GPa) = 0.01697848
#
# Stress axis : x y z
#
# Youngs Moduli (GPa) = 88.66774 88.66774 129.62062
#
# Poissons Ratio (x) = 0.00666 0.42588
# Poissons Ratio (y) = 0.00666 0.42588
# Poissons Ratio (z) = 0.29133 0.29133
#
# Static dielectric constant tensor:
#      x y z
#    x 1.786810 0.000000 0.000000 
#    y 0.000000 1.786810 0.000000 
#    z 0.000000 0.000000 1.734510 
# 
# From -- ./inp_files/2765.got.cif
#   From: 2010.05.17/outbox.cif.g08.bks.cpg/sg175_2_cif.got.tgz:2765.got - 2010.05.20 11:23:22.
