data_PCOD9581246
_publ_section_title
;
Structure prediction by ZEFSAII (Michael W. Deem and Ramdas Pophale) SiO2 
 PCOD9581246
Probable space group: P 6/M
;
_chemical_formula_sum "Si O2"
_cell_formula_units_Z 78
_cell_length_a 19.969719
_cell_length_b 19.969719
_cell_length_c 18.790114
_cell_angle_alpha 90.000000
_cell_angle_beta 90.000000
_cell_angle_gamma 120.000000
_cell_volume 6489.391182
_symmetry_space_group_name_H-M "P 6/M"
_symmetry_group_IT_number 175
_symmetry_cell_setting 'hexagonal'
loop_
_space_group_symop_operation_xyz
x,y,z
x-y,x,z
-y,x-y,z
-x,-y,z
-x+y,-x,z
y,-x+y,z
-x,-y,-z
-x+y,-x,-z
y,-x+y,-z
x,y,-z
x-y,x,-z
-y,x-y,-z
loop_
_atom_site_type_symbol
_atom_site_label
_atom_site_fract_x
_atom_site_fract_y
_atom_site_fract_z
Si Si1 0.847231 0.833750 0.576383
Si Si2 0.154171 0.167684 0.733928
Si Si3 0.021109 0.851105 0.000000
Si Si4 0.534681 0.444989 0.085895
Si Si5 0.867134 0.591867 0.084706
Si Si6 0.299630 0.429622 0.915354
Si Si7 0.745792 0.737718 0.866557
O O1 0.849090 0.914980 0.576128
O O2 0.811181 0.794520 0.500000
O O3 0.815560 0.799308 0.654230
O O4 0.153449 0.086329 0.741196
O O5 0.208752 0.225569 0.794227
O O6 0.938651 0.847279 0.000000
O O7 0.025513 0.805808 0.931007
O O8 0.500000 0.500000 0.103997
O O9 0.476411 0.358306 0.110636
O O10 0.624140 0.492028 0.108099
O O11 0.534979 0.439265 0.000000
O O12 0.778217 0.567151 0.092461
O O13 0.922543 0.672712 0.122938
O O14 0.886625 0.605355 0.000000
O O15 0.287864 0.353764 0.875271
O O16 0.309162 0.418278 0.000000
#
# Coordination Sequence:
#
# PCOD9581246 Si02
#       7
#    12  12   6  12  12  12  12
#     4   8  13  22  36  51  66  87 116 150 189 230
#     4  10  19  28  37  51  72  96 125 162 197 223
#     4  12  23  32  38  47  66  96 132 168 196 215
#     4   9  16  28  42  58  70  88 118 154 198 232
#     4  10  18  29  43  56  72  94 122 156 191 230
#     4  10  18  29  43  56  72  94 122 156 191 230
#     4  12  20  29  40  54  70  98 134 158 184 217
#
# _framework density 12.019617999999999
#
# number of rings (size 3 to 8) (size 9 to 14) (size 15 to 20)
#    0.000    2.000    3.077    3.154    0.000    1.846 
#    0.923    1.538    0.000    0.000    0.000    0.000 
#    0.000    0.000    0.000    2.769    0.000    2.769 
#
# Total GULP energy -434376.304776 kJ/mol
# GULP energy per Si atom -5568.926984 kJ/mol
# Density = 1.199226 g / cm^3
# Si number density = 12.019618 Si / 1000 Ang^3
#
#
#
# Elastic Constant Matrix: (Units=GPa)
#
#
# Indices 1 2 3 4 5 6 
#
# 1 27.0571 2.3413 14.0517 0.0000 0.0000 0.0000
# 2 2.3413 27.0571 14.0517 0.0000 0.0000 0.0000
# 3 14.0517 14.0517 76.7406 0.0000 0.0000 0.0000
# 4 0.0000 0.0000 0.0000 6.7988 0.0000 0.0000
# 5 0.0000 0.0000 0.0000 0.0000 6.7988 0.0000
# 6 0.0000 0.0000 0.0000 0.0000 0.0000 12.3579
#
#
#
# Elastic Compliance Matrix: (Units=1/GPa)
#
#
# Indices 1 2 3 4 5 6 
#
# 1 0.040846 0.000386 -0.007550 0.000000 0.000000 0.000000
# 2 0.000386 0.040846 -0.007550 0.000000 0.000000 0.000000
# 3 -0.007550 -0.007550 0.015796 0.000000 0.000000 0.000000
# 4 0.000000 0.000000 0.000000 0.147085 0.000000 0.000000
# 5 0.000000 0.000000 0.000000 0.000000 0.147085 0.000000
# 6 0.000000 0.000000 0.000000 0.000000 0.000000 0.080920
#
#
# Mechanical properties :
#
#
# Convention : Reuss Voigt Hill
#
# Bulk Modulus (GPa) = 14.69258 21.30491 17.99875
# Shear Modulus (GPa) = 9.52939 11.88510 10.70725
#
# Velocity S-wave (km/s) = 2.81876 3.14794 2.98789
# Velocity P-wave (km/s) = 4.77957 5.56564 5.18751
#
# Compressibility (1/GPa) = 0.06806157
#
# Stress axis : x y z
#
# Youngs Moduli (GPa) = 24.48192 24.48192 63.30780
#
# Poissons Ratio (x) = -0.00946 0.47798
# Poissons Ratio (y) = -0.00946 0.47798
# Poissons Ratio (z) = 0.18484 0.18484
#
# Static dielectric constant tensor:
#      x y z
#    x 1.389930 0.000000 0.000000 
#    y 0.000000 1.389930 0.000000 
#    z 0.000000 0.000000 1.397930 
# 
# From -- ./inp_files/2961.got.cif
#   From: 2010.05.17/outbox.cif.g08.bks.cpg/sg175_2_cif.got.tgz:2961.got - 2010.05.20 11:23:22.
