data_PCOD9581977
_publ_section_title
;
Structure prediction by ZEFSAII (Michael W. Deem and Ramdas Pophale) SiO2 
 PCOD9581977
Probable space group: P 63/M
;
_chemical_formula_sum "Si O2"
_cell_formula_units_Z 72
_cell_length_a 24.443823
_cell_length_b 24.443823
_cell_length_c 8.612877
_cell_angle_alpha 90.000000
_cell_angle_beta 90.000000
_cell_angle_gamma 120.000000
_cell_volume 4456.738345
_symmetry_space_group_name_H-M "P 63/M"
_symmetry_group_IT_number 176
_symmetry_cell_setting 'hexagonal'
loop_
_space_group_symop_operation_xyz
x,y,z
x-y,x,1/2+z
-y,x-y,z
-x,-y,1/2+z
-x+y,-x,z
y,-x+y,1/2+z
-x,-y,-z
-x+y,-x,1/2-z
y,-x+y,-z
x,y,1/2-z
x-y,x,-z
-y,x-y,1/2-z
loop_
_atom_site_type_symbol
_atom_site_label
_atom_site_fract_x
_atom_site_fract_y
_atom_site_fract_z
Si Si1 0.075139 0.477847 0.065322
Si Si2 0.592421 0.524584 0.562138
Si Si3 0.289564 0.144090 0.436957
Si Si4 0.071834 0.929020 0.937340
Si Si5 0.071700 0.713999 0.063364
Si Si6 0.635811 0.711848 0.563317
O O1 0.078982 0.475524 0.250000
O O2 0.100032 0.550804 0.018781
O O3 0.101920 0.435515 0.994041
O O4 0.001756 0.442220 0.012843
O O5 0.588074 0.528387 0.750000
O O6 0.665936 0.568827 0.521280
O O7 0.288504 0.145735 0.250000
O O8 0.216397 0.108652 0.487858
O O9 0.325100 0.107380 0.488929
O O10 0.329158 0.216356 0.493343
O O11 0.070830 0.930460 0.750000
O O12 0.000404 0.892358 0.999820
O O13 0.074837 0.720935 0.250000
O O14 0.997680 0.678059 0.018008
O O15 0.634184 0.711755 0.750000
#
# Coordination Sequence:
#
# PCOD9581977 Si02
#       6
#    12  12  12  12  12  12
#     4   9  15  24  42  66  88 113 147 177 202 246
#     4   8  15  27  41  61  91 120 141 169 212 253
#     4  10  21  34  48  67  93 123 154 191 236 289
#     4  11  23  39  56  72  90 116 155 204 257 307
#     4   9  17  30  47  64  88 122 153 183 225 274
#     4   9  18  32  45  61  91 124 148 180 231 276
#
# _framework density 16.155311999999999
#
# number of rings (size 3 to 8) (size 9 to 14) (size 15 to 20)
#    0.000    2.667    0.000    3.167    0.000    6.667 
#    0.000    0.000    0.000    0.000    0.000    0.000 
#    1.667    0.000    1.000    0.000    1.333    0.000 
#
# Total GULP energy -400902.229079 kJ/mol
# GULP energy per Si atom -5568.086515 kJ/mol
# Density = 1.611854 g / cm^3
# Si number density = 16.155312 Si / 1000 Ang^3
#
#
#
# Elastic Constant Matrix: (Units=GPa)
#
#
# Indices 1 2 3 4 5 6 
#
# 1 103.4859 59.6158 26.7114 0.0000 0.0000 0.0000
# 2 59.6158 103.4859 26.7114 0.0000 0.0000 0.0000
# 3 26.7114 26.7114 13.5111 0.0000 0.0000 0.0000
# 4 0.0000 0.0000 0.0000 23.1669 0.0000 0.0000
# 5 0.0000 0.0000 0.0000 0.0000 23.1669 0.0000
# 6 0.0000 0.0000 0.0000 0.0000 0.0000 21.9350
#
#
#
# Elastic Compliance Matrix: (Units=1/GPa)
#
#
# Indices 1 2 3 4 5 6 
#
# 1 0.020095 -0.002699 -0.034391 0.000000 0.000000 0.000000
# 2 -0.002699 0.020095 -0.034391 0.000000 0.000000 0.000000
# 3 -0.034391 -0.034391 0.209994 0.000000 0.000000 0.000000
# 4 0.000000 0.000000 0.000000 0.043165 0.000000 0.000000
# 5 0.000000 0.000000 0.000000 0.000000 0.043165 0.000000
# 6 0.000000 0.000000 0.000000 0.000000 0.000000 0.045589
#
#
# Mechanical properties :
#
#
# Convention : Reuss Voigt Hill
#
# Bulk Modulus (GPa) = 9.32648 49.61776 29.47212
# Shear Modulus (GPa) = 8.91571 20.81671 14.86621
#
# Velocity S-wave (km/s) = 2.35175 3.59351 3.03678
# Velocity P-wave (km/s) = 3.62765 6.92802 5.52980
#
# Compressibility (1/GPa) = 0.10722159
#
# Stress axis : x y z
#
# Youngs Moduli (GPa) = 49.76332 49.76332 4.76203
#
# Poissons Ratio (x) = 0.13433 0.16377
# Poissons Ratio (y) = 0.13433 0.16377
# Poissons Ratio (z) = 1.71141 1.71141
#
# Static dielectric constant tensor:
#      x y z
#    x 1.552180 0.000000 0.000000 
#    y 0.000000 1.552180 0.000000 
#    z 0.000000 0.000000 1.553630 
# 
# From -- ./inp_files/1142.got.cif
#   From: 2010.05.17/outbox.cif.g08.bks.cpg/sg176_1_cif.got.tgz:1142.got - 2010.06.03 11:36:45.
