data_PCOD9582207
_publ_section_title
;
Structure prediction by ZEFSAII (Michael W. Deem and Ramdas Pophale) SiO2 
 PCOD9582207
Probable space group: P 6 2 2
;
_chemical_formula_sum "Si O2"
_cell_formula_units_Z 84
_cell_length_a 21.672541
_cell_length_b 21.672541
_cell_length_c 12.208633
_cell_angle_alpha 90.000000
_cell_angle_beta 90.000000
_cell_angle_gamma 120.000000
_cell_volume 4966.121456
_symmetry_space_group_name_H-M "P 6 2 2"
_symmetry_group_IT_number 177
_symmetry_cell_setting 'hexagonal'
loop_
_space_group_symop_operation_xyz
x,y,z
x-y,x,z
-y,x-y,z
-x,-y,z
-x+y,-x,z
y,-x+y,z
x-y,-y,-z
-x,-x+y,-z
y,x,-z
-y,-x,-z
-x+y,y,-z
x,x-y,-z
loop_
_atom_site_type_symbol
_atom_site_label
_atom_site_fract_x
_atom_site_fract_y
_atom_site_fract_z
Si Si1 0.773358 0.076895 0.765636
Si Si2 0.300572 0.217462 0.241438
Si Si3 0.450060 0.298161 0.635906
Si Si4 0.708548 0.552941 0.623049
Si Si5 0.408148 0.923669 0.061423
Si Si6 0.112610 0.747436 0.992147
Si Si7 0.546909 0.081459 0.309930
O O1 0.855569 0.135737 0.744117
O O2 0.727156 0.104092 0.700349
O O3 0.753494 0.998253 0.729397
O O4 0.752028 0.078801 0.893055
O O5 0.374846 0.265171 0.306774
O O6 0.313781 0.231133 0.111686
O O7 0.473476 0.238107 0.655593
O O8 0.433010 0.288820 0.506613
O O9 0.503552 0.379975 0.671359
O O10 0.625709 0.497344 0.641443
O O11 0.326166 0.893045 0.040805
O O12 0.434236 0.928874 0.184994
O O13 0.440577 0.881153 0.000000
O O14 0.441315 0.000000 0.000000
O O15 0.194834 0.805167 0.000000
O O16 0.500000 0.000000 0.354359
#
# Coordination Sequence:
#
# PCOD9582207 Si02
#       7
#    12  12  12  12  12  12  12
#     4  10  20  33  55  80 110 142 177 223 273 331
#     4  10  19  34  54  80 109 140 177 223 273 325
#     4  10  23  39  55  79 109 145 184 231 282 329
#     4  10  22  40  56  77 110 143 186 233 278 331
#     4  11  20  33  51  78 110 141 171 223 277 331
#     4  10  20  33  53  78 104 139 181 222 270 329
#     4  12  22  36  59  86 109 143 191 234 285 337
#
# _framework density 16.914608000000001
#
# number of rings (size 3 to 8) (size 9 to 14) (size 15 to 20)
#    0.000    1.571    2.857    3.429    0.000    2.857 
#    0.857    0.000    0.000    0.571    0.000    0.000 
#    0.000    3.429    0.000    7.143    0.000    0.000 
#
# Total GULP energy -467824.970050 kJ/mol
# GULP energy per Si atom -5569.344882 kJ/mol
# Density = 1.687611 g / cm^3
# Si number density = 16.914608 Si / 1000 Ang^3
#
#
#
# Elastic Constant Matrix: (Units=GPa)
#
#
# Indices 1 2 3 4 5 6 
#
# 1 140.7538 80.4841 30.5173 0.0000 0.0000 0.0000
# 2 80.4841 140.7538 30.5173 0.0000 0.0000 0.0000
# 3 30.5173 30.5173 74.9968 0.0000 0.0000 0.0000
# 4 0.0000 0.0000 0.0000 10.9430 0.0000 0.0000
# 5 0.0000 0.0000 0.0000 0.0000 10.9430 0.0000
# 6 0.0000 0.0000 0.0000 0.0000 0.0000 30.1348
#
#
#
# Elastic Compliance Matrix: (Units=1/GPa)
#
#
# Indices 1 2 3 4 5 6 
#
# 1 0.010842 -0.005750 -0.002072 0.000000 0.000000 0.000000
# 2 -0.005750 0.010842 -0.002072 0.000000 0.000000 0.000000
# 3 -0.002072 -0.002072 0.015020 0.000000 0.000000 0.000000
# 4 0.000000 0.000000 0.000000 0.091382 0.000000 0.000000
# 5 0.000000 0.000000 0.000000 0.000000 0.091382 0.000000
# 6 0.000000 0.000000 0.000000 0.000000 0.000000 0.033184
#
#
# Mechanical properties :
#
#
# Convention : Reuss Voigt Hill
#
# Bulk Modulus (GPa) = 59.11619 71.06020 65.08820
# Shear Modulus (GPa) = 17.98050 24.73655 21.35853
#
# Velocity S-wave (km/s) = 3.26393 3.82833 3.55734
# Velocity P-wave (km/s) = 7.01641 7.85136 7.44560
#
# Compressibility (1/GPa) = 0.01691584
#
# Stress axis : x y z
#
# Youngs Moduli (GPa) = 92.23520 92.23520 66.57774
#
# Poissons Ratio (x) = 0.53038 0.13794
# Poissons Ratio (y) = 0.53038 0.13794
# Poissons Ratio (z) = 0.19110 0.19110
#
# Static dielectric constant tensor:
#      x y z
#    x 1.613250 0.000000 0.000000 
#    y 0.000000 1.613250 0.000000 
#    z 0.000000 0.000000 1.670550 
# 
# From -- ./inp_files/2082.got.cif
#   From: 2010.05.17/outbox.cif.g08.bks.cpg/sg177_2_cif.got.tgz:2082.got - 2010.05.20 11:28:44.
