data_PCOD9582943
_publ_section_title
;
Structure prediction by ZEFSAII (Michael W. Deem and Ramdas Pophale) SiO2 
 PCOD9582943
Probable space group: P 61 2 2
;
_chemical_formula_sum "Si O2"
_cell_formula_units_Z 54
_cell_length_a 17.571621
_cell_length_b 17.571621
_cell_length_c 12.062388
_cell_angle_alpha 90.000000
_cell_angle_beta 90.000000
_cell_angle_gamma 120.000000
_cell_volume 3225.429699
_symmetry_space_group_name_H-M "P 61 2 2"
_symmetry_group_IT_number 178
_symmetry_cell_setting 'hexagonal'
loop_
_space_group_symop_operation_xyz
x,y,z
x-y,x,1/6+z
-y,x-y,1/3+z
-x,-y,1/2+z
-x+y,-x,2/3+z
y,-x+y,5/6+z
x-y,-y,-z
-x,-x+y,2/3-z
y,x,1/3-z
-y,-x,5/6-z
-x+y,y,1/2-z
x,x-y,1/6-z
loop_
_atom_site_type_symbol
_atom_site_label
_atom_site_fract_x
_atom_site_fract_y
_atom_site_fract_z
Si Si1 0.487256 0.147939 0.790529
Si Si2 0.383953 0.438365 0.378737
Si Si3 0.194565 0.648389 0.865357
Si Si4 0.790286 0.580571 0.250000
Si Si5 0.651307 0.091864 0.047204
O O1 0.572200 0.144399 0.750000
O O2 0.465368 0.195158 0.692107
O O3 0.411884 0.046310 0.809605
O O4 0.511441 0.194488 0.909266
O O5 0.473219 0.526782 0.416667
O O6 0.346440 0.468561 0.277252
O O7 0.329064 0.415983 0.491651
O O8 0.290749 0.709252 0.916667
O O9 0.161177 0.544227 0.861813
O O10 0.884718 0.620326 0.305782
O O11 0.573587 0.000000 0.000000
#
# Coordination Sequence:
#
# PCOD9582943 Si02
#       5
#    12  12  12   6  12
#     4  11  20  36  50  73  98 135 178 223 275 328
#     4   9  18  34  56  68  96 138 175 213 276 330
#     4  11  21  34  51  74 100 132 183 232 265 312
#     4  12  22  32  54  74  96 128 190 222 252 342
#     4  11  20  38  53  74 104 142 177 222 287 328
#
# _framework density 16.741955000000001
#
# number of rings (size 3 to 8) (size 9 to 14) (size 15 to 20)
#    0.000    1.333    4.444    4.667    0.000    0.889 
#    6.000    0.000    0.000    0.000    0.000    0.000 
#    0.000    0.000    0.000    0.000    4.222    0.000 
#
# Total GULP energy -300764.296711 kJ/mol
# GULP energy per Si atom -5569.709198 kJ/mol
# Density = 1.670385 g / cm^3
# Si number density = 16.741955 Si / 1000 Ang^3
#
#
#
# Elastic Constant Matrix: (Units=GPa)
#
#
# Indices 1 2 3 4 5 6 
#
# 1 42.9815 14.0925 5.6330 0.0000 0.0000 0.0000
# 2 14.0925 42.9815 5.6330 0.0000 0.0000 0.0000
# 3 5.6330 5.6330 111.1582 0.0000 0.0000 0.0000
# 4 0.0000 0.0000 0.0000 22.8867 0.0000 0.0000
# 5 0.0000 0.0000 0.0000 0.0000 22.8867 0.0000
# 6 0.0000 0.0000 0.0000 0.0000 0.0000 14.4445
#
#
#
# Elastic Compliance Matrix: (Units=1/GPa)
#
#
# Indices 1 2 3 4 5 6 
#
# 1 0.026157 -0.008459 -0.000897 0.000000 0.000000 0.000000
# 2 -0.008459 0.026157 -0.000897 0.000000 0.000000 0.000000
# 3 -0.000897 -0.000897 0.009087 0.000000 0.000000 0.000000
# 4 0.000000 0.000000 0.000000 0.043693 0.000000 0.000000
# 5 0.000000 0.000000 0.000000 0.000000 0.043693 0.000000
# 6 0.000000 0.000000 0.000000 0.000000 0.000000 0.069231
#
#
# Mechanical properties :
#
#
# Convention : Reuss Voigt Hill
#
# Bulk Modulus (GPa) = 24.45233 27.53759 25.99496
# Shear Modulus (GPa) = 19.82910 23.49443 21.66177
#
# Velocity S-wave (km/s) = 3.44524 3.75016 3.60093
# Velocity P-wave (km/s) = 5.51936 5.93596 5.73145
#
# Compressibility (1/GPa) = 0.04089591
#
# Stress axis : x y z
#
# Youngs Moduli (GPa) = 38.23110 38.23110 110.04632
#
# Poissons Ratio (x) = 0.32338 0.09870
# Poissons Ratio (y) = 0.32338 0.09870
# Poissons Ratio (z) = 0.03429 0.03429
#
# Static dielectric constant tensor:
#      x y z
#    x 1.604250 0.000000 0.000000 
#    y 0.000000 1.604250 0.000000 
#    z 0.000000 0.000000 1.631140 
# 
# From -- ./inp_files/4399.got.cif
#   From: 2010.05.17/outbox.cif.g08.bks.cpg/sg178_3_cif.got.tgz:4399.got - 2010.05.20 11:30:59.
