data_PCOD9582680
_publ_section_title
;
Structure prediction by ZEFSAII (Michael W. Deem and Ramdas Pophale) SiO2 
 PCOD9582680
Probable space group: P 61 2 2
;
_chemical_formula_sum "Si O2"
_cell_formula_units_Z 54
_cell_length_a 22.392478
_cell_length_b 22.392478
_cell_length_c 7.679132
_cell_angle_alpha 90.000000
_cell_angle_beta 90.000000
_cell_angle_gamma 120.000000
_cell_volume 3334.625578
_symmetry_space_group_name_H-M "P 61 2 2"
_symmetry_group_IT_number 178
_symmetry_cell_setting 'hexagonal'
loop_
_space_group_symop_operation_xyz
x,y,z
x-y,x,1/6+z
-y,x-y,1/3+z
-x,-y,1/2+z
-x+y,-x,2/3+z
y,-x+y,5/6+z
x-y,-y,-z
-x,-x+y,2/3-z
y,x,1/3-z
-y,-x,5/6-z
-x+y,y,1/2-z
x,x-y,1/6-z
loop_
_atom_site_type_symbol
_atom_site_label
_atom_site_fract_x
_atom_site_fract_y
_atom_site_fract_z
Si Si1 0.176965 0.481971 0.822629
Si Si2 0.000000 0.628777 0.833334
Si Si3 0.149668 0.435571 0.227089
Si Si4 0.045714 0.583693 0.503954
Si Si5 0.224228 0.590650 0.273662
O O1 0.230811 0.461621 0.750000
O O2 0.106413 0.448932 0.718079
O O3 0.212535 0.565602 0.793964
O O4 0.156051 0.456981 0.022528
O O5 0.924681 0.620238 0.802811
O O6 0.003029 0.590724 0.659577
O O7 0.206620 0.413239 0.250000
O O8 0.178512 0.510273 0.324554
O O9 0.074481 0.537241 0.583334
O O10 0.000000 0.548360 0.333334
O O11 0.302506 0.605011 0.250000
O O12 0.200676 0.600338 0.083334
#
# Coordination Sequence:
#
# PCOD9582680 Si02
#       5
#    12   6  12  12  12
#     4  11  22  36  54  79 106 134 181 229 284 339
#     4  12  22  38  60  72 106 142 170 222 272 322
#     4  10  21  37  54  78 105 139 176 222 270 328
#     4  12  24  37  56  78 106 138 179 228 277 335
#     4   9  18  30  46  67  98 133 171 219 278 332
#
# _framework density 16.193722000000001
#
# number of rings (size 3 to 8) (size 9 to 14) (size 15 to 20)
#    0.000    1.333    3.333    3.333    0.000    4.444 
#    0.000    0.000    0.000    0.000    0.000    0.000 
#    0.000    0.000    0.000    0.000    0.000    6.667 
#
# Total GULP energy -301046.164439 kJ/mol
# GULP energy per Si atom -5574.928971 kJ/mol
# Density = 1.615686 g / cm^3
# Si number density = 16.193722 Si / 1000 Ang^3
#
#
#
# Elastic Constant Matrix: (Units=GPa)
#
#
# Indices 1 2 3 4 5 6 
#
# 1 69.2461 35.7130 23.5162 0.0000 0.0000 0.0000
# 2 35.7130 69.2461 23.5162 0.0000 0.0000 0.0000
# 3 23.5162 23.5162 80.9636 0.0000 0.0000 0.0000
# 4 0.0000 0.0000 0.0000 20.8145 0.0000 0.0000
# 5 0.0000 0.0000 0.0000 0.0000 20.8145 0.0000
# 6 0.0000 0.0000 0.0000 0.0000 0.0000 16.7665
#
#
#
# Elastic Compliance Matrix: (Units=1/GPa)
#
#
# Indices 1 2 3 4 5 6 
#
# 1 0.020387 -0.009434 -0.003181 0.000000 0.000000 0.000000
# 2 -0.009434 0.020387 -0.003181 0.000000 0.000000 0.000000
# 3 -0.003181 -0.003181 0.014199 0.000000 0.000000 0.000000
# 4 0.000000 0.000000 0.000000 0.048044 0.000000 0.000000
# 5 0.000000 0.000000 0.000000 0.000000 0.048044 0.000000
# 6 0.000000 0.000000 0.000000 0.000000 0.000000 0.059643
#
#
# Mechanical properties :
#
#
# Convention : Reuss Voigt Hill
#
# Bulk Modulus (GPa) = 42.77155 42.77184 42.77169
# Shear Modulus (GPa) = 19.99278 20.79312 20.39295
#
# Velocity S-wave (km/s) = 3.51750 3.58721 3.55253
# Velocity P-wave (km/s) = 6.55491 6.60511 6.58006
#
# Compressibility (1/GPa) = 0.02338003
#
# Stress axis : x y z
#
# Youngs Moduli (GPa) = 49.05038 49.05038 70.42591
#
# Poissons Ratio (x) = 0.46275 0.22405
# Poissons Ratio (y) = 0.46275 0.22405
# Poissons Ratio (z) = 0.15605 0.15605
#
# Static dielectric constant tensor:
#      x y z
#    x 1.564310 0.000000 0.000000 
#    y 0.000000 1.564310 0.000000 
#    z 0.000000 0.000000 1.648950 
# 
# From -- ./inp_files/3034.got.cif
#   From: 2010.05.17/outbox.cif.g08.bks.cpg/sg178_2_cif.got.tgz:3034.got - 2010.05.20 11:30:59.
