data_PCOD9582059
_publ_section_title
;
Structure prediction by ZEFSAII (Michael W. Deem and Ramdas Pophale) SiO2 
 PCOD9582059
Probable space group: P 63/M
;
_chemical_formula_sum "Si O2"
_cell_formula_units_Z 84
_cell_length_a 14.233195
_cell_length_b 14.233195
_cell_length_c 22.682226
_cell_angle_alpha 90.000000
_cell_angle_beta 90.000000
_cell_angle_gamma 120.000000
_cell_volume 3979.432145
_symmetry_space_group_name_H-M "P 63/M"
_symmetry_group_IT_number 176
_symmetry_cell_setting 'hexagonal'
loop_
_space_group_symop_operation_xyz
x,y,z
x-y,x,1/2+z
-y,x-y,z
-x,-y,1/2+z
-x+y,-x,z
y,-x+y,1/2+z
-x,-y,-z
-x+y,-x,1/2-z
y,-x+y,-z
x,y,1/2-z
x-y,x,-z
-y,x-y,1/2-z
loop_
_atom_site_type_symbol
_atom_site_label
_atom_site_fract_x
_atom_site_fract_y
_atom_site_fract_z
Si Si1 0.365154 0.240841 0.183662
Si Si2 0.018221 0.232896 0.494693
Si Si3 0.591030 0.934376 0.430996
Si Si4 0.218411 0.674163 0.968245
Si Si5 0.080710 0.550076 0.630672
Si Si6 0.992151 0.291216 0.362284
Si Si7 0.347629 0.129103 0.684620
O O1 0.391388 0.222082 0.250000
O O2 0.470784 0.355118 0.162482
O O3 0.319700 0.127700 0.150086
O O4 0.267574 0.267442 0.185702
O O5 0.018560 0.304618 0.549961
O O6 0.017739 0.287596 0.431934
O O7 0.119819 0.214120 0.498673
O O8 0.544466 0.859764 0.487520
O O9 0.581681 0.864442 0.372925
O O10 0.529144 0.999582 0.419132
O O11 0.228973 0.567788 0.979385
O O12 0.180132 0.653381 0.900991
O O13 0.015297 0.603425 0.659191
O O14 0.091198 0.291394 0.328392
O O15 0.400038 0.157719 0.750000
#
# Coordination Sequence:
#
# PCOD9582059 Si02
#       7
#    12  12  12  12  12  12  12
#     4  10  24  47  68  96 138 179 229 293 346 403
#     4  12  25  40  63  99 140 180 223 284 351 419
#     4  11  23  40  65  93 130 175 217 277 344 397
#     4  10  23  34  60  89 130 163 213 265 328 403
#     4  11  23  40  65  96 132 175 223 274 344 408
#     4  12  24  40  72 100 133 182 230 281 352 423
#     4  10  23  45  69  93 129 177 230 280 336 409
#
# _framework density 21.108539
#
# number of rings (size 3 to 8) (size 9 to 14) (size 15 to 20)
#    0.286    0.857    2.857    3.571    4.000    1.143 
#    1.714    0.000    0.000    0.000    0.000    0.000 
#    0.000    0.000    0.000    0.000    0.000    0.000 
#
# Total GULP energy -468132.249013 kJ/mol
# GULP energy per Si atom -5573.002964 kJ/mol
# Density = 2.106050 g / cm^3
# Si number density = 21.108539 Si / 1000 Ang^3
#
#
#
# Elastic Constant Matrix: (Units=GPa)
#
#
# Indices 1 2 3 4 5 6 
#
# 1 91.4002 36.5397 14.9916 0.0000 0.0000 0.0000
# 2 36.5397 91.4002 14.9916 0.0000 0.0000 0.0000
# 3 14.9916 14.9916 86.9487 0.0000 0.0000 0.0000
# 4 0.0000 0.0000 0.0000 17.2859 0.0000 0.0000
# 5 0.0000 0.0000 0.0000 0.0000 17.2859 0.0000
# 6 0.0000 0.0000 0.0000 0.0000 0.0000 27.4303
#
#
#
# Elastic Compliance Matrix: (Units=1/GPa)
#
#
# Indices 1 2 3 4 5 6 
#
# 1 0.013187 -0.005041 -0.001404 0.000000 0.000000 0.000000
# 2 -0.005041 0.013187 -0.001404 0.000000 0.000000 0.000000
# 3 -0.001404 -0.001404 0.011985 0.000000 0.000000 0.000000
# 4 0.000000 0.000000 0.000000 0.057851 0.000000 0.000000
# 5 0.000000 0.000000 0.000000 0.000000 0.057851 0.000000
# 6 0.000000 0.000000 0.000000 0.000000 0.000000 0.036456
#
#
# Mechanical properties :
#
#
# Convention : Reuss Voigt Hill
#
# Bulk Modulus (GPa) = 44.13394 44.75501 44.44447
# Shear Modulus (GPa) = 23.38974 25.94885 24.66929
#
# Velocity S-wave (km/s) = 3.33238 3.50995 3.42232
# Velocity P-wave (km/s) = 5.97995 6.13797 6.05948
#
# Compressibility (1/GPa) = 0.02265830
#
# Stress axis : x y z
#
# Youngs Moduli (GPa) = 75.83419 75.83419 83.43540
#
# Poissons Ratio (x) = 0.38231 0.11718
# Poissons Ratio (y) = 0.38231 0.11718
# Poissons Ratio (z) = 0.10650 0.10650
#
# Static dielectric constant tensor:
#      x y z
#    x 1.771710 0.000000 0.000000 
#    y 0.000000 1.771710 0.000000 
#    z 0.000000 0.000000 1.813000 
# 
# From -- ./inp_files/4097.got.cif
#   From: 2010.05.17/outbox.cif.g08.bks.cpg/sg176_3_cif.got.tgz:4097.got - 2010.06.03 11:36:45.
