data_PCOD9582031
_publ_section_title
;
Structure prediction by ZEFSAII (Michael W. Deem and Ramdas Pophale) SiO2 
 PCOD9582031
Probable space group: P 63/M
;
_chemical_formula_sum "Si O2"
_cell_formula_units_Z 70
_cell_length_a 14.942763
_cell_length_b 14.942763
_cell_length_c 15.357911
_cell_angle_alpha 90.000000
_cell_angle_beta 90.000000
_cell_angle_gamma 120.000000
_cell_volume 2969.782166
_symmetry_space_group_name_H-M "P 63/M"
_symmetry_group_IT_number 176
_symmetry_cell_setting 'hexagonal'
loop_
_space_group_symop_operation_xyz
x,y,z
x-y,x,1/2+z
-y,x-y,z
-x,-y,1/2+z
-x+y,-x,z
y,-x+y,1/2+z
-x,-y,-z
-x+y,-x,1/2-z
y,-x+y,-z
x,y,1/2-z
x-y,x,-z
-y,x-y,1/2-z
loop_
_atom_site_type_symbol
_atom_site_label
_atom_site_fract_x
_atom_site_fract_y
_atom_site_fract_z
Si Si1 0.841700 0.574239 0.079594
Si Si2 0.332651 0.783200 0.750000
Si Si3 0.846614 0.671623 0.649814
Si Si4 0.331602 0.447157 0.016839
Si Si5 0.000000 0.000000 0.396197
Si Si6 0.609706 0.062214 0.918076
Si Si7 0.221235 0.073175 0.351572
O O1 0.839144 0.516474 0.166049
O O2 0.849500 0.683798 0.099112
O O3 0.740656 0.508654 0.020375
O O4 0.931037 0.586888 0.015979
O O5 0.236038 0.665048 0.750000
O O6 0.825023 0.687673 0.750000
O O7 0.753300 0.641637 0.582550
O O8 0.875340 0.580002 0.645356
O O9 0.957032 0.767422 0.619121
O O10 0.427924 0.528703 0.074402
O O11 0.378758 0.439370 0.921183
O O12 0.924947 0.040491 0.362508
O O13 0.000000 0.000000 0.500000
O O14 0.249200 0.081017 0.250000
#
# Coordination Sequence:
#
# PCOD9582031 Si02
#       7
#    12   6  12  12   4  12  12
#     4  11  21  39  67  94 130 175 222 273 345 396
#     4  10  22  38  62  98 134 162 220 282 340 410
#     4  10  23  42  67  97 133 179 223 279 337 404
#     4  10  22  41  64  90 131 170 223 279 336 407
#     4  12  31  41  70 102 133 179 229 267 328 410
#     4  10  22  40  65  93 126 175 223 277 338 407
#     4  11  24  44  66  95 138 180 219 280 332 398
#
# _framework density 23.57075
#
# number of rings (size 3 to 8) (size 9 to 14) (size 15 to 20)
#    0.171    1.371    2.571    1.543    7.200    0.686 
#    9.771    0.000    0.000    0.000    0.000    0.000 
#    0.000    0.000    0.000    0.000    0.000    0.000 
#
# Total GULP energy -390394.652228 kJ/mol
# GULP energy per Si atom -5577.066460 kJ/mol
# Density = 2.351710 g / cm^3
# Si number density = 23.570750 Si / 1000 Ang^3
#
#
#
# Elastic Constant Matrix: (Units=GPa)
#
#
# Indices 1 2 3 4 5 6 
#
# 1 64.0545 27.8022 4.6003 0.0000 0.0000 0.0000
# 2 27.8022 64.0545 4.6003 0.0000 0.0000 0.0000
# 3 4.6003 4.6003 95.0248 0.0000 0.0000 0.0000
# 4 0.0000 0.0000 0.0000 23.5342 0.0000 0.0000
# 5 0.0000 0.0000 0.0000 0.0000 23.5342 0.0000
# 6 0.0000 0.0000 0.0000 0.0000 0.0000 18.1261
#
#
#
# Elastic Compliance Matrix: (Units=1/GPa)
#
#
# Indices 1 2 3 4 5 6 
#
# 1 0.019262 -0.008322 -0.000530 0.000000 0.000000 0.000000
# 2 -0.008322 0.019262 -0.000530 0.000000 0.000000 0.000000
# 3 -0.000530 -0.000530 0.010575 0.000000 0.000000 0.000000
# 4 0.000000 0.000000 0.000000 0.042491 0.000000 0.000000
# 5 0.000000 0.000000 0.000000 0.000000 0.042491 0.000000
# 6 0.000000 0.000000 0.000000 0.000000 0.000000 0.055169
#
#
# Mechanical properties :
#
#
# Convention : Reuss Voigt Hill
#
# Bulk Modulus (GPa) = 32.96460 33.01549 32.99005
# Shear Modulus (GPa) = 22.92257 25.44765 24.18511
#
# Velocity S-wave (km/s) = 3.12188 3.28933 3.20670
# Velocity P-wave (km/s) = 5.19717 5.33514 5.26660
#
# Compressibility (1/GPa) = 0.03033557
#
# Stress axis : x y z
#
# Youngs Moduli (GPa) = 51.91564 51.91564 94.56406
#
# Poissons Ratio (x) = 0.43206 0.05008
# Poissons Ratio (y) = 0.43206 0.05008
# Poissons Ratio (z) = 0.02749 0.02749
#
# Static dielectric constant tensor:
#      x y z
#    x 2.174070 0.000000 0.000000 
#    y 0.000000 2.174070 0.000000 
#    z 0.000000 0.000000 1.786640 
# 
# From -- ./inp_files/3413.got.cif
#   From: 2010.05.17/outbox.cif.g08.bks.cpg/sg176_2_cif.got.tgz:3413.got - 2010.06.03 11:36:45.
