data_PCOD9582360
_publ_section_title
;
Structure prediction by ZEFSAII (Michael W. Deem and Ramdas Pophale) SiO2 
 PCOD9582360
Probable space group: P 61 2 2
;
_chemical_formula_sum "Si O2"
_cell_formula_units_Z 60
_cell_length_a 18.365783
_cell_length_b 18.365783
_cell_length_c 10.433783
_cell_angle_alpha 90.000000
_cell_angle_beta 90.000000
_cell_angle_gamma 120.000000
_cell_volume 3047.834137
_symmetry_space_group_name_H-M "P 61 2 2"
_symmetry_group_IT_number 178
_symmetry_cell_setting 'hexagonal'
loop_
_space_group_symop_operation_xyz
x,y,z
x-y,x,1/6+z
-y,x-y,1/3+z
-x,-y,1/2+z
-x+y,-x,2/3+z
y,-x+y,5/6+z
x-y,-y,-z
-x,-x+y,2/3-z
y,x,1/3-z
-y,-x,5/6-z
-x+y,y,1/2-z
x,x-y,1/6-z
loop_
_atom_site_type_symbol
_atom_site_label
_atom_site_fract_x
_atom_site_fract_y
_atom_site_fract_z
Si Si1 0.995999 0.698494 0.180205
Si Si2 0.140791 0.013658 0.700425
Si Si3 0.689629 0.523330 0.330382
Si Si4 0.611886 0.070499 0.313363
Si Si5 0.880541 0.389805 0.250101
O O1 0.062476 0.674845 0.118530
O O2 0.000000 0.705050 0.333334
O O3 0.004480 0.782987 0.122741
O O4 0.903080 0.620635 0.156234
O O5 0.127715 0.057672 0.822820
O O6 0.161206 0.080603 0.583334
O O7 0.755946 0.511892 0.250000
O O8 0.672208 0.489323 0.476155
O O9 0.600818 0.472909 0.255338
O O10 0.547369 0.094737 0.250000
O O11 0.646772 0.124745 0.442585
O O12 0.553334 0.974176 0.363029
#
# Coordination Sequence:
#
# PCOD9582360 Si02
#       5
#    12  12  12  12  12
#     4  11  19  31  55  92 116 152 206 262 312 371
#     4  10  20  37  60  90 123 159 209 267 321 391
#     4  10  19  31  57  86 114 153 199 253 299 356
#     4  10  17  31  56  84 118 153 193 255 318 379
#     4   9  18  34  50  85 113 154 200 236 302 368
#
# _framework density 19.686112000000001
#
# number of rings (size 3 to 8) (size 9 to 14) (size 15 to 20)
#    0.000    2.000    6.000    1.800    0.000    0.000 
#    0.000    0.000    0.000   50.400    5.200    0.000 
#    0.000    0.000    0.000    0.000    0.000    0.000 
#
# Total GULP energy -334589.083912 kJ/mol
# GULP energy per Si atom -5576.484732 kJ/mol
# Density = 1.964131 g / cm^3
# Si number density = 19.686112 Si / 1000 Ang^3
#
#
#
# Elastic Constant Matrix: (Units=GPa)
#
#
# Indices 1 2 3 4 5 6 
#
# 1 71.2740 51.8603 47.6605 0.0000 0.0000 0.0000
# 2 51.8603 71.2740 47.6605 0.0000 0.0000 0.0000
# 3 47.6605 47.6605 86.6205 0.0000 0.0000 0.0000
# 4 0.0000 0.0000 0.0000 19.2511 0.0000 0.0000
# 5 0.0000 0.0000 0.0000 0.0000 19.2511 0.0000
# 6 0.0000 0.0000 0.0000 0.0000 0.0000 9.7069
#
#
#
# Elastic Compliance Matrix: (Units=1/GPa)
#
#
# Indices 1 2 3 4 5 6 
#
# 1 0.032828 -0.018681 -0.007784 0.000000 0.000000 0.000000
# 2 -0.018681 0.032828 -0.007784 0.000000 0.000000 0.000000
# 3 -0.007784 -0.007784 0.020110 0.000000 0.000000 0.000000
# 4 0.000000 0.000000 0.000000 0.051945 0.000000 0.000000
# 5 0.000000 0.000000 0.000000 0.000000 0.051945 0.000000
# 6 0.000000 0.000000 0.000000 0.000000 0.000000 0.103020
#
#
# Mechanical properties :
#
#
# Convention : Reuss Voigt Hill
#
# Bulk Modulus (GPa) = 57.90898 58.17012 58.03955
# Shear Modulus (GPa) = 13.62648 15.10761 14.36705
#
# Velocity S-wave (km/s) = 2.63380 2.77325 2.70442
# Velocity P-wave (km/s) = 6.22328 6.31407 6.26884
#
# Compressibility (1/GPa) = 0.01726848
#
# Stress axis : x y z
#
# Youngs Moduli (GPa) = 30.46139 30.46139 49.72542
#
# Poissons Ratio (x) = 0.56906 0.38706
# Poissons Ratio (y) = 0.56906 0.38706
# Poissons Ratio (z) = 0.23711 0.23711
#
# Static dielectric constant tensor:
#      x y z
#    x 1.701340 0.000000 0.000000 
#    y 0.000000 1.701340 0.000000 
#    z 0.000000 0.000000 1.755740 
# 
# From -- ./inp_files/4511.got.cif
#   From: 2010.05.17/outbox.cif.g08.bks.cpg/sg178_3_cif.got.tgz:4511.got - 2010.05.20 11:30:59.
