data_PCOD9582733
_publ_section_title
;
Structure prediction by ZEFSAII (Michael W. Deem and Ramdas Pophale) SiO2 
 PCOD9582733
Probable space group: P 61 2 2
;
_chemical_formula_sum "Si O2"
_cell_formula_units_Z 42
_cell_length_a 10.834775
_cell_length_b 10.834775
_cell_length_c 22.478121
_cell_angle_alpha 90.000000
_cell_angle_beta 90.000000
_cell_angle_gamma 120.000000
_cell_volume 2285.232703
_symmetry_space_group_name_H-M "P 61 2 2"
_symmetry_group_IT_number 178
_symmetry_cell_setting 'hexagonal'
loop_
_space_group_symop_operation_xyz
x,y,z
x-y,x,1/6+z
-y,x-y,1/3+z
-x,-y,1/2+z
-x+y,-x,2/3+z
y,-x+y,5/6+z
x-y,-y,-z
-x,-x+y,2/3-z
y,x,1/3-z
-y,-x,5/6-z
-x+y,y,1/2-z
x,x-y,1/6-z
loop_
_atom_site_type_symbol
_atom_site_label
_atom_site_fract_x
_atom_site_fract_y
_atom_site_fract_z
Si Si1 0.467926 0.701644 0.470884
Si Si2 0.328865 0.945241 0.257836
Si Si3 0.336778 0.922810 0.620018
Si Si4 0.501527 0.000000 0.500000
O O1 0.353040 0.646961 0.416667
O O2 0.604373 0.702055 0.441504
O O3 0.405067 0.574041 0.518926
O O4 0.505737 0.853637 0.496016
O O5 0.450781 0.901561 0.250000
O O6 0.321992 0.969580 0.327807
O O7 0.185654 0.826063 0.229079
O O8 0.418289 0.993954 0.559755
#
# Coordination Sequence:
#
# PCOD9582733 Si02
#       4
#    12  12  12   6
#     4   9  22  36  58  86 117 149 193 242 303 335
#     4   9  20  37  59  80 121 147 187 242 298 337
#     4  10  22  36  58  88 117 152 190 249 294 347
#     4  12  22  32  62  88 112 150 208 236 282 362
#
# _framework density 18.378872999999999
#
# number of rings (size 3 to 8) (size 9 to 14) (size 15 to 20)
#    0.000    2.857    0.000    2.571   20.000    0.000 
#    0.000    0.000    0.000    5.143    0.000    0.000 
#    0.000    0.000    0.000    0.000    0.000    0.000 
#
# Total GULP energy -234341.906860 kJ/mol
# GULP energy per Si atom -5579.569211 kJ/mol
# Density = 1.833704 g / cm^3
# Si number density = 18.378873 Si / 1000 Ang^3
#
#
#
# Elastic Constant Matrix: (Units=GPa)
#
#
# Indices 1 2 3 4 5 6 
#
# 1 23.8869 27.5304 32.2378 0.0000 0.0000 0.0000
# 2 27.5304 23.8869 32.2378 0.0000 0.0000 0.0000
# 3 32.2378 32.2378 144.9554 0.0000 0.0000 0.0000
# 4 0.0000 0.0000 0.0000 11.5564 0.0000 0.0000
# 5 0.0000 0.0000 0.0000 0.0000 11.5564 0.0000
# 6 0.0000 0.0000 0.0000 0.0000 0.0000 -1.8218
#
#
#
# Elastic Compliance Matrix: (Units=1/GPa)
#
#
# Indices 1 2 3 4 5 6 
#
# 1 -0.123743 0.150713 -0.005998 0.000000 0.000000 0.000000
# 2 0.150713 -0.123743 -0.005998 0.000000 0.000000 0.000000
# 3 -0.005998 -0.005998 0.009567 0.000000 0.000000 0.000000
# 4 0.000000 0.000000 0.000000 0.086532 0.000000 0.000000
# 5 0.000000 0.000000 0.000000 0.000000 0.086532 0.000000
# 6 0.000000 0.000000 0.000000 0.000000 0.000000 -0.548913
#
#
# Mechanical properties :
#
#
# Convention : Reuss Voigt Hill
#
# Bulk Modulus (GPa) = 25.30720 41.86014 33.58367
# Shear Modulus (GPa) = -5.69456 10.97307 2.63925
#
# Velocity S-wave (km/s) = -1.76215 2.44611 1.19964
# Velocity P-wave (km/s) = 3.10796 5.55010 4.49794
#
# Compressibility (1/GPa) = 0.03951445
#
# Stress axis : x y z
#
# Youngs Moduli (GPa) = -8.08126 -8.08126 104.53019
#
# Poissons Ratio (x) = 1.21795 0.62698
# Poissons Ratio (y) = 1.21795 0.62698
# Poissons Ratio (z) = -0.04847 -0.04847
#
# Static dielectric constant tensor:
#      x y z
#    x 1.623900 0.000000 0.000000 
#    y 0.000000 1.623900 0.000000 
#    z 0.000000 0.000000 1.655950 
# 
# From -- ./inp_files/7171.got.cif
#   From: 2010.05.17/outbox.cif.g08.bks.cpg/sg178_4_cif.got.tgz:7171.got - 2010.05.20 11:30:59.
