data_PCOD9582203
_publ_section_title
;
Structure prediction by ZEFSAII (Michael W. Deem and Ramdas Pophale) SiO2 
 PCOD9582203
Probable space group: P 6 2 2
;
_chemical_formula_sum "Si O2"
_cell_formula_units_Z 84
_cell_length_a 14.770323
_cell_length_b 14.770323
_cell_length_c 25.654137
_cell_angle_alpha 90.000000
_cell_angle_beta 90.000000
_cell_angle_gamma 120.000000
_cell_volume 4846.944274
_symmetry_space_group_name_H-M "P 6 2 2"
_symmetry_group_IT_number 177
_symmetry_cell_setting 'hexagonal'
loop_
_space_group_symop_operation_xyz
x,y,z
x-y,x,z
-y,x-y,z
-x,-y,z
-x+y,-x,z
y,-x+y,z
x-y,-y,-z
-x,-x+y,-z
y,x,-z
-y,-x,-z
-x+y,y,-z
x,x-y,-z
loop_
_atom_site_type_symbol
_atom_site_label
_atom_site_fract_x
_atom_site_fract_y
_atom_site_fract_z
Si Si1 0.736885 0.263116 0.000000
Si Si2 0.570694 0.115051 0.151665
Si Si3 0.566897 0.796051 0.111792
Si Si4 0.884759 0.451795 0.275490
Si Si5 0.866404 0.117115 0.614304
Si Si6 0.907078 0.747810 0.809343
Si Si7 0.591936 0.781495 0.710224
Si Si8 0.875570 0.124431 0.500000
O O1 0.778813 0.389407 0.000000
O O2 0.773160 0.224676 0.949689
O O3 0.527972 0.185346 0.127685
O O4 0.688241 0.149316 0.139224
O O5 0.555619 0.115402 0.213136
O O6 0.500000 0.000000 0.130060
O O7 0.675797 0.881103 0.138300
O O8 0.825654 0.333936 0.295401
O O9 0.850146 0.536546 0.284190
O O10 0.000000 0.500000 0.297138
O O11 0.817858 0.151948 0.660177
O O12 0.844017 0.147056 0.556482
O O13 0.992162 0.175035 0.618660
O O14 0.833818 0.802223 0.807219
O O15 0.870873 0.665420 0.760533
O O16 0.000000 0.176095 0.500000
#
# Coordination Sequence:
#
# PCOD9582203 Si02
#       8
#     6  12  12  12  12  12  12   6
#     4  10  20  38  58  92 118 148 172 226 288 340
#     4  11  20  34  57  81 106 145 182 216 273 339
#     4  12  21  38  61  86 120 147 176 229 286 341
#     4  11  21  35  53  81 113 141 179 223 276 338
#     4  10  19  33  54  84 118 154 193 238 289 341
#     4  12  25  42  61  84 115 153 194 234 278 332
#     4  12  23  36  58  83 114 152 187 234 287 338
#     4   8  15  28  50  78 112 150 192 240 291 338
#
# _framework density 17.330506
#
# number of rings (size 3 to 8) (size 9 to 14) (size 15 to 20)
#    0.143    0.857    4.286    4.357    0.000    1.143 
#    0.000    5.000    0.000    0.857    0.000    5.000 
#    0.000    0.000    0.000    0.000    0.000    0.000 
#
# Total GULP energy -468095.511524 kJ/mol
# GULP energy per Si atom -5572.565613 kJ/mol
# Density = 1.729106 g / cm^3
# Si number density = 17.330506 Si / 1000 Ang^3
#
#
#
# Elastic Constant Matrix: (Units=GPa)
#
#
# Indices 1 2 3 4 5 6 
#
# 1 58.1343 -9.5062 23.6875 0.0000 0.0000 0.0000
# 2 -9.5062 58.1343 23.6875 0.0000 0.0000 0.0000
# 3 23.6875 23.6875 108.6077 0.0000 0.0000 0.0000
# 4 0.0000 0.0000 0.0000 24.2311 0.0000 0.0000
# 5 0.0000 0.0000 0.0000 0.0000 24.2311 0.0000
# 6 0.0000 0.0000 0.0000 0.0000 0.0000 33.8202
#
#
#
# Elastic Compliance Matrix: (Units=1/GPa)
#
#
# Indices 1 2 3 4 5 6 
#
# 1 0.020448 0.005664 -0.005695 0.000000 0.000000 0.000000
# 2 0.005664 0.020448 -0.005695 0.000000 0.000000 0.000000
# 3 -0.005695 -0.005695 0.011692 0.000000 0.000000 0.000000
# 4 0.000000 0.000000 0.000000 0.041269 0.000000 0.000000
# 5 0.000000 0.000000 0.000000 0.000000 0.041269 0.000000
# 6 0.000000 0.000000 0.000000 0.000000 0.000000 0.029568
#
#
# Mechanical properties :
#
#
# Convention : Reuss Voigt Hill
#
# Bulk Modulus (GPa) = 24.30947 33.40156 28.85552
# Shear Modulus (GPa) = 26.33527 28.92365 27.62946
#
# Velocity S-wave (km/s) = 3.90242 4.08970 3.99716
# Velocity P-wave (km/s) = 5.86196 6.45105 6.16355
#
# Compressibility (1/GPa) = 0.04113623
#
# Stress axis : x y z
#
# Youngs Moduli (GPa) = 48.90363 48.90363 85.53053
#
# Poissons Ratio (x) = -0.27701 0.48712
# Poissons Ratio (y) = -0.27701 0.48712
# Poissons Ratio (z) = 0.27852 0.27852
#
# Static dielectric constant tensor:
#      x y z
#    x 1.573010 0.000000 0.000000 
#    y 0.000000 1.573010 0.000000 
#    z 0.000000 0.000000 1.612010 
# 
# From -- ./inp_files/3201.got.cif
#   From: 2010.05.17/outbox.cif.g08.bks.cpg/sg177_2_cif.got.tgz:3201.got - 2010.05.20 11:28:44.
