data_PCOD9582047
_publ_section_title
;
Structure prediction by ZEFSAII (Michael W. Deem and Ramdas Pophale) SiO2 
 PCOD9582047
Probable space group: P 63/M
;
_chemical_formula_sum "Si O2"
_cell_formula_units_Z 66
_cell_length_a 21.294807
_cell_length_b 21.294807
_cell_length_c 8.044668
_cell_angle_alpha 90.000000
_cell_angle_beta 90.000000
_cell_angle_gamma 120.000000
_cell_volume 3159.265857
_symmetry_space_group_name_H-M "P 63/M"
_symmetry_group_IT_number 176
_symmetry_cell_setting 'hexagonal'
loop_
_space_group_symop_operation_xyz
x,y,z
x-y,x,1/2+z
-y,x-y,z
-x,-y,1/2+z
-x+y,-x,z
y,-x+y,1/2+z
-x,-y,-z
-x+y,-x,1/2-z
y,-x+y,-z
x,y,1/2-z
x-y,x,-z
-y,x-y,1/2-z
loop_
_atom_site_type_symbol
_atom_site_label
_atom_site_fract_x
_atom_site_fract_y
_atom_site_fract_z
Si Si1 0.384497 0.425345 0.553297
Si Si2 0.483150 0.257772 0.562397
Si Si3 0.752499 0.717152 0.049030
Si Si4 0.730575 0.303002 0.250000
Si Si5 0.523853 0.421645 0.943530
Si Si6 0.317975 0.187699 0.447926
O O1 0.381389 0.413101 0.750000
O O2 0.307406 0.363834 0.489486
O O3 0.410100 0.508603 0.524301
O O4 0.449229 0.413716 0.484833
O O5 0.495421 0.239077 0.750000
O O6 0.522051 0.241036 0.412429
O O7 0.518450 0.344779 0.551289
O O8 0.397280 0.224814 0.532460
O O9 0.751900 0.720441 0.250000
O O10 0.829510 0.726293 0.000079
O O11 0.725728 0.770931 0.986200
O O12 0.742866 0.384221 0.250000
O O13 0.527071 0.441236 0.750000
O O14 0.331246 0.190874 0.250000
#
# Coordination Sequence:
#
# PCOD9582047 Si02
#       6
#    12  12  12   6  12  12
#     4   9  17  31  52  80 117 159 198 252 321 375
#     4  11  22  41  68  91 126 174 223 283 344 396
#     4  10  22  41  62  93 133 169 214 273 332 404
#     4  10  26  46  62  88 126 172 234 284 326 390
#     4   9  18  31  52  85 118 156 205 259 318 381
#     4  11  23  40  67  99 132 172 220 269 336 408
#
# _framework density 20.890929
#
# number of rings (size 3 to 8) (size 9 to 14) (size 15 to 20)
#    0.182    1.818    2.727    0.545    1.273    4.364 
#    0.000    1.818    0.000    0.364    0.000    0.000 
#    0.000    0.000    0.000    0.000    0.000    0.000 
#
# Total GULP energy -368549.223648 kJ/mol
# GULP energy per Si atom -5584.079146 kJ/mol
# Density = 2.084338 g / cm^3
# Si number density = 20.890929 Si / 1000 Ang^3
#
#
#
# Elastic Constant Matrix: (Units=GPa)
#
#
# Indices 1 2 3 4 5 6 
#
# 1 85.0191 55.5849 27.6355 0.0000 0.0000 0.0000
# 2 55.5849 85.0191 27.6355 0.0000 0.0000 0.0000
# 3 27.6355 27.6355 78.3792 0.0000 0.0000 0.0000
# 4 0.0000 0.0000 0.0000 18.1778 0.0000 0.0000
# 5 0.0000 0.0000 0.0000 0.0000 18.1778 0.0000
# 6 0.0000 0.0000 0.0000 0.0000 0.0000 14.7171
#
#
#
# Elastic Compliance Matrix: (Units=1/GPa)
#
#
# Indices 1 2 3 4 5 6 
#
# 1 0.021115 -0.012859 -0.002911 0.000000 0.000000 0.000000
# 2 -0.012859 0.021115 -0.002911 0.000000 0.000000 0.000000
# 3 -0.002911 -0.002911 0.014811 0.000000 0.000000 0.000000
# 4 0.000000 0.000000 0.000000 0.055012 0.000000 0.000000
# 5 0.000000 0.000000 0.000000 0.000000 0.055012 0.000000
# 6 0.000000 0.000000 0.000000 0.000000 0.000000 0.067948
#
#
# Mechanical properties :
#
#
# Convention : Reuss Voigt Hill
#
# Bulk Modulus (GPa) = 50.81346 52.23659 51.52502
# Shear Modulus (GPa) = 17.92519 19.38528 18.65523
#
# Velocity S-wave (km/s) = 2.93240 3.04950 2.99152
# Velocity P-wave (km/s) = 5.98676 6.12029 6.05390
#
# Compressibility (1/GPa) = 0.01967983
#
# Stress axis : x y z
#
# Youngs Moduli (GPa) = 47.35893 47.35893 67.51577
#
# Poissons Ratio (x) = 0.60898 0.19655
# Poissons Ratio (y) = 0.60898 0.19655
# Poissons Ratio (z) = 0.13787 0.13787
#
# Static dielectric constant tensor:
#      x y z
#    x 1.755360 0.000000 0.000000 
#    y 0.000000 1.755360 0.000000 
#    z 0.000000 0.000000 1.760870 
# 
# From -- ./inp_files/987.got.cif
#   From: 2010.05.17/outbox.cif.g08.bks.cpg/sg176_1_cif.got.tgz:987.got - 2010.06.03 11:36:45.
