data_PCOD9582600
_publ_section_title
;
Structure prediction by ZEFSAII (Michael W. Deem and Ramdas Pophale) SiO2 
 PCOD9582600
Probable space group: P 61 2 2
;
_chemical_formula_sum "Si O2"
_cell_formula_units_Z 84
_cell_length_a 18.398573
_cell_length_b 18.398573
_cell_length_c 14.050245
_cell_angle_alpha 90.000000
_cell_angle_beta 90.000000
_cell_angle_gamma 120.000000
_cell_volume 4118.914808
_symmetry_space_group_name_H-M "P 61 2 2"
_symmetry_group_IT_number 178
_symmetry_cell_setting 'hexagonal'
loop_
_space_group_symop_operation_xyz
x,y,z
x-y,x,1/6+z
-y,x-y,1/3+z
-x,-y,1/2+z
-x+y,-x,2/3+z
y,-x+y,5/6+z
x-y,-y,-z
-x,-x+y,2/3-z
y,x,1/3-z
-y,-x,5/6-z
-x+y,y,1/2-z
x,x-y,1/6-z
loop_
_atom_site_type_symbol
_atom_site_label
_atom_site_fract_x
_atom_site_fract_y
_atom_site_fract_z
Si Si1 0.455266 0.307130 0.756110
Si Si2 0.746775 0.947355 0.145111
Si Si3 0.022811 0.395416 0.635730
Si Si4 0.392530 0.697652 0.832999
Si Si5 0.846587 0.145006 0.144087
Si Si6 0.574919 0.440945 0.251246
Si Si7 0.381030 0.068045 0.916305
O O1 0.428230 0.354278 0.833061
O O2 0.517004 0.277199 0.795942
O O3 0.371144 0.219540 0.739679
O O4 0.503827 0.371219 0.671414
O O5 0.655824 0.941503 0.136789
O O6 0.752933 0.931926 0.255791
O O7 0.810495 0.046007 0.141086
O O8 0.758873 0.879437 0.083334
O O9 0.073220 0.490844 0.671725
O O10 0.032099 0.381585 0.523842
O O11 0.370664 0.741327 0.750000
O O12 0.385523 0.612305 0.795096
O O13 0.326281 0.673720 0.916667
O O14 0.867866 0.212344 0.230070
O O15 0.479931 0.370832 0.223934
O O16 0.330634 0.000000 0.000000
#
# Coordination Sequence:
#
# PCOD9582600 Si02
#       7
#    12  12  12  12  12  12  12
#     4  11  23  43  64  95 130 169 226 273 334 397
#     4  10  20  37  66  97 131 166 204 271 348 410
#     4  10  23  40  64  99 129 166 220 289 335 396
#     4  12  25  41  59  88 129 178 223 273 334 391
#     4  10  22  41  64  97 133 166 217 275 333 413
#     4  12  23  39  67  92 128 174 221 286 343 393
#     4  11  23  41  65  94 129 179 227 271 335 407
#
# _framework density 20.393722
#
# number of rings (size 3 to 8) (size 9 to 14) (size 15 to 20)
#    0.000    1.143    2.857    3.857    2.000    5.143 
#    0.000    6.429    0.000    3.429    0.000    0.000 
#    0.000    0.000    0.000    0.000    0.000    0.000 
#
# Total GULP energy -467690.294009 kJ/mol
# GULP energy per Si atom -5567.741595 kJ/mol
# Density = 2.034730 g / cm^3
# Si number density = 20.393722 Si / 1000 Ang^3
#
#
#
# Elastic Constant Matrix: (Units=GPa)
#
#
# Indices 1 2 3 4 5 6 
#
# 1 73.4206 58.9496 26.1584 0.0000 0.0000 0.0000
# 2 58.9496 73.4206 26.1584 0.0000 0.0000 0.0000
# 3 26.1584 26.1584 75.1093 0.0000 0.0000 0.0000
# 4 0.0000 0.0000 0.0000 27.6276 0.0000 0.0000
# 5 0.0000 0.0000 0.0000 0.0000 27.6276 0.0000
# 6 0.0000 0.0000 0.0000 0.0000 0.0000 7.2355
#
#
#
# Elastic Compliance Matrix: (Units=1/GPa)
#
#
# Indices 1 2 3 4 5 6 
#
# 1 0.038932 -0.030172 -0.003051 0.000000 0.000000 0.000000
# 2 -0.030172 0.038932 -0.003051 0.000000 0.000000 0.000000
# 3 -0.003051 -0.003051 0.015439 0.000000 0.000000 0.000000
# 4 0.000000 0.000000 0.000000 0.036196 0.000000 0.000000
# 5 0.000000 0.000000 0.000000 0.000000 0.036196 0.000000
# 6 0.000000 0.000000 0.000000 0.000000 0.000000 0.138208
#
#
# Mechanical properties :
#
#
# Convention : Reuss Voigt Hill
#
# Bulk Modulus (GPa) = 48.17906 49.38706 48.78306
# Shear Modulus (GPa) = 13.04229 19.87706 16.45968
#
# Velocity S-wave (km/s) = 2.53163 3.12535 2.84402
# Velocity P-wave (km/s) = 5.67638 6.10681 5.89552
#
# Compressibility (1/GPa) = 0.02075591
#
# Stress axis : x y z
#
# Youngs Moduli (GPa) = 25.68574 25.68574 64.77063
#
# Poissons Ratio (x) = 0.77498 0.19762
# Poissons Ratio (y) = 0.77498 0.19762
# Poissons Ratio (z) = 0.07837 0.07837
#
# Static dielectric constant tensor:
#      x y z
#    x 1.768870 0.000000 0.000000 
#    y 0.000000 1.768870 0.000000 
#    z 0.000000 0.000000 1.774230 
# 
# From -- ./inp_files/6029.got.cif
#   From: 2010.05.17/outbox.cif.g08.bks.cpg/sg178_4_cif.got.tgz:6029.got - 2010.05.20 11:30:59.
