data_PCOD9582590
_publ_section_title
;
Structure prediction by ZEFSAII (Michael W. Deem and Ramdas Pophale) SiO2 
 PCOD9582590
Probable space group: P 61 2 2
;
_chemical_formula_sum "Si O2"
_cell_formula_units_Z 84
_cell_length_a 17.002543
_cell_length_b 17.002543
_cell_length_c 17.941965
_cell_angle_alpha 90.000000
_cell_angle_beta 90.000000
_cell_angle_gamma 120.000000
_cell_volume 4491.882637
_symmetry_space_group_name_H-M "P 61 2 2"
_symmetry_group_IT_number 178
_symmetry_cell_setting 'hexagonal'
loop_
_space_group_symop_operation_xyz
x,y,z
x-y,x,1/6+z
-y,x-y,1/3+z
-x,-y,1/2+z
-x+y,-x,2/3+z
y,-x+y,5/6+z
x-y,-y,-z
-x,-x+y,2/3-z
y,x,1/3-z
-y,-x,5/6-z
-x+y,y,1/2-z
x,x-y,1/6-z
loop_
_atom_site_type_symbol
_atom_site_label
_atom_site_fract_x
_atom_site_fract_y
_atom_site_fract_z
Si Si1 0.822744 0.459497 0.252654
Si Si2 0.582515 0.017867 0.805584
Si Si3 0.082462 0.665019 0.881682
Si Si4 0.992754 0.706240 0.020570
Si Si5 0.660521 0.823714 0.739869
Si Si6 0.748236 0.288664 0.618849
Si Si7 0.462781 0.850271 0.914715
O O1 0.733385 0.466769 0.250000
O O2 0.893922 0.513223 0.189541
O O3 0.786648 0.352260 0.239934
O O4 0.862772 0.494980 0.334221
O O5 0.506096 0.012192 0.750000
O O6 0.665342 0.026586 0.756097
O O7 0.530307 0.932209 0.861272
O O8 0.119848 0.753653 0.829565
O O9 0.151321 0.632632 0.908823
O O10 0.000000 0.585890 0.833334
O O11 0.039504 0.678291 0.955769
O O12 0.073803 0.803601 0.048091
O O13 0.904715 0.695485 0.977370
O O14 0.563062 0.813263 0.760894
O O15 0.769698 0.384849 0.583334
O O16 0.760985 0.309717 0.707054
#
# Coordination Sequence:
#
# PCOD9582590 Si02
#       7
#    12  12  12  12  12  12  12
#     4  11  27  39  55  81 120 167 206 266 305 366
#     4  12  23  38  62  84 117 160 213 257 311 372
#     4  10  20  37  60  86 119 161 202 255 311 382
#     4  11  23  37  62  88 122 160 201 260 311 392
#     4  11  22  41  58  91 121 163 204 256 332 375
#     4  11  23  38  56  85 117 165 218 261 310 369
#     4  12  22  39  57  83 118 162 217 253 320 364
#
# _framework density 18.700398
#
# number of rings (size 3 to 8) (size 9 to 14) (size 15 to 20)
#    0.000    0.857    4.286    3.857    4.000    1.714 
#    0.000    0.000    0.000    0.000    0.000    0.000 
#    0.000   16.000    0.000    0.000    0.000    0.000 
#
# Total GULP energy -469114.647275 kJ/mol
# GULP energy per Si atom -5584.698182 kJ/mol
# Density = 1.865784 g / cm^3
# Si number density = 18.700398 Si / 1000 Ang^3
#
#
#
# Elastic Constant Matrix: (Units=GPa)
#
#
# Indices 1 2 3 4 5 6 
#
# 1 1239.3384-1181.5913 32.5413 0.0000 0.0000 -0.0016
# 2 -1181.5913 1239.3384 32.5413 0.0000 0.0000 0.0016
# 3 32.5413 32.5413 94.9603 0.0000 0.0000 0.0000
# 4 0.0000 0.0000 0.0000 35.2266 0.0000 0.0000
# 5 0.0000 0.0000 0.0000 0.0000 35.2266 0.0000
# 6 -0.0016 0.0016 0.0000 0.0000 0.0000 1210.4667
#
#
#
# Elastic Compliance Matrix: (Units=1/GPa)
#
#
# Indices 1 2 3 4 5 6 
#
# 1 0.014313 0.013900 -0.009668 0.000000 0.000000 0.000000
# 2 0.013900 0.014313 -0.009668 0.000000 0.000000 0.000000
# 3 -0.009668 -0.009668 0.017157 0.000000 0.000000 0.000000
# 4 0.000000 0.000000 0.000000 0.028388 0.000000 0.000000
# 5 0.000000 0.000000 0.000000 0.000000 0.028388 0.000000
# 6 0.000000 0.000000 0.000000 0.000000 0.000000 0.000826
#
#
# Mechanical properties :
#
#
# Convention : Reuss Voigt Hill
#
# Bulk Modulus (GPa) = 28.64453 37.84661 33.24557
# Shear Modulus (GPa) = 39.71589 502.19370 270.95479
#
# Velocity S-wave (km/s) = 4.61347 16.40518 12.05019
# Velocity P-wave (km/s) = 6.61284 19.47107 14.54050
#
# Compressibility (1/GPa) = 0.03491068
#
# Stress axis : x y z
#
# Youngs Moduli (GPa) = 69.86577 69.86577 58.28535
#
# Poissons Ratio (x) = -0.97114 0.56351
# Poissons Ratio (y) = -0.97114 0.56351
# Poissons Ratio (z) = 0.67548 0.67548
#
# Static dielectric constant tensor:
#      x y z
#    x 1.685730 0.000000 0.000000 
#    y 0.000000 1.685730 0.000000 
#    z 0.000000 0.000000 1.679210 
# 
# From -- ./inp_files/6021.got.cif
#   From: 2010.05.17/outbox.cif.g08.bks.cpg/sg178_4_cif.got.tgz:6021.got - 2010.05.20 11:30:59.
