data_PCOD9582861
_publ_section_title
;
Structure prediction by ZEFSAII (Michael W. Deem and Ramdas Pophale) SiO2 
 PCOD9582861
Probable space group: P 61 2 2
;
_chemical_formula_sum "Si O2"
_cell_formula_units_Z 48
_cell_length_a 15.249782
_cell_length_b 15.249782
_cell_length_c 11.360042
_cell_angle_alpha 90.000000
_cell_angle_beta 90.000000
_cell_angle_gamma 120.000000
_cell_volume 2287.904221
_symmetry_space_group_name_H-M "P 61 2 2"
_symmetry_group_IT_number 178
_symmetry_cell_setting 'hexagonal'
loop_
_space_group_symop_operation_xyz
x,y,z
x-y,x,1/6+z
-y,x-y,1/3+z
-x,-y,1/2+z
-x+y,-x,2/3+z
y,-x+y,5/6+z
x-y,-y,-z
-x,-x+y,2/3-z
y,x,1/3-z
-y,-x,5/6-z
-x+y,y,1/2-z
x,x-y,1/6-z
loop_
_atom_site_type_symbol
_atom_site_label
_atom_site_fract_x
_atom_site_fract_y
_atom_site_fract_z
Si Si1 0.951832 0.810820 0.130563
Si Si2 0.435415 0.533871 0.736638
Si Si3 0.674097 0.428468 0.037553
Si Si4 0.883143 0.592288 0.061127
O O1 0.884319 0.768638 0.250000
O O2 0.949186 0.712676 0.073254
O O3 0.053698 0.900497 0.194974
O O4 0.461043 0.461043 0.666667
O O5 0.402636 0.588569 0.641598
O O6 0.535789 0.615028 0.805108
O O7 0.340845 0.460491 0.816254
O O8 0.723091 0.361545 0.083334
O O9 0.764044 0.544535 0.028131
O O10 0.615165 0.384836 0.916667
#
# Coordination Sequence:
#
# PCOD9582861 Si02
#       4
#    12  12  12  12
#     4  10  23  43  74 105 129 172 237 306 373 435
#     4  11  25  38  60  97 137 180 229 278 339 413
#     4  12  21  40  63  92 133 188 226 268 335 430
#     4  11  23  41  64  97 140 177 233 281 348 428
#
# _framework density 20.979897999999999
#
# number of rings (size 3 to 8) (size 9 to 14) (size 15 to 20)
#    0.000    1.000    5.000    2.250   10.500    0.000 
#    0.000    0.000   16.500    0.000    0.000    0.000 
#    0.000    0.000    0.000    0.000    0.000    0.000 
#
# Total GULP energy -267473.525600 kJ/mol
# GULP energy per Si atom -5572.365117 kJ/mol
# Density = 2.093215 g / cm^3
# Si number density = 20.979898 Si / 1000 Ang^3
#
#
#
# Elastic Constant Matrix: (Units=GPa)
#
#
# Indices 1 2 3 4 5 6 
#
# 1 88.0453 42.0327 45.3460 0.0000 0.0000 0.0000
# 2 42.0327 88.0453 45.3460 0.0000 0.0000 0.0000
# 3 45.3460 45.3460 110.2139 0.0000 0.0000 0.0000
# 4 0.0000 0.0000 0.0000 29.0906 0.0000 0.0000
# 5 0.0000 0.0000 0.0000 0.0000 29.0906 0.0000
# 6 0.0000 0.0000 0.0000 0.0000 0.0000 23.0063
#
#
#
# Elastic Compliance Matrix: (Units=1/GPa)
#
#
# Indices 1 2 3 4 5 6 
#
# 1 0.016257 -0.005477 -0.004435 0.000000 0.000000 0.000000
# 2 -0.005477 0.016257 -0.004435 0.000000 0.000000 0.000000
# 3 -0.004435 -0.004435 0.012723 0.000000 0.000000 0.000000
# 4 0.000000 0.000000 0.000000 0.034375 0.000000 0.000000
# 5 0.000000 0.000000 0.000000 0.000000 0.034375 0.000000
# 6 0.000000 0.000000 0.000000 0.000000 0.000000 0.043466
#
#
# Mechanical properties :
#
#
# Convention : Reuss Voigt Hill
#
# Bulk Modulus (GPa) = 60.45280 61.30600 60.87940
# Shear Modulus (GPa) = 26.08763 26.47613 26.28188
#
# Velocity S-wave (km/s) = 3.53010 3.55628 3.54321
# Velocity P-wave (km/s) = 6.74482 6.79320 6.76906
#
# Compressibility (1/GPa) = 0.01654183
#
# Stress axis : x y z
#
# Youngs Moduli (GPa) = 61.51336 61.51336 78.59805
#
# Poissons Ratio (x) = 0.33688 0.34861
# Poissons Ratio (y) = 0.33688 0.34861
# Poissons Ratio (z) = 0.27283 0.27283
#
# Static dielectric constant tensor:
#      x y z
#    x 1.796810 0.000000 0.000000 
#    y 0.000000 1.796810 0.000000 
#    z 0.000000 0.000000 1.759560 
# 
# From -- ./inp_files/4081.got.cif
#   From: 2010.05.17/outbox.cif.g08.bks.cpg/sg178_3_cif.got.tgz:4081.got - 2010.05.20 11:30:59.
