data_PCOD9582745
_publ_section_title
;
Structure prediction by ZEFSAII (Michael W. Deem and Ramdas Pophale) SiO2 
 PCOD9582745
Probable space group: P 61 2 2
;
_chemical_formula_sum "Si O2"
_cell_formula_units_Z 84
_cell_length_a 21.688330
_cell_length_b 21.688330
_cell_length_c 10.337059
_cell_angle_alpha 90.000000
_cell_angle_beta 90.000000
_cell_angle_gamma 120.000000
_cell_volume 4210.947744
_symmetry_space_group_name_H-M "P 61 2 2"
_symmetry_group_IT_number 178
_symmetry_cell_setting 'hexagonal'
loop_
_space_group_symop_operation_xyz
x,y,z
x-y,x,1/6+z
-y,x-y,1/3+z
-x,-y,1/2+z
-x+y,-x,2/3+z
y,-x+y,5/6+z
x-y,-y,-z
-x,-x+y,2/3-z
y,x,1/3-z
-y,-x,5/6-z
-x+y,y,1/2-z
x,x-y,1/6-z
loop_
_atom_site_type_symbol
_atom_site_label
_atom_site_fract_x
_atom_site_fract_y
_atom_site_fract_z
Si Si1 0.000000 0.435264 0.833334
Si Si2 0.596539 0.193077 0.750000
Si Si3 0.857984 0.424778 0.803850
Si Si4 0.188597 0.845700 0.566396
Si Si5 0.733278 0.488648 0.096736
Si Si6 0.240297 0.300154 0.068021
Si Si7 0.708827 0.142209 0.415138
Si Si8 0.649345 0.967805 0.811128
O O1 0.061512 0.508614 0.888873
O O2 0.012425 0.394134 0.714591
O O3 0.557522 0.148453 0.624493
O O4 0.678126 0.239360 0.704450
O O5 0.807216 0.349643 0.735265
O O6 0.842848 0.487763 0.774396
O O7 0.164517 0.835484 0.416667
O O8 0.217743 0.790451 0.594132
O O9 0.127691 0.829464 0.673706
O O10 0.256126 0.923535 0.586240
O O11 0.740150 0.480300 0.250000
O O12 0.242344 0.242344 0.166667
O O13 0.282281 0.375069 0.144726
O O14 0.284468 0.302987 0.942859
O O15 0.783842 0.216159 0.416667
O O16 0.689103 0.094729 0.285216
#
# Coordination Sequence:
#
# PCOD9582745 Si02
#       8
#     6   6  12  12  12  12  12  12
#     4  12  26  40  56  90 124 158 212 276 336 408
#     4  10  22  38  62  76 110 148 202 264 328 392
#     4  11  25  38  57  86 112 154 206 271 340 404
#     4  11  20  39  65  88 125 164 211 263 327 401
#     4   9  20  38  53  80 106 150 199 261 328 392
#     4  10  23  39  63  90 120 160 215 262 325 395
#     4  11  24  43  63  86 119 166 214 274 345 414
#     4  11  24  41  63  89 120 166 212 263 331 403
#
# _framework density 19.948003
#
# number of rings (size 3 to 8) (size 9 to 14) (size 15 to 20)
#    0.000    1.429    2.857    1.714   10.000    0.571 
#    0.000    0.000    0.000    0.000    0.000    0.000 
#    0.000    0.000    0.000    0.000   29.857    2.143 
#
# Total GULP energy -468814.176536 kJ/mol
# GULP energy per Si atom -5581.121149 kJ/mol
# Density = 1.990260 g / cm^3
# Si number density = 19.948003 Si / 1000 Ang^3
#
#
#
# Elastic Constant Matrix: (Units=GPa)
#
#
# Indices 1 2 3 4 5 6 
#
# 1 56.6715 28.3495 3.2489 0.0000 0.0000 0.0000
# 2 28.3495 56.6715 3.2489 0.0000 0.0000 0.0000
# 3 3.2489 3.2489 61.7372 0.0000 0.0000 0.0000
# 4 0.0000 0.0000 0.0000 27.8346 0.0000 0.0000
# 5 0.0000 0.0000 0.0000 0.0000 27.8346 0.0000
# 6 0.0000 0.0000 0.0000 0.0000 0.0000 14.1610
#
#
#
# Elastic Compliance Matrix: (Units=1/GPa)
#
#
# Indices 1 2 3 4 5 6 
#
# 1 0.023559 -0.011749 -0.000621 0.000000 0.000000 0.000000
# 2 -0.011749 0.023559 -0.000621 0.000000 0.000000 0.000000
# 3 -0.000621 -0.000621 0.016263 0.000000 0.000000 0.000000
# 4 0.000000 0.000000 0.000000 0.035927 0.000000 0.000000
# 5 0.000000 0.000000 0.000000 0.000000 0.035927 0.000000
# 6 0.000000 0.000000 0.000000 0.000000 0.000000 0.070616
#
#
# Mechanical properties :
#
#
# Convention : Reuss Voigt Hill
#
# Bulk Modulus (GPa) = 26.74094 27.19720 26.96907
# Shear Modulus (GPa) = 20.46662 23.31488 21.89075
#
# Velocity S-wave (km/s) = 3.20660 3.42246 3.31628
# Velocity P-wave (km/s) = 5.21000 5.41121 5.31156
#
# Compressibility (1/GPa) = 0.03739585
#
# Stress axis : x y z
#
# Youngs Moduli (GPa) = 42.44706 42.44706 61.48889
#
# Poissons Ratio (x) = 0.49873 0.03821
# Poissons Ratio (y) = 0.49873 0.03821
# Poissons Ratio (z) = 0.02638 0.02638
#
# Static dielectric constant tensor:
#      x y z
#    x 1.718440 0.000000 0.000000 
#    y 0.000000 1.718440 0.000000 
#    z 0.000000 0.000000 1.784930 
# 
# From -- ./inp_files/4832.got.cif
#   From: 2010.05.17/outbox.cif.g08.bks.cpg/sg178_3_cif.got.tgz:4832.got - 2010.05.20 11:30:59.
