data_PCOD9582468
_publ_section_title
;
Structure prediction by ZEFSAII (Michael W. Deem and Ramdas Pophale) SiO2 
 PCOD9582468
Probable space group: P 61 2 2
;
_chemical_formula_sum "Si O2"
_cell_formula_units_Z 48
_cell_length_a 15.318212
_cell_length_b 15.318212
_cell_length_c 11.012513
_cell_angle_alpha 90.000000
_cell_angle_beta 90.000000
_cell_angle_gamma 120.000000
_cell_volume 2237.861564
_symmetry_space_group_name_H-M "P 61 2 2"
_symmetry_group_IT_number 178
_symmetry_cell_setting 'hexagonal'
loop_
_space_group_symop_operation_xyz
x,y,z
x-y,x,1/6+z
-y,x-y,1/3+z
-x,-y,1/2+z
-x+y,-x,2/3+z
y,-x+y,5/6+z
x-y,-y,-z
-x,-x+y,2/3-z
y,x,1/3-z
-y,-x,5/6-z
-x+y,y,1/2-z
x,x-y,1/6-z
loop_
_atom_site_type_symbol
_atom_site_label
_atom_site_fract_x
_atom_site_fract_y
_atom_site_fract_z
Si Si1 0.980596 0.490298 0.083334
Si Si2 0.686813 0.373626 0.250000
Si Si3 0.306016 0.361389 0.536537
Si Si4 0.284146 0.488635 0.983453
Si Si5 0.023916 0.171815 0.634563
O O1 0.905026 0.383946 0.149397
O O2 0.044698 0.587674 0.165449
O O3 0.736449 0.303228 0.258385
O O4 0.709219 0.447985 0.362332
O O5 0.325976 0.325976 0.666667
O O6 0.222377 0.395227 0.526764
O O7 0.261497 0.261761 0.453809
O O8 0.074284 0.150574 0.519784
O O9 0.099615 0.199229 0.750000
#
# Coordination Sequence:
#
# PCOD9582468 Si02
#       5
#     6   6  12  12  12
#     4  10  23  32  52  86 112 150 186 239 290 344
#     4   8  17  34  52  74 106 146 180 223 282 330
#     4  12  21  34  57  85 115 150 199 240 292 355
#     4  10  19  34  51  77 109 143 184 229 274 337
#     4  10  20  36  59  95 115 149 197 263 313 369
#
# _framework density 21.449048000000001
#
# number of rings (size 3 to 8) (size 9 to 14) (size 15 to 20)
#    0.000    2.000    2.500    5.250    0.000    0.000 
#    0.000    0.000    0.000    0.000  156.000    0.000 
#    0.000    0.000    0.000    0.000    0.000    0.000 
#
# Total GULP energy -267449.950007 kJ/mol
# GULP energy per Si atom -5571.873958 kJ/mol
# Density = 2.140023 g / cm^3
# Si number density = 21.449048 Si / 1000 Ang^3
#
#
#
# Elastic Constant Matrix: (Units=GPa)
#
#
# Indices 1 2 3 4 5 6 
#
# 1 127.7384 35.7943 10.6899 0.0000 0.0000 0.0000
# 2 35.7943 127.7384 10.6899 0.0000 0.0000 0.0000
# 3 10.6899 10.6899 28.5953 0.0000 0.0000 0.0000
# 4 0.0000 0.0000 0.0000 4.8377 0.0000 0.0000
# 5 0.0000 0.0000 0.0000 0.0000 4.8377 0.0000
# 6 0.0000 0.0000 0.0000 0.0000 0.0000 45.9720
#
#
#
# Elastic Compliance Matrix: (Units=1/GPa)
#
#
# Indices 1 2 3 4 5 6 
#
# 1 0.008653 -0.002223 -0.002403 0.000000 0.000000 0.000000
# 2 -0.002223 0.008653 -0.002403 0.000000 0.000000 0.000000
# 3 -0.002403 -0.002403 0.036768 0.000000 0.000000 0.000000
# 4 0.000000 0.000000 0.000000 0.206710 0.000000 0.000000
# 5 0.000000 0.000000 0.000000 0.000000 0.206710 0.000000
# 6 0.000000 0.000000 0.000000 0.000000 0.000000 0.021752
#
#
# Mechanical properties :
#
#
# Convention : Reuss Voigt Hill
#
# Bulk Modulus (GPa) = 24.99228 44.26894 34.63061
# Shear Modulus (GPa) = 9.67783 26.25600 17.96692
#
# Velocity S-wave (km/s) = 2.12645 3.50252 2.89737
# Velocity P-wave (km/s) = 4.20789 6.08612 5.23198
#
# Compressibility (1/GPa) = 0.04001235
#
# Stress axis : x y z
#
# Youngs Moduli (GPa) = 115.57095 115.57095 27.19771
#
# Poissons Ratio (x) = 0.25697 0.06537
# Poissons Ratio (y) = 0.25697 0.06537
# Poissons Ratio (z) = 0.27777 0.27777
#
# Static dielectric constant tensor:
#      x y z
#    x 1.869000 0.000000 0.000000 
#    y 0.000000 1.869000 0.000000 
#    z 0.000000 0.000000 2.253720 
# 
# From -- ./inp_files/4155.got.cif
#   From: 2010.05.17/outbox.cif.g08.bks.cpg/sg178_3_cif.got.tgz:4155.got - 2010.05.20 11:30:59.
