data_PCOD9582421
_publ_section_title
;
Structure prediction by ZEFSAII (Michael W. Deem and Ramdas Pophale) SiO2 
 PCOD9582421
Probable space group: P 61 2 2
;
_chemical_formula_sum "Si O2"
_cell_formula_units_Z 72
_cell_length_a 14.318360
_cell_length_b 14.318360
_cell_length_c 16.703886
_cell_angle_alpha 90.000000
_cell_angle_beta 90.000000
_cell_angle_gamma 120.000000
_cell_volume 2965.751127
_symmetry_space_group_name_H-M "P 61 2 2"
_symmetry_group_IT_number 178
_symmetry_cell_setting 'hexagonal'
loop_
_space_group_symop_operation_xyz
x,y,z
x-y,x,1/6+z
-y,x-y,1/3+z
-x,-y,1/2+z
-x+y,-x,2/3+z
y,-x+y,5/6+z
x-y,-y,-z
-x,-x+y,2/3-z
y,x,1/3-z
-y,-x,5/6-z
-x+y,y,1/2-z
x,x-y,1/6-z
loop_
_atom_site_type_symbol
_atom_site_label
_atom_site_fract_x
_atom_site_fract_y
_atom_site_fract_z
Si Si1 0.039277 0.484280 0.702156
Si Si2 0.960747 0.039254 0.416667
Si Si3 0.850966 0.730012 0.159128
Si Si4 0.705509 0.757254 0.749383
Si Si5 0.279285 0.320675 0.417373
Si Si6 0.787650 0.393825 0.083334
Si Si7 0.852730 0.509664 0.369919
O O1 0.129802 0.588133 0.655456
O O2 0.107165 0.483354 0.779287
O O3 0.997654 0.386050 0.637817
O O4 0.924345 0.449080 0.743267
O O5 0.000000 0.017474 0.333334
O O6 0.011014 0.167353 0.421070
O O7 0.822861 0.822861 0.166667
O O8 0.845711 0.691421 0.250000
O O9 0.753040 0.632038 0.111377
O O10 0.963535 0.763376 0.118479
O O11 0.693519 0.693519 0.666667
O O12 0.651675 0.834058 0.751728
O O13 0.686595 0.683396 0.826321
O O14 0.712471 0.272855 0.053426
#
# Coordination Sequence:
#
# PCOD9582421 Si02
#       7
#    12   6  12  12  12   6  12
#     4  11  24  44  75 111 148 182 258 322 377 482
#     4  10  18  36  44  66 119 175 234 286 346 428
#     4  12  20  35  56  95 136 180 238 311 381 444
#     4  11  21  36  53  82 135 200 247 302 363 451
#     4  12  21  35  59  92 130 192 246 301 377 439
#     4  12  24  44  78 108 149 211 240 316 428 472
#     4  11  22  46  73 108 150 192 244 322 397 467
#
# _framework density 24.277156000000002
#
# number of rings (size 3 to 8) (size 9 to 14) (size 15 to 20)
#    0.000    0.667    8.333    2.500    0.000    0.667 
#    6.000    0.000    3.667    0.000    0.000    0.000 
#    0.000    0.000    0.000    0.000    0.000    0.000 
#
# Total GULP energy -402262.183461 kJ/mol
# GULP energy per Si atom -5586.974770 kJ/mol
# Density = 2.422190 g / cm^3
# Si number density = 24.277156 Si / 1000 Ang^3
#
#
#
# Elastic Constant Matrix: (Units=GPa)
#
#
# Indices 1 2 3 4 5 6 
#
# 1 66.5779 24.1044 25.3955 0.0000 0.0000 0.0000
# 2 24.1044 66.5779 25.3955 0.0000 0.0000 0.0000
# 3 25.3955 25.3955 183.1005 0.0000 0.0000 0.0000
# 4 0.0000 0.0000 0.0000 29.1577 0.0000 0.0000
# 5 0.0000 0.0000 0.0000 0.0000 29.1577 0.0000
# 6 0.0000 0.0000 0.0000 0.0000 0.0000 21.2368
#
#
#
# Elastic Compliance Matrix: (Units=1/GPa)
#
#
# Indices 1 2 3 4 5 6 
#
# 1 0.017750 -0.005794 -0.001658 0.000000 0.000000 0.000000
# 2 -0.005794 0.017750 -0.001658 0.000000 0.000000 0.000000
# 3 -0.001658 -0.001658 0.005921 0.000000 0.000000 0.000000
# 4 0.000000 0.000000 0.000000 0.034296 0.000000 0.000000
# 5 0.000000 0.000000 0.000000 0.000000 0.034296 0.000000
# 6 0.000000 0.000000 0.000000 0.000000 0.000000 0.047088
#
#
# Mechanical properties :
#
#
# Convention : Reuss Voigt Hill
#
# Bulk Modulus (GPa) = 43.10175 51.78299 47.44237
# Shear Modulus (GPa) = 27.31386 32.00116 29.65751
#
# Velocity S-wave (km/s) = 3.35787 3.63458 3.49896
# Velocity P-wave (km/s) = 5.72942 6.24418 5.99233
#
# Compressibility (1/GPa) = 0.02320091
#
# Stress axis : x y z
#
# Youngs Moduli (GPa) = 56.33739 56.33739 168.87656
#
# Poissons Ratio (x) = 0.32641 0.28005
# Poissons Ratio (y) = 0.32641 0.28005
# Poissons Ratio (z) = 0.09342 0.09342
#
# Static dielectric constant tensor:
#      x y z
#    x 1.984780 0.000000 0.000000 
#    y 0.000000 1.984780 0.000000 
#    z 0.000000 0.000000 1.998640 
# 
# From -- ./inp_files/6821.got.cif
#   From: 2010.05.17/outbox.cif.g08.bks.cpg/sg178_4_cif.got.tgz:6821.got - 2010.05.20 11:30:59.
