data_PCOD9582921
_publ_section_title
;
Structure prediction by ZEFSAII (Michael W. Deem and Ramdas Pophale) SiO2 
 PCOD9582921
Probable space group: P 61 2 2
;
_chemical_formula_sum "Si O2"
_cell_formula_units_Z 36
_cell_length_a 7.965604
_cell_length_b 7.965604
_cell_length_c 24.895894
_cell_angle_alpha 90.000000
_cell_angle_beta 90.000000
_cell_angle_gamma 120.000000
_cell_volume 1368.030507
_symmetry_space_group_name_H-M "P 61 2 2"
_symmetry_group_IT_number 178
_symmetry_cell_setting 'hexagonal'
loop_
_space_group_symop_operation_xyz
x,y,z
x-y,x,1/6+z
-y,x-y,1/3+z
-x,-y,1/2+z
-x+y,-x,2/3+z
y,-x+y,5/6+z
x-y,-y,-z
-x,-x+y,2/3-z
y,x,1/3-z
-y,-x,5/6-z
-x+y,y,1/2-z
x,x-y,1/6-z
loop_
_atom_site_type_symbol
_atom_site_label
_atom_site_fract_x
_atom_site_fract_y
_atom_site_fract_z
Si Si1 0.816670 0.184865 0.649067
Si Si2 0.589919 0.844417 0.944008
Si Si3 0.513349 0.256675 0.583334
Si Si4 0.196863 0.393725 0.250000
O O1 0.809970 0.206098 0.712698
O O2 0.659612 0.225012 0.620051
O O3 0.038812 0.330890 0.632806
O O4 0.744263 0.971118 0.624761
O O5 0.380019 0.828276 0.951047
O O6 0.716000 0.075650 0.951443
#
# Coordination Sequence:
#
# PCOD9582921 Si02
#       4
#    12  12   6   6
#     4  11  26  48  73 108 151 196 251 320 385 466
#     4  11  26  48  73 108 151 196 251 320 385 466
#     4  10  26  44  70 110 140 198 242 310 384 466
#     4  10  26  44  70 110 140 198 242 310 384 466
#
# _framework density 26.315204000000001
#
# number of rings (size 3 to 8) (size 9 to 14) (size 15 to 20)
#    0.000    1.333    0.000    2.000   18.667    5.333 
#   12.000    0.000    0.000    0.000    0.000    0.000 
#    0.000    0.000    0.000    0.000    0.000    0.000 
#
# Total GULP energy -201248.087217 kJ/mol
# GULP energy per Si atom -5590.224645 kJ/mol
# Density = 2.625531 g / cm^3
# Si number density = 26.315204 Si / 1000 Ang^3
#
#
#
# Elastic Constant Matrix: (Units=GPa)
#
#
# Indices 1 2 3 4 5 6 
#
# 1 139.2211 66.6981 44.5967 0.0000 0.0000 0.0000
# 2 66.6981 139.2211 44.5967 0.0000 0.0000 0.0000
# 3 44.5967 44.5967 111.6132 0.0000 0.0000 0.0000
# 4 0.0000 0.0000 0.0000 30.1495 0.0000 0.0000
# 5 0.0000 0.0000 0.0000 0.0000 30.1495 0.0000
# 6 0.0000 0.0000 0.0000 0.0000 0.0000 36.2615
#
#
#
# Elastic Compliance Matrix: (Units=1/GPa)
#
#
# Indices 1 2 3 4 5 6 
#
# 1 0.009831 -0.003958 -0.002347 0.000000 0.000000 0.000000
# 2 -0.003958 0.009831 -0.002347 0.000000 0.000000 0.000000
# 3 -0.002347 -0.002347 0.010835 0.000000 0.000000 0.000000
# 4 0.000000 0.000000 0.000000 0.033168 0.000000 0.000000
# 5 0.000000 0.000000 0.000000 0.000000 0.033168 0.000000
# 6 0.000000 0.000000 0.000000 0.000000 0.000000 0.027577
#
#
# Mechanical properties :
#
#
# Convention : Reuss Voigt Hill
#
# Bulk Modulus (GPa) = 75.79226 77.98206 76.88716
# Shear Modulus (GPa) = 34.22088 34.92304 34.57196
#
# Velocity S-wave (km/s) = 3.61005 3.64690 3.62852
# Velocity P-wave (km/s) = 6.80006 6.88704 6.84369
#
# Compressibility (1/GPa) = 0.01319396
#
# Stress axis : x y z
#
# Youngs Moduli (GPa) = 101.72228 101.72228 92.29625
#
# Poissons Ratio (x) = 0.40262 0.21657
# Poissons Ratio (y) = 0.40262 0.21657
# Poissons Ratio (z) = 0.23869 0.23869
#
# Static dielectric constant tensor:
#      x y z
#    x 2.124150 0.000000 0.000000 
#    y 0.000000 2.124150 0.000000 
#    z 0.000000 0.000000 2.578910 
# 
# From -- ./inp_files/9199.got.cif
#   From: 2010.05.17/outbox.cif.g08.bks.cpg/sg178_5_cif.got.tgz:9199.got - 2010.05.20 11:30:59.
