data_PCOD9582883
_publ_section_title
;
Structure prediction by ZEFSAII (Michael W. Deem and Ramdas Pophale) SiO2 
 PCOD9582883
Probable space group: P 61 2 2
;
_chemical_formula_sum "Si O2"
_cell_formula_units_Z 60
_cell_length_a 24.559986
_cell_length_b 24.559986
_cell_length_c 6.545211
_cell_angle_alpha 90.000000
_cell_angle_beta 90.000000
_cell_angle_gamma 120.000000
_cell_volume 3419.089845
_symmetry_space_group_name_H-M "P 61 2 2"
_symmetry_group_IT_number 178
_symmetry_cell_setting 'hexagonal'
loop_
_space_group_symop_operation_xyz
x,y,z
x-y,x,1/6+z
-y,x-y,1/3+z
-x,-y,1/2+z
-x+y,-x,2/3+z
y,-x+y,5/6+z
x-y,-y,-z
-x,-x+y,2/3-z
y,x,1/3-z
-y,-x,5/6-z
-x+y,y,1/2-z
x,x-y,1/6-z
loop_
_atom_site_type_symbol
_atom_site_label
_atom_site_fract_x
_atom_site_fract_y
_atom_site_fract_z
Si Si1 0.221371 0.559884 0.223380
Si Si2 0.269527 0.934141 0.129433
Si Si3 0.417922 0.144187 0.246295
Si Si4 0.658501 0.829250 0.083334
Si Si5 0.574876 0.425125 0.416667
Si Si6 0.438657 0.064635 0.568523
O O1 0.295162 0.590323 0.250000
O O2 0.194215 0.489696 0.137897
O O3 0.191441 0.558767 0.438010
O O4 0.204809 0.602405 0.083334
O O5 0.208833 0.898036 0.291158
O O6 0.329720 0.943068 0.261927
O O7 0.259156 0.884006 0.952994
O O8 0.288593 0.000000 0.000000
O O9 0.385077 0.167152 0.408283
O O10 0.421987 0.089940 0.366938
O O11 0.599066 0.490448 0.301668
O O12 0.432028 0.000000 0.500000
#
# Coordination Sequence:
#
# PCOD9582883 Si02
#       6
#    12  12  12   6   6  12
#     4  12  27  41  58  76 105 140 188 241 306 374
#     4  11  21  38  62  86 120 151 187 242 304 359
#     4  11  22  41  61  83 112 147 184 248 304 362
#     4  10  24  36  60  92 110 149 198 232 302 356
#     4  12  26  42  60  82 110 143 186 242 312 390
#     4  11  23  38  61  89 110 138 187 232 308 387
#
# _framework density 17.54853
#
# number of rings (size 3 to 8) (size 9 to 14) (size 15 to 20)
#    0.000    0.800    6.000    1.800    4.200    2.400 
#    0.000    0.000    0.000    0.000    0.000    0.000 
#    0.000    0.000    0.000    0.000    0.000    0.000 
#
# Total GULP energy -334068.709828 kJ/mol
# GULP energy per Si atom -5567.811830 kJ/mol
# Density = 1.750859 g / cm^3
# Si number density = 17.548530 Si / 1000 Ang^3
#
#
#
# Elastic Constant Matrix: (Units=GPa)
#
#
# Indices 1 2 3 4 5 6 
#
# 1 47.0284 42.7544 28.3193 0.0000 0.0000 0.0000
# 2 42.7544 47.0284 28.3193 0.0000 0.0000 0.0000
# 3 28.3193 28.3193 95.3148 0.0000 0.0000 0.0000
# 4 0.0000 0.0000 0.0000 -34.7161 0.0000 0.0000
# 5 0.0000 0.0000 0.0000 0.0000 -34.7161 0.0000
# 6 0.0000 0.0000 0.0000 0.0000 0.0000 2.1370
#
#
#
# Elastic Compliance Matrix: (Units=1/GPa)
#
#
# Indices 1 2 3 4 5 6 
#
# 1 0.123842 -0.110134 -0.004073 0.000000 0.000000 0.000000
# 2 -0.110134 0.123842 -0.004073 0.000000 0.000000 0.000000
# 3 -0.004073 -0.004073 0.012912 0.000000 0.000000 0.000000
# 4 0.000000 0.000000 0.000000 -0.028805 0.000000 0.000000
# 5 0.000000 0.000000 0.000000 0.000000 -0.028805 0.000000
# 6 0.000000 0.000000 0.000000 0.000000 0.000000 0.467952
#
#
# Mechanical properties :
#
#
# Convention : Reuss Voigt Hill
#
# Bulk Modulus (GPa) = 41.60503 43.12863 42.36683
# Shear Modulus (GPa) = 5.46145 -7.46048 -0.99951
#
# Velocity S-wave (km/s) = 1.76606 -2.06411 -0.75552
# Velocity P-wave (km/s) = 5.28381 4.35309 4.84087
#
# Compressibility (1/GPa) = 0.02403556
#
# Stress axis : x y z
#
# Youngs Moduli (GPa) = 8.07483 8.07483 77.44987
#
# Poissons Ratio (x) = 0.88932 0.31542
# Poissons Ratio (y) = 0.88932 0.31542
# Poissons Ratio (z) = 0.03289 0.03289
#
# Static dielectric constant tensor:
#      x y z
#    x 1.622720 0.000000 0.000000 
#    y 0.000000 1.622720 0.000000 
#    z 0.000000 0.000000 1.501160 
# 
# From -- ./inp_files/1533.got.cif
#   From: 2010.05.17/outbox.cif.g08.bks.cpg/sg178_1_cif.got.tgz:1533.got - 2010.05.20 11:30:59.
