data_PCOD9582425
_publ_section_title
;
Structure prediction by ZEFSAII (Michael W. Deem and Ramdas Pophale) SiO2 
 PCOD9582425
Probable space group: P 61 2 2
;
_chemical_formula_sum "Si O2"
_cell_formula_units_Z 60
_cell_length_a 13.437943
_cell_length_b 13.437943
_cell_length_c 18.135094
_cell_angle_alpha 90.000000
_cell_angle_beta 90.000000
_cell_angle_gamma 120.000000
_cell_volume 2836.064031
_symmetry_space_group_name_H-M "P 61 2 2"
_symmetry_group_IT_number 178
_symmetry_cell_setting 'hexagonal'
loop_
_space_group_symop_operation_xyz
x,y,z
x-y,x,1/6+z
-y,x-y,1/3+z
-x,-y,1/2+z
-x+y,-x,2/3+z
y,-x+y,5/6+z
x-y,-y,-z
-x,-x+y,2/3-z
y,x,1/3-z
-y,-x,5/6-z
-x+y,y,1/2-z
x,x-y,1/6-z
loop_
_atom_site_type_symbol
_atom_site_label
_atom_site_fract_x
_atom_site_fract_y
_atom_site_fract_z
Si Si1 0.477367 0.734696 0.407068
Si Si2 0.132392 0.337784 0.833752
Si Si3 0.334128 0.439842 0.944796
Si Si4 0.561225 0.436109 0.142008
Si Si5 0.385874 0.272428 0.028950
O O1 0.400795 0.599206 0.416667
O O2 0.490653 0.776736 0.324417
O O3 0.417803 0.788692 0.457707
O O4 0.593694 0.771217 0.450948
O O5 0.176698 0.353395 0.750000
O O6 0.241924 0.358083 0.883519
O O7 0.117564 0.442473 0.864794
O O8 0.000000 0.228968 0.833334
O O9 0.460680 0.539321 0.916667
O O10 0.339411 0.356056 0.006210
O O11 0.461538 0.461538 0.166667
O O12 0.506690 0.355948 0.071269
O O13 0.325854 0.162927 0.083334
#
# Coordination Sequence:
#
# PCOD9582425 Si02
#       5
#    12  12  12  12  12
#     4  11  21  35  58  90 131 170 218 265 329 399
#     4  11  26  42  66  94 133 182 235 285 344 400
#     4  12  24  39  66  97 137 180 234 278 341 417
#     4  10  18  36  58  88 130 169 210 269 331 399
#     4  10  23  38  62  95 137 175 215 274 342 410
#
# _framework density 21.156082000000001
#
# number of rings (size 3 to 8) (size 9 to 14) (size 15 to 20)
#    0.000    1.200    2.000    4.800    5.600    1.600 
#    0.000    0.000    0.000    1.200    0.000    0.000 
#    0.000    0.000    0.000    0.000    0.000    0.000 
#
# Total GULP energy -334113.599336 kJ/mol
# GULP energy per Si atom -5568.559989 kJ/mol
# Density = 2.110793 g / cm^3
# Si number density = 21.156082 Si / 1000 Ang^3
#
#
#
# Elastic Constant Matrix: (Units=GPa)
#
#
# Indices 1 2 3 4 5 6 
#
# 1 62.4428 38.7585 35.6385 0.0000 0.0000 0.0000
# 2 38.7585 62.4428 35.6385 0.0000 0.0000 0.0000
# 3 35.6385 35.6385 120.7170 0.0000 0.0000 0.0000
# 4 0.0000 0.0000 0.0000 32.5559 0.0000 0.0000
# 5 0.0000 0.0000 0.0000 0.0000 32.5559 0.0000
# 6 0.0000 0.0000 0.0000 0.0000 0.0000 11.8421
#
#
#
# Elastic Compliance Matrix: (Units=1/GPa)
#
#
# Indices 1 2 3 4 5 6 
#
# 1 0.027349 -0.014873 -0.003683 0.000000 0.000000 0.000000
# 2 -0.014873 0.027349 -0.003683 0.000000 0.000000 0.000000
# 3 -0.003683 -0.003683 0.010458 0.000000 0.000000 0.000000
# 4 0.000000 0.000000 0.000000 0.030716 0.000000 0.000000
# 5 0.000000 0.000000 0.000000 0.000000 0.030716 0.000000
# 6 0.000000 0.000000 0.000000 0.000000 0.000000 0.084444
#
#
# Mechanical properties :
#
#
# Convention : Reuss Voigt Hill
#
# Bulk Modulus (GPa) = 48.36290 51.74151 50.05221
# Shear Modulus (GPa) = 19.05457 24.42859 21.74158
#
# Velocity S-wave (km/s) = 3.00437 3.40175 3.20922
# Velocity P-wave (km/s) = 5.91140 6.31976 6.11899
#
# Compressibility (1/GPa) = 0.02067700
#
# Stress axis : x y z
#
# Youngs Moduli (GPa) = 36.56479 36.56479 95.61644
#
# Poissons Ratio (x) = 0.54384 0.35215
# Poissons Ratio (y) = 0.54384 0.35215
# Poissons Ratio (z) = 0.13467 0.13467
#
# Static dielectric constant tensor:
#      x y z
#    x 1.840430 0.000000 0.000000 
#    y 0.000000 1.840430 0.000000 
#    z 0.000000 0.000000 1.807650 
# 
# From -- ./inp_files/5675.got.cif
#   From: 2010.05.17/outbox.cif.g08.bks.cpg/sg178_3_cif.got.tgz:5675.got - 2010.05.20 11:30:59.
