data_PCOD9582540
_publ_section_title
;
Structure prediction by ZEFSAII (Michael W. Deem and Ramdas Pophale) SiO2 
 PCOD9582540
Probable space group: P 61 2 2
;
_chemical_formula_sum "Si O2"
_cell_formula_units_Z 42
_cell_length_a 19.204418
_cell_length_b 19.204418
_cell_length_c 5.720607
_cell_angle_alpha 90.000000
_cell_angle_beta 90.000000
_cell_angle_gamma 120.000000
_cell_volume 1827.153547
_symmetry_space_group_name_H-M "P 61 2 2"
_symmetry_group_IT_number 178
_symmetry_cell_setting 'hexagonal'
loop_
_space_group_symop_operation_xyz
x,y,z
x-y,x,1/6+z
-y,x-y,1/3+z
-x,-y,1/2+z
-x+y,-x,2/3+z
y,-x+y,5/6+z
x-y,-y,-z
-x,-x+y,2/3-z
y,x,1/3-z
-y,-x,5/6-z
-x+y,y,1/2-z
x,x-y,1/6-z
loop_
_atom_site_type_symbol
_atom_site_label
_atom_site_fract_x
_atom_site_fract_y
_atom_site_fract_z
Si Si1 0.476740 0.569390 0.665938
Si Si2 0.643587 0.821794 0.083334
Si Si3 0.883572 0.270027 0.519477
Si Si4 0.800505 0.784539 0.424347
O O1 0.495781 0.495781 0.666667
O O2 0.434859 0.565142 0.416667
O O3 0.560400 0.651852 0.630359
O O4 0.436307 0.563694 0.916667
O O5 0.592034 0.736581 0.209463
O O6 0.708247 0.894627 0.247491
O O7 0.801596 0.198405 0.416667
O O8 0.954642 0.249638 0.552415
O O9 0.833064 0.833064 0.666667
O O10 0.824998 0.824998 0.166667
#
# Coordination Sequence:
#
# PCOD9582540 Si02
#       4
#    12   6  12  12
#     4  10  24  41  61  87 124 168 213 266 327 389
#     4  10  22  34  58  94 132 178 208 262 334 378
#     4  11  22  36  63  91 127 170 215 267 324 389
#     4  10  20  34  52  86 130 167 209 254 315 381
#
# _framework density 22.986575999999999
#
# number of rings (size 3 to 8) (size 9 to 14) (size 15 to 20)
#    0.000    1.714    2.857    0.857    4.000    8.000 
#    0.000    0.000    0.000    1.714    0.000    0.000 
#    0.000    0.000  393.429    1.714    0.000    0.571 
#
# Total GULP energy -233805.780762 kJ/mol
# GULP energy per Si atom -5566.804304 kJ/mol
# Density = 2.293426 g / cm^3
# Si number density = 22.986576 Si / 1000 Ang^3
#
#
#
# Elastic Constant Matrix: (Units=GPa)
#
#
# Indices 1 2 3 4 5 6 
#
# 1 47.4312 21.3996 25.8297 0.0000 0.0000 0.0000
# 2 21.3996 47.4312 25.8297 0.0000 0.0000 0.0000
# 3 25.8297 25.8297 224.7987 0.0000 0.0000 0.0000
# 4 0.0000 0.0000 0.0000 34.7746 0.0000 0.0000
# 5 0.0000 0.0000 0.0000 0.0000 34.7746 0.0000
# 6 0.0000 0.0000 0.0000 0.0000 0.0000 13.0158
#
#
#
# Elastic Compliance Matrix: (Units=1/GPa)
#
#
# Indices 1 2 3 4 5 6 
#
# 1 0.027157 -0.011258 -0.001827 0.000000 0.000000 0.000000
# 2 -0.011258 0.027157 -0.001827 0.000000 0.000000 0.000000
# 3 -0.001827 -0.001827 0.004868 0.000000 0.000000 0.000000
# 4 0.000000 0.000000 0.000000 0.028757 0.000000 0.000000
# 5 0.000000 0.000000 0.000000 0.000000 0.028757 0.000000
# 6 0.000000 0.000000 0.000000 0.000000 0.000000 0.076830
#
#
# Mechanical properties :
#
#
# Convention : Reuss Voigt Hill
#
# Bulk Modulus (GPa) = 34.06023 51.75321 42.90672
# Shear Modulus (GPa) = 21.44683 32.95317 27.20000
#
# Velocity S-wave (km/s) = 3.05784 3.79038 3.44364
# Velocity P-wave (km/s) = 5.22655 6.45905 5.87521
#
# Compressibility (1/GPa) = 0.02935976
#
# Stress axis : x y z
#
# Youngs Moduli (GPa) = 36.82272 36.82272 205.41284
#
# Poissons Ratio (x) = 0.41454 0.37526
# Poissons Ratio (y) = 0.41454 0.37526
# Poissons Ratio (z) = 0.06727 0.06727
#
# Static dielectric constant tensor:
#      x y z
#    x 1.890570 0.000000 0.000000 
#    y 0.000000 1.890570 0.000000 
#    z 0.000000 0.000000 2.344430 
# 
# From -- ./inp_files/748.got.cif
#   From: 2010.05.17/outbox.cif.g08.bks.cpg/sg178_1_cif.got.tgz:748.got - 2010.05.20 11:30:59.
