data_PCOD9582012
_publ_section_title
;
Structure prediction by ZEFSAII (Michael W. Deem and Ramdas Pophale) SiO2 
 PCOD9582012
Probable space group: P 63/M
;
_chemical_formula_sum "Si O2"
_cell_formula_units_Z 68
_cell_length_a 12.887224
_cell_length_b 12.887224
_cell_length_c 24.854050
_cell_angle_alpha 90.000000
_cell_angle_beta 90.000000
_cell_angle_gamma 120.000000
_cell_volume 3574.757236
_symmetry_space_group_name_H-M "P 63/M"
_symmetry_group_IT_number 176
_symmetry_cell_setting 'hexagonal'
loop_
_space_group_symop_operation_xyz
x,y,z
x-y,x,1/2+z
-y,x-y,z
-x,-y,1/2+z
-x+y,-x,z
y,-x+y,1/2+z
-x,-y,-z
-x+y,-x,1/2-z
y,-x+y,-z
x,y,1/2-z
x-y,x,-z
-y,x-y,1/2-z
loop_
_atom_site_type_symbol
_atom_site_label
_atom_site_fract_x
_atom_site_fract_y
_atom_site_fract_z
Si Si1 0.571434 0.910067 0.046821
Si Si2 0.333334 0.666668 0.315805
Si Si3 0.410346 0.109077 0.663426
Si Si4 0.537155 0.608920 0.750000
Si Si5 0.090116 0.412693 0.049951
Si Si6 0.964741 0.744744 0.840854
Si Si7 0.000000 0.000000 0.183326
Si Si8 0.598823 0.877355 0.750000
O O1 0.634427 0.945424 0.104679
O O2 0.555182 0.779949 0.035689
O O3 0.446719 0.908669 0.056653
O O4 0.647667 0.999323 0.999498
O O5 0.333334 0.666668 0.250000
O O6 0.460423 0.770585 0.337135
O O7 0.319124 0.150041 0.684106
O O8 0.422835 0.015135 0.699412
O O9 0.585779 0.748506 0.750000
O O10 0.395710 0.530374 0.750000
O O11 0.049797 0.324649 0.102249
O O12 0.049656 0.721590 0.802126
O O13 0.007714 0.885741 0.838959
O O14 0.000000 0.000000 0.250000
#
# Coordination Sequence:
#
# PCOD9582012 Si02
#       8
#    12   4  12   6  12  12   4   6
#     4  10  21  40  62  90 123 164 212 264 332 380
#     4  12  21  33  63 102 132 159 216 268 335 382
#     4  11  22  38  61  91 125 162 203 267 320 384
#     4  12  24  38  58  84 121 162 204 258 316 380
#     4  10  22  39  64  91 123 164 212 269 319 388
#     4  11  24  41  64  91 126 167 213 254 316 385
#     4  12  24  42  66  94 131 178 213 256 317 388
#     4  12  24  40  58  84 121 160 204 250 314 382
#
# _framework density 19.022271
#
# number of rings (size 3 to 8) (size 9 to 14) (size 15 to 20)
#    0.000    1.059    1.765    6.353    0.000    4.235 
#    0.000    0.000    0.000    8.824    0.000    0.000 
#    0.000    0.000    0.000    0.000    0.000    0.000 
#
# Total GULP energy -379691.293116 kJ/mol
# GULP energy per Si atom -5583.695487 kJ/mol
# Density = 1.897898 g / cm^3
# Si number density = 19.022271 Si / 1000 Ang^3
#
#
#
# Elastic Constant Matrix: (Units=GPa)
#
#
# Indices 1 2 3 4 5 6 
#
# 1 85.3379 10.4937 36.9114 0.0000 0.0000 0.0000
# 2 10.4937 85.3374 36.9107 0.0000 0.0000 0.0001
# 3 36.9114 36.9107 104.9283 0.0000 0.0000 0.0001
# 4 0.0000 0.0000 0.0000 28.7870 0.0001 0.0000
# 5 0.0000 0.0000 0.0000 0.0001 28.7871 0.0000
# 6 0.0000 0.0001 0.0001 0.0000 0.0000 37.4218
#
#
#
# Elastic Compliance Matrix: (Units=1/GPa)
#
#
# Indices 1 2 3 4 5 6 
#
# 1 0.013837 0.000476 -0.005035 0.000000 0.000000 0.000000
# 2 0.000476 0.013837 -0.005035 0.000000 0.000000 0.000000
# 3 -0.005035 -0.005035 0.013073 0.000000 0.000000 0.000000
# 4 0.000000 0.000000 0.000000 0.034738 0.000000 0.000000
# 5 0.000000 0.000000 0.000000 0.000000 0.034738 0.000000
# 6 0.000000 0.000000 0.000000 0.000000 0.000000 0.026722
#
#
# Mechanical properties :
#
#
# Convention : Reuss Voigt Hill
#
# Bulk Modulus (GPa) = 46.38316 49.35946 47.87131
# Shear Modulus (GPa) = 30.61464 31.75170 31.18317
#
# Velocity S-wave (km/s) = 4.01610 4.09000 4.05322
# Velocity P-wave (km/s) = 6.77805 6.95045 6.86479
#
# Compressibility (1/GPa) = 0.02155955
#
# Stress axis : x y z
#
# Youngs Moduli (GPa) = 72.26760 72.26759 76.49453
#
# Poissons Ratio (x) = -0.03442 0.38517
# Poissons Ratio (y) = -0.03442 0.38516
# Poissons Ratio (z) = 0.36389 0.36388
#
# Static dielectric constant tensor:
#      x y z
#    x 1.643230 0.000000 0.000000 
#    y 0.000000 1.643230 0.000000 
#    z 0.000000 0.000000 1.730490 
# 
# From -- ./inp_files/4508.got.cif
#   From: 2010.05.17/outbox.cif.g08.bks.cpg/sg176_3_cif.got.tgz:4508.got - 2010.06.03 11:36:45.
