data_PCOD9582445
_publ_section_title
;
Structure prediction by ZEFSAII (Michael W. Deem and Ramdas Pophale) SiO2 
 PCOD9582445
Probable space group: P 61 2 2
;
_chemical_formula_sum "Si O2"
_cell_formula_units_Z 48
_cell_length_a 25.353126
_cell_length_b 25.353126
_cell_length_c 5.271287
_cell_angle_alpha 90.000000
_cell_angle_beta 90.000000
_cell_angle_gamma 120.000000
_cell_volume 2934.339256
_symmetry_space_group_name_H-M "P 61 2 2"
_symmetry_group_IT_number 178
_symmetry_cell_setting 'hexagonal'
loop_
_space_group_symop_operation_xyz
x,y,z
x-y,x,1/6+z
-y,x-y,1/3+z
-x,-y,1/2+z
-x+y,-x,2/3+z
y,-x+y,5/6+z
x-y,-y,-z
-x,-x+y,2/3-z
y,x,1/3-z
-y,-x,5/6-z
-x+y,y,1/2-z
x,x-y,1/6-z
loop_
_atom_site_type_symbol
_atom_site_label
_atom_site_fract_x
_atom_site_fract_y
_atom_site_fract_z
Si Si1 0.072705 0.748949 0.844073
Si Si2 0.070251 0.929750 0.416667
Si Si3 0.431485 0.925812 0.498055
Si Si4 0.887923 0.112078 0.416667
Si Si5 0.616201 0.925414 0.006077
O O1 0.085089 0.815634 0.912334
O O2 0.094996 0.737382 0.574947
O O3 0.000000 0.706351 0.833334
O O4 0.096517 0.725947 0.075524
O O5 0.084188 0.901279 0.665313
O O6 0.000000 0.900660 0.333334
O O7 0.453302 0.906603 0.750000
O O8 0.361183 0.907216 0.478631
O O9 0.468368 0.000000 0.500000
O O10 0.452979 0.905957 0.250000
O O11 0.654544 0.000000 0.000000
#
# Coordination Sequence:
#
# PCOD9582445 Si02
#       5
#    12   6  12   6  12
#     4  10  19  32  48  66  90 117 152 196 241 285
#     4  12  26  43  62  80  98 116 144 194 274 362
#     4   9  15  23  37  59  87 118 153 187 212 240
#     4  12  24  39  58  78  96 122 158 202 248 320
#     4   9  17  28  43  63  89 121 151 188 228 260
#
# _framework density 16.358027
#
# number of rings (size 3 to 8) (size 9 to 14) (size 15 to 20)
#    0.000    2.000    0.000    5.250    0.000    9.000 
#    0.000    0.000    0.000    0.000    0.000    0.000 
#    0.000    0.000    0.000    0.000    0.000    0.000 
#
# Total GULP energy -267482.637888 kJ/mol
# GULP energy per Si atom -5572.554956 kJ/mol
# Density = 1.632080 g / cm^3
# Si number density = 16.358027 Si / 1000 Ang^3
#
#
#
# Elastic Constant Matrix: (Units=GPa)
#
#
# Indices 1 2 3 4 5 6 
#
# 1 118.5287 -24.2681 48.8012 0.0000 0.0000 0.0000
# 2 -24.2681 118.5287 48.8012 0.0000 0.0000 0.0000
# 3 48.8012 48.8012 159.3245 0.0000 0.0000 0.0000
# 4 0.0000 0.0000 0.0000 24.0836 0.0000 0.0000
# 5 0.0000 0.0000 0.0000 0.0000 24.0836 0.0000
# 6 0.0000 0.0000 0.0000 0.0000 0.0000 71.3984
#
#
#
# Elastic Compliance Matrix: (Units=1/GPa)
#
#
# Indices 1 2 3 4 5 6 
#
# 1 0.011270 0.004267 -0.004759 0.000000 0.000000 0.000000
# 2 0.004267 0.011270 -0.004759 0.000000 0.000000 0.000000
# 3 -0.004759 -0.004759 0.009192 0.000000 0.000000 0.000000
# 4 0.000000 0.000000 0.000000 0.041522 0.000000 0.000000
# 5 0.000000 0.000000 0.000000 0.000000 0.041522 0.000000
# 6 0.000000 0.000000 0.000000 0.000000 0.000000 0.014006
#
#
# Mechanical properties :
#
#
# Convention : Reuss Voigt Hill
#
# Bulk Modulus (GPa) = 47.10469 60.33898 53.72183
# Shear Modulus (GPa) = 34.16246 45.44961 39.80604
#
# Velocity S-wave (km/s) = 4.57488 5.27680 4.93833
# Velocity P-wave (km/s) = 7.53423 8.60771 8.08880
#
# Compressibility (1/GPa) = 0.02122931
#
# Stress axis : x y z
#
# Youngs Moduli (GPa) = 88.73365 88.73365 108.79311
#
# Poissons Ratio (x) = -0.37860 0.51773
# Poissons Ratio (y) = -0.37860 0.51773
# Poissons Ratio (z) = 0.42227 0.42227
#
# Static dielectric constant tensor:
#      x y z
#    x 1.540950 0.000000 0.000000 
#    y 0.000000 1.540950 0.000000 
#    z 0.000000 0.000000 1.572670 
# 
# From -- ./inp_files/1079.got.cif
#   From: 2010.05.17/outbox.cif.g08.bks.cpg/sg178_1_cif.got.tgz:1079.got - 2010.05.20 11:30:59.
