data_PCOD9582577
_publ_section_title
;
Structure prediction by ZEFSAII (Michael W. Deem and Ramdas Pophale) SiO2 
 PCOD9582577
Probable space group: P 61 2 2
;
_chemical_formula_sum "Si O2"
_cell_formula_units_Z 48
_cell_length_a 11.513523
_cell_length_b 11.513523
_cell_length_c 23.771443
_cell_angle_alpha 90.000000
_cell_angle_beta 90.000000
_cell_angle_gamma 120.000000
_cell_volume 2728.994391
_symmetry_space_group_name_H-M "P 61 2 2"
_symmetry_group_IT_number 178
_symmetry_cell_setting 'hexagonal'
loop_
_space_group_symop_operation_xyz
x,y,z
x-y,x,1/6+z
-y,x-y,1/3+z
-x,-y,1/2+z
-x+y,-x,2/3+z
y,-x+y,5/6+z
x-y,-y,-z
-x,-x+y,2/3-z
y,x,1/3-z
-y,-x,5/6-z
-x+y,y,1/2-z
x,x-y,1/6-z
loop_
_atom_site_type_symbol
_atom_site_label
_atom_site_fract_x
_atom_site_fract_y
_atom_site_fract_z
Si Si1 0.394432 0.394432 0.166667
Si Si2 0.646211 0.692075 0.450563
Si Si3 0.592679 0.407322 0.416667
Si Si4 0.323066 0.615259 0.144458
Si Si5 0.201113 0.224963 0.067438
O O1 0.398322 0.532822 0.157624
O O2 0.320351 0.301795 0.112848
O O3 0.647511 0.565815 0.423707
O O4 0.498509 0.663573 0.470369
O O5 0.708728 0.817959 0.408723
O O6 0.737227 0.744117 0.505942
O O7 0.637309 0.357771 0.361372
O O8 0.364930 0.682465 0.083334
O O9 0.137287 0.068644 0.083334
#
# Coordination Sequence:
#
# PCOD9582577 Si02
#       5
#     6  12   6  12  12
#     4  10  20  36  62  88 116 152 210 252 296 360
#     4  11  23  36  60  95 115 159 207 249 301 372
#     4  12  24  38  62  88 134 162 194 262 308 368
#     4  11  22  41  62  90 123 162 205 254 309 371
#     4  11  18  37  62  88 115 149 204 255 297 346
#
# _framework density 17.588898
#
# number of rings (size 3 to 8) (size 9 to 14) (size 15 to 20)
#    0.000    1.000    6.250    4.500    0.000    0.000 
#    0.000    0.000    5.500    0.000    0.000    0.000 
#    0.000    0.000    0.000    0.000    0.000    0.000 
#
# Total GULP energy -267856.081215 kJ/mol
# GULP energy per Si atom -5580.335025 kJ/mol
# Density = 1.754886 g / cm^3
# Si number density = 17.588898 Si / 1000 Ang^3
#
#
#
# Elastic Constant Matrix: (Units=GPa)
#
#
# Indices 1 2 3 4 5 6 
#
# 1 106.8830 56.2505 30.0676 0.0000 0.0000 0.0000
# 2 56.2505 106.8830 30.0676 0.0000 0.0000 0.0000
# 3 30.0676 30.0676 75.4843 0.0000 0.0000 0.0000
# 4 0.0000 0.0000 0.0000 21.8874 0.0000 0.0000
# 5 0.0000 0.0000 0.0000 0.0000 21.8874 0.0000
# 6 0.0000 0.0000 0.0000 0.0000 0.0000 25.3162
#
#
#
# Elastic Compliance Matrix: (Units=1/GPa)
#
#
# Indices 1 2 3 4 5 6 
#
# 1 0.013468 -0.006283 -0.002862 0.000000 0.000000 0.000000
# 2 -0.006283 0.013468 -0.002862 0.000000 0.000000 0.000000
# 3 -0.002862 -0.002862 0.015528 0.000000 0.000000 0.000000
# 4 0.000000 0.000000 0.000000 0.045688 0.000000 0.000000
# 5 0.000000 0.000000 0.000000 0.000000 0.045688 0.000000
# 6 0.000000 0.000000 0.000000 0.000000 0.000000 0.039500
#
#
# Mechanical properties :
#
#
# Convention : Reuss Voigt Hill
#
# Bulk Modulus (GPa) = 54.20114 58.00242 56.10178
# Shear Modulus (GPa) = 24.56965 25.34251 24.95608
#
# Velocity S-wave (km/s) = 3.74155 3.79994 3.77085
# Velocity P-wave (km/s) = 7.03903 7.23194 7.13614
#
# Compressibility (1/GPa) = 0.01844980
#
# Stress axis : x y z
#
# Youngs Moduli (GPa) = 74.25249 74.25249 64.40059
#
# Poissons Ratio (x) = 0.46650 0.18431
# Poissons Ratio (y) = 0.46650 0.18431
# Poissons Ratio (z) = 0.21251 0.21251
#
# Static dielectric constant tensor:
#      x y z
#    x 1.612690 0.000000 0.000000 
#    y 0.000000 1.612690 0.000000 
#    z 0.000000 0.000000 1.605540 
# 
# From -- ./inp_files/7336.got.cif
#   From: 2010.05.17/outbox.cif.g08.bks.cpg/sg178_4_cif.got.tgz:7336.got - 2010.05.20 11:30:59.
