data_PCOD9582218
_publ_section_title
;
Structure prediction by ZEFSAII (Michael W. Deem and Ramdas Pophale) SiO2 
 PCOD9582218
Probable space group: P 6 2 2
;
_chemical_formula_sum "Si O2"
_cell_formula_units_Z 90
_cell_length_a 17.426938
_cell_length_b 17.426938
_cell_length_c 16.253576
_cell_angle_alpha 90.000000
_cell_angle_beta 90.000000
_cell_angle_gamma 120.000000
_cell_volume 4274.858365
_symmetry_space_group_name_H-M "P 6 2 2"
_symmetry_group_IT_number 177
_symmetry_cell_setting 'hexagonal'
loop_
_space_group_symop_operation_xyz
x,y,z
x-y,x,z
-y,x-y,z
-x,-y,z
-x+y,-x,z
y,-x+y,z
x-y,-y,-z
-x,-x+y,-z
y,x,-z
-y,-x,-z
-x+y,y,-z
x,x-y,-z
loop_
_atom_site_type_symbol
_atom_site_label
_atom_site_fract_x
_atom_site_fract_y
_atom_site_fract_z
Si Si1 0.539433 0.896487 0.003981
Si Si2 0.851078 0.054889 0.346021
Si Si3 0.513092 0.097370 0.600345
Si Si4 0.401099 0.249745 0.306316
Si Si5 0.795730 0.588070 0.871527
Si Si6 0.861505 0.309522 0.428705
Si Si7 0.264083 0.264083 0.500000
Si Si8 0.895369 0.797034 0.099723
O O1 0.550269 0.853383 0.087238
O O2 0.443661 0.887322 0.000000
O O3 0.556612 0.846750 0.929069
O O4 0.611897 0.000000 0.000000
O O5 0.792219 0.087644 0.297633
O O6 0.954317 0.125459 0.332863
O O7 0.817741 0.055095 0.439450
O O8 0.450006 0.097087 0.671176
O O9 0.616325 0.146693 0.623702
O O10 0.500000 0.000000 0.584828
O O11 0.294718 0.945182 0.558330
O O12 0.435974 0.230820 0.222479
O O13 0.422623 0.204304 0.383162
O O14 0.853787 0.694567 0.877773
O O15 0.862928 0.352412 0.519373
O O16 0.845972 0.849113 0.129045
O O17 0.900406 0.800812 0.000000
#
# Coordination Sequence:
#
# PCOD9582218 Si02
#       8
#    12  12  12  12  12  12   6  12
#     4  10  22  46  76 103 133 182 232 276 337 423
#     4  12  26  41  63  94 139 192 245 293 339 397
#     4  11  22  43  73 100 130 179 235 287 352 429
#     4  12  27  44  69 105 144 180 227 297 369 421
#     4  11  24  43  70 105 140 182 225 285 351 419
#     4  11  21  43  72  97 130 176 230 287 357 427
#     4  12  20  43  69  92 126 188 246 294 337 413
#     4  10  19  36  66 100 138 180 229 279 329 395
#
# _framework density 21.053329000000002
#
# number of rings (size 3 to 8) (size 9 to 14) (size 15 to 20)
#    0.000    0.933    5.333    2.267    0.000    3.733 
#    6.400    0.667    2.933    1.600    0.000    0.000 
#    0.000    0.000    0.000    0.000    0.000    0.000 
#
# Total GULP energy -501974.672604 kJ/mol
# GULP energy per Si atom -5577.496362 kJ/mol
# Density = 2.100541 g / cm^3
# Si number density = 21.053329 Si / 1000 Ang^3
#
#
#
# Elastic Constant Matrix: (Units=GPa)
#
#
# Indices 1 2 3 4 5 6 
#
# 1 115.3425 69.1558 41.3872 0.0000 0.0000 0.0000
# 2 69.1558 115.3425 41.3872 0.0000 0.0000 0.0000
# 3 41.3872 41.3872 90.0871 0.0000 0.0000 0.0000
# 4 0.0000 0.0000 0.0000 0.4497 0.0000 0.0000
# 5 0.0000 0.0000 0.0000 0.0000 0.4497 0.0000
# 6 0.0000 0.0000 0.0000 0.0000 0.0000 23.0933
#
#
#
# Elastic Compliance Matrix: (Units=1/GPa)
#
#
# Indices 1 2 3 4 5 6 
#
# 1 0.014239 -0.007412 -0.003137 0.000000 0.000000 0.000000
# 2 -0.007412 0.014239 -0.003137 0.000000 0.000000 0.000000
# 3 -0.003137 -0.003137 0.013982 0.000000 0.000000 0.000000
# 4 0.000000 0.000000 0.000000 2.223598 0.000000 0.000000
# 5 0.000000 0.000000 0.000000 0.000000 2.223597 0.000000
# 6 0.000000 0.000000 0.000000 0.000000 0.000000 0.043303
#
#
# Mechanical properties :
#
#
# Convention : Reuss Voigt Hill
#
# Bulk Modulus (GPa) = 66.26594 69.40362 67.83478
# Shear Modulus (GPa) = 1.09520 16.05469 8.57495
#
# Velocity S-wave (km/s) = 0.72203 2.76447 2.02035
# Velocity P-wave (km/s) = 5.67792 6.57472 6.14270
#
# Compressibility (1/GPa) = 0.01509071
#
# Stress axis : x y z
#
# Youngs Moduli (GPa) = 70.22826 70.22826 71.51894
#
# Poissons Ratio (x) = 0.52053 0.22432
# Poissons Ratio (y) = 0.52053 0.22432
# Poissons Ratio (z) = 0.22027 0.22027
#
# Static dielectric constant tensor:
#      x y z
#    x 1.823730 0.000000 0.000000 
#    y 0.000000 1.823730 0.000000 
#    z 0.000000 0.000000 1.789940 
# 
# From -- ./inp_files/2943.got.cif
#   From: 2010.05.17/outbox.cif.g08.bks.cpg/sg177_2_cif.got.tgz:2943.got - 2010.05.20 11:28:44.
