data_PCOD9582965
_publ_section_title
;
Structure prediction by ZEFSAII (Michael W. Deem and Ramdas Pophale) SiO2 
 PCOD9582965
Probable space group: P 61 2 2
;
_chemical_formula_sum "Si O2"
_cell_formula_units_Z 42
_cell_length_a 10.796251
_cell_length_b 10.796251
_cell_length_c 16.458936
_cell_angle_alpha 90.000000
_cell_angle_beta 90.000000
_cell_angle_gamma 120.000000
_cell_volume 1661.415791
_symmetry_space_group_name_H-M "P 61 2 2"
_symmetry_group_IT_number 178
_symmetry_cell_setting 'hexagonal'
loop_
_space_group_symop_operation_xyz
x,y,z
x-y,x,1/6+z
-y,x-y,1/3+z
-x,-y,1/2+z
-x+y,-x,2/3+z
y,-x+y,5/6+z
x-y,-y,-z
-x,-x+y,2/3-z
y,x,1/3-z
-y,-x,5/6-z
-x+y,y,1/2-z
x,x-y,1/6-z
loop_
_atom_site_type_symbol
_atom_site_label
_atom_site_fract_x
_atom_site_fract_y
_atom_site_fract_z
Si Si1 0.439091 0.878182 0.250000
Si Si2 0.926946 0.359506 0.919002
Si Si3 0.830469 0.651511 0.488280
Si Si4 0.159096 0.828439 0.002084
O O1 0.489702 0.955754 0.162270
O O2 0.524176 0.794953 0.261883
O O3 0.759350 0.240651 0.916667
O O4 0.000000 0.433819 0.833334
O O5 0.012417 0.281958 0.952193
O O6 0.810899 0.589183 0.579351
O O7 0.776521 0.765204 0.492416
O O8 0.206476 0.793525 0.916667
O O9 0.238532 0.000000 0.000000
#
# Coordination Sequence:
#
# PCOD9582965 Si02
#       4
#     6  12  12  12
#     4  12  26  44  68 102 142 186 246 288 370 456
#     4  12  25  48  75 102 144 193 250 309 367 448
#     4  11  21  43  67 101 144 179 235 296 359 438
#     4   9  19  35  67 104 137 175 226 289 364 414
#
# _framework density 25.279641999999999
#
# number of rings (size 3 to 8) (size 9 to 14) (size 15 to 20)
#    0.000    1.143    5.714    0.000    0.000    8.000 
#    2.571    0.000    9.429    0.000    0.000    0.000 
#    0.000    0.000    0.000    0.000    0.000    0.000 
#
# Total GULP energy -234350.590943 kJ/mol
# GULP energy per Si atom -5579.775975 kJ/mol
# Density = 2.522210 g / cm^3
# Si number density = 25.279642 Si / 1000 Ang^3
#
#
#
# Elastic Constant Matrix: (Units=GPa)
#
#
# Indices 1 2 3 4 5 6 
#
# 1 43.2877 9.1100 26.4390 0.0000 0.0000 0.0000
# 2 9.1100 43.2877 26.4390 0.0000 0.0000 0.0000
# 3 26.4390 26.4390 239.8130 0.0000 0.0000 0.0000
# 4 0.0000 0.0000 0.0000 36.1540 0.0000 0.0000
# 5 0.0000 0.0000 0.0000 0.0000 36.1540 0.0000
# 6 0.0000 0.0000 0.0000 0.0000 0.0000 17.0888
#
#
#
# Elastic Compliance Matrix: (Units=1/GPa)
#
#
# Indices 1 2 3 4 5 6 
#
# 1 0.025366 -0.003892 -0.002367 0.000000 0.000000 0.000000
# 2 -0.003892 0.025366 -0.002367 0.000000 0.000000 0.000000
# 3 -0.002367 -0.002367 0.004692 0.000000 0.000000 0.000000
# 4 0.000000 0.000000 0.000000 0.027659 0.000000 0.000000
# 5 0.000000 0.000000 0.000000 0.000000 0.027659 0.000000
# 6 0.000000 0.000000 0.000000 0.000000 0.000000 0.058518
#
#
# Mechanical properties :
#
#
# Convention : Reuss Voigt Hill
#
# Bulk Modulus (GPa) = 26.19860 50.04050 38.11955
# Shear Modulus (GPa) = 25.09544 35.50609 30.30077
#
# Velocity S-wave (km/s) = 3.15415 3.75178 3.46587
# Velocity P-wave (km/s) = 4.86322 6.21333 5.57927
#
# Compressibility (1/GPa) = 0.03816997
#
# Stress axis : x y z
#
# Youngs Moduli (GPa) = 39.42223 39.42223 213.13171
#
# Poissons Ratio (x) = 0.15345 0.50458
# Poissons Ratio (y) = 0.15345 0.50458
# Poissons Ratio (z) = 0.09333 0.09333
#
# Static dielectric constant tensor:
#      x y z
#    x 2.008310 0.000000 0.000000 
#    y 0.000000 2.008310 0.000000 
#    z 0.000000 0.000000 2.131360 
# 
# From -- ./inp_files/6481.got.cif
#   From: 2010.05.17/outbox.cif.g08.bks.cpg/sg178_4_cif.got.tgz:6481.got - 2010.05.20 11:30:59.
