data_PCOD9582703
_publ_section_title
;
Structure prediction by ZEFSAII (Michael W. Deem and Ramdas Pophale) SiO2 
 PCOD9582703
Probable space group: P 61 2 2
;
_chemical_formula_sum "Si O2"
_cell_formula_units_Z 30
_cell_length_a 16.839617
_cell_length_b 16.839617
_cell_length_c 5.321370
_cell_angle_alpha 90.000000
_cell_angle_beta 90.000000
_cell_angle_gamma 120.000000
_cell_volume 1306.828231
_symmetry_space_group_name_H-M "P 61 2 2"
_symmetry_group_IT_number 178
_symmetry_cell_setting 'hexagonal'
loop_
_space_group_symop_operation_xyz
x,y,z
x-y,x,1/6+z
-y,x-y,1/3+z
-x,-y,1/2+z
-x+y,-x,2/3+z
y,-x+y,5/6+z
x-y,-y,-z
-x,-x+y,2/3-z
y,x,1/3-z
-y,-x,5/6-z
-x+y,y,1/2-z
x,x-y,1/6-z
loop_
_atom_site_type_symbol
_atom_site_label
_atom_site_fract_x
_atom_site_fract_y
_atom_site_fract_z
Si Si1 0.891652 0.486423 0.837834
Si Si2 0.733804 0.648545 0.346008
Si Si3 0.000000 0.824194 0.833334
O O1 0.853973 0.426987 0.583334
O O2 0.000000 0.522068 0.833334
O O3 0.848636 0.424318 0.083334
O O4 0.891824 0.579000 0.917464
O O5 0.656041 0.656041 0.166667
O O6 0.814104 0.628207 0.250000
O O7 0.785944 0.750449 0.447833
O O8 0.917819 0.835638 0.750000
#
# Coordination Sequence:
#
# PCOD9582703 Si02
#       3
#    12  12   6
#     4  10  21  39  65  99 137 176 228 307 397 464
#     4  12  24  41  68 106 151 201 265 334 388 459
#     4  12  26  42  64  96 156 220 278 330 390 454
#
# _framework density 22.956344000000001
#
# number of rings (size 3 to 8) (size 9 to 14) (size 15 to 20)
#    0.000    0.800    6.000    3.600    0.000    1.600 
#    0.000    0.000    0.000    0.000    0.000   25.200 
#    0.000    0.000    0.000    0.000    0.000    0.000 
#
# Total GULP energy -167034.070997 kJ/mol
# GULP energy per Si atom -5567.802367 kJ/mol
# Density = 2.290409 g / cm^3
# Si number density = 22.956344 Si / 1000 Ang^3
#
#
#
# Elastic Constant Matrix: (Units=GPa)
#
#
# Indices 1 2 3 4 5 6 
#
# 1 43.0945 135.0465 58.8131 0.0000 0.0000 0.0000
# 2 135.0465 43.0945 58.8131 0.0000 0.0000 0.0000
# 3 58.8131 58.8131 175.0955 0.0000 0.0000 0.0000
# 4 0.0000 0.0000 0.0000 34.6166 0.0000 0.0000
# 5 0.0000 0.0000 0.0000 0.0000 34.6166 0.0000
# 6 0.0000 0.0000 0.0000 0.0000 0.0000 -45.9760
#
#
#
# Elastic Compliance Matrix: (Units=1/GPa)
#
#
# Indices 1 2 3 4 5 6 
#
# 1 -0.001831 0.009044 -0.002423 0.000000 0.000000 0.000000
# 2 0.009044 -0.001831 -0.002423 0.000000 0.000000 0.000000
# 3 -0.002423 -0.002423 0.007339 0.000000 0.000000 0.000000
# 4 0.000000 0.000000 0.000000 0.028888 0.000000 0.000000
# 5 0.000000 0.000000 0.000000 0.000000 0.028888 0.000000
# 6 0.000000 0.000000 0.000000 0.000000 0.000000 -0.021750
#
#
# Mechanical properties :
#
#
# Convention : Reuss Voigt Hill
#
# Bulk Modulus (GPa) = 82.82298 85.18111 84.00204
# Shear Modulus (GPa) = 141.52330 5.22557 73.37443
#
# Velocity S-wave (km/s) = 7.86020 1.51038 5.65968
# Velocity P-wave (km/s) = 10.88732 6.34255 8.90959
#
# Compressibility (1/GPa) = 0.01207394
#
# Stress axis : x y z
#
# Youngs Moduli (GPa) = -546.17064 -546.17064 136.26124
#
# Poissons Ratio (x) = 4.93974 0.33015
# Poissons Ratio (y) = 4.93974 0.33015
# Poissons Ratio (z) = -1.32333 -1.32333
#
# Static dielectric constant tensor:
#      x y z
#    x 1.908030 0.000000 0.000000 
#    y 0.000000 1.908030 0.000000 
#    z 0.000000 0.000000 2.061880 
# 
# From -- ./inp_files/338.got.cif
#   From: 2010.05.17/outbox.cif.g08.bks.cpg/sg178_1_cif.got.tgz:338.got - 2010.05.20 11:30:59.
