data_PCOD9582151
_publ_section_title
;
Structure prediction by ZEFSAII (Michael W. Deem and Ramdas Pophale) SiO2 
 PCOD9582151
Probable space group: P 63/M
;
_chemical_formula_sum "Si O2"
_cell_formula_units_Z 78
_cell_length_a 24.000000
_cell_length_b 24.000000
_cell_length_c 9.000000
_cell_angle_alpha 90.000000
_cell_angle_beta 90.000000
_cell_angle_gamma 120.000000
_cell_volume 4489.475693
_symmetry_space_group_name_H-M "P 63/M"
_symmetry_group_IT_number 176
_symmetry_cell_setting 'hexagonal'
loop_
_space_group_symop_operation_xyz
x,y,z
x-y,x,1/2+z
-y,x-y,z
-x,-y,1/2+z
-x+y,-x,z
y,-x+y,1/2+z
-x,-y,-z
-x+y,-x,1/2-z
y,-x+y,-z
x,y,1/2-z
x-y,x,-z
-y,x-y,1/2-z
loop_
_atom_site_type_symbol
_atom_site_label
_atom_site_fract_x
_atom_site_fract_y
_atom_site_fract_z
Si Si1 0.076652 0.806153 0.428113
Si Si2 0.597764 0.897596 0.923879
Si Si3 0.258281 0.508887 0.574588
Si Si4 0.417375 0.710637 0.250000
Si Si5 0.413214 0.307620 0.077455
Si Si6 0.563612 0.006378 0.927290
Si Si7 0.196270 0.927141 0.570765
O O1 0.081216 0.810387 0.250000
O O2 0.093456 0.752220 0.484147
O O3 0.129456 0.874097 0.498059
O O4 0.001715 0.780068 0.468835
O O5 0.617522 0.909496 0.750000
O O6 0.537703 0.826021 0.934510
O O7 0.575077 0.947566 0.970067
O O8 0.273176 0.537196 0.750000
O O9 0.276704 0.547880 0.414828
O O10 0.181457 0.462241 0.571471
O O11 0.366832 0.736934 0.250000
O O12 0.407529 0.322903 0.250000
O O13 0.341727 0.252441 0.029045
O O14 0.440718 0.371825 0.981845
O O15 0.557554 0.006310 0.750000
O O16 0.500000 0.000000 0.000000
O O17 0.189695 0.920862 0.750000
#
# Coordination Sequence:
#
# PCOD9582151 Si02
#       7
#    12  12  12   6  12  12  12
#     4  11  22  35  61  94 122 164 207 250 306 366
#     4  10  21  38  59  88 122 159 202 246 310 370
#     4  10  22  41  67  91 119 162 203 257 316 374
#     4  10  26  46  62  90 116 150 220 262 320 372
#     4  10  20  37  60  87 121 159 200 245 310 369
#     4  11  24  39  57  85 123 162 200 248 306 373
#     4  10  21  38  59  89 129 162 200 256 305 362
#
# _framework density 17.373965999999999
#
# number of rings (size 3 to 8) (size 9 to 14) (size 15 to 20)
#    0.154    1.538    3.077    0.923    2.154    4.308 
#    0.000    3.077    0.000    0.308    0.000    0.000 
#    0.000    0.000    0.000    0.000    0.000    0.000 
#
# Total GULP energy -434786.077511 kJ/mol
# GULP energy per Si atom -5574.180481 kJ/mol
# Density = 1.733442 g / cm^3
# Si number density = 17.373966 Si / 1000 Ang^3
#
#
#
# Elastic Constant Matrix: (Units=GPa)
#
#
# Indices 1 2 3 4 5 6 
#
# 1 85.8951 26.7153 38.3381 0.0000 0.0000 0.0000
# 2 26.7153 85.8951 38.3381 0.0000 0.0000 0.0000
# 3 38.3381 38.3381 83.6706 0.0000 0.0000 0.0000
# 4 0.0000 0.0000 0.0000 36.5317 0.0000 0.0000
# 5 0.0000 0.0000 0.0000 0.0000 36.5317 0.0000
# 6 0.0000 0.0000 0.0000 0.0000 0.0000 29.5899
#
#
#
# Elastic Compliance Matrix: (Units=1/GPa)
#
#
# Indices 1 2 3 4 5 6 
#
# 1 0.014902 -0.001995 -0.005914 0.000000 0.000000 0.000000
# 2 -0.001995 0.014902 -0.005914 0.000000 0.000000 0.000000
# 3 -0.005914 -0.005914 0.017371 0.000000 0.000000 0.000000
# 4 0.000000 0.000000 0.000000 0.027373 0.000000 0.000000
# 5 0.000000 0.000000 0.000000 0.000000 0.027373 0.000000
# 6 0.000000 0.000000 0.000000 0.000000 0.000000 0.033795
#
#
# Mechanical properties :
#
#
# Convention : Reuss Voigt Hill
#
# Bulk Modulus (GPa) = 51.20536 51.36041 51.28289
# Shear Modulus (GPa) = 29.43344 30.66861 30.05102
#
# Velocity S-wave (km/s) = 4.12042 4.20599 4.16343
# Velocity P-wave (km/s) = 7.22313 7.29473 7.25902
#
# Compressibility (1/GPa) = 0.01952921
#
# Stress axis : x y z
#
# Youngs Moduli (GPa) = 67.10350 67.10350 57.56625
#
# Poissons Ratio (x) = 0.13389 0.34045
# Poissons Ratio (y) = 0.13389 0.34045
# Poissons Ratio (z) = 0.39685 0.39685
#
# Static dielectric constant tensor:
#      x y z
#    x 1.585100 0.000000 0.000000 
#    y 0.000000 1.585100 0.000000 
#    z 0.000000 0.000000 1.609800 
# 
# From -- ./inp_files/1318.got.cif
#   From: 2010.05.17/outbox.ucp.g08.bks.cvg/sg176_1_cif.got.tgz:1318.got - 2010.06.11 15:18:56.
