data_PCOD9582054
_publ_section_title
;
Structure prediction by ZEFSAII (Michael W. Deem and Ramdas Pophale) SiO2 
 PCOD9582054
Probable space group: P 63/M
;
_chemical_formula_sum "Si O2"
_cell_formula_units_Z 52
_cell_length_a 11.345110
_cell_length_b 11.345110
_cell_length_c 23.100530
_cell_angle_alpha 90.000000
_cell_angle_beta 90.000000
_cell_angle_gamma 120.000000
_cell_volume 2574.957100
_symmetry_space_group_name_H-M "P 63/M"
_symmetry_group_IT_number 176
_symmetry_cell_setting 'hexagonal'
loop_
_space_group_symop_operation_xyz
x,y,z
x-y,x,1/2+z
-y,x-y,z
-x,-y,1/2+z
-x+y,-x,z
y,-x+y,1/2+z
-x,-y,-z
-x+y,-x,1/2-z
y,-x+y,-z
x,y,1/2-z
x-y,x,-z
-y,x-y,1/2-z
loop_
_atom_site_type_symbol
_atom_site_label
_atom_site_fract_x
_atom_site_fract_y
_atom_site_fract_z
Si Si1 0.921888 0.584612 0.317588
Si Si2 0.705956 0.503832 0.501041
Si Si3 0.823307 0.689792 0.889595
Si Si4 0.326102 0.413281 0.625492
Si Si5 0.000000 0.000000 0.430439
O O1 0.923085 0.556688 0.250000
O O2 0.795766 0.605726 0.333344
O O3 0.907286 0.458558 0.354978
O O4 0.056452 0.719158 0.338237
O O5 0.558644 0.366100 0.503882
O O6 0.739296 0.602838 0.554674
O O7 0.715889 0.573355 0.439958
O O8 0.936378 0.650596 0.872725
O O9 0.902440 0.847880 0.907557
O O10 0.000000 0.000000 0.500000
#
# Coordination Sequence:
#
# PCOD9582054 Si02
#       5
#    12  12  12  12   4
#     4  12  27  47  71 100 135 187 244 292 349 418
#     4  10  22  43  71 107 140 176 228 293 363 419
#     4  12  26  43  70 105 145 187 227 290 359 431
#     4  12  24  47  74 103 140 183 238 296 355 417
#     4  12  24  42  64 107 145 186 222 277 356 439
#
# _framework density 20.194512
#
# number of rings (size 3 to 8) (size 9 to 14) (size 15 to 20)
#    0.462    0.000    4.615    3.923    3.231    3.692 
#    1.385    0.000    0.000    0.000    0.000    0.000 
#    0.000    0.000    0.000    0.000    0.000    0.000 
#
# Total GULP energy -291093.198123 kJ/mol
# GULP energy per Si atom -5597.946118 kJ/mol
# Density = 2.014855 g / cm^3
# Si number density = 20.194512 Si / 1000 Ang^3
#
#
#
# Elastic Constant Matrix: (Units=GPa)
#
#
# Indices 1 2 3 4 5 6 
#
# 1 62.8672 -10.1471 19.8584 0.0000 0.0000 0.0000
# 2 -10.1471 62.8672 19.8584 0.0000 0.0000 0.0000
# 3 19.8584 19.8584 81.8532 0.0000 0.0000 0.0000
# 4 0.0000 0.0000 0.0000 19.2631 0.0000 0.0000
# 5 0.0000 0.0000 0.0000 0.0000 19.2631 0.0000
# 6 0.0000 0.0000 0.0000 0.0000 0.0000 36.5072
#
#
#
# Elastic Compliance Matrix: (Units=1/GPa)
#
#
# Indices 1 2 3 4 5 6 
#
# 1 0.018453 0.004757 -0.005631 0.000000 0.000000 0.000000
# 2 0.004757 0.018453 -0.005631 0.000000 0.000000 0.000000
# 3 -0.005631 -0.005631 0.014949 0.000000 0.000000 0.000000
# 4 0.000000 0.000000 0.000000 0.051913 0.000000 0.000000
# 5 0.000000 0.000000 0.000000 0.000000 0.051913 0.000000
# 6 0.000000 0.000000 0.000000 0.000000 0.000000 0.027392
#
#
# Mechanical properties :
#
#
# Convention : Reuss Voigt Hill
#
# Bulk Modulus (GPa) = 25.74290 29.63632 27.68961
# Shear Modulus (GPa) = 23.91987 26.87453 25.39720
#
# Velocity S-wave (km/s) = 3.44535 3.65195 3.55015
# Velocity P-wave (km/s) = 5.34812 5.69996 5.52684
#
# Compressibility (1/GPa) = 0.03884566
#
# Stress axis : x y z
#
# Youngs Moduli (GPa) = 54.19142 54.19142 66.89284
#
# Poissons Ratio (x) = -0.25780 0.37668
# Poissons Ratio (y) = -0.25780 0.37668
# Poissons Ratio (z) = 0.30515 0.30515
#
# Static dielectric constant tensor:
#      x y z
#    x 1.715290 0.000000 0.000000 
#    y 0.000000 1.715290 0.000000 
#    z 0.000000 0.000000 1.660390 
# 
# From -- ./inp_files/3714.got.cif
#   From: 2010.05.17/outbox.cif.g08.bks.cpg/sg176_2_cif.got.tgz:3714.got - 2010.06.03 11:36:45.
