data_PCOD9582688
_publ_section_title
;
Structure prediction by ZEFSAII (Michael W. Deem and Ramdas Pophale) SiO2 
 PCOD9582688
Probable space group: P 61 2 2
;
_chemical_formula_sum "Si O2"
_cell_formula_units_Z 60
_cell_length_a 11.783289
_cell_length_b 11.783289
_cell_length_c 26.344435
_cell_angle_alpha 90.000000
_cell_angle_beta 90.000000
_cell_angle_gamma 120.000000
_cell_volume 3167.762253
_symmetry_space_group_name_H-M "P 61 2 2"
_symmetry_group_IT_number 178
_symmetry_cell_setting 'hexagonal'
loop_
_space_group_symop_operation_xyz
x,y,z
x-y,x,1/6+z
-y,x-y,1/3+z
-x,-y,1/2+z
-x+y,-x,2/3+z
y,-x+y,5/6+z
x-y,-y,-z
-x,-x+y,2/3-z
y,x,1/3-z
-y,-x,5/6-z
-x+y,y,1/2-z
x,x-y,1/6-z
loop_
_atom_site_type_symbol
_atom_site_label
_atom_site_fract_x
_atom_site_fract_y
_atom_site_fract_z
Si Si1 0.729514 0.585106 0.797445
Si Si2 0.419378 0.568377 0.664970
Si Si3 0.308420 0.894387 0.752277
Si Si4 0.316051 0.482466 0.876499
Si Si5 0.394119 0.877793 0.109663
O O1 0.829095 0.658190 0.750000
O O2 0.754384 0.464641 0.808154
O O3 0.736546 0.632285 0.856054
O O4 0.589099 0.556661 0.778161
O O5 0.536172 0.536172 0.666667
O O6 0.292848 0.468100 0.633484
O O7 0.400428 0.572088 0.724970
O O8 0.442097 0.884194 0.750000
O O9 0.198658 0.764910 0.724042
O O10 0.353785 0.033437 0.726163
O O11 0.404880 0.595121 0.916667
O O12 0.392818 0.541289 0.824204
#
# Coordination Sequence:
#
# PCOD9582688 Si02
#       5
#    12  12  12  12  12
#     4  11  20  37  59  89 123 162 206 262 318 367
#     4  11  23  35  58  93 125 159 211 263 319 376
#     4  10  21  38  56  89 124 163 208 251 321 386
#     4  11  22  36  58  86 125 170 205 253 325 383
#     4  11  21  37  59  85 124 162 204 269 304 381
#
# _framework density 18.940814
#
# number of rings (size 3 to 8) (size 9 to 14) (size 15 to 20)
#    0.000    1.200    6.000    3.600    0.000    0.000 
#    0.000    0.000    0.000    1.200    0.000    0.000 
#    0.000    0.000    0.000    0.000    0.000    0.000 
#
# Total GULP energy -334028.546798 kJ/mol
# GULP energy per Si atom -5567.142447 kJ/mol
# Density = 1.889770 g / cm^3
# Si number density = 18.940814 Si / 1000 Ang^3
#
#
#
# Elastic Constant Matrix: (Units=GPa)
#
#
# Indices 1 2 3 4 5 6 
#
# 1 57.9634 23.0820 31.4506 0.0000 0.0000 0.0000
# 2 23.0820 57.9634 31.4506 0.0000 0.0000 0.0000
# 3 31.4506 31.4506 123.8343 0.0000 0.0000 0.0000
# 4 0.0000 0.0000 0.0000 34.8139 0.0000 0.0000
# 5 0.0000 0.0000 0.0000 0.0000 34.8139 0.0000
# 6 0.0000 0.0000 0.0000 0.0000 0.0000 17.4407
#
#
#
# Elastic Compliance Matrix: (Units=1/GPa)
#
#
# Indices 1 2 3 4 5 6 
#
# 1 0.022018 -0.006650 -0.003903 0.000000 0.000000 0.000000
# 2 -0.006650 0.022018 -0.003903 0.000000 0.000000 0.000000
# 3 -0.003903 -0.003903 0.010058 0.000000 0.000000 0.000000
# 4 0.000000 0.000000 0.000000 0.028724 0.000000 0.000000
# 5 0.000000 0.000000 0.000000 0.000000 0.028724 0.000000
# 6 0.000000 0.000000 0.000000 0.000000 0.000000 0.057337
#
#
# Mechanical properties :
#
#
# Convention : Reuss Voigt Hill
#
# Bulk Modulus (GPa) = 39.71149 45.74749 42.72949
# Shear Modulus (GPa) = 24.24986 27.66555 25.95770
#
# Velocity S-wave (km/s) = 3.58201 3.82597 3.70599
# Velocity P-wave (km/s) = 6.17408 6.61231 6.39695
#
# Compressibility (1/GPa) = 0.02518163
#
# Stress axis : x y z
#
# Youngs Moduli (GPa) = 45.41676 45.41676 99.42486
#
# Poissons Ratio (x) = 0.30204 0.38806
# Poissons Ratio (y) = 0.30204 0.38806
# Poissons Ratio (z) = 0.17726 0.17726
#
# Static dielectric constant tensor:
#      x y z
#    x 1.680950 0.000000 0.000000 
#    y 0.000000 1.680950 0.000000 
#    z 0.000000 0.000000 1.774600 
# 
# From -- ./inp_files/8777.got.cif
#   From: 2010.05.17/outbox.cif.g08.bks.cpg/sg178_5_cif.got.tgz:8777.got - 2010.05.20 11:30:59.
