data_PCOD9582967
_publ_section_title
;
Structure prediction by ZEFSAII (Michael W. Deem and Ramdas Pophale) SiO2 
 PCOD9582967
Probable space group: P 61 2 2
;
_chemical_formula_sum "Si O2"
_cell_formula_units_Z 24
_cell_length_a 15.056291
_cell_length_b 15.056291
_cell_length_c 4.975017
_cell_angle_alpha 90.000000
_cell_angle_beta 90.000000
_cell_angle_gamma 120.000000
_cell_volume 976.700029
_symmetry_space_group_name_H-M "P 61 2 2"
_symmetry_group_IT_number 178
_symmetry_cell_setting 'hexagonal'
loop_
_space_group_symop_operation_xyz
x,y,z
x-y,x,1/6+z
-y,x-y,1/3+z
-x,-y,1/2+z
-x+y,-x,2/3+z
y,-x+y,5/6+z
x-y,-y,-z
-x,-x+y,2/3-z
y,x,1/3-z
-y,-x,5/6-z
-x+y,y,1/2-z
x,x-y,1/6-z
loop_
_atom_site_type_symbol
_atom_site_label
_atom_site_fract_x
_atom_site_fract_y
_atom_site_fract_z
Si Si1 0.066556 0.303139 0.085914
Si Si2 0.507318 0.381992 0.674610
O O1 0.132511 0.265022 0.250000
O O2 0.000000 0.312500 0.333334
O O3 0.137673 0.412189 0.942382
O O4 0.000000 0.235320 0.833334
O O5 0.448409 0.448409 0.666667
O O6 0.580243 0.419758 0.416667
O O7 0.584377 0.415623 0.916667
#
# Coordination Sequence:
#
# PCOD9582967 Si02
#       2
#    12  12
#     4  11  22  37  59  91 129 170 222 287 349 409
#     4   9  16  29  51  81 113 146 192 253 319 387
#
# _framework density 24.572541000000001
#
# number of rings (size 3 to 8) (size 9 to 14) (size 15 to 20)
#    0.000    2.000    0.000    9.000    0.000    0.000 
#    0.000    0.000    0.000    3.000    0.000   42.000 
#    0.000    0.000    0.000    0.000    0.000    0.000 
#
# Total GULP energy -133624.055028 kJ/mol
# GULP energy per Si atom -5567.668960 kJ/mol
# Density = 2.451661 g / cm^3
# Si number density = 24.572541 Si / 1000 Ang^3
#
#
#
# Elastic Constant Matrix: (Units=GPa)
#
#
# Indices 1 2 3 4 5 6 
#
# 1 57.6998 27.5888 62.6518 0.0000 0.0000 0.0000
# 2 27.5888 57.6998 62.6518 0.0000 0.0000 0.0000
# 3 62.6518 62.6518 297.9177 0.0000 0.0000 0.0000
# 4 0.0000 0.0000 0.0000 48.3347 0.0000 0.0000
# 5 0.0000 0.0000 0.0000 0.0000 48.3347 0.0000
# 6 0.0000 0.0000 0.0000 0.0000 0.0000 15.0555
#
#
#
# Elastic Compliance Matrix: (Units=1/GPa)
#
#
# Indices 1 2 3 4 5 6 
#
# 1 0.025089 -0.008122 -0.003568 0.000000 0.000000 0.000000
# 2 -0.008122 0.025089 -0.003568 0.000000 0.000000 0.000000
# 3 -0.003568 -0.003568 0.004857 0.000000 0.000000 0.000000
# 4 0.000000 0.000000 0.000000 0.020689 0.000000 0.000000
# 5 0.000000 0.000000 0.000000 0.000000 0.020689 0.000000
# 6 0.000000 0.000000 0.000000 0.000000 0.000000 0.066421
#
#
# Mechanical properties :
#
#
# Convention : Reuss Voigt Hill
#
# Bulk Modulus (GPa) = 40.78466 79.90025 60.34246
# Shear Modulus (GPa) = 24.81104 39.70665 32.25884
#
# Velocity S-wave (km/s) = 3.18103 4.02418 3.62719
# Velocity P-wave (km/s) = 5.48868 7.36062 6.49247
#
# Compressibility (1/GPa) = 0.02451902
#
# Stress axis : x y z
#
# Youngs Moduli (GPa) = 39.85837 39.85837 205.87136
#
# Poissons Ratio (x) = 0.32372 0.73459
# Poissons Ratio (y) = 0.32372 0.73459
# Poissons Ratio (z) = 0.14222 0.14222
#
# Static dielectric constant tensor:
#      x y z
#    x 2.152490 0.000000 0.000000 
#    y 0.000000 2.152490 0.000000 
#    z 0.000000 0.000000 1.951040 
# 
# From -- ./inp_files/106.got.cif
#   From: 2010.05.17/outbox.cif.g08.bks.cpg/sg178_1_cif.got.tgz:106.got - 2010.05.20 11:30:59.
