data_PCOD9582436
_publ_section_title
;
Structure prediction by ZEFSAII (Michael W. Deem and Ramdas Pophale) SiO2 
 PCOD9582436
Probable space group: P 61 2 2
;
_chemical_formula_sum "Si O2"
_cell_formula_units_Z 24
_cell_length_a 12.985359
_cell_length_b 12.985359
_cell_length_c 7.853432
_cell_angle_alpha 90.000000
_cell_angle_beta 90.000000
_cell_angle_gamma 120.000000
_cell_volume 1146.827349
_symmetry_space_group_name_H-M "P 61 2 2"
_symmetry_group_IT_number 178
_symmetry_cell_setting 'hexagonal'
loop_
_space_group_symop_operation_xyz
x,y,z
x-y,x,1/6+z
-y,x-y,1/3+z
-x,-y,1/2+z
-x+y,-x,2/3+z
y,-x+y,5/6+z
x-y,-y,-z
-x,-x+y,2/3-z
y,x,1/3-z
-y,-x,5/6-z
-x+y,y,1/2-z
x,x-y,1/6-z
loop_
_atom_site_type_symbol
_atom_site_label
_atom_site_fract_x
_atom_site_fract_y
_atom_site_fract_z
Si Si1 0.820501 0.410251 0.083334
Si Si2 0.000000 0.223500 0.833334
Si Si3 0.348886 0.480206 0.552134
O O1 0.739794 0.467143 0.030026
O O2 0.881813 0.481882 0.255638
O O3 0.103472 0.206944 0.750000
O O4 0.066339 0.337519 0.959423
O O5 0.451698 0.548303 0.416667
#
# Coordination Sequence:
#
# PCOD9582436 Si02
#       3
#     6   6  12
#     4  10  18  40  70 114 140 162 220 308 384 436
#     4  12  28  48  70  98 152 216 256 296 352 452
#     4  11  21  40  74 110 146 173 227 307 390 440
#
# _framework density 20.927299000000001
#
# number of rings (size 3 to 8) (size 9 to 14) (size 15 to 20)
#    0.000    1.000   10.000    0.000    3.500    0.000 
#    0.000    5.000    0.000    0.000    0.000    0.000 
#    0.000    0.000    0.000    0.000    0.000    0.000 
#
# Total GULP energy -134010.250029 kJ/mol
# GULP energy per Si atom -5583.760418 kJ/mol
# Density = 2.087967 g / cm^3
# Si number density = 20.927299 Si / 1000 Ang^3
#
#
#
# Elastic Constant Matrix: (Units=GPa)
#
#
# Indices 1 2 3 4 5 6 
#
# 1 183.5250 78.0773 51.8655 0.0000 0.0000 0.0000
# 2 78.0773 183.5250 51.8655 0.0000 0.0000 0.0000
# 3 51.8655 51.8655 106.7370 0.0000 0.0000 0.0000
# 4 0.0000 0.0000 0.0000 44.3700 0.0000 0.0000
# 5 0.0000 0.0000 0.0000 0.0000 44.3700 0.0000
# 6 0.0000 0.0000 0.0000 0.0000 0.0000 52.7238
#
#
#
# Elastic Compliance Matrix: (Units=1/GPa)
#
#
# Indices 1 2 3 4 5 6 
#
# 1 0.007109 -0.002374 -0.002301 0.000000 0.000000 0.000000
# 2 -0.002374 0.007109 -0.002301 0.000000 0.000000 0.000000
# 3 -0.002301 -0.002301 0.011605 0.000000 0.000000 0.000000
# 4 0.000000 0.000000 0.000000 0.022538 0.000000 0.000000
# 5 0.000000 0.000000 0.000000 0.000000 0.022538 0.000000
# 6 0.000000 0.000000 0.000000 0.000000 0.000000 0.018967
#
#
# Mechanical properties :
#
#
# Convention : Reuss Voigt Hill
#
# Bulk Modulus (GPa) = 84.23531 93.04482 88.64007
# Shear Modulus (GPa) = 46.39335 47.75803 47.07569
#
# Velocity S-wave (km/s) = 4.71349 4.78231 4.74802
# Velocity P-wave (km/s) = 8.36429 8.66322 8.51507
#
# Compressibility (1/GPa) = 0.01187151
#
# Stress axis : x y z
#
# Youngs Moduli (GPa) = 140.66399 140.66399 86.17119
#
# Poissons Ratio (x) = 0.33397 0.19826
# Poissons Ratio (y) = 0.33397 0.19826
# Poissons Ratio (z) = 0.32364 0.32364
#
# Static dielectric constant tensor:
#      x y z
#    x 1.845870 0.000000 0.000000 
#    y 0.000000 1.845870 0.000000 
#    z 0.000000 0.000000 1.733300 
# 
# From -- ./inp_files/3717.got.cif
#   From: 2010.05.17/outbox.cif.g08.bks.cpg/sg178_2_cif.got.tgz:3717.got - 2010.05.20 11:30:59.
