data_PCOD9582447
_publ_section_title
;
Structure prediction by ZEFSAII (Michael W. Deem and Ramdas Pophale) SiO2 
 PCOD9582447
Probable space group: P 61 2 2
;
_chemical_formula_sum "Si O2"
_cell_formula_units_Z 72
_cell_length_a 13.633273
_cell_length_b 13.633273
_cell_length_c 24.345189
_cell_angle_alpha 90.000000
_cell_angle_beta 90.000000
_cell_angle_gamma 120.000000
_cell_volume 3918.718299
_symmetry_space_group_name_H-M "P 61 2 2"
_symmetry_group_IT_number 178
_symmetry_cell_setting 'hexagonal'
loop_
_space_group_symop_operation_xyz
x,y,z
x-y,x,1/6+z
-y,x-y,1/3+z
-x,-y,1/2+z
-x+y,-x,2/3+z
y,-x+y,5/6+z
x-y,-y,-z
-x,-x+y,2/3-z
y,x,1/3-z
-y,-x,5/6-z
-x+y,y,1/2-z
x,x-y,1/6-z
loop_
_atom_site_type_symbol
_atom_site_label
_atom_site_fract_x
_atom_site_fract_y
_atom_site_fract_z
Si Si1 0.182824 0.130513 0.406271
Si Si2 0.731410 0.691022 0.267001
Si Si3 0.583031 0.416970 0.916667
Si Si4 0.348944 0.380524 0.884396
Si Si5 0.000000 0.997849 0.333334
Si Si6 0.361488 0.617728 0.692791
Si Si7 0.388224 0.611777 0.916667
Si Si8 0.000000 0.568126 0.333334
O O1 0.263795 0.256999 0.422964
O O2 0.103863 0.059592 0.456999
O O3 0.247190 0.063798 0.388840
O O4 0.095953 0.112364 0.358974
O O5 0.850414 0.700827 0.250000
O O6 0.689211 0.618280 0.322293
O O7 0.637955 0.640104 0.219553
O O8 0.471138 0.391236 0.883651
O O9 0.689519 0.437918 0.879054
O O10 0.343746 0.477580 0.919837
O O11 0.284613 0.569226 0.750000
O O12 0.294301 0.623835 0.638741
O O13 0.423997 0.546834 0.676127
#
# Coordination Sequence:
#
# PCOD9582447 Si02
#       8
#    12  12   6  12   6  12   6   6
#     4  11  19  33  54  85 125 162 195 254 308 384
#     4  12  21  34  59 100 133 158 205 266 330 402
#     4   9  26  46  58  86 130 170 221 276 314 392
#     4  11  23  39  63  90 123 177 214 252 338 394
#     4  10  19  32  49  86 126 158 196 251 319 364
#     4  10  24  44  63  93 132 162 217 287 324 390
#     4  11  22  40  66  92 124 168 209 270 332 390
#     4  12  23  34  63  96 122 166 206 267 341 382
#
# _framework density 18.373353999999999
#
# number of rings (size 3 to 8) (size 9 to 14) (size 15 to 20)
#    0.500    0.667    3.333    5.000    4.667    0.000 
#    0.000    0.833    0.000    2.000    0.000    0.000 
#    0.000    0.000    0.000    0.000    0.000    0.000 
#
# Total GULP energy -400876.247924 kJ/mol
# GULP energy per Si atom -5567.725666 kJ/mol
# Density = 1.833154 g / cm^3
# Si number density = 18.373354 Si / 1000 Ang^3
#
#
#
# Elastic Constant Matrix: (Units=GPa)
#
#
# Indices 1 2 3 4 5 6 
#
# 1 77.6021 36.6652 38.4011 0.0000 0.0000 0.0000
# 2 36.6652 77.6021 38.4011 0.0000 0.0000 0.0000
# 3 38.4011 38.4011 88.6998 0.0000 0.0000 0.0000
# 4 0.0000 0.0000 0.0000 32.4426 0.0000 0.0000
# 5 0.0000 0.0000 0.0000 0.0000 32.4426 0.0000
# 6 0.0000 0.0000 0.0000 0.0000 0.0000 20.4684
#
#
#
# Elastic Compliance Matrix: (Units=1/GPa)
#
#
# Indices 1 2 3 4 5 6 
#
# 1 0.018385 -0.006042 -0.005344 0.000000 0.000000 0.000000
# 2 -0.006042 0.018385 -0.005344 0.000000 0.000000 0.000000
# 3 -0.005344 -0.005344 0.015901 0.000000 0.000000 0.000000
# 4 0.000000 0.000000 0.000000 0.030824 0.000000 0.000000
# 5 0.000000 0.000000 0.000000 0.000000 0.030824 0.000000
# 6 0.000000 0.000000 0.000000 0.000000 0.000000 0.048856
#
#
# Mechanical properties :
#
#
# Convention : Reuss Voigt Hill
#
# Bulk Modulus (GPa) = 52.05033 52.31543 52.18288
# Shear Modulus (GPa) = 24.62583 25.76648 25.19616
#
# Velocity S-wave (km/s) = 3.66498 3.74890 3.70718
# Velocity P-wave (km/s) = 6.80443 6.87564 6.84012
#
# Compressibility (1/GPa) = 0.01921217
#
# Stress axis : x y z
#
# Youngs Moduli (GPa) = 54.39074 54.39074 62.88934
#
# Poissons Ratio (x) = 0.32865 0.33606
# Poissons Ratio (y) = 0.32865 0.33606
# Poissons Ratio (z) = 0.29065 0.29065
#
# Static dielectric constant tensor:
#      x y z
#    x 1.645740 0.000000 0.000000 
#    y 0.000000 1.645740 0.000000 
#    z 0.000000 0.000000 1.675370 
# 
# From -- ./inp_files/8298.got.cif
#   From: 2010.05.17/outbox.cif.g08.bks.cpg/sg178_5_cif.got.tgz:8298.got - 2010.05.20 11:30:59.
