data_PCOD9582798
_publ_section_title
;
Structure prediction by ZEFSAII (Michael W. Deem and Ramdas Pophale) SiO2 
 PCOD9582798
Probable space group: P 61 2 2
;
_chemical_formula_sum "Si O2"
_cell_formula_units_Z 42
_cell_length_a 9.719410
_cell_length_b 9.719410
_cell_length_c 26.636869
_cell_angle_alpha 90.000000
_cell_angle_beta 90.000000
_cell_angle_gamma 120.000000
_cell_volume 2179.182546
_symmetry_space_group_name_H-M "P 61 2 2"
_symmetry_group_IT_number 178
_symmetry_cell_setting 'hexagonal'
loop_
_space_group_symop_operation_xyz
x,y,z
x-y,x,1/6+z
-y,x-y,1/3+z
-x,-y,1/2+z
-x+y,-x,2/3+z
y,-x+y,5/6+z
x-y,-y,-z
-x,-x+y,2/3-z
y,x,1/3-z
-y,-x,5/6-z
-x+y,y,1/2-z
x,x-y,1/6-z
loop_
_atom_site_type_symbol
_atom_site_label
_atom_site_fract_x
_atom_site_fract_y
_atom_site_fract_z
Si Si1 0.294127 0.454724 0.455192
Si Si2 0.543513 0.000000 0.000000
Si Si3 0.005286 0.728033 0.776769
Si Si4 0.811790 0.351433 0.025987
O O1 0.410139 0.589862 0.416667
O O2 0.154210 0.311393 0.423739
O O3 0.226932 0.536151 0.492026
O O4 0.403302 0.396401 0.481589
O O5 0.449566 0.024305 0.953594
O O6 0.534152 0.833973 0.988338
O O7 0.000000 0.785743 0.833334
O O8 0.842265 0.684530 0.750000
O O9 0.791297 0.395649 0.083334
#
# Coordination Sequence:
#
# PCOD9582798 Si02
#       4
#    12   6  12  12
#     4  11  24  44  67 100 133 179 231 283 339 417
#     4  10  22  42  68  96 132 182 218 272 342 404
#     4  10  23  41  71  95 133 184 227 274 341 412
#     4  11  26  42  69 100 138 177 230 284 343 410
#
# _framework density 19.273281000000001
#
# number of rings (size 3 to 8) (size 9 to 14) (size 15 to 20)
#    0.857    0.571    2.857    0.857   16.000    0.000 
#    2.571    0.000    0.000    0.000    0.000    0.000 
#    0.000    0.000    0.000    0.000    0.000    0.000 
#
# Total GULP energy -234221.716791 kJ/mol
# GULP energy per Si atom -5576.707543 kJ/mol
# Density = 1.922941 g / cm^3
# Si number density = 19.273281 Si / 1000 Ang^3
#
#
#
# Elastic Constant Matrix: (Units=GPa)
#
#
# Indices 1 2 3 4 5 6 
#
# 1 130.0447 66.6658 45.8608 0.0000 0.0000 0.0000
# 2 66.6658 130.0447 45.8608 0.0000 0.0000 0.0000
# 3 45.8608 45.8608 81.2624 0.0000 0.0000 0.0000
# 4 0.0000 0.0000 0.0000 27.6448 0.0000 0.0000
# 5 0.0000 0.0000 0.0000 0.0000 27.6448 0.0000
# 6 0.0000 0.0000 0.0000 0.0000 0.0000 31.6894
#
#
#
# Elastic Compliance Matrix: (Units=1/GPa)
#
#
# Indices 1 2 3 4 5 6 
#
# 1 0.011339 -0.004440 -0.003894 0.000000 0.000000 0.000000
# 2 -0.004440 0.011339 -0.003894 0.000000 0.000000 0.000000
# 3 -0.003894 -0.003894 0.016700 0.000000 0.000000 0.000000
# 4 0.000000 0.000000 0.000000 0.036173 0.000000 0.000000
# 5 0.000000 0.000000 0.000000 0.000000 0.036173 0.000000
# 6 0.000000 0.000000 0.000000 0.000000 0.000000 0.031556
#
#
# Mechanical properties :
#
#
# Convention : Reuss Voigt Hill
#
# Bulk Modulus (GPa) = 67.00379 73.12516 70.06447
# Shear Modulus (GPa) = 28.95055 29.59342 29.27199
#
# Velocity S-wave (km/s) = 3.87991 3.92275 3.90139
# Velocity P-wave (km/s) = 7.41027 7.65120 7.53170
#
# Compressibility (1/GPa) = 0.01492453
#
# Stress axis : x y z
#
# Youngs Moduli (GPa) = 88.19431 88.19431 59.87853
#
# Poissons Ratio (x) = 0.39154 0.23314
# Poissons Ratio (y) = 0.39154 0.23314
# Poissons Ratio (z) = 0.34339 0.34339
#
# Static dielectric constant tensor:
#      x y z
#    x 1.675670 0.000000 0.000000 
#    y 0.000000 1.675670 0.000000 
#    z 0.000000 0.000000 1.704680 
# 
# From -- ./inp_files/9291.got.cif
#   From: 2010.05.17/outbox.cif.g08.bks.cpg/sg178_5_cif.got.tgz:9291.got - 2010.05.20 11:30:59.
