data_PCOD9582879
_publ_section_title
;
Structure prediction by ZEFSAII (Michael W. Deem and Ramdas Pophale) SiO2 
 PCOD9582879
Probable space group: P 61 2 2
;
_chemical_formula_sum "Si O2"
_cell_formula_units_Z 60
_cell_length_a 14.179714
_cell_length_b 14.179714
_cell_length_c 14.633161
_cell_angle_alpha 90.000000
_cell_angle_beta 90.000000
_cell_angle_gamma 120.000000
_cell_volume 2548.025238
_symmetry_space_group_name_H-M "P 61 2 2"
_symmetry_group_IT_number 178
_symmetry_cell_setting 'hexagonal'
loop_
_space_group_symop_operation_xyz
x,y,z
x-y,x,1/6+z
-y,x-y,1/3+z
-x,-y,1/2+z
-x+y,-x,2/3+z
y,-x+y,5/6+z
x-y,-y,-z
-x,-x+y,2/3-z
y,x,1/3-z
-y,-x,5/6-z
-x+y,y,1/2-z
x,x-y,1/6-z
loop_
_atom_site_type_symbol
_atom_site_label
_atom_site_fract_x
_atom_site_fract_y
_atom_site_fract_z
Si Si1 0.885929 0.249725 0.002770
Si Si2 0.218906 0.670262 0.008218
Si Si3 0.763391 0.140211 0.622526
Si Si4 0.491715 0.502100 0.772943
Si Si5 0.952959 0.108686 0.632973
O O1 0.810240 0.189761 0.916667
O O2 0.930395 0.377456 0.991194
O O3 0.831304 0.216121 0.102904
O O4 0.980895 0.217254 0.002723
O O5 0.282170 0.641085 0.083334
O O6 0.196018 0.758195 0.055535
O O7 0.284494 0.715507 0.916667
O O8 0.107873 0.563896 0.982432
O O9 0.834331 0.083945 0.598893
O O10 0.633360 0.069865 0.610553
O O11 0.470533 0.470533 0.666667
O O12 0.028553 0.105940 0.552638
#
# Coordination Sequence:
#
# PCOD9582879 Si02
#       5
#    12  12  12  12  12
#     4  11  27  47  82 115 153 203 275 331 399 466
#     4  12  26  46  70 104 156 201 255 316 387 467
#     4  11  24  47  75 111 153 203 255 320 395 480
#     4  12  26  48  77 113 155 209 255 328 401 473
#     4  10  23  46  82 114 159 208 266 337 401 479
#
# _framework density 23.547649
#
# number of rings (size 3 to 8) (size 9 to 14) (size 15 to 20)
#    0.000    0.800    2.000    5.400    8.400    2.400 
#    0.000    0.000   13.200    0.000    0.000    0.000 
#    0.000    0.000    0.000    0.000    0.000    0.000 
#
# Total GULP energy -336080.129114 kJ/mol
# GULP energy per Si atom -5601.335485 kJ/mol
# Density = 2.349405 g / cm^3
# Si number density = 23.547649 Si / 1000 Ang^3
#
#
#
# Elastic Constant Matrix: (Units=GPa)
#
#
# Indices 1 2 3 4 5 6 
#
# 1 284.7997 -112.3620 48.7372 0.0000 0.0000 0.0000
# 2 -112.3620 284.7997 48.7372 0.0000 0.0000 0.0000
# 3 48.7372 48.7372 175.4488 0.0000 0.0000 0.0000
# 4 0.0000 0.0000 0.0000 68.7436 0.0000 0.0000
# 5 0.0000 0.0000 0.0000 0.0000 68.7436 0.0000
# 6 0.0000 0.0000 0.0000 0.0000 0.0000 198.5808
#
#
#
# Elastic Compliance Matrix: (Units=1/GPa)
#
#
# Indices 1 2 3 4 5 6 
#
# 1 0.004699 0.002181 -0.001911 0.000000 0.000000 0.000000
# 2 0.002181 0.004699 -0.001911 0.000000 0.000000 0.000000
# 3 -0.001911 -0.001911 0.006761 0.000000 0.000000 0.000000
# 4 0.000000 0.000000 0.000000 0.014547 0.000000 0.000000
# 5 0.000000 0.000000 0.000000 0.000000 0.014547 0.000000
# 6 0.000000 0.000000 0.000000 0.000000 0.000000 0.005036
#
#
# Mechanical properties :
#
#
# Convention : Reuss Voigt Hill
#
# Bulk Modulus (GPa) = 77.66260 79.47476 78.56868
# Shear Modulus (GPa) = 86.41163 117.87597 102.14380
#
# Velocity S-wave (km/s) = 6.06434 7.08288 6.59330
# Velocity P-wave (km/s) = 9.06022 10.03561 9.56036
#
# Compressibility (1/GPa) = 0.01287621
#
# Stress axis : x y z
#
# Youngs Moduli (GPa) = 212.82693 212.82693 147.89898
#
# Poissons Ratio (x) = -0.46413 0.28264
# Poissons Ratio (y) = -0.46413 0.28264
# Poissons Ratio (z) = 0.40671 0.40671
#
# Static dielectric constant tensor:
#      x y z
#    x 1.896410 0.000000 0.000000 
#    y 0.000000 1.896410 0.000000 
#    z 0.000000 0.000000 1.982150 
# 
# From -- ./inp_files/5682.got.cif
#   From: 2010.05.17/outbox.cif.g08.bks.cpg/sg178_3_cif.got.tgz:5682.got - 2010.05.20 11:30:59.
