data_PCOD9582556
_publ_section_title
;
Structure prediction by ZEFSAII (Michael W. Deem and Ramdas Pophale) SiO2 
 PCOD9582556
Probable space group: P 61 2 2
;
_chemical_formula_sum "Si O2"
_cell_formula_units_Z 48
_cell_length_a 14.982819
_cell_length_b 14.982819
_cell_length_c 9.758048
_cell_angle_alpha 90.000000
_cell_angle_beta 90.000000
_cell_angle_gamma 120.000000
_cell_volume 1897.058170
_symmetry_space_group_name_H-M "P 61 2 2"
_symmetry_group_IT_number 178
_symmetry_cell_setting 'hexagonal'
loop_
_space_group_symop_operation_xyz
x,y,z
x-y,x,1/6+z
-y,x-y,1/3+z
-x,-y,1/2+z
-x+y,-x,2/3+z
y,-x+y,5/6+z
x-y,-y,-z
-x,-x+y,2/3-z
y,x,1/3-z
-y,-x,5/6-z
-x+y,y,1/2-z
x,x-y,1/6-z
loop_
_atom_site_type_symbol
_atom_site_label
_atom_site_fract_x
_atom_site_fract_y
_atom_site_fract_z
Si Si1 0.348046 0.651955 0.416667
Si Si2 0.513839 0.114353 0.542044
Si Si3 0.898474 0.796948 0.250000
Si Si4 0.934820 0.286368 0.113205
Si Si5 0.161117 0.726689 0.088598
O O1 0.224933 0.612740 0.424020
O O2 0.331091 0.544706 0.349034
O O3 0.443806 0.086673 0.677241
O O4 0.461146 0.141753 0.413092
O O5 0.498469 0.000000 0.500000
O O6 0.864813 0.864813 0.166667
O O7 0.808889 0.727153 0.354467
O O8 0.848084 0.237981 0.228732
O O9 0.054743 0.353717 0.145785
#
# Coordination Sequence:
#
# PCOD9582556 Si02
#       5
#     6  12   6  12  12
#     4  12  23  36  54  86 128 172 207 266 322 418
#     4  10  20  35  58  82 115 160 209 260 310 385
#     4  12  19  34  66 102 124 162 221 294 356 410
#     4  11  19  36  61  91 120 156 213 280 326 398
#     4  11  22  35  57  89 122 158 210 268 337 391
#
# _framework density 25.302336
#
# number of rings (size 3 to 8) (size 9 to 14) (size 15 to 20)
#    0.000    1.000    7.500    1.500    0.000    4.000 
#    0.000    0.000    0.000    1.500    0.000    0.000 
#    0.000    0.000    0.000    0.000    0.000    0.000 
#
# Total GULP energy -267225.674980 kJ/mol
# GULP energy per Si atom -5567.201562 kJ/mol
# Density = 2.524475 g / cm^3
# Si number density = 25.302336 Si / 1000 Ang^3
#
#
#
# Elastic Constant Matrix: (Units=GPa)
#
#
# Indices 1 2 3 4 5 6 
#
# 1 206.7909 84.9581 25.2183 0.0000 0.0000 0.0000
# 2 84.9581 206.7909 25.2183 0.0000 0.0000 0.0000
# 3 25.2183 25.2183 82.1398 0.0000 0.0000 0.0000
# 4 0.0000 0.0000 0.0000 18.0200 0.0000 0.0000
# 5 0.0000 0.0000 0.0000 0.0000 18.0200 0.0000
# 6 0.0000 0.0000 0.0000 0.0000 0.0000 60.9164
#
#
#
# Elastic Compliance Matrix: (Units=1/GPa)
#
#
# Indices 1 2 3 4 5 6 
#
# 1 0.005914 -0.002294 -0.001111 0.000000 0.000000 0.000000
# 2 -0.002294 0.005914 -0.001111 0.000000 0.000000 0.000000
# 3 -0.001111 -0.001111 0.012857 0.000000 0.000000 0.000000
# 4 0.000000 0.000000 0.000000 0.055494 0.000000 0.000000
# 5 0.000000 0.000000 0.000000 0.000000 0.055494 0.000000
# 6 0.000000 0.000000 0.000000 0.000000 0.000000 0.016416
#
#
# Mechanical properties :
#
#
# Convention : Reuss Voigt Hill
#
# Bulk Modulus (GPa) = 63.89392 85.16787 74.53089
# Shear Modulus (GPa) = 30.05918 43.41309 36.73614
#
# Velocity S-wave (km/s) = 3.45048 4.14668 3.81450
# Velocity P-wave (km/s) = 6.41727 7.52727 6.99433
#
# Compressibility (1/GPa) = 0.01565094
#
# Stress axis : x y z
#
# Youngs Moduli (GPa) = 169.09467 169.09467 77.78012
#
# Poissons Ratio (x) = 0.38792 0.08644
# Poissons Ratio (y) = 0.38792 0.08644
# Poissons Ratio (z) = 0.18792 0.18792
#
# Static dielectric constant tensor:
#      x y z
#    x 1.992590 0.000000 0.000000 
#    y 0.000000 1.992590 0.000000 
#    z 0.000000 0.000000 2.030190 
# 
# From -- ./inp_files/4160.got.cif
#   From: 2010.05.17/outbox.cif.g08.bks.cpg/sg178_3_cif.got.tgz:4160.got - 2010.05.20 11:30:59.
