data_PCOD9582167
_publ_section_title
;
Structure prediction by ZEFSAII (Michael W. Deem and Ramdas Pophale) SiO2 
 PCOD9582167
Probable space group: P 6 2 2
;
_chemical_formula_sum "Si O2"
_cell_formula_units_Z 60
_cell_length_a 21.043746
_cell_length_b 21.043746
_cell_length_c 7.319459
_cell_angle_alpha 90.000000
_cell_angle_beta 90.000000
_cell_angle_gamma 120.000000
_cell_volume 2807.085989
_symmetry_space_group_name_H-M "P 6 2 2"
_symmetry_group_IT_number 177
_symmetry_cell_setting 'hexagonal'
loop_
_space_group_symop_operation_xyz
x,y,z
x-y,x,z
-y,x-y,z
-x,-y,z
-x+y,-x,z
y,-x+y,z
x-y,-y,-z
-x,-x+y,-z
y,x,-z
-y,-x,-z
-x+y,y,-z
x,x-y,-z
loop_
_atom_site_type_symbol
_atom_site_label
_atom_site_fract_x
_atom_site_fract_y
_atom_site_fract_z
Si Si1 0.706360 1.000000 0.712841
Si Si2 1.000000 0.144984 0.779535
Si Si3 0.542828 0.457173 0.277831
Si Si4 0.291302 0.436882 0.276800
Si Si5 0.145580 0.708698 0.723200
O O1 0.639715 0.924236 0.785860
O O2 0.687841 0.000000 0.500000
O O3 0.781750 1.000000 0.727071
O O4 0.715480 0.075765 0.785860
O O5 0.072973 0.145946 0.715487
O O6 0.000000 0.142431 0.000000
O O7 0.500000 0.500000 0.219672
O O8 0.541889 0.458112 0.500000
O O9 0.627657 0.500092 0.221677
O O10 0.499909 0.372344 0.221679
O O11 0.289316 0.436571 0.500000
O O12 0.222530 0.445061 0.216486
#
# Coordination Sequence:
#
# PCOD9582167 Si02
#       5
#    12  12  12  12  12
#     4  10  18  30  49  71  94 119 152 192 232 273
#     4  10  21  36  51  67  91 123 154 184 224 274
#     4   9  14  24  38  54  82 120 156 184 224 282
#     4   9  16  25  39  61  88 117 152 193 232 271
#     4   9  16  25  39  61  88 117 152 193 232 271
#
# _framework density 21.374479000000001
#
# number of rings (size 3 to 8) (size 9 to 14) (size 15 to 20)
#    0.000    2.600    2.000    1.400    0.000    3.200 
#    1.200    0.000    0.000    1.200    0.000    2.800 
#    0.000    0.000    0.000    0.000    0.400    0.000 
#
# Total GULP energy -335186.484947 kJ/mol
# GULP energy per Si atom -5586.441416 kJ/mol
# Density = 2.132583 g / cm^3
# Si number density = 21.374479 Si / 1000 Ang^3
#
#
#
# Elastic Constant Matrix: (Units=GPa)
#
#
# Indices 1 2 3 4 5 6 
#
# 1 236.3316 154.4603 -1.5080 0.0000 0.0000 0.0000
# 2 154.4603 236.3316 -1.5080 0.0000 0.0000 0.0000
# 3 -1.5080 -1.5080 82.5515 0.0000 0.0000 0.0000
# 4 0.0000 0.0000 0.0000 0.6408 0.0000 0.0000
# 5 0.0000 0.0000 0.0000 0.0000 0.6408 0.0000
# 6 0.0000 0.0000 0.0000 0.0000 0.0000 40.9356
#
#
#
# Elastic Compliance Matrix: (Units=1/GPa)
#
#
# Indices 1 2 3 4 5 6 
#
# 1 0.007387 -0.004828 0.000047 0.000000 0.000000 0.000000
# 2 -0.004828 0.007387 0.000047 0.000000 0.000000 0.000000
# 3 0.000047 0.000047 0.012115 0.000000 0.000000 0.000000
# 4 0.000000 0.000000 0.000000 1.560536 0.000000 0.000000
# 5 0.000000 0.000000 0.000000 0.000000 1.560536 0.000000
# 6 0.000000 0.000000 0.000000 0.000000 0.000000 0.024429
#
#
# Mechanical properties :
#
#
# Convention : Reuss Voigt Hill
#
# Bulk Modulus (GPa) = 57.40229 95.34479 76.37354
# Shear Modulus (GPa) = 1.56855 35.36146 18.46500
#
# Velocity S-wave (km/s) = 0.85757 4.07182 2.94237
# Velocity P-wave (km/s) = 5.28152 8.17373 6.88129
#
# Compressibility (1/GPa) = 0.01742091
#
# Stress axis : x y z
#
# Youngs Moduli (GPa) = 135.37686 135.37686 82.53981
#
# Poissons Ratio (x) = 0.65353 -0.00386
# Poissons Ratio (y) = 0.65353 -0.00386
# Poissons Ratio (z) = -0.00633 -0.00633
#
# Static dielectric constant tensor:
#      x y z
#    x 1.721210 0.000000 0.000000 
#    y 0.000000 1.721210 0.000000 
#    z 0.000000 0.000000 1.827760 
# 
# From -- ./inp_files/1957.got.cif
#   From: 2010.05.17/outbox.cif.g08.bks.cpg/sg177_1_cif.got.tgz:1957.got - 2010.05.20 11:28:44.
