data_PCOD9582282
_publ_section_title
;
Structure prediction by ZEFSAII (Michael W. Deem and Ramdas Pophale) SiO2 
 PCOD9582282
Probable space group: P 6 2 2
;
_chemical_formula_sum "Si O2"
_cell_formula_units_Z 60
_cell_length_a 14.091724
_cell_length_b 14.091724
_cell_length_c 17.254509
_cell_angle_alpha 90.000000
_cell_angle_beta 90.000000
_cell_angle_gamma 120.000000
_cell_volume 2967.300256
_symmetry_space_group_name_H-M "P 6 2 2"
_symmetry_group_IT_number 177
_symmetry_cell_setting 'hexagonal'
loop_
_space_group_symop_operation_xyz
x,y,z
x-y,x,z
-y,x-y,z
-x,-y,z
-x+y,-x,z
y,-x+y,z
x-y,-y,-z
-x,-x+y,-z
y,x,-z
-y,-x,-z
-x+y,y,-z
x,x-y,-z
loop_
_atom_site_type_symbol
_atom_site_label
_atom_site_fract_x
_atom_site_fract_y
_atom_site_fract_z
Si Si1 0.985552 0.382653 0.592313
Si Si2 0.395518 0.379207 0.909679
Si Si3 0.247210 0.065504 0.817660
Si Si4 0.813029 0.200731 0.322721
Si Si5 0.530073 0.230895 0.173672
O O1 0.078373 0.363244 0.631544
O O2 0.000000 0.500000 0.615960
O O3 0.000000 0.383982 0.500000
O O4 0.866543 0.288094 0.619988
O O5 0.500000 0.500000 0.897099
O O6 0.286941 0.346907 0.859872
O O7 0.441083 0.299051 0.883361
O O8 0.367506 0.367506 0.000000
O O9 0.205089 0.149247 0.836514
O O10 0.290306 0.106754 0.729946
O O11 0.795804 0.274985 0.259186
O O12 0.639403 0.221834 0.163219
#
# Coordination Sequence:
#
# PCOD9582282 Si02
#       5
#    12  12  12  12  12
#     4  11  25  43  68 105 145 188 233 289 366 434
#     4  11  25  46  69 100 144 186 231 295 369 427
#     4  12  25  46  71 102 137 186 249 300 352 421
#     4  12  21  43  72  98 139 185 234 295 348 419
#     4  10  22  40  71 102 133 175 240 288 350 433
#
# _framework density 20.220400000000001
#
# number of rings (size 3 to 8) (size 9 to 14) (size 15 to 20)
#    0.400    0.400    4.000    3.200    0.000    2.400 
#    4.800    0.000    0.000    1.200    0.000    2.800 
#    0.000    0.000    0.000    0.000    0.000    0.000 
#
# Total GULP energy -334442.873511 kJ/mol
# GULP energy per Si atom -5574.047892 kJ/mol
# Density = 2.017438 g / cm^3
# Si number density = 20.220400 Si / 1000 Ang^3
#
#
#
# Elastic Constant Matrix: (Units=GPa)
#
#
# Indices 1 2 3 4 5 6 
#
# 1 119.9298 71.5550 58.9886 0.0000 0.0000 0.0000
# 2 71.5550 119.9298 58.9886 0.0000 0.0000 0.0000
# 3 58.9886 58.9886 94.6479 0.0000 0.0000 0.0000
# 4 0.0000 0.0000 0.0000 22.1454 0.0000 0.0000
# 5 0.0000 0.0000 0.0000 0.0000 22.1454 0.0000
# 6 0.0000 0.0000 0.0000 0.0000 0.0000 24.1874
#
#
#
# Elastic Compliance Matrix: (Units=1/GPa)
#
#
# Indices 1 2 3 4 5 6 
#
# 1 0.014575 -0.006097 -0.005284 0.000000 0.000000 0.000000
# 2 -0.006097 0.014575 -0.005284 0.000000 0.000000 0.000000
# 3 -0.005284 -0.005284 0.017151 0.000000 0.000000 0.000000
# 4 0.000000 0.000000 0.000000 0.045156 0.000000 0.000000
# 5 0.000000 0.000000 0.000000 0.000000 0.045156 0.000000
# 6 0.000000 0.000000 0.000000 0.000000 0.000000 0.041344
#
#
# Mechanical properties :
#
#
# Convention : Reuss Voigt Hill
#
# Bulk Modulus (GPa) = 77.08772 79.28575 78.18673
# Shear Modulus (GPa) = 23.18999 23.36064 23.27532
#
# Velocity S-wave (km/s) = 3.39021 3.40266 3.39644
# Velocity P-wave (km/s) = 7.31650 7.39820 7.35746
#
# Compressibility (1/GPa) = 0.01297224
#
# Stress axis : x y z
#
# Youngs Moduli (GPa) = 68.61145 68.61145 58.30398
#
# Poissons Ratio (x) = 0.41833 0.30806
# Poissons Ratio (y) = 0.41833 0.30806
# Poissons Ratio (z) = 0.36252 0.36252
#
# Static dielectric constant tensor:
#      x y z
#    x 1.785500 0.000000 0.000000 
#    y 0.000000 1.785500 0.000000 
#    z 0.000000 0.000000 1.694830 
# 
# From -- ./inp_files/2442.got.cif
#   From: 2010.05.17/outbox.cif.g08.bks.cpg/sg177_2_cif.got.tgz:2442.got - 2010.05.20 11:28:44.
