data_PCOD9582109
_publ_section_title
;
Structure prediction by ZEFSAII (Michael W. Deem and Ramdas Pophale) SiO2 
 PCOD9582109
Probable space group: P 63/M
;
_chemical_formula_sum "Si O2"
_cell_formula_units_Z 60
_cell_length_a 17.532191
_cell_length_b 17.532191
_cell_length_c 13.743999
_cell_angle_alpha 90.000000
_cell_angle_beta 90.000000
_cell_angle_gamma 120.000000
_cell_volume 3658.610136
_symmetry_space_group_name_H-M "P 63/M"
_symmetry_group_IT_number 176
_symmetry_cell_setting 'hexagonal'
loop_
_space_group_symop_operation_xyz
x,y,z
x-y,x,1/2+z
-y,x-y,z
-x,-y,1/2+z
-x+y,-x,z
y,-x+y,1/2+z
-x,-y,-z
-x+y,-x,1/2-z
y,-x+y,-z
x,y,1/2-z
x-y,x,-z
-y,x-y,1/2-z
loop_
_atom_site_type_symbol
_atom_site_label
_atom_site_fract_x
_atom_site_fract_y
_atom_site_fract_z
Si Si1 0.246140 0.896268 0.366033
Si Si2 0.181758 0.169348 0.001422
Si Si3 0.063411 0.730074 0.364951
Si Si4 0.551855 0.603387 0.981326
Si Si5 0.420934 0.647838 0.865865
O O1 0.256953 0.908736 0.250000
O O2 0.210562 0.956209 0.415858
O O3 0.167475 0.795685 0.385193
O O4 0.335928 0.921221 0.422094
O O5 0.092015 0.165941 0.973045
O O6 0.219868 0.234394 0.093193
O O7 0.052739 0.717538 0.250000
O O8 0.015555 0.637481 0.419506
O O9 0.489700 0.631493 0.923328
O O10 0.500000 0.500000 0.000000
O O11 0.422650 0.740115 0.887063
O O12 0.433726 0.645189 0.750000
#
# Coordination Sequence:
#
# PCOD9582109 Si02
#       5
#    12  12  12  12  12
#     4   9  20  37  52  73 112 148 179 222 271 319
#     4   9  17  31  52  78 107 141 182 221 266 310
#     4   9  19  35  53  74 107 143 176 219 269 324
#     4  11  22  33  59  84 105 139 185 229 269 331
#     4   8  18  36  57  80 111 141 169 225 287 327
#
# _framework density 16.39967
#
# number of rings (size 3 to 8) (size 9 to 14) (size 15 to 20)
#    0.400    2.400    0.000    0.800    2.800    2.400 
#    0.000    0.000    0.000    2.400    0.000    0.000 
#    0.000    0.000    0.000    0.000    0.000    0.000 
#
# Total GULP energy -334010.816487 kJ/mol
# GULP energy per Si atom -5566.846941 kJ/mol
# Density = 1.636234 g / cm^3
# Si number density = 16.399670 Si / 1000 Ang^3
#
#
#
# Elastic Constant Matrix: (Units=GPa)
#
#
# Indices 1 2 3 4 5 6 
#
# 1 109.2818 65.8486 54.1976 0.0000 0.0000 0.0000
# 2 65.8486 109.2818 54.1976 0.0000 0.0000 0.0000
# 3 54.1976 54.1976 94.8602 0.0000 0.0000 0.0000
# 4 0.0000 0.0000 0.0000 18.4030 0.0000 0.0000
# 5 0.0000 0.0000 0.0000 0.0000 18.4030 0.0000
# 6 0.0000 0.0000 0.0000 0.0000 0.0000 21.7166
#
#
#
# Elastic Compliance Matrix: (Units=1/GPa)
#
#
# Indices 1 2 3 4 5 6 
#
# 1 0.015929 -0.007095 -0.005047 0.000000 0.000000 0.000000
# 2 -0.007095 0.015929 -0.005047 0.000000 0.000000 0.000000
# 3 -0.005047 -0.005047 0.016309 0.000000 0.000000 0.000000
# 4 0.000000 0.000000 0.000000 0.054339 0.000000 0.000000
# 5 0.000000 0.000000 0.000000 0.000000 0.054339 0.000000
# 6 0.000000 0.000000 0.000000 0.000000 0.000000 0.046048
#
#
# Mechanical properties :
#
#
# Convention : Reuss Voigt Hill
#
# Bulk Modulus (GPa) = 72.52545 73.54573 73.03559
# Shear Modulus (GPa) = 20.67248 20.98319 20.82783
#
# Velocity S-wave (km/s) = 3.55426 3.58087 3.56759
# Velocity P-wave (km/s) = 7.82071 7.87655 7.84868
#
# Compressibility (1/GPa) = 0.01378826
#
# Stress axis : x y z
#
# Youngs Moduli (GPa) = 62.77902 62.77902 61.31506
#
# Poissons Ratio (x) = 0.44541 0.30947
# Poissons Ratio (y) = 0.44541 0.30947
# Poissons Ratio (z) = 0.31686 0.31686
#
# Static dielectric constant tensor:
#      x y z
#    x 1.551410 0.000000 0.000000 
#    y 0.000000 1.551410 0.000000 
#    z 0.000000 0.000000 1.520170 
# 
# From -- ./inp_files/1866.got.cif
#   From: 2010.05.17/outbox.cif.g08.bks.cpg/sg176_1_cif.got.tgz:1866.got - 2010.06.03 11:36:45.
