data_PCOD9582870
_publ_section_title
;
Structure prediction by ZEFSAII (Michael W. Deem and Ramdas Pophale) SiO2 
 PCOD9582870
Probable space group: P 61 2 2
;
_chemical_formula_sum "Si O2"
_cell_formula_units_Z 48
_cell_length_a 17.199776
_cell_length_b 17.199776
_cell_length_c 9.070486
_cell_angle_alpha 90.000000
_cell_angle_beta 90.000000
_cell_angle_gamma 120.000000
_cell_volume 2323.842932
_symmetry_space_group_name_H-M "P 61 2 2"
_symmetry_group_IT_number 178
_symmetry_cell_setting 'hexagonal'
loop_
_space_group_symop_operation_xyz
x,y,z
x-y,x,1/6+z
-y,x-y,1/3+z
-x,-y,1/2+z
-x+y,-x,2/3+z
y,-x+y,5/6+z
x-y,-y,-z
-x,-x+y,2/3-z
y,x,1/3-z
-y,-x,5/6-z
-x+y,y,1/2-z
x,x-y,1/6-z
loop_
_atom_site_type_symbol
_atom_site_label
_atom_site_fract_x
_atom_site_fract_y
_atom_site_fract_z
Si Si1 0.792913 0.179990 0.253147
Si Si2 0.426727 0.667594 0.275102
Si Si3 0.690163 0.022520 0.664235
Si Si4 0.514944 0.596576 0.053824
O O1 0.787106 0.212895 0.416667
O O2 0.750342 0.225877 0.150998
O O3 0.896515 0.213035 0.217973
O O4 0.737298 0.073072 0.267220
O O5 0.397913 0.602088 0.416667
O O6 0.340545 0.681090 0.250000
O O7 0.450416 0.624882 0.136747
O O8 0.671043 0.069597 0.801946
O O9 0.640511 0.000000 0.500000
O O10 0.547901 0.547901 0.166667
O O11 0.465140 0.534861 0.916667
#
# Coordination Sequence:
#
# PCOD9582870 Si02
#       4
#    12  12  12  12
#     4  10  23  45  71 100 139 179 237 290 362 430
#     4  12  29  45  61  95 139 187 242 295 348 415
#     4  10  23  44  72  98 135 177 230 294 353 436
#     4  12  26  44  66  94 131 182 236 296 352 413
#
# _framework density 20.655439000000001
#
# number of rings (size 3 to 8) (size 9 to 14) (size 15 to 20)
#    0.000    1.000    2.500    2.250   14.000    1.000 
#    0.000    0.000    0.000    0.000    0.000    0.000 
#   90.000    0.000    0.000    0.000    0.000    0.000 
#
# Total GULP energy -267457.129534 kJ/mol
# GULP energy per Si atom -5572.023532 kJ/mol
# Density = 2.060843 g / cm^3
# Si number density = 20.655439 Si / 1000 Ang^3
#
#
#
# Elastic Constant Matrix: (Units=GPa)
#
#
# Indices 1 2 3 4 5 6 
#
# 1 85.3306 71.9415 56.1476 0.0000 0.0000 0.0000
# 2 71.9415 85.3306 56.1476 0.0000 0.0000 0.0000
# 3 56.1476 56.1476 141.0110 0.0000 0.0000 0.0000
# 4 0.0000 0.0000 0.0000 36.4900 0.0000 0.0000
# 5 0.0000 0.0000 0.0000 0.0000 36.4900 0.0000
# 6 0.0000 0.0000 0.0000 0.0000 0.0000 6.6945
#
#
#
# Elastic Compliance Matrix: (Units=1/GPa)
#
#
# Indices 1 2 3 4 5 6 
#
# 1 0.041786 -0.032902 -0.003538 0.000000 0.000000 0.000000
# 2 -0.032902 0.041786 -0.003538 0.000000 0.000000 0.000000
# 3 -0.003538 -0.003538 0.009909 0.000000 0.000000 0.000000
# 4 0.000000 0.000000 0.000000 0.027405 0.000000 0.000000
# 5 0.000000 0.000000 0.000000 0.000000 0.027405 0.000000
# 6 0.000000 0.000000 0.000000 0.000000 0.000000 0.149376
#
#
# Mechanical properties :
#
#
# Convention : Reuss Voigt Hill
#
# Bulk Modulus (GPa) = 73.92509 75.57174 74.74842
# Shear Modulus (GPa) = 13.08460 24.43061 18.75760
#
# Velocity S-wave (km/s) = 2.51961 3.44287 3.01677
# Velocity P-wave (km/s) = 6.65822 7.24367 6.95711
#
# Compressibility (1/GPa) = 0.01352721
#
# Stress axis : x y z
#
# Youngs Moduli (GPa) = 23.93144 23.93144 100.92052
#
# Poissons Ratio (x) = 0.78739 0.35701
# Poissons Ratio (y) = 0.78739 0.35701
# Poissons Ratio (z) = 0.08466 0.08466
#
# Static dielectric constant tensor:
#      x y z
#    x 1.686350 0.000000 0.000000 
#    y 0.000000 1.686350 0.000000 
#    z 0.000000 0.000000 1.772820 
# 
# From -- ./inp_files/2531.got.cif
#   From: 2010.05.17/outbox.cif.g08.bks.cpg/sg178_2_cif.got.tgz:2531.got - 2010.05.20 11:30:59.
