data_PCOD9582532
_publ_section_title
;
Structure prediction by ZEFSAII (Michael W. Deem and Ramdas Pophale) SiO2 
 PCOD9582532
Probable space group: P 61 2 2
;
_chemical_formula_sum "Si O2"
_cell_formula_units_Z 66
_cell_length_a 31.074953
_cell_length_b 31.074953
_cell_length_c 5.178878
_cell_angle_alpha 90.000000
_cell_angle_beta 90.000000
_cell_angle_gamma 120.000000
_cell_volume 4330.990917
_symmetry_space_group_name_H-M "P 61 2 2"
_symmetry_group_IT_number 178
_symmetry_cell_setting 'hexagonal'
loop_
_space_group_symop_operation_xyz
x,y,z
x-y,x,1/6+z
-y,x-y,1/3+z
-x,-y,1/2+z
-x+y,-x,2/3+z
y,-x+y,5/6+z
x-y,-y,-z
-x,-x+y,2/3-z
y,x,1/3-z
-y,-x,5/6-z
-x+y,y,1/2-z
x,x-y,1/6-z
loop_
_atom_site_type_symbol
_atom_site_label
_atom_site_fract_x
_atom_site_fract_y
_atom_site_fract_z
Si Si1 0.121129 0.298658 0.508860
Si Si2 0.654709 0.059807 0.988122
Si Si3 0.557128 0.496514 0.164776
Si Si4 0.060028 0.351413 0.325472
Si Si5 0.810977 0.966378 0.257269
Si Si6 0.056212 0.943789 0.416667
O O1 0.146933 0.293865 0.250000
O O2 0.092157 0.326986 0.418672
O O3 0.078642 0.244251 0.599263
O O4 0.159846 0.319691 0.750000
O O5 0.615265 0.078373 0.018829
O O6 0.695620 0.073458 0.212306
O O7 0.677657 0.070870 0.704697
O O8 0.622540 0.000000 0.000000
O O9 0.528313 0.528313 0.166667
O O10 0.537839 0.462162 0.416667
O O11 0.538049 0.461952 0.916667
O O12 0.000000 0.311976 0.333334
O O13 0.849516 0.946033 0.287356
O O14 0.816085 0.000000 0.500000
O O15 0.827099 0.000000 0.000000
O O16 0.000000 0.922032 0.333334
#
# Coordination Sequence:
#
# PCOD9582532 Si02
#       6
#    12  12  12  12  12   6
#     4  12  24  38  56  76  93 115 149 193 242 294
#     4   9  17  29  45  65  94 122 155 188 224 269
#     4   9  15  23  38  62  91 125 157 187 218 249
#     4  10  20  34  49  69  89 119 150 190 241 292
#     4  11  24  41  60  77  96 114 136 170 222 290
#     4  10  24  40  58  80  96 116 132 160 208 292
#
# _framework density 15.239007000000001
#
# number of rings (size 3 to 8) (size 9 to 14) (size 15 to 20)
#    0.000    1.818    0.909    3.818    2.545    7.273 
#    0.000    0.000    0.000    0.000    0.000    0.000 
#    0.000    0.000    0.000    0.000    0.000    0.000 
#
# Total GULP energy -368009.952620 kJ/mol
# GULP energy per Si atom -5575.908373 kJ/mol
# Density = 1.520432 g / cm^3
# Si number density = 15.239007 Si / 1000 Ang^3
#
#
#
# Elastic Constant Matrix: (Units=GPa)
#
#
# Indices 1 2 3 4 5 6 
#
# 1 67.7479 31.7270 19.6219 0.0000 0.0000 0.0000
# 2 31.7270 67.7479 19.6219 0.0000 0.0000 0.0000
# 3 19.6219 19.6219 97.2865 0.0000 0.0000 0.0000
# 4 0.0000 0.0000 0.0000 20.1396 0.0000 0.0000
# 5 0.0000 0.0000 0.0000 0.0000 20.1396 0.0000
# 6 0.0000 0.0000 0.0000 0.0000 0.0000 18.0104
#
#
#
# Elastic Compliance Matrix: (Units=1/GPa)
#
#
# Indices 1 2 3 4 5 6 
#
# 1 0.019342 -0.008420 -0.002203 0.000000 0.000000 0.000000
# 2 -0.008420 0.019342 -0.002203 0.000000 0.000000 0.000000
# 3 -0.002203 -0.002203 0.011168 0.000000 0.000000 0.000000
# 4 0.000000 0.000000 0.000000 0.049654 0.000000 0.000000
# 5 0.000000 0.000000 0.000000 0.000000 0.049654 0.000000
# 6 0.000000 0.000000 0.000000 0.000000 0.000000 0.055523
#
#
# Mechanical properties :
#
#
# Convention : Reuss Voigt Hill
#
# Bulk Modulus (GPa) = 41.32265 41.63597 41.47931
# Shear Modulus (GPa) = 20.97322 22.44534 21.70928
#
# Velocity S-wave (km/s) = 3.71386 3.84199 3.77846
# Velocity P-wave (km/s) = 6.75023 6.86021 6.80544
#
# Compressibility (1/GPa) = 0.02419980
#
# Stress axis : x y z
#
# Youngs Moduli (GPa) = 51.70161 51.70161 89.54551
#
# Poissons Ratio (x) = 0.43532 0.19725
# Poissons Ratio (y) = 0.43532 0.19725
# Poissons Ratio (z) = 0.11389 0.11389
#
# Static dielectric constant tensor:
#      x y z
#    x 1.509320 0.000000 0.000000 
#    y 0.000000 1.509320 0.000000 
#    z 0.000000 0.000000 1.553760 
# 
# From -- ./inp_files/1565.got.cif
#   From: 2010.05.17/outbox.cif.g08.bks.cpg/sg178_1_cif.got.tgz:1565.got - 2010.05.20 11:30:59.
