data_PCOD9582201
_publ_section_title
;
Structure prediction by ZEFSAII (Michael W. Deem and Ramdas Pophale) SiO2 
 PCOD9582201
Probable space group: P 6 2 2
;
_chemical_formula_sum "Si O2"
_cell_formula_units_Z 72
_cell_length_a 15.288298
_cell_length_b 15.288298
_cell_length_c 14.394426
_cell_angle_alpha 90.000000
_cell_angle_beta 90.000000
_cell_angle_gamma 120.000000
_cell_volume 2913.689453
_symmetry_space_group_name_H-M "P 6 2 2"
_symmetry_group_IT_number 177
_symmetry_cell_setting 'hexagonal'
loop_
_space_group_symop_operation_xyz
x,y,z
x-y,x,z
-y,x-y,z
-x,-y,z
-x+y,-x,z
y,-x+y,z
x-y,-y,-z
-x,-x+y,-z
y,x,-z
-y,-x,-z
-x+y,y,-z
x,x-y,-z
loop_
_atom_site_type_symbol
_atom_site_label
_atom_site_fract_x
_atom_site_fract_y
_atom_site_fract_z
Si Si1 0.918797 0.780313 0.606993
Si Si2 0.963186 0.176501 0.107362
Si Si3 0.473715 0.585562 0.133009
Si Si4 0.808989 0.558847 0.864713
Si Si5 0.199801 0.754495 0.359152
Si Si6 0.111384 0.530317 0.359495
O O1 0.843532 0.814174 0.649755
O O2 0.899035 0.798069 0.500000
O O3 0.886733 0.664291 0.612689
O O4 0.909800 0.244849 0.113343
O O5 0.070777 0.198363 0.147321
O O6 0.000000 0.185424 0.000000
O O7 0.500000 0.500000 0.104188
O O8 0.356231 0.537515 0.107004
O O9 0.543935 0.701494 0.100800
O O10 0.477570 0.587077 0.246402
O O11 0.801748 0.555733 0.752899
O O12 0.182747 0.646302 0.386352
O O13 0.306049 0.844213 0.394262
O O14 0.000000 0.500000 0.389683
#
# Coordination Sequence:
#
# PCOD9582201 Si02
#       6
#    12  12  12  12  12  12
#     4  10  21  37  55  75 104 146 193 238 286 341
#     4  10  21  37  57  79 106 143 183 224 275 336
#     4   9  17  29  48  77 109 139 171 213 266 323
#     4  10  19  33  56  84 112 143 180 226 279 332
#     4  10  19  33  54  80 110 143 182 227 276 334
#     4   9  17  29  47  74 106 136 170 216 270 322
#
# _framework density 24.710937999999999
#
# number of rings (size 3 to 8) (size 9 to 14) (size 15 to 20)
#    0.000    2.333    0.000    3.000    0.000    8.000 
#    0.000    0.833    0.000   16.500    0.000    0.000 
#    0.000    0.000    0.000    0.000    0.000    0.000 
#
# Total GULP energy -401887.347953 kJ/mol
# GULP energy per Si atom -5581.768722 kJ/mol
# Density = 2.465469 g / cm^3
# Si number density = 24.710938 Si / 1000 Ang^3
#
#
#
# Elastic Constant Matrix: (Units=GPa)
#
#
# Indices 1 2 3 4 5 6 
#
# 1 101.4611 8.2844 -12.3568 0.0000 0.0000 0.0000
# 2 8.2844 101.4611 -12.3568 0.0000 0.0000 0.0000
# 3 -12.3568 -12.3568 79.9735 0.0000 0.0000 0.0000
# 4 0.0000 0.0000 0.0000 245.3851 0.0000 0.0000
# 5 0.0000 0.0000 0.0000 0.0000 245.3851 0.0000
# 6 0.0000 0.0000 0.0000 0.0000 0.0000 46.5883
#
#
#
# Elastic Compliance Matrix: (Units=1/GPa)
#
#
# Indices 1 2 3 4 5 6 
#
# 1 0.010086 -0.000646 0.001459 0.000000 0.000000 0.000000
# 2 -0.000646 0.010086 0.001459 0.000000 0.000000 0.000000
# 3 0.001459 0.001459 0.012955 0.000000 0.000000 0.000000
# 4 0.000000 0.000000 0.000000 0.004075 0.000000 0.000000
# 5 0.000000 0.000000 0.000000 0.000000 0.004075 0.000000
# 6 0.000000 0.000000 0.000000 0.000000 0.000000 0.021465
#
#
# Mechanical properties :
#
#
# Convention : Reuss Voigt Hill
#
# Bulk Modulus (GPa) = 26.54602 27.78194 27.16398
# Shear Modulus (GPa) = 70.66463 127.42667 99.04565
#
# Velocity S-wave (km/s) = 5.35337 7.18880 6.33788
# Velocity P-wave (km/s) = 6.99838 8.95390 8.03585
#
# Compressibility (1/GPa) = 0.03767043
#
# Stress axis : x y z
#
# Youngs Moduli (GPa) = 99.14358 99.14358 77.19089
#
# Poissons Ratio (x) = 0.06404 -0.11259
# Poissons Ratio (y) = 0.06404 -0.11259
# Poissons Ratio (z) = -0.14462 -0.14462
#
# Static dielectric constant tensor:
#      x y z
#    x 1.519890 0.000000 0.000000 
#    y 0.000000 1.519890 0.000000 
#    z 0.000000 0.000000 2.150250 
# 
# From -- ./inp_files/2849.got.cif
#   From: 2010.05.17/outbox.cif.g08.bks.cpg/sg177_2_cif.got.tgz:2849.got - 2010.05.20 11:28:44.
