data_PCOD9582294
_publ_section_title
;
Structure prediction by ZEFSAII (Michael W. Deem and Ramdas Pophale) SiO2 
 PCOD9582294
Probable space group: P 6 2 2
;
_chemical_formula_sum "Si O2"
_cell_formula_units_Z 48
_cell_length_a 14.372329
_cell_length_b 14.372329
_cell_length_c 12.875355
_cell_angle_alpha 90.000000
_cell_angle_beta 90.000000
_cell_angle_gamma 120.000000
_cell_volume 2303.266252
_symmetry_space_group_name_H-M "P 6 2 2"
_symmetry_group_IT_number 177
_symmetry_cell_setting 'hexagonal'
loop_
_space_group_symop_operation_xyz
x,y,z
x-y,x,z
-y,x-y,z
-x,-y,z
-x+y,-x,z
y,-x+y,z
x-y,-y,-z
-x,-x+y,-z
y,x,-z
-y,-x,-z
-x+y,y,-z
x,x-y,-z
loop_
_atom_site_type_symbol
_atom_site_label
_atom_site_fract_x
_atom_site_fract_y
_atom_site_fract_z
Si Si1 0.620201 0.584421 0.618623
Si Si2 0.218695 0.216938 0.749322
Si Si3 0.678997 0.459982 0.752003
Si Si4 0.720034 0.628562 0.932236
O O1 0.500000 0.500000 0.656271
O O2 0.610265 0.610265 0.500000
O O3 0.683317 0.693414 0.682587
O O4 0.682999 0.520375 0.645832
O O5 0.211390 0.104849 0.726957
O O6 0.240213 0.260928 0.867497
O O7 0.571858 0.343260 0.757826
O O8 0.686503 0.535735 0.846416
O O9 0.624026 0.624026 0.000000
O O10 0.814364 0.628727 0.000000
#
# Coordination Sequence:
#
# PCOD9582294 Si02
#       4
#    12  12  12  12
#     4  10  24  45  71 102 135 178 238 293 376 441
#     4  11  24  43  70 102 144 188 240 300 365 432
#     4   9  23  44  70  98 143 180 233 300 367 431
#     4  11  22  40  69 100 138 189 239 288 354 428
#
# _framework density 20.839969
#
# number of rings (size 3 to 8) (size 9 to 14) (size 15 to 20)
#    0.500    1.250    2.500    0.250    7.000    2.000 
#    4.500    6.250    0.000    1.500    0.000    0.000 
#    0.000    0.000    0.000    0.000    0.000    0.000 
#
# Total GULP energy -267725.040127 kJ/mol
# GULP energy per Si atom -5577.605003 kJ/mol
# Density = 2.079254 g / cm^3
# Si number density = 20.839969 Si / 1000 Ang^3
#
#
#
# Elastic Constant Matrix: (Units=GPa)
#
#
# Indices 1 2 3 4 5 6 
#
# 1 108.3333 50.0672 59.5292 0.0000 0.0000 0.0000
# 2 50.0672 108.3333 59.5292 0.0000 0.0000 0.0000
# 3 59.5292 59.5292 114.5124 0.0000 0.0000 0.0000
# 4 0.0000 0.0000 0.0000 26.9719 0.0000 0.0000
# 5 0.0000 0.0000 0.0000 0.0000 26.9719 0.0000
# 6 0.0000 0.0000 0.0000 0.0000 0.0000 29.1330
#
#
#
# Elastic Compliance Matrix: (Units=1/GPa)
#
#
# Indices 1 2 3 4 5 6 
#
# 1 0.013762 -0.003400 -0.005387 0.000000 0.000000 0.000000
# 2 -0.003400 0.013762 -0.005387 0.000000 0.000000 0.000000
# 3 -0.005387 -0.005387 0.014333 0.000000 0.000000 0.000000
# 4 0.000000 0.000000 0.000000 0.037076 0.000000 0.000000
# 5 0.000000 0.000000 0.000000 0.000000 0.037076 0.000000
# 6 0.000000 0.000000 0.000000 0.000000 0.000000 0.034325
#
#
# Mechanical properties :
#
#
# Convention : Reuss Voigt Hill
#
# Bulk Modulus (GPa) = 74.01700 74.38112 74.19906
# Shear Modulus (GPa) = 27.29486 27.41894 27.35690
#
# Velocity S-wave (km/s) = 3.62295 3.63118 3.62707
# Velocity P-wave (km/s) = 7.28663 7.30409 7.29536
#
# Compressibility (1/GPa) = 0.01351041
#
# Stress axis : x y z
#
# Youngs Moduli (GPa) = 72.66259 72.66259 69.76857
#
# Poissons Ratio (x) = 0.24708 0.37581
# Poissons Ratio (y) = 0.24708 0.37581
# Poissons Ratio (z) = 0.39140 0.39140
#
# Static dielectric constant tensor:
#      x y z
#    x 1.765300 0.000000 0.000000 
#    y 0.000000 1.765300 0.000000 
#    z 0.000000 0.000000 1.771710 
# 
# From -- ./inp_files/1781.got.cif
#   From: 2010.05.17/outbox.cif.g08.bks.cpg/sg177_1_cif.got.tgz:1781.got - 2010.05.20 11:28:44.
