data_PCOD9582466
_publ_section_title
;
Structure prediction by ZEFSAII (Michael W. Deem and Ramdas Pophale) SiO2 
 PCOD9582466
Probable space group: P 61 2 2
;
_chemical_formula_sum "Si O2"
_cell_formula_units_Z 48
_cell_length_a 18.061997
_cell_length_b 18.061997
_cell_length_c 8.505124
_cell_angle_alpha 90.000000
_cell_angle_beta 90.000000
_cell_angle_gamma 120.000000
_cell_volume 2402.939370
_symmetry_space_group_name_H-M "P 61 2 2"
_symmetry_group_IT_number 178
_symmetry_cell_setting 'hexagonal'
loop_
_space_group_symop_operation_xyz
x,y,z
x-y,x,1/6+z
-y,x-y,1/3+z
-x,-y,1/2+z
-x+y,-x,2/3+z
y,-x+y,5/6+z
x-y,-y,-z
-x,-x+y,2/3-z
y,x,1/3-z
-y,-x,5/6-z
-x+y,y,1/2-z
x,x-y,1/6-z
loop_
_atom_site_type_symbol
_atom_site_label
_atom_site_fract_x
_atom_site_fract_y
_atom_site_fract_z
Si Si1 0.128255 0.172165 0.495527
Si Si2 0.591274 0.000000 0.500000
Si Si3 0.445714 0.554287 0.916667
Si Si4 0.581792 0.875258 0.085701
Si Si5 0.711385 0.054734 0.233438
O O1 0.141453 0.111785 0.370689
O O2 0.163868 0.163868 0.666667
O O3 0.189726 0.269983 0.441974
O O4 0.563796 0.049663 0.619832
O O5 0.675964 0.062171 0.400613
O O6 0.354842 0.509610 0.830661
O O7 0.605155 0.802578 0.083334
O O8 0.654519 0.954739 0.183852
O O9 0.587314 0.902197 0.904460
#
# Coordination Sequence:
#
# PCOD9582466 Si02
#       5
#    12   6   6  12  12
#     4  10  19  34  60  82 118 167 217 255 310 371
#     4  10  20  36  60  90 114 142 194 254 318 350
#     4  10  20  36  58  84 116 148 186 244 310 390
#     4  10  19  34  59  85 113 157 195 240 308 374
#     4  10  19  33  61  89 115 149 206 265 300 355
#
# _framework density 19.975535000000001
#
# number of rings (size 3 to 8) (size 9 to 14) (size 15 to 20)
#    0.000    2.000    2.500    4.500    0.000    0.000 
#    0.000   11.250   24.750    0.000    0.000    0.000 
#    0.000    0.000    0.000    0.000    0.000    0.000 
#
# Total GULP energy -267764.089405 kJ/mol
# GULP energy per Si atom -5578.418529 kJ/mol
# Density = 1.993007 g / cm^3
# Si number density = 19.975535 Si / 1000 Ang^3
#
#
#
# Elastic Constant Matrix: (Units=GPa)
#
#
# Indices 1 2 3 4 5 6 
#
# 1 3.3954 24.1918 21.9615 0.0000 0.0000 0.0000
# 2 24.1918 3.3954 21.9615 0.0000 0.0000 0.0000
# 3 21.9615 21.9615 100.8635 0.0000 0.0000 0.0000
# 4 0.0000 0.0000 0.0000 14.4236 0.0000 0.0000
# 5 0.0000 0.0000 0.0000 0.0000 14.4236 0.0000
# 6 0.0000 0.0000 0.0000 0.0000 0.0000 -10.3982
#
#
#
# Elastic Compliance Matrix: (Units=1/GPa)
#
#
# Indices 1 2 3 4 5 6 
#
# 1 0.003699 0.051784 -0.012081 0.000000 0.000000 0.000000
# 2 0.051784 0.003699 -0.012081 0.000000 0.000000 0.000000
# 3 -0.012081 -0.012081 0.015175 0.000000 0.000000 0.000000
# 4 0.000000 0.000000 0.000000 0.069331 0.000000 0.000000
# 5 0.000000 0.000000 0.000000 0.000000 0.069331 0.000000
# 6 0.000000 0.000000 0.000000 0.000000 0.000000 -0.096170
#
#
# Mechanical properties :
#
#
# Convention : Reuss Voigt Hill
#
# Bulk Modulus (GPa) = 12.85039 27.09818 19.97428
# Shear Modulus (GPa) = 139.82886 6.32575 73.07731
#
# Velocity S-wave (km/s) = 8.37568 1.78147 6.05498
# Velocity P-wave (km/s) = 9.99915 4.22216 7.67495
#
# Compressibility (1/GPa) = 0.07781867
#
# Stress axis : x y z
#
# Youngs Moduli (GPa) = 270.35611 270.35612 65.89746
#
# Poissons Ratio (x) = -14.00013 0.79608
# Poissons Ratio (y) = -14.00013 0.79608
# Poissons Ratio (z) = 3.26605 3.26605
#
# Static dielectric constant tensor:
#      x y z
#    x 1.743230 0.000000 0.000000 
#    y 0.000000 1.743230 0.000000 
#    z 0.000000 0.000000 1.767900 
# 
# From -- ./inp_files/2620.got.cif
#   From: 2010.05.17/outbox.cif.g08.bks.cpg/sg178_2_cif.got.tgz:2620.got - 2010.05.20 11:30:59.
