data_PCOD9582444
_publ_section_title
;
Structure prediction by ZEFSAII (Michael W. Deem and Ramdas Pophale) SiO2 
 PCOD9582444
Probable space group: P 61 2 2
;
_chemical_formula_sum "Si O2"
_cell_formula_units_Z 84
_cell_length_a 17.924514
_cell_length_b 17.924514
_cell_length_c 14.985822
_cell_angle_alpha 90.000000
_cell_angle_beta 90.000000
_cell_angle_gamma 120.000000
_cell_volume 4169.711235
_symmetry_space_group_name_H-M "P 61 2 2"
_symmetry_group_IT_number 178
_symmetry_cell_setting 'hexagonal'
loop_
_space_group_symop_operation_xyz
x,y,z
x-y,x,1/6+z
-y,x-y,1/3+z
-x,-y,1/2+z
-x+y,-x,2/3+z
y,-x+y,5/6+z
x-y,-y,-z
-x,-x+y,2/3-z
y,x,1/3-z
-y,-x,5/6-z
-x+y,y,1/2-z
x,x-y,1/6-z
loop_
_atom_site_type_symbol
_atom_site_label
_atom_site_fract_x
_atom_site_fract_y
_atom_site_fract_z
Si Si1 0.214112 0.928170 0.852052
Si Si2 0.479103 0.563982 0.717568
Si Si3 0.334633 0.726297 0.012968
Si Si4 0.040932 0.922899 0.059233
Si Si5 0.169704 0.723307 0.102989
Si Si6 0.427471 0.421699 0.476743
Si Si7 0.378625 0.285025 0.333690
O O1 0.160863 0.950037 0.779897
O O2 0.260818 0.879026 0.812399
O O3 0.291058 0.022412 0.881712
O O4 0.140853 0.859148 0.916667
O O5 0.545769 0.545769 0.666667
O O6 0.428178 0.600935 0.664469
O O7 0.418565 0.475803 0.768859
O O8 0.538150 0.640438 0.784382
O O9 0.371959 0.685980 0.083334
O O10 0.246728 0.712950 0.060418
O O11 0.316951 0.683050 0.916667
O O12 0.054416 0.959651 0.160522
O O13 0.116229 0.000000 0.000000
O O14 0.095119 0.641139 0.153609
O O15 0.206587 0.809771 0.162416
O O16 0.504217 0.495784 0.416667
O O17 0.381998 0.329278 0.427946
#
# Coordination Sequence:
#
# PCOD9582444 Si02
#       7
#    12  12  12  12  12  12  12
#     4  11  20  30  51  83 127 156 189 248 319 393
#     4  10  23  40  61  88 121 163 208 252 314 381
#     4  11  26  42  64  97 135 167 215 267 325 384
#     4  10  19  32  47  75 114 154 198 246 303 376
#     4  10  21  33  58  88 119 167 197 255 316 373
#     4   9  19  38  57  79 116 162 202 252 306 371
#     4   9  21  34  54  86 120 155 200 250 312 383
#
# _framework density 20.145278999999999
#
# number of rings (size 3 to 8) (size 9 to 14) (size 15 to 20)
#    0.000    2.000    1.429    1.714   12.000    2.857 
#    0.000    0.000    0.000    0.000    0.000   39.000 
#    4.286    0.000    0.000    0.000    0.000    0.000 
#
# Total GULP energy -467954.618898 kJ/mol
# GULP energy per Si atom -5570.888320 kJ/mol
# Density = 2.009943 g / cm^3
# Si number density = 20.145279 Si / 1000 Ang^3
#
#
#
# Elastic Constant Matrix: (Units=GPa)
#
#
# Indices 1 2 3 4 5 6 
#
# 1 63.3450 2.1923 14.1676 0.0000 0.0000 0.0000
# 2 2.1923 63.3450 14.1676 0.0000 0.0000 0.0000
# 3 14.1676 14.1676 36.8777 0.0000 0.0000 0.0000
# 4 0.0000 0.0000 0.0000 10.7355 0.0000 0.0000
# 5 0.0000 0.0000 0.0000 0.0000 10.7355 0.0000
# 6 0.0000 0.0000 0.0000 0.0000 0.0000 30.5763
#
#
#
# Elastic Compliance Matrix: (Units=1/GPa)
#
#
# Indices 1 2 3 4 5 6 
#
# 1 0.017325 0.000973 -0.007030 0.000000 0.000000 0.000000
# 2 0.000973 0.017325 -0.007030 0.000000 0.000000 0.000000
# 3 -0.007030 -0.007030 0.032518 0.000000 0.000000 0.000000
# 4 0.000000 0.000000 0.000000 0.093149 0.000000 0.000000
# 5 0.000000 0.000000 0.000000 0.000000 0.093149 0.000000
# 6 0.000000 0.000000 0.000000 0.000000 0.000000 0.032705
#
#
# Mechanical properties :
#
#
# Convention : Reuss Voigt Hill
#
# Bulk Modulus (GPa) = 24.39320 24.95806 24.67563
# Shear Modulus (GPa) = 15.33702 19.27883 17.30793
#
# Velocity S-wave (km/s) = 2.76220 3.09688 2.93432
# Velocity P-wave (km/s) = 4.72313 5.02031 4.87398
#
# Compressibility (1/GPa) = 0.04099503
#
# Stress axis : x y z
#
# Youngs Moduli (GPa) = 57.71965 57.71965 30.75235
#
# Poissons Ratio (x) = -0.05614 0.21618
# Poissons Ratio (y) = -0.05614 0.21618
# Poissons Ratio (z) = 0.40574 0.40574
#
# Static dielectric constant tensor:
#      x y z
#    x 1.757840 0.000000 0.000000 
#    y 0.000000 1.757840 0.000000 
#    z 0.000000 0.000000 1.761960 
# 
# From -- ./inp_files/6034.got.cif
#   From: 2010.05.17/outbox.cif.g08.bks.cpg/sg178_4_cif.got.tgz:6034.got - 2010.05.20 11:30:59.
