data_PCOD9582367
_publ_section_title
;
Structure prediction by ZEFSAII (Michael W. Deem and Ramdas Pophale) SiO2 
 PCOD9582367
Probable space group: P 61 2 2
;
_chemical_formula_sum "Si O2"
_cell_formula_units_Z 42
_cell_length_a 8.663684
_cell_length_b 8.663684
_cell_length_c 25.029094
_cell_angle_alpha 90.000000
_cell_angle_beta 90.000000
_cell_angle_gamma 120.000000
_cell_volume 1626.975331
_symmetry_space_group_name_H-M "P 61 2 2"
_symmetry_group_IT_number 178
_symmetry_cell_setting 'hexagonal'
loop_
_space_group_symop_operation_xyz
x,y,z
x-y,x,1/6+z
-y,x-y,1/3+z
-x,-y,1/2+z
-x+y,-x,2/3+z
y,-x+y,5/6+z
x-y,-y,-z
-x,-x+y,2/3-z
y,x,1/3-z
-y,-x,5/6-z
-x+y,y,1/2-z
x,x-y,1/6-z
loop_
_atom_site_type_symbol
_atom_site_label
_atom_site_fract_x
_atom_site_fract_y
_atom_site_fract_z
Si Si1 0.461944 0.257057 0.685075
Si Si2 0.289263 0.644632 0.083334
Si Si3 0.256599 0.068805 0.946672
Si Si4 0.952461 0.727475 0.451644
O O1 0.357745 0.357745 0.666667
O O2 0.617411 0.311665 0.642337
O O3 0.447769 0.275128 0.749275
O O4 0.340487 0.047861 0.669971
O O5 0.218239 0.433375 0.084455
O O6 0.109384 0.890617 0.916667
O O7 0.156900 0.175031 0.964575
O O8 0.305322 0.000000 0.000000
O O9 0.123063 0.876938 0.416667
#
# Coordination Sequence:
#
# PCOD9582367 Si02
#       4
#    12   6  12  12
#     4  10  17  34  62  94 123 178 236 285 357 450
#     4  12  24  38  70 102 146 184 240 316 384 446
#     4  11  25  45  70 102 149 195 242 318 390 465
#     4   9  17  33  62  86 121 176 234 274 352 449
#
# _framework density 25.814774
#
# number of rings (size 3 to 8) (size 9 to 14) (size 15 to 20)
#    0.000    1.714    4.286    5.143    0.000    2.286 
#    0.000    0.000    3.143    0.000    0.000    0.000 
#    0.000    0.000    0.000    0.000    0.000    0.000 
#
# Total GULP energy -233956.225955 kJ/mol
# GULP energy per Si atom -5570.386332 kJ/mol
# Density = 2.575602 g / cm^3
# Si number density = 25.814774 Si / 1000 Ang^3
#
#
#
# Elastic Constant Matrix: (Units=GPa)
#
#
# Indices 1 2 3 4 5 6 
#
# 1 56.2943 65.6656 27.3409 0.0000 0.0000 0.0000
# 2 65.6656 56.2943 27.3409 0.0000 0.0000 0.0000
# 3 27.3409 27.3409 91.0289 0.0000 0.0000 0.0000
# 4 0.0000 0.0000 0.0000 30.2809 0.0000 0.0000
# 5 0.0000 0.0000 0.0000 0.0000 30.2809 0.0000
# 6 0.0000 0.0000 0.0000 0.0000 0.0000 -4.6857
#
#
#
# Elastic Compliance Matrix: (Units=1/GPa)
#
#
# Indices 1 2 3 4 5 6 
#
# 1 -0.048616 0.058092 -0.002846 0.000000 0.000000 0.000000
# 2 0.058092 -0.048616 -0.002846 0.000000 0.000000 0.000000
# 3 -0.002846 -0.002846 0.012695 0.000000 0.000000 0.000000
# 4 0.000000 0.000000 0.000000 0.033024 0.000000 0.000000
# 5 0.000000 0.000000 0.000000 0.000000 0.033024 0.000000
# 6 0.000000 0.000000 0.000000 0.000000 0.000000 -0.213416
#
#
# Mechanical properties :
#
#
# Convention : Reuss Voigt Hill
#
# Bulk Modulus (GPa) = 49.35334 49.36805 49.36070
# Shear Modulus (GPa) = -15.15375 16.72654 0.78639
#
# Velocity S-wave (km/s) = -2.42548 2.54824 0.55253
# Velocity P-wave (km/s) = 3.36390 5.27480 4.42376
#
# Compressibility (1/GPa) = 0.02026205
#
# Stress axis : x y z
#
# Youngs Moduli (GPa) = -20.56920 -20.56920 78.77034
#
# Poissons Ratio (x) = 1.19490 0.22418
# Poissons Ratio (y) = 1.19490 0.22418
# Poissons Ratio (z) = -0.05854 -0.05854
#
# Static dielectric constant tensor:
#      x y z
#    x 2.048890 0.000000 0.000000 
#    y 0.000000 2.048890 0.000000 
#    z 0.000000 0.000000 2.232170 
# 
# From -- ./inp_files/9263.got.cif
#   From: 2010.05.17/outbox.cif.g08.bks.cpg/sg178_5_cif.got.tgz:9263.got - 2010.05.20 11:30:59.
