data_PCOD9582247
_publ_section_title
;
Structure prediction by ZEFSAII (Michael W. Deem and Ramdas Pophale) SiO2 
 PCOD9582247
Probable space group: P 6 2 2
;
_chemical_formula_sum "Si O2"
_cell_formula_units_Z 48
_cell_length_a 14.305562
_cell_length_b 14.305562
_cell_length_c 12.041034
_cell_angle_alpha 90.000000
_cell_angle_beta 90.000000
_cell_angle_gamma 120.000000
_cell_volume 2134.048387
_symmetry_space_group_name_H-M "P 6 2 2"
_symmetry_group_IT_number 177
_symmetry_cell_setting 'hexagonal'
loop_
_space_group_symop_operation_xyz
x,y,z
x-y,x,z
-y,x-y,z
-x,-y,z
-x+y,-x,z
y,-x+y,z
x-y,-y,-z
-x,-x+y,-z
y,x,-z
-y,-x,-z
-x+y,y,-z
x,x-y,-z
loop_
_atom_site_type_symbol
_atom_site_label
_atom_site_fract_x
_atom_site_fract_y
_atom_site_fract_z
Si Si1 0.465805 0.603192 0.253973
Si Si2 0.252620 0.086107 0.235013
Si Si3 0.279942 0.809578 0.882080
Si Si4 0.400147 0.053228 0.380207
O O1 0.480831 0.715669 0.212325
O O2 0.405641 0.527683 0.147314
O O3 0.393438 0.527427 0.356882
O O4 0.583021 0.625508 0.291355
O O5 0.200331 0.161667 0.230965
O O6 0.342576 0.121165 0.138570
O O7 0.324574 0.101405 0.345674
O O8 0.247405 0.752596 0.000000
O O9 0.374406 0.000000 0.500000
#
# Coordination Sequence:
#
# PCOD9582247 Si02
#       4
#    12  12  12  12
#     4  10  20  41  65  98 140 175 228 286 353 446
#     4  11  24  46  69 101 141 190 251 308 355 433
#     4  11  23  40  68 105 144 188 237 294 365 436
#     4  10  22  44  70  99 136 182 231 302 377 427
#
# _framework density 22.492460999999999
#
# number of rings (size 3 to 8) (size 9 to 14) (size 15 to 20)
#    0.000    1.500    2.500    3.000    0.000    2.000 
#    0.000    8.750    0.000    3.000    0.000    0.000 
#    0.000    0.000    0.000    0.000    0.000    0.000 
#
# Total GULP energy -267570.437397 kJ/mol
# GULP energy per Si atom -5574.384112 kJ/mol
# Density = 2.244127 g / cm^3
# Si number density = 22.492461 Si / 1000 Ang^3
#
#
#
# Elastic Constant Matrix: (Units=GPa)
#
#
# Indices 1 2 3 4 5 6 
#
# 1 133.9420 38.2836 26.5316 0.0000 0.0000 0.0000
# 2 38.2836 133.9420 26.5316 0.0000 0.0000 0.0000
# 3 26.5316 26.5316 118.4146 0.0000 0.0000 0.0000
# 4 0.0000 0.0000 0.0000 29.5355 0.0000 0.0000
# 5 0.0000 0.0000 0.0000 0.0000 29.5355 0.0000
# 6 0.0000 0.0000 0.0000 0.0000 0.0000 47.8292
#
#
#
# Elastic Compliance Matrix: (Units=1/GPa)
#
#
# Indices 1 2 3 4 5 6 
#
# 1 0.008345 -0.002108 -0.001397 0.000000 0.000000 0.000000
# 2 -0.002108 0.008345 -0.001397 0.000000 0.000000 0.000000
# 3 -0.001397 -0.001397 0.009071 0.000000 0.000000 0.000000
# 4 0.000000 0.000000 0.000000 0.033858 0.000000 0.000000
# 5 0.000000 0.000000 0.000000 0.000000 0.033858 0.000000
# 6 0.000000 0.000000 0.000000 0.000000 0.000000 0.020908
#
#
# Mechanical properties :
#
#
# Convention : Reuss Voigt Hill
#
# Bulk Modulus (GPa) = 62.67548 63.22138 62.94843
# Shear Modulus (GPa) = 38.60710 41.04348 39.82529
#
# Velocity S-wave (km/s) = 4.14750 4.27636 4.21242
# Velocity P-wave (km/s) = 7.13171 7.24927 7.19073
#
# Compressibility (1/GPa) = 0.01595520
#
# Stress axis : x y z
#
# Youngs Moduli (GPa) = 119.82686 119.82686 110.24009
#
# Poissons Ratio (x) = 0.25265 0.15405
# Poissons Ratio (y) = 0.25265 0.15405
# Poissons Ratio (z) = 0.16745 0.16745
#
# Static dielectric constant tensor:
#      x y z
#    x 1.908640 0.000000 0.000000 
#    y 0.000000 1.908640 0.000000 
#    z 0.000000 0.000000 1.839630 
# 
# From -- ./inp_files/1788.got.cif
#   From: 2010.05.17/outbox.cif.g08.bks.cpg/sg177_1_cif.got.tgz:1788.got - 2010.05.20 11:28:44.
