data_PCOD9582841
_publ_section_title
;
Structure prediction by ZEFSAII (Michael W. Deem and Ramdas Pophale) SiO2 
 PCOD9582841
Probable space group: P 61 2 2
;
_chemical_formula_sum "Si O2"
_cell_formula_units_Z 60
_cell_length_a 21.538369
_cell_length_b 21.538369
_cell_length_c 7.626452
_cell_angle_alpha 90.000000
_cell_angle_beta 90.000000
_cell_angle_gamma 120.000000
_cell_volume 3063.929719
_symmetry_space_group_name_H-M "P 61 2 2"
_symmetry_group_IT_number 178
_symmetry_cell_setting 'hexagonal'
loop_
_space_group_symop_operation_xyz
x,y,z
x-y,x,1/6+z
-y,x-y,1/3+z
-x,-y,1/2+z
-x+y,-x,2/3+z
y,-x+y,5/6+z
x-y,-y,-z
-x,-x+y,2/3-z
y,x,1/3-z
-y,-x,5/6-z
-x+y,y,1/2-z
x,x-y,1/6-z
loop_
_atom_site_type_symbol
_atom_site_label
_atom_site_fract_x
_atom_site_fract_y
_atom_site_fract_z
Si Si1 0.722267 0.000000 0.500000
Si Si2 0.441775 0.791516 0.588363
Si Si3 0.124282 0.315546 0.570695
Si Si4 0.417157 0.339569 0.587549
Si Si5 0.436148 0.872296 0.250000
Si Si6 0.874305 0.598293 0.615227
O O1 0.735177 0.946409 0.376171
O O2 0.653785 0.948461 0.621649
O O3 0.403488 0.806976 0.750000
O O4 0.414935 0.707468 0.583334
O O5 0.427612 0.821760 0.411837
O O6 0.528386 0.831226 0.600872
O O7 0.143973 0.287947 0.750000
O O8 0.107762 0.376805 0.637159
O O9 0.193482 0.352611 0.445236
O O10 0.363640 0.363640 0.666667
O O11 0.482100 0.401699 0.480923
O O12 0.438207 0.315711 0.766157
#
# Coordination Sequence:
#
# PCOD9582841 Si02
#       6
#     6  12  12  12   6  12
#     4  12  20  38  70  94 128 172 220 258 330 406
#     4  12  27  45  63  88 119 161 222 284 343 409
#     4  10  23  40  65  92 128 172 215 266 326 403
#     4  11  22  42  63  91 126 164 219 269 336 401
#     4  12  26  42  66  88 118 170 214 292 340 398
#     4  11  23  43  65  94 126 169 215 268 329 402
#
# _framework density 19.582694
#
# number of rings (size 3 to 8) (size 9 to 14) (size 15 to 20)
#    0.000    0.800    4.000    4.200    1.400    1.600 
#    1.800    0.000    0.000    0.000    0.000    0.000 
#    0.000    0.000    0.000   57.600   24.800    0.000 
#
# Total GULP energy -334854.158529 kJ/mol
# GULP energy per Si atom -5580.902642 kJ/mol
# Density = 1.953812 g / cm^3
# Si number density = 19.582694 Si / 1000 Ang^3
#
#
#
# Elastic Constant Matrix: (Units=GPa)
#
#
# Indices 1 2 3 4 5 6 
#
# 1 73.4927 38.7037 43.8214 0.0000 0.0000 0.0000
# 2 38.7037 73.4927 43.8214 0.0000 0.0000 0.0000
# 3 43.8214 43.8214 140.8758 0.0000 0.0000 0.0000
# 4 0.0000 0.0000 0.0000 36.9775 0.0000 0.0000
# 5 0.0000 0.0000 0.0000 0.0000 36.9775 0.0000
# 6 0.0000 0.0000 0.0000 0.0000 0.0000 17.3945
#
#
#
# Elastic Compliance Matrix: (Units=1/GPa)
#
#
# Indices 1 2 3 4 5 6 
#
# 1 0.020259 -0.008485 -0.003662 0.000000 0.000000 0.000000
# 2 -0.008485 0.020259 -0.003662 0.000000 0.000000 0.000000
# 3 -0.003662 -0.003662 0.009377 0.000000 0.000000 0.000000
# 4 0.000000 0.000000 0.000000 0.027043 0.000000 0.000000
# 5 0.000000 0.000000 0.000000 0.000000 0.027043 0.000000
# 6 0.000000 0.000000 0.000000 0.000000 0.000000 0.057490
#
#
# Mechanical properties :
#
#
# Convention : Reuss Voigt Hill
#
# Bulk Modulus (GPa) = 54.71965 60.06157 57.39061
# Shear Modulus (GPa) = 25.10239 29.03755 27.06997
#
# Velocity S-wave (km/s) = 3.58420 3.85491 3.72202
# Velocity P-wave (km/s) = 6.71805 7.10993 6.91677
#
# Compressibility (1/GPa) = 0.01827497
#
# Stress axis : x y z
#
# Youngs Moduli (GPa) = 49.36003 49.36003 106.64460
#
# Poissons Ratio (x) = 0.41884 0.39058
# Poissons Ratio (y) = 0.41884 0.39058
# Poissons Ratio (z) = 0.18078 0.18078
#
# Static dielectric constant tensor:
#      x y z
#    x 1.700530 0.000000 0.000000 
#    y 0.000000 1.700530 0.000000 
#    z 0.000000 0.000000 1.765900 
# 
# From -- ./inp_files/3135.got.cif
#   From: 2010.05.17/outbox.cif.g08.bks.cpg/sg178_2_cif.got.tgz:3135.got - 2010.05.20 11:30:59.
