data_PCOD9582075
_publ_section_title
;
Structure prediction by ZEFSAII (Michael W. Deem and Ramdas Pophale) SiO2 
 PCOD9582075
Probable space group: P 63/M
;
_chemical_formula_sum "Si O2"
_cell_formula_units_Z 36
_cell_length_a 8.724540
_cell_length_b 8.724540
_cell_length_c 26.787620
_cell_angle_alpha 90.000000
_cell_angle_beta 90.000000
_cell_angle_gamma 120.000000
_cell_volume 1765.833849
_symmetry_space_group_name_H-M "P 63/M"
_symmetry_group_IT_number 176
_symmetry_cell_setting 'hexagonal'
loop_
_space_group_symop_operation_xyz
x,y,z
x-y,x,1/2+z
-y,x-y,z
-x,-y,1/2+z
-x+y,-x,z
y,-x+y,1/2+z
-x,-y,-z
-x+y,-x,1/2-z
y,-x+y,-z
x,y,1/2-z
x-y,x,-z
-y,x-y,1/2-z
loop_
_atom_site_type_symbol
_atom_site_label
_atom_site_fract_x
_atom_site_fract_y
_atom_site_fract_z
Si Si1 0.569224 0.466688 0.448549
Si Si2 0.006803 0.365523 0.345740
Si Si3 0.314942 0.309783 0.192709
O O1 0.476911 0.253600 0.446544
O O2 0.500000 0.500000 0.500000
O O3 0.552376 0.565822 0.400418
O O4 0.024967 0.518082 0.308816
O O5 0.156041 0.314565 0.335734
O O6 0.820394 0.190161 0.334203
O O7 0.264355 0.251845 0.250000
#
# Coordination Sequence:
#
# PCOD9582075 Si02
#       3
#    12  12  12
#     4  10  23  43  69 102 132 178 228 288 359 414
#     4  12  25  45  67 102 141 180 235 290 349 424
#     4  12  24  42  68  98 137 183 230 282 349 420
#
# _framework density 20.386970999999999
#
# number of rings (size 3 to 8) (size 9 to 14) (size 15 to 20)
#    0.667    0.000    3.333    5.000    4.667    0.000 
#    0.000    0.000    0.000    2.667    0.000    0.000 
#    0.000    0.000    0.000    0.000    0.000    0.000 
#
# Total GULP energy -200905.363208 kJ/mol
# GULP energy per Si atom -5580.704534 kJ/mol
# Density = 2.034057 g / cm^3
# Si number density = 20.386971 Si / 1000 Ang^3
#
#
#
# Elastic Constant Matrix: (Units=GPa)
#
#
# Indices 1 2 3 4 5 6 
#
# 1 63.1162 -12.9637 29.0512 0.0000 0.0000 0.0000
# 2 -12.9637 63.1162 29.0512 0.0000 0.0000 0.0000
# 3 29.0512 29.0512 192.4098 0.0000 0.0000 0.0000
# 4 0.0000 0.0000 0.0000 31.3217 0.0000 0.0000
# 5 0.0000 0.0000 0.0000 0.0000 31.3217 0.0000
# 6 0.0000 0.0000 0.0000 0.0000 0.0000 38.0399
#
#
#
# Elastic Compliance Matrix: (Units=1/GPa)
#
#
# Indices 1 2 3 4 5 6 
#
# 1 0.018655 0.005511 -0.003649 0.000000 0.000000 0.000000
# 2 0.005511 0.018655 -0.003649 0.000000 0.000000 0.000000
# 3 -0.003649 -0.003649 0.006299 0.000000 0.000000 0.000000
# 4 0.000000 0.000000 0.000000 0.031927 0.000000 0.000000
# 5 0.000000 0.000000 0.000000 0.000000 0.031927 0.000000
# 6 0.000000 0.000000 0.000000 0.000000 0.000000 0.026288
#
#
# Mechanical properties :
#
#
# Convention : Reuss Voigt Hill
#
# Bulk Modulus (GPa) = 24.97716 45.43554 35.20635
# Shear Modulus (GPa) = 33.18519 38.37022 35.77771
#
# Velocity S-wave (km/s) = 4.03893 4.34302 4.19373
# Velocity P-wave (km/s) = 5.83342 6.89086 6.38407
#
# Compressibility (1/GPa) = 0.04003658
#
# Stress axis : x y z
#
# Youngs Moduli (GPa) = 53.60437 53.60437 158.75352
#
# Poissons Ratio (x) = -0.29542 0.57926
# Poissons Ratio (y) = -0.29542 0.57926
# Poissons Ratio (z) = 0.19559 0.19559
#
# Static dielectric constant tensor:
#      x y z
#    x 1.725190 0.000000 0.000000 
#    y 0.000000 1.725190 0.000000 
#    z 0.000000 0.000000 1.765070 
# 
# From -- ./inp_files/4171.got.cif
#   From: 2010.05.17/outbox.cif.g08.bks.cpg/sg176_3_cif.got.tgz:4171.got - 2010.06.03 11:36:45.
