data_PCOD9582848
_publ_section_title
;
Structure prediction by ZEFSAII (Michael W. Deem and Ramdas Pophale) SiO2 
 PCOD9582848
Probable space group: P 61 2 2
;
_chemical_formula_sum "Si O2"
_cell_formula_units_Z 48
_cell_length_a 14.473638
_cell_length_b 14.473638
_cell_length_c 11.438643
_cell_angle_alpha 90.000000
_cell_angle_beta 90.000000
_cell_angle_gamma 120.000000
_cell_volume 2075.202826
_symmetry_space_group_name_H-M "P 61 2 2"
_symmetry_group_IT_number 178
_symmetry_cell_setting 'hexagonal'
loop_
_space_group_symop_operation_xyz
x,y,z
x-y,x,1/6+z
-y,x-y,1/3+z
-x,-y,1/2+z
-x+y,-x,2/3+z
y,-x+y,5/6+z
x-y,-y,-z
-x,-x+y,2/3-z
y,x,1/3-z
-y,-x,5/6-z
-x+y,y,1/2-z
x,x-y,1/6-z
loop_
_atom_site_type_symbol
_atom_site_label
_atom_site_fract_x
_atom_site_fract_y
_atom_site_fract_z
Si Si1 0.484580 0.515421 0.916667
Si Si2 0.375271 0.548077 0.704233
Si Si3 0.093162 0.186324 0.250000
Si Si4 0.696143 0.000000 0.000000
Si Si5 0.659030 0.739546 0.411724
Si Si6 0.754811 0.245190 0.416667
O O1 0.458072 0.563532 0.804329
O O2 0.418587 0.387919 0.907187
O O3 0.287599 0.575197 0.750000
O O4 0.318629 0.422022 0.681418
O O5 0.437041 0.627672 0.598803
O O6 0.113760 0.113760 0.166667
O O7 0.050192 0.255567 0.181473
O O8 0.761555 0.037142 0.122327
O O9 0.577737 0.778025 0.462780
#
# Coordination Sequence:
#
# PCOD9582848 Si02
#       6
#     6  12   6   6  12   6
#     4  10  23  42  63 104 150 193 246 305 380 468
#     4  11  24  36  62  97 145 193 249 307 369 457
#     4  11  28  54  83 118 146 201 272 333 398 460
#     4  10  24  46  64 102 148 196 242 302 390 450
#     4  10  24  43  74 103 149 195 249 306 388 462
#     4  11  23  36  66  98 140 194 254 306 368 452
#
# _framework density 23.130268999999998
#
# number of rings (size 3 to 8) (size 9 to 14) (size 15 to 20)
#    0.000    1.500    0.000    3.750   15.750    2.000 
#    2.250    0.000    0.000    0.000    0.000    0.000 
#    0.000    0.000    0.000    0.000    0.000    0.000 
#
# Total GULP energy -267368.361351 kJ/mol
# GULP energy per Si atom -5570.174195 kJ/mol
# Density = 2.307762 g / cm^3
# Si number density = 23.130269 Si / 1000 Ang^3
#
#
#
# Elastic Constant Matrix: (Units=GPa)
#
#
# Indices 1 2 3 4 5 6 
#
# 1 55.5411 34.9821 37.9553 0.0000 0.0000 0.0000
# 2 34.9821 55.5411 37.9553 0.0000 0.0000 0.0000
# 3 37.9553 37.9553 138.9329 0.0000 0.0000 0.0000
# 4 0.0000 0.0000 0.0000 0.0705 0.0000 0.0000
# 5 0.0000 0.0000 0.0000 0.0000 0.0705 0.0000
# 6 0.0000 0.0000 0.0000 0.0000 0.0000 10.2795
#
#
#
# Elastic Compliance Matrix: (Units=1/GPa)
#
#
# Indices 1 2 3 4 5 6 
#
# 1 0.031485 -0.017155 -0.003915 0.000000 0.000000 0.000000
# 2 -0.017155 0.031485 -0.003915 0.000000 0.000000 0.000000
# 3 -0.003915 -0.003915 0.009337 0.000000 0.000000 0.000000
# 4 0.000000 0.000000 0.000000 14.174949 -0.000011 0.000000
# 5 0.000000 0.000000 0.000000 -0.000011 14.174962 0.000000
# 6 0.000000 0.000000 0.000000 0.000000 0.000000 0.097281
#
#
# Mechanical properties :
#
#
# Convention : Reuss Voigt Hill
#
# Bulk Modulus (GPa) = 44.76859 52.42228 48.59543
# Shear Modulus (GPa) = 0.17497 11.35894 5.76695
#
# Velocity S-wave (km/s) = 0.27533 2.21845 1.58072
# Velocity P-wave (km/s) = 4.41566 5.41065 4.93828
#
# Compressibility (1/GPa) = 0.02233709
#
# Stress axis : x y z
#
# Youngs Moduli (GPa) = 31.76103 31.76103 107.10444
#
# Poissons Ratio (x) = 0.54487 0.41929
# Poissons Ratio (y) = 0.54487 0.41929
# Poissons Ratio (z) = 0.12434 0.12434
#
# Static dielectric constant tensor:
#      x y z
#    x 1.867310 0.000000 0.000000 
#    y 0.000000 1.867310 0.000000 
#    z 0.000000 0.000000 1.948800 
# 
# From -- ./inp_files/4249.got.cif
#   From: 2010.05.17/outbox.cif.g08.bks.cpg/sg178_3_cif.got.tgz:4249.got - 2010.05.20 11:30:59.
