data_PCOD9582938
_publ_section_title
;
Structure prediction by ZEFSAII (Michael W. Deem and Ramdas Pophale) SiO2 
 PCOD9582938
Probable space group: P 61 2 2
;
_chemical_formula_sum "Si O2"
_cell_formula_units_Z 60
_cell_length_a 29.902674
_cell_length_b 29.902674
_cell_length_c 5.135715
_cell_angle_alpha 90.000000
_cell_angle_beta 90.000000
_cell_angle_gamma 120.000000
_cell_volume 3976.963445
_symmetry_space_group_name_H-M "P 61 2 2"
_symmetry_group_IT_number 178
_symmetry_cell_setting 'hexagonal'
loop_
_space_group_symop_operation_xyz
x,y,z
x-y,x,1/6+z
-y,x-y,1/3+z
-x,-y,1/2+z
-x+y,-x,2/3+z
y,-x+y,5/6+z
x-y,-y,-z
-x,-x+y,2/3-z
y,x,1/3-z
-y,-x,5/6-z
-x+y,y,1/2-z
x,x-y,1/6-z
loop_
_atom_site_type_symbol
_atom_site_label
_atom_site_fract_x
_atom_site_fract_y
_atom_site_fract_z
Si Si1 0.456871 0.256043 0.829468
Si Si2 0.668761 0.806395 0.333849
Si Si3 0.577136 0.523416 0.522490
Si Si4 0.902655 0.358326 0.661036
Si Si5 0.297921 0.963854 0.749862
O O1 0.475193 0.237597 0.583334
O O2 0.394006 0.225083 0.826181
O O3 0.472231 0.315306 0.808694
O O4 0.472595 0.236298 0.083334
O O5 0.685224 0.842612 0.583334
O O6 0.683523 0.761901 0.363862
O O7 0.686395 0.843198 0.083334
O O8 0.562738 0.562738 0.666667
O O9 0.524493 0.475508 0.416667
O O10 0.603009 0.510642 0.764102
O O11 0.614184 0.543081 0.268617
O O12 0.932075 0.328439 0.558337
O O13 0.320111 0.000000 0.500000
O O14 0.308729 0.000000 0.000000
#
# Coordination Sequence:
#
# PCOD9582938 Si02
#       5
#    12  12  12  12  12
#     4   9  17  30  47  67  87 109 138 173 219 275
#     4   9  17  29  42  57  81 111 138 167 215 266
#     4  12  23  35  47  63  89 127 167 193 216 257
#     4  11  21  33  49  66  89 120 150 187 231 269
#     4  11  20  29  44  65  85 107 145 192 225 251
#
# _framework density 15.086887000000001
#
# number of rings (size 3 to 8) (size 9 to 14) (size 15 to 20)
#    0.000    1.600    0.000    7.800    0.000    6.400 
#    0.000    0.000    0.000    0.000    0.000    0.000 
#    0.000    0.000    0.000   75.600    0.000    0.000 
#
# Total GULP energy -334559.636567 kJ/mol
# GULP energy per Si atom -5575.993943 kJ/mol
# Density = 1.505255 g / cm^3
# Si number density = 15.086887 Si / 1000 Ang^3
#
#
#
# Elastic Constant Matrix: (Units=GPa)
#
#
# Indices 1 2 3 4 5 6 
#
# 1 52.7230 29.3721 32.6658 0.0000 0.0000 0.0000
# 2 29.3721 52.7230 32.6658 0.0000 0.0000 0.0000
# 3 32.6658 32.6658 136.1172 0.0000 0.0000 0.0000
# 4 0.0000 0.0000 0.0000 18.1030 0.0000 0.0000
# 5 0.0000 0.0000 0.0000 0.0000 18.1030 0.0000
# 6 0.0000 0.0000 0.0000 0.0000 0.0000 11.6755
#
#
#
# Elastic Compliance Matrix: (Units=1/GPa)
#
#
# Indices 1 2 3 4 5 6 
#
# 1 0.028941 -0.013884 -0.003613 0.000000 0.000000 0.000000
# 2 -0.013884 0.028941 -0.003613 0.000000 0.000000 0.000000
# 3 -0.003613 -0.003613 0.009081 0.000000 0.000000 0.000000
# 4 0.000000 0.000000 0.000000 0.055240 0.000000 0.000000
# 5 0.000000 0.000000 0.000000 0.000000 0.055240 0.000000
# 6 0.000000 0.000000 0.000000 0.000000 0.000000 0.085650
#
#
# Mechanical properties :
#
#
# Convention : Reuss Voigt Hill
#
# Bulk Modulus (GPa) = 40.41935 47.88561 44.15248
# Shear Modulus (GPa) = 15.94593 19.36691 17.65642
#
# Velocity S-wave (km/s) = 3.25459 3.58675 3.42470
# Velocity P-wave (km/s) = 6.40096 6.99727 6.70575
#
# Compressibility (1/GPa) = 0.02474063
#
# Stress axis : x y z
#
# Youngs Moduli (GPa) = 34.55345 34.55345 110.12166
#
# Poissons Ratio (x) = 0.47975 0.39790
# Poissons Ratio (y) = 0.47975 0.39790
# Poissons Ratio (z) = 0.12485 0.12485
#
# Static dielectric constant tensor:
#      x y z
#    x 1.518860 0.000000 0.000000 
#    y 0.000000 1.518860 0.000000 
#    z 0.000000 0.000000 1.682840 
# 
# From -- ./inp_files/1498.got.cif
#   From: 2010.05.17/outbox.cif.g08.bks.cpg/sg178_1_cif.got.tgz:1498.got - 2010.05.20 11:30:59.
