data_PCOD9582084
_publ_section_title
;
Structure prediction by ZEFSAII (Michael W. Deem and Ramdas Pophale) SiO2 
 PCOD9582084
Probable space group: P 63/M
;
_chemical_formula_sum "Si O2"
_cell_formula_units_Z 30
_cell_length_a 11.449577
_cell_length_b 11.449577
_cell_length_c 12.601038
_cell_angle_alpha 90.000000
_cell_angle_beta 90.000000
_cell_angle_gamma 120.000000
_cell_volume 1430.592149
_symmetry_space_group_name_H-M "P 63/M"
_symmetry_group_IT_number 176
_symmetry_cell_setting 'hexagonal'
loop_
_space_group_symop_operation_xyz
x,y,z
x-y,x,1/2+z
-y,x-y,z
-x,-y,1/2+z
-x+y,-x,z
y,-x+y,1/2+z
-x,-y,-z
-x+y,-x,1/2-z
y,-x+y,-z
x,y,1/2-z
x-y,x,-z
-y,x-y,1/2-z
loop_
_atom_site_type_symbol
_atom_site_label
_atom_site_fract_x
_atom_site_fract_y
_atom_site_fract_z
Si Si1 0.172721 0.656434 0.750000
Si Si2 0.059142 0.406024 0.418310
Si Si3 0.085351 0.677599 0.372015
O O1 0.128446 0.568157 0.407752
O O2 0.078957 0.647283 0.649967
O O3 0.215760 0.540183 0.750000
O O4 0.168643 0.371105 0.376834
O O5 0.025652 0.354172 0.538520
O O6 0.045995 0.649565 0.250000
#
# Coordination Sequence:
#
# PCOD9582084 Si02
#       3
#     6  12  12
#     4  10  24  40  66 108 144 178 228 292 364 422
#     4  11  24  41  68  99 144 188 232 298 350 425
#     4  11  23  41  61  98 137 183 232 281 363 407
#
# _framework density 20.970338000000002
#
# number of rings (size 3 to 8) (size 9 to 14) (size 15 to 20)
#    0.400    0.800    4.000    0.800   11.200    0.000 
#    0.000    0.000    0.000    0.800    0.000    0.000 
#    0.000    0.000    0.000    0.000    0.000    0.000 
#
# Total GULP energy -167186.847954 kJ/mol
# GULP energy per Si atom -5572.894932 kJ/mol
# Density = 2.092261 g / cm^3
# Si number density = 20.970338 Si / 1000 Ang^3
#
#
#
# Elastic Constant Matrix: (Units=GPa)
#
#
# Indices 1 2 3 4 5 6 
#
# 1 98.2213 58.5016 54.6937 0.0000 0.0000 0.0000
# 2 58.5016 98.2213 54.6937 0.0000 0.0000 0.0000
# 3 54.6937 54.6937 179.1051 0.0000 0.0000 0.0000
# 4 0.0000 0.0000 0.0000 -13.5481 0.0000 0.0000
# 5 0.0000 0.0000 0.0000 0.0000 -13.5481 0.0000
# 6 0.0000 0.0000 0.0000 0.0000 0.0000 19.8599
#
#
#
# Elastic Compliance Matrix: (Units=1/GPa)
#
#
# Indices 1 2 3 4 5 6 
#
# 1 0.016643 -0.008534 -0.002476 0.000000 0.000000 0.000000
# 2 -0.008534 0.016643 -0.002476 0.000000 0.000000 0.000000
# 3 -0.002476 -0.002476 0.007096 0.000000 0.000000 0.000000
# 4 0.000000 0.000000 0.000000 -0.073811 0.000000 0.000000
# 5 0.000000 0.000000 0.000000 0.000000 -0.073811 0.000000
# 6 0.000000 0.000000 0.000000 0.000000 0.000000 0.050353
#
#
# Mechanical properties :
#
#
# Convention : Reuss Voigt Hill
#
# Bulk Modulus (GPa) = 74.57858 79.03619 76.80739
# Shear Modulus (GPa) = -196.49563 12.39664 -92.04950
#
# Velocity S-wave (km/s) = -9.69047 2.43400 -6.63253
# Velocity P-wave (km/s) = 9.46392 6.75799 4.68483
#
# Compressibility (1/GPa) = 0.01340867
#
# Stress axis : x y z
#
# Youngs Moduli (GPa) = 60.08631 60.08631 140.93073
#
# Poissons Ratio (x) = 0.51276 0.34898
# Poissons Ratio (y) = 0.51276 0.34898
# Poissons Ratio (z) = 0.14879 0.14879
#
# Static dielectric constant tensor:
#      x y z
#    x 1.781610 0.000000 0.000000 
#    y 0.000000 1.781610 0.000000 
#    z 0.000000 0.000000 1.803670 
# 
# From -- ./inp_files/305.got.cif
#   From: 2010.05.17/outbox.cif.g08.bks.cpg/sg176_1_cif.got.tgz:305.got - 2010.06.03 11:36:45.
