data_PCOD9582273
_publ_section_title
;
Structure prediction by ZEFSAII (Michael W. Deem and Ramdas Pophale) SiO2 
 PCOD9582273
Probable space group: P 6 2 2
;
_chemical_formula_sum "Si O2"
_cell_formula_units_Z 21
_cell_length_a 14.022204
_cell_length_b 14.022204
_cell_length_c 5.334106
_cell_angle_alpha 90.000000
_cell_angle_beta 90.000000
_cell_angle_gamma 120.000000
_cell_volume 908.290634
_symmetry_space_group_name_H-M "P 6 2 2"
_symmetry_group_IT_number 177
_symmetry_cell_setting 'hexagonal'
loop_
_space_group_symop_operation_xyz
x,y,z
x-y,x,z
-y,x-y,z
-x,-y,z
-x+y,-x,z
y,-x+y,z
x-y,-y,-z
-x,-x+y,-z
y,x,-z
-y,-x,-z
-x+y,y,-z
x,x-y,-z
loop_
_atom_site_type_symbol
_atom_site_label
_atom_site_fract_x
_atom_site_fract_y
_atom_site_fract_z
Si Si1 0.870063 0.129938 0.500000
Si Si2 0.189163 0.715372 0.245588
Si Si3 0.000000 0.500000 0.000000
O O1 0.840365 0.187057 0.274314
O O2 0.000000 0.186489 0.500000
O O3 0.260538 0.739463 0.500000
O O4 0.078440 0.601170 0.185181
O O5 0.260922 0.739079 0.000000
#
# Coordination Sequence:
#
# PCOD9582273 Si02
#       3
#     6  12   3
#     4  10  21  42  70 110 146 188 254 335 406 480
#     4  10  25  44  72 116 150 201 272 317 399 483
#     4  12  24  50  88 106 170 226 252 358 398 476
#
# _framework density 23.120353000000001
#
# number of rings (size 3 to 8) (size 9 to 14) (size 15 to 20)
#    1.714    0.000    0.000    3.714    0.000    4.571 
#    1.714    0.000    0.000    3.429    0.000    0.000 
#    0.000    0.000    0.000    0.000    0.000    0.000 
#
# Total GULP energy -117022.550538 kJ/mol
# GULP energy per Si atom -5572.502407 kJ/mol
# Density = 2.306773 g / cm^3
# Si number density = 23.120353 Si / 1000 Ang^3
#
#
#
# Elastic Constant Matrix: (Units=GPa)
#
#
# Indices 1 2 3 4 5 6 
#
# 1 179.9173 81.6434 75.0531 0.0000 0.0000 0.0000
# 2 81.6434 179.9173 75.0531 0.0000 0.0000 0.0000
# 3 75.0531 75.0531 230.7576 0.0000 0.0000 0.0000
# 4 0.0000 0.0000 0.0000 -2.5943 0.0000 0.0000
# 5 0.0000 0.0000 0.0000 0.0000 -2.5943 0.0000
# 6 0.0000 0.0000 0.0000 0.0000 0.0000 49.1369
#
#
#
# Elastic Compliance Matrix: (Units=1/GPa)
#
#
# Indices 1 2 3 4 5 6 
#
# 1 0.007438 -0.002738 -0.001529 0.000000 0.000000 0.000000
# 2 -0.002738 0.007438 -0.001529 0.000000 0.000000 0.000000
# 3 -0.001529 -0.001529 0.005328 0.000000 0.000000 0.000000
# 4 0.000000 0.000000 0.000000 -0.385455 0.000000 0.000000
# 5 0.000000 0.000000 0.000000 0.000000 -0.385455 0.000000
# 6 0.000000 0.000000 0.000000 0.000000 0.000000 0.020351
#
#
# Mechanical properties :
#
#
# Convention : Reuss Voigt Hill
#
# Bulk Modulus (GPa) = 116.09226 117.12126 116.60676
# Shear Modulus (GPa) = -6.98429 32.71248 12.86410
#
# Velocity S-wave (km/s) = -1.73994 3.76557 2.36137
# Velocity P-wave (km/s) = 6.80328 8.34705 7.61439
#
# Compressibility (1/GPa) = 0.00861384
#
# Stress axis : x y z
#
# Youngs Moduli (GPa) = 134.44260 134.44260 187.68558
#
# Poissons Ratio (x) = 0.36804 0.28694
# Poissons Ratio (y) = 0.36804 0.28694
# Poissons Ratio (z) = 0.20554 0.20554
#
# Static dielectric constant tensor:
#      x y z
#    x 1.929970 0.000000 0.000000 
#    y 0.000000 1.929970 0.000000 
#    z 0.000000 0.000000 0.470310 
# 
# From -- ./inp_files/99.got.cif
#   From: 2010.05.17/outbox.cif.g08.bks.cpg/sg177_1_cif.got.tgz:99.got - 2010.05.20 11:28:44.
