data_PCOD9582805
_publ_section_title
;
Structure prediction by ZEFSAII (Michael W. Deem and Ramdas Pophale) SiO2 
 PCOD9582805
Probable space group: P 61 2 2
;
_chemical_formula_sum "Si O2"
_cell_formula_units_Z 36
_cell_length_a 8.158581
_cell_length_b 8.158581
_cell_length_c 24.069374
_cell_angle_alpha 90.000000
_cell_angle_beta 90.000000
_cell_angle_gamma 120.000000
_cell_volume 1387.473465
_symmetry_space_group_name_H-M "P 61 2 2"
_symmetry_group_IT_number 178
_symmetry_cell_setting 'hexagonal'
loop_
_space_group_symop_operation_xyz
x,y,z
x-y,x,1/6+z
-y,x-y,1/3+z
-x,-y,1/2+z
-x+y,-x,2/3+z
y,-x+y,5/6+z
x-y,-y,-z
-x,-x+y,2/3-z
y,x,1/3-z
-y,-x,5/6-z
-x+y,y,1/2-z
x,x-y,1/6-z
loop_
_atom_site_type_symbol
_atom_site_label
_atom_site_fract_x
_atom_site_fract_y
_atom_site_fract_z
Si Si1 0.516784 0.601764 0.832770
Si Si2 0.016282 0.226592 0.644812
Si Si3 0.606936 0.749619 0.717038
O O1 0.314068 0.454748 0.857965
O O2 0.494641 0.599434 0.765609
O O3 0.652301 0.523249 0.855813
O O4 0.641159 0.826481 0.846297
O O5 0.133249 0.133249 0.666667
O O6 0.907379 0.130987 0.587934
O O7 0.670866 0.670866 0.666667
#
# Coordination Sequence:
#
# PCOD9582805 Si02
#       3
#    12  12  12
#     4  10  23  44  80 109 162 209 272 335 417 505
#     4  10  24  46  79 112 161 211 274 339 413 501
#     4  10  22  42  79 113 157 219 269 344 425 496
#
# _framework density 25.946439999999999
#
# number of rings (size 3 to 8) (size 9 to 14) (size 15 to 20)
#    2.000    0.000    0.000    3.000    4.667    0.000 
#    0.000   18.333    0.000    0.000    0.000    0.000 
#    0.000    0.000    0.000    0.000    0.000    0.000 
#
# Total GULP energy -200582.202479 kJ/mol
# GULP energy per Si atom -5571.727847 kJ/mol
# Density = 2.588738 g / cm^3
# Si number density = 25.946440 Si / 1000 Ang^3
#
#
#
# Elastic Constant Matrix: (Units=GPa)
#
#
# Indices 1 2 3 4 5 6 
#
# 1 132.2480 49.2372 30.1609 0.0000 0.0000 0.0000
# 2 49.2372 132.2480 30.1609 0.0000 0.0000 0.0000
# 3 30.1609 30.1609 105.5720 0.0000 0.0000 0.0000
# 4 0.0000 0.0000 0.0000 37.4625 0.0000 0.0000
# 5 0.0000 0.0000 0.0000 0.0000 37.4625 0.0000
# 6 0.0000 0.0000 0.0000 0.0000 0.0000 41.5054
#
#
#
# Elastic Compliance Matrix: (Units=1/GPa)
#
#
# Indices 1 2 3 4 5 6 
#
# 1 0.009067 -0.002979 -0.001739 0.000000 0.000000 0.000000
# 2 -0.002979 0.009067 -0.001739 0.000000 0.000000 0.000000
# 3 -0.001739 -0.001739 0.010466 0.000000 0.000000 0.000000
# 4 0.000000 0.000000 0.000000 0.026693 0.000000 0.000000
# 5 0.000000 0.000000 0.000000 0.000000 0.026693 0.000000
# 6 0.000000 0.000000 0.000000 0.000000 0.000000 0.024093
#
#
# Mechanical properties :
#
#
# Convention : Reuss Voigt Hill
#
# Bulk Modulus (GPa) = 63.75482 65.46511 64.60997
# Shear Modulus (GPa) = 40.24956 40.65335 40.45145
#
# Velocity S-wave (km/s) = 3.94287 3.96260 3.95275
# Velocity P-wave (km/s) = 6.73449 6.79867 6.76666
#
# Compressibility (1/GPa) = 0.01568509
#
# Stress axis : x y z
#
# Youngs Moduli (GPa) = 110.28497 110.28497 95.54716
#
# Poissons Ratio (x) = 0.32856 0.16619
# Poissons Ratio (y) = 0.32856 0.16619
# Poissons Ratio (z) = 0.19182 0.19182
#
# Static dielectric constant tensor:
#      x y z
#    x 2.097680 0.000000 0.000000 
#    y 0.000000 2.097680 0.000000 
#    z 0.000000 0.000000 2.119010 
# 
# From -- ./inp_files/9127.got.cif
#   From: 2010.05.17/outbox.cif.g08.bks.cpg/sg178_5_cif.got.tgz:9127.got - 2010.05.20 11:30:59.
