data_PCOD9582064
_publ_section_title
;
Structure prediction by ZEFSAII (Michael W. Deem and Ramdas Pophale) SiO2 
 PCOD9582064
Probable space group: P 63/M
;
_chemical_formula_sum "Si O2"
_cell_formula_units_Z 48
_cell_length_a 13.642408
_cell_length_b 13.642408
_cell_length_c 14.572433
_cell_angle_alpha 90.000000
_cell_angle_beta 90.000000
_cell_angle_gamma 120.000000
_cell_volume 2348.793121
_symmetry_space_group_name_H-M "P 63/M"
_symmetry_group_IT_number 176
_symmetry_cell_setting 'hexagonal'
loop_
_space_group_symop_operation_xyz
x,y,z
x-y,x,1/2+z
-y,x-y,z
-x,-y,1/2+z
-x+y,-x,z
y,-x+y,1/2+z
-x,-y,-z
-x+y,-x,1/2-z
y,-x+y,-z
x,y,1/2-z
x-y,x,-z
-y,x-y,1/2-z
loop_
_atom_site_type_symbol
_atom_site_label
_atom_site_fract_x
_atom_site_fract_y
_atom_site_fract_z
Si Si1 0.038437 0.632843 0.642612
Si Si2 0.405594 0.038437 0.857388
Si Si3 0.777273 0.305738 1.000000
Si Si4 0.250401 0.216480 1.000000
O O1 0.044467 0.657655 0.750000
O O2 0.158182 0.697235 0.589859
O O3 0.964692 0.675692 0.587560
O O4 1.000000 0.500000 0.632145
O O5 0.386810 0.044465 0.750000
O O6 0.460947 0.158182 0.910140
O O7 0.289001 0.964692 0.912441
O O8 0.781283 0.426336 1.000000
O O9 0.222717 0.087852 1.000000
#
# Coordination Sequence:
#
# PCOD9582064 Si02
#       4
#    12  12  12  12
#     4  10  23  40  63  92 126 166 210 262 325 387
#     4  10  23  40  63  92 126 166 210 262 325 387
#     4   9  20  34  57  89 122 157 197 250 312 383
#     4  11  25  44  67  93 129 174 225 275 322 378
#
# _framework density 20.436025999999998
#
# number of rings (size 3 to 8) (size 9 to 14) (size 15 to 20)
#    0.500    1.500    0.000    3.250   14.000    4.000 
#    0.000    0.000    0.000    3.000    0.000    0.000 
#    0.000    0.000    0.000    0.000    0.000    0.000 
#
# Total GULP energy -267914.568313 kJ/mol
# GULP energy per Si atom -5581.553507 kJ/mol
# Density = 2.038951 g / cm^3
# Si number density = 20.436026 Si / 1000 Ang^3
#
#
#
# Elastic Constant Matrix: (Units=GPa)
#
#
# Indices 1 2 3 4 5 6 
#
# 1 136.7144 39.2902 64.8788 0.0000 0.0000 0.0000
# 2 39.2902 136.7144 64.8788 0.0000 0.0000 0.0000
# 3 64.8788 64.8788 194.7650 0.0000 0.0000 0.0000
# 4 0.0000 0.0000 0.0000 -0.3540 0.0000 0.0000
# 5 0.0000 0.0000 0.0000 0.0000 -0.3540 0.0000
# 6 0.0000 0.0000 0.0000 0.0000 0.0000 48.7121
#
#
#
# Elastic Compliance Matrix: (Units=1/GPa)
#
#
# Indices 1 2 3 4 5 6 
#
# 1 0.008898 -0.001367 -0.002509 0.000000 0.000000 0.000000
# 2 -0.001367 0.008898 -0.002509 0.000000 0.000000 0.000000
# 3 -0.002509 -0.002509 0.006806 0.000000 0.000000 0.000000
# 4 0.000000 0.000000 0.000000 -2.824794 0.000000 0.000000
# 5 0.000000 0.000000 0.000000 0.000000 -2.824794 0.000000
# 6 0.000000 0.000000 0.000000 0.000000 0.000000 0.020529
#
#
# Mechanical properties :
#
#
# Convention : Reuss Voigt Hill
#
# Bulk Modulus (GPa) = 84.50775 89.58769 87.04772
# Shear Modulus (GPa) = -0.89482 29.54389 14.32454
#
# Velocity S-wave (km/s) = -0.66243 3.80633 2.65041
# Velocity P-wave (km/s) = 6.39195 7.95304 7.21484
#
# Compressibility (1/GPa) = 0.01183323
#
# Stress axis : x y z
#
# Youngs Moduli (GPa) = 112.38729 112.38729 146.93382
#
# Poissons Ratio (x) = 0.15359 0.36862
# Poissons Ratio (y) = 0.15359 0.36862
# Poissons Ratio (z) = 0.28195 0.28195
#
# Static dielectric constant tensor:
#      x y z
#    x 1.766630 0.000000 0.000000 
#    y 0.000000 1.766630 0.000000 
#    z 0.000000 0.000000 1.669940 
# 
# From -- ./inp_files/2478.got.cif
#   From: 2010.05.17/outbox.cif.g08.bks.cpg/sg176_2_cif.got.tgz:2478.got - 2010.06.03 11:36:45.
