data_PCOD9582749
_publ_section_title
;
Structure prediction by ZEFSAII (Michael W. Deem and Ramdas Pophale) SiO2 
 PCOD9582749
Probable space group: P 61 2 2
;
_chemical_formula_sum "Si O2"
_cell_formula_units_Z 54
_cell_length_a 13.392014
_cell_length_b 13.392014
_cell_length_c 14.471458
_cell_angle_alpha 90.000000
_cell_angle_beta 90.000000
_cell_angle_gamma 120.000000
_cell_volume 2247.681182
_symmetry_space_group_name_H-M "P 61 2 2"
_symmetry_group_IT_number 178
_symmetry_cell_setting 'hexagonal'
loop_
_space_group_symop_operation_xyz
x,y,z
x-y,x,1/6+z
-y,x-y,1/3+z
-x,-y,1/2+z
-x+y,-x,2/3+z
y,-x+y,5/6+z
x-y,-y,-z
-x,-x+y,2/3-z
y,x,1/3-z
-y,-x,5/6-z
-x+y,y,1/2-z
x,x-y,1/6-z
loop_
_atom_site_type_symbol
_atom_site_label
_atom_site_fract_x
_atom_site_fract_y
_atom_site_fract_z
Si Si1 0.360457 0.720914 0.250000
Si Si2 0.759070 0.668198 0.938552
Si Si3 0.835061 0.222536 0.039900
Si Si4 0.479656 0.596170 0.529838
Si Si5 0.392269 0.392269 0.666667
Si Si6 0.169311 0.830690 0.916667
O O1 0.479469 0.802121 0.197436
O O2 0.244827 0.631527 0.195051
O O3 0.711496 0.747051 0.978637
O O4 0.837102 0.721544 0.846845
O O5 0.818968 0.633237 0.017211
O O6 0.645329 0.555278 0.896436
O O7 0.887503 0.267701 0.843323
O O8 0.446697 0.477301 0.579485
O O9 0.572456 0.694932 0.599973
#
# Coordination Sequence:
#
# PCOD9582749 Si02
#       6
#     6  12  12  12   6   6
#     4   9  20  38  56  96 136 168 212 259 344 404
#     4  10  23  42  68  96 129 176 241 288 348 412
#     4  11  25  42  62  99 135 182 224 282 353 428
#     4   8  18  39  61  96 127 177 210 283 336 412
#     4  10  22  38  64  92 146 178 214 272 368 414
#     4   7  18  38  68  94 124 170 216 305 322 398
#
# _framework density 24.024759
#
# number of rings (size 3 to 8) (size 9 to 14) (size 15 to 20)
#    1.333    1.333    0.000    0.000    3.111    8.889 
#    0.000    4.444    0.000    5.333    0.000    0.000 
#    0.000    0.000    0.000    0.000    0.000    0.000 
#
# Total GULP energy -301321.666584 kJ/mol
# GULP energy per Si atom -5580.030863 kJ/mol
# Density = 2.397008 g / cm^3
# Si number density = 24.024759 Si / 1000 Ang^3
#
#
#
# Elastic Constant Matrix: (Units=GPa)
#
#
# Indices 1 2 3 4 5 6 
#
# 1 75.6205 28.0042 21.1486 0.0000 0.0000 0.0000
# 2 28.0042 75.6205 21.1486 0.0000 0.0000 0.0000
# 3 21.1486 21.1486 130.8310 0.0000 0.0000 0.0000
# 4 0.0000 0.0000 0.0000 38.4537 0.0000 0.0000
# 5 0.0000 0.0000 0.0000 0.0000 38.4537 0.0000
# 6 0.0000 0.0000 0.0000 0.0000 0.0000 23.8081
#
#
#
# Elastic Compliance Matrix: (Units=1/GPa)
#
#
# Indices 1 2 3 4 5 6 
#
# 1 0.015667 -0.005335 -0.001670 0.000000 0.000000 0.000000
# 2 -0.005335 0.015667 -0.001670 0.000000 0.000000 0.000000
# 3 -0.001670 -0.001670 0.008183 0.000000 0.000000 0.000000
# 4 0.000000 0.000000 0.000000 0.026005 0.000000 0.000000
# 5 0.000000 0.000000 0.000000 0.000000 0.026005 0.000000
# 6 0.000000 0.000000 0.000000 0.000000 0.000000 0.042002
#
#
# Mechanical properties :
#
#
# Convention : Reuss Voigt Hill
#
# Bulk Modulus (GPa) = 45.11272 46.96386 46.03829
# Shear Modulus (GPa) = 31.59192 34.26115 32.92654
#
# Velocity S-wave (km/s) = 3.63019 3.78044 3.70608
# Velocity P-wave (km/s) = 6.03236 6.21661 6.12518
#
# Compressibility (1/GPa) = 0.02216670
#
# Stress axis : x y z
#
# Youngs Moduli (GPa) = 63.83017 63.83017 122.19861
#
# Poissons Ratio (x) = 0.34051 0.20409
# Poissons Ratio (y) = 0.34051 0.20409
# Poissons Ratio (z) = 0.10661 0.10661
#
# Static dielectric constant tensor:
#      x y z
#    x 1.941410 0.000000 0.000000 
#    y 0.000000 1.941410 0.000000 
#    z 0.000000 0.000000 2.134540 
# 
# From -- ./inp_files/5611.got.cif
#   From: 2010.05.17/outbox.cif.g08.bks.cpg/sg178_3_cif.got.tgz:5611.got - 2010.05.20 11:30:59.
