data_PCOD9582686
_publ_section_title
;
Structure prediction by ZEFSAII (Michael W. Deem and Ramdas Pophale) SiO2 
 PCOD9582686
Probable space group: P 61 2 2
;
_chemical_formula_sum "Si O2"
_cell_formula_units_Z 36
_cell_length_a 9.942720
_cell_length_b 9.942720
_cell_length_c 18.519295
_cell_angle_alpha 90.000000
_cell_angle_beta 90.000000
_cell_angle_gamma 120.000000
_cell_volume 1585.497275
_symmetry_space_group_name_H-M "P 61 2 2"
_symmetry_group_IT_number 178
_symmetry_cell_setting 'hexagonal'
loop_
_space_group_symop_operation_xyz
x,y,z
x-y,x,1/6+z
-y,x-y,1/3+z
-x,-y,1/2+z
-x+y,-x,2/3+z
y,-x+y,5/6+z
x-y,-y,-z
-x,-x+y,2/3-z
y,x,1/3-z
-y,-x,5/6-z
-x+y,y,1/2-z
x,x-y,1/6-z
loop_
_atom_site_type_symbol
_atom_site_label
_atom_site_fract_x
_atom_site_fract_y
_atom_site_fract_z
Si Si1 0.919139 0.959570 0.583334
Si Si2 0.185732 0.592866 0.583334
Si Si3 0.349410 0.991295 0.870026
Si Si4 0.213792 0.565671 0.356142
O O1 0.989506 0.989506 0.666667
O O2 0.806657 0.775190 0.570844
O O3 0.297613 0.741709 0.534364
O O4 0.084737 0.444688 0.533372
O O5 0.480755 0.053598 0.932412
O O6 0.258345 0.812245 0.846998
O O7 0.345980 0.654021 0.416667
#
# Coordination Sequence:
#
# PCOD9582686 Si02
#       4
#     6   6  12  12
#     4  12  25  42  74 100 133 186 240 294 358 435
#     4  10  23  38  60  94 135 170 220 292 348 413
#     4  11  21  39  64  97 129 174 236 288 351 428
#     4  10  21  37  63  91 128 176 224 289 352 415
#
# _framework density 22.705811000000001
#
# number of rings (size 3 to 8) (size 9 to 14) (size 15 to 20)
#    0.000    1.333    5.000    1.000    0.000    0.000 
#    0.000    0.000   25.667    0.000    0.000    0.000 
#    0.000    0.000    0.000    0.000    0.000    0.000 
#
# Total GULP energy -200422.931615 kJ/mol
# GULP energy per Si atom -5567.303656 kJ/mol
# Density = 2.265413 g / cm^3
# Si number density = 22.705811 Si / 1000 Ang^3
#
#
#
# Elastic Constant Matrix: (Units=GPa)
#
#
# Indices 1 2 3 4 5 6 
#
# 1 53.8980 10.4624 36.8183 0.0000 0.0000 0.0000
# 2 10.4624 53.8980 36.8183 0.0000 0.0000 0.0000
# 3 36.8183 36.8183 197.1840 0.0000 0.0000 0.0000
# 4 0.0000 0.0000 0.0000 43.4167 0.0000 0.0000
# 5 0.0000 0.0000 0.0000 0.0000 43.4167 0.0000
# 6 0.0000 0.0000 0.0000 0.0000 0.0000 21.7178
#
#
#
# Elastic Compliance Matrix: (Units=1/GPa)
#
#
# Indices 1 2 3 4 5 6 
#
# 1 0.021391 -0.001632 -0.003689 0.000000 0.000000 0.000000
# 2 -0.001632 0.021391 -0.003689 0.000000 0.000000 0.000000
# 3 -0.003689 -0.003689 0.006449 0.000000 0.000000 0.000000
# 4 0.000000 0.000000 0.000000 0.023033 0.000000 0.000000
# 5 0.000000 0.000000 0.000000 0.000000 0.023033 0.000000
# 6 0.000000 0.000000 0.000000 0.000000 0.000000 0.046045
#
#
# Mechanical properties :
#
#
# Convention : Reuss Voigt Hill
#
# Bulk Modulus (GPa) = 32.04205 52.57536 42.30870
# Shear Modulus (GPa) = 29.45244 36.43562 32.94403
#
# Velocity S-wave (km/s) = 3.60548 4.01019 3.81321
# Velocity P-wave (km/s) = 5.61027 6.68188 6.16938
#
# Compressibility (1/GPa) = 0.03120899
#
# Stress axis : x y z
#
# Youngs Moduli (GPa) = 46.74949 46.74949 155.05904
#
# Poissons Ratio (x) = 0.07630 0.57207
# Poissons Ratio (y) = 0.07630 0.57207
# Poissons Ratio (z) = 0.17247 0.17247
#
# Static dielectric constant tensor:
#      x y z
#    x 1.885150 0.000000 0.000000 
#    y 0.000000 1.885150 0.000000 
#    z 0.000000 0.000000 1.987170 
# 
# From -- ./inp_files/6327.got.cif
#   From: 2010.05.17/outbox.cif.g08.bks.cpg/sg178_4_cif.got.tgz:6327.got - 2010.05.20 11:30:59.
