data_PCOD9582545
_publ_section_title
;
Structure prediction by ZEFSAII (Michael W. Deem and Ramdas Pophale) SiO2 
 PCOD9582545
Probable space group: P 61 2 2
;
_chemical_formula_sum "Si O2"
_cell_formula_units_Z 60
_cell_length_a 14.971134
_cell_length_b 14.971134
_cell_length_c 16.609050
_cell_angle_alpha 90.000000
_cell_angle_beta 90.000000
_cell_angle_gamma 120.000000
_cell_volume 3223.924178
_symmetry_space_group_name_H-M "P 61 2 2"
_symmetry_group_IT_number 178
_symmetry_cell_setting 'hexagonal'
loop_
_space_group_symop_operation_xyz
x,y,z
x-y,x,1/6+z
-y,x-y,1/3+z
-x,-y,1/2+z
-x+y,-x,2/3+z
y,-x+y,5/6+z
x-y,-y,-z
-x,-x+y,2/3-z
y,x,1/3-z
-y,-x,5/6-z
-x+y,y,1/2-z
x,x-y,1/6-z
loop_
_atom_site_type_symbol
_atom_site_label
_atom_site_fract_x
_atom_site_fract_y
_atom_site_fract_z
Si Si1 0.986912 0.315166 0.033820
Si Si2 0.462661 0.349480 0.157812
Si Si3 0.332599 0.842478 0.804359
Si Si4 0.705123 0.903485 0.954790
Si Si5 0.662163 0.147656 0.924358
O O1 0.912153 0.196267 0.056651
O O2 0.055140 0.393488 0.101845
O O3 0.910203 0.347855 0.992144
O O4 0.061133 0.318080 0.962626
O O5 0.361464 0.361464 0.166667
O O6 0.460929 0.248277 0.193485
O O7 0.551892 0.443965 0.206140
O O8 0.499668 0.362477 0.065026
O O9 0.410154 0.820308 0.750000
O O10 0.609998 0.877130 0.015750
O O11 0.799652 0.000000 0.000000
O O12 0.728785 0.271216 0.916667
#
# Coordination Sequence:
#
# PCOD9582545 Si02
#       5
#    12  12  12  12  12
#     4  10  20  34  59  88 114 147 192 239 294 355
#     4  11  23  39  58  79 120 159 192 240 294 354
#     4  11  24  39  57  83 115 158 202 241 289 355
#     4   9  17  32  58  89 116 138 180 244 302 343
#     4   9  17  34  60  87 112 142 184 244 297 337
#
# _framework density 18.610861
#
# number of rings (size 3 to 8) (size 9 to 14) (size 15 to 20)
#    0.000    2.000    0.000    6.600    2.800    0.000 
#    0.000    0.000    0.000    3.600    0.000    0.000 
#    0.000    0.000    0.000    0.000    0.000    0.000 
#
# Total GULP energy -334662.776044 kJ/mol
# GULP energy per Si atom -5577.712934 kJ/mol
# Density = 1.856850 g / cm^3
# Si number density = 18.610861 Si / 1000 Ang^3
#
#
#
# Elastic Constant Matrix: (Units=GPa)
#
#
# Indices 1 2 3 4 5 6 
#
# 1 81.8633 33.8583 7.1649 0.0000 0.0000 0.0000
# 2 33.8583 81.8633 7.1649 0.0000 0.0000 0.0000
# 3 7.1649 7.1649 32.2935 0.0000 0.0000 0.0000
# 4 0.0000 0.0000 0.0000 20.6016 0.0000 0.0000
# 5 0.0000 0.0000 0.0000 0.0000 20.6016 0.0000
# 6 0.0000 0.0000 0.0000 0.0000 0.0000 24.0025
#
#
#
# Elastic Compliance Matrix: (Units=1/GPa)
#
#
# Indices 1 2 3 4 5 6 
#
# 1 0.014858 -0.005973 -0.001971 0.000000 0.000000 0.000000
# 2 -0.005973 0.014858 -0.001971 0.000000 0.000000 0.000000
# 3 -0.001971 -0.001971 0.031841 0.000000 0.000000 0.000000
# 4 0.000000 0.000000 0.000000 0.048540 0.000000 0.000000
# 5 0.000000 0.000000 0.000000 0.000000 0.048540 0.000000
# 6 0.000000 0.000000 0.000000 0.000000 0.000000 0.041662
#
#
# Mechanical properties :
#
#
# Convention : Reuss Voigt Hill
#
# Bulk Modulus (GPa) = 23.96577 32.48848 28.22713
# Shear Modulus (GPa) = 21.36390 22.89660 22.13025
#
# Velocity S-wave (km/s) = 3.39178 3.51134 3.45208
# Velocity P-wave (km/s) = 5.31452 5.82529 5.57576
#
# Compressibility (1/GPa) = 0.04172618
#
# Stress axis : x y z
#
# Youngs Moduli (GPa) = 67.30214 67.30214 31.40628
#
# Poissons Ratio (x) = 0.40198 0.06192
# Poissons Ratio (y) = 0.40198 0.06192
# Poissons Ratio (z) = 0.13268 0.13268
#
# Static dielectric constant tensor:
#      x y z
#    x 1.677590 0.000000 0.000000 
#    y 0.000000 1.677590 0.000000 
#    z 0.000000 0.000000 1.657640 
# 
# From -- ./inp_files/5674.got.cif
#   From: 2010.05.17/outbox.cif.g08.bks.cpg/sg178_3_cif.got.tgz:5674.got - 2010.05.20 11:30:59.
