data_PCOD9582269
_publ_section_title
;
Structure prediction by ZEFSAII (Michael W. Deem and Ramdas Pophale) SiO2 
 PCOD9582269
Probable space group: P 6 2 2
;
_chemical_formula_sum "Si O2"
_cell_formula_units_Z 48
_cell_length_a 17.478400
_cell_length_b 17.478400
_cell_length_c 8.519534
_cell_angle_alpha 90.000000
_cell_angle_beta 90.000000
_cell_angle_gamma 120.000000
_cell_volume 2253.978766
_symmetry_space_group_name_H-M "P 6 2 2"
_symmetry_group_IT_number 177
_symmetry_cell_setting 'hexagonal'
loop_
_space_group_symop_operation_xyz
x,y,z
x-y,x,z
-y,x-y,z
-x,-y,z
-x+y,-x,z
y,-x+y,z
x-y,-y,-z
-x,-x+y,-z
y,x,-z
-y,-x,-z
-x+y,y,-z
x,x-y,-z
loop_
_atom_site_type_symbol
_atom_site_label
_atom_site_fract_x
_atom_site_fract_y
_atom_site_fract_z
Si Si1 0.102616 0.892627 0.319497
Si Si2 0.829382 0.333140 0.931840
Si Si3 0.033970 0.601061 0.680642
Si Si4 0.676464 0.743236 0.879244
O O1 0.120247 0.879754 0.500000
O O2 0.127110 0.835199 0.206795
O O3 0.997020 0.847521 0.296448
O O4 0.864569 0.346379 0.750084
O O5 0.730820 0.269181 0.000000
O O6 0.856762 0.428381 0.000000
O O7 0.881888 0.293325 0.021163
O O8 0.000000 0.500000 0.735109
O O9 0.000000 0.587066 0.500000
O O10 0.987264 0.651949 0.755659
O O11 0.749693 0.749693 0.000000
#
# Coordination Sequence:
#
# PCOD9582269 Si02
#       4
#    12  12  12  12
#     4  10  23  41  63  92 132 176 223 281 351 418
#     4  11  23  41  65  98 136 179 223 286 358 433
#     4  10  21  40  68  95 129 174 227 285 355 421
#     4  10  23  37  64  93 129 167 231 280 338 408
#
# _framework density 21.295673000000001
#
# number of rings (size 3 to 8) (size 9 to 14) (size 15 to 20)
#    0.000    1.750    2.500    0.500   10.500    1.000 
#    0.000    0.000    0.000    1.500    0.000    0.000 
#    0.000    0.000    0.000    0.000    0.000    0.000 
#
# Total GULP energy -267327.078719 kJ/mol
# GULP energy per Si atom -5569.314140 kJ/mol
# Density = 2.124720 g / cm^3
# Si number density = 21.295673 Si / 1000 Ang^3
#
#
#
# Elastic Constant Matrix: (Units=GPa)
#
#
# Indices 1 2 3 4 5 6 
#
# 1 89.4485 21.2070 58.1993 0.0000 0.0000 0.0000
# 2 21.2070 89.4485 58.1993 0.0000 0.0000 0.0000
# 3 58.1993 58.1993 128.9919 0.0000 0.0000 0.0000
# 4 0.0000 0.0000 0.0000 27.7284 0.0000 0.0000
# 5 0.0000 0.0000 0.0000 0.0000 27.7284 0.0000
# 6 0.0000 0.0000 0.0000 0.0000 0.0000 34.1207
#
#
#
# Elastic Compliance Matrix: (Units=1/GPa)
#
#
# Indices 1 2 3 4 5 6 
#
# 1 0.015927 0.001273 -0.007761 0.000000 0.000000 0.000000
# 2 0.001273 0.015927 -0.007761 0.000000 0.000000 0.000000
# 3 -0.007761 -0.007761 0.014755 0.000000 0.000000 0.000000
# 4 0.000000 0.000000 0.000000 0.036064 0.000000 0.000000
# 5 0.000000 0.000000 0.000000 0.000000 0.036064 0.000000
# 6 0.000000 0.000000 0.000000 0.000000 0.000000 0.029308
#
#
# Mechanical properties :
#
#
# Convention : Reuss Voigt Hill
#
# Bulk Modulus (GPa) = 55.20639 64.78890 59.99764
# Shear Modulus (GPa) = 27.38539 29.26773 28.32656
#
# Velocity S-wave (km/s) = 3.58992 3.71125 3.65109
# Velocity P-wave (km/s) = 6.56989 6.98956 6.78297
#
# Compressibility (1/GPa) = 0.01811385
#
# Stress axis : x y z
#
# Youngs Moduli (GPa) = 62.78603 62.78603 67.77217
#
# Poissons Ratio (x) = -0.07994 0.52595
# Poissons Ratio (y) = -0.07994 0.52595
# Poissons Ratio (z) = 0.48725 0.48725
#
# Static dielectric constant tensor:
#      x y z
#    x 1.828180 0.000000 0.000000 
#    y 0.000000 1.828180 0.000000 
#    z 0.000000 0.000000 1.821370 
# 
# From -- ./inp_files/1132.got.cif
#   From: 2010.05.17/outbox.cif.g08.bks.cpg/sg177_1_cif.got.tgz:1132.got - 2010.05.20 11:28:44.
