data_PCOD9582232
_publ_section_title
;
Structure prediction by ZEFSAII (Michael W. Deem and Ramdas Pophale) SiO2 
 PCOD9582232
Probable space group: P 6 2 2
;
_chemical_formula_sum "Si O2"
_cell_formula_units_Z 84
_cell_length_a 17.666817
_cell_length_b 17.666817
_cell_length_c 15.634183
_cell_angle_alpha 90.000000
_cell_angle_beta 90.000000
_cell_angle_gamma 120.000000
_cell_volume 4225.931409
_symmetry_space_group_name_H-M "P 6 2 2"
_symmetry_group_IT_number 177
_symmetry_cell_setting 'hexagonal'
loop_
_space_group_symop_operation_xyz
x,y,z
x-y,x,z
-y,x-y,z
-x,-y,z
-x+y,-x,z
y,-x+y,z
x-y,-y,-z
-x,-x+y,-z
y,x,-z
-y,-x,-z
-x+y,y,-z
x,x-y,-z
loop_
_atom_site_type_symbol
_atom_site_label
_atom_site_fract_x
_atom_site_fract_y
_atom_site_fract_z
Si Si1 0.649101 0.740584 0.226255
Si Si2 0.654410 0.502292 0.325344
Si Si3 0.101421 0.732322 0.477428
Si Si4 0.220177 0.342435 0.084159
Si Si5 0.505796 0.825556 0.631231
Si Si6 0.180952 0.007587 0.177327
Si Si7 0.440853 0.041521 0.149407
O O1 0.647898 0.815911 0.166863
O O2 0.591380 0.717343 0.309552
O O3 0.749659 0.768685 0.246507
O O4 0.609560 0.651323 0.174338
O O5 0.698656 0.590364 0.383028
O O6 0.563469 0.420758 0.356070
O O7 0.725702 0.470462 0.338394
O O8 0.629949 0.524028 0.232375
O O9 0.164501 0.835500 0.500000
O O10 0.148199 0.691724 0.536318
O O11 0.000000 0.692996 0.500000
O O12 0.214025 0.248555 0.098153
O O13 0.321168 0.416838 0.083080
O O14 0.171433 0.342865 0.000000
O O15 0.165579 0.087968 0.178937
O O16 0.500000 0.000000 0.124618
#
# Coordination Sequence:
#
# PCOD9582232 Si02
#       7
#    12  12  12  12  12  12  12
#     4  10  20  35  57  84 119 163 205 257 318 391
#     4  11  22  37  62  92 126 170 213 275 319 393
#     4  10  23  39  61  94 133 171 214 270 333 390
#     4  10  22  41  60  83 123 163 207 265 337 387
#     4  11  21  38  60  90 130 171 219 261 333 389
#     4   9  19  34  57  86 116 154 198 253 320 391
#     4  11  21  36  63  92 119 163 221 262 320 397
#
# _framework density 19.877275999999998
#
# number of rings (size 3 to 8) (size 9 to 14) (size 15 to 20)
#    0.000    1.714    2.857    1.714    0.000    5.714 
#    0.000    2.857    0.000    3.571    0.000    0.000 
#    0.000    0.000    0.000    0.000    0.000    0.000 
#
# Total GULP energy -467658.924762 kJ/mol
# GULP energy per Si atom -5567.368152 kJ/mol
# Density = 1.983203 g / cm^3
# Si number density = 19.877276 Si / 1000 Ang^3
#
#
#
# Elastic Constant Matrix: (Units=GPa)
#
#
# Indices 1 2 3 4 5 6 
#
# 1 108.4759 62.2191 12.4643 0.0000 0.0000 0.0000
# 2 62.2191 108.4759 12.4643 0.0000 0.0000 0.0000
# 3 12.4643 12.4643 35.5664 0.0000 0.0000 0.0000
# 4 0.0000 0.0000 0.0000 28.9032 0.0000 0.0000
# 5 0.0000 0.0000 0.0000 0.0000 28.9032 0.0000
# 6 0.0000 0.0000 0.0000 0.0000 0.0000 23.1284
#
#
#
# Elastic Compliance Matrix: (Units=1/GPa)
#
#
# Indices 1 2 3 4 5 6 
#
# 1 0.013896 -0.007722 -0.002164 0.000000 0.000000 0.000000
# 2 -0.007722 0.013896 -0.002164 0.000000 0.000000 0.000000
# 3 -0.002164 -0.002164 0.029633 0.000000 0.000000 0.000000
# 4 0.000000 0.000000 0.000000 0.034598 0.000000 0.000000
# 5 0.000000 0.000000 0.000000 0.000000 0.034598 0.000000
# 6 0.000000 0.000000 0.000000 0.000000 0.000000 0.043237
#
#
# Mechanical properties :
#
#
# Convention : Reuss Voigt Hill
#
# Bulk Modulus (GPa) = 30.00610 47.42373 38.71492
# Shear Modulus (GPa) = 24.38221 27.21165 25.79693
#
# Velocity S-wave (km/s) = 3.50614 3.70399 3.60642
# Velocity P-wave (km/s) = 5.61419 6.49637 6.07132
#
# Compressibility (1/GPa) = 0.03332656
#
# Stress axis : x y z
#
# Youngs Moduli (GPa) = 71.96096 71.96096 33.74607
#
# Poissons Ratio (x) = 0.55568 0.07302
# Poissons Ratio (y) = 0.55568 0.07302
# Poissons Ratio (z) = 0.15571 0.15571
#
# Static dielectric constant tensor:
#      x y z
#    x 1.708620 0.000000 0.000000 
#    y 0.000000 1.708620 0.000000 
#    z 0.000000 0.000000 1.753470 
# 
# From -- ./inp_files/2633.got.cif
#   From: 2010.05.17/outbox.cif.g08.bks.cpg/sg177_2_cif.got.tgz:2633.got - 2010.05.20 11:28:44.
