data_PCOD9582647
_publ_section_title
;
Structure prediction by ZEFSAII (Michael W. Deem and Ramdas Pophale) SiO2 
 PCOD9582647
Probable space group: P 61 2 2
;
_chemical_formula_sum "Si O2"
_cell_formula_units_Z 84
_cell_length_a 17.491094
_cell_length_b 17.491094
_cell_length_c 15.089145
_cell_angle_alpha 90.000000
_cell_angle_beta 90.000000
_cell_angle_gamma 120.000000
_cell_volume 3997.875001
_symmetry_space_group_name_H-M "P 61 2 2"
_symmetry_group_IT_number 178
_symmetry_cell_setting 'hexagonal'
loop_
_space_group_symop_operation_xyz
x,y,z
x-y,x,1/6+z
-y,x-y,1/3+z
-x,-y,1/2+z
-x+y,-x,2/3+z
y,-x+y,5/6+z
x-y,-y,-z
-x,-x+y,2/3-z
y,x,1/3-z
-y,-x,5/6-z
-x+y,y,1/2-z
x,x-y,1/6-z
loop_
_atom_site_type_symbol
_atom_site_label
_atom_site_fract_x
_atom_site_fract_y
_atom_site_fract_z
Si Si1 0.603621 0.918723 0.444179
Si Si2 0.581255 0.897588 0.139849
Si Si3 0.193434 0.217845 0.765399
Si Si4 0.323136 0.202189 0.869408
Si Si5 0.410020 0.380864 0.949593
Si Si6 0.182072 0.714626 0.283743
Si Si7 0.821122 0.361204 0.426570
O O1 0.643906 0.859278 0.411861
O O2 0.520296 0.874365 0.509305
O O3 0.677093 0.000000 0.500000
O O4 0.579255 0.956022 0.358703
O O5 0.684371 0.922674 0.141419
O O6 0.530201 0.802541 0.187692
O O7 0.575858 0.975739 0.191558
O O8 0.553674 0.879161 0.037562
O O9 0.231092 0.231092 0.666667
O O10 0.090336 0.180672 0.750000
O O11 0.227470 0.164315 0.824412
O O12 0.337989 0.277079 0.939760
O O13 0.391361 0.254630 0.789418
O O14 0.494067 0.376776 0.987075
O O15 0.197334 0.638684 0.245883
O O16 0.730085 0.269916 0.416667
#
# Coordination Sequence:
#
# PCOD9582647 Si02
#       7
#    12  12  12  12  12  12  12
#     4  10  22  44  67  95 131 172 236 282 324 402
#     4  10  20  42  65  98 127 172 227 275 336 408
#     4  11  20  36  65  99 135 167 213 275 336 402
#     4  11  21  39  69  94 132 176 226 273 342 414
#     4  10  22  41  69  92 125 172 229 275 325 406
#     4  11  22  42  66  95 140 174 223 284 345 408
#     4  11  24  47  64  93 137 182 222 289 346 398
#
# _framework density 21.011163
#
# number of rings (size 3 to 8) (size 9 to 14) (size 15 to 20)
#    0.000    1.429    5.714    0.000    2.000    0.571 
#   23.143    0.000    0.000    0.857    0.000    0.000 
#    0.000    0.000    0.000    0.000    0.000    0.000 
#
# Total GULP energy -468806.182766 kJ/mol
# GULP energy per Si atom -5581.025985 kJ/mol
# Density = 2.096334 g / cm^3
# Si number density = 21.011163 Si / 1000 Ang^3
#
#
#
# Elastic Constant Matrix: (Units=GPa)
#
#
# Indices 1 2 3 4 5 6 
#
# 1 65.3269 54.3204 30.5233 0.0000 0.0000 0.0000
# 2 54.3204 65.3269 30.5233 0.0000 0.0000 0.0000
# 3 30.5233 30.5233 85.8645 0.0000 0.0000 0.0000
# 4 0.0000 0.0000 0.0000 27.0805 0.0000 0.0000
# 5 0.0000 0.0000 0.0000 0.0000 27.0805 0.0000
# 6 0.0000 0.0000 0.0000 0.0000 0.0000 5.5032
#
#
#
# Elastic Compliance Matrix: (Units=1/GPa)
#
#
# Indices 1 2 3 4 5 6 
#
# 1 0.050533 -0.040323 -0.003629 0.000000 0.000000 0.000000
# 2 -0.040323 0.050533 -0.003629 0.000000 0.000000 0.000000
# 3 -0.003629 -0.003629 0.014227 0.000000 0.000000 0.000000
# 4 0.000000 0.000000 0.000000 0.036927 0.000000 0.000000
# 5 0.000000 0.000000 0.000000 0.000000 0.036927 0.000000
# 6 0.000000 0.000000 0.000000 0.000000 0.000000 0.181711
#
#
# Mechanical properties :
#
#
# Convention : Reuss Voigt Hill
#
# Bulk Modulus (GPa) = 49.68075 49.69470 49.68773
# Shear Modulus (GPa) = 10.57685 18.67625 14.62655
#
# Velocity S-wave (km/s) = 2.24607 2.98463 2.64129
# Velocity P-wave (km/s) = 5.51568 5.96492 5.74469
#
# Compressibility (1/GPa) = 0.02012852
#
# Stress axis : x y z
#
# Youngs Moduli (GPa) = 19.78916 19.78916 70.29081
#
# Poissons Ratio (x) = 0.79796 0.25511
# Poissons Ratio (y) = 0.79796 0.25511
# Poissons Ratio (z) = 0.07182 0.07182
#
# Static dielectric constant tensor:
#      x y z
#    x 1.782180 0.000000 0.000000 
#    y 0.000000 1.782180 0.000000 
#    z 0.000000 0.000000 1.804240 
# 
# From -- ./inp_files/6016.got.cif
#   From: 2010.05.17/outbox.cif.g08.bks.cpg/sg178_4_cif.got.tgz:6016.got - 2010.05.20 11:30:59.
