data_PCOD9582208
_publ_section_title
;
Structure prediction by ZEFSAII (Michael W. Deem and Ramdas Pophale) SiO2 
 PCOD9582208
Probable space group: P 6 2 2
;
_chemical_formula_sum "Si O2"
_cell_formula_units_Z 74
_cell_length_a 12.786991
_cell_length_b 12.786991
_cell_length_c 28.604479
_cell_angle_alpha 90.000000
_cell_angle_beta 90.000000
_cell_angle_gamma 120.000000
_cell_volume 4050.432440
_symmetry_space_group_name_H-M "P 6 2 2"
_symmetry_group_IT_number 177
_symmetry_cell_setting 'hexagonal'
loop_
_space_group_symop_operation_xyz
x,y,z
x-y,x,z
-y,x-y,z
-x,-y,z
-x+y,-x,z
y,-x+y,z
x-y,-y,-z
-x,-x+y,-z
y,x,-z
-y,-x,-z
-x+y,y,-z
x,x-y,-z
loop_
_atom_site_type_symbol
_atom_site_label
_atom_site_fract_x
_atom_site_fract_y
_atom_site_fract_z
Si Si1 0.918227 0.561685 0.209650
Si Si2 0.333334 0.666667 0.072191
Si Si3 0.748541 0.748541 0.500000
Si Si4 0.114588 0.683557 0.968327
Si Si5 0.763772 0.029001 0.296604
Si Si6 0.757264 0.013832 0.399715
Si Si7 0.666667 0.333334 0.814149
Si Si8 0.776353 0.043275 0.122643
O O1 0.950019 0.637884 0.257213
O O2 0.779289 0.457107 0.204319
O O3 0.946244 0.653552 0.167314
O O4 0.000000 0.500000 0.205231
O O5 0.362611 0.796736 0.051995
O O6 0.333334 0.666667 0.128684
O O7 0.880820 0.761639 0.500000
O O8 0.686527 0.695127 0.449692
O O9 0.063632 0.717937 0.923426
O O10 0.200994 0.799007 0.000000
O O11 0.000000 0.600854 0.000000
O O12 0.710831 0.024693 0.348778
O O13 0.901416 0.140297 0.292001
O O14 0.891871 0.127821 0.399908
O O15 0.914086 0.148342 0.123268
#
# Coordination Sequence:
#
# PCOD9582208 Si02
#       8
#    12   4   6  12  12  12   4  12
#     4  12  26  43  64  89 117 150 195 251 302 359
#     4  12  28  49  69  99 129 162 201 253 299 359
#     4   8  11  16  28  56  97 146 192 234 276 332
#     4  12  26  47  69 100 128 161 199 241 296 354
#     4  10  19  34  55  84 118 157 196 241 296 358
#     4   8  13  20  36  63 103 148 193 234 282 340
#     4  12  24  46  70  93 114 153 199 247 304 362
#     4  12  25  45  70  96 126 162 194 234 286 353
#
# _framework density 18.269653999999999
#
# number of rings (size 3 to 8) (size 9 to 14) (size 15 to 20)
#    0.000    1.297    3.243    3.973    0.000    3.892 
#    2.919    1.622    0.000    0.000    0.000    0.568 
#    0.000    0.000    0.000    4.216    0.000    0.486 
#
# Total GULP energy -412877.149547 kJ/mol
# GULP energy per Si atom -5579.420940 kJ/mol
# Density = 1.822807 g / cm^3
# Si number density = 18.269654 Si / 1000 Ang^3
#
#
#
# Elastic Constant Matrix: (Units=GPa)
#
#
# Indices 1 2 3 4 5 6 
#
# 1 96.4268 49.3355 62.0608 0.0003 0.0002 0.0001
# 2 49.3355 96.4270 62.0607 0.0007 -0.0002 -0.0001
# 3 62.0608 62.0607 193.2126 0.0008 0.0005 -0.0001
# 4 0.0003 0.0007 0.0008 -62.3595 -0.0013 0.0002
# 5 0.0002 -0.0002 0.0005 -0.0013 -62.3587 0.0002
# 6 0.0001 -0.0001 -0.0001 0.0002 0.0002 23.5458
#
#
#
# Elastic Compliance Matrix: (Units=1/GPa)
#
#
# Indices 1 2 3 4 5 6 
#
# 1 0.015339 -0.005896 -0.003033 0.000000 0.000000 0.000000
# 2 -0.005896 0.015339 -0.003033 0.000000 0.000000 0.000000
# 3 -0.003033 -0.003033 0.007124 0.000000 0.000000 0.000000
# 4 0.000000 0.000000 0.000000 -0.016036 0.000000 0.000000
# 5 0.000000 0.000000 0.000000 0.000000 -0.016036 0.000000
# 6 0.000000 0.000000 0.000000 0.000000 0.000000 0.042470
#
#
# Mechanical properties :
#
#
# Convention : Reuss Voigt Hill
#
# Bulk Modulus (GPa) = 72.05651 81.44225 76.74938
# Shear Modulus (GPa) = 65.14489 -6.06051 29.54219
#
# Velocity S-wave (km/s) = 5.97786 -1.82331 4.02557
# Velocity P-wave (km/s) = 9.33663 6.34366 7.98169
#
# Compressibility (1/GPa) = 0.01387800
#
# Stress axis : x y z
#
# Youngs Moduli (GPa) = 65.19177 65.19195 140.36585
#
# Poissons Ratio (x) = 0.38437 0.42577
# Poissons Ratio (y) = 0.38437 0.42576
# Poissons Ratio (z) = 0.19774 0.19774
#
# Static dielectric constant tensor:
#      x y z
#    x 1.613640 0.000000 0.000000 
#    y 0.000000 1.613640 0.000000 
#    z 0.000000 0.000000 1.686590 
# 
# From -- ./inp_files/3307.got.cif
#   From: 2010.05.17/outbox.cif.g08.bks.cpg/sg177_2_cif.got.tgz:3307.got - 2010.05.20 11:28:44.
