data_PCOD9582434
_publ_section_title
;
Structure prediction by ZEFSAII (Michael W. Deem and Ramdas Pophale) SiO2 
 PCOD9582434
Probable space group: P 61 2 2
;
_chemical_formula_sum "Si O2"
_cell_formula_units_Z 72
_cell_length_a 14.212727
_cell_length_b 14.212727
_cell_length_c 18.586049
_cell_angle_alpha 90.000000
_cell_angle_beta 90.000000
_cell_angle_gamma 120.000000
_cell_volume 3251.415994
_symmetry_space_group_name_H-M "P 61 2 2"
_symmetry_group_IT_number 178
_symmetry_cell_setting 'hexagonal'
loop_
_space_group_symop_operation_xyz
x,y,z
x-y,x,1/6+z
-y,x-y,1/3+z
-x,-y,1/2+z
-x+y,-x,2/3+z
y,-x+y,5/6+z
x-y,-y,-z
-x,-x+y,2/3-z
y,x,1/3-z
-y,-x,5/6-z
-x+y,y,1/2-z
x,x-y,1/6-z
loop_
_atom_site_type_symbol
_atom_site_label
_atom_site_fract_x
_atom_site_fract_y
_atom_site_fract_z
Si Si1 0.350563 0.032686 0.922946
Si Si2 0.359443 0.640558 0.416667
Si Si3 0.431147 0.855241 0.335599
Si Si4 0.261894 0.091831 0.448772
Si Si5 0.675087 0.006936 0.835156
Si Si6 0.992230 0.007771 0.916667
Si Si7 0.743673 0.608658 0.865182
O O1 0.451778 0.093759 0.870651
O O2 0.326407 0.128907 0.945213
O O3 0.271141 0.925043 0.877760
O O4 0.377081 0.000000 0.000000
O O5 0.370209 0.731044 0.360489
O O6 0.311814 0.523011 0.375983
O O7 0.429879 0.859757 0.250000
O O8 0.385145 0.931718 0.363539
O O9 0.300832 0.200777 0.491917
O O10 0.257301 0.000000 0.500000
O O11 0.332316 0.091527 0.382158
O O12 0.137908 0.049171 0.425297
O O13 0.635685 0.957820 0.756884
O O14 0.000000 0.968440 0.833334
#
# Coordination Sequence:
#
# PCOD9582434 Si02
#       7
#    12   6  12  12  12   6  12
#     4  11  24  46  74 103 144 190 245 297 355 427
#     4  10  26  43  72 100 146 186 239 304 360 430
#     4  11  25  46  68 107 140 183 241 296 368 441
#     4  11  22  38  64 100 140 184 223 295 356 429
#     4  12  23  41  71  97 143 183 238 285 371 429
#     4  10  18  39  60  92 138 176 227 284 354 426
#     4  11  23  46  71 105 141 196 238 301 360 426
#
# _framework density 22.144200000000001
#
# number of rings (size 3 to 8) (size 9 to 14) (size 15 to 20)
#    0.000    1.000    5.000    2.500    4.667    3.333 
#    3.000    0.833    0.000    0.000    0.000    0.000 
#    0.000    0.000    0.000    0.000    0.000    0.000 
#
# Total GULP energy -401584.419822 kJ/mol
# GULP energy per Si atom -5577.561386 kJ/mol
# Density = 2.209380 g / cm^3
# Si number density = 22.144200 Si / 1000 Ang^3
#
#
#
# Elastic Constant Matrix: (Units=GPa)
#
#
# Indices 1 2 3 4 5 6 
#
# 1 43.6141 30.2567 22.5081 0.0000 0.0000 0.0000
# 2 30.2567 43.6141 22.5081 0.0000 0.0000 0.0000
# 3 22.5081 22.5081 139.5200 0.0000 0.0000 0.0000
# 4 0.0000 0.0000 0.0000 33.9263 0.0000 0.0000
# 5 0.0000 0.0000 0.0000 0.0000 33.9263 0.0000
# 6 0.0000 0.0000 0.0000 0.0000 0.0000 6.6787
#
#
#
# Elastic Compliance Matrix: (Units=1/GPa)
#
#
# Indices 1 2 3 4 5 6 
#
# 1 0.044939 -0.029926 -0.002422 0.000000 0.000000 0.000000
# 2 -0.029926 0.044939 -0.002422 0.000000 0.000000 0.000000
# 3 -0.002422 -0.002422 0.007949 0.000000 0.000000 0.000000
# 4 0.000000 0.000000 0.000000 0.029476 0.000000 0.000000
# 5 0.000000 0.000000 0.000000 0.000000 0.029476 0.000000
# 6 0.000000 0.000000 0.000000 0.000000 0.000000 0.149731
#
#
# Mechanical properties :
#
#
# Convention : Reuss Voigt Hill
#
# Bulk Modulus (GPa) = 35.35181 41.92157 38.63669
# Shear Modulus (GPa) = 12.97089 25.00459 18.98774
#
# Velocity S-wave (km/s) = 2.42285 3.36396 2.93142
# Velocity P-wave (km/s) = 4.88118 5.83614 5.37989
#
# Compressibility (1/GPa) = 0.02828710
#
# Stress axis : x y z
#
# Youngs Moduli (GPa) = 22.25228 22.25228 125.80380
#
# Poissons Ratio (x) = 0.66592 0.30470
# Poissons Ratio (y) = 0.66592 0.30470
# Poissons Ratio (z) = 0.05389 0.05389
#
# Static dielectric constant tensor:
#      x y z
#    x 1.826190 0.000000 0.000000 
#    y 0.000000 1.826190 0.000000 
#    z 0.000000 0.000000 1.928120 
# 
# From -- ./inp_files/6844.got.cif
#   From: 2010.05.17/outbox.cif.g08.bks.cpg/sg178_4_cif.got.tgz:6844.got - 2010.05.20 11:30:59.
