data_PCOD9582320
_publ_section_title
;
Structure prediction by ZEFSAII (Michael W. Deem and Ramdas Pophale) SiO2 
 PCOD9582320
Probable space group: P 6 2 2
;
_chemical_formula_sum "Si O2"
_cell_formula_units_Z 42
_cell_length_a 19.944467
_cell_length_b 19.944467
_cell_length_c 6.116219
_cell_angle_alpha 90.000000
_cell_angle_beta 90.000000
_cell_angle_gamma 120.000000
_cell_volume 2106.970856
_symmetry_space_group_name_H-M "P 6 2 2"
_symmetry_group_IT_number 177
_symmetry_cell_setting 'hexagonal'
loop_
_space_group_symop_operation_xyz
x,y,z
x-y,x,z
-y,x-y,z
-x,-y,z
-x+y,-x,z
y,-x+y,z
x-y,-y,-z
-x,-x+y,-z
y,x,-z
-y,-x,-z
-x+y,y,-z
x,x-y,-z
loop_
_atom_site_type_symbol
_atom_site_label
_atom_site_fract_x
_atom_site_fract_y
_atom_site_fract_z
Si Si1 0.149215 0.574608 0.000000
Si Si2 0.562972 0.625702 0.342105
Si Si3 0.199992 0.713390 0.321010
Si Si4 0.298862 0.000000 0.000000
Si Si5 0.823158 0.176843 0.000000
O O1 0.098289 0.592757 0.833083
O O2 0.194654 0.542398 0.857028
O O3 0.564364 0.564364 0.500000
O O4 0.552312 0.678883 0.519009
O O5 0.642897 0.663346 0.205139
O O6 0.266022 0.733979 0.500000
O O7 0.203146 0.787214 0.199623
O O8 0.302597 0.083185 0.020183
#
# Coordination Sequence:
#
# PCOD9582320 Si02
#       5
#     6  12  12   6   6
#     4  12  26  43  68 107 143 184 242 300 357 441
#     4  12  24  41  69 103 138 187 234 298 365 426
#     4  12  24  43  70  99 143 188 238 301 361 422
#     4  12  24  43  72 111 142 184 238 300 360 441
#     4  12  24  46  70 106 145 182 244 297 355 445
#
# _framework density 19.933831000000001
#
# number of rings (size 3 to 8) (size 9 to 14) (size 15 to 20)
#    0.000    0.000    8.571    0.857    0.000    8.571 
#    0.000    0.000    0.000   48.286    0.000    0.000 
#    0.000    0.000    0.000    0.000    0.000    0.000 
#
# Total GULP energy -234291.449880 kJ/mol
# GULP energy per Si atom -5578.367854 kJ/mol
# Density = 1.988846 g / cm^3
# Si number density = 19.933831 Si / 1000 Ang^3
#
#
#
# Elastic Constant Matrix: (Units=GPa)
#
#
# Indices 1 2 3 4 5 6 
#
# 1 268.4733 -105.8565 52.2173 0.0000 0.0000 0.0000
# 2 -105.8565 268.4733 52.2173 0.0000 0.0000 0.0000
# 3 52.2173 52.2173 135.5814 0.0000 0.0000 0.0000
# 4 0.0000 0.0000 0.0000 21.6853 0.0000 0.0000
# 5 0.0000 0.0000 0.0000 0.0000 21.6853 0.0000
# 6 0.0000 0.0000 0.0000 0.0000 0.0000 187.1649
#
#
#
# Elastic Compliance Matrix: (Units=1/GPa)
#
#
# Indices 1 2 3 4 5 6 
#
# 1 0.005421 0.002749 -0.003147 0.000000 0.000000 0.000000
# 2 0.002749 0.005421 -0.003147 0.000000 0.000000 0.000000
# 3 -0.003147 -0.003147 0.009799 0.000000 0.000000 0.000000
# 4 0.000000 0.000000 0.000000 0.046114 0.000000 0.000000
# 5 0.000000 0.000000 0.000000 0.000000 0.046114 0.000000
# 6 0.000000 0.000000 0.000000 0.000000 0.000000 0.005343
#
#
# Mechanical properties :
#
#
# Convention : Reuss Voigt Hill
#
# Bulk Modulus (GPa) = 73.78283 74.40938 74.09610
# Shear Modulus (GPa) = 38.51546 91.03709 64.77627
#
# Velocity S-wave (km/s) = 4.40041 6.76526 5.70668
# Velocity P-wave (km/s) = 7.93173 9.92140 8.98183
#
# Compressibility (1/GPa) = 0.01355329
#
# Stress axis : x y z
#
# Youngs Moduli (GPa) = 184.47298 184.47298 102.04671
#
# Poissons Ratio (x) = -0.50719 0.32111
# Poissons Ratio (y) = -0.50719 0.32111
# Poissons Ratio (z) = 0.58047 0.58047
#
# Static dielectric constant tensor:
#      x y z
#    x 1.832650 0.000000 0.000000 
#    y 0.000000 1.832650 0.000000 
#    z 0.000000 0.000000 1.709910 
# 
# From -- ./inp_files/361.got.cif
#   From: 2010.05.17/outbox.cif.g08.bks.cpg/sg177_1_cif.got.tgz:361.got - 2010.05.20 11:28:44.
