data_PCOD9582986
_publ_section_title
;
Structure prediction by ZEFSAII (Michael W. Deem and Ramdas Pophale) SiO2 
 PCOD9582986
Probable space group: P 61 2 2
;
_chemical_formula_sum "Si O2"
_cell_formula_units_Z 54
_cell_length_a 13.914516
_cell_length_b 13.914516
_cell_length_c 15.248062
_cell_angle_alpha 90.000000
_cell_angle_beta 90.000000
_cell_angle_gamma 120.000000
_cell_volume 2556.710117
_symmetry_space_group_name_H-M "P 61 2 2"
_symmetry_group_IT_number 178
_symmetry_cell_setting 'hexagonal'
loop_
_space_group_symop_operation_xyz
x,y,z
x-y,x,1/6+z
-y,x-y,1/3+z
-x,-y,1/2+z
-x+y,-x,2/3+z
y,-x+y,5/6+z
x-y,-y,-z
-x,-x+y,2/3-z
y,x,1/3-z
-y,-x,5/6-z
-x+y,y,1/2-z
x,x-y,1/6-z
loop_
_atom_site_type_symbol
_atom_site_label
_atom_site_fract_x
_atom_site_fract_y
_atom_site_fract_z
Si Si1 0.073014 0.926987 0.916667
Si Si2 0.381603 0.596447 0.815237
Si Si3 0.762028 0.182934 0.170480
Si Si4 0.696294 0.706666 0.481971
Si Si5 0.971880 0.491563 0.435197
O O1 0.000000 0.923430 0.833334
O O2 0.027720 0.801769 0.950267
O O3 0.280566 0.561131 0.750000
O O4 0.481727 0.712466 0.777524
O O5 0.418780 0.504810 0.814675
O O6 0.373974 0.626027 0.916667
O O7 0.880553 0.241307 0.122063
O O8 0.759734 0.090556 0.233439
O O9 0.645665 0.123030 0.118901
O O10 0.576096 0.623661 0.524713
O O11 0.000000 0.497001 0.333334
#
# Coordination Sequence:
#
# PCOD9582986 Si02
#       5
#     6  12  12  12  12
#     4  12  24  46  74 106 138 178 246 308 362 420
#     4  11  23  40  64  96 135 182 226 278 346 424
#     4  11  23  42  65  96 137 177 228 289 355 429
#     4  11  23  41  70  98 132 180 230 299 359 420
#     4  11  23  39  62  96 135 175 225 280 351 429
#
# _framework density 21.120891
#
# number of rings (size 3 to 8) (size 9 to 14) (size 15 to 20)
#    0.000    0.889    2.222    6.667    3.111    0.000 
#    2.000    1.111    2.444    0.000    0.000    0.000 
#    0.000    0.000    0.000    0.000    0.000    0.000 
#
# Total GULP energy -301659.071434 kJ/mol
# GULP energy per Si atom -5586.279101 kJ/mol
# Density = 2.107282 g / cm^3
# Si number density = 21.120891 Si / 1000 Ang^3
#
#
#
# Elastic Constant Matrix: (Units=GPa)
#
#
# Indices 1 2 3 4 5 6 
#
# 1 114.9243 49.8296 27.4594 0.0000 0.0000 0.0000
# 2 49.8296 114.9243 27.4594 0.0000 0.0000 0.0000
# 3 27.4594 27.4594 93.8794 0.0000 0.0000 0.0000
# 4 0.0000 0.0000 0.0000 35.9326 0.0000 0.0000
# 5 0.0000 0.0000 0.0000 0.0000 35.9326 0.0000
# 6 0.0000 0.0000 0.0000 0.0000 0.0000 32.5473
#
#
#
# Elastic Compliance Matrix: (Units=1/GPa)
#
#
# Indices 1 2 3 4 5 6 
#
# 1 0.011044 -0.004318 -0.001967 0.000000 0.000000 0.000000
# 2 -0.004318 0.011044 -0.001967 0.000000 0.000000 0.000000
# 3 -0.001967 -0.001967 0.011803 0.000000 0.000000 0.000000
# 4 0.000000 0.000000 0.000000 0.027830 0.000000 0.000000
# 5 0.000000 0.000000 0.000000 0.000000 0.027830 0.000000
# 6 0.000000 0.000000 0.000000 0.000000 0.000000 0.030724
#
#
# Mechanical properties :
#
#
# Convention : Reuss Voigt Hill
#
# Bulk Modulus (GPa) = 57.52119 59.24720 58.38419
# Shear Modulus (GPa) = 35.06925 35.48114 35.27520
#
# Velocity S-wave (km/s) = 4.07923 4.10311 4.09119
# Velocity P-wave (km/s) = 7.03422 7.11054 7.07248
#
# Compressibility (1/GPa) = 0.01738490
#
# Stress axis : x y z
#
# Youngs Moduli (GPa) = 90.54843 90.54843 84.72618
#
# Poissons Ratio (x) = 0.39103 0.16667
# Poissons Ratio (y) = 0.39103 0.16667
# Poissons Ratio (z) = 0.17812 0.17812
#
# Static dielectric constant tensor:
#      x y z
#    x 1.796940 0.000000 0.000000 
#    y 0.000000 1.796940 0.000000 
#    z 0.000000 0.000000 1.792360 
# 
# From -- ./inp_files/5546.got.cif
#   From: 2010.05.17/outbox.cif.g08.bks.cpg/sg178_3_cif.got.tgz:5546.got - 2010.05.20 11:30:59.
