data_PCOD9582077
_publ_section_title
;
Structure prediction by ZEFSAII (Michael W. Deem and Ramdas Pophale) SiO2 
 PCOD9582077
Probable space group: P 63/M
;
_chemical_formula_sum "Si O2"
_cell_formula_units_Z 60
_cell_length_a 15.772490
_cell_length_b 15.772490
_cell_length_c 13.108361
_cell_angle_alpha 90.000000
_cell_angle_beta 90.000000
_cell_angle_gamma 120.000000
_cell_volume 2824.096590
_symmetry_space_group_name_H-M "P 63/M"
_symmetry_group_IT_number 176
_symmetry_cell_setting 'hexagonal'
loop_
_space_group_symop_operation_xyz
x,y,z
x-y,x,1/2+z
-y,x-y,z
-x,-y,1/2+z
-x+y,-x,z
y,-x+y,1/2+z
-x,-y,-z
-x+y,-x,1/2-z
y,-x+y,-z
x,y,1/2-z
x-y,x,-z
-y,x-y,1/2-z
loop_
_atom_site_type_symbol
_atom_site_label
_atom_site_fract_x
_atom_site_fract_y
_atom_site_fract_z
Si Si1 0.880368 0.907454 0.628402
Si Si2 0.772287 0.105352 0.047460
Si Si3 0.361638 0.494046 0.750000
Si Si4 0.409593 0.083282 0.024762
Si Si5 0.790324 0.363274 0.869848
Si Si6 0.839764 0.538991 0.250000
O O1 0.865125 0.895774 0.750000
O O2 0.976948 0.899270 0.606003
O O3 0.780830 0.834670 0.575764
O O4 0.846106 0.210723 0.999918
O O5 0.735222 0.128751 0.151737
O O6 0.674661 0.027710 0.990826
O O7 0.344415 0.437843 0.643630
O O8 0.277975 0.524467 0.750000
O O9 0.469038 0.584841 0.750000
O O10 0.503757 0.126207 0.949229
O O11 0.743386 0.433939 0.885406
O O12 0.818769 0.369855 0.750000
#
# Coordination Sequence:
#
# PCOD9582077 Si02
#       6
#    12  12   6  12  12   6
#     4   8  17  35  65  95 127 183 218 266 334 412
#     4  11  24  41  62 104 134 174 232 276 340 400
#     4  10  25  46  63  97 133 181 225 281 350 395
#     4  11  26  43  65  98 137 181 225 291 329 411
#     4   8  19  42  70  99 127 168 224 278 348 424
#     4  10  23  44  71  95 133 177 229 285 328 429
#
# _framework density 21.245732
#
# number of rings (size 3 to 8) (size 9 to 14) (size 15 to 20)
#    0.800    1.600    1.000    0.200    9.800    0.800 
#    1.800    1.000    0.000    0.000    0.000    0.000 
#    0.000    0.000    0.000    0.000    0.000    0.000 
#
# Total GULP energy -334771.255329 kJ/mol
# GULP energy per Si atom -5579.520922 kJ/mol
# Density = 2.119738 g / cm^3
# Si number density = 21.245732 Si / 1000 Ang^3
#
#
#
# Elastic Constant Matrix: (Units=GPa)
#
#
# Indices 1 2 3 4 5 6 
#
# 1 51.0729 2.9395 17.9380 0.0000 0.0000 0.0000
# 2 2.9395 51.0729 17.9380 0.0000 0.0000 0.0000
# 3 17.9380 17.9380 84.2394 0.0000 0.0000 0.0000
# 4 0.0000 0.0000 0.0000 16.9062 0.0000 0.0000
# 5 0.0000 0.0000 0.0000 0.0000 16.9062 0.0000
# 6 0.0000 0.0000 0.0000 0.0000 0.0000 24.0667
#
#
#
# Elastic Compliance Matrix: (Units=1/GPa)
#
#
# Indices 1 2 3 4 5 6 
#
# 1 0.021170 0.000394 -0.004592 0.000000 0.000000 0.000000
# 2 0.000394 0.021170 -0.004592 0.000000 0.000000 0.000000
# 3 -0.004592 -0.004592 0.013827 0.000000 0.000000 0.000000
# 4 0.000000 0.000000 0.000000 0.059150 0.000000 0.000000
# 5 0.000000 0.000000 0.000000 0.000000 0.059150 0.000000
# 6 0.000000 0.000000 0.000000 0.000000 0.000000 0.041551
#
#
# Mechanical properties :
#
#
# Convention : Reuss Voigt Hill
#
# Bulk Modulus (GPa) = 25.91514 29.33512 27.62513
# Shear Modulus (GPa) = 20.28736 21.41380 20.85058
#
# Velocity S-wave (km/s) = 3.09348 3.17821 3.13613
# Velocity P-wave (km/s) = 4.99838 5.22547 5.11318
#
# Compressibility (1/GPa) = 0.03858748
#
# Stress axis : x y z
#
# Youngs Moduli (GPa) = 47.23680 47.23680 72.32475
#
# Poissons Ratio (x) = -0.01863 0.33211
# Poissons Ratio (y) = -0.01863 0.33211
# Poissons Ratio (z) = 0.21691 0.21691
#
# Static dielectric constant tensor:
#      x y z
#    x 1.777450 0.000000 0.000000 
#    y 0.000000 1.777450 0.000000 
#    z 0.000000 0.000000 1.869520 
# 
# From -- ./inp_files/1912.got.cif
#   From: 2010.05.17/outbox.cif.g08.bks.cpg/sg176_1_cif.got.tgz:1912.got - 2010.06.03 11:36:45.
