data_PCOD9582568
_publ_section_title
;
Structure prediction by ZEFSAII (Michael W. Deem and Ramdas Pophale) SiO2 
 PCOD9582568
Probable space group: P 61 2 2
;
_chemical_formula_sum "Si O2"
_cell_formula_units_Z 84
_cell_length_a 14.909539
_cell_length_b 14.909539
_cell_length_c 22.369458
_cell_angle_alpha 90.000000
_cell_angle_beta 90.000000
_cell_angle_gamma 120.000000
_cell_volume 4306.401558
_symmetry_space_group_name_H-M "P 61 2 2"
_symmetry_group_IT_number 178
_symmetry_cell_setting 'hexagonal'
loop_
_space_group_symop_operation_xyz
x,y,z
x-y,x,1/6+z
-y,x-y,1/3+z
-x,-y,1/2+z
-x+y,-x,2/3+z
y,-x+y,5/6+z
x-y,-y,-z
-x,-x+y,2/3-z
y,x,1/3-z
-y,-x,5/6-z
-x+y,y,1/2-z
x,x-y,1/6-z
loop_
_atom_site_type_symbol
_atom_site_label
_atom_site_fract_x
_atom_site_fract_y
_atom_site_fract_z
Si Si1 0.626881 0.533347 0.252985
Si Si2 0.692647 0.704292 0.980530
Si Si3 0.878307 0.556362 0.743468
Si Si4 0.146519 0.670595 0.061949
Si Si5 0.321577 0.430273 0.065089
Si Si6 0.813549 0.652134 0.450129
Si Si7 0.146993 0.500460 0.877700
O O1 0.693796 0.605748 0.306609
O O2 0.543139 0.420936 0.276343
O O3 0.564379 0.590437 0.230369
O O4 0.674756 0.517823 0.192185
O O5 0.654696 0.600401 0.940249
O O6 0.715314 0.794482 0.934290
O O7 0.786609 0.712301 0.019322
O O8 0.799421 0.598841 0.750000
O O9 0.886324 0.534217 0.673501
O O10 0.828979 0.445849 0.777403
O O11 0.996514 0.634329 0.762370
O O12 0.184658 0.592329 0.083334
O O13 0.234476 0.790821 0.067276
O O14 0.269708 0.379316 0.002339
O O15 0.800506 0.547046 0.419993
#
# Coordination Sequence:
#
# PCOD9582568 Si02
#       7
#    12  12  12  12  12  12  12
#     4   9  18  35  56  79 116 154 190 248 293 354
#     4  10  21  36  61  84 122 156 201 250 301 365
#     4  11  21  36  58  86 121 163 203 252 301 359
#     4  11  21  37  58  82 121 163 205 243 303 365
#     4  10  20  36  56  83 119 163 204 247 298 362
#     4  10  20  37  58  87 119 157 204 248 304 364
#     4   9  19  36  54  81 119 155 194 243 301 355
#
# _framework density 19.505845000000001
#
# number of rings (size 3 to 8) (size 9 to 14) (size 15 to 20)
#    0.000    2.000    1.429    4.286    0.000    2.286 
#    7.714    0.000    0.000    0.000    0.000    0.000 
#  111.429    0.000    0.000    0.000    0.000    0.000 
#
# Total GULP energy -468726.750441 kJ/mol
# GULP energy per Si atom -5580.080362 kJ/mol
# Density = 1.946145 g / cm^3
# Si number density = 19.505845 Si / 1000 Ang^3
#
#
#
# Elastic Constant Matrix: (Units=GPa)
#
#
# Indices 1 2 3 4 5 6 
#
# 1 74.2764 36.6108 32.0998 0.0000 0.0000 0.0000
# 2 36.6108 74.2764 32.0998 0.0000 0.0000 0.0000
# 3 32.0998 32.0998 123.6368 0.0000 0.0000 0.0000
# 4 0.0000 0.0000 0.0000 21.3930 0.0000 0.0000
# 5 0.0000 0.0000 0.0000 0.0000 21.3930 0.0000
# 6 0.0000 0.0000 0.0000 0.0000 0.0000 18.8328
#
#
#
# Elastic Compliance Matrix: (Units=1/GPa)
#
#
# Indices 1 2 3 4 5 6 
#
# 1 0.018581 -0.007968 -0.002756 0.000000 0.000000 0.000000
# 2 -0.007968 0.018581 -0.002756 0.000000 0.000000 0.000000
# 3 -0.002756 -0.002756 0.009519 0.000000 0.000000 0.000000
# 4 0.000000 0.000000 0.000000 0.046744 0.000000 0.000000
# 5 0.000000 0.000000 0.000000 0.000000 0.046744 0.000000
# 6 0.000000 0.000000 0.000000 0.000000 0.000000 0.053099
#
#
# Mechanical properties :
#
#
# Convention : Reuss Voigt Hill
#
# Bulk Modulus (GPa) = 50.70013 52.64560 51.67287
# Shear Modulus (GPa) = 22.04565 23.74906 22.89736
#
# Velocity S-wave (km/s) = 3.36550 3.49311 3.42990
# Velocity P-wave (km/s) = 6.41489 6.58159 6.49877
#
# Compressibility (1/GPa) = 0.01972381
#
# Stress axis : x y z
#
# Youngs Moduli (GPa) = 53.81700 53.81700 105.05221
#
# Poissons Ratio (x) = 0.42881 0.28948
# Poissons Ratio (y) = 0.42881 0.28948
# Poissons Ratio (z) = 0.14830 0.14830
#
# Static dielectric constant tensor:
#      x y z
#    x 1.691640 0.000000 0.000000 
#    y 0.000000 1.691640 0.000000 
#    z 0.000000 0.000000 1.719800 
# 
# From -- ./inp_files/8315.got.cif
#   From: 2010.05.17/outbox.cif.g08.bks.cpg/sg178_5_cif.got.tgz:8315.got - 2010.05.20 11:30:59.
