data_PCOD9582964
_publ_section_title
;
Structure prediction by ZEFSAII (Michael W. Deem and Ramdas Pophale) SiO2 
 PCOD9582964
Probable space group: P 61 2 2
;
_chemical_formula_sum "Si O2"
_cell_formula_units_Z 48
_cell_length_a 14.734012
_cell_length_b 14.734012
_cell_length_c 12.673633
_cell_angle_alpha 90.000000
_cell_angle_beta 90.000000
_cell_angle_gamma 120.000000
_cell_volume 2382.724316
_symmetry_space_group_name_H-M "P 61 2 2"
_symmetry_group_IT_number 178
_symmetry_cell_setting 'hexagonal'
loop_
_space_group_symop_operation_xyz
x,y,z
x-y,x,1/6+z
-y,x-y,1/3+z
-x,-y,1/2+z
-x+y,-x,2/3+z
y,-x+y,5/6+z
x-y,-y,-z
-x,-x+y,2/3-z
y,x,1/3-z
-y,-x,5/6-z
-x+y,y,1/2-z
x,x-y,1/6-z
loop_
_atom_site_type_symbol
_atom_site_label
_atom_site_fract_x
_atom_site_fract_y
_atom_site_fract_z
Si Si1 0.817055 0.200591 0.123479
Si Si2 0.287489 0.402420 0.178274
Si Si3 0.798102 0.389299 0.710217
Si Si4 0.771765 0.744650 0.280843
O O1 0.843374 0.271876 0.226354
O O2 0.704814 0.183549 0.090154
O O3 0.811504 0.090974 0.157920
O O4 0.902059 0.247528 0.030126
O O5 0.306936 0.306936 0.166667
O O6 0.188720 0.377439 0.250000
O O7 0.382372 0.501585 0.235678
O O8 0.685071 0.370141 0.750000
O O9 0.804402 0.402201 0.583334
O O10 0.716045 0.716045 0.166667
O O11 0.895712 0.791423 0.250000
#
# Coordination Sequence:
#
# PCOD9582964 Si02
#       4
#    12  12  12  12
#     4  11  21  42  69  94 136 180 225 296 346 422
#     4  11  23  42  68  98 134 181 228 285 356 425
#     4  11  23  43  64  97 140 180 236 288 348 424
#     4   9  21  40  65  95 128 172 224 282 346 410
#
# _framework density 20.145007
#
# number of rings (size 3 to 8) (size 9 to 14) (size 15 to 20)
#    0.000    1.500    5.000    1.500    0.000    6.000 
#    4.500    0.000    0.000   49.500    0.000    0.000 
#    0.000    0.000    0.000    0.000    0.000    0.000 
#
# Total GULP energy -267301.350751 kJ/mol
# GULP energy per Si atom -5568.778141 kJ/mol
# Density = 2.009916 g / cm^3
# Si number density = 20.145007 Si / 1000 Ang^3
#
#
#
# Elastic Constant Matrix: (Units=GPa)
#
#
# Indices 1 2 3 4 5 6 
#
# 1 55.8424 33.1109 35.2563 0.0000 0.0000 0.0000
# 2 33.1109 55.8424 35.2563 0.0000 0.0000 0.0000
# 3 35.2563 35.2563 150.1813 0.0000 0.0000 0.0000
# 4 0.0000 0.0000 0.0000 33.2593 0.0000 0.0000
# 5 0.0000 0.0000 0.0000 0.0000 33.2593 0.0000
# 6 0.0000 0.0000 0.0000 0.0000 0.0000 11.3658
#
#
#
# Elastic Compliance Matrix: (Units=1/GPa)
#
#
# Indices 1 2 3 4 5 6 
#
# 1 0.028902 -0.015090 -0.003243 0.000000 0.000000 0.000000
# 2 -0.015090 0.028902 -0.003243 0.000000 0.000000 0.000000
# 3 -0.003243 -0.003243 0.008181 0.000000 0.000000 0.000000
# 4 0.000000 0.000000 0.000000 0.030067 0.000000 0.000000
# 5 0.000000 0.000000 0.000000 0.000000 0.030067 0.000000
# 6 0.000000 0.000000 0.000000 0.000000 0.000000 0.087984
#
#
# Mechanical properties :
#
#
# Convention : Reuss Voigt Hill
#
# Bulk Modulus (GPa) = 43.79184 52.12366 47.95775
# Shear Modulus (GPa) = 18.87765 26.12637 22.50201
#
# Velocity S-wave (km/s) = 3.06451 3.60518 3.34578
# Velocity P-wave (km/s) = 5.85723 6.57724 6.22765
#
# Compressibility (1/GPa) = 0.02283530
#
# Stress axis : x y z
#
# Youngs Moduli (GPa) = 34.59973 34.59973 122.23397
#
# Poissons Ratio (x) = 0.52210 0.39635
# Poissons Ratio (y) = 0.52210 0.39635
# Poissons Ratio (z) = 0.11219 0.11219
#
# Static dielectric constant tensor:
#      x y z
#    x 1.780450 0.000000 0.000000 
#    y 0.000000 1.780450 0.000000 
#    z 0.000000 0.000000 1.777200 
# 
# From -- ./inp_files/4099.got.cif
#   From: 2010.05.17/outbox.cif.g08.bks.cpg/sg178_3_cif.got.tgz:4099.got - 2010.05.20 11:30:59.
