data_PCOD9582960
_publ_section_title
;
Structure prediction by ZEFSAII (Michael W. Deem and Ramdas Pophale) SiO2 
 PCOD9582960
Probable space group: P 61 2 2
;
_chemical_formula_sum "Si O2"
_cell_formula_units_Z 48
_cell_length_a 16.469607
_cell_length_b 16.469607
_cell_length_c 9.340999
_cell_angle_alpha 90.000000
_cell_angle_beta 90.000000
_cell_angle_gamma 120.000000
_cell_volume 2194.271839
_symmetry_space_group_name_H-M "P 61 2 2"
_symmetry_group_IT_number 178
_symmetry_cell_setting 'hexagonal'
loop_
_space_group_symop_operation_xyz
x,y,z
x-y,x,1/6+z
-y,x-y,1/3+z
-x,-y,1/2+z
-x+y,-x,2/3+z
y,-x+y,5/6+z
x-y,-y,-z
-x,-x+y,2/3-z
y,x,1/3-z
-y,-x,5/6-z
-x+y,y,1/2-z
x,x-y,1/6-z
loop_
_atom_site_type_symbol
_atom_site_label
_atom_site_fract_x
_atom_site_fract_y
_atom_site_fract_z
Si Si1 0.219070 0.457329 0.592345
Si Si2 0.538722 0.000000 0.500000
Si Si3 0.441671 0.558330 0.916667
Si Si4 0.730913 0.624007 0.846911
Si Si5 0.785841 0.739448 0.311635
O O1 0.249838 0.499677 0.750000
O O2 0.179746 0.518198 0.523185
O O3 0.283281 0.439530 0.486700
O O4 0.129534 0.355473 0.623222
O O5 0.507779 0.053023 0.613071
O O6 0.632877 0.058191 0.403817
O O7 0.812793 0.625585 0.750000
O O8 0.766329 0.730869 0.903522
O O9 0.894836 0.789672 0.250000
O O10 0.729594 0.729594 0.166667
#
# Coordination Sequence:
#
# PCOD9582960 Si02
#       5
#    12   6   6  12  12
#     4  11  24  43  70  96 139 185 233 290 359 431
#     4  12  28  40  72 106 140 180 236 304 346 430
#     4  12  26  44  62 106 134 182 240 286 356 414
#     4  12  22  45  67 110 138 177 242 299 360 418
#     4  11  21  39  67 103 134 183 229 282 352 429
#
# _framework density 21.875136999999999
#
# number of rings (size 3 to 8) (size 9 to 14) (size 15 to 20)
#    0.000    0.500   10.000    0.000    5.250    0.000 
#    0.000    2.500    0.000    1.500    0.000    0.000 
#    0.000    0.000    0.000    0.000    0.000    0.000 
#
# Total GULP energy -267215.359319 kJ/mol
# GULP energy per Si atom -5566.986652 kJ/mol
# Density = 2.182535 g / cm^3
# Si number density = 21.875137 Si / 1000 Ang^3
#
#
#
# Elastic Constant Matrix: (Units=GPa)
#
#
# Indices 1 2 3 4 5 6 
#
# 1 49.1593 17.1805 16.5826 0.0000 0.0000 0.0000
# 2 17.1805 49.1593 16.5826 0.0000 0.0000 0.0000
# 3 16.5826 16.5826 98.0928 0.0000 0.0000 0.0000
# 4 0.0000 0.0000 0.0000 30.3045 0.0000 0.0000
# 5 0.0000 0.0000 0.0000 0.0000 30.3045 0.0000
# 6 0.0000 0.0000 0.0000 0.0000 0.0000 15.9894
#
#
#
# Elastic Compliance Matrix: (Units=1/GPa)
#
#
# Indices 1 2 3 4 5 6 
#
# 1 0.023868 -0.007403 -0.002783 0.000000 0.000000 0.000000
# 2 -0.007403 0.023868 -0.002783 0.000000 0.000000 0.000000
# 3 -0.002783 -0.002783 0.011136 0.000000 0.000000 0.000000
# 4 0.000000 0.000000 0.000000 0.032998 0.000000 0.000000
# 5 0.000000 0.000000 0.000000 0.000000 0.032998 0.000000
# 6 0.000000 0.000000 0.000000 0.000000 0.000000 0.062541
#
#
# Mechanical properties :
#
#
# Convention : Reuss Voigt Hill
#
# Bulk Modulus (GPa) = 30.36514 33.01140 31.68827
# Shear Modulus (GPa) = 22.28893 25.05741 23.67317
#
# Velocity S-wave (km/s) = 3.19551 3.38816 3.29324
# Velocity P-wave (km/s) = 5.24655 5.51632 5.38312
#
# Compressibility (1/GPa) = 0.03293250
#
# Stress axis : x y z
#
# Youngs Moduli (GPa) = 41.89694 41.89694 89.80267
#
# Poissons Ratio (x) = 0.31015 0.24996
# Poissons Ratio (y) = 0.31015 0.24996
# Poissons Ratio (z) = 0.11662 0.11662
#
# Static dielectric constant tensor:
#      x y z
#    x 1.858150 0.000000 0.000000 
#    y 0.000000 1.858150 0.000000 
#    z 0.000000 0.000000 1.889370 
# 
# From -- ./inp_files/2619.got.cif
#   From: 2010.05.17/outbox.cif.g08.bks.cpg/sg178_2_cif.got.tgz:2619.got - 2010.05.20 11:30:59.
