data_PCOD9582734
_publ_section_title
;
Structure prediction by ZEFSAII (Michael W. Deem and Ramdas Pophale) SiO2 
 PCOD9582734
Probable space group: P 61 2 2
;
_chemical_formula_sum "Si O2"
_cell_formula_units_Z 42
_cell_length_a 12.042469
_cell_length_b 12.042469
_cell_length_c 15.638950
_cell_angle_alpha 90.000000
_cell_angle_beta 90.000000
_cell_angle_gamma 120.000000
_cell_volume 1964.125784
_symmetry_space_group_name_H-M "P 61 2 2"
_symmetry_group_IT_number 178
_symmetry_cell_setting 'hexagonal'
loop_
_space_group_symop_operation_xyz
x,y,z
x-y,x,1/6+z
-y,x-y,1/3+z
-x,-y,1/2+z
-x+y,-x,2/3+z
y,-x+y,5/6+z
x-y,-y,-z
-x,-x+y,2/3-z
y,x,1/3-z
-y,-x,5/6-z
-x+y,y,1/2-z
x,x-y,1/6-z
loop_
_atom_site_type_symbol
_atom_site_label
_atom_site_fract_x
_atom_site_fract_y
_atom_site_fract_z
Si Si1 0.088629 0.911371 0.416667
Si Si2 0.535930 0.612066 0.798112
Si Si3 0.599884 0.180009 0.462871
Si Si4 0.135967 0.397318 0.634618
O O1 0.215582 0.939175 0.363318
O O2 0.000000 0.895346 0.333334
O O3 0.490271 0.663081 0.718195
O O4 0.594052 0.528084 0.760031
O O5 0.620774 0.717340 0.868184
O O6 0.401015 0.505105 0.836188
O O7 0.686938 0.313063 0.416667
O O8 0.462619 0.171658 0.476335
#
# Coordination Sequence:
#
# PCOD9582734 Si02
#       4
#     6  12  12  12
#     4  12  26  46  74  96 120 170 228 286 328 386
#     4  10  22  36  58  96 128 173 212 257 332 406
#     4  11  21  36  59  90 137 171 215 264 328 404
#     4  11  21  39  62  94 127 163 212 273 325 391
#
# _framework density 21.383558000000001
#
# number of rings (size 3 to 8) (size 9 to 14) (size 15 to 20)
#    0.000    1.143    5.714    1.714    0.000    6.857 
#    0.000    0.000    9.429    0.000    0.000    0.000 
#    0.000    0.000    0.000    0.000    0.000    0.000 
#
# Total GULP energy -234008.967332 kJ/mol
# GULP energy per Si atom -5571.642079 kJ/mol
# Density = 2.133489 g / cm^3
# Si number density = 21.383558 Si / 1000 Ang^3
#
#
#
# Elastic Constant Matrix: (Units=GPa)
#
#
# Indices 1 2 3 4 5 6 
#
# 1 34.6433 6.3276 39.6223 0.0000 0.0000 0.0000
# 2 6.3276 34.6433 39.6223 0.0000 0.0000 0.0000
# 3 39.6223 39.6223 178.8797 0.0000 0.0000 0.0000
# 4 0.0000 0.0000 0.0000 -167.0463 0.0000 0.0000
# 5 0.0000 0.0000 0.0000 0.0000 -167.0463 0.0000
# 6 0.0000 0.0000 0.0000 0.0000 0.0000 14.1578
#
#
#
# Elastic Compliance Matrix: (Units=1/GPa)
#
#
# Indices 1 2 3 4 5 6 
#
# 1 0.039009 0.003693 -0.009459 0.000000 0.000000 0.000000
# 2 0.003693 0.039009 -0.009459 0.000000 0.000000 0.000000
# 3 -0.009459 -0.009459 0.009781 0.000000 0.000000 0.000000
# 4 0.000000 0.000000 0.000000 -0.005986 0.000000 0.000000
# 5 0.000000 0.000000 0.000000 0.000000 -0.005986 0.000000
# 6 0.000000 0.000000 0.000000 0.000000 0.000000 0.070632
#
#
# Mechanical properties :
#
#
# Convention : Reuss Voigt Hill
#
# Bulk Modulus (GPa) = 17.43667 46.59008 32.01338
# Shear Modulus (GPa) = 25.50709 -53.14735 -13.82013
#
# Velocity S-wave (km/s) = 3.45749 -4.99082 -2.54500
# Velocity P-wave (km/s) = 4.91029 3.37282 2.52340
#
# Compressibility (1/GPa) = 0.05735041
#
# Stress axis : x y z
#
# Youngs Moduli (GPa) = 25.63498 25.63498 102.24334
#
# Poissons Ratio (x) = -0.09467 0.96708
# Poissons Ratio (y) = -0.09467 0.96708
# Poissons Ratio (z) = 0.24247 0.24247
#
# Static dielectric constant tensor:
#      x y z
#    x 1.816160 0.000000 0.000000 
#    y 0.000000 1.816160 0.000000 
#    z 0.000000 0.000000 1.929760 
# 
# From -- ./inp_files/6480.got.cif
#   From: 2010.05.17/outbox.cif.g08.bks.cpg/sg178_4_cif.got.tgz:6480.got - 2010.05.20 11:30:59.
