data_PCOD9582838
_publ_section_title
;
Structure prediction by ZEFSAII (Michael W. Deem and Ramdas Pophale) SiO2 
 PCOD9582838
Probable space group: P 61 2 2
;
_chemical_formula_sum "Si O2"
_cell_formula_units_Z 54
_cell_length_a 12.331568
_cell_length_b 12.331568
_cell_length_c 19.839311
_cell_angle_alpha 90.000000
_cell_angle_beta 90.000000
_cell_angle_gamma 120.000000
_cell_volume 2612.725725
_symmetry_space_group_name_H-M "P 61 2 2"
_symmetry_group_IT_number 178
_symmetry_cell_setting 'hexagonal'
loop_
_space_group_symop_operation_xyz
x,y,z
x-y,x,1/6+z
-y,x-y,1/3+z
-x,-y,1/2+z
-x+y,-x,2/3+z
y,-x+y,5/6+z
x-y,-y,-z
-x,-x+y,2/3-z
y,x,1/3-z
-y,-x,5/6-z
-x+y,y,1/2-z
x,x-y,1/6-z
loop_
_atom_site_type_symbol
_atom_site_label
_atom_site_fract_x
_atom_site_fract_y
_atom_site_fract_z
Si Si1 0.172670 0.827331 0.416667
Si Si2 0.325637 0.277082 0.962387
Si Si3 0.112165 0.556083 0.583334
Si Si4 0.505599 0.190992 0.466505
Si Si5 0.232873 0.465746 0.250000
Si Si6 0.294396 0.203100 0.813731
O O1 0.138984 0.707856 0.369375
O O2 0.055100 0.796276 0.464525
O O3 0.399289 0.427434 0.955117
O O4 0.341806 0.229013 0.890178
O O5 0.179613 0.235290 0.968730
O O6 0.380852 0.239910 0.024571
O O7 0.204625 0.541193 0.634324
O O8 0.630628 0.187409 0.450114
O O9 0.410211 0.134872 0.404056
#
# Coordination Sequence:
#
# PCOD9582838 Si02
#       6
#     6  12   6  12   6  12
#     4  12  22  43  71 111 125 176 246 300 332 400
#     4  11  24  44  68  97 141 185 226 288 346 420
#     4   9  18  41  64  98 137 167 218 290 356 393
#     4  10  23  39  71 105 134 177 230 288 351 412
#     4  11  26  44  65 107 142 191 222 272 374 433
#     4  11  23  45  68  98 136 180 238 293 343 397
#
# _framework density 20.668071000000001
#
# number of rings (size 3 to 8) (size 9 to 14) (size 15 to 20)
#    0.000    1.333    4.444    2.000    0.000    7.111 
#    4.000    3.333    0.000    0.000    0.000    0.000 
#    0.000    0.000    0.000    0.000    0.000    0.000 
#
# Total GULP energy -301709.812411 kJ/mol
# GULP energy per Si atom -5587.218748 kJ/mol
# Density = 2.062103 g / cm^3
# Si number density = 20.668071 Si / 1000 Ang^3
#
#
#
# Elastic Constant Matrix: (Units=GPa)
#
#
# Indices 1 2 3 4 5 6 
#
# 1 58.9508 19.7948 41.1846 0.0000 0.0000 0.0000
# 2 19.7948 58.9508 41.1846 0.0000 0.0000 0.0000
# 3 41.1846 41.1846 153.7197 0.0000 0.0000 0.0000
# 4 0.0000 0.0000 0.0000 22.0540 0.0000 0.0000
# 5 0.0000 0.0000 0.0000 0.0000 22.0540 0.0000
# 6 0.0000 0.0000 0.0000 0.0000 0.0000 19.5780
#
#
#
# Elastic Compliance Matrix: (Units=1/GPa)
#
#
# Indices 1 2 3 4 5 6 
#
# 1 0.021591 -0.003948 -0.004727 0.000000 0.000000 0.000000
# 2 -0.003948 0.021591 -0.004727 0.000000 0.000000 0.000000
# 3 -0.004727 -0.004727 0.009038 0.000000 0.000000 0.000000
# 4 0.000000 0.000000 0.000000 0.045343 0.000000 0.000000
# 5 0.000000 0.000000 0.000000 0.000000 0.045343 0.000000
# 6 0.000000 0.000000 0.000000 0.000000 0.000000 0.051078
#
#
# Mechanical properties :
#
#
# Convention : Reuss Voigt Hill
#
# Bulk Modulus (GPa) = 39.34318 52.88326 46.11322
# Shear Modulus (GPa) = 21.80921 24.03438 22.92179
#
# Velocity S-wave (km/s) = 3.25193 3.41379 3.33384
# Velocity P-wave (km/s) = 5.75996 6.41725 6.09747
#
# Compressibility (1/GPa) = 0.02541737
#
# Stress axis : x y z
#
# Youngs Moduli (GPa) = 46.31495 46.31495 110.63992
#
# Poissons Ratio (x) = 0.18283 0.52301
# Poissons Ratio (y) = 0.18283 0.52301
# Poissons Ratio (z) = 0.21894 0.21894
#
# Static dielectric constant tensor:
#      x y z
#    x 1.766120 0.000000 0.000000 
#    y 0.000000 1.766120 0.000000 
#    z 0.000000 0.000000 1.748060 
# 
# From -- ./inp_files/7472.got.cif
#   From: 2010.05.17/outbox.cif.g08.bks.cpg/sg178_4_cif.got.tgz:7472.got - 2010.05.20 11:30:59.
