data_PCOD9582736
_publ_section_title
;
Structure prediction by ZEFSAII (Michael W. Deem and Ramdas Pophale) SiO2 
 PCOD9582736
Probable space group: P 61 2 2
;
_chemical_formula_sum "Si O2"
_cell_formula_units_Z 60
_cell_length_a 16.080621
_cell_length_b 16.080621
_cell_length_c 14.821322
_cell_angle_alpha 90.000000
_cell_angle_beta 90.000000
_cell_angle_gamma 120.000000
_cell_volume 3319.121931
_symmetry_space_group_name_H-M "P 61 2 2"
_symmetry_group_IT_number 178
_symmetry_cell_setting 'hexagonal'
loop_
_space_group_symop_operation_xyz
x,y,z
x-y,x,1/6+z
-y,x-y,1/3+z
-x,-y,1/2+z
-x+y,-x,2/3+z
y,-x+y,5/6+z
x-y,-y,-z
-x,-x+y,2/3-z
y,x,1/3-z
-y,-x,5/6-z
-x+y,y,1/2-z
x,x-y,1/6-z
loop_
_atom_site_type_symbol
_atom_site_label
_atom_site_fract_x
_atom_site_fract_y
_atom_site_fract_z
Si Si1 0.289327 0.458486 0.388851
Si Si2 0.378424 0.420623 0.901598
Si Si3 0.672283 0.093367 0.563794
Si Si4 0.362529 0.586453 0.551360
Si Si5 0.517489 0.352741 0.602107
O O1 0.333989 0.400360 0.434875
O O2 0.178974 0.404663 0.362940
O O3 0.301285 0.536547 0.463607
O O4 0.360385 0.524988 0.309659
O O5 0.480379 0.519622 0.916667
O O6 0.337927 0.441383 0.809489
O O7 0.320270 0.399013 0.995476
O O8 0.595436 0.130273 0.562952
O O9 0.633263 0.000000 0.500000
O O10 0.345181 0.672591 0.583334
O O11 0.337408 0.502508 0.623632
O O12 0.551903 0.275952 0.583334
#
# Coordination Sequence:
#
# PCOD9582736 Si02
#       5
#    12  12  12  12  12
#     4  11  22  37  53  77 113 147 198 247 296 355
#     4  10  22  37  51  78 110 148 196 247 294 349
#     4  11  23  36  55  82 111 151 198 252 296 356
#     4  11  20  32  53  78 101 150 203 240 288 345
#     4  11  22  35  53  75 110 149 197 245 294 351
#
# _framework density 18.077069999999999
#
# number of rings (size 3 to 8) (size 9 to 14) (size 15 to 20)
#    0.000    1.200    4.000    3.600    2.800    1.600 
#    0.000    0.000    0.000    0.000    0.000    0.000 
#    0.000    0.000   13.600    0.000    0.000    0.200 
#
# Total GULP energy -334161.761319 kJ/mol
# GULP energy per Si atom -5569.362689 kJ/mol
# Density = 1.803593 g / cm^3
# Si number density = 18.077070 Si / 1000 Ang^3
#
#
#
# Elastic Constant Matrix: (Units=GPa)
#
#
# Indices 1 2 3 4 5 6 
#
# 1 66.8228 27.6550 36.6197 0.0000 0.0000 0.0000
# 2 27.6550 66.8228 36.6197 0.0000 0.0000 0.0000
# 3 36.6197 36.6197 126.9558 0.0000 0.0000 0.0000
# 4 0.0000 0.0000 0.0000 22.6283 0.0000 0.0000
# 5 0.0000 0.0000 0.0000 0.0000 22.6283 0.0000
# 6 0.0000 0.0000 0.0000 0.0000 0.0000 19.5839
#
#
#
# Elastic Compliance Matrix: (Units=1/GPa)
#
#
# Indices 1 2 3 4 5 6 
#
# 1 0.019582 -0.005949 -0.003932 0.000000 0.000000 0.000000
# 2 -0.005949 0.019582 -0.003932 0.000000 0.000000 0.000000
# 3 -0.003932 -0.003932 0.010145 0.000000 0.000000 0.000000
# 4 0.000000 0.000000 0.000000 0.044192 0.000000 0.000000
# 5 0.000000 0.000000 0.000000 0.000000 0.044192 0.000000
# 6 0.000000 0.000000 0.000000 0.000000 0.000000 0.051062
#
#
# Mechanical properties :
#
#
# Convention : Reuss Voigt Hill
#
# Bulk Modulus (GPa) = 46.12190 51.37670 48.74930
# Shear Modulus (GPa) = 22.36021 23.61522 22.98772
#
# Velocity S-wave (km/s) = 3.52083 3.61829 3.56989
# Velocity P-wave (km/s) = 6.48828 6.77780 6.63462
#
# Compressibility (1/GPa) = 0.02168167
#
# Stress axis : x y z
#
# Youngs Moduli (GPa) = 51.06722 51.06722 98.56809
#
# Poissons Ratio (x) = 0.30381 0.38760
# Poissons Ratio (y) = 0.30381 0.38760
# Poissons Ratio (z) = 0.20081 0.20081
#
# Static dielectric constant tensor:
#      x y z
#    x 1.672890 0.000000 0.000000 
#    y 0.000000 1.672890 0.000000 
#    z 0.000000 0.000000 1.786110 
# 
# From -- ./inp_files/5656.got.cif
#   From: 2010.05.17/outbox.cif.g08.bks.cpg/sg178_3_cif.got.tgz:5656.got - 2010.05.20 11:30:59.
