data_PCOD9582533
_publ_section_title
;
Structure prediction by ZEFSAII (Michael W. Deem and Ramdas Pophale) SiO2 
 PCOD9582533
Probable space group: P 61 2 2
;
_chemical_formula_sum "Si O2"
_cell_formula_units_Z 84
_cell_length_a 14.287662
_cell_length_b 14.287662
_cell_length_c 26.824360
_cell_angle_alpha 90.000000
_cell_angle_beta 90.000000
_cell_angle_gamma 120.000000
_cell_volume 4742.226969
_symmetry_space_group_name_H-M "P 61 2 2"
_symmetry_group_IT_number 178
_symmetry_cell_setting 'hexagonal'
loop_
_space_group_symop_operation_xyz
x,y,z
x-y,x,1/6+z
-y,x-y,1/3+z
-x,-y,1/2+z
-x+y,-x,2/3+z
y,-x+y,5/6+z
x-y,-y,-z
-x,-x+y,2/3-z
y,x,1/3-z
-y,-x,5/6-z
-x+y,y,1/2-z
x,x-y,1/6-z
loop_
_atom_site_type_symbol
_atom_site_label
_atom_site_fract_x
_atom_site_fract_y
_atom_site_fract_z
Si Si1 0.514180 0.512637 0.036229
Si Si2 0.313836 0.628100 0.138305
Si Si3 0.390386 0.493604 0.700100
Si Si4 0.912998 0.551717 0.617481
Si Si5 0.165756 0.891894 0.470558
Si Si6 0.754832 0.451094 0.437928
Si Si7 0.381888 0.082807 0.712530
O O1 0.465954 0.546812 0.081405
O O2 0.610630 0.494707 0.059244
O O3 0.437588 0.408316 0.003573
O O4 0.555081 0.606937 0.994941
O O5 0.348179 0.674090 0.083334
O O6 0.417277 0.627601 0.160033
O O7 0.213097 0.506720 0.131423
O O8 0.276575 0.699239 0.170053
O O9 0.459464 0.459464 0.666667
O O10 0.275354 0.386834 0.708358
O O11 0.916344 0.458172 0.583334
O O12 0.982512 0.657243 0.584341
O O13 0.114848 0.885153 0.416667
O O14 0.100938 0.798549 0.510675
O O15 0.198989 0.000000 0.500000
O O16 0.669356 0.330644 0.416667
O O17 0.728228 0.536711 0.410866
#
# Coordination Sequence:
#
# PCOD9582533 Si02
#       7
#    12  12  12  12  12  12  12
#     4  10  20  34  49  74 108 139 185 229 265 342
#     4  10  21  33  50  76 106 139 182 228 271 330
#     4  11  21  32  49  76 108 145 181 216 272 342
#     4   8  18  34  48  71 101 134 176 227 266 315
#     4  11  22  37  55  83 117 152 188 232 285 349
#     4  11  21  34  54  76 107 152 184 222 289 342
#     4  11  21  35  54  76 109 148 187 230 280 336
#
# _framework density 17.713196
#
# number of rings (size 3 to 8) (size 9 to 14) (size 15 to 20)
#    0.000    1.714    1.429    6.000    4.000    0.000 
#    0.000    0.000    0.000    0.000    0.000    1.000 
#    0.000    1.143    0.000    0.000    0.000    0.000 
#
# Total GULP energy -467807.152047 kJ/mol
# GULP energy per Si atom -5569.132762 kJ/mol
# Density = 1.767288 g / cm^3
# Si number density = 17.713196 Si / 1000 Ang^3
#
#
#
# Elastic Constant Matrix: (Units=GPa)
#
#
# Indices 1 2 3 4 5 6 
#
# 1 54.2941 18.7356 28.1204 0.0000 0.0000 0.0000
# 2 18.7356 54.2941 28.1204 0.0000 0.0000 0.0000
# 3 28.1204 28.1204 90.6602 0.0000 0.0000 0.0000
# 4 0.0000 0.0000 0.0000 21.7772 0.0000 0.0000
# 5 0.0000 0.0000 0.0000 0.0000 21.7772 0.0000
# 6 0.0000 0.0000 0.0000 0.0000 0.0000 17.7792
#
#
#
# Elastic Compliance Matrix: (Units=1/GPa)
#
#
# Indices 1 2 3 4 5 6 
#
# 1 0.023057 -0.005066 -0.005580 0.000000 0.000000 0.000000
# 2 -0.005066 0.023057 -0.005580 0.000000 0.000000 0.000000
# 3 -0.005580 -0.005580 0.014492 0.000000 0.000000 0.000000
# 4 0.000000 0.000000 0.000000 0.045920 0.000000 0.000000
# 5 0.000000 0.000000 0.000000 0.000000 0.045920 0.000000
# 6 0.000000 0.000000 0.000000 0.000000 0.000000 0.056245
#
#
# Mechanical properties :
#
#
# Convention : Reuss Voigt Hill
#
# Bulk Modulus (GPa) = 35.52145 38.80014 37.16079
# Shear Modulus (GPa) = 19.95798 20.55152 20.25475
#
# Velocity S-wave (km/s) = 3.36032 3.40992 3.38521
# Velocity P-wave (km/s) = 5.92899 6.12010 6.02530
#
# Compressibility (1/GPa) = 0.02815200
#
# Stress axis : x y z
#
# Youngs Moduli (GPa) = 43.37168 43.37168 69.00446
#
# Poissons Ratio (x) = 0.21973 0.38505
# Poissons Ratio (y) = 0.21973 0.38505
# Poissons Ratio (z) = 0.24202 0.24202
#
# Static dielectric constant tensor:
#      x y z
#    x 1.635370 0.000000 0.000000 
#    y 0.000000 1.635370 0.000000 
#    z 0.000000 0.000000 1.702060 
# 
# From -- ./inp_files/8981.got.cif
#   From: 2010.05.17/outbox.cif.g08.bks.cpg/sg178_5_cif.got.tgz:8981.got - 2010.05.20 11:30:59.
