data_PCOD9582286
_publ_section_title
;
Structure prediction by ZEFSAII (Michael W. Deem and Ramdas Pophale) SiO2 
 PCOD9582286
Probable space group: P 6 2 2
;
_chemical_formula_sum "Si O2"
_cell_formula_units_Z 84
_cell_length_a 19.560986
_cell_length_b 19.560986
_cell_length_c 13.129052
_cell_angle_alpha 90.000000
_cell_angle_beta 90.000000
_cell_angle_gamma 120.000000
_cell_volume 4350.563227
_symmetry_space_group_name_H-M "P 6 2 2"
_symmetry_group_IT_number 177
_symmetry_cell_setting 'hexagonal'
loop_
_space_group_symop_operation_xyz
x,y,z
x-y,x,z
-y,x-y,z
-x,-y,z
-x+y,-x,z
y,-x+y,z
x-y,-y,-z
-x,-x+y,-z
y,x,-z
-y,-x,-z
-x+y,y,-z
x,x-y,-z
loop_
_atom_site_type_symbol
_atom_site_label
_atom_site_fract_x
_atom_site_fract_y
_atom_site_fract_z
Si Si1 0.910090 0.384505 0.041370
Si Si2 0.762369 0.089940 0.039552
Si Si3 0.147764 0.332342 0.260389
Si Si4 0.179691 0.515171 0.526161
Si Si5 0.335237 0.898717 0.730714
Si Si6 0.186678 0.088572 0.387685
Si Si7 0.623917 0.951159 0.594257
O O1 0.907887 0.379698 0.163576
O O2 0.872992 0.436496 0.000000
O O3 0.879560 0.296641 0.998931
O O4 0.000000 0.429746 0.000000
O O5 0.770540 0.098782 0.160713
O O6 0.850006 0.149995 0.000000
O O7 0.725877 0.000000 0.000000
O O8 0.241433 0.386415 0.246042
O O9 0.132641 0.248150 0.296801
O O10 0.111421 0.358902 0.351369
O O11 0.246686 0.493371 0.500000
O O12 0.210194 0.605097 0.500000
O O13 0.154086 0.497975 0.643712
O O14 0.101049 0.460957 0.459115
O O15 0.365755 0.983677 0.677025
O O16 0.135666 0.131277 0.381775
O O17 0.226017 0.113009 0.500000
O O18 0.681420 0.000000 0.500000
#
# Coordination Sequence:
#
# PCOD9582286 Si02
#       7
#    12  12  12  12  12  12  12
#     4  10  22  42  67  95 126 163 216 282 339 403
#     4  11  24  42  66  96 131 174 227 285 343 403
#     4  12  23  38  64  94 133 172 219 272 342 391
#     4  11  24  43  64  93 133 174 211 257 315 398
#     4  11  23  41  64  98 128 172 220 268 339 387
#     4  10  23  37  57  85 126 177 229 279 329 388
#     4  10  23  37  63  93 132 165 213 267 316 389
#
# _framework density 19.307846000000001
#
# number of rings (size 3 to 8) (size 9 to 14) (size 15 to 20)
#    0.000    1.286    2.857    2.857    8.000    6.571 
#    0.000    0.000    0.000    0.429    0.000    0.000 
#    0.000    0.000    0.000    0.000    0.000    0.000 
#
# Total GULP energy -468954.471271 kJ/mol
# GULP energy per Si atom -5582.791325 kJ/mol
# Density = 1.926390 g / cm^3
# Si number density = 19.307846 Si / 1000 Ang^3
#
#
#
# Elastic Constant Matrix: (Units=GPa)
#
#
# Indices 1 2 3 4 5 6 
#
# 1 88.5860 27.3301 52.6694 0.0000 0.0000 0.0000
# 2 27.3301 88.5860 52.6694 0.0000 0.0000 0.0000
# 3 52.6694 52.6694 159.8368 0.0000 0.0000 0.0000
# 4 0.0000 0.0000 0.0000 9.7470 0.0000 0.0000
# 5 0.0000 0.0000 0.0000 0.0000 9.7470 0.0000
# 6 0.0000 0.0000 0.0000 0.0000 0.0000 30.6280
#
#
#
# Elastic Compliance Matrix: (Units=1/GPa)
#
#
# Indices 1 2 3 4 5 6 
#
# 1 0.014320 -0.002005 -0.004058 0.000000 0.000000 0.000000
# 2 -0.002005 0.014320 -0.004058 0.000000 0.000000 0.000000
# 3 -0.004058 -0.004058 0.008931 0.000000 0.000000 0.000000
# 4 0.000000 0.000000 0.000000 0.102596 0.000000 0.000000
# 5 0.000000 0.000000 0.000000 0.000000 0.102596 0.000000
# 6 0.000000 0.000000 0.000000 0.000000 0.000000 0.032650
#
#
# Mechanical properties :
#
#
# Convention : Reuss Voigt Hill
#
# Bulk Modulus (GPa) = 57.70932 66.92738 62.31835
# Shear Modulus (GPa) = 16.58760 23.64705 20.11732
#
# Velocity S-wave (km/s) = 2.93424 3.50342 3.23139
# Velocity P-wave (km/s) = 6.43690 7.14870 6.80211
#
# Compressibility (1/GPa) = 0.01732822
#
# Stress axis : x y z
#
# Youngs Moduli (GPa) = 69.83369 69.83369 111.97347
#
# Poissons Ratio (x) = 0.14003 0.45438
# Poissons Ratio (y) = 0.14003 0.45438
# Poissons Ratio (z) = 0.28338 0.28338
#
# Static dielectric constant tensor:
#      x y z
#    x 1.680020 0.000000 0.000000 
#    y 0.000000 1.680020 0.000000 
#    z 0.000000 0.000000 1.693270 
# 
# From -- ./inp_files/2084.got.cif
#   From: 2010.05.17/outbox.cif.g08.bks.cpg/sg177_2_cif.got.tgz:2084.got - 2010.05.20 11:28:44.
