data_PCOD9582019
_publ_section_title
;
Structure prediction by ZEFSAII (Michael W. Deem and Ramdas Pophale) SiO2 
 PCOD9582019
Probable space group: P 63/M
;
_chemical_formula_sum "Si O2"
_cell_formula_units_Z 72
_cell_length_a 15.437327
_cell_length_b 15.437327
_cell_length_c 17.635574
_cell_angle_alpha 90.000000
_cell_angle_beta 90.000000
_cell_angle_gamma 120.000000
_cell_volume 3639.690362
_symmetry_space_group_name_H-M "P 63/M"
_symmetry_group_IT_number 176
_symmetry_cell_setting 'hexagonal'
loop_
_space_group_symop_operation_xyz
x,y,z
x-y,x,1/2+z
-y,x-y,z
-x,-y,1/2+z
-x+y,-x,z
y,-x+y,1/2+z
-x,-y,-z
-x+y,-x,1/2-z
y,-x+y,-z
x,y,1/2-z
x-y,x,-z
-y,x-y,1/2-z
loop_
_atom_site_type_symbol
_atom_site_label
_atom_site_fract_x
_atom_site_fract_y
_atom_site_fract_z
Si Si1 0.697075 0.456282 0.084171
Si Si2 0.326836 0.848757 0.338218
Si Si3 0.260956 0.269825 0.415476
Si Si4 0.737433 0.796082 0.085034
Si Si5 0.668157 0.855917 0.662070
Si Si6 0.164208 0.661378 0.413278
O O1 0.588600 0.359183 0.102069
O O2 0.734342 0.560583 0.125842
O O3 0.691953 0.472797 0.994560
O O4 0.351099 0.870850 0.250000
O O5 0.271326 0.904445 0.371717
O O6 0.246089 0.732051 0.351627
O O7 0.422285 0.873484 0.389029
O O8 0.275785 0.229738 0.496026
O O9 0.143432 0.232315 0.404149
O O10 0.309673 0.233778 0.352352
O O11 0.313590 0.389327 0.417199
O O12 0.808174 0.758036 0.119233
O O13 0.668057 0.878018 0.750000
#
# Coordination Sequence:
#
# PCOD9582019 Si02
#       6
#    12  12  12  12  12  12
#     4  10  21  41  69  97 135 180 227 265 318 400
#     4  11  22  35  58  95 137 172 209 268 335 387
#     4  11  24  43  71  93 123 172 229 270 333 402
#     4  11  23  44  69  92 124 170 222 276 329 407
#     4  12  26  45  67  99 136 169 218 288 342 388
#     4  11  20  38  65  94 131 175 225 264 316 397
#
# _framework density 19.781903
#
# number of rings (size 3 to 8) (size 9 to 14) (size 15 to 20)
#    0.333    0.667    5.000    2.333    0.000    6.667 
#    1.000    0.833    0.000    0.000    0.000    0.000 
#    0.000    0.000    0.000    0.000    0.000    0.000 
#
# Total GULP energy -402067.775434 kJ/mol
# GULP energy per Si atom -5584.274659 kJ/mol
# Density = 1.973688 g / cm^3
# Si number density = 19.781903 Si / 1000 Ang^3
#
#
#
# Elastic Constant Matrix: (Units=GPa)
#
#
# Indices 1 2 3 4 5 6 
#
# 1 25.4676 6.7377 9.1110 0.0000 0.0000 0.0000
# 2 6.7377 25.4676 9.1110 0.0000 0.0000 0.0000
# 3 9.1110 9.1110 95.2442 0.0000 0.0000 0.0000
# 4 0.0000 0.0000 0.0000 13.2864 0.0000 0.0000
# 5 0.0000 0.0000 0.0000 0.0000 13.2864 0.0000
# 6 0.0000 0.0000 0.0000 0.0000 0.0000 9.3650
#
#
#
# Elastic Compliance Matrix: (Units=1/GPa)
#
#
# Indices 1 2 3 4 5 6 
#
# 1 0.043109 -0.010281 -0.003140 0.000000 0.000000 0.000000
# 2 -0.010281 0.043109 -0.003140 0.000000 0.000000 0.000000
# 3 -0.003140 -0.003140 0.011100 0.000000 0.000000 0.000000
# 4 0.000000 0.000000 0.000000 0.075265 0.000000 0.000000
# 5 0.000000 0.000000 0.000000 0.000000 0.075265 0.000000
# 6 0.000000 0.000000 0.000000 0.000000 0.000000 0.106781
#
#
# Mechanical properties :
#
#
# Convention : Reuss Voigt Hill
#
# Bulk Modulus (GPa) = 15.57774 21.78877 18.68325
# Shear Modulus (GPa) = 12.22043 15.26887 13.74465
#
# Velocity S-wave (km/s) = 2.48817 2.78125 2.63878
# Velocity P-wave (km/s) = 4.01827 4.62085 4.33005
#
# Compressibility (1/GPa) = 0.06419417
#
# Stress axis : x y z
#
# Youngs Moduli (GPa) = 23.19700 23.19700 90.08910
#
# Poissons Ratio (x) = 0.23850 0.28290
# Poissons Ratio (y) = 0.23850 0.28290
# Poissons Ratio (z) = 0.07284 0.07284
#
# Static dielectric constant tensor:
#      x y z
#    x 1.720220 0.000000 0.000000 
#    y 0.000000 1.720220 0.000000 
#    z 0.000000 0.000000 1.655880 
# 
# From -- ./inp_files/3374.got.cif
#   From: 2010.05.17/outbox.cif.g08.bks.cpg/sg176_2_cif.got.tgz:3374.got - 2010.06.03 11:36:45.
