data_PCOD9582008
_publ_section_title
;
Structure prediction by ZEFSAII (Michael W. Deem and Ramdas Pophale) SiO2 
 PCOD9582008
Probable space group: P 63/M
;
_chemical_formula_sum "Si O2"
_cell_formula_units_Z 60
_cell_length_a 14.880580
_cell_length_b 14.880580
_cell_length_c 13.614570
_cell_angle_alpha 90.000000
_cell_angle_beta 90.000000
_cell_angle_gamma 120.000000
_cell_volume 2610.804057
_symmetry_space_group_name_H-M "P 63/M"
_symmetry_group_IT_number 176
_symmetry_cell_setting 'hexagonal'
loop_
_space_group_symop_operation_xyz
x,y,z
x-y,x,1/2+z
-y,x-y,z
-x,-y,1/2+z
-x+y,-x,z
y,-x+y,1/2+z
-x,-y,-z
-x+y,-x,1/2-z
y,-x+y,-z
x,y,1/2-z
x-y,x,-z
-y,x-y,1/2-z
loop_
_atom_site_type_symbol
_atom_site_label
_atom_site_fract_x
_atom_site_fract_y
_atom_site_fract_z
Si Si1 0.571731 0.751001 0.867799
Si Si2 0.113854 0.587601 0.631283
Si Si3 0.110459 0.502363 0.369112
Si Si4 0.142920 0.238550 0.500971
Si Si5 0.572679 0.843842 0.131783
O O1 0.584725 0.752503 0.750000
O O2 0.491485 0.791544 0.891109
O O3 0.512779 0.631775 0.902548
O O4 0.680276 0.832246 0.915585
O O5 0.112823 0.580733 0.750000
O O6 0.006343 0.580453 0.602320
O O7 0.115191 0.507225 0.250000
O O8 0.194431 0.470603 0.396007
O O9 0.129942 0.614516 0.400768
O O10 0.179101 0.156973 0.531289
O O11 0.221308 0.315073 0.417468
O O12 0.582406 0.855775 0.250000
#
# Coordination Sequence:
#
# PCOD9582008 Si02
#       5
#    12  12  12  12  12
#     4  10  21  39  63  92 125 158 193 241 305 372
#     4   9  17  32  57  87 117 149 185 227 283 358
#     4   9  17  32  57  87 117 149 185 227 283 358
#     4  12  27  44  62  84 114 160 219 274 314 350
#     4  10  21  39  63  92 125 158 193 241 305 372
#
# _framework density 22.981424000000001
#
# number of rings (size 3 to 8) (size 9 to 14) (size 15 to 20)
#    0.000    2.000    0.000    3.400    0.000    9.600 
#    0.000    4.000    0.000    2.400    0.000    0.000 
#    0.000    0.000    0.000    0.000    0.000    0.000 
#
# Total GULP energy -335728.370557 kJ/mol
# GULP energy per Si atom -5595.472843 kJ/mol
# Density = 2.292912 g / cm^3
# Si number density = 22.981424 Si / 1000 Ang^3
#
#
#
# Elastic Constant Matrix: (Units=GPa)
#
#
# Indices 1 2 3 4 5 6 
#
# 1 84.8720 7.4537 -4.9422 0.0000 0.0000 0.0000
# 2 7.4537 84.8720 -4.9422 0.0000 0.0000 0.0000
# 3 -4.9422 -4.9422 73.9478 0.0000 0.0000 0.0000
# 4 0.0000 0.0000 0.0000 25.6310 0.0000 0.0000
# 5 0.0000 0.0000 0.0000 0.0000 25.6310 0.0000
# 6 0.0000 0.0000 0.0000 0.0000 0.0000 38.7091
#
#
#
# Elastic Compliance Matrix: (Units=1/GPa)
#
#
# Indices 1 2 3 4 5 6 
#
# 1 0.011913 -0.001004 0.000729 0.000000 0.000000 0.000000
# 2 -0.001004 0.011913 0.000729 0.000000 0.000000 0.000000
# 3 0.000729 0.000729 0.013621 0.000000 0.000000 0.000000
# 4 0.000000 0.000000 0.000000 0.039015 0.000000 0.000000
# 5 0.000000 0.000000 0.000000 0.000000 0.039015 0.000000
# 6 0.000000 0.000000 0.000000 0.000000 0.000000 0.025834
#
#
# Mechanical properties :
#
#
# Convention : Reuss Voigt Hill
#
# Bulk Modulus (GPa) = 26.07188 26.53671 26.30430
# Shear Modulus (GPa) = 32.63981 34.40239 33.52110
#
# Velocity S-wave (km/s) = 3.77273 3.87326 3.82333
# Velocity P-wave (km/s) = 5.50885 5.61916 5.56428
#
# Compressibility (1/GPa) = 0.03835549
#
# Stress axis : x y z
#
# Youngs Moduli (GPa) = 83.94147 83.94147 73.41873
#
# Poissons Ratio (x) = 0.08426 -0.05353
# Poissons Ratio (y) = 0.08426 -0.05353
# Poissons Ratio (z) = -0.06120 -0.06120
#
# Static dielectric constant tensor:
#      x y z
#    x 1.805910 0.000000 0.000000 
#    y 0.000000 1.805910 0.000000 
#    z 0.000000 0.000000 1.942070 
# 
# From -- ./inp_files/2634.got.cif
#   From: 2010.05.17/outbox.cif.g08.bks.cpg/sg176_2_cif.got.tgz:2634.got - 2010.06.03 11:36:45.
