data_PCOD9582564
_publ_section_title
;
Structure prediction by ZEFSAII (Michael W. Deem and Ramdas Pophale) SiO2 
 PCOD9582564
Probable space group: P 61 2 2
;
_chemical_formula_sum "Si O2"
_cell_formula_units_Z 84
_cell_length_a 18.327656
_cell_length_b 18.327656
_cell_length_c 14.145775
_cell_angle_alpha 90.000000
_cell_angle_beta 90.000000
_cell_angle_gamma 120.000000
_cell_volume 4115.013149
_symmetry_space_group_name_H-M "P 61 2 2"
_symmetry_group_IT_number 178
_symmetry_cell_setting 'hexagonal'
loop_
_space_group_symop_operation_xyz
x,y,z
x-y,x,1/6+z
-y,x-y,1/3+z
-x,-y,1/2+z
-x+y,-x,2/3+z
y,-x+y,5/6+z
x-y,-y,-z
-x,-x+y,2/3-z
y,x,1/3-z
-y,-x,5/6-z
-x+y,y,1/2-z
x,x-y,1/6-z
loop_
_atom_site_type_symbol
_atom_site_label
_atom_site_fract_x
_atom_site_fract_y
_atom_site_fract_z
Si Si1 0.764018 0.518962 0.481919
Si Si2 0.508967 0.358714 0.641486
Si Si3 0.604632 0.395369 0.916667
Si Si4 0.662084 0.160930 0.425294
Si Si5 0.063203 0.299214 0.245396
Si Si6 0.091050 0.626285 0.560530
Si Si7 0.329346 0.278212 0.866081
Si Si8 0.317826 0.317826 0.666667
O O1 0.782532 0.488026 0.382480
O O2 0.737879 0.437266 0.545931
O O3 0.694286 0.545716 0.471799
O O4 0.850530 0.598310 0.522144
O O5 0.590740 0.448863 0.663741
O O6 0.502151 0.349683 0.529810
O O7 0.413354 0.336931 0.662145
O O8 0.609397 0.457715 0.835641
O O9 0.743739 0.256262 0.416667
O O10 0.699911 0.099286 0.427585
O O11 0.142347 0.284693 0.250000
O O12 0.035379 0.282315 0.134017
O O13 0.000000 0.253096 0.333334
O O14 0.065478 0.532739 0.583334
O O15 0.008055 0.629739 0.539345
O O16 0.282094 0.263438 0.763674
#
# Coordination Sequence:
#
# PCOD9582564 Si02
#       8
#    12  12   6  12  12  12  12   6
#     4  10  21  39  57  78 120 160 217 280 337 405
#     4   9  20  36  53  79 115 157 219 272 335 382
#     4  10  20  36  54  74 108 168 218 276 344 394
#     4  10  22  36  54  79 117 171 224 274 334 395
#     4  11  26  42  67  96 134 172 214 266 329 409
#     4  11  25  35  59  89 118 165 223 288 337 401
#     4  10  22  40  65  86 126 166 223 275 346 404
#     4   8  18  38  60  88 112 162 216 274 334 392
#
# _framework density 20.413056999999998
#
# number of rings (size 3 to 8) (size 9 to 14) (size 15 to 20)
#    0.000    2.000    1.429    0.429    8.000    3.429 
#    0.000    0.000    0.000    0.000    0.000    0.000 
#    2.143    0.000    0.000    0.000    0.000    0.000 
#
# Total GULP energy -467783.936575 kJ/mol
# GULP energy per Si atom -5568.856388 kJ/mol
# Density = 2.036660 g / cm^3
# Si number density = 20.413057 Si / 1000 Ang^3
#
#
#
# Elastic Constant Matrix: (Units=GPa)
#
#
# Indices 1 2 3 4 5 6 
#
# 1 326.2138 -261.9558 32.8332 0.0000 0.0000 0.0000
# 2 -261.9558 326.2138 32.8332 0.0000 0.0000 0.0000
# 3 32.8332 32.8332 141.2435 0.0000 0.0000 0.0000
# 4 0.0000 0.0000 0.0000 16.4059 0.0000 0.0000
# 5 0.0000 0.0000 0.0000 0.0000 16.4059 0.0000
# 6 0.0000 0.0000 0.0000 0.0000 0.0000 294.0848
#
#
#
# Elastic Compliance Matrix: (Units=1/GPa)
#
#
# Indices 1 2 3 4 5 6 
#
# 1 0.011056 0.009355 -0.004745 0.000000 0.000000 0.000000
# 2 0.009355 0.011056 -0.004745 0.000000 0.000000 0.000000
# 3 -0.004745 -0.004745 0.009286 0.000000 0.000000 0.000000
# 4 0.000000 0.000000 0.000000 0.060954 0.000000 0.000000
# 5 0.000000 0.000000 0.000000 0.000000 0.060954 0.000000
# 6 0.000000 0.000000 0.000000 0.000000 0.000000 0.003400
#
#
# Mechanical properties :
#
#
# Convention : Reuss Voigt Hill
#
# Bulk Modulus (GPa) = 32.12443 44.56583 38.34513
# Shear Modulus (GPa) = 29.87766 131.37669 80.62718
#
# Velocity S-wave (km/s) = 3.82992 8.03112 6.29155
# Velocity P-wave (km/s) = 5.94383 10.38643 8.46189
#
# Compressibility (1/GPa) = 0.03112895
#
# Stress axis : x y z
#
# Youngs Moduli (GPa) = 90.45226 90.45227 107.69069
#
# Poissons Ratio (x) = -0.84621 0.51096
# Poissons Ratio (y) = -0.84621 0.51096
# Poissons Ratio (z) = 0.42917 0.42917
#
# Static dielectric constant tensor:
#      x y z
#    x 1.742160 0.000000 0.000000 
#    y 0.000000 1.742160 0.000000 
#    z 0.000000 0.000000 1.867370 
# 
# From -- ./inp_files/6057.got.cif
#   From: 2010.05.17/outbox.cif.g08.bks.cpg/sg178_4_cif.got.tgz:6057.got - 2010.05.20 11:30:59.
