data_PCOD9582809
_publ_section_title
;
Structure prediction by ZEFSAII (Michael W. Deem and Ramdas Pophale) SiO2 
 PCOD9582809
Probable space group: P 61 2 2
;
_chemical_formula_sum "Si O2"
_cell_formula_units_Z 48
_cell_length_a 16.632911
_cell_length_b 16.632911
_cell_length_c 7.918441
_cell_angle_alpha 90.000000
_cell_angle_beta 90.000000
_cell_angle_gamma 120.000000
_cell_volume 1897.172602
_symmetry_space_group_name_H-M "P 61 2 2"
_symmetry_group_IT_number 178
_symmetry_cell_setting 'hexagonal'
loop_
_space_group_symop_operation_xyz
x,y,z
x-y,x,1/6+z
-y,x-y,1/3+z
-x,-y,1/2+z
-x+y,-x,2/3+z
y,-x+y,5/6+z
x-y,-y,-z
-x,-x+y,2/3-z
y,x,1/3-z
-y,-x,5/6-z
-x+y,y,1/2-z
x,x-y,1/6-z
loop_
_atom_site_type_symbol
_atom_site_label
_atom_site_fract_x
_atom_site_fract_y
_atom_site_fract_z
Si Si1 0.213201 0.690090 0.153550
Si Si2 0.300857 0.950019 0.820256
Si Si3 0.049009 0.185738 0.013552
Si Si4 0.117352 0.474754 0.649810
O O1 0.291060 0.794586 0.198725
O O2 0.157098 0.652772 0.329281
O O3 0.253359 0.626680 0.083334
O O4 0.135187 0.680513 0.021885
O O5 0.369626 0.035197 0.698982
O O6 0.197122 0.908795 0.750215
O O7 0.319389 0.000000 0.000000
O O8 0.969190 0.120705 0.142906
O O9 0.000000 0.176772 0.833334
O O10 0.077362 0.538681 0.583334
#
# Coordination Sequence:
#
# PCOD9582809 Si02
#       4
#    12  12  12  12
#     4  11  25  43  70  98 137 178 231 287 345 415
#     4  12  25  43  66  98 137 184 229 288 345 412
#     4  10  22  43  70  98 136 177 230 283 348 416
#     4  11  25  43  69  99 136 179 230 285 350 412
#
# _framework density 25.300809000000001
#
# number of rings (size 3 to 8) (size 9 to 14) (size 15 to 20)
#    0.000    1.000    0.000    6.000    3.500   10.000 
#    0.000    8.750    0.000    0.000    0.000    0.000 
#    0.000    0.000    0.000    0.000    0.000    0.000 
#
# Total GULP energy -269373.977950 kJ/mol
# GULP energy per Si atom -5611.957874 kJ/mol
# Density = 2.524322 g / cm^3
# Si number density = 25.300809 Si / 1000 Ang^3
#
#
#
# Elastic Constant Matrix: (Units=GPa)
#
#
# Indices 1 2 3 4 5 6 
#
# 1 95.7905 26.7201 21.5611 0.0000 0.0000 0.0000
# 2 26.7201 95.7905 21.5611 0.0000 0.0000 0.0000
# 3 21.5611 21.5611 136.2390 0.0000 0.0000 0.0000
# 4 0.0000 0.0000 0.0000 41.7055 0.0000 0.0000
# 5 0.0000 0.0000 0.0000 0.0000 41.7055 0.0000
# 6 0.0000 0.0000 0.0000 0.0000 0.0000 34.5352
#
#
#
# Elastic Compliance Matrix: (Units=1/GPa)
#
#
# Indices 1 2 3 4 5 6 
#
# 1 0.011561 -0.002917 -0.001368 0.000000 0.000000 0.000000
# 2 -0.002917 0.011561 -0.001368 0.000000 0.000000 0.000000
# 3 -0.001368 -0.001368 0.007773 0.000000 0.000000 0.000000
# 4 0.000000 0.000000 0.000000 0.023978 0.000000 0.000000
# 5 0.000000 0.000000 0.000000 0.000000 0.023978 0.000000
# 6 0.000000 0.000000 0.000000 0.000000 0.000000 0.028956
#
#
# Mechanical properties :
#
#
# Convention : Reuss Voigt Hill
#
# Bulk Modulus (GPa) = 51.04860 51.94496 51.49678
# Shear Modulus (GPa) = 39.79559 40.78774 40.29167
#
# Velocity S-wave (km/s) = 3.97028 4.01947 3.99495
# Velocity P-wave (km/s) = 6.42168 6.48976 6.45581
#
# Compressibility (1/GPa) = 0.01958918
#
# Stress axis : x y z
#
# Youngs Moduli (GPa) = 86.49746 86.49746 128.64977
#
# Poissons Ratio (x) = 0.25231 0.17599
# Poissons Ratio (y) = 0.25231 0.17599
# Poissons Ratio (z) = 0.11833 0.11833
#
# Static dielectric constant tensor:
#      x y z
#    x 1.928450 0.000000 0.000000 
#    y 0.000000 1.928450 0.000000 
#    z 0.000000 0.000000 1.991830 
# 
# From -- ./inp_files/2587.got.cif
#   From: 2010.05.17/outbox.cif.g08.bks.cpg/sg178_2_cif.got.tgz:2587.got - 2010.05.20 11:30:59.
