data_PCOD9582594
_publ_section_title
;
Structure prediction by ZEFSAII (Michael W. Deem and Ramdas Pophale) SiO2 
 PCOD9582594
Probable space group: P 61 2 2
;
_chemical_formula_sum "Si O2"
_cell_formula_units_Z 60
_cell_length_a 15.603494
_cell_length_b 15.603494
_cell_length_c 14.335483
_cell_angle_alpha 90.000000
_cell_angle_beta 90.000000
_cell_angle_gamma 120.000000
_cell_volume 3022.641761
_symmetry_space_group_name_H-M "P 61 2 2"
_symmetry_group_IT_number 178
_symmetry_cell_setting 'hexagonal'
loop_
_space_group_symop_operation_xyz
x,y,z
x-y,x,1/6+z
-y,x-y,1/3+z
-x,-y,1/2+z
-x+y,-x,2/3+z
y,-x+y,5/6+z
x-y,-y,-z
-x,-x+y,2/3-z
y,x,1/3-z
-y,-x,5/6-z
-x+y,y,1/2-z
x,x-y,1/6-z
loop_
_atom_site_type_symbol
_atom_site_label
_atom_site_fract_x
_atom_site_fract_y
_atom_site_fract_z
Si Si1 0.542198 0.863329 0.551466
Si Si2 0.946477 0.652621 0.974438
Si Si3 0.815837 0.499094 0.121171
Si Si4 0.132823 0.118219 0.315919
Si Si5 0.527706 0.639356 0.166136
O O1 0.504908 0.752454 0.583334
O O2 0.594453 0.885463 0.450575
O O3 0.455770 0.889781 0.543936
O O4 0.625932 0.939988 0.620772
O O5 0.939317 0.750507 0.989050
O O6 0.906064 0.576564 0.058820
O O7 0.777061 0.388531 0.083334
O O8 0.852479 0.502836 0.226100
O O9 0.734993 0.534538 0.118275
O O10 0.084723 0.106757 0.418428
O O11 0.084044 0.168087 0.250000
O O12 0.619456 0.619456 0.166667
#
# Coordination Sequence:
#
# PCOD9582594 Si02
#       5
#    12  12  12  12  12
#     4  11  20  36  62  96 126 154 212 275 318 378
#     4  11  21  38  64  96 123 163 213 267 328 378
#     4  11  23  43  65  88 131 174 208 264 329 386
#     4  10  20  37  63  94 129 168 208 274 337 385
#     4  11  23  42  62  89 129 170 215 259 317 388
#
# _framework density 19.850185
#
# number of rings (size 3 to 8) (size 9 to 14) (size 15 to 20)
#    0.000    1.200    4.000    4.800    0.000    3.200 
#    0.000    2.000   30.800    0.000    0.000    0.000 
#    0.000    0.000    0.000    0.000    0.000    0.000 
#
# Total GULP energy -334938.221691 kJ/mol
# GULP energy per Si atom -5582.303695 kJ/mol
# Density = 1.980501 g / cm^3
# Si number density = 19.850185 Si / 1000 Ang^3
#
#
#
# Elastic Constant Matrix: (Units=GPa)
#
#
# Indices 1 2 3 4 5 6 
#
# 1 47.8388 -12.9969 5.4646 0.0000 0.0000 0.0000
# 2 -12.9969 47.8388 5.4646 0.0000 0.0000 0.0000
# 3 5.4646 5.4646 41.6487 0.0000 0.0000 0.0000
# 4 0.0000 0.0000 0.0000 10.3143 0.0000 0.0000
# 5 0.0000 0.0000 0.0000 0.0000 10.3143 0.0000
# 6 0.0000 0.0000 0.0000 0.0000 0.0000 30.4178
#
#
#
# Elastic Compliance Matrix: (Units=1/GPa)
#
#
# Indices 1 2 3 4 5 6 
#
# 1 0.023185 0.006748 -0.003927 0.000000 0.000000 0.000000
# 2 0.006748 0.023185 -0.003927 0.000000 0.000000 0.000000
# 3 -0.003927 -0.003927 0.025041 0.000000 0.000000 0.000000
# 4 0.000000 0.000000 0.000000 0.096953 0.000000 0.000000
# 5 0.000000 0.000000 0.000000 0.000000 0.096953 0.000000
# 6 0.000000 0.000000 0.000000 0.000000 0.000000 0.032875
#
#
# Mechanical properties :
#
#
# Convention : Reuss Voigt Hill
#
# Bulk Modulus (GPa) = 14.45140 14.79897 14.62519
# Shear Modulus (GPa) = 15.45725 19.50222 17.47973
#
# Velocity S-wave (km/s) = 2.79354 3.13784 2.97068
# Velocity P-wave (km/s) = 4.20728 4.53867 4.37611
#
# Compressibility (1/GPa) = 0.06919744
#
# Stress axis : x y z
#
# Youngs Moduli (GPa) = 43.13060 43.13060 39.93455
#
# Poissons Ratio (x) = -0.29103 0.15684
# Poissons Ratio (y) = -0.29103 0.15684
# Poissons Ratio (z) = 0.16939 0.16939
#
# Static dielectric constant tensor:
#      x y z
#    x 1.700930 0.000000 0.000000 
#    y 0.000000 1.700930 0.000000 
#    z 0.000000 0.000000 1.719320 
# 
# From -- ./inp_files/5688.got.cif
#   From: 2010.05.17/outbox.cif.g08.bks.cpg/sg178_3_cif.got.tgz:5688.got - 2010.05.20 11:30:59.
