data_PCOD9582132
_publ_section_title
;
Structure prediction by ZEFSAII (Michael W. Deem and Ramdas Pophale) SiO2 
 PCOD9582132
Probable space group: P 63/M
;
_chemical_formula_sum "Si O2"
_cell_formula_units_Z 48
_cell_length_a 12.100464
_cell_length_b 12.100464
_cell_length_c 18.821046
_cell_angle_alpha 90.000000
_cell_angle_beta 90.000000
_cell_angle_gamma 120.000000
_cell_volume 2386.593402
_symmetry_space_group_name_H-M "P 63/M"
_symmetry_group_IT_number 176
_symmetry_cell_setting 'hexagonal'
loop_
_space_group_symop_operation_xyz
x,y,z
x-y,x,1/2+z
-y,x-y,z
-x,-y,1/2+z
-x+y,-x,z
y,-x+y,1/2+z
-x,-y,-z
-x+y,-x,1/2-z
y,-x+y,-z
x,y,1/2-z
x-y,x,-z
-y,x-y,1/2-z
loop_
_atom_site_type_symbol
_atom_site_label
_atom_site_fract_x
_atom_site_fract_y
_atom_site_fract_z
Si Si1 0.613261 0.738878 0.931702
Si Si2 0.000000 0.000000 0.584609
Si Si3 0.666668 0.333334 0.033316
Si Si4 0.333334 0.666667 0.137279
Si Si5 0.121464 0.719658 0.169104
Si Si6 0.761956 0.030611 0.910795
O O1 0.461421 0.668475 0.941737
O O2 0.660911 0.663708 0.881384
O O3 0.657973 0.882022 0.904228
O O4 0.681360 0.755713 0.008586
O O5 0.894353 0.034249 0.605441
O O6 0.000000 0.000000 0.500000
O O7 0.666668 0.333334 0.948039
O O8 0.197211 0.643000 0.163364
O O9 0.085373 0.725291 0.250000
O O10 0.226391 0.859598 0.140364
#
# Coordination Sequence:
#
# PCOD9582132 Si02
#       6
#    12   4   4   4  12  12
#     4  12  24  43  70 102 138 178 232 289 346 410
#     4  12  15  33  61  98 127 168 220 284 355 381
#     4  12  27  43  74 106 132 184 245 292 330 421
#     4  12  25  49  72  97 139 184 236 280 340 412
#     4  12  27  44  68 102 141 182 228 285 351 418
#     4  12  20  39  69  98 137 177 227 291 343 402
#
# _framework density 20.112348000000001
#
# number of rings (size 3 to 8) (size 9 to 14) (size 15 to 20)
#    0.000    0.000   10.000    0.750    3.500    3.000 
#    0.000    1.250    0.000    0.000    0.000    0.000 
#    0.000    0.000    0.000    0.000    0.000    0.000 
#
# Total GULP energy -268200.969801 kJ/mol
# GULP energy per Si atom -5587.520204 kJ/mol
# Density = 2.006657 g / cm^3
# Si number density = 20.112348 Si / 1000 Ang^3
#
#
#
# Elastic Constant Matrix: (Units=GPa)
#
#
# Indices 1 2 3 4 5 6 
#
# 1 100.2082 30.3469 38.1393 0.0000 0.0000 0.0006
# 2 30.3469 100.2092 38.1396 0.0000 0.0000 0.0010
# 3 38.1393 38.1396 115.6748 0.0000 0.0000 0.0001
# 4 0.0000 0.0000 0.0000 -1.0104 -0.0014 0.0000
# 5 0.0000 0.0000 0.0000 -0.0014 -1.0084 0.0000
# 6 0.0006 0.0010 0.0001 0.0000 0.0000 34.9311
#
#
#
# Elastic Compliance Matrix: (Units=1/GPa)
#
#
# Indices 1 2 3 4 5 6 
#
# 1 0.011901 -0.002413 -0.003128 0.000000 0.000000 0.000000
# 2 -0.002413 0.011901 -0.003128 0.000000 0.000000 0.000000
# 3 -0.003128 -0.003128 0.010708 0.000000 0.000000 0.000000
# 4 0.000000 0.000000 0.000000 -0.989752 0.001350 0.000000
# 5 0.000000 0.000000 0.000000 0.001350 -0.991705 0.000000
# 6 0.000000 0.000000 0.000000 0.000000 0.000000 0.028628
#
#
# Mechanical properties :
#
#
# Convention : Reuss Voigt Hill
#
# Bulk Modulus (GPa) = 58.24178 58.81601 58.52890
# Shear Modulus (GPa) = -2.63816 20.54690 8.95437
#
# Velocity S-wave (km/s) = -1.14654 3.19972 2.11231
# Velocity P-wave (km/s) = 5.22191 6.55425 5.92565
#
# Compressibility (1/GPa) = 0.01716981
#
# Stress axis : x y z
#
# Youngs Moduli (GPa) = 84.02918 84.02997 93.39131
#
# Poissons Ratio (x) = 0.20280 0.29213
# Poissons Ratio (y) = 0.20280 0.29213
# Poissons Ratio (z) = 0.26285 0.26285
#
# Static dielectric constant tensor:
#      x y z
#    x 1.673090 0.000000 0.000000 
#    y 0.000000 1.673090 0.000000 
#    z 0.000000 0.000000 1.692030 
# 
# From -- ./inp_files/3684.got.cif
#   From: 2010.05.17/outbox.cif.g08.bks.cpg/sg176_2_cif.got.tgz:3684.got - 2010.06.03 11:36:45.
