data_PCOD9582331
_publ_section_title
;
Structure prediction by ZEFSAII (Michael W. Deem and Ramdas Pophale) SiO2 
 PCOD9582331
Probable space group: P 61 2 2
;
_chemical_formula_sum "Si O2"
_cell_formula_units_Z 60
_cell_length_a 10.100416
_cell_length_b 10.100416
_cell_length_c 28.299838
_cell_angle_alpha 90.000000
_cell_angle_beta 90.000000
_cell_angle_gamma 120.000000
_cell_volume 2500.305657
_symmetry_space_group_name_H-M "P 61 2 2"
_symmetry_group_IT_number 178
_symmetry_cell_setting 'hexagonal'
loop_
_space_group_symop_operation_xyz
x,y,z
x-y,x,1/6+z
-y,x-y,1/3+z
-x,-y,1/2+z
-x+y,-x,2/3+z
y,-x+y,5/6+z
x-y,-y,-z
-x,-x+y,2/3-z
y,x,1/3-z
-y,-x,5/6-z
-x+y,y,1/2-z
x,x-y,1/6-z
loop_
_atom_site_type_symbol
_atom_site_label
_atom_site_fract_x
_atom_site_fract_y
_atom_site_fract_z
Si Si1 0.000000 0.022955 0.333334
Si Si2 0.685021 0.217451 0.848335
Si Si3 0.860672 0.753535 0.923383
Si Si4 0.357593 0.715186 0.250000
Si Si5 0.807293 0.403647 0.583334
Si Si6 0.044993 0.581750 0.929798
Si Si7 0.425904 0.000000 0.500000
O O1 0.127734 0.014009 0.299596
O O2 0.093532 0.155661 0.373217
O O3 0.654173 0.190075 0.792637
O O4 0.661458 0.350036 0.872504
O O5 0.569046 0.071940 0.876595
O O6 0.861982 0.272914 0.853561
O O7 0.700612 0.589891 0.919308
O O8 0.987351 0.702015 0.934553
O O9 0.388487 0.596330 0.278490
O O10 0.051902 0.547595 0.874860
#
# Coordination Sequence:
#
# PCOD9582331 Si02
#       7
#     6  12  12   6   6  12   6
#     4  10  21  34  60  96 147 188 245 310 406 463
#     4  10  19  34  53  89 134 175 231 305 376 468
#     4  10  20  34  56  97 139 188 241 317 388 477
#     4  10  22  32  59  86 136 183 234 310 388 458
#     4  10  20  34  57  86 142 177 244 316 384 466
#     4  10  19  32  55  90 131 178 237 302 394 459
#     4  10  15  30  56  86 125 178 219 298 378 449
#
# _framework density 23.997067000000001
#
# number of rings (size 3 to 8) (size 9 to 14) (size 15 to 20)
#    0.000    2.000    4.000    1.800    5.600    0.000 
#    0.000    1.000    4.400    0.000    0.000    8.400 
#   30.000   15.200    0.000    0.000    0.000    0.000 
#
# Total GULP energy -334458.169266 kJ/mol
# GULP energy per Si atom -5574.302821 kJ/mol
# Density = 2.394245 g / cm^3
# Si number density = 23.997067 Si / 1000 Ang^3
#
#
#
# Elastic Constant Matrix: (Units=GPa)
#
#
# Indices 1 2 3 4 5 6 
#
# 1 111.6626 45.0496 50.0207 0.0000 0.0000 0.0000
# 2 45.0496 111.6626 50.0207 0.0000 0.0000 0.0000
# 3 50.0207 50.0207 152.5180 0.0000 0.0000 0.0000
# 4 0.0000 0.0000 0.0000 28.1088 0.0000 0.0000
# 5 0.0000 0.0000 0.0000 0.0000 28.1088 0.0000
# 6 0.0000 0.0000 0.0000 0.0000 0.0000 33.3065
#
#
#
# Elastic Compliance Matrix: (Units=1/GPa)
#
#
# Indices 1 2 3 4 5 6 
#
# 1 0.011541 -0.003471 -0.002647 0.000000 0.000000 0.000000
# 2 -0.003471 0.011541 -0.002647 0.000000 0.000000 0.000000
# 3 -0.002647 -0.002647 0.008293 0.000000 0.000000 0.000000
# 4 0.000000 0.000000 0.000000 0.035576 0.000000 0.000000
# 5 0.000000 0.000000 0.000000 0.000000 0.035576 0.000000
# 6 0.000000 0.000000 0.000000 0.000000 0.000000 0.030024
#
#
# Mechanical properties :
#
#
# Convention : Reuss Voigt Hill
#
# Bulk Modulus (GPa) = 72.21928 74.00279 73.11103
# Shear Modulus (GPa) = 32.32132 33.28831 32.80482
#
# Velocity S-wave (km/s) = 3.67398 3.72853 3.70135
# Velocity P-wave (km/s) = 6.93959 7.03144 6.98566
#
# Compressibility (1/GPa) = 0.01384672
#
# Stress axis : x y z
#
# Youngs Moduli (GPa) = 86.64391 86.64391 120.58591
#
# Poissons Ratio (x) = 0.30071 0.31919
# Poissons Ratio (y) = 0.30071 0.31919
# Poissons Ratio (z) = 0.22934 0.22934
#
# Static dielectric constant tensor:
#      x y z
#    x 1.930000 0.000000 0.000000 
#    y 0.000000 1.930000 0.000000 
#    z 0.000000 0.000000 1.910660 
# 
# From -- ./inp_files/8869.got.cif
#   From: 2010.05.17/outbox.cif.g08.bks.cpg/sg178_5_cif.got.tgz:8869.got - 2010.05.20 11:30:59.
