data_PCOD9582062
_publ_section_title
;
Structure prediction by ZEFSAII (Michael W. Deem and Ramdas Pophale) SiO2 
 PCOD9582062
Probable space group: P 63/M
;
_chemical_formula_sum "Si O2"
_cell_formula_units_Z 40
_cell_length_a 16.843003
_cell_length_b 16.843003
_cell_length_c 8.623347
_cell_angle_alpha 90.000000
_cell_angle_beta 90.000000
_cell_angle_gamma 120.000000
_cell_volume 2118.583307
_symmetry_space_group_name_H-M "P 63/M"
_symmetry_group_IT_number 176
_symmetry_cell_setting 'hexagonal'
loop_
_space_group_symop_operation_xyz
x,y,z
x-y,x,1/2+z
-y,x-y,z
-x,-y,1/2+z
-x+y,-x,z
y,-x+y,1/2+z
-x,-y,-z
-x+y,-x,1/2-z
y,-x+y,-z
x,y,1/2-z
x-y,x,-z
-y,x-y,1/2-z
loop_
_atom_site_type_symbol
_atom_site_label
_atom_site_fract_x
_atom_site_fract_y
_atom_site_fract_z
Si Si1 0.423890 0.563219 0.064200
Si Si2 0.614470 0.741443 0.063106
Si Si3 0.333334 0.666667 0.564260
Si Si4 0.702263 0.627849 0.064866
O O1 0.424091 0.557719 0.250000
O O2 0.519110 0.651362 0.013326
O O3 0.347609 0.586862 0.004836
O O4 0.389013 0.463368 0.994379
O O5 0.610449 0.746263 0.250000
O O6 0.691884 0.715211 0.020911
O O7 0.628687 0.836321 0.997379
O O8 0.333334 0.666668 0.750000
O O9 0.701962 0.622544 0.250000
#
# Coordination Sequence:
#
# PCOD9582062 Si02
#       4
#    12  12   4  12
#     4  11  21  36  57  81 117 159 190 229 283 329
#     4  10  23  40  58  83 115 150 189 234 286 338
#     4  12  22  32  52  84 118 155 199 234 265 323
#     4  11  23  38  59  86 113 148 193 235 279 338
#
# _framework density 18.880541999999998
#
# number of rings (size 3 to 8) (size 9 to 14) (size 15 to 20)
#    0.000    1.200    3.000    3.600    0.000    3.600 
#    0.000    0.000    0.000    0.600    0.000    0.000 
#    0.000    0.000    0.000    0.000    0.000    0.000 
#
# Total GULP energy -223357.864458 kJ/mol
# GULP energy per Si atom -5583.946611 kJ/mol
# Density = 1.883757 g / cm^3
# Si number density = 18.880542 Si / 1000 Ang^3
#
#
#
# Elastic Constant Matrix: (Units=GPa)
#
#
# Indices 1 2 3 4 5 6 
#
# 1 125.2086 68.6232 33.0668 0.0000 0.0000 -0.0001
# 2 68.6232 125.2095 33.0668 0.0000 0.0000 0.0004
# 3 33.0668 33.0668 33.7628 0.0000 0.0000 0.0002
# 4 0.0000 0.0000 0.0000 17.8271 0.0000 0.0000
# 5 0.0000 0.0000 0.0000 0.0000 17.8269 0.0000
# 6 -0.0001 0.0004 0.0002 0.0000 0.0000 28.2927
#
#
#
# Elastic Compliance Matrix: (Units=1/GPa)
#
#
# Indices 1 2 3 4 5 6 
#
# 1 0.012710 -0.004962 -0.007589 0.000000 0.000000 0.000000
# 2 -0.004962 0.012710 -0.007588 0.000000 0.000000 0.000000
# 3 -0.007589 -0.007588 0.044483 0.000000 0.000000 0.000000
# 4 0.000000 0.000000 0.000000 0.056094 0.000000 0.000000
# 5 0.000000 0.000000 0.000000 0.000000 0.056095 0.000000
# 6 0.000000 0.000000 0.000000 0.000000 0.000000 0.035345
#
#
# Mechanical properties :
#
#
# Convention : Reuss Voigt Hill
#
# Bulk Modulus (GPa) = 33.75527 61.52161 47.63844
# Shear Modulus (GPa) = 18.68527 22.75094 20.71811
#
# Velocity S-wave (km/s) = 3.14930 3.47507 3.31618
# Velocity P-wave (km/s) = 5.58043 6.98261 6.32053
#
# Compressibility (1/GPa) = 0.02962500
#
# Stress axis : x y z
#
# Youngs Moduli (GPa) = 78.67629 78.67713 22.48072
#
# Poissons Ratio (x) = 0.39040 0.17060
# Poissons Ratio (y) = 0.39039 0.17059
# Poissons Ratio (z) = 0.59704 0.59704
#
# Static dielectric constant tensor:
#      x y z
#    x 1.627240 0.000000 0.000000 
#    y 0.000000 1.627250 0.000000 
#    z 0.000000 0.000000 1.628660 
# 
# From -- ./inp_files/491.got.cif
#   From: 2010.05.17/outbox.cif.g08.bks.cpg/sg176_1_cif.got.tgz:491.got - 2010.06.03 11:36:45.
