data_PCOD9582974
_publ_section_title
;
Structure prediction by ZEFSAII (Michael W. Deem and Ramdas Pophale) SiO2 
 PCOD9582974
Probable space group: P 61 2 2
;
_chemical_formula_sum "Si O2"
_cell_formula_units_Z 24
_cell_length_a 10.415057
_cell_length_b 10.415057
_cell_length_c 9.797159
_cell_angle_alpha 90.000000
_cell_angle_beta 90.000000
_cell_angle_gamma 120.000000
_cell_volume 920.352275
_symmetry_space_group_name_H-M "P 61 2 2"
_symmetry_group_IT_number 178
_symmetry_cell_setting 'hexagonal'
loop_
_space_group_symop_operation_xyz
x,y,z
x-y,x,1/6+z
-y,x-y,1/3+z
-x,-y,1/2+z
-x+y,-x,2/3+z
y,-x+y,5/6+z
x-y,-y,-z
-x,-x+y,2/3-z
y,x,1/3-z
-y,-x,5/6-z
-x+y,y,1/2-z
x,x-y,1/6-z
loop_
_atom_site_type_symbol
_atom_site_label
_atom_site_fract_x
_atom_site_fract_y
_atom_site_fract_z
Si Si1 0.606368 0.171868 0.532626
Si Si2 0.905931 0.180052 0.189283
O O1 0.727850 0.272151 0.416667
O O2 0.537205 0.268603 0.583334
O O3 0.716773 0.166285 0.645387
O O4 0.489492 0.000000 0.500000
O O5 0.010067 0.212836 0.059742
O O6 0.000000 0.232611 0.333334
#
# Coordination Sequence:
#
# PCOD9582974 Si02
#       2
#    12  12
#     4  11  22  40  68 103 138 181 231 290 354 414
#     4   9  15  32  63 101 135 184 232 277 344 406
#
# _framework density 26.076969999999999
#
# number of rings (size 3 to 8) (size 9 to 14) (size 15 to 20)
#    0.000    2.000   10.000    0.000    0.000    2.000 
#    0.000    0.000    0.000   21.000    0.000   10.500 
#    0.000    0.000    0.000    0.000    0.000    0.000 
#
# Total GULP energy -134106.958436 kJ/mol
# GULP energy per Si atom -5587.789935 kJ/mol
# Density = 2.601762 g / cm^3
# Si number density = 26.076970 Si / 1000 Ang^3
#
#
#
# Elastic Constant Matrix: (Units=GPa)
#
#
# Indices 1 2 3 4 5 6 
#
# 1 165.1731 132.5177 66.2062 0.0000 0.0000 0.0000
# 2 132.5177 165.1731 66.2062 0.0000 0.0000 0.0000
# 3 66.2062 66.2062 79.5830 0.0000 0.0000 0.0000
# 4 0.0000 0.0000 0.0000 13.3158 0.0000 0.0000
# 5 0.0000 0.0000 0.0000 0.0000 13.3158 0.0000
# 6 0.0000 0.0000 0.0000 0.0000 0.0000 16.3277
#
#
#
# Elastic Compliance Matrix: (Units=1/GPa)
#
#
# Indices 1 2 3 4 5 6 
#
# 1 0.017978 -0.012645 -0.004436 0.000000 0.000000 0.000000
# 2 -0.012645 0.017978 -0.004436 0.000000 0.000000 0.000000
# 3 -0.004436 -0.004436 0.019946 0.000000 0.000000 0.000000
# 4 0.000000 0.000000 0.000000 0.075099 0.000000 0.000000
# 5 0.000000 0.000000 0.000000 0.000000 0.075099 0.000000
# 6 0.000000 0.000000 0.000000 0.000000 0.000000 0.061246
#
#
# Mechanical properties :
#
#
# Convention : Reuss Voigt Hill
#
# Bulk Modulus (GPa) = 77.71934 104.42101 91.07018
# Shear Modulus (GPa) = 15.88974 18.25846 17.07410
#
# Velocity S-wave (km/s) = 2.47116 2.64895 2.56160
# Velocity P-wave (km/s) = 6.16528 7.03465 6.61426
#
# Compressibility (1/GPa) = 0.01286681
#
# Stress axis : x y z
#
# Youngs Moduli (GPa) = 55.62490 55.62490 50.13461
#
# Poissons Ratio (x) = 0.70339 0.22240
# Poissons Ratio (y) = 0.70339 0.22240
# Poissons Ratio (z) = 0.24675 0.24675
#
# Static dielectric constant tensor:
#      x y z
#    x 2.124310 0.000000 0.000000 
#    y 0.000000 2.124310 0.000000 
#    z 0.000000 0.000000 2.070930 
# 
# From -- ./inp_files/3700.got.cif
#   From: 2010.05.17/outbox.cif.g08.bks.cpg/sg178_2_cif.got.tgz:3700.got - 2010.05.20 11:30:59.
