data_PCOD9582215
_publ_section_title
;
Structure prediction by ZEFSAII (Michael W. Deem and Ramdas Pophale) SiO2 
 PCOD9582215
Probable space group: P 6 2 2
;
_chemical_formula_sum "Si O2"
_cell_formula_units_Z 84
_cell_length_a 30.997669
_cell_length_b 30.997669
_cell_length_c 5.459915
_cell_angle_alpha 90.000000
_cell_angle_beta 90.000000
_cell_angle_gamma 120.000000
_cell_volume 4543.333178
_symmetry_space_group_name_H-M "P 6 2 2"
_symmetry_group_IT_number 177
_symmetry_cell_setting 'hexagonal'
loop_
_space_group_symop_operation_xyz
x,y,z
x-y,x,z
-y,x-y,z
-x,-y,z
-x+y,-x,z
y,-x+y,z
x-y,-y,-z
-x,-x+y,-z
y,x,-z
-y,-x,-z
-x+y,y,-z
x,x-y,-z
loop_
_atom_site_type_symbol
_atom_site_label
_atom_site_fract_x
_atom_site_fract_y
_atom_site_fract_z
Si Si1 0.121370 0.514522 0.092562
Si Si2 0.317967 0.029310 0.748152
Si Si3 0.642829 0.409836 0.747233
Si Si4 0.215139 0.784862 0.500000
Si Si5 0.735351 0.264650 0.000000
Si Si6 0.028552 0.421539 0.255028
Si Si7 0.862318 0.640081 0.097997
Si Si8 0.298675 0.842614 0.819779
O O1 0.173968 0.549663 0.227205
O O2 0.081686 0.470881 0.259049
O O3 0.103353 0.551677 0.000000
O O4 0.126267 0.483320 0.863452
O O5 0.372737 0.034739 0.738447
O O6 0.327289 0.085059 0.772466
O O7 0.290521 0.000000 0.500000
O O8 0.292967 0.000000 0.000000
O O9 0.620764 0.379237 0.500000
O O10 0.702323 0.436112 0.778667
O O11 0.621531 0.378470 0.000000
O O12 0.215075 0.818698 0.281190
O O13 0.273136 0.814701 0.569276
O O14 0.714744 0.206571 0.972948
O O15 0.000000 0.419967 0.500000
O O16 0.000000 0.417600 0.000000
O O17 0.834677 0.669354 0.000000
O O18 0.868461 0.601250 0.914777
#
# Coordination Sequence:
#
# PCOD9582215 Si02
#       8
#    12  12  12   6   6  12  12  12
#     4  10  22  40  56  78 113 143 178 231 277 335
#     4  10  22  37  58  84 118 158 189 231 291 354
#     4  10  24  43  61  87 109 136 169 209 271 337
#     4  10  20  30  62  84 112 144 180 248 286 340
#     4  10  20  40  62  84 108 134 170 218 270 328
#     4  10  22  39  60  80 105 147 192 225 268 333
#     4  10  20  35  55  88 116 146 195 243 288 346
#     4  10  19  36  53  86 108 137 181 226 286 333
#
# _framework density 18.488629
#
# number of rings (size 3 to 8) (size 9 to 14) (size 15 to 20)
#    0.000    2.000    3.571    0.000    4.000    7.714 
#    0.429    0.714    0.000    0.000    0.000    0.000 
#    0.000    0.000    0.000    0.000    0.000    0.000 
#
# Total GULP energy -468141.126026 kJ/mol
# GULP energy per Si atom -5573.108643 kJ/mol
# Density = 1.844655 g / cm^3
# Si number density = 18.488629 Si / 1000 Ang^3
#
#
#
# Elastic Constant Matrix: (Units=GPa)
#
#
# Indices 1 2 3 4 5 6 
#
# 1 58.1839 28.2250 27.9199 0.0000 0.0000 0.0000
# 2 28.2250 58.1839 27.9199 0.0000 0.0000 0.0000
# 3 27.9199 27.9199 94.6264 0.0000 0.0000 0.0000
# 4 0.0000 0.0000 0.0000 17.1770 0.0000 0.0000
# 5 0.0000 0.0000 0.0000 0.0000 17.1770 0.0000
# 6 0.0000 0.0000 0.0000 0.0000 0.0000 14.9794
#
#
#
# Elastic Compliance Matrix: (Units=1/GPa)
#
#
# Indices 1 2 3 4 5 6 
#
# 1 0.023839 -0.009540 -0.004219 0.000000 0.000000 0.000000
# 2 -0.009540 0.023839 -0.004219 0.000000 0.000000 0.000000
# 3 -0.004219 -0.004219 0.013058 0.000000 0.000000 0.000000
# 4 0.000000 0.000000 0.000000 0.058218 0.000000 0.000000
# 5 0.000000 0.000000 0.000000 0.000000 0.058218 0.000000
# 6 0.000000 0.000000 0.000000 0.000000 0.000000 0.066758
#
#
# Mechanical properties :
#
#
# Convention : Reuss Voigt Hill
#
# Bulk Modulus (GPa) = 40.35515 42.12488 41.24001
# Shear Modulus (GPa) = 17.35233 18.32861 17.84047
#
# Velocity S-wave (km/s) = 3.06689 3.15198 3.10972
# Velocity P-wave (km/s) = 5.86647 6.00669 5.93699
#
# Compressibility (1/GPa) = 0.02477998
#
# Stress axis : x y z
#
# Youngs Moduli (GPa) = 41.94759 41.94759 76.58377
#
# Poissons Ratio (x) = 0.40018 0.32311
# Poissons Ratio (y) = 0.40018 0.32311
# Poissons Ratio (z) = 0.17698 0.17698
#
# Static dielectric constant tensor:
#      x y z
#    x 1.693370 0.000000 0.000000 
#    y 0.000000 1.693370 0.000000 
#    z 0.000000 0.000000 1.817270 
# 
# From -- ./inp_files/724.got.cif
#   From: 2010.05.17/outbox.cif.g08.bks.cpg/sg177_1_cif.got.tgz:724.got - 2010.05.20 11:28:44.
