data_PCOD9582010
_publ_section_title
;
Structure prediction by ZEFSAII (Michael W. Deem and Ramdas Pophale) SiO2 
 PCOD9582010
Probable space group: P 63/M
;
_chemical_formula_sum "Si O2"
_cell_formula_units_Z 42
_cell_length_a 12.811781
_cell_length_b 12.811781
_cell_length_c 10.540971
_cell_angle_alpha 90.000000
_cell_angle_beta 90.000000
_cell_angle_gamma 120.000000
_cell_volume 1498.408621
_symmetry_space_group_name_H-M "P 63/M"
_symmetry_group_IT_number 176
_symmetry_cell_setting 'hexagonal'
loop_
_space_group_symop_operation_xyz
x,y,z
x-y,x,1/2+z
-y,x-y,z
-x,-y,1/2+z
-x+y,-x,z
y,-x+y,1/2+z
-x,-y,-z
-x+y,-x,1/2-z
y,-x+y,-z
x,y,1/2-z
x-y,x,-z
-y,x-y,1/2-z
loop_
_atom_site_type_symbol
_atom_site_label
_atom_site_fract_x
_atom_site_fract_y
_atom_site_fract_z
Si Si1 0.337319 0.417819 0.399379
Si Si2 0.922673 0.077327 0.250000
Si Si3 0.807062 0.192938 0.394532
Si Si4 0.582180 0.662681 0.100621
O O1 0.309468 0.382893 0.250000
O O2 0.400067 0.330062 0.427101
O O3 0.204270 0.408540 0.439117
O O4 0.442532 0.557468 0.397113
O O5 0.880163 0.119836 0.371231
O O6 0.064707 0.129414 0.250000
O O7 0.779259 0.220741 0.250000
O O8 0.929995 0.330062 0.427101
O O9 0.617107 0.690532 0.250000
#
# Coordination Sequence:
#
# PCOD9582010 Si02
#       4
#    12   6  12  12
#     4  10  21  40  66  98 136 176 230 303 372 458
#     4   8  20  46  72 100 146 198 260 326 386 426
#     4  10  21  39  69 104 133 199 242 307 379 463
#     4  10  21  40  66  98 136 176 230 303 372 458
#
# _framework density 28.029734999999999
#
# number of rings (size 3 to 8) (size 9 to 14) (size 15 to 20)
#    1.143    1.143    0.000    2.571    0.000    3.429 
#    6.857    0.000    0.000    6.857    0.000    0.000 
#    0.000    0.000    0.000    0.000    0.000    0.000 
#
# Total GULP energy -234584.066841 kJ/mol
# GULP energy per Si atom -5585.334925 kJ/mol
# Density = 2.796594 g / cm^3
# Si number density = 28.029735 Si / 1000 Ang^3
#
#
#
# Elastic Constant Matrix: (Units=GPa)
#
#
# Indices 1 2 3 4 5 6 
#
# 1 162.9231 74.6123 101.4964 0.0000 0.0000 0.0000
# 2 74.6123 162.9231 101.4964 0.0000 0.0000 0.0000
# 3 101.4964 101.4964 301.9769 0.0000 0.0000 0.0000
# 4 0.0000 0.0000 0.0000 74.5736 0.0000 0.0000
# 5 0.0000 0.0000 0.0000 0.0000 74.5736 0.0000
# 6 0.0000 0.0000 0.0000 0.0000 0.0000 44.1554
#
#
#
# Elastic Compliance Matrix: (Units=1/GPa)
#
#
# Indices 1 2 3 4 5 6 
#
# 1 0.008615 -0.002709 -0.001985 0.000000 0.000000 0.000000
# 2 -0.002709 0.008615 -0.001985 0.000000 0.000000 0.000000
# 3 -0.001985 -0.001985 0.004646 0.000000 0.000000 0.000000
# 4 0.000000 0.000000 0.000000 0.013410 0.000000 0.000000
# 5 0.000000 0.000000 0.000000 0.000000 0.013410 0.000000
# 6 0.000000 0.000000 0.000000 0.000000 0.000000 0.022647
#
#
# Mechanical properties :
#
#
# Convention : Reuss Voigt Hill
#
# Bulk Modulus (GPa) = 117.39780 131.44813 124.42297
# Shear Modulus (GPa) = 57.11694 62.00841 59.56267
#
# Velocity S-wave (km/s) = 4.51902 4.70854 4.61475
# Velocity P-wave (km/s) = 8.31883 8.74976 8.53701
#
# Compressibility (1/GPa) = 0.00851805
#
# Stress axis : x y z
#
# Youngs Moduli (GPa) = 116.07642 116.07642 215.24023
#
# Poissons Ratio (x) = 0.31441 0.42729
# Poissons Ratio (y) = 0.31441 0.42729
# Poissons Ratio (z) = 0.23043 0.23043
#
# Static dielectric constant tensor:
#      x y z
#    x 2.082160 0.000000 0.000000 
#    y 0.000000 2.082160 0.000000 
#    z 0.000000 0.000000 2.261360 
# 
# From -- ./inp_files/1628.got.cif
#   From: 2010.05.17/outbox.cif.g08.bks.cpg/sg176_1_cif.got.tgz:1628.got - 2010.06.03 11:36:45.
