data_PCOD9582154
_publ_section_title
;
Structure prediction by ZEFSAII (Michael W. Deem and Ramdas Pophale) SiO2 
 PCOD9582154
Probable space group: P 63/M
;
_chemical_formula_sum "Si O2"
_cell_formula_units_Z 72
_cell_length_a 24.000000
_cell_length_b 24.000000
_cell_length_c 9.000000
_cell_angle_alpha 90.000000
_cell_angle_beta 90.000000
_cell_angle_gamma 120.000000
_cell_volume 4489.475693
_symmetry_space_group_name_H-M "P 63/M"
_symmetry_group_IT_number 176
_symmetry_cell_setting 'hexagonal'
loop_
_space_group_symop_operation_xyz
x,y,z
x-y,x,1/2+z
-y,x-y,z
-x,-y,1/2+z
-x+y,-x,z
y,-x+y,1/2+z
-x,-y,-z
-x+y,-x,1/2-z
y,-x+y,-z
x,y,1/2-z
x-y,x,-z
-y,x-y,1/2-z
loop_
_atom_site_type_symbol
_atom_site_label
_atom_site_fract_x
_atom_site_fract_y
_atom_site_fract_z
Si Si1 0.131818 0.632688 0.930782
Si Si2 0.364937 0.863482 0.928230
Si Si3 0.748557 0.746102 0.068975
Si Si4 0.620155 0.996150 0.070386
Si Si5 0.143213 0.851617 0.429539
Si Si6 0.447513 0.222666 0.930226
O O1 0.131198 0.636906 0.750000
O O2 0.142041 0.571038 0.966482
O O3 0.063634 0.620142 0.998268
O O4 0.184636 0.703008 0.997803
O O5 0.355309 0.852391 0.750000
O O6 0.378734 0.936374 0.956669
O O7 0.296667 0.815138 0.009031
O O8 0.749119 0.742089 0.250000
O O9 0.739621 0.809754 0.035063
O O10 0.684906 0.683797 0.001030
O O11 0.810363 0.739760 0.005173
O O12 0.620320 0.987211 0.250000
O O13 0.133869 0.847868 0.250000
O O14 0.183762 0.814314 0.464628
O O15 0.452904 0.223135 0.750000
#
# Coordination Sequence:
#
# PCOD9582154 Si02
#       6
#    12  12  12  12  12  12
#     4  11  23  39  58  82 114 152 196 240 290 349
#     4  10  23  40  58  82 113 153 195 239 292 348
#     4  11  22  37  61  90 121 158 192 233 291 347
#     4  11  21  35  58  87 117 149 188 236 291 345
#     4  10  22  39  59  90 125 153 193 242 286 344
#     4  11  22  38  60  85 115 151 194 247 297 346
#
# _framework density 16.037507000000002
#
# number of rings (size 3 to 8) (size 9 to 14) (size 15 to 20)
#    0.000    1.333    3.333    2.500    0.000    4.000 
#    1.000    0.000    0.000    0.333    0.000    0.000 
#    0.000    0.000    0.000    0.000    0.000    0.000 
#
# Total GULP energy -401371.395090 kJ/mol
# GULP energy per Si atom -5574.602710 kJ/mol
# Density = 1.600101 g / cm^3
# Si number density = 16.037507 Si / 1000 Ang^3
#
#
#
# Elastic Constant Matrix: (Units=GPa)
#
#
# Indices 1 2 3 4 5 6 
#
# 1 162.3883 78.2722 54.0654 0.0000 0.0000 0.0000
# 2 78.2722 162.3883 54.0654 0.0000 0.0000 0.0000
# 3 54.0654 54.0654 94.6197 0.0000 0.0000 0.0000
# 4 0.0000 0.0000 0.0000 37.9045 0.0000 0.0000
# 5 0.0000 0.0000 0.0000 0.0000 37.9045 0.0000
# 6 0.0000 0.0000 0.0000 0.0000 0.0000 42.0581
#
#
#
# Elastic Compliance Matrix: (Units=1/GPa)
#
#
# Indices 1 2 3 4 5 6 
#
# 1 0.008739 -0.003149 -0.003194 0.000000 0.000000 0.000000
# 2 -0.003149 0.008739 -0.003194 0.000000 0.000000 0.000000
# 3 -0.003194 -0.003194 0.014219 0.000000 0.000000 0.000000
# 4 0.000000 0.000000 0.000000 0.026382 0.000000 0.000000
# 5 0.000000 0.000000 0.000000 0.000000 0.026382 0.000000
# 6 0.000000 0.000000 0.000000 0.000000 0.000000 0.023777
#
#
# Mechanical properties :
#
#
# Convention : Reuss Voigt Hill
#
# Bulk Modulus (GPa) = 79.22310 88.02246 83.62278
# Shear Modulus (GPa) = 38.01654 39.10632 38.56143
#
# Velocity S-wave (km/s) = 4.87404 4.94340 4.90884
# Velocity P-wave (km/s) = 9.01004 9.35882 9.18609
#
# Compressibility (1/GPa) = 0.01262258
#
# Stress axis : x y z
#
# Youngs Moduli (GPa) = 114.42421 114.42421 70.32773
#
# Poissons Ratio (x) = 0.36031 0.22465
# Poissons Ratio (y) = 0.36031 0.22465
# Poissons Ratio (z) = 0.36552 0.36552
#
# Static dielectric constant tensor:
#      x y z
#    x 1.548400 0.000000 0.000000 
#    y 0.000000 1.548400 0.000000 
#    z 0.000000 0.000000 1.547860 
# 
# From -- ./inp_files/1194.got.cif
#   From: 2010.05.17/outbox.ucp.g08.bks.cvg/sg176_1_cif.got.tgz:1194.got - 2010.06.11 15:18:56.
