data_PCOD9582585
_publ_section_title
;
Structure prediction by ZEFSAII (Michael W. Deem and Ramdas Pophale) SiO2 
 PCOD9582585
Probable space group: P 61 2 2
;
_chemical_formula_sum "Si O2"
_cell_formula_units_Z 48
_cell_length_a 14.502783
_cell_length_b 14.502783
_cell_length_c 11.569457
_cell_angle_alpha 90.000000
_cell_angle_beta 90.000000
_cell_angle_gamma 120.000000
_cell_volume 2107.396748
_symmetry_space_group_name_H-M "P 61 2 2"
_symmetry_group_IT_number 178
_symmetry_cell_setting 'hexagonal'
loop_
_space_group_symop_operation_xyz
x,y,z
x-y,x,1/6+z
-y,x-y,1/3+z
-x,-y,1/2+z
-x+y,-x,2/3+z
y,-x+y,5/6+z
x-y,-y,-z
-x,-x+y,2/3-z
y,x,1/3-z
-y,-x,5/6-z
-x+y,y,1/2-z
x,x-y,1/6-z
loop_
_atom_site_type_symbol
_atom_site_label
_atom_site_fract_x
_atom_site_fract_y
_atom_site_fract_z
Si Si1 0.298975 0.427004 0.673474
Si Si2 0.876047 0.501263 0.819242
Si Si3 0.270171 0.417403 0.406214
Si Si4 0.182614 0.153279 0.968641
O O1 0.350570 0.350570 0.666667
O O2 0.193590 0.387179 0.750000
O O3 0.387718 0.547332 0.710490
O O4 0.280209 0.439252 0.540245
O O5 0.831910 0.573702 0.869972
O O6 0.856060 0.498932 0.681859
O O7 0.000000 0.562445 0.833334
O O8 0.254518 0.299635 0.385143
O O9 0.164343 0.081124 0.852200
O O10 0.199363 0.099682 0.083334
#
# Coordination Sequence:
#
# PCOD9582585 Si02
#       4
#    12  12  12  12
#     4  11  28  47  67 104 148 189 229 286 368 442
#     4  10  22  41  70 103 129 175 235 297 351 419
#     4  11  22  40  73  99 137 180 239 291 365 436
#     4  10  20  36  66  96 133 180 246 304 362 422
#
# _framework density 22.776916
#
# number of rings (size 3 to 8) (size 9 to 14) (size 15 to 20)
#    0.000    1.500    2.500    2.250    7.000    5.000 
#    0.000    0.000   16.500    0.000    0.000    0.000 
#    0.000    0.000    0.000    0.000    0.000    0.000 
#
# Total GULP energy -267371.670002 kJ/mol
# GULP energy per Si atom -5570.243125 kJ/mol
# Density = 2.272507 g / cm^3
# Si number density = 22.776916 Si / 1000 Ang^3
#
#
#
# Elastic Constant Matrix: (Units=GPa)
#
#
# Indices 1 2 3 4 5 6 
#
# 1 92.2925 25.3699 24.3951 0.0000 0.0000 0.0000
# 2 25.3699 92.2925 24.3951 0.0000 0.0000 0.0000
# 3 24.3951 24.3951 71.7232 0.0000 0.0000 0.0000
# 4 0.0000 0.0000 0.0000 53.1833 0.0000 0.0000
# 5 0.0000 0.0000 0.0000 0.0000 53.1834 0.0000
# 6 0.0000 0.0000 0.0000 0.0000 0.0000 33.4613
#
#
#
# Elastic Compliance Matrix: (Units=1/GPa)
#
#
# Indices 1 2 3 4 5 6 
#
# 1 0.012419 -0.002524 -0.003365 0.000000 0.000000 0.000000
# 2 -0.002524 0.012419 -0.003365 0.000000 0.000000 0.000000
# 3 -0.003365 -0.003365 0.016232 0.000000 0.000000 0.000000
# 4 0.000000 0.000000 0.000000 0.018803 0.000000 0.000000
# 5 0.000000 0.000000 0.000000 0.000000 0.018803 0.000000
# 6 0.000000 0.000000 0.000000 0.000000 0.000000 0.029885
#
#
# Mechanical properties :
#
#
# Convention : Reuss Voigt Hill
#
# Bulk Modulus (GPa) = 44.32798 44.95872 44.64335
# Shear Modulus (GPa) = 37.15008 40.10881 38.62944
#
# Velocity S-wave (km/s) = 4.04300 4.20091 4.12271
# Velocity P-wave (km/s) = 6.42639 6.58117 6.50424
#
# Compressibility (1/GPa) = 0.02255912
#
# Stress axis : x y z
#
# Youngs Moduli (GPa) = 80.52497 80.52497 61.60751
#
# Poissons Ratio (x) = 0.20326 0.20733
# Poissons Ratio (y) = 0.20326 0.20733
# Poissons Ratio (z) = 0.27100 0.27100
#
# Static dielectric constant tensor:
#      x y z
#    x -1.420560 0.000000 0.000000 
#    y 0.000000 -1.420560 0.000000 
#    z 0.000000 0.000000 1.870360 
# 
# From -- ./inp_files/4103.got.cif
#   From: 2010.05.17/outbox.cif.g08.bks.cpg/sg178_3_cif.got.tgz:4103.got - 2010.05.20 11:30:59.
