data_PCOD9582101
_publ_section_title
;
Structure prediction by ZEFSAII (Michael W. Deem and Ramdas Pophale) SiO2 
 PCOD9582101
Probable space group: P 63/M
;
_chemical_formula_sum "Si O2"
_cell_formula_units_Z 80
_cell_length_a 18.398564
_cell_length_b 18.398564
_cell_length_c 18.780971
_cell_angle_alpha 90.000000
_cell_angle_beta 90.000000
_cell_angle_gamma 120.000000
_cell_volume 5505.750532
_symmetry_space_group_name_H-M "P 63/M"
_symmetry_group_IT_number 176
_symmetry_cell_setting 'hexagonal'
loop_
_space_group_symop_operation_xyz
x,y,z
x-y,x,1/2+z
-y,x-y,z
-x,-y,1/2+z
-x+y,-x,z
y,-x+y,1/2+z
-x,-y,-z
-x+y,-x,1/2-z
y,-x+y,-z
x,y,1/2-z
x-y,x,-z
-y,x-y,1/2-z
loop_
_atom_site_type_symbol
_atom_site_label
_atom_site_fract_x
_atom_site_fract_y
_atom_site_fract_z
Si Si1 0.333334 0.666668 0.521733
Si Si2 0.910978 0.348355 0.421265
Si Si3 0.666667 0.333334 0.851812
Si Si4 0.494226 0.088192 0.582859
Si Si5 0.204877 0.475617 0.930867
Si Si6 0.750051 0.522605 0.670119
Si Si7 0.326355 0.900028 0.425849
Si Si8 0.501408 0.418066 0.335054
O O1 0.333334 0.666667 0.436850
O O2 0.297901 0.726705 0.546562
O O3 0.914494 0.385784 0.500169
O O4 0.828685 0.257467 0.417287
O O5 0.900838 0.409066 0.364934
O O6 0.002624 0.357833 0.414637
O O7 0.696003 0.269168 0.827074
O O8 0.484289 0.159916 0.621300
O O9 0.588206 0.103794 0.584964
O O10 0.437685 0.002099 0.624892
O O11 0.155598 0.484330 0.864028
O O12 0.139620 0.432875 0.996152
O O13 0.747185 0.550447 0.750000
O O14 0.838248 0.578088 0.631532
O O15 0.497029 0.421455 0.250000
#
# Coordination Sequence:
#
# PCOD9582101 Si02
#       8
#     4  12   4  12  12  12  12  12
#     4  12  18  31  50  70  81 124 176 211 231 274
#     4  11  21  35  55  69  91 130 172 211 252 294
#     4  12  19  28  42  67  94 121 167 199 238 295
#     4  11  19  35  53  70  94 129 168 205 253 301
#     4  12  19  35  52  68  93 127 171 211 248 291
#     4  12  22  30  46  72 101 126 156 205 255 295
#     4  11  20  32  50  71  94 123 165 207 249 297
#     4  11  23  35  49  72 101 129 168 215 254 298
#
# _framework density 14.530262
#
# number of rings (size 3 to 8) (size 9 to 14) (size 15 to 20)
#    0.000    0.600    9.000    1.800    0.000    3.000 
#    0.000    0.000    0.000    0.000    0.000    0.000 
#    0.000    0.000    0.000    8.100    0.000    5.100 
#
# Total GULP energy -446629.863974 kJ/mol
# GULP energy per Si atom -5582.873300 kJ/mol
# Density = 1.449719 g / cm^3
# Si number density = 14.530262 Si / 1000 Ang^3
#
#
#
# Elastic Constant Matrix: (Units=GPa)
#
#
# Indices 1 2 3 4 5 6 
#
# 1 71.5974 27.9204 15.6207 0.0000 0.0000 0.0000
# 2 27.9204 71.5974 15.6205 0.0000 0.0000 0.0000
# 3 15.6207 15.6205 87.7241 0.0000 0.0000 0.0001
# 4 0.0000 0.0000 0.0000 10.9388 0.0001 0.0000
# 5 0.0000 0.0000 0.0000 0.0001 10.9391 0.0000
# 6 0.0000 0.0000 0.0001 0.0000 0.0000 21.8385
#
#
#
# Elastic Compliance Matrix: (Units=1/GPa)
#
#
# Indices 1 2 3 4 5 6 
#
# 1 0.016769 -0.006126 -0.001895 0.000000 0.000000 0.000000
# 2 -0.006126 0.016769 -0.001895 0.000000 0.000000 0.000000
# 3 -0.001895 -0.001895 0.012074 0.000000 0.000000 0.000000
# 4 0.000000 0.000000 0.000000 0.091417 -0.000001 0.000000
# 5 0.000000 0.000000 0.000000 -0.000001 0.091416 0.000000
# 6 0.000000 0.000000 0.000000 0.000000 0.000000 0.045791
#
#
# Mechanical properties :
#
#
# Convention : Reuss Voigt Hill
#
# Bulk Modulus (GPa) = 38.78936 38.80468 38.79702
# Shear Modulus (GPa) = 16.52002 20.19376 18.35689
#
# Velocity S-wave (km/s) = 3.37551 3.73201 3.55823
# Velocity P-wave (km/s) = 6.47654 6.73310 6.60607
#
# Compressibility (1/GPa) = 0.02578026
#
# Stress axis : x y z
#
# Youngs Moduli (GPa) = 59.63252 59.63253 82.82038
#
# Poissons Ratio (x) = 0.36531 0.15697
# Poissons Ratio (y) = 0.36531 0.15696
# Poissons Ratio (z) = 0.11302 0.11302
#
# Static dielectric constant tensor:
#      x y z
#    x 1.487650 0.000000 0.000000 
#    y 0.000000 1.487660 0.000000 
#    z 0.000000 0.000000 1.492950 
# 
# From -- ./inp_files/3517.got.cif
#   From: 2010.05.17/outbox.cif.g08.bks.cpg/sg176_2_cif.got.tgz:3517.got - 2010.06.03 11:36:45.
