data_PCOD9582506
_publ_section_title
;
Structure prediction by ZEFSAII (Michael W. Deem and Ramdas Pophale) SiO2 
 PCOD9582506
Probable space group: P 61 2 2
;
_chemical_formula_sum "Si O2"
_cell_formula_units_Z 42
_cell_length_a 7.788739
_cell_length_b 7.788739
_cell_length_c 28.899736
_cell_angle_alpha 90.000000
_cell_angle_beta 90.000000
_cell_angle_gamma 120.000000
_cell_volume 1518.304255
_symmetry_space_group_name_H-M "P 61 2 2"
_symmetry_group_IT_number 178
_symmetry_cell_setting 'hexagonal'
loop_
_space_group_symop_operation_xyz
x,y,z
x-y,x,1/6+z
-y,x-y,1/3+z
-x,-y,1/2+z
-x+y,-x,2/3+z
y,-x+y,5/6+z
x-y,-y,-z
-x,-x+y,2/3-z
y,x,1/3-z
-y,-x,5/6-z
-x+y,y,1/2-z
x,x-y,1/6-z
loop_
_atom_site_type_symbol
_atom_site_label
_atom_site_fract_x
_atom_site_fract_y
_atom_site_fract_z
Si Si1 0.161794 0.529498 0.182094
Si Si2 0.459654 0.450453 0.720511
Si Si3 0.348182 0.166633 0.275527
Si Si4 0.078678 0.921323 0.416667
O O1 0.384456 0.565862 0.186955
O O2 0.122783 0.619805 0.229215
O O3 0.110696 0.627292 0.139582
O O4 0.006082 0.296372 0.190047
O O5 0.531635 0.675138 0.735498
O O6 0.225875 0.316566 0.712206
O O7 0.155303 0.993575 0.252265
#
# Coordination Sequence:
#
# PCOD9582506 Si02
#       4
#    12  12  12   6
#     4   9  18  40  59  83 127 163 204 265 321 376
#     4   9  21  37  60  92 124 162 217 260 320 389
#     4  10  19  38  64  87 128 171 210 268 325 389
#     4  12  20  38  68  86 134 164 208 278 314 388
#
# _framework density 27.662441000000001
#
# number of rings (size 3 to 8) (size 9 to 14) (size 15 to 20)
#    1.714    0.571    2.857    1.714    0.000    1.143 
#    0.000    5.714    6.286    0.000    0.000    0.000 
#    0.000    0.000    0.000    0.000    0.000    0.000 
#
# Total GULP energy -234546.303973 kJ/mol
# GULP energy per Si atom -5584.435809 kJ/mol
# Density = 2.759948 g / cm^3
# Si number density = 27.662441 Si / 1000 Ang^3
#
#
#
# Elastic Constant Matrix: (Units=GPa)
#
#
# Indices 1 2 3 4 5 6 
#
# 1 145.0273 26.1072 -28.5636 0.0000 0.0000 0.0000
# 2 26.1072 145.0273 -28.5636 0.0000 0.0000 0.0000
# 3 -28.5636 -28.5636 54.3211 0.0000 0.0000 0.0000
# 4 0.0000 0.0000 0.0000 20.6752 0.0000 0.0000
# 5 0.0000 0.0000 0.0000 0.0000 20.6752 0.0000
# 6 0.0000 0.0000 0.0000 0.0000 0.0000 59.4601
#
#
#
# Elastic Compliance Matrix: (Units=1/GPa)
#
#
# Indices 1 2 3 4 5 6 
#
# 1 0.007748 -0.000661 0.003727 0.000000 0.000000 0.000000
# 2 -0.000661 0.007748 0.003727 0.000000 0.000000 0.000000
# 3 0.003727 0.003727 0.022328 0.000000 0.000000 0.000000
# 4 0.000000 0.000000 0.000000 0.048367 0.000000 0.000000
# 5 0.000000 0.000000 0.000000 0.000000 0.048367 0.000000
# 6 0.000000 0.000000 0.000000 0.000000 0.000000 0.016818
#
#
# Mechanical properties :
#
#
# Convention : Reuss Voigt Hill
#
# Bulk Modulus (GPa) = 19.45141 31.37064 25.41102
# Shear Modulus (GPa) = 32.27296 45.18846 38.73071
#
# Velocity S-wave (km/s) = 3.41936 4.04613 3.74588
# Velocity P-wave (km/s) = 4.75777 5.76136 5.28345
#
# Compressibility (1/GPa) = 0.05141015
#
# Stress axis : x y z
#
# Youngs Moduli (GPa) = 129.06215 129.06215 44.78619
#
# Poissons Ratio (x) = 0.08528 -0.16691
# Poissons Ratio (y) = 0.08528 -0.16691
# Poissons Ratio (z) = -0.48098 -0.48098
#
# Static dielectric constant tensor:
#      x y z
#    x 2.176200 0.000000 0.000000 
#    y 0.000000 2.176200 0.000000 
#    z 0.000000 0.000000 2.267790 
# 
# From -- ./inp_files/9244.got.cif
#   From: 2010.05.17/outbox.cif.g08.bks.cpg/sg178_5_cif.got.tgz:9244.got - 2010.05.20 11:30:59.
