data_PCOD9582280
_publ_section_title
;
Structure prediction by ZEFSAII (Michael W. Deem and Ramdas Pophale) SiO2 
 PCOD9582280
Probable space group: P 6 2 2
;
_chemical_formula_sum "Si O2"
_cell_formula_units_Z 31
_cell_length_a 14.889708
_cell_length_b 14.889708
_cell_length_c 7.222450
_cell_angle_alpha 90.000000
_cell_angle_beta 90.000000
_cell_angle_gamma 120.000000
_cell_volume 1386.716035
_symmetry_space_group_name_H-M "P 6 2 2"
_symmetry_group_IT_number 177
_symmetry_cell_setting 'hexagonal'
loop_
_space_group_symop_operation_xyz
x,y,z
x-y,x,z
-y,x-y,z
-x,-y,z
-x+y,-x,z
y,-x+y,z
x-y,-y,-z
-x,-x+y,-z
y,x,-z
-y,-x,-z
-x+y,y,-z
x,x-y,-z
loop_
_atom_site_type_symbol
_atom_site_label
_atom_site_fract_x
_atom_site_fract_y
_atom_site_fract_z
Si Si1 0.000000 0.500000 0.000000
Si Si2 0.838880 0.285446 0.818065
Si Si3 0.951946 0.167489 0.708934
Si Si4 0.666668 0.333334 0.771997
O O1 0.924351 0.524418 0.118754
O O2 0.901035 0.239873 0.710903
O O3 0.747035 0.295344 0.719558
O O4 0.785254 0.214747 0.000000
O O5 0.061559 0.198644 0.800083
O O6 0.000000 0.177815 0.500000
O O7 0.666668 0.333334 0.000000
#
# Coordination Sequence:
#
# PCOD9582280 Si02
#       4
#     3  12  12   4
#     4  12  20  32  62  88 118 164 200 262 326 388
#     4  11  20  37  61  95 125 162 210 268 330 394
#     4  10  22  40  62  86 122 168 212 256 316 392
#     4   9  18  36  57  88 131 160 204 271 347 379
#
# _framework density 22.354973999999999
#
# number of rings (size 3 to 8) (size 9 to 14) (size 15 to 20)
#    0.000    1.548    5.806    2.710    0.000    1.548 
#    0.000    0.968    0.000    2.323    0.000    0.000 
#    0.000    0.000    0.000    0.000    0.000    0.000 
#
# Total GULP energy -172642.157073 kJ/mol
# GULP energy per Si atom -5569.101841 kJ/mol
# Density = 2.230409 g / cm^3
# Si number density = 22.354974 Si / 1000 Ang^3
#
#
#
# Elastic Constant Matrix: (Units=GPa)
#
#
# Indices 1 2 3 4 5 6 
#
# 1 195.2244 88.9737 22.0595 0.0000 -0.0002 0.0000
# 2 88.9737 195.2261 22.0590 -0.0002 0.0002 0.0000
# 3 22.0595 22.0590 53.4202 0.0001 0.0000 -0.0001
# 4 0.0000 -0.0002 0.0001 18.1333 0.0004 -0.0002
# 5 -0.0002 0.0002 0.0000 0.0004 18.1335 -0.0001
# 6 0.0000 0.0000 -0.0001 -0.0002 -0.0001 53.1248
#
#
#
# Elastic Compliance Matrix: (Units=1/GPa)
#
#
# Indices 1 2 3 4 5 6 
#
# 1 0.006586 -0.002826 -0.001553 0.000000 0.000000 0.000000
# 2 -0.002826 0.006586 -0.001552 0.000000 0.000000 0.000000
# 3 -0.001553 -0.001552 0.020002 0.000000 0.000000 0.000000
# 4 0.000000 0.000000 0.000000 0.055147 -0.000001 0.000000
# 5 0.000000 0.000000 0.000000 -0.000001 0.055146 0.000000
# 6 0.000000 0.000000 0.000000 0.000000 0.000000 0.018824
#
#
# Mechanical properties :
#
#
# Convention : Reuss Voigt Hill
#
# Bulk Modulus (GPa) = 46.92412 78.89500 62.90956
# Shear Modulus (GPa) = 27.58533 38.59691 33.09112
#
# Velocity S-wave (km/s) = 3.51660 4.15968 3.85159
# Velocity P-wave (km/s) = 6.12574 7.64455 6.92690
#
# Compressibility (1/GPa) = 0.02131100
#
# Stress axis : x y z
#
# Youngs Moduli (GPa) = 151.84440 151.84617 49.99573
#
# Poissons Ratio (x) = 0.42911 0.07762
# Poissons Ratio (y) = 0.42911 0.07762
# Poissons Ratio (z) = 0.23575 0.23573
#
# Static dielectric constant tensor:
#      x y z
#    x 2.601070 0.000010 0.000000 
#    y 0.000010 2.601080 0.000000 
#    z 0.000000 0.000000 1.538040 
# 
# From -- ./inp_files/931.got.cif
#   From: 2010.05.17/outbox.cif.g08.bks.cpg/sg177_1_cif.got.tgz:931.got - 2010.05.20 11:28:44.
