data_PCOD9582357
_publ_section_title
;
Structure prediction by ZEFSAII (Michael W. Deem and Ramdas Pophale) SiO2 
 PCOD9582357
Probable space group: P 61 2 2
;
_chemical_formula_sum "Si O2"
_cell_formula_units_Z 66
_cell_length_a 29.883800
_cell_length_b 29.883800
_cell_length_c 5.583275
_cell_angle_alpha 90.000000
_cell_angle_beta 90.000000
_cell_angle_gamma 120.000000
_cell_volume 4318.086057
_symmetry_space_group_name_H-M "P 61 2 2"
_symmetry_group_IT_number 178
_symmetry_cell_setting 'hexagonal'
loop_
_space_group_symop_operation_xyz
x,y,z
x-y,x,1/6+z
-y,x-y,1/3+z
-x,-y,1/2+z
-x+y,-x,2/3+z
y,-x+y,5/6+z
x-y,-y,-z
-x,-x+y,2/3-z
y,x,1/3-z
-y,-x,5/6-z
-x+y,y,1/2-z
x,x-y,1/6-z
loop_
_atom_site_type_symbol
_atom_site_label
_atom_site_fract_x
_atom_site_fract_y
_atom_site_fract_z
Si Si1 0.298795 0.490592 0.250208
Si Si2 0.720902 0.626284 0.778334
Si Si3 0.477236 0.424798 0.515304
Si Si4 0.000000 0.617588 0.833334
Si Si5 0.867000 0.238671 0.936449
Si Si6 0.509137 0.669868 0.091722
O O1 0.242186 0.484371 0.250000
O O2 0.293133 0.433723 0.268996
O O3 0.324406 0.517164 0.502488
O O4 0.329563 0.514251 0.002212
O O5 0.668934 0.629005 0.804163
O O6 0.748902 0.647135 0.520650
O O7 0.752256 0.649830 0.021641
O O8 0.455268 0.455268 0.666667
O O9 0.532010 0.467991 0.416667
O O10 0.432948 0.396308 0.318563
O O11 0.484246 0.379898 0.631254
O O12 0.846174 0.279654 0.928379
O O13 0.817823 0.182178 0.916667
#
# Coordination Sequence:
#
# PCOD9582357 Si02
#       6
#    12  12  12   6  12  12
#     4  10  17  31  50  69  86 105 135 176 230 268
#     4  10  19  28  45  63  86 110 139 181 209 254
#     4  12  24  35  48  61  88 132 172 192 206 251
#     4  12  22  36  44  64  90 124 168 184 216 260
#     4  10  17  30  47  65  83 104 137 178 228 261
#     4  10  19  31  45  67  86 108 145 180 219 245
#
# _framework density 15.284549
#
# number of rings (size 3 to 8) (size 9 to 14) (size 15 to 20)
#    0.000    1.455    4.545    7.636    0.000    0.000 
#    0.000    0.000    0.000    0.000    0.000    0.000 
#    0.000    0.000    0.000   16.364    0.364    0.545 
#
# Total GULP energy -367536.251331 kJ/mol
# GULP energy per Si atom -5568.731081 kJ/mol
# Density = 1.524976 g / cm^3
# Si number density = 15.284549 Si / 1000 Ang^3
#
#
#
# Elastic Constant Matrix: (Units=GPa)
#
#
# Indices 1 2 3 4 5 6 
#
# 1 48.2435 29.6384 16.2548 0.0000 0.0000 0.0000
# 2 29.6384 48.2435 16.2548 0.0000 0.0000 0.0000
# 3 16.2548 16.2548 131.8527 0.0000 0.0000 0.0000
# 4 0.0000 0.0000 0.0000 31.4771 0.0000 0.0000
# 5 0.0000 0.0000 0.0000 0.0000 31.4771 0.0000
# 6 0.0000 0.0000 0.0000 0.0000 0.0000 9.3026
#
#
#
# Elastic Compliance Matrix: (Units=1/GPa)
#
#
# Indices 1 2 3 4 5 6 
#
# 1 0.033643 -0.020106 -0.001669 0.000000 0.000000 0.000000
# 2 -0.020106 0.033643 -0.001669 0.000000 0.000000 0.000000
# 3 -0.001669 -0.001669 0.007996 0.000000 0.000000 0.000000
# 4 0.000000 0.000000 0.000000 0.031769 0.000000 0.000000
# 5 0.000000 0.000000 0.000000 0.000000 0.031769 0.000000
# 6 0.000000 0.000000 0.000000 0.000000 0.000000 0.107497
#
#
# Mechanical properties :
#
#
# Convention : Reuss Voigt Hill
#
# Bulk Modulus (GPa) = 35.21918 39.18176 37.20047
# Shear Modulus (GPa) = 16.51974 25.53080 21.02527
#
# Velocity S-wave (km/s) = 3.29114 4.09145 3.71292
# Velocity P-wave (km/s) = 6.12654 6.92896 6.54007
#
# Compressibility (1/GPa) = 0.02839362
#
# Stress axis : x y z
#
# Youngs Moduli (GPa) = 29.72422 29.72422 125.06759
#
# Poissons Ratio (x) = 0.59764 0.20871
# Poissons Ratio (y) = 0.59764 0.20871
# Poissons Ratio (z) = 0.04960 0.04960
#
# Static dielectric constant tensor:
#      x y z
#    x 1.459030 0.000000 0.000000 
#    y 0.000000 1.459030 0.000000 
#    z 0.000000 0.000000 1.678500 
# 
# From -- ./inp_files/1569.got.cif
#   From: 2010.05.17/outbox.cif.g08.bks.cpg/sg178_1_cif.got.tgz:1569.got - 2010.05.20 11:30:59.
