data_PCOD9582945
_publ_section_title
;
Structure prediction by ZEFSAII (Michael W. Deem and Ramdas Pophale) SiO2 
 PCOD9582945
Probable space group: P 61 2 2
;
_chemical_formula_sum "Si O2"
_cell_formula_units_Z 42
_cell_length_a 14.310417
_cell_length_b 14.310417
_cell_length_c 11.781437
_cell_angle_alpha 90.000000
_cell_angle_beta 90.000000
_cell_angle_gamma 120.000000
_cell_volume 2089.457179
_symmetry_space_group_name_H-M "P 61 2 2"
_symmetry_group_IT_number 178
_symmetry_cell_setting 'hexagonal'
loop_
_space_group_symop_operation_xyz
x,y,z
x-y,x,1/6+z
-y,x-y,1/3+z
-x,-y,1/2+z
-x+y,-x,2/3+z
y,-x+y,5/6+z
x-y,-y,-z
-x,-x+y,2/3-z
y,x,1/3-z
-y,-x,5/6-z
-x+y,y,1/2-z
x,x-y,1/6-z
loop_
_atom_site_type_symbol
_atom_site_label
_atom_site_fract_x
_atom_site_fract_y
_atom_site_fract_z
Si Si1 0.892565 0.376237 0.906326
Si Si2 0.257287 0.730452 0.781367
Si Si3 0.617231 0.819976 0.249952
Si Si4 0.159952 0.000000 0.500000
O O1 0.825483 0.435222 0.931795
O O2 0.817412 0.286495 0.815632
O O3 0.000000 0.449534 0.833334
O O4 0.906403 0.311943 0.014300
O O5 0.378592 0.757183 0.750000
O O6 0.208346 0.793982 0.713593
O O7 0.256786 0.743215 0.916667
O O8 0.730333 0.827242 0.220671
O O9 0.063105 0.936896 0.416667
#
# Coordination Sequence:
#
# PCOD9582945 Si02
#       4
#    12  12  12   6
#     4  11  20  38  63  97 126 174 221 264 322 399
#     4  12  22  40  62  97 146 183 213 266 331 408
#     4  11  21  39  67  97 131 168 232 274 325 405
#     4  12  24  48  76  98 122 176 238 298 344 406
#
# _framework density 20.100914
#
# number of rings (size 3 to 8) (size 9 to 14) (size 15 to 20)
#    0.000    0.571   10.000    0.857    0.000    0.000 
#   15.429    1.429    0.000    0.000    0.000    0.000 
#    0.000    0.000    0.000    0.000    0.000    0.000 
#
# Total GULP energy -233810.009382 kJ/mol
# GULP energy per Si atom -5566.904985 kJ/mol
# Density = 2.005516 g / cm^3
# Si number density = 20.100914 Si / 1000 Ang^3
#
#
#
# Elastic Constant Matrix: (Units=GPa)
#
#
# Indices 1 2 3 4 5 6 
#
# 1 60.4032 59.3235 43.4223 0.0000 0.0000 0.0000
# 2 59.3235 60.4032 43.4223 0.0000 0.0000 0.0000
# 3 43.4223 43.4223 166.0411 0.0000 0.0000 0.0000
# 4 0.0000 0.0000 0.0000 46.9476 0.0000 0.0000
# 5 0.0000 0.0000 0.0000 0.0000 46.9476 0.0000
# 6 0.0000 0.0000 0.0000 0.0000 0.0000 0.5398
#
#
#
# Elastic Compliance Matrix: (Units=1/GPa)
#
#
# Indices 1 2 3 4 5 6 
#
# 1 0.468266 -0.457958 -0.002696 0.000000 0.000000 0.000000
# 2 -0.457958 0.468266 -0.002696 0.000000 0.000000 0.000000
# 3 -0.002696 -0.002696 0.007432 0.000000 0.000000 0.000000
# 4 0.000000 0.000000 0.000000 0.021300 0.000000 0.000000
# 5 0.000000 0.000000 0.000000 0.000000 0.021300 0.000000
# 6 0.000000 0.000000 0.000000 0.000000 0.000000 1.852448
#
#
# Mechanical properties :
#
#
# Convention : Reuss Voigt Hill
#
# Bulk Modulus (GPa) = 57.91951 64.35373 61.13662
# Shear Modulus (GPa) = 1.32574 28.26563 14.79569
#
# Velocity S-wave (km/s) = 0.81300 3.75398 2.71601
# Velocity P-wave (km/s) = 5.45511 7.13265 6.34952
#
# Compressibility (1/GPa) = 0.01726534
#
# Stress axis : x y z
#
# Youngs Moduli (GPa) = 2.13554 2.13554 134.54439
#
# Poissons Ratio (x) = 0.97799 0.36268
# Poissons Ratio (y) = 0.97799 0.36268
# Poissons Ratio (z) = 0.00576 0.00576
#
# Static dielectric constant tensor:
#      x y z
#    x 1.777040 0.000000 0.000000 
#    y 0.000000 1.777040 0.000000 
#    z 0.000000 0.000000 1.750370 
# 
# From -- ./inp_files/3947.got.cif
#   From: 2010.05.17/outbox.cif.g08.bks.cpg/sg178_2_cif.got.tgz:3947.got - 2010.05.20 11:30:59.
