data_PCOD9582170
_publ_section_title
;
Structure prediction by ZEFSAII (Michael W. Deem and Ramdas Pophale) SiO2 
 PCOD9582170
Probable space group: P 6 2 2
;
_chemical_formula_sum "Si O2"
_cell_formula_units_Z 54
_cell_length_a 24.026079
_cell_length_b 24.026079
_cell_length_c 5.725568
_cell_angle_alpha 90.000000
_cell_angle_beta 90.000000
_cell_angle_gamma 120.000000
_cell_volume 2862.299074
_symmetry_space_group_name_H-M "P 6 2 2"
_symmetry_group_IT_number 177
_symmetry_cell_setting 'hexagonal'
loop_
_space_group_symop_operation_xyz
x,y,z
x-y,x,z
-y,x-y,z
-x,-y,z
-x+y,-x,z
y,-x+y,z
x-y,-y,-z
-x,-x+y,-z
y,x,-z
-y,-x,-z
-x+y,y,-z
x,x-y,-z
loop_
_atom_site_type_symbol
_atom_site_label
_atom_site_fract_x
_atom_site_fract_y
_atom_site_fract_z
Si Si1 0.986725 0.298233 0.751371
Si Si2 0.826971 0.364358 0.175292
Si Si3 0.419174 0.262809 0.132051
Si Si4 0.588260 0.554657 0.252677
Si Si5 0.257171 0.514341 0.500000
O O1 0.912974 0.281422 0.771986
O O2 0.000000 0.277163 0.500000
O O3 0.031794 0.376358 0.750972
O O4 0.000000 0.275275 0.000000
O O5 0.898457 0.409189 0.271580
O O6 0.770117 0.322706 0.355115
O O7 0.809466 0.404733 0.000000
O O8 0.841358 0.313421 0.044412
O O9 0.465600 0.266256 0.336982
O O10 0.388641 0.194321 0.000000
O O11 0.559659 0.559659 0.500000
O O12 0.558375 0.558375 0.000000
#
# Coordination Sequence:
#
# PCOD9582170 Si02
#       5
#    12  12  12  12   6
#     4  10  18  32  54  80 115 141 173 218 275 337
#     4  11  23  39  59  86 112 145 185 233 289 355
#     4  10  21  37  57  80 106 149 185 222 276 352
#     4  10  19  35  56  83 122 143 170 210 286 349
#     4  10  22  40  60  76 112 144 186 228 280 347
#
# _framework density 18.865953999999999
#
# number of rings (size 3 to 8) (size 9 to 14) (size 15 to 20)
#    0.000    1.778    4.444    2.667    3.111    1.333 
#    0.000    2.222    0.000   20.000    0.000    0.000 
#    0.000    0.000    0.000    0.000    0.000    0.000 
#
# Total GULP energy -301001.049306 kJ/mol
# GULP energy per Si atom -5574.093506 kJ/mol
# Density = 1.882301 g / cm^3
# Si number density = 18.865954 Si / 1000 Ang^3
#
#
#
# Elastic Constant Matrix: (Units=GPa)
#
#
# Indices 1 2 3 4 5 6 
#
# 1 53.5568 38.3142 43.3292 0.0000 0.0000 0.0000
# 2 38.3142 53.5568 43.3292 0.0000 0.0000 0.0000
# 3 43.3292 43.3292 168.4986 0.0000 0.0000 0.0000
# 4 0.0000 0.0000 0.0000 22.2847 0.0000 0.0000
# 5 0.0000 0.0000 0.0000 0.0000 22.2847 0.0000
# 6 0.0000 0.0000 0.0000 0.0000 0.0000 7.6213
#
#
#
# Elastic Compliance Matrix: (Units=1/GPa)
#
#
# Indices 1 2 3 4 5 6 
#
# 1 0.039988 -0.025618 -0.003695 0.000000 0.000000 0.000000
# 2 -0.025618 0.039988 -0.003695 0.000000 0.000000 0.000000
# 3 -0.003695 -0.003695 0.007835 0.000000 0.000000 0.000000
# 4 0.000000 0.000000 0.000000 0.044874 0.000000 0.000000
# 5 0.000000 0.000000 0.000000 0.000000 0.044874 0.000000
# 6 0.000000 0.000000 0.000000 0.000000 0.000000 0.131211
#
#
# Mechanical properties :
#
#
# Convention : Reuss Voigt Hill
#
# Bulk Modulus (GPa) = 45.88235 58.39529 52.13882
# Shear Modulus (GPa) = 13.08723 20.48077 16.78400
#
# Velocity S-wave (km/s) = 2.63667 3.29841 2.98593
# Velocity P-wave (km/s) = 5.80020 6.74729 6.29159
#
# Compressibility (1/GPa) = 0.02179487
#
# Stress axis : x y z
#
# Youngs Moduli (GPa) = 25.00746 25.00746 127.62778
#
# Poissons Ratio (x) = 0.64063 0.47163
# Poissons Ratio (y) = 0.64063 0.47163
# Poissons Ratio (z) = 0.09241 0.09241
#
# Static dielectric constant tensor:
#      x y z
#    x 1.771100 0.000000 0.000000 
#    y 0.000000 1.771100 0.000000 
#    z 0.000000 0.000000 1.605760 
# 
# From -- ./inp_files/524.got.cif
#   From: 2010.05.17/outbox.cif.g08.bks.cpg/sg177_1_cif.got.tgz:524.got - 2010.05.20 11:28:44.
