data_PCOD9582536
_publ_section_title
;
Structure prediction by ZEFSAII (Michael W. Deem and Ramdas Pophale) SiO2 
 PCOD9582536
Probable space group: P 61 2 2
;
_chemical_formula_sum "Si O2"
_cell_formula_units_Z 60
_cell_length_a 17.030515
_cell_length_b 17.030515
_cell_length_c 12.624761
_cell_angle_alpha 90.000000
_cell_angle_beta 90.000000
_cell_angle_gamma 120.000000
_cell_volume 3171.095777
_symmetry_space_group_name_H-M "P 61 2 2"
_symmetry_group_IT_number 178
_symmetry_cell_setting 'hexagonal'
loop_
_space_group_symop_operation_xyz
x,y,z
x-y,x,1/6+z
-y,x-y,1/3+z
-x,-y,1/2+z
-x+y,-x,2/3+z
y,-x+y,5/6+z
x-y,-y,-z
-x,-x+y,2/3-z
y,x,1/3-z
-y,-x,5/6-z
-x+y,y,1/2-z
x,x-y,1/6-z
loop_
_atom_site_type_symbol
_atom_site_label
_atom_site_fract_x
_atom_site_fract_y
_atom_site_fract_z
Si Si1 0.275993 0.549399 0.375484
Si Si2 0.371858 0.235283 0.849341
Si Si3 0.299755 0.431646 0.722594
Si Si4 0.288818 0.948576 0.235190
Si Si5 0.506149 0.577449 0.757973
O O1 0.355472 0.644529 0.416667
O O2 0.275213 0.550425 0.250000
O O3 0.286121 0.468232 0.424275
O O4 0.175889 0.523649 0.409223
O O5 0.394557 0.278174 0.730347
O O6 0.337181 0.128252 0.836402
O O7 0.305414 0.256603 0.917274
O O8 0.240583 0.481165 0.750000
O O9 0.264737 0.356162 0.813069
O O10 0.406562 0.489313 0.747382
O O11 0.382941 0.955817 0.192727
O O12 0.565520 0.565520 0.666667
#
# Coordination Sequence:
#
# PCOD9582536 Si02
#       5
#    12  12  12  12  12
#     4  11  23  37  54  78 113 153 193 238 288 342
#     4  10  21  37  56  80 112 149 192 239 291 351
#     4  10  20  34  52  77 111 149 194 241 286 337
#     4  10  21  35  54  79 110 146 188 239 291 349
#     4  11  21  33  52  76 107 149 194 237 282 337
#
# _framework density 18.920902999999999
#
# number of rings (size 3 to 8) (size 9 to 14) (size 15 to 20)
#    0.000    1.600    0.000    5.400    0.000    4.800 
#    0.000    0.000    0.000    0.000    0.000    0.000 
#    0.000  129.600    0.000    0.000    0.000    0.000 
#
# Total GULP energy -334137.687700 kJ/mol
# GULP energy per Si atom -5568.961462 kJ/mol
# Density = 1.887784 g / cm^3
# Si number density = 18.920903 Si / 1000 Ang^3
#
#
#
# Elastic Constant Matrix: (Units=GPa)
#
#
# Indices 1 2 3 4 5 6 
#
# 1 104.3663 43.4188 27.0858 0.0000 0.0000 0.0000
# 2 43.4188 104.3663 27.0858 0.0000 0.0000 0.0000
# 3 27.0858 27.0858 85.2009 0.0000 0.0000 0.0000
# 4 0.0000 0.0000 0.0000 6.1622 0.0000 0.0000
# 5 0.0000 0.0000 0.0000 0.0000 6.1622 0.0000
# 6 0.0000 0.0000 0.0000 0.0000 0.0000 30.4738
#
#
#
# Elastic Compliance Matrix: (Units=1/GPa)
#
#
# Indices 1 2 3 4 5 6 
#
# 1 0.012033 -0.004374 -0.002435 0.000000 0.000000 0.000000
# 2 -0.004374 0.012033 -0.002435 0.000000 0.000000 0.000000
# 3 -0.002435 -0.002435 0.013285 0.000000 0.000000 0.000000
# 4 0.000000 0.000000 0.000000 0.162281 0.000000 0.000000
# 5 0.000000 0.000000 0.000000 0.000000 0.162281 0.000000
# 6 0.000000 0.000000 0.000000 0.000000 0.000000 0.032815
#
#
# Mechanical properties :
#
#
# Convention : Reuss Voigt Hill
#
# Bulk Modulus (GPa) = 53.01157 54.34604 53.67880
# Shear Modulus (GPa) = 11.91883 21.64915 16.78399
#
# Velocity S-wave (km/s) = 2.51256 3.38626 2.98159
# Velocity P-wave (km/s) = 6.04116 6.63883 6.34703
#
# Compressibility (1/GPa) = 0.01886381
#
# Stress axis : x y z
#
# Youngs Moduli (GPa) = 83.10250 83.10250 75.27240
#
# Poissons Ratio (x) = 0.36351 0.18328
# Poissons Ratio (y) = 0.36351 0.18328
# Poissons Ratio (z) = 0.20234 0.20234
#
# Static dielectric constant tensor:
#      x y z
#    x 1.705660 0.000000 0.000000 
#    y 0.000000 1.705660 0.000000 
#    z 0.000000 0.000000 1.684670 
# 
# From -- ./inp_files/4501.got.cif
#   From: 2010.05.17/outbox.cif.g08.bks.cpg/sg178_3_cif.got.tgz:4501.got - 2010.05.20 11:30:59.
