data_PCOD9582172
_publ_section_title
;
Structure prediction by ZEFSAII (Michael W. Deem and Ramdas Pophale) SiO2 
 PCOD9582172
Probable space group: P 6 2 2
;
_chemical_formula_sum "Si O2"
_cell_formula_units_Z 72
_cell_length_a 23.567820
_cell_length_b 23.567820
_cell_length_c 7.577604
_cell_angle_alpha 90.000000
_cell_angle_beta 90.000000
_cell_angle_gamma 120.000000
_cell_volume 3645.032143
_symmetry_space_group_name_H-M "P 6 2 2"
_symmetry_group_IT_number 177
_symmetry_cell_setting 'hexagonal'
loop_
_space_group_symop_operation_xyz
x,y,z
x-y,x,z
-y,x-y,z
-x,-y,z
-x+y,-x,z
y,-x+y,z
x-y,-y,-z
-x,-x+y,-z
y,x,-z
-y,-x,-z
-x+y,y,-z
x,x-y,-z
loop_
_atom_site_type_symbol
_atom_site_label
_atom_site_fract_x
_atom_site_fract_y
_atom_site_fract_z
Si Si1 0.631270 0.495975 0.290003
Si Si2 0.443373 0.221689 0.716510
Si Si3 0.854811 0.145194 0.716868
Si Si4 0.375341 0.375338 0.208910
Si Si5 0.000003 0.756699 0.294690
Si Si6 0.368723 0.864695 0.289998
O O1 0.703617 0.518927 0.221381
O O2 0.620992 0.557565 0.263239
O O3 0.570555 0.429445 0.217381
O O4 0.633288 0.486824 0.500000
O O5 0.442577 0.221289 0.500000
O O6 0.367036 0.183514 0.769701
O O7 0.481089 0.184710 0.778616
O O8 0.854866 0.145135 0.500000
O O9 0.813252 0.069729 0.777913
O O10 0.930276 0.186751 0.777915
O O11 0.311912 0.311915 0.286410
O O12 0.442431 0.378989 0.263222
O O13 0.368308 0.368308 0.000000
O O14 0.000000 0.773294 0.500000
#
# Coordination Sequence:
#
# PCOD9582172 Si02
#       6
#    12  12  12  12  12  12
#     4  10  20  35  54  74 101 136 171 208 255 308
#     4   9  16  30  52  78  99 126 168 212 252 297
#     4   9  16  28  54  79 102 129 166 210 245 297
#     4  12  23  33  50  77 105 133 168 216 260 300
#     4  10  18  33  55  79 104 135 169 204 252 307
#     4  10  20  35  54  74 101 136 171 208 255 308
#
# _framework density 19.752914000000001
#
# number of rings (size 3 to 8) (size 9 to 14) (size 15 to 20)
#    0.000    2.000    3.333    2.000    0.000    2.667 
#    1.000    3.333    0.000    0.333    0.000    2.333 
#    0.000    0.000    0.000    1.500    0.000    1.667 
#
# Total GULP energy -401994.778042 kJ/mol
# GULP energy per Si atom -5583.260806 kJ/mol
# Density = 1.970796 g / cm^3
# Si number density = 19.752914 Si / 1000 Ang^3
#
#
#
# Elastic Constant Matrix: (Units=GPa)
#
#
# Indices 1 2 3 4 5 6 
#
# 1 183.6956 141.7781 -2.5279 0.0000 0.0000 0.0000
# 2 141.7781 183.6956 -2.5279 0.0000 0.0000 0.0000
# 3 -2.5279 -2.5279 45.2486 0.0000 0.0000 0.0000
# 4 0.0000 0.0000 0.0000 -38.1418 0.0000 0.0000
# 5 0.0000 0.0000 0.0000 0.0000 -38.1418 0.0000
# 6 0.0000 0.0000 0.0000 0.0000 0.0000 20.9588
#
#
#
# Elastic Compliance Matrix: (Units=1/GPa)
#
#
# Indices 1 2 3 4 5 6 
#
# 1 0.013466 -0.010391 0.000172 0.000000 0.000000 0.000000
# 2 -0.010391 0.013466 0.000172 0.000000 0.000000 0.000000
# 3 0.000172 0.000172 0.022119 0.000000 0.000000 0.000000
# 4 0.000000 0.000000 0.000000 -0.026218 0.000000 0.000000
# 5 0.000000 0.000000 0.000000 0.000000 -0.026218 0.000000
# 6 0.000000 0.000000 0.000000 0.000000 0.000000 0.047713
#
#
# Mechanical properties :
#
#
# Convention : Reuss Voigt Hill
#
# Bulk Modulus (GPa) = 34.53428 76.23160 55.38294
# Shear Modulus (GPa) = 67.50020 7.32955 37.41488
#
# Velocity S-wave (km/s) = 5.85205 1.92839 4.35690
# Velocity P-wave (km/s) = 7.94878 6.60565 7.30813
#
# Compressibility (1/GPa) = 0.02895674
#
# Stress axis : x y z
#
# Youngs Moduli (GPa) = 74.26256 74.26256 45.20935
#
# Poissons Ratio (x) = 0.77163 -0.00777
# Poissons Ratio (y) = 0.77163 -0.00777
# Poissons Ratio (z) = -0.01276 -0.01276
#
# Static dielectric constant tensor:
#      x y z
#    x 1.725640 0.000000 0.000000 
#    y 0.000000 1.725640 0.000000 
#    z 0.000000 0.000000 1.719930 
# 
# From -- ./inp_files/1540.got.cif
#   From: 2010.05.17/outbox.cif.g08.bks.cpg/sg177_1_cif.got.tgz:1540.got - 2010.05.20 11:28:44.
