data_PCOD9582784
_publ_section_title
;
Structure prediction by ZEFSAII (Michael W. Deem and Ramdas Pophale) SiO2 
 PCOD9582784
Probable space group: P 61 2 2
;
_chemical_formula_sum "Si O2"
_cell_formula_units_Z 72
_cell_length_a 14.560032
_cell_length_b 14.560032
_cell_length_c 15.902502
_cell_angle_alpha 90.000000
_cell_angle_beta 90.000000
_cell_angle_gamma 120.000000
_cell_volume 2919.582484
_symmetry_space_group_name_H-M "P 61 2 2"
_symmetry_group_IT_number 178
_symmetry_cell_setting 'hexagonal'
loop_
_space_group_symop_operation_xyz
x,y,z
x-y,x,1/6+z
-y,x-y,1/3+z
-x,-y,1/2+z
-x+y,-x,2/3+z
y,-x+y,5/6+z
x-y,-y,-z
-x,-x+y,2/3-z
y,x,1/3-z
-y,-x,5/6-z
-x+y,y,1/2-z
x,x-y,1/6-z
loop_
_atom_site_type_symbol
_atom_site_label
_atom_site_fract_x
_atom_site_fract_y
_atom_site_fract_z
Si Si1 0.521170 0.268757 0.348944
Si Si2 0.325333 0.837353 0.355219
Si Si3 0.830282 0.143082 0.231489
Si Si4 0.534462 0.474577 0.019242
Si Si5 0.267834 0.322737 0.274248
Si Si6 0.024716 0.894302 0.203843
O O1 0.460906 0.289037 0.425290
O O2 0.613374 0.382369 0.319094
O O3 0.437711 0.215701 0.274852
O O4 0.546064 0.176827 0.375219
O O5 0.226796 0.773205 0.416667
O O6 0.412480 0.958088 0.377548
O O7 0.759262 0.051350 0.294837
O O8 0.950079 0.221625 0.260298
O O9 0.836611 0.090627 0.145160
O O10 0.428433 0.380737 0.061428
O O11 0.527749 0.472252 0.916667
O O12 0.169304 0.338608 0.250000
O O13 0.991103 0.907737 0.106978
O O14 0.913030 0.826060 0.250000
#
# Coordination Sequence:
#
# PCOD9582784 Si02
#       6
#    12  12  12  12  12  12
#     4  11  25  43  77 103 134 196 240 296 376 446
#     4  11  25  47  73 108 146 190 247 306 373 452
#     4  12  23  46  68  99 144 184 241 294 369 438
#     4  12  23  48  75 101 149 194 241 310 385 448
#     4  12  27  42  69 110 144 190 239 309 372 449
#     4  10  22  41  66  97 134 187 238 291 347 427
#
# _framework density 24.661059000000002
#
# number of rings (size 3 to 8) (size 9 to 14) (size 15 to 20)
#    0.000    0.667    6.667    1.000    2.333    2.667 
#    3.000    6.667    0.000    0.000    0.000    0.000 
#    0.000    0.000    0.000    0.000    0.000    0.000 
#
# Total GULP energy -401715.180544 kJ/mol
# GULP energy per Si atom -5579.377508 kJ/mol
# Density = 2.460493 g / cm^3
# Si number density = 24.661059 Si / 1000 Ang^3
#
#
#
# Elastic Constant Matrix: (Units=GPa)
#
#
# Indices 1 2 3 4 5 6 
#
# 1 102.6435 25.0242 2.5280 0.0000 0.0000 0.0000
# 2 25.0242 102.6435 2.5280 0.0000 0.0000 0.0000
# 3 2.5280 2.5280 39.5906 0.0000 0.0000 0.0000
# 4 0.0000 0.0000 0.0000 20.8299 0.0000 0.0000
# 5 0.0000 0.0000 0.0000 0.0000 20.8299 0.0000
# 6 0.0000 0.0000 0.0000 0.0000 0.0000 38.8096
#
#
#
# Elastic Compliance Matrix: (Units=1/GPa)
#
#
# Indices 1 2 3 4 5 6 
#
# 1 0.010368 -0.002515 -0.000501 0.000000 0.000000 0.000000
# 2 -0.002515 0.010368 -0.000501 0.000000 0.000000 0.000000
# 3 -0.000501 -0.000501 0.025323 0.000000 0.000000 0.000000
# 4 0.000000 0.000000 0.000000 0.048008 0.000000 0.000000
# 5 0.000000 0.000000 0.000000 0.000000 0.048008 0.000000
# 6 0.000000 0.000000 0.000000 0.000000 0.000000 0.025767
#
#
# Mechanical properties :
#
#
# Convention : Reuss Voigt Hill
#
# Bulk Modulus (GPa) = 25.62640 33.89310 29.75975
# Shear Modulus (GPa) = 26.61200 30.41370 28.51285
#
# Velocity S-wave (km/s) = 3.28854 3.51560 3.40397
# Velocity P-wave (km/s) = 4.98331 5.50024 5.24814
#
# Compressibility (1/GPa) = 0.03902225
#
# Stress axis : x y z
#
# Youngs Moduli (GPa) = 96.45015 96.45015 39.49052
#
# Poissons Ratio (x) = 0.24261 0.01980
# Poissons Ratio (y) = 0.24261 0.01980
# Poissons Ratio (z) = 0.04836 0.04836
#
# Static dielectric constant tensor:
#      x y z
#    x 2.025510 0.000000 0.000000 
#    y 0.000000 2.025510 0.000000 
#    z 0.000000 0.000000 13.336570 
# 
# From -- ./inp_files/6798.got.cif
#   From: 2010.05.17/outbox.cif.g08.bks.cpg/sg178_4_cif.got.tgz:6798.got - 2010.05.20 11:30:59.
