data_PCOD9582034
_publ_section_title
;
Structure prediction by ZEFSAII (Michael W. Deem and Ramdas Pophale) SiO2 
 PCOD9582034
Probable space group: P 63/M
;
_chemical_formula_sum "Si O2"
_cell_formula_units_Z 58
_cell_length_a 15.506304
_cell_length_b 15.506304
_cell_length_c 13.013124
_cell_angle_alpha 90.000000
_cell_angle_beta 90.000000
_cell_angle_gamma 120.000000
_cell_volume 2709.747273
_symmetry_space_group_name_H-M "P 63/M"
_symmetry_group_IT_number 176
_symmetry_cell_setting 'hexagonal'
loop_
_space_group_symop_operation_xyz
x,y,z
x-y,x,1/2+z
-y,x-y,z
-x,-y,1/2+z
-x+y,-x,z
y,-x+y,1/2+z
-x,-y,-z
-x+y,-x,1/2-z
y,-x+y,-z
x,y,1/2-z
x-y,x,-z
-y,x-y,1/2-z
loop_
_atom_site_type_symbol
_atom_site_label
_atom_site_fract_x
_atom_site_fract_y
_atom_site_fract_z
Si Si1 0.837148 0.682046 0.750000
Si Si2 0.158830 0.629050 0.250000
Si Si3 0.333335 0.666667 0.623861
Si Si4 0.983574 0.362419 0.034825
Si Si5 0.399406 0.392699 0.750000
Si Si6 0.432115 0.592051 0.463864
Si Si7 0.796011 0.951292 0.458945
O O1 0.725711 0.581930 0.750000
O O2 0.912085 0.637771 0.750000
O O3 0.857327 0.752875 0.849885
O O4 0.058155 0.518985 0.250000
O O5 0.208196 0.618706 0.355391
O O6 0.333334 0.666668 0.750000
O O7 0.396840 0.623866 0.565200
O O8 0.943756 0.356314 0.148917
O O9 0.099824 0.447861 0.039081
O O10 0.924808 0.401004 0.967476
O O11 0.963802 0.257397 0.000992
O O12 0.825495 0.888816 0.536277
#
# Coordination Sequence:
#
# PCOD9582034 Si02
#       7
#     6   6   4  12   6  12  12
#     4  12  24  45  70 107 143 189 241 292 377 423
#     4  10  22  38  72 108 135 179 242 297 335 417
#     4  12  30  46  62 106 156 192 229 290 358 450
#     4  10  22  44  71 100 137 186 232 293 357 428
#     4  10  22  41  70 101 138 182 235 293 350 438
#     4  10  24  43  69 104 144 187 238 290 351 428
#     4  12  27  47  72 102 140 184 243 308 367 434
#
# _framework density 21.404211
#
# number of rings (size 3 to 8) (size 9 to 14) (size 15 to 20)
#    0.000    1.241    4.138    0.207   10.138    1.655 
#    4.345    0.000    0.000    0.000    0.000    0.000 
#    0.000    0.000    0.000    0.000    0.000    0.000 
#
# Total GULP energy -323274.720528 kJ/mol
# GULP energy per Si atom -5573.702078 kJ/mol
# Density = 2.135549 g / cm^3
# Si number density = 21.404211 Si / 1000 Ang^3
#
#
#
# Elastic Constant Matrix: (Units=GPa)
#
#
# Indices 1 2 3 4 5 6 
#
# 1 99.6280 43.3060 31.4140 0.0000 0.0000 -0.0001
# 2 43.3060 99.6284 31.4141 0.0000 0.0000 -0.0001
# 3 31.4140 31.4141 165.1824 0.0000 0.0000 -0.0001
# 4 0.0000 0.0000 0.0000 29.1234 0.0000 0.0000
# 5 0.0000 0.0000 0.0000 0.0000 29.1235 0.0000
# 6 -0.0001 -0.0001 -0.0001 0.0000 0.0000 28.1609
#
#
#
# Elastic Compliance Matrix: (Units=1/GPa)
#
#
# Indices 1 2 3 4 5 6 
#
# 1 0.012695 -0.005060 -0.001452 0.000000 0.000000 0.000000
# 2 -0.005060 0.012695 -0.001452 0.000000 0.000000 0.000000
# 3 -0.001452 -0.001452 0.006606 0.000000 0.000000 0.000000
# 4 0.000000 0.000000 0.000000 0.034337 0.000000 0.000000
# 5 0.000000 0.000000 0.000000 0.000000 0.034337 0.000000
# 6 0.000000 0.000000 0.000000 0.000000 0.000000 0.035510
#
#
# Mechanical properties :
#
#
# Convention : Reuss Voigt Hill
#
# Bulk Modulus (GPa) = 62.23785 64.07858 63.15821
# Shear Modulus (GPa) = 31.75353 34.50189 33.12771
#
# Velocity S-wave (km/s) = 3.85582 4.01923 3.93837
# Velocity P-wave (km/s) = 6.99741 7.17923 7.08890
#
# Compressibility (1/GPa) = 0.01606739
#
# Stress axis : x y z
#
# Youngs Moduli (GPa) = 78.77288 78.77318 151.37403
#
# Poissons Ratio (x) = 0.39861 0.21978
# Poissons Ratio (y) = 0.39861 0.21978
# Poissons Ratio (z) = 0.11437 0.11437
#
# Static dielectric constant tensor:
#      x y z
#    x 1.800320 0.000000 0.000000 
#    y 0.000000 1.800320 0.000000 
#    z 0.000000 0.000000 1.825630 
# 
# From -- ./inp_files/2705.got.cif
#   From: 2010.05.17/outbox.cif.g08.bks.cpg/sg176_2_cif.got.tgz:2705.got - 2010.06.03 11:36:45.
