data_PCOD9582176
_publ_section_title
;
Structure prediction by ZEFSAII (Michael W. Deem and Ramdas Pophale) SiO2 
 PCOD9582176
Probable space group: P 6 2 2
;
_chemical_formula_sum "Si O2"
_cell_formula_units_Z 96
_cell_length_a 19.259087
_cell_length_b 19.259087
_cell_length_c 19.105095
_cell_angle_alpha 90.000000
_cell_angle_beta 90.000000
_cell_angle_gamma 120.000000
_cell_volume 6136.930759
_symmetry_space_group_name_H-M "P 6 2 2"
_symmetry_group_IT_number 177
_symmetry_cell_setting 'hexagonal'
loop_
_space_group_symop_operation_xyz
x,y,z
x-y,x,z
-y,x-y,z
-x,-y,z
-x+y,-x,z
y,-x+y,z
x-y,-y,-z
-x,-x+y,-z
y,x,-z
-y,-x,-z
-x+y,y,-z
x,x-y,-z
loop_
_atom_site_type_symbol
_atom_site_label
_atom_site_fract_x
_atom_site_fract_y
_atom_site_fract_z
Si Si1 0.090595 0.339138 0.084312
Si Si2 0.468805 0.373739 0.686319
Si Si3 0.828626 0.333546 0.162079
Si Si4 0.907907 0.249341 0.417160
Si Si5 0.904934 0.373739 0.686319
Si Si6 0.249341 0.907907 0.417160
Si Si7 0.248544 0.339138 0.084312
Si Si8 0.666454 0.171374 0.162079
O O1 0.158956 0.317911 0.105757
O O2 0.117822 0.426283 0.115995
O O3 0.000000 0.276588 0.106433
O O4 0.091896 0.343907 1.000000
O O5 0.482306 0.338082 0.757354
O O6 0.419048 0.307230 0.628643
O O7 0.555391 0.444610 0.661144
O O8 0.417141 0.417141 0.703200
O O9 0.882178 0.308462 0.115995
O O10 0.737076 0.262924 0.154088
O O11 0.838690 0.419345 0.143745
O O12 0.842293 0.157707 0.401982
O O13 0.903246 0.263177 0.500000
O O14 1.000000 0.275078 0.402036
O O15 0.888182 0.307230 0.628643
O O16 0.855777 0.338082 0.757354
#
# Coordination Sequence:
#
# PCOD9582176 Si02
#       8
#    12  12  12  12  12  12  12  12
#     4   9  18  32  49  68  89 114 144 178 217 260
#     4   9  17  28  43  64  87 111 142 180 219 258
#     4  10  19  30  44  63  89 120 152 184 216 250
#     4   9  17  29  45  64  86 113 145 180 217 258
#     4   9  17  28  43  64  87 111 142 180 219 258
#     4   9  17  29  45  64  86 113 145 180 217 258
#     4   9  18  32  49  68  89 114 144 178 217 260
#     4  10  19  30  44  63  89 120 152 184 216 250
#
# _framework density 15.642998
#
# number of rings (size 3 to 8) (size 9 to 14) (size 15 to 20)
#    0.000    2.750    0.000    1.750    0.000    2.500 
#    0.000    3.750    0.000    2.500    0.000    3.500 
#    0.000    0.000    0.000    8.000    0.000   11.000 
#
# Total GULP energy -534745.144032 kJ/mol
# GULP energy per Si atom -5570.261917 kJ/mol
# Density = 1.560739 g / cm^3
# Si number density = 15.642998 Si / 1000 Ang^3
#
#
#
# Elastic Constant Matrix: (Units=GPa)
#
#
# Indices 1 2 3 4 5 6 
#
# 1 104.0243 71.0502 30.6594 0.0000 0.0000 0.0000
# 2 71.0502 104.0243 30.6594 0.0000 0.0000 0.0000
# 3 30.6594 30.6594 17.2086 0.0000 0.0000 0.0000
# 4 0.0000 0.0000 0.0000 22.4006 0.0000 0.0000
# 5 0.0000 0.0000 0.0000 0.0000 22.4006 0.0000
# 6 0.0000 0.0000 0.0000 0.0000 0.0000 16.4871
#
#
#
# Elastic Compliance Matrix: (Units=1/GPa)
#
#
# Indices 1 2 3 4 5 6 
#
# 1 0.022759 -0.007568 -0.027065 0.000000 0.000000 0.000000
# 2 -0.007568 0.022759 -0.027065 0.000000 0.000000 0.000000
# 3 -0.027065 -0.027065 0.154551 0.000000 0.000000 0.000000
# 4 0.000000 0.000000 0.000000 0.044642 0.000000 0.000000
# 5 0.000000 0.000000 0.000000 0.000000 0.044642 0.000000
# 6 0.000000 0.000000 0.000000 0.000000 0.000000 0.060654
#
#
# Mechanical properties :
#
#
# Convention : Reuss Voigt Hill
#
# Bulk Modulus (GPa) = 13.04250 54.44390 33.74320
# Shear Modulus (GPa) = 10.02086 18.45023 14.23555
#
# Velocity S-wave (km/s) = 2.53375 3.43805 3.01994
# Velocity P-wave (km/s) = 4.11285 7.11616 5.81186
#
# Compressibility (1/GPa) = 0.07667239
#
# Stress axis : x y z
#
# Youngs Moduli (GPa) = 43.93860 43.93860 6.47037
#
# Poissons Ratio (x) = 0.33252 0.17512
# Poissons Ratio (y) = 0.33252 0.17512
# Poissons Ratio (z) = 1.18921 1.18921
#
# Static dielectric constant tensor:
#      x y z
#    x 1.518790 0.000000 0.000000 
#    y 0.000000 1.518790 0.000000 
#    z 0.000000 0.000000 1.507220 
# 
# From -- ./inp_files/3124.got.cif
#   From: 2010.05.17/outbox.cif.g08.bks.cpg/sg177_2_cif.got.tgz:3124.got - 2010.05.20 11:28:44.
