data_PCOD9582399
_publ_section_title
;
Structure prediction by ZEFSAII (Michael W. Deem and Ramdas Pophale) SiO2 
 PCOD9582399
Probable space group: P 61 2 2
;
_chemical_formula_sum "Si O2"
_cell_formula_units_Z 72
_cell_length_a 14.574687
_cell_length_b 14.574687
_cell_length_c 15.873852
_cell_angle_alpha 90.000000
_cell_angle_beta 90.000000
_cell_angle_gamma 120.000000
_cell_volume 2920.192170
_symmetry_space_group_name_H-M "P 61 2 2"
_symmetry_group_IT_number 178
_symmetry_cell_setting 'hexagonal'
loop_
_space_group_symop_operation_xyz
x,y,z
x-y,x,1/6+z
-y,x-y,1/3+z
-x,-y,1/2+z
-x+y,-x,2/3+z
y,-x+y,5/6+z
x-y,-y,-z
-x,-x+y,2/3-z
y,x,1/3-z
-y,-x,5/6-z
-x+y,y,1/2-z
x,x-y,1/6-z
loop_
_atom_site_type_symbol
_atom_site_label
_atom_site_fract_x
_atom_site_fract_y
_atom_site_fract_z
Si Si1 0.498549 0.852953 0.675251
Si Si2 0.937598 0.307732 0.098147
Si Si3 0.918364 0.190229 0.704160
Si Si4 0.056414 0.028207 0.583334
Si Si5 0.000000 0.358310 0.833334
Si Si6 0.528740 0.163526 0.622520
Si Si7 0.331588 0.873756 0.009395
O O1 0.410088 0.820176 0.750000
O O2 0.562054 0.787845 0.674758
O O3 0.467983 0.850108 0.576022
O O4 0.584359 0.973163 0.695244
O O5 0.883080 0.202914 0.155865
O O6 0.856463 0.332061 0.047131
O O7 0.004272 0.278109 0.030737
O O8 0.914858 0.254402 0.784897
O O9 0.973051 0.126708 0.740937
O O10 0.989282 0.989282 0.666667
O O11 0.937672 0.381509 0.902811
O O12 0.541208 0.270604 0.583334
O O13 0.630054 0.155202 0.595993
O O14 0.369940 0.000000 0.000000
#
# Coordination Sequence:
#
# PCOD9582399 Si02
#       7
#    12  12  12   6   6  12  12
#     4  11  27  48  70  98 134 183 233 285 348 414
#     4  11  24  39  67 104 137 177 233 286 344 419
#     4  11  20  36  62  99 140 179 222 286 344 412
#     4  12  22  38  60  92 146 198 230 282 362 406
#     4  10  18  32  58 102 142 160 194 270 358 410
#     4  11  21  38  71 109 136 168 215 283 358 413
#     4  11  25  49  73  94 138 183 226 284 349 412
#
# _framework density 24.655911
#
# number of rings (size 3 to 8) (size 9 to 14) (size 15 to 20)
#    0.000    1.000    5.000    1.500    7.000    0.000 
#    0.000    2.500    0.000    0.000    0.000    0.000 
#    0.000    0.000    0.000    0.000    0.000    0.000 
#
# Total GULP energy -401797.996567 kJ/mol
# GULP energy per Si atom -5580.527730 kJ/mol
# Density = 2.459979 g / cm^3
# Si number density = 24.655911 Si / 1000 Ang^3
#
#
#
# Elastic Constant Matrix: (Units=GPa)
#
#
# Indices 1 2 3 4 5 6 
#
# 1 78.0779 57.0252 8.2651 0.0000 0.0000 0.0000
# 2 57.0252 78.0779 8.2651 0.0000 0.0000 0.0000
# 3 8.2651 8.2651 113.8995 0.0000 0.0000 0.0000
# 4 0.0000 0.0000 0.0000 28.4137 0.0000 0.0000
# 5 0.0000 0.0000 0.0000 0.0000 28.4137 0.0000
# 6 0.0000 0.0000 0.0000 0.0000 0.0000 10.5264
#
#
#
# Elastic Compliance Matrix: (Units=1/GPa)
#
#
# Indices 1 2 3 4 5 6 
#
# 1 0.027484 -0.020016 -0.000542 0.000000 0.000000 0.000000
# 2 -0.020016 0.027484 -0.000542 0.000000 0.000000 0.000000
# 3 -0.000542 -0.000542 0.008858 0.000000 0.000000 0.000000
# 4 0.000000 0.000000 0.000000 0.035194 0.000000 0.000000
# 5 0.000000 0.000000 0.000000 0.000000 0.035194 0.000000
# 6 0.000000 0.000000 0.000000 0.000000 0.000000 0.095000
#
#
# Mechanical properties :
#
#
# Convention : Reuss Voigt Hill
#
# Bulk Modulus (GPa) = 46.23901 46.35180 46.29541
# Shear Modulus (GPa) = 17.94541 26.57074 22.25808
#
# Velocity S-wave (km/s) = 2.70077 3.28634 3.00784
# Velocity P-wave (km/s) = 5.34041 5.76544 5.55699
#
# Compressibility (1/GPa) = 0.02162676
#
# Stress axis : x y z
#
# Youngs Moduli (GPa) = 36.38488 36.38488 112.88821
#
# Poissons Ratio (x) = 0.72828 0.06118
# Poissons Ratio (y) = 0.72828 0.06118
# Poissons Ratio (z) = 0.01972 0.01972
#
# Static dielectric constant tensor:
#      x y z
#    x 1.973860 0.000000 0.000000 
#    y 0.000000 1.973860 0.000000 
#    z 0.000000 0.000000 2.380190 
# 
# From -- ./inp_files/6830.got.cif
#   From: 2010.05.17/outbox.cif.g08.bks.cpg/sg178_4_cif.got.tgz:6830.got - 2010.05.20 11:30:59.
