data_PCOD9582565
_publ_section_title
;
Structure prediction by ZEFSAII (Michael W. Deem and Ramdas Pophale) SiO2 
 PCOD9582565
Probable space group: P 61 2 2
;
_chemical_formula_sum "Si O2"
_cell_formula_units_Z 72
_cell_length_a 23.295762
_cell_length_b 23.295762
_cell_length_c 9.251120
_cell_angle_alpha 90.000000
_cell_angle_beta 90.000000
_cell_angle_gamma 120.000000
_cell_volume 4347.892397
_symmetry_space_group_name_H-M "P 61 2 2"
_symmetry_group_IT_number 178
_symmetry_cell_setting 'hexagonal'
loop_
_space_group_symop_operation_xyz
x,y,z
x-y,x,1/6+z
-y,x-y,1/3+z
-x,-y,1/2+z
-x+y,-x,2/3+z
y,-x+y,5/6+z
x-y,-y,-z
-x,-x+y,2/3-z
y,x,1/3-z
-y,-x,5/6-z
-x+y,y,1/2-z
x,x-y,1/6-z
loop_
_atom_site_type_symbol
_atom_site_label
_atom_site_fract_x
_atom_site_fract_y
_atom_site_fract_z
Si Si1 0.925200 0.292546 0.517378
Si Si2 0.916131 0.631396 0.986368
Si Si3 0.405298 0.483611 0.506089
Si Si4 0.720389 0.854571 0.407815
Si Si5 0.482793 0.399412 0.494591
Si Si6 0.129353 0.044884 0.357461
O O1 0.903234 0.287717 0.350837
O O2 0.900854 0.336567 0.597559
O O3 0.899194 0.224151 0.600752
O O4 0.004784 0.326961 0.510674
O O5 0.894649 0.565185 0.081146
O O6 0.886765 0.680848 0.003325
O O7 0.450181 0.549820 0.416667
O O8 0.443772 0.441288 0.497156
O O9 0.393664 0.495165 0.670776
O O10 0.727620 0.863810 0.583334
O O11 0.793537 0.884311 0.344379
O O12 0.552389 0.447612 0.416667
O O13 0.097807 0.090582 0.396870
O O14 0.118333 0.000000 0.500000
#
# Coordination Sequence:
#
# PCOD9582565 Si02
#       6
#    12  12  12  12  12  12
#     4   9  17  30  47  69  97 130 168 210 255 316
#     4   9  17  30  49  69  97 130 170 212 254 317
#     4   9  16  27  43  68  98 128 158 189 231 278
#     4  10  20  36  54  74  97 134 177 218 282 352
#     4   9  16  27  44  70  97 129 161 188 229 281
#     4  10  22  42  54  74  96 126 174 242 312 366
#
# _framework density 16.559747000000002
#
# number of rings (size 3 to 8) (size 9 to 14) (size 15 to 20)
#    0.000    2.667    0.000    2.000    0.000    6.000 
#   21.000    0.000    0.000    0.000    0.000    0.000 
#    0.000    6.667    0.000    0.500    0.000    0.500 
#
# Total GULP energy -400909.830432 kJ/mol
# GULP energy per Si atom -5568.192089 kJ/mol
# Density = 1.652206 g / cm^3
# Si number density = 16.559747 Si / 1000 Ang^3
#
#
#
# Elastic Constant Matrix: (Units=GPa)
#
#
# Indices 1 2 3 4 5 6 
#
# 1 100.2403 65.2486 58.1995 0.0000 0.0000 0.0000
# 2 65.2486 100.2403 58.1995 0.0000 0.0000 0.0000
# 3 58.1995 58.1995 79.1775 0.0000 0.0000 0.0000
# 4 0.0000 0.0000 0.0000 23.5833 0.0000 0.0000
# 5 0.0000 0.0000 0.0000 0.0000 23.5833 0.0000
# 6 0.0000 0.0000 0.0000 0.0000 0.0000 17.4959
#
#
#
# Elastic Compliance Matrix: (Units=1/GPa)
#
#
# Indices 1 2 3 4 5 6 
#
# 1 0.020545 -0.008034 -0.009196 0.000000 0.000000 0.000000
# 2 -0.008034 0.020545 -0.009196 0.000000 0.000000 0.000000
# 3 -0.009196 -0.009196 0.026149 0.000000 0.000000 0.000000
# 4 0.000000 0.000000 0.000000 0.042403 0.000000 0.000000
# 5 0.000000 0.000000 0.000000 0.000000 0.042403 0.000000
# 6 0.000000 0.000000 0.000000 0.000000 0.000000 0.057156
#
#
# Mechanical properties :
#
#
# Convention : Reuss Voigt Hill
#
# Bulk Modulus (GPa) = 69.51039 71.43928 70.47484
# Shear Modulus (GPa) = 18.73726 19.46654 19.10190
#
# Velocity S-wave (km/s) = 3.36742 3.43233 3.40003
# Velocity P-wave (km/s) = 7.56214 7.67736 7.61997
#
# Compressibility (1/GPa) = 0.01438634
#
# Stress axis : x y z
#
# Youngs Moduli (GPa) = 48.67461 48.67461 38.24199
#
# Poissons Ratio (x) = 0.39103 0.35168
# Poissons Ratio (y) = 0.39103 0.35168
# Poissons Ratio (z) = 0.44762 0.44762
#
# Static dielectric constant tensor:
#      x y z
#    x 1.549720 0.000000 0.000000 
#    y 0.000000 1.549720 0.000000 
#    z 0.000000 0.000000 1.560420 
# 
# From -- ./inp_files/3440.got.cif
#   From: 2010.05.17/outbox.cif.g08.bks.cpg/sg178_2_cif.got.tgz:3440.got - 2010.05.20 11:30:59.
