data_PCOD9582742
_publ_section_title
;
Structure prediction by ZEFSAII (Michael W. Deem and Ramdas Pophale) SiO2 
 PCOD9582742
Probable space group: P 61 2 2
;
_chemical_formula_sum "Si O2"
_cell_formula_units_Z 48
_cell_length_a 16.338564
_cell_length_b 16.338564
_cell_length_c 9.534725
_cell_angle_alpha 90.000000
_cell_angle_beta 90.000000
_cell_angle_gamma 120.000000
_cell_volume 2204.279038
_symmetry_space_group_name_H-M "P 61 2 2"
_symmetry_group_IT_number 178
_symmetry_cell_setting 'hexagonal'
loop_
_space_group_symop_operation_xyz
x,y,z
x-y,x,1/6+z
-y,x-y,1/3+z
-x,-y,1/2+z
-x+y,-x,2/3+z
y,-x+y,5/6+z
x-y,-y,-z
-x,-x+y,2/3-z
y,x,1/3-z
-y,-x,5/6-z
-x+y,y,1/2-z
x,x-y,1/6-z
loop_
_atom_site_type_symbol
_atom_site_label
_atom_site_fract_x
_atom_site_fract_y
_atom_site_fract_z
Si Si1 0.771061 0.701970 0.841221
Si Si2 0.341726 0.142059 0.742175
Si Si3 0.506531 0.134541 0.142281
Si Si4 0.780902 0.323789 0.193970
O O1 0.865180 0.730359 0.750000
O O2 0.736178 0.775524 0.867635
O O3 0.687602 0.604647 0.777384
O O4 0.786079 0.671442 0.993858
O O5 0.332214 0.166107 0.583334
O O6 0.445286 0.157458 0.776202
O O7 0.541427 0.082853 0.250000
O O8 0.530139 0.230277 0.228043
O O9 0.555000 0.162051 0.990032
O O10 0.745477 0.372739 0.083334
#
# Coordination Sequence:
#
# PCOD9582742 Si02
#       4
#    12  12  12  12
#     4  11  22  44  68  91 125 169 211 260 329 396
#     4  11  24  42  66  96 127 162 213 266 326 394
#     4  10  22  38  59  90 127 173 220 253 302 373
#     4  10  23  37  59  90 129 173 214 259 311 362
#
# _framework density 21.775827
#
# number of rings (size 3 to 8) (size 9 to 14) (size 15 to 20)
#    0.000    1.500    5.000    1.500   10.500    1.000 
#    0.000    0.000    0.000    7.500    0.000    0.000 
#    0.000    0.000    0.000    0.000    0.000    0.000 
#
# Total GULP energy -268104.681783 kJ/mol
# GULP energy per Si atom -5585.514204 kJ/mol
# Density = 2.172626 g / cm^3
# Si number density = 21.775827 Si / 1000 Ang^3
#
#
#
# Elastic Constant Matrix: (Units=GPa)
#
#
# Indices 1 2 3 4 5 6 
#
# 1 52.1634 36.8599 32.0698 0.0000 0.0000 0.0000
# 2 36.8599 52.1634 32.0698 0.0000 0.0000 0.0000
# 3 32.0698 32.0698 162.3278 0.0000 0.0000 0.0000
# 4 0.0000 0.0000 0.0000 33.1599 0.0000 0.0000
# 5 0.0000 0.0000 0.0000 0.0000 33.1599 0.0000
# 6 0.0000 0.0000 0.0000 0.0000 0.0000 7.6517
#
#
#
# Elastic Compliance Matrix: (Units=1/GPa)
#
#
# Indices 1 2 3 4 5 6 
#
# 1 0.039221 -0.026124 -0.002588 0.000000 0.000000 0.000000
# 2 -0.026124 0.039221 -0.002588 0.000000 0.000000 0.000000
# 3 -0.002588 -0.002588 0.007183 0.000000 0.000000 0.000000
# 4 0.000000 0.000000 0.000000 0.030157 0.000000 0.000000
# 5 0.000000 0.000000 0.000000 0.000000 0.030157 0.000000
# 6 0.000000 0.000000 0.000000 0.000000 0.000000 0.130689
#
#
# Mechanical properties :
#
#
# Convention : Reuss Voigt Hill
#
# Bulk Modulus (GPa) = 43.42684 52.07260 47.74972
# Shear Modulus (GPa) = 14.41334 25.83796 20.12565
#
# Velocity S-wave (km/s) = 2.57553 3.44836 3.04340
# Velocity P-wave (km/s) = 5.36940 6.31030 5.85877
#
# Compressibility (1/GPa) = 0.02302723
#
# Stress axis : x y z
#
# Youngs Moduli (GPa) = 25.49659 25.49659 139.22210
#
# Poissons Ratio (x) = 0.66606 0.36024
# Poissons Ratio (y) = 0.66606 0.36024
# Poissons Ratio (z) = 0.06597 0.06597
#
# Static dielectric constant tensor:
#      x y z
#    x 1.847950 0.000000 0.000000 
#    y 0.000000 1.847950 0.000000 
#    z 0.000000 0.000000 1.805310 
# 
# From -- ./inp_files/2574.got.cif
#   From: 2010.05.17/outbox.cif.g08.bks.cpg/sg178_2_cif.got.tgz:2574.got - 2010.05.20 11:30:59.
