data_PCOD9582739
_publ_section_title
;
Structure prediction by ZEFSAII (Michael W. Deem and Ramdas Pophale) SiO2 
 PCOD9582739
Probable space group: P 61 2 2
;
_chemical_formula_sum "Si O2"
_cell_formula_units_Z 72
_cell_length_a 21.636409
_cell_length_b 21.636409
_cell_length_c 10.249604
_cell_angle_alpha 90.000000
_cell_angle_beta 90.000000
_cell_angle_gamma 120.000000
_cell_volume 4155.354529
_symmetry_space_group_name_H-M "P 61 2 2"
_symmetry_group_IT_number 178
_symmetry_cell_setting 'hexagonal'
loop_
_space_group_symop_operation_xyz
x,y,z
x-y,x,1/6+z
-y,x-y,1/3+z
-x,-y,1/2+z
-x+y,-x,2/3+z
y,-x+y,5/6+z
x-y,-y,-z
-x,-x+y,2/3-z
y,x,1/3-z
-y,-x,5/6-z
-x+y,y,1/2-z
x,x-y,1/6-z
loop_
_atom_site_type_symbol
_atom_site_label
_atom_site_fract_x
_atom_site_fract_y
_atom_site_fract_z
Si Si1 0.038945 0.347984 0.450440
Si Si2 0.301879 0.469410 0.599811
Si Si3 0.027393 0.585426 0.111719
Si Si4 0.644631 0.941301 0.099576
Si Si5 0.623248 0.237893 0.903748
Si Si6 0.532502 0.729592 0.712938
O O1 0.014728 0.392934 0.181868
O O2 0.052068 0.322415 0.591042
O O3 0.115557 0.412001 0.410142
O O4 0.000000 0.293149 0.333334
O O5 0.361989 0.464912 0.512229
O O6 0.267388 0.399709 0.691740
O O7 0.337230 0.538935 0.690468
O O8 0.245075 0.470586 0.502224
O O9 0.018634 0.509317 0.083334
O O10 0.965876 0.585398 0.202171
O O11 0.699457 0.000000 0.000000
O O12 0.677032 0.322969 0.916667
O O13 0.610006 0.220012 0.750000
O O14 0.547386 0.211378 0.970094
O O15 0.553914 0.776957 0.583334
#
# Coordination Sequence:
#
# PCOD9582739 Si02
#       6
#    12  12  12  12  12  12
#     4  10  22  38  56  79 102 128 171 218 270 317
#     4  11  23  39  55  76 104 129 174 214 268 332
#     4   9  21  35  56  76  97 131 168 220 264 313
#     4   8  19  35  55  76  95 127 164 210 259 311
#     4  12  25  39  52  71 100 141 170 208 264 341
#     4  12  27  38  57  79 106 141 172 218 274 337
#
# _framework density 17.327041999999999
#
# number of rings (size 3 to 8) (size 9 to 14) (size 15 to 20)
#    1.000    0.667    1.667    2.500    7.000    0.667 
#    0.000    0.000    0.000    0.000    0.000    0.000 
#    0.000    0.000    0.000    0.000    0.000    0.000 
#
# Total GULP energy -401378.357677 kJ/mol
# GULP energy per Si atom -5574.699412 kJ/mol
# Density = 1.728760 g / cm^3
# Si number density = 17.327042 Si / 1000 Ang^3
#
#
#
# Elastic Constant Matrix: (Units=GPa)
#
#
# Indices 1 2 3 4 5 6 
#
# 1 37.4675 24.1068 29.1562 0.0000 0.0000 0.0000
# 2 24.1068 37.4675 29.1562 0.0000 0.0000 0.0000
# 3 29.1562 29.1562 129.0313 0.0000 0.0000 0.0000
# 4 0.0000 0.0000 0.0000 21.9402 0.0000 0.0000
# 5 0.0000 0.0000 0.0000 0.0000 21.9402 0.0000
# 6 0.0000 0.0000 0.0000 0.0000 0.0000 6.6804
#
#
#
# Elastic Compliance Matrix: (Units=1/GPa)
#
#
# Indices 1 2 3 4 5 6 
#
# 1 0.047754 -0.027092 -0.004669 0.000000 0.000000 0.000000
# 2 -0.027092 0.047754 -0.004669 0.000000 0.000000 0.000000
# 3 -0.004669 -0.004669 0.009860 0.000000 0.000000 0.000000
# 4 0.000000 0.000000 0.000000 0.045578 0.000000 0.000000
# 5 0.000000 0.000000 0.000000 0.000000 0.045578 0.000000
# 6 0.000000 0.000000 0.000000 0.000000 0.000000 0.149692
#
#
# Mechanical properties :
#
#
# Convention : Reuss Voigt Hill
#
# Bulk Modulus (GPa) = 30.76096 40.97829 35.86963
# Shear Modulus (GPa) = 11.63028 18.21532 14.92280
#
# Velocity S-wave (km/s) = 2.59360 3.24584 2.93788
# Velocity P-wave (km/s) = 5.17308 6.14398 5.67932
#
# Compressibility (1/GPa) = 0.03250874
#
# Stress axis : x y z
#
# Youngs Moduli (GPa) = 20.94065 20.94065 101.41968
#
# Poissons Ratio (x) = 0.56732 0.47351
# Poissons Ratio (y) = 0.56732 0.47351
# Poissons Ratio (z) = 0.09777 0.09777
#
# Static dielectric constant tensor:
#      x y z
#    x 1.574980 0.000000 0.000000 
#    y 0.000000 1.574980 0.000000 
#    z 0.000000 0.000000 1.696270 
# 
# From -- ./inp_files/3488.got.cif
#   From: 2010.05.17/outbox.cif.g08.bks.cpg/sg178_2_cif.got.tgz:3488.got - 2010.05.20 11:30:59.
