data_PCOD9582314
_publ_section_title
;
Structure prediction by ZEFSAII (Michael W. Deem and Ramdas Pophale) SiO2 
 PCOD9582314
Probable space group: P 6 2 2
;
_chemical_formula_sum "Si O2"
_cell_formula_units_Z 48
_cell_length_a 13.974722
_cell_length_b 13.974722
_cell_length_c 12.315738
_cell_angle_alpha 90.000000
_cell_angle_beta 90.000000
_cell_angle_gamma 120.000000
_cell_volume 2082.943201
_symmetry_space_group_name_H-M "P 6 2 2"
_symmetry_group_IT_number 177
_symmetry_cell_setting 'hexagonal'
loop_
_space_group_symop_operation_xyz
x,y,z
x-y,x,z
-y,x-y,z
-x,-y,z
-x+y,-x,z
y,-x+y,z
x-y,-y,-z
-x,-x+y,-z
y,x,-z
-y,-x,-z
-x+y,y,-z
x,x-y,-z
loop_
_atom_site_type_symbol
_atom_site_label
_atom_site_fract_x
_atom_site_fract_y
_atom_site_fract_z
Si Si1 0.798915 0.557786 0.625956
Si Si2 0.583614 0.454996 0.750871
Si Si3 0.118327 0.677975 0.061246
Si Si4 0.748297 0.811675 0.760200
O O1 0.774195 0.548389 0.500000
O O2 0.704058 0.545520 0.711023
O O3 0.814784 0.457408 0.664293
O O4 0.906611 0.675425 0.650679
O O5 0.500000 0.500000 0.741638
O O6 0.553984 0.399078 0.870692
O O7 0.085459 0.743186 0.148288
O O8 0.224284 0.775717 0.000000
O O9 0.000000 0.604474 0.000000
O O10 0.849850 0.790972 0.768848
#
# Coordination Sequence:
#
# PCOD9582314 Si02
#       4
#    12  12  12  12
#     4  11  24  45  72 101 141 188 236 299 361 419
#     4  11  26  45  70 104 140 181 247 294 352 435
#     4  11  23  44  74 101 141 185 233 294 363 422
#     4  11  23  41  67 103 143 184 238 286 347 434
#
# _framework density 23.044314
#
# number of rings (size 3 to 8) (size 9 to 14) (size 15 to 20)
#    0.000    1.000    2.500    4.500    3.500    5.500 
#    0.000    0.000    0.000    1.500    0.000    0.000 
#    0.000    0.000    0.000    0.000    0.000    0.000 
#
# Total GULP energy -268459.211990 kJ/mol
# GULP energy per Si atom -5592.900250 kJ/mol
# Density = 2.299186 g / cm^3
# Si number density = 23.044314 Si / 1000 Ang^3
#
#
#
# Elastic Constant Matrix: (Units=GPa)
#
#
# Indices 1 2 3 4 5 6 
#
# 1 109.0117 40.5968 43.6939 0.0000 0.0000 0.0000
# 2 40.5968 109.0117 43.6939 0.0000 0.0000 0.0000
# 3 43.6939 43.6939 155.6379 0.0000 0.0000 0.0000
# 4 0.0000 0.0000 0.0000 19.5723 0.0000 0.0000
# 5 0.0000 0.0000 0.0000 0.0000 19.5723 0.0000
# 6 0.0000 0.0000 0.0000 0.0000 0.0000 34.2075
#
#
#
# Elastic Compliance Matrix: (Units=1/GPa)
#
#
# Indices 1 2 3 4 5 6 
#
# 1 0.011306 -0.003311 -0.002245 0.000000 0.000000 0.000000
# 2 -0.003311 0.011306 -0.002245 0.000000 0.000000 0.000000
# 3 -0.002245 -0.002245 0.007685 0.000000 0.000000 0.000000
# 4 0.000000 0.000000 0.000000 0.051093 0.000000 0.000000
# 5 0.000000 0.000000 0.000000 0.000000 0.051093 0.000000
# 6 0.000000 0.000000 0.000000 0.000000 0.000000 0.029233
#
#
# Mechanical properties :
#
#
# Convention : Reuss Voigt Hill
#
# Bulk Modulus (GPa) = 68.03859 69.95892 68.99875
# Shear Modulus (GPa) = 27.44012 31.04887 29.24449
#
# Velocity S-wave (km/s) = 3.45447 3.67462 3.56624
# Velocity P-wave (km/s) = 6.74540 6.95903 6.85305
#
# Compressibility (1/GPa) = 0.01469754
#
# Stress axis : x y z
#
# Youngs Moduli (GPa) = 88.44911 88.44911 130.11594
#
# Poissons Ratio (x) = 0.29283 0.29205
# Poissons Ratio (y) = 0.29283 0.29205
# Poissons Ratio (z) = 0.19853 0.19853
#
# Static dielectric constant tensor:
#      x y z
#    x 1.907790 0.000000 0.000000 
#    y 0.000000 1.907790 0.000000 
#    z 0.000000 0.000000 1.875750 
# 
# From -- ./inp_files/1770.got.cif
#   From: 2010.05.17/outbox.cif.g08.bks.cpg/sg177_1_cif.got.tgz:1770.got - 2010.05.20 11:28:44.
