data_PCOD9582543
_publ_section_title
;
Structure prediction by ZEFSAII (Michael W. Deem and Ramdas Pophale) SiO2 
 PCOD9582543
Probable space group: P 61 2 2
;
_chemical_formula_sum "Si O2"
_cell_formula_units_Z 42
_cell_length_a 14.242711
_cell_length_b 14.242711
_cell_length_c 12.586451
_cell_angle_alpha 90.000000
_cell_angle_beta 90.000000
_cell_angle_gamma 120.000000
_cell_volume 2211.155295
_symmetry_space_group_name_H-M "P 61 2 2"
_symmetry_group_IT_number 178
_symmetry_cell_setting 'hexagonal'
loop_
_space_group_symop_operation_xyz
x,y,z
x-y,x,1/6+z
-y,x-y,1/3+z
-x,-y,1/2+z
-x+y,-x,2/3+z
y,-x+y,5/6+z
x-y,-y,-z
-x,-x+y,2/3-z
y,x,1/3-z
-y,-x,5/6-z
-x+y,y,1/2-z
x,x-y,1/6-z
loop_
_atom_site_type_symbol
_atom_site_label
_atom_site_fract_x
_atom_site_fract_y
_atom_site_fract_z
Si Si1 0.510733 0.765806 0.351207
Si Si2 0.094482 0.188964 0.750000
Si Si3 0.588686 0.294343 0.083334
Si Si4 0.528504 0.057007 0.750000
Si Si5 0.687973 0.026468 0.122995
O O1 0.421647 0.670442 0.274451
O O2 0.480645 0.742760 0.475492
O O3 0.496366 0.867631 0.325708
O O4 0.623255 0.773708 0.319283
O O5 0.119175 0.119175 0.666667
O O6 0.210165 0.262835 0.808703
O O7 0.417686 0.992847 0.686293
O O8 0.654628 0.000000 0.000000
#
# Coordination Sequence:
#
# PCOD9582543 Si02
#       5
#    12   6   6   6  12
#     4  10  20  34  54  81 114 149 183 224 280 351
#     4  10  22  42  64  82 108 152 208 260 302 346
#     4   9  18  34  53  80 119 152 174 215 284 360
#     4  11  20  32  55  82 109 142 180 221 272 340
#     4  11  22  37  57  84 114 151 194 239 293 357
#
# _framework density 18.994595
#
# number of rings (size 3 to 8) (size 9 to 14) (size 15 to 20)
#    0.000    1.714    0.000    6.857    0.000    4.571 
#    0.000    1.429    0.000    3.429    0.000    0.000 
#    0.000    0.000    0.000    0.000    0.000    0.000 
#
# Total GULP energy -233977.676121 kJ/mol
# GULP energy per Si atom -5570.897051 kJ/mol
# Density = 1.895136 g / cm^3
# Si number density = 18.994595 Si / 1000 Ang^3
#
#
#
# Elastic Constant Matrix: (Units=GPa)
#
#
# Indices 1 2 3 4 5 6 
#
# 1 112.4884 43.2897 39.0341 0.0000 0.0000 0.0000
# 2 43.2897 112.4884 39.0341 0.0000 0.0000 0.0000
# 3 39.0341 39.0341 100.4575 0.0000 0.0000 0.0000
# 4 0.0000 0.0000 0.0000 32.6901 0.0000 0.0000
# 5 0.0000 0.0000 0.0000 0.0000 32.6901 0.0000
# 6 0.0000 0.0000 0.0000 0.0000 0.0000 34.5993
#
#
#
# Elastic Compliance Matrix: (Units=1/GPa)
#
#
# Indices 1 2 3 4 5 6 
#
# 1 0.011211 -0.003240 -0.003098 0.000000 0.000000 0.000000
# 2 -0.003240 0.011211 -0.003098 0.000000 0.000000 0.000000
# 3 -0.003098 -0.003098 0.012362 0.000000 0.000000 0.000000
# 4 0.000000 0.000000 0.000000 0.030590 0.000000 0.000000
# 5 0.000000 0.000000 0.000000 0.000000 0.030590 0.000000
# 6 0.000000 0.000000 0.000000 0.000000 0.000000 0.028902
#
#
# Mechanical properties :
#
#
# Convention : Reuss Voigt Hill
#
# Bulk Modulus (GPa) = 62.83392 63.12782 62.98087
# Shear Modulus (GPa) = 33.54760 33.60098 33.57429
#
# Velocity S-wave (km/s) = 4.20714 4.21048 4.20881
# Velocity P-wave (km/s) = 7.53337 7.54615 7.53976
#
# Compressibility (1/GPa) = 0.01591497
#
# Stress axis : x y z
#
# Youngs Moduli (GPa) = 89.19472 89.19472 80.89555
#
# Poissons Ratio (x) = 0.28897 0.25058
# Poissons Ratio (y) = 0.28897 0.25058
# Poissons Ratio (z) = 0.27628 0.27628
#
# Static dielectric constant tensor:
#      x y z
#    x 1.704430 0.000000 0.000000 
#    y 0.000000 1.704430 0.000000 
#    z 0.000000 0.000000 1.652720 
# 
# From -- ./inp_files/4011.got.cif
#   From: 2010.05.17/outbox.cif.g08.bks.cpg/sg178_3_cif.got.tgz:4011.got - 2010.05.20 11:30:59.
