data_PCOD9582364
_publ_section_title
;
Structure prediction by ZEFSAII (Michael W. Deem and Ramdas Pophale) SiO2 
 PCOD9582364
Probable space group: P 61 2 2
;
_chemical_formula_sum "Si O2"
_cell_formula_units_Z 84
_cell_length_a 14.505705
_cell_length_b 14.505705
_cell_length_c 25.664459
_cell_angle_alpha 90.000000
_cell_angle_beta 90.000000
_cell_angle_gamma 120.000000
_cell_volume 4676.709863
_symmetry_space_group_name_H-M "P 61 2 2"
_symmetry_group_IT_number 178
_symmetry_cell_setting 'hexagonal'
loop_
_space_group_symop_operation_xyz
x,y,z
x-y,x,1/6+z
-y,x-y,1/3+z
-x,-y,1/2+z
-x+y,-x,2/3+z
y,-x+y,5/6+z
x-y,-y,-z
-x,-x+y,2/3-z
y,x,1/3-z
-y,-x,5/6-z
-x+y,y,1/2-z
x,x-y,1/6-z
loop_
_atom_site_type_symbol
_atom_site_label
_atom_site_fract_x
_atom_site_fract_y
_atom_site_fract_z
Si Si1 0.455476 0.745232 0.908815
Si Si2 0.031649 0.649779 0.978490
Si Si3 0.919909 0.218069 0.618348
Si Si4 0.611600 0.458559 0.969349
Si Si5 0.200085 0.321465 0.951006
Si Si6 0.089953 0.593722 0.868600
Si Si7 0.120762 0.320331 0.348547
O O1 0.379745 0.620256 0.916667
O O2 0.438054 0.767870 0.849470
O O3 0.580616 0.792808 0.914035
O O4 0.420753 0.814108 0.944534
O O5 0.036633 0.615596 0.919533
O O6 0.079299 0.588449 0.011485
O O7 0.104887 0.778617 0.984590
O O8 0.924899 0.625878 0.007979
O O9 0.908691 0.323352 0.625248
O O10 0.898534 0.165897 0.675547
O O11 0.831842 0.142849 0.575767
O O12 0.029199 0.248379 0.589059
O O13 0.603133 0.396868 0.916667
O O14 0.130359 0.698181 0.833287
O O15 0.000000 0.500109 0.833334
O O16 0.000000 0.231088 0.333334
#
# Coordination Sequence:
#
# PCOD9582364 Si02
#       7
#    12  12  12  12  12  12  12
#     4  10  22  32  50  80 106 143 186 233 273 323
#     4  10  19  32  53  76 109 147 181 218 267 329
#     4  10  21  33  53  81 109 148 187 229 276 341
#     4  10  17  33  53  74 108 151 184 222 261 332
#     4  10  20  34  53  78 107 144 187 228 284 323
#     4  10  19  32  49  74 108 143 176 212 275 334
#     4  10  18  29  50  77 114 143 173 204 273 327
#
# _framework density 17.961345000000001
#
# number of rings (size 3 to 8) (size 9 to 14) (size 15 to 20)
#    0.000    2.000    2.857    3.857    2.000    1.143 
#    0.000    0.000    0.000    0.000    0.000   12.000 
#    0.000    0.000    0.000    0.000    0.000    0.000 
#
# Total GULP energy -467882.383571 kJ/mol
# GULP energy per Si atom -5570.028376 kJ/mol
# Density = 1.792046 g / cm^3
# Si number density = 17.961345 Si / 1000 Ang^3
#
#
#
# Elastic Constant Matrix: (Units=GPa)
#
#
# Indices 1 2 3 4 5 6 
#
# 1 42.6694 25.7734 27.6524 0.0000 0.0000 0.0000
# 2 25.7734 42.6694 27.6524 0.0000 0.0000 0.0000
# 3 27.6524 27.6524 79.4637 0.0000 0.0000 0.0000
# 4 0.0000 0.0000 0.0000 26.3899 0.0000 0.0000
# 5 0.0000 0.0000 0.0000 0.0000 26.3899 0.0000
# 6 0.0000 0.0000 0.0000 0.0000 0.0000 8.4480
#
#
#
# Elastic Compliance Matrix: (Units=1/GPa)
#
#
# Indices 1 2 3 4 5 6 
#
# 1 0.039756 -0.019430 -0.007073 0.000000 0.000000 0.000000
# 2 -0.019430 0.039756 -0.007073 0.000000 0.000000 0.000000
# 3 -0.007073 -0.007073 0.017507 0.000000 0.000000 0.000000
# 4 0.000000 0.000000 0.000000 0.037893 0.000000 0.000000
# 5 0.000000 0.000000 0.000000 0.000000 0.037893 0.000000
# 6 0.000000 0.000000 0.000000 0.000000 0.000000 0.118372
#
#
# Mechanical properties :
#
#
# Convention : Reuss Voigt Hill
#
# Bulk Modulus (GPa) = 33.48224 36.32877 34.90550
# Shear Modulus (GPa) = 13.57642 17.82716 15.70179
#
# Velocity S-wave (km/s) = 2.75229 3.15386 2.95989
# Velocity P-wave (km/s) = 5.36487 5.79072 5.58186
#
# Compressibility (1/GPa) = 0.02986658
#
# Stress axis : x y z
#
# Youngs Moduli (GPa) = 25.15341 25.15341 57.11927
#
# Poissons Ratio (x) = 0.48872 0.40402
# Poissons Ratio (y) = 0.48872 0.40402
# Poissons Ratio (z) = 0.17792 0.17792
#
# Static dielectric constant tensor:
#      x y z
#    x 1.655650 0.000000 0.000000 
#    y 0.000000 1.655650 0.000000 
#    z 0.000000 0.000000 1.646870 
# 
# From -- ./inp_files/8327.got.cif
#   From: 2010.05.17/outbox.cif.g08.bks.cpg/sg178_5_cif.got.tgz:8327.got - 2010.05.20 11:30:59.
