data_PCOD9582905
_publ_section_title
;
Structure prediction by ZEFSAII (Michael W. Deem and Ramdas Pophale) SiO2 
 PCOD9582905
Probable space group: P 61 2 2
;
_chemical_formula_sum "Si O2"
_cell_formula_units_Z 48
_cell_length_a 14.114079
_cell_length_b 14.114079
_cell_length_c 12.008185
_cell_angle_alpha 90.000000
_cell_angle_beta 90.000000
_cell_angle_gamma 120.000000
_cell_volume 2071.634284
_symmetry_space_group_name_H-M "P 61 2 2"
_symmetry_group_IT_number 178
_symmetry_cell_setting 'hexagonal'
loop_
_space_group_symop_operation_xyz
x,y,z
x-y,x,1/6+z
-y,x-y,1/3+z
-x,-y,1/2+z
-x+y,-x,2/3+z
y,-x+y,5/6+z
x-y,-y,-z
-x,-x+y,2/3-z
y,x,1/3-z
-y,-x,5/6-z
-x+y,y,1/2-z
x,x-y,1/6-z
loop_
_atom_site_type_symbol
_atom_site_label
_atom_site_fract_x
_atom_site_fract_y
_atom_site_fract_z
Si Si1 0.668486 0.604398 0.959554
Si Si2 0.156354 0.620333 0.917807
Si Si3 0.835646 0.368504 0.971612
Si Si4 0.161081 0.143141 0.829484
O O1 0.658646 0.569399 0.830459
O O2 0.779863 0.708829 0.997980
O O3 0.631235 0.491066 0.025105
O O4 0.578221 0.636915 0.991783
O O5 0.278515 0.721486 0.916667
O O6 0.126925 0.589323 0.789048
O O7 0.741373 0.258628 0.916667
O O8 0.795438 0.397719 0.083334
O O9 0.135999 0.028127 0.781196
O O10 0.091210 0.182420 0.750000
#
# Coordination Sequence:
#
# PCOD9582905 Si02
#       4
#    12  12  12  12
#     4  11  26  49  76 115 162 211 282 336 402 505
#     4  11  27  49  71 112 166 215 267 330 420 493
#     4  12  27  45  77 112 156 218 278 338 410 494
#     4  10  24  48  82 119 153 205 277 344 414 487
#
# _framework density 23.170110999999999
#
# number of rings (size 3 to 8) (size 9 to 14) (size 15 to 20)
#    0.000    1.000    2.500    2.250   21.000    0.000 
#    0.000    6.250    0.000    0.000    0.000    0.000 
#    0.000    0.000    0.000    0.000    0.000    0.000 
#
# Total GULP energy -268462.354577 kJ/mol
# GULP energy per Si atom -5592.965720 kJ/mol
# Density = 2.311737 g / cm^3
# Si number density = 23.170111 Si / 1000 Ang^3
#
#
#
# Elastic Constant Matrix: (Units=GPa)
#
#
# Indices 1 2 3 4 5 6 
#
# 1 111.0093 43.6337 38.6716 0.0000 0.0000 0.0000
# 2 43.6337 111.0093 38.6716 0.0000 0.0000 0.0000
# 3 38.6716 38.6716 137.4078 0.0000 0.0000 0.0000
# 4 0.0000 0.0000 0.0000 6.4386 0.0000 0.0000
# 5 0.0000 0.0000 0.0000 0.0000 6.4386 0.0000
# 6 0.0000 0.0000 0.0000 0.0000 0.0000 33.6878
#
#
#
# Elastic Compliance Matrix: (Units=1/GPa)
#
#
# Indices 1 2 3 4 5 6 
#
# 1 0.011184 -0.003658 -0.002118 0.000000 0.000000 0.000000
# 2 -0.003658 0.011184 -0.002118 0.000000 0.000000 0.000000
# 3 -0.002118 -0.002118 0.008470 0.000000 0.000000 0.000000
# 4 0.000000 0.000000 0.000000 0.155312 0.000000 0.000000
# 5 0.000000 0.000000 0.000000 0.000000 0.155312 0.000000
# 6 0.000000 0.000000 0.000000 0.000000 0.000000 0.029684
#
#
# Mechanical properties :
#
#
# Convention : Reuss Voigt Hill
#
# Bulk Modulus (GPa) = 66.44838 66.82002 66.63420
# Shear Modulus (GPa) = 12.75669 25.20966 18.98318
#
# Velocity S-wave (km/s) = 2.34896 3.30210 2.86544
# Velocity P-wave (km/s) = 6.00813 6.59090 6.30625
#
# Compressibility (1/GPa) = 0.01504928
#
# Stress axis : x y z
#
# Youngs Moduli (GPa) = 89.41353 89.41353 118.06656
#
# Poissons Ratio (x) = 0.32709 0.25007
# Poissons Ratio (y) = 0.32709 0.25007
# Poissons Ratio (z) = 0.18938 0.18938
#
# Static dielectric constant tensor:
#      x y z
#    x 1.944190 0.000000 0.000000 
#    y 0.000000 1.944190 0.000000 
#    z 0.000000 0.000000 1.936670 
# 
# From -- ./inp_files/4145.got.cif
#   From: 2010.05.17/outbox.cif.g08.bks.cpg/sg178_3_cif.got.tgz:4145.got - 2010.05.20 11:30:59.
