data_PCOD9582150
_publ_section_title
;
Structure prediction by ZEFSAII (Michael W. Deem and Ramdas Pophale) SiO2 
 PCOD9582150
Probable space group: P 63/M
;
_chemical_formula_sum "Si O2"
_cell_formula_units_Z 52
_cell_length_a 15.000000
_cell_length_b 15.000000
_cell_length_c 15.000000
_cell_angle_alpha 90.000000
_cell_angle_beta 90.000000
_cell_angle_gamma 120.000000
_cell_volume 2922.835738
_symmetry_space_group_name_H-M "P 63/M"
_symmetry_group_IT_number 176
_symmetry_cell_setting 'hexagonal'
loop_
_space_group_symop_operation_xyz
x,y,z
x-y,x,1/2+z
-y,x-y,z
-x,-y,1/2+z
-x+y,-x,z
y,-x+y,1/2+z
-x,-y,-z
-x+y,-x,1/2-z
y,-x+y,-z
x,y,1/2-z
x-y,x,-z
-y,x-y,1/2-z
loop_
_atom_site_type_symbol
_atom_site_label
_atom_site_fract_x
_atom_site_fract_y
_atom_site_fract_z
Si Si1 0.424534 0.906754 0.934708
Si Si2 0.236182 0.130474 0.355115
Si Si3 0.185725 0.749946 0.969117
Si Si4 0.311792 0.369173 0.349460
Si Si5 0.000000 0.000000 0.858563
O O1 0.309331 0.826723 0.970411
O O2 0.485625 0.844501 0.921228
O O3 0.404151 0.971014 0.858801
O O4 0.500000 0.000000 0.000000
O O5 0.247860 0.110894 0.250000
O O6 0.327397 0.135025 0.415289
O O7 0.251646 0.245270 0.359078
O O8 0.119749 0.049920 0.385180
O O9 0.137761 0.722361 0.068946
O O10 0.292252 0.395492 0.250000
O O11 0.000000 0.000000 0.750000
#
# Coordination Sequence:
#
# PCOD9582150 Si02
#       5
#    12  12  12  12   4
#     4   9  19  34  54  79 108 141 183 231 272 320
#     4   9  19  34  53  78 108 140 178 221 268 323
#     4  10  19  35  56  79 108 146 184 225 275 324
#     4   9  19  36  54  76 107 141 179 226 275 327
#     4   9  18  33  52  80 113 140 172 219 268 326
#
# _framework density 17.790942000000001
#
# number of rings (size 3 to 8) (size 9 to 14) (size 15 to 20)
#    0.000    2.769    0.000    0.462    0.000    6.462 
#    0.000    5.769    0.000    2.769    0.000    0.000 
#    0.000    0.000    0.000    0.000    0.000    0.000 
#
# Total GULP energy -289665.774436 kJ/mol
# GULP energy per Si atom -5570.495662 kJ/mol
# Density = 1.775045 g / cm^3
# Si number density = 17.790942 Si / 1000 Ang^3
#
#
#
# Elastic Constant Matrix: (Units=GPa)
#
#
# Indices 1 2 3 4 5 6 
#
# 1 124.1204 55.6752 38.3511 0.0000 0.0000 0.0000
# 2 55.6752 124.1204 38.3511 0.0000 0.0000 0.0000
# 3 38.3511 38.3511 88.3779 0.0000 0.0000 0.0000
# 4 0.0000 0.0000 0.0000 21.9248 0.0000 0.0000
# 5 0.0000 0.0000 0.0000 0.0000 21.9248 0.0000
# 6 0.0000 0.0000 0.0000 0.0000 0.0000 34.2226
#
#
#
# Elastic Compliance Matrix: (Units=1/GPa)
#
#
# Indices 1 2 3 4 5 6 
#
# 1 0.010718 -0.003892 -0.002962 0.000000 0.000000 0.000000
# 2 -0.003892 0.010718 -0.002962 0.000000 0.000000 0.000000
# 3 -0.002962 -0.002962 0.013886 0.000000 0.000000 0.000000
# 4 0.000000 0.000000 0.000000 0.045610 0.000000 0.000000
# 5 0.000000 0.000000 0.000000 0.000000 0.045610 0.000000
# 6 0.000000 0.000000 0.000000 0.000000 0.000000 0.029220
#
#
# Mechanical properties :
#
#
# Convention : Reuss Voigt Hill
#
# Bulk Modulus (GPa) = 63.73881 66.81930 65.27905
# Shear Modulus (GPa) = 27.68176 29.23053 28.45615
#
# Velocity S-wave (km/s) = 3.94883 4.05779 4.00368
# Velocity P-wave (km/s) = 7.52963 7.71970 7.62526
#
# Compressibility (1/GPa) = 0.01568903
#
# Stress axis : x y z
#
# Youngs Moduli (GPa) = 93.30247 93.30247 72.01700
#
# Poissons Ratio (x) = 0.36317 0.21330
# Poissons Ratio (y) = 0.36317 0.21330
# Poissons Ratio (z) = 0.27635 0.27635
#
# Static dielectric constant tensor:
#      x y z
#    x 1.612220 0.000000 0.000000 
#    y 0.000000 1.612220 0.000000 
#    z 0.000000 0.000000 1.617520 
# 
# From -- ./inp_files/2554.got.cif
#   From: 2010.05.17/outbox.ucp.g08.bks.cvg/sg176_2_cif.got.tgz:2554.got - 2010.06.11 15:18:56.
