data_PCOD9582140
_publ_section_title
;
Structure prediction by ZEFSAII (Michael W. Deem and Ramdas Pophale) SiO2 
 PCOD9582140
Probable space group: P 63/M
;
_chemical_formula_sum "Si O2"
_cell_formula_units_Z 72
_cell_length_a 13.863402
_cell_length_b 13.863402
_cell_length_c 17.090693
_cell_angle_alpha 90.000000
_cell_angle_beta 90.000000
_cell_angle_gamma 120.000000
_cell_volume 2844.657198
_symmetry_space_group_name_H-M "P 63/M"
_symmetry_group_IT_number 176
_symmetry_cell_setting 'hexagonal'
loop_
_space_group_symop_operation_xyz
x,y,z
x-y,x,1/2+z
-y,x-y,z
-x,-y,1/2+z
-x+y,-x,z
y,-x+y,1/2+z
-x,-y,-z
-x+y,-x,1/2-z
y,-x+y,-z
x,y,1/2-z
x-y,x,-z
-y,x-y,1/2-z
loop_
_atom_site_type_symbol
_atom_site_label
_atom_site_fract_x
_atom_site_fract_y
_atom_site_fract_z
Si Si1 0.329459 0.062224 0.999727
Si Si2 0.838758 0.510277 0.999694
Si Si3 0.500978 0.697836 0.166022
Si Si4 0.954977 0.309959 0.666027
Si Si5 0.274601 0.314904 0.665417
Si Si6 0.575606 0.142505 0.163015
O O1 0.415299 0.193935 0.000062
O O2 0.265037 0.045836 0.081635
O O3 0.282753 0.032281 0.911244
O O4 0.373185 0.972747 0.005831
O O5 0.808903 0.440314 0.079181
O O6 0.804744 0.447925 0.916825
O O7 0.446626 0.651215 0.250000
O O8 0.546093 0.828927 0.164636
O O9 0.617348 0.698251 0.168161
O O10 0.975175 0.271612 0.750000
O O11 0.033335 0.443223 0.663273
O O12 0.216427 0.278246 0.750000
O O13 0.330717 0.449524 0.660502
O O14 0.620442 0.192065 0.250000
#
# Coordination Sequence:
#
# PCOD9582140 Si02
#       6
#    12  12  12  12  12  12
#     4   9  17  28  44  65  87 114 149 188 227 267
#     4   9  17  28  44  65  87 114 149 188 227 267
#     4   8  14  25  40  58  81 109 142 180 220 259
#     4   8  14  25  40  58  81 109 142 180 220 259
#     4   9  17  28  43  64  89 117 148 182 220 262
#     4   9  17  28  43  64  89 117 148 182 220 262
#
# _framework density 25.310607000000001
#
# number of rings (size 3 to 8) (size 9 to 14) (size 15 to 20)
#    0.000    3.333    0.000    0.000    0.000    6.667 
#    0.000    0.000    0.000    1.667    0.000   11.667 
#    0.000    0.000    0.000   22.667    0.000    0.000 
#
# Total GULP energy -401197.021777 kJ/mol
# GULP energy per Si atom -5572.180858 kJ/mol
# Density = 2.525300 g / cm^3
# Si number density = 25.310607 Si / 1000 Ang^3
#
#
#
# Elastic Constant Matrix: (Units=GPa)
#
#
# Indices 1 2 3 4 5 6 
#
# 1 56.2950 30.1077 10.6837 0.0000 0.0000 0.0000
# 2 30.1077 56.2950 10.6837 0.0000 0.0000 0.0000
# 3 10.6837 10.6837 331.9964 0.0000 0.0000 0.0000
# 4 0.0000 0.0000 0.0000 -13.4403 0.0000 0.0000
# 5 0.0000 0.0000 0.0000 0.0000 -13.4403 0.0000
# 6 0.0000 0.0000 0.0000 0.0000 0.0000 13.0936
#
#
#
# Elastic Compliance Matrix: (Units=1/GPa)
#
#
# Indices 1 2 3 4 5 6 
#
# 1 0.024927 -0.013260 -0.000375 0.000000 0.000000 0.000000
# 2 -0.013260 0.024927 -0.000375 0.000000 0.000000 0.000000
# 3 -0.000375 -0.000375 0.003036 0.000000 0.000000 0.000000
# 4 0.000000 0.000000 0.000000 -0.074403 0.000000 0.000000
# 5 0.000000 0.000000 0.000000 0.000000 -0.074403 0.000000
# 6 0.000000 0.000000 0.000000 0.000000 0.000000 0.076373
#
#
# Mechanical properties :
#
#
# Convention : Reuss Voigt Hill
#
# Bulk Modulus (GPa) = 40.21293 60.83741 50.52517
# Shear Modulus (GPa) = 298.20390 23.45002 160.82696
#
# Velocity S-wave (km/s) = 10.86616 3.04713 7.97993
# Velocity P-wave (km/s) = 13.16638 6.03892 10.24261
#
# Compressibility (1/GPa) = 0.02486762
#
# Stress axis : x y z
#
# Youngs Moduli (GPa) = 40.11790 40.11790 329.35429
#
# Poissons Ratio (x) = 0.53196 0.12365
# Poissons Ratio (y) = 0.53196 0.12365
# Poissons Ratio (z) = 0.01506 0.01506
#
# Static dielectric constant tensor:
#      x y z
#    x 1.991520 0.000000 0.000000 
#    y 0.000000 1.991520 0.000000 
#    z 0.000000 0.000000 2.150040 
# 
# From -- ./inp_files/3366.got.cif
#   From: 2010.05.17/outbox.cif.g08.bks.cpg/sg176_2_cif.got.tgz:3366.got - 2010.06.03 11:36:45.
