data_PCOD9582601
_publ_section_title
;
Structure prediction by ZEFSAII (Michael W. Deem and Ramdas Pophale) SiO2 
 PCOD9582601
Probable space group: P 61 2 2
;
_chemical_formula_sum "Si O2"
_cell_formula_units_Z 84
_cell_length_a 14.530109
_cell_length_b 14.530109
_cell_length_c 23.257891
_cell_angle_alpha 90.000000
_cell_angle_beta 90.000000
_cell_angle_gamma 120.000000
_cell_volume 4252.445017
_symmetry_space_group_name_H-M "P 61 2 2"
_symmetry_group_IT_number 178
_symmetry_cell_setting 'hexagonal'
loop_
_space_group_symop_operation_xyz
x,y,z
x-y,x,1/6+z
-y,x-y,1/3+z
-x,-y,1/2+z
-x+y,-x,2/3+z
y,-x+y,5/6+z
x-y,-y,-z
-x,-x+y,2/3-z
y,x,1/3-z
-y,-x,5/6-z
-x+y,y,1/2-z
x,x-y,1/6-z
loop_
_atom_site_type_symbol
_atom_site_label
_atom_site_fract_x
_atom_site_fract_y
_atom_site_fract_z
Si Si1 0.344447 0.563817 0.586206
Si Si2 0.103874 0.522934 0.488195
Si Si3 0.216221 0.524304 0.042088
Si Si4 0.705148 0.112801 0.770359
Si Si5 0.052417 0.423877 0.272309
Si Si6 0.279409 0.193521 0.908524
Si Si7 0.813553 0.773860 0.793845
O O1 0.314832 0.657416 0.583334
O O2 0.354881 0.533513 0.521190
O O3 0.240225 0.459236 0.609672
O O4 0.459500 0.613740 0.615179
O O5 0.222158 0.562924 0.464679
O O6 0.092384 0.441731 0.539930
O O7 0.086106 0.612122 0.517403
O O8 0.027154 0.467375 0.435208
O O9 0.196969 0.598485 0.083334
O O10 0.155801 0.405805 0.066166
O O11 0.751504 0.033889 0.775459
O O12 0.067488 0.337598 0.236652
O O13 0.000000 0.375389 0.333334
O O14 0.232266 0.086280 0.871993
O O15 0.249811 0.164493 0.975361
O O16 0.911347 0.822693 0.750000
#
# Coordination Sequence:
#
# PCOD9582601 Si02
#       7
#    12  12  12  12  12  12  12
#     4  11  22  39  58  91 128 175 218 267 324 391
#     4  10  20  38  55  87 126 162 212 261 313 384
#     4  11  22  34  61  92 124 168 218 256 320 391
#     4  10  20  40  62  85 121 164 218 273 309 388
#     4  12  24  37  58  89 135 175 209 261 342 410
#     4  12  23  41  67  93 128 171 225 274 335 400
#     4  12  25  42  61  95 134 171 215 282 342 399
#
# _framework density 19.753340999999999
#
# number of rings (size 3 to 8) (size 9 to 14) (size 15 to 20)
#    0.000    0.857    5.714    4.286    4.000    0.000 
#    0.000    0.000    0.000    1.714    0.000    4.000 
#    0.000    0.000    0.000    0.000    0.000    0.000 
#
# Total GULP energy -469316.831729 kJ/mol
# GULP energy per Si atom -5587.105140 kJ/mol
# Density = 1.970838 g / cm^3
# Si number density = 19.753341 Si / 1000 Ang^3
#
#
#
# Elastic Constant Matrix: (Units=GPa)
#
#
# Indices 1 2 3 4 5 6 
#
# 1 63.4409 9.4021 -4.2414 0.0000 0.0000 0.0000
# 2 9.4021 63.4409 -4.2414 0.0000 0.0000 0.0000
# 3 -4.2414 -4.2414 60.5610 0.0000 0.0000 0.0000
# 4 0.0000 0.0000 0.0000 17.4934 0.0000 0.0000
# 5 0.0000 0.0000 0.0000 0.0000 17.4934 0.0000
# 6 0.0000 0.0000 0.0000 0.0000 0.0000 27.0194
#
#
#
# Elastic Compliance Matrix: (Units=1/GPa)
#
#
# Indices 1 2 3 4 5 6 
#
# 1 0.016173 -0.002332 0.000969 0.000000 0.000000 0.000000
# 2 -0.002332 0.016173 0.000969 0.000000 0.000000 0.000000
# 3 0.000969 0.000969 0.016648 0.000000 0.000000 0.000000
# 4 0.000000 0.000000 0.000000 0.057164 0.000000 0.000000
# 5 0.000000 0.000000 0.000000 0.000000 0.057164 0.000000
# 6 0.000000 0.000000 0.000000 0.000000 0.000000 0.037010
#
#
# Mechanical properties :
#
#
# Convention : Reuss Voigt Hill
#
# Bulk Modulus (GPa) = 20.74363 21.03127 20.88745
# Shear Modulus (GPa) = 23.02139 24.83616 23.92877
#
# Velocity S-wave (km/s) = 3.41756 3.54971 3.48426
# Velocity P-wave (km/s) = 5.10853 5.24124 5.17531
#
# Compressibility (1/GPa) = 0.04820757
#
# Stress axis : x y z
#
# Youngs Moduli (GPa) = 61.83099 61.83099 60.06704
#
# Poissons Ratio (x) = 0.14420 -0.05823
# Poissons Ratio (y) = 0.14420 -0.05823
# Poissons Ratio (z) = -0.05994 -0.05994
#
# Static dielectric constant tensor:
#      x y z
#    x 1.747680 0.000000 0.000000 
#    y 0.000000 1.747680 0.000000 
#    z 0.000000 0.000000 1.679350 
# 
# From -- ./inp_files/8323.got.cif
#   From: 2010.05.17/outbox.cif.g08.bks.cpg/sg178_5_cif.got.tgz:8323.got - 2010.05.20 11:30:59.
