data_PCOD9582230
_publ_section_title
;
Structure prediction by ZEFSAII (Michael W. Deem and Ramdas Pophale) SiO2 
 PCOD9582230
Probable space group: P 6 2 2
;
_chemical_formula_sum "Si O2"
_cell_formula_units_Z 54
_cell_length_a 21.885741
_cell_length_b 21.885741
_cell_length_c 7.868309
_cell_angle_alpha 90.000000
_cell_angle_beta 90.000000
_cell_angle_gamma 120.000000
_cell_volume 3263.882753
_symmetry_space_group_name_H-M "P 6 2 2"
_symmetry_group_IT_number 177
_symmetry_cell_setting 'hexagonal'
loop_
_space_group_symop_operation_xyz
x,y,z
x-y,x,z
-y,x-y,z
-x,-y,z
-x+y,-x,z
y,-x+y,z
x-y,-y,-z
-x,-x+y,-z
y,x,-z
-y,-x,-z
-x+y,y,-z
x,x-y,-z
loop_
_atom_site_type_symbol
_atom_site_label
_atom_site_fract_x
_atom_site_fract_y
_atom_site_fract_z
Si Si1 0.457781 0.542219 0.191215
Si Si2 0.427864 0.713932 0.500000
Si Si3 0.325807 0.406275 0.697044
Si Si4 0.540568 0.770284 0.188281
Si Si5 0.593725 0.919532 0.302955
O O1 0.500000 0.500000 0.174024
O O2 0.512367 0.611853 0.287648
O O3 0.388147 0.487633 0.287647
O O4 0.442469 0.557532 0.000000
O O5 0.371222 0.742444 0.500000
O O6 0.480312 0.740156 0.336231
O O7 0.263507 0.409256 0.791585
O O8 0.307701 0.388998 0.500000
O O9 0.357669 0.357670 0.761779
O O10 0.590744 0.854251 0.208415
O O11 0.508044 0.754022 0.000000
#
# Coordination Sequence:
#
# PCOD9582230 Si02
#       5
#    12   6  12  12  12
#     4   9  17  28  45  70  94 120 161 204 245 295
#     4  10  26  44  56  72 107 138 176 224 269 322
#     4  10  20  35  54  74 100 133 171 214 259 311
#     4  12  24  38  58  79 105 137 176 220 272 325
#     4  10  20  35  54  74 100 133 171 214 259 311
#
# _framework density 16.544712000000001
#
# number of rings (size 3 to 8) (size 9 to 14) (size 15 to 20)
#    0.222    1.556    2.222    2.000    3.111    6.222 
#    0.000    0.000    0.000    0.000    0.000    0.000 
#    0.000    0.000    0.000    0.667    0.000   12.889 
#
# Total GULP energy -300833.539625 kJ/mol
# GULP energy per Si atom -5570.991475 kJ/mol
# Density = 1.650706 g / cm^3
# Si number density = 16.544712 Si / 1000 Ang^3
#
#
#
# Elastic Constant Matrix: (Units=GPa)
#
#
# Indices 1 2 3 4 5 6 
#
# 1 84.1044 46.7972 24.1250 0.0000 0.0000 0.0000
# 2 46.7972 84.1044 24.1250 0.0000 0.0000 0.0000
# 3 24.1250 24.1250 103.8433 0.0000 0.0000 0.0000
# 4 0.0000 0.0000 0.0000 1.1831 0.0000 0.0000
# 5 0.0000 0.0000 0.0000 0.0000 1.1831 0.0000
# 6 0.0000 0.0000 0.0000 0.0000 0.0000 18.6536
#
#
#
# Elastic Compliance Matrix: (Units=1/GPa)
#
#
# Indices 1 2 3 4 5 6 
#
# 1 0.017580 -0.009225 -0.001941 0.000000 0.000000 0.000000
# 2 -0.009225 0.017580 -0.001941 0.000000 0.000000 0.000000
# 3 -0.001941 -0.001941 0.010532 0.000000 0.000000 0.000000
# 4 0.000000 0.000000 0.000000 0.845204 0.000000 0.000000
# 5 0.000000 0.000000 0.000000 0.000000 0.845204 0.000000
# 6 0.000000 0.000000 0.000000 0.000000 0.000000 0.053609
#
#
# Mechanical properties :
#
#
# Convention : Reuss Voigt Hill
#
# Bulk Modulus (GPa) = 51.34173 51.34962 51.34567
# Shear Modulus (GPa) = 2.74361 16.00429 9.37395
#
# Velocity S-wave (km/s) = 1.28915 3.11358 2.38288
# Velocity P-wave (km/s) = 5.77194 6.63552 6.21874
#
# Compressibility (1/GPa) = 0.01947734
#
# Stress axis : x y z
#
# Youngs Moduli (GPa) = 56.88397 56.88397 94.95084
#
# Poissons Ratio (x) = 0.52475 0.18430
# Poissons Ratio (y) = 0.52475 0.18430
# Poissons Ratio (z) = 0.11041 0.11041
#
# Static dielectric constant tensor:
#      x y z
#    x 1.585880 0.000000 0.000000 
#    y 0.000000 1.585880 0.000000 
#    z 0.000000 0.000000 1.611150 
# 
# From -- ./inp_files/1477.got.cif
#   From: 2010.05.17/outbox.cif.g08.bks.cpg/sg177_1_cif.got.tgz:1477.got - 2010.05.20 11:28:44.
