data_PCOD9582379
_publ_section_title
;
Structure prediction by ZEFSAII (Michael W. Deem and Ramdas Pophale) SiO2 
 PCOD9582379
Probable space group: P 61 2 2
;
_chemical_formula_sum "Si O2"
_cell_formula_units_Z 78
_cell_length_a 21.787371
_cell_length_b 21.787371
_cell_length_c 14.590451
_cell_angle_alpha 90.000000
_cell_angle_beta 90.000000
_cell_angle_gamma 120.000000
_cell_volume 5998.035137
_symmetry_space_group_name_H-M "P 61 2 2"
_symmetry_group_IT_number 178
_symmetry_cell_setting 'hexagonal'
loop_
_space_group_symop_operation_xyz
x,y,z
x-y,x,1/6+z
-y,x-y,1/3+z
-x,-y,1/2+z
-x+y,-x,2/3+z
y,-x+y,5/6+z
x-y,-y,-z
-x,-x+y,2/3-z
y,x,1/3-z
-y,-x,5/6-z
-x+y,y,1/2-z
x,x-y,1/6-z
loop_
_atom_site_type_symbol
_atom_site_label
_atom_site_fract_x
_atom_site_fract_y
_atom_site_fract_z
Si Si1 0.876959 0.364082 0.093895
Si Si2 0.328253 0.671748 0.416667
Si Si3 0.047264 0.586577 0.413320
Si Si4 0.431643 0.435202 0.274959
Si Si5 0.752377 0.275831 0.670511
Si Si6 0.637308 0.487139 0.854258
Si Si7 0.571321 0.387798 0.691380
O O1 0.867360 0.433680 0.083334
O O2 0.933273 0.379457 0.173418
O O3 0.802227 0.298298 0.124464
O O4 0.914473 0.361548 0.998753
O O5 0.313286 0.608530 0.486269
O O6 0.355866 0.747011 0.463326
O O7 0.997047 0.506751 0.450885
O O8 0.112372 0.583070 0.365819
O O9 0.000000 0.594463 0.333334
O O10 0.419297 0.419297 0.166667
O O11 0.375007 0.448374 0.328478
O O12 0.796207 0.291878 0.575971
O O13 0.808762 0.323282 0.747007
O O14 0.571703 0.428298 0.916667
O O15 0.628136 0.447947 0.757627
#
# Coordination Sequence:
#
# PCOD9582379 Si02
#       7
#    12   6  12  12  12  12  12
#     4  10  20  32  45  60  81 100 135 170 205 265
#     4  12  20  28  40  56  82 116 126 162 212 276
#     4  10  18  29  48  59  75 101 136 171 205 242
#     4  10  18  31  47  61  74 100 138 170 205 240
#     4  11  22  30  41  61  82 109 131 162 219 266
#     4  10  19  31  43  58  77 104 130 169 201 261
#     4  11  19  30  41  57  82 101 137 160 207 258
#
# _framework density 13.004258
#
# number of rings (size 3 to 8) (size 9 to 14) (size 15 to 20)
#    0.000    1.538    5.385    5.538    2.154    0.000 
#    0.000    0.000    0.000    0.000    0.000    0.000 
#    0.000    0.000    0.000    0.000    0.000    0.000 
#
# Total GULP energy -434456.604937 kJ/mol
# GULP energy per Si atom -5569.956474 kJ/mol
# Density = 1.297466 g / cm^3
# Si number density = 13.004258 Si / 1000 Ang^3
#
#
#
# Elastic Constant Matrix: (Units=GPa)
#
#
# Indices 1 2 3 4 5 6 
#
# 1 40.3946 22.9397 25.4789 0.0000 0.0000 0.0000
# 2 22.9397 40.3946 25.4789 0.0000 0.0000 0.0000
# 3 25.4789 25.4789 74.8883 0.0000 0.0000 0.0000
# 4 0.0000 0.0000 0.0000 21.9776 0.0000 0.0000
# 5 0.0000 0.0000 0.0000 0.0000 21.9776 0.0000
# 6 0.0000 0.0000 0.0000 0.0000 0.0000 8.7275
#
#
#
# Elastic Compliance Matrix: (Units=1/GPa)
#
#
# Indices 1 2 3 4 5 6 
#
# 1 0.039515 -0.017775 -0.007397 0.000000 0.000000 0.000000
# 2 -0.017775 0.039515 -0.007397 0.000000 0.000000 0.000000
# 3 -0.007397 -0.007397 0.018386 0.000000 0.000000 0.000000
# 4 0.000000 0.000000 0.000000 0.045501 0.000000 0.000000
# 5 0.000000 0.000000 0.000000 0.000000 0.045501 0.000000
# 6 0.000000 0.000000 0.000000 0.000000 0.000000 0.114581
#
#
# Mechanical properties :
#
#
# Convention : Reuss Voigt Hill
#
# Bulk Modulus (GPa) = 30.97835 33.71914 32.34874
# Shear Modulus (GPa) = 13.19621 15.98854 14.59237
#
# Velocity S-wave (km/s) = 3.18899 3.51020 3.35344
# Velocity P-wave (km/s) = 6.11825 6.51263 6.31851
#
# Compressibility (1/GPa) = 0.03228061
#
# Stress axis : x y z
#
# Youngs Moduli (GPa) = 25.30654 25.30654 54.38835
#
# Poissons Ratio (x) = 0.44982 0.40229
# Poissons Ratio (y) = 0.44982 0.40229
# Poissons Ratio (z) = 0.18718 0.18718
#
# Static dielectric constant tensor:
#      x y z
#    x 1.421130 0.000000 0.000000 
#    y 0.000000 1.421130 0.000000 
#    z 0.000000 0.000000 1.534280 
# 
# From -- ./inp_files/6070.got.cif
#   From: 2010.05.17/outbox.cif.g08.bks.cpg/sg178_4_cif.got.tgz:6070.got - 2010.05.20 11:30:59.
