data_PCOD9582878
_publ_section_title
;
Structure prediction by ZEFSAII (Michael W. Deem and Ramdas Pophale) SiO2 
 PCOD9582878
Probable space group: P 61 2 2
;
_chemical_formula_sum "Si O2"
_cell_formula_units_Z 42
_cell_length_a 9.308525
_cell_length_b 9.308525
_cell_length_c 24.474409
_cell_angle_alpha 90.000000
_cell_angle_beta 90.000000
_cell_angle_gamma 120.000000
_cell_volume 1836.557728
_symmetry_space_group_name_H-M "P 61 2 2"
_symmetry_group_IT_number 178
_symmetry_cell_setting 'hexagonal'
loop_
_space_group_symop_operation_xyz
x,y,z
x-y,x,1/6+z
-y,x-y,1/3+z
-x,-y,1/2+z
-x+y,-x,2/3+z
y,-x+y,5/6+z
x-y,-y,-z
-x,-x+y,2/3-z
y,x,1/3-z
-y,-x,5/6-z
-x+y,y,1/2-z
x,x-y,1/6-z
loop_
_atom_site_type_symbol
_atom_site_label
_atom_site_fract_x
_atom_site_fract_y
_atom_site_fract_z
Si Si1 0.199274 0.408142 0.839517
Si Si2 0.350817 0.039574 0.237776
Si Si3 0.573320 0.286660 0.083334
Si Si4 0.077812 0.628826 0.708782
O O1 0.229998 0.287544 0.878924
O O2 0.253325 0.572909 0.873978
O O3 0.353763 0.490720 0.795608
O O4 0.000000 0.317950 0.833334
O O5 0.523687 0.047373 0.250000
O O6 0.401145 0.231840 0.244544
O O7 0.289990 0.924982 0.183468
O O8 0.466594 0.350932 0.053264
#
# Coordination Sequence:
#
# PCOD9582878 Si02
#       4
#    12  12   6  12
#     4  11  24  45  73 106 137 188 242 300 372 439
#     4  10  23  46  71  99 147 189 232 311 362 436
#     4  12  26  44  72 106 138 196 244 288 380 430
#     4  11  25  47  70 102 146 190 244 299 366 441
#
# _framework density 22.868867999999999
#
# number of rings (size 3 to 8) (size 9 to 14) (size 15 to 20)
#    0.000    1.143    4.286    3.429    8.000    0.000 
#    5.143    0.000    0.000    0.000    0.000    0.000 
#    0.000    0.000    0.000    0.000    0.000    0.000 
#
# Total GULP energy -234030.534607 kJ/mol
# GULP energy per Si atom -5572.155586 kJ/mol
# Density = 2.281682 g / cm^3
# Si number density = 22.868868 Si / 1000 Ang^3
#
#
#
# Elastic Constant Matrix: (Units=GPa)
#
#
# Indices 1 2 3 4 5 6 
#
# 1 473.6389 -328.9836 17.0132 0.0000 0.0000 0.0000
# 2 -328.9836 473.6389 17.0132 0.0000 0.0000 0.0000
# 3 17.0132 17.0132 38.5769 0.0000 0.0000 0.0000
# 4 0.0000 0.0000 0.0000 23.6624 0.0000 0.0000
# 5 0.0000 0.0000 0.0000 0.0000 23.6624 0.0000
# 6 0.0000 0.0000 0.0000 0.0000 0.0000 401.3113
#
#
#
# Elastic Compliance Matrix: (Units=1/GPa)
#
#
# Indices 1 2 3 4 5 6 
#
# 1 0.004480 0.003234 -0.003402 0.000000 0.000000 0.000000
# 2 0.003234 0.004480 -0.003402 0.000000 0.000000 0.000000
# 3 -0.003402 -0.003402 0.028923 0.000000 0.000000 0.000000
# 4 0.000000 0.000000 0.000000 0.042261 0.000000 0.000000
# 5 0.000000 0.000000 0.000000 0.000000 0.042261 0.000000
# 6 0.000000 0.000000 0.000000 0.000000 0.000000 0.002492
#
#
# Mechanical properties :
#
#
# Convention : Reuss Voigt Hill
#
# Bulk Modulus (GPa) = 32.52845 43.99338 38.26091
# Shear Modulus (GPa) = 35.14133 175.11468 105.12801
#
# Velocity S-wave (km/s) = 3.92426 8.76012 6.78747
# Velocity P-wave (km/s) = 5.89812 11.02717 8.84269
#
# Compressibility (1/GPa) = 0.03074232
#
# Stress axis : x y z
#
# Youngs Moduli (GPa) = 223.23789 223.23789 34.57494
#
# Poissons Ratio (x) = -0.72186 0.11761
# Poissons Ratio (y) = -0.72186 0.11761
# Poissons Ratio (z) = 0.75938 0.75938
#
# Static dielectric constant tensor:
#      x y z
#    x 1.858970 0.000000 0.000000 
#    y 0.000000 1.858970 0.000000 
#    z 0.000000 0.000000 1.817350 
# 
# From -- ./inp_files/9249.got.cif
#   From: 2010.05.17/outbox.cif.g08.bks.cpg/sg178_5_cif.got.tgz:9249.got - 2010.05.20 11:30:59.
