data_PCOD9582166
_publ_section_title
;
Structure prediction by ZEFSAII (Michael W. Deem and Ramdas Pophale) SiO2 
 PCOD9582166
Probable space group: P 6 2 2
;
_chemical_formula_sum "Si O2"
_cell_formula_units_Z 78
_cell_length_a 17.221592
_cell_length_b 17.221592
_cell_length_c 18.444535
_cell_angle_alpha 90.000000
_cell_angle_beta 90.000000
_cell_angle_gamma 120.000000
_cell_volume 4737.453221
_symmetry_space_group_name_H-M "P 6 2 2"
_symmetry_group_IT_number 177
_symmetry_cell_setting 'hexagonal'
loop_
_space_group_symop_operation_xyz
x,y,z
x-y,x,z
-y,x-y,z
-x,-y,z
-x+y,-x,z
y,-x+y,z
x-y,-y,-z
-x,-x+y,-z
y,x,-z
-y,-x,-z
-x+y,y,-z
x,x-y,-z
loop_
_atom_site_type_symbol
_atom_site_label
_atom_site_fract_x
_atom_site_fract_y
_atom_site_fract_z
Si Si1 0.592833 0.012152 0.345735
Si Si2 0.177543 0.638078 0.571755
Si Si3 0.860341 0.214584 0.712096
Si Si4 0.106416 0.893585 0.000000
Si Si5 0.785163 0.888119 0.415503
Si Si6 0.810379 0.508208 0.642331
Si Si7 0.784129 0.883912 0.160092
O O1 0.611661 0.076102 0.414597
O O2 0.681658 0.061874 0.296779
O O3 0.500000 0.000000 0.312135
O O4 0.571701 0.915302 0.370923
O O5 0.189650 0.594825 0.500000
O O6 0.238156 0.742949 0.581330
O O7 0.202077 0.591057 0.638153
O O8 0.865264 0.161134 0.641175
O O9 0.765006 0.211644 0.709368
O O10 0.871293 0.163841 0.780068
O O11 0.124902 0.866676 0.921153
O O12 0.000000 0.849581 0.000000
O O13 0.847496 0.843042 0.403939
O O14 0.755989 0.877995 0.500000
O O15 0.849506 0.841600 0.167998
#
# Coordination Sequence:
#
# PCOD9582166 Si02
#       7
#    12  12  12   6  12  12  12
#     4   9  20  35  49  66  91 120 152 199 254 304
#     4  10  20  33  49  67  88 116 153 198 249 302
#     4  11  21  33  50  71  96 127 166 206 247 299
#     4   8  15  26  42  68 104 142 174 202 234 272
#     4  10  20  32  44  61  88 126 169 210 245 277
#     4  10  20  34  48  66  90 114 150 193 241 296
#     4  10  18  29  47  73 107 143 177 207 238 282
#
# _framework density 16.464542000000002
#
# number of rings (size 3 to 8) (size 9 to 14) (size 15 to 20)
#    0.000    2.154    0.000    3.923    0.000    7.077 
#    0.000    4.615    0.000    0.000    0.000    0.000 
#    0.000   42.462    0.000    0.000    0.000    0.000 
#
# Total GULP energy -434302.784385 kJ/mol
# GULP energy per Si atom -5567.984415 kJ/mol
# Density = 1.642707 g / cm^3
# Si number density = 16.464542 Si / 1000 Ang^3
#
#
#
# Elastic Constant Matrix: (Units=GPa)
#
#
# Indices 1 2 3 4 5 6 
#
# 1 89.3130 37.5195 42.6445 0.0000 0.0000 0.0000
# 2 37.5195 89.3130 42.6445 0.0000 0.0000 0.0000
# 3 42.6445 42.6445 95.1942 0.0000 0.0000 0.0000
# 4 0.0000 0.0000 0.0000 16.9567 0.0000 0.0000
# 5 0.0000 0.0000 0.0000 0.0000 16.9567 0.0000
# 6 0.0000 0.0000 0.0000 0.0000 0.0000 25.8967
#
#
#
# Elastic Compliance Matrix: (Units=1/GPa)
#
#
# Indices 1 2 3 4 5 6 
#
# 1 0.015295 -0.004012 -0.005055 0.000000 0.000000 0.000000
# 2 -0.004012 0.015295 -0.005055 0.000000 0.000000 0.000000
# 3 -0.005055 -0.005055 0.015034 0.000000 0.000000 0.000000
# 4 0.000000 0.000000 0.000000 0.058974 0.000000 0.000000
# 5 0.000000 0.000000 0.000000 0.000000 0.058974 0.000000
# 6 0.000000 0.000000 0.000000 0.000000 0.000000 0.038615
#
#
# Mechanical properties :
#
#
# Convention : Reuss Voigt Hill
#
# Bulk Modulus (GPa) = 57.53169 57.71526 57.62348
# Shear Modulus (GPa) = 21.16642 22.02949 21.59796
#
# Velocity S-wave (km/s) = 3.58938 3.66183 3.62579
# Velocity P-wave (km/s) = 7.22474 7.28073 7.25279
#
# Compressibility (1/GPa) = 0.01738172
#
# Stress axis : x y z
#
# Youngs Moduli (GPa) = 65.37891 65.37891 66.51777
#
# Poissons Ratio (x) = 0.26230 0.33623
# Poissons Ratio (y) = 0.26230 0.33623
# Poissons Ratio (z) = 0.33047 0.33047
#
# Static dielectric constant tensor:
#      x y z
#    x 1.597500 0.000000 0.000000 
#    y 0.000000 1.597500 0.000000 
#    z 0.000000 0.000000 1.566070 
# 
# From -- ./inp_files/2928.got.cif
#   From: 2010.05.17/outbox.cif.g08.bks.cpg/sg177_2_cif.got.tgz:2928.got - 2010.05.20 11:28:44.
