data_PCOD9582339
_publ_section_title
;
Structure prediction by ZEFSAII (Michael W. Deem and Ramdas Pophale) SiO2 
 PCOD9582339
Probable space group: P 61 2 2
;
_chemical_formula_sum "Si O2"
_cell_formula_units_Z 42
_cell_length_a 8.516269
_cell_length_b 8.516269
_cell_length_c 26.510017
_cell_angle_alpha 90.000000
_cell_angle_beta 90.000000
_cell_angle_gamma 120.000000
_cell_volume 1665.096392
_symmetry_space_group_name_H-M "P 61 2 2"
_symmetry_group_IT_number 178
_symmetry_cell_setting 'hexagonal'
loop_
_space_group_symop_operation_xyz
x,y,z
x-y,x,1/6+z
-y,x-y,1/3+z
-x,-y,1/2+z
-x+y,-x,2/3+z
y,-x+y,5/6+z
x-y,-y,-z
-x,-x+y,2/3-z
y,x,1/3-z
-y,-x,5/6-z
-x+y,y,1/2-z
x,x-y,1/6-z
loop_
_atom_site_type_symbol
_atom_site_label
_atom_site_fract_x
_atom_site_fract_y
_atom_site_fract_z
Si Si1 0.174650 0.192087 0.497945
Si Si2 0.409553 0.147924 0.757021
Si Si3 0.233874 0.766127 0.416667
Si Si4 0.433729 0.052127 0.057634
O O1 0.161496 0.358599 0.519644
O O2 0.231408 0.203474 0.440820
O O3 0.329552 0.191138 0.535297
O O4 0.995195 0.000000 0.500000
O O5 0.528100 0.056199 0.750000
O O6 0.518109 0.345099 0.730675
O O7 0.135086 0.548388 0.413369
O O8 0.369481 0.184741 0.083334
O O9 0.372526 0.000000 0.000000
#
# Coordination Sequence:
#
# PCOD9582339 Si02
#       4
#    12  12   6  12
#     4  11  16  32  59  92 129 182 239 316 378 453
#     4  10  20  32  58  92 138 184 245 316 396 460
#     4  10  16  30  54  92 142 174 246 312 396 456
#     4  10  18  31  55  95 143 190 247 332 402 471
#
# _framework density 25.223763999999999
#
# number of rings (size 3 to 8) (size 9 to 14) (size 15 to 20)
#    0.000    1.714    8.571    0.000    0.000    0.000 
#    0.000    0.000    3.143    3.429    3.714    8.000 
#    4.286    0.000    0.000    0.000    0.000    0.000 
#
# Total GULP energy -234334.827382 kJ/mol
# GULP energy per Si atom -5579.400652 kJ/mol
# Density = 2.516635 g / cm^3
# Si number density = 25.223764 Si / 1000 Ang^3
#
#
#
# Elastic Constant Matrix: (Units=GPa)
#
#
# Indices 1 2 3 4 5 6 
#
# 1 104.2238 47.5442 31.6372 0.0000 0.0000 0.0000
# 2 47.5442 104.2238 31.6372 0.0000 0.0000 0.0000
# 3 31.6372 31.6372 94.9551 0.0000 0.0000 0.0000
# 4 0.0000 0.0000 0.0000 14.7851 0.0000 0.0000
# 5 0.0000 0.0000 0.0000 0.0000 14.7851 0.0000
# 6 0.0000 0.0000 0.0000 0.0000 0.0000 28.3398
#
#
#
# Elastic Compliance Matrix: (Units=1/GPa)
#
#
# Indices 1 2 3 4 5 6 
#
# 1 0.012647 -0.004996 -0.002549 0.000000 0.000000 0.000000
# 2 -0.004996 0.012647 -0.002549 0.000000 0.000000 0.000000
# 3 -0.002549 -0.002549 0.012230 0.000000 0.000000 0.000000
# 4 0.000000 0.000000 0.000000 0.067636 0.000000 0.000000
# 5 0.000000 0.000000 0.000000 0.000000 0.067636 0.000000
# 6 0.000000 0.000000 0.000000 0.000000 0.000000 0.035286
#
#
# Mechanical properties :
#
#
# Convention : Reuss Voigt Hill
#
# Bulk Modulus (GPa) = 57.68304 58.33775 58.01040
# Shear Modulus (GPa) = 21.36293 24.42095 22.89194
#
# Velocity S-wave (km/s) = 2.91338 3.11492 3.01583
# Velocity P-wave (km/s) = 5.85108 6.00960 5.93087
#
# Compressibility (1/GPa) = 0.01733612
#
# Stress axis : x y z
#
# Youngs Moduli (GPa) = 79.06722 79.06722 81.76512
#
# Poissons Ratio (x) = 0.39498 0.20846
# Poissons Ratio (y) = 0.39498 0.20846
# Poissons Ratio (z) = 0.20158 0.20158
#
# Static dielectric constant tensor:
#      x y z
#    x 2.107550 0.000000 0.000000 
#    y 0.000000 2.107550 0.000000 
#    z 0.000000 0.000000 1.992840 
# 
# From -- ./inp_files/9313.got.cif
#   From: 2010.05.17/outbox.cif.g08.bks.cpg/sg178_5_cif.got.tgz:9313.got - 2010.05.20 11:30:59.
