data_PCOD9582655
_publ_section_title
;
Structure prediction by ZEFSAII (Michael W. Deem and Ramdas Pophale) SiO2 
 PCOD9582655
Probable space group: P 61 2 2
;
_chemical_formula_sum "Si O2"
_cell_formula_units_Z 84
_cell_length_a 17.219247
_cell_length_b 17.219247
_cell_length_c 16.721317
_cell_angle_alpha 90.000000
_cell_angle_beta 90.000000
_cell_angle_gamma 120.000000
_cell_volume 4293.677522
_symmetry_space_group_name_H-M "P 61 2 2"
_symmetry_group_IT_number 178
_symmetry_cell_setting 'hexagonal'
loop_
_space_group_symop_operation_xyz
x,y,z
x-y,x,1/6+z
-y,x-y,1/3+z
-x,-y,1/2+z
-x+y,-x,2/3+z
y,-x+y,5/6+z
x-y,-y,-z
-x,-x+y,2/3-z
y,x,1/3-z
-y,-x,5/6-z
-x+y,y,1/2-z
x,x-y,1/6-z
loop_
_atom_site_type_symbol
_atom_site_label
_atom_site_fract_x
_atom_site_fract_y
_atom_site_fract_z
Si Si1 0.817898 0.348921 0.888049
Si Si2 0.842225 0.602162 0.026137
Si Si3 0.952870 0.047131 0.416667
Si Si4 0.717239 0.261008 0.267670
Si Si5 0.046406 0.592051 0.526294
Si Si6 0.204381 0.795620 0.916667
Si Si7 0.926712 0.618165 0.400697
Si Si8 0.006032 0.754199 0.927285
O O1 0.753689 0.246312 0.916667
O O2 0.754904 0.390267 0.876588
O O3 0.870815 0.348309 0.810207
O O4 0.889585 0.407548 0.955787
O O5 0.890753 0.569239 0.087495
O O6 0.790956 0.645676 0.072148
O O7 0.767348 0.517292 0.976221
O O8 0.920894 0.674596 0.970209
O O9 0.989652 0.151131 0.440207
O O10 0.000000 0.044204 0.333334
O O11 0.611168 0.222335 0.250000
O O12 0.755964 0.230992 0.341169
O O13 0.012161 0.506081 0.583334
O O14 0.973820 0.606876 0.479242
O O15 0.101333 0.761873 0.942825
O O16 0.000000 0.679521 0.333334
O O17 0.000000 0.739925 0.833334
#
# Coordination Sequence:
#
# PCOD9582655 Si02
#       8
#    12  12   6  12  12   6  12  12
#     4  10  20  43  64  85 128 182 225 267 334 400
#     4  12  24  43  67  94 136 176 228 281 347 414
#     4   9  20  40  70 100 136 174 226 280 360 431
#     4  11  26  39  65  97 134 182 229 282 339 396
#     4  11  23  40  64  95 126 170 230 274 335 409
#     4  11  24  44  64  98 136 172 234 290 342 409
#     4  10  25  42  65  94 130 176 223 281 336 405
#     4  10  22  43  68  94 133 181 219 274 355 423
#
# _framework density 19.563648000000001
#
# number of rings (size 3 to 8) (size 9 to 14) (size 15 to 20)
#    0.000    1.429    4.286    0.000    4.000    1.714 
#    2.571    0.714    0.000    0.000    0.000    0.000 
#    0.000    0.000    0.000    0.000    0.000    0.000 
#
# Total GULP energy -468323.654705 kJ/mol
# GULP energy per Si atom -5575.281604 kJ/mol
# Density = 1.951912 g / cm^3
# Si number density = 19.563648 Si / 1000 Ang^3
#
#
#
# Elastic Constant Matrix: (Units=GPa)
#
#
# Indices 1 2 3 4 5 6 
#
# 1 83.8097 52.6243 50.8659 0.0000 0.0000 0.0000
# 2 52.6243 83.8097 50.8659 0.0000 0.0000 0.0000
# 3 50.8659 50.8659 124.8124 0.0000 0.0000 0.0000
# 4 0.0000 0.0000 0.0000 -706.6511 0.0001 0.0000
# 5 0.0000 0.0000 0.0000 0.0001 -706.6512 0.0000
# 6 0.0000 0.0000 0.0000 0.0000 0.0000 15.5927
#
#
#
# Elastic Compliance Matrix: (Units=1/GPa)
#
#
# Indices 1 2 3 4 5 6 
#
# 1 0.021298 -0.010769 -0.004291 0.000000 0.000000 0.000000
# 2 -0.010769 0.021298 -0.004291 0.000000 0.000000 0.000000
# 3 -0.004291 -0.004291 0.011510 0.000000 0.000000 0.000000
# 4 0.000000 0.000000 0.000000 -0.001415 0.000000 0.000000
# 5 0.000000 0.000000 0.000000 0.000000 -0.001415 0.000000
# 6 0.000000 0.000000 0.000000 0.000000 0.000000 0.064132
#
#
# Mechanical properties :
#
#
# Convention : Reuss Voigt Hill
#
# Bulk Modulus (GPa) = 64.91944 66.79379 65.85662
# Shear Modulus (GPa) = 31.39856 -270.33686 -119.46915
#
# Velocity S-wave (km/s) = 4.01052 -11.76789 -7.82301
# Velocity P-wave (km/s) = 7.39604 12.26493 6.91834
#
# Compressibility (1/GPa) = 0.01540371
#
# Stress axis : x y z
#
# Youngs Moduli (GPa) = 46.95343 46.95343 86.88427
#
# Poissons Ratio (x) = 0.50562 0.37282
# Poissons Ratio (y) = 0.50562 0.37282
# Poissons Ratio (z) = 0.20148 0.20148
#
# Static dielectric constant tensor:
#      x y z
#    x 11.857130 0.000000 0.000000 
#    y 0.000000 11.857130 0.000000 
#    z 0.000000 0.000000 1.656610 
# 
# From -- ./inp_files/6064.got.cif
#   From: 2010.05.17/outbox.cif.g08.bks.cpg/sg178_4_cif.got.tgz:6064.got - 2010.05.20 11:30:59.
