data_PCOD9582498
_publ_section_title
;
Structure prediction by ZEFSAII (Michael W. Deem and Ramdas Pophale) SiO2 
 PCOD9582498
Probable space group: P 61 2 2
;
_chemical_formula_sum "Si O2"
_cell_formula_units_Z 42
_cell_length_a 13.683180
_cell_length_b 13.683180
_cell_length_c 12.793977
_cell_angle_alpha 90.000000
_cell_angle_beta 90.000000
_cell_angle_gamma 120.000000
_cell_volume 2074.484898
_symmetry_space_group_name_H-M "P 61 2 2"
_symmetry_group_IT_number 178
_symmetry_cell_setting 'hexagonal'
loop_
_space_group_symop_operation_xyz
x,y,z
x-y,x,1/6+z
-y,x-y,1/3+z
-x,-y,1/2+z
-x+y,-x,2/3+z
y,-x+y,5/6+z
x-y,-y,-z
-x,-x+y,2/3-z
y,x,1/3-z
-y,-x,5/6-z
-x+y,y,1/2-z
x,x-y,1/6-z
loop_
_atom_site_type_symbol
_atom_site_label
_atom_site_fract_x
_atom_site_fract_y
_atom_site_fract_z
Si Si1 0.376256 0.963825 0.699819
Si Si2 0.861908 0.240916 0.202760
Si Si3 0.432623 0.824658 0.124339
Si Si4 0.000000 0.841206 0.833334
O O1 0.464163 0.928326 0.750000
O O2 0.259688 0.858132 0.662828
O O3 0.354271 0.039362 0.785590
O O4 0.451544 0.057992 0.614891
O O5 0.836602 0.331643 0.258365
O O6 0.909166 0.183726 0.279760
O O7 0.405202 0.810404 0.250000
O O8 0.439407 0.719704 0.083334
O O9 0.938032 0.876063 0.750000
#
# Coordination Sequence:
#
# PCOD9582498 Si02
#       4
#    12  12  12   6
#     4   9  19  36  58  81 117 157 193 251 306 364
#     4  10  19  37  59  83 120 157 196 258 302 358
#     4   9  20  38  58  88 123 156 200 246 306 376
#     4  12  24  40  64  90 126 164 222 262 316 372
#
# _framework density 20.245991
#
# number of rings (size 3 to 8) (size 9 to 14) (size 15 to 20)
#    0.000    2.857    2.857    0.857    0.000    1.143 
#   20.571    1.429    0.000    0.000    0.000    0.000 
#    0.000    0.000    0.000    0.000    0.000    0.000 
#
# Total GULP energy -234197.284415 kJ/mol
# GULP energy per Si atom -5576.125819 kJ/mol
# Density = 2.019991 g / cm^3
# Si number density = 20.245991 Si / 1000 Ang^3
#
#
#
# Elastic Constant Matrix: (Units=GPa)
#
#
# Indices 1 2 3 4 5 6 
#
# 1 117.6569 56.1635 26.3544 0.0000 0.0000 0.0000
# 2 56.1635 117.6569 26.3544 0.0000 0.0000 0.0000
# 3 26.3544 26.3544 50.7247 0.0000 0.0000 0.0000
# 4 0.0000 0.0000 0.0000 61.4073 0.0000 0.0000
# 5 0.0000 0.0000 0.0000 0.0000 61.4073 0.0000
# 6 0.0000 0.0000 0.0000 0.0000 0.0000 30.7467
#
#
#
# Elastic Compliance Matrix: (Units=1/GPa)
#
#
# Indices 1 2 3 4 5 6 
#
# 1 0.011545 -0.004716 -0.003548 0.000000 0.000000 0.000000
# 2 -0.004716 0.011545 -0.003548 0.000000 0.000000 0.000000
# 3 -0.003548 -0.003548 0.023401 0.000000 0.000000 0.000000
# 4 0.000000 0.000000 0.000000 0.016285 0.000000 0.000000
# 5 0.000000 0.000000 0.000000 0.000000 0.016285 0.000000
# 6 0.000000 0.000000 0.000000 0.000000 0.000000 0.032524
#
#
# Mechanical properties :
#
#
# Convention : Reuss Voigt Hill
#
# Bulk Modulus (GPa) = 43.73144 55.97590 49.85367
# Shear Modulus (GPa) = 35.00603 42.52333 38.76468
#
# Velocity S-wave (km/s) = 4.16268 4.58791 4.38046
# Velocity P-wave (km/s) = 6.68960 7.46814 7.08957
#
# Compressibility (1/GPa) = 0.02286685
#
# Stress axis : x y z
#
# Youngs Moduli (GPa) = 86.61434 86.61434 42.73310
#
# Poissons Ratio (x) = 0.40851 0.15162
# Poissons Ratio (y) = 0.40851 0.15162
# Poissons Ratio (z) = 0.30731 0.30731
#
# Static dielectric constant tensor:
#      x y z
#    x 1.727590 0.000000 0.000000 
#    y 0.000000 1.727590 0.000000 
#    z 0.000000 0.000000 1.770210 
# 
# From -- ./inp_files/5292.got.cif
#   From: 2010.05.17/outbox.cif.g08.bks.cpg/sg178_3_cif.got.tgz:5292.got - 2010.05.20 11:30:59.
