data_PCOD9582199
_publ_section_title
;
Structure prediction by ZEFSAII (Michael W. Deem and Ramdas Pophale) SiO2 
 PCOD9582199
Probable space group: P 6 2 2
;
_chemical_formula_sum "Si O2"
_cell_formula_units_Z 64
_cell_length_a 14.290446
_cell_length_b 14.290446
_cell_length_c 16.307608
_cell_angle_alpha 90.000000
_cell_angle_beta 90.000000
_cell_angle_gamma 120.000000
_cell_volume 2884.114258
_symmetry_space_group_name_H-M "P 6 2 2"
_symmetry_group_IT_number 177
_symmetry_cell_setting 'hexagonal'
loop_
_space_group_symop_operation_xyz
x,y,z
x-y,x,z
-y,x-y,z
-x,-y,z
-x+y,-x,z
y,-x+y,z
x-y,-y,-z
-x,-x+y,-z
y,x,-z
-y,-x,-z
-x+y,y,-z
x,x-y,-z
loop_
_atom_site_type_symbol
_atom_site_label
_atom_site_fract_x
_atom_site_fract_y
_atom_site_fract_z
Si Si1 0.828350 0.763660 0.124483
Si Si2 0.524830 0.755531 0.710287
Si Si3 0.922663 0.161201 0.320152
Si Si4 0.333334 0.666667 0.596508
Si Si5 0.452013 0.330118 0.959965
Si Si6 0.875248 0.457645 0.182373
O O1 0.790596 0.845500 0.091044
O O2 0.843212 0.779076 0.221863
O O3 0.737732 0.641706 0.107298
O O4 0.633049 0.765709 0.674333
O O5 0.450173 0.749515 0.634825
O O6 0.455168 0.647786 0.762883
O O7 0.543992 0.847671 0.777606
O O8 0.042513 0.204788 0.353224
O O9 0.333334 0.666667 0.500000
O O10 0.562853 0.414937 0.911817
O O11 0.396216 0.396216 0.000000
O O12 0.461559 0.230780 0.000000
O O13 0.000000 0.500000 0.193420
#
# Coordination Sequence:
#
# PCOD9582199 Si02
#       6
#    12  12  12   4  12  12
#     4  10  19  33  53  79 112 153 204 262 325 384
#     4  10  21  41  69  96 123 167 208 259 321 387
#     4  10  19  33  62  95 130 163 207 257 309 381
#     4   9  21  42  69 105 139 161 208 267 321 378
#     4  12  25  39  56  79 115 160 213 277 343 380
#     4  11  25  42  64  85 116 158 222 265 318 383
#
# _framework density 22.190522000000001
#
# number of rings (size 3 to 8) (size 9 to 14) (size 15 to 20)
#    0.000    1.500    3.750    1.875    5.250    1.875 
#    0.000    0.000    0.000   20.250    0.000    0.000 
#    0.000    1.500    0.000    0.000    0.000    0.000 
#
# Total GULP energy -357252.962214 kJ/mol
# GULP energy per Si atom -5582.077535 kJ/mol
# Density = 2.214002 g / cm^3
# Si number density = 22.190522 Si / 1000 Ang^3
#
#
#
# Elastic Constant Matrix: (Units=GPa)
#
#
# Indices 1 2 3 4 5 6 
#
# 1 75.6993 7.8272 16.6883 0.0000 0.0000 0.0000
# 2 7.8272 75.6994 16.6884 0.0000 0.0000 0.0000
# 3 16.6883 16.6884 76.0995 0.0001 -0.0001 0.0000
# 4 0.0000 0.0000 0.0001 11.2957 0.0001 0.0000
# 5 0.0000 0.0000 -0.0001 0.0001 11.2958 0.0000
# 6 0.0000 0.0000 0.0000 0.0000 0.0000 33.9360
#
#
#
# Elastic Compliance Matrix: (Units=1/GPa)
#
#
# Indices 1 2 3 4 5 6 
#
# 1 0.013928 -0.000806 -0.002878 0.000000 0.000000 0.000000
# 2 -0.000806 0.013928 -0.002878 0.000000 0.000000 0.000000
# 3 -0.002878 -0.002878 0.014403 0.000000 0.000000 0.000000
# 4 0.000000 0.000000 0.000000 0.088529 -0.000001 0.000000
# 5 0.000000 0.000000 0.000000 -0.000001 0.088529 0.000000
# 6 0.000000 0.000000 0.000000 0.000000 0.000000 0.029467
#
#
# Mechanical properties :
#
#
# Convention : Reuss Voigt Hill
#
# Bulk Modulus (GPa) = 34.32120 34.43401 34.37761
# Shear Modulus (GPa) = 18.40821 23.72510 21.06666
#
# Velocity S-wave (km/s) = 2.88332 3.27334 3.08450
# Velocity P-wave (km/s) = 5.15605 5.46237 5.31142
#
# Compressibility (1/GPa) = 0.02913651
#
# Stress axis : x y z
#
# Youngs Moduli (GPa) = 71.79848 71.79854 69.43093
#
# Poissons Ratio (x) = 0.05785 0.19980
# Poissons Ratio (y) = 0.05785 0.19980
# Poissons Ratio (z) = 0.20661 0.20661
#
# Static dielectric constant tensor:
#      x y z
#    x 1.856310 0.000000 0.000000 
#    y 0.000000 1.856300 0.000000 
#    z 0.000000 0.000000 1.865000 
# 
# From -- ./inp_files/2809.got.cif
#   From: 2010.05.17/outbox.cif.g08.bks.cpg/sg177_2_cif.got.tgz:2809.got - 2010.05.20 11:28:44.
