data_PCOD9582333
_publ_section_title
;
Structure prediction by ZEFSAII (Michael W. Deem and Ramdas Pophale) SiO2 
 PCOD9582333
Probable space group: P 61 2 2
;
_chemical_formula_sum "Si O2"
_cell_formula_units_Z 66
_cell_length_a 17.779007
_cell_length_b 17.779007
_cell_length_c 15.138002
_cell_angle_alpha 90.000000
_cell_angle_beta 90.000000
_cell_angle_gamma 120.000000
_cell_volume 4143.946996
_symmetry_space_group_name_H-M "P 61 2 2"
_symmetry_group_IT_number 178
_symmetry_cell_setting 'hexagonal'
loop_
_space_group_symop_operation_xyz
x,y,z
x-y,x,1/6+z
-y,x-y,1/3+z
-x,-y,1/2+z
-x+y,-x,2/3+z
y,-x+y,5/6+z
x-y,-y,-z
-x,-x+y,2/3-z
y,x,1/3-z
-y,-x,5/6-z
-x+y,y,1/2-z
x,x-y,1/6-z
loop_
_atom_site_type_symbol
_atom_site_label
_atom_site_fract_x
_atom_site_fract_y
_atom_site_fract_z
Si Si1 0.621314 0.648348 0.464316
Si Si2 0.647276 0.476944 0.987863
Si Si3 0.907871 0.415127 0.369283
Si Si4 0.438723 0.286201 0.291365
Si Si5 0.000000 0.907034 0.833334
Si Si6 0.714070 0.845531 0.480452
O O1 0.552864 0.632153 0.387097
O O2 0.567519 0.633411 0.555827
O O3 0.662059 0.586107 0.471432
O O4 0.694760 0.749041 0.459393
O O5 0.600954 0.399047 0.916667
O O6 0.749418 0.512450 0.992675
O O7 0.596713 0.447302 0.079710
O O8 0.859427 0.351364 0.288282
O O9 0.000000 0.491561 0.333334
O O10 0.349034 0.212831 0.246533
O O11 0.079672 0.892871 0.805673
O O12 0.969555 0.939109 0.750000
O O13 0.690515 0.845258 0.583334
#
# Coordination Sequence:
#
# PCOD9582333 Si02
#       6
#    12  12  12  12   6  12
#     4   9  17  28  46  73  95 118 160 199 241 290
#     4   9  19  30  46  71  96 125 160 196 238 293
#     4   9  17  30  51  70  95 125 155 191 250 295
#     4  10  17  28  50  71  94 126 153 199 248 294
#     4  10  20  28  42  70 108 132 154 196 246 298
#     4  10  16  25  44  76  99 114 148 199 247 294
#
# _framework density 15.926843999999999
#
# number of rings (size 3 to 8) (size 9 to 14) (size 15 to 20)
#    0.000    2.545    1.818    2.182    1.273    0.000 
#    0.000    0.000   20.000    0.000   21.273    0.000 
#    0.000    0.000    0.000    0.000    0.000    0.000 
#
# Total GULP energy -367817.201963 kJ/mol
# GULP energy per Si atom -5572.987909 kJ/mol
# Density = 1.589059 g / cm^3
# Si number density = 15.926844 Si / 1000 Ang^3
#
#
#
# Elastic Constant Matrix: (Units=GPa)
#
#
# Indices 1 2 3 4 5 6 
#
# 1 80.5552 46.5163 26.9588 0.0000 0.0000 0.0000
# 2 46.5163 80.5552 26.9588 0.0000 0.0000 0.0000
# 3 26.9588 26.9588 36.3594 0.0000 0.0000 0.0000
# 4 0.0000 0.0000 0.0000 15.5699 0.0000 0.0000
# 5 0.0000 0.0000 0.0000 0.0000 15.5699 0.0000
# 6 0.0000 0.0000 0.0000 0.0000 0.0000 17.0195
#
#
#
# Elastic Compliance Matrix: (Units=1/GPa)
#
#
# Indices 1 2 3 4 5 6 
#
# 1 0.020430 -0.008948 -0.008513 0.000000 0.000000 0.000000
# 2 -0.008948 0.020430 -0.008513 0.000000 0.000000 0.000000
# 3 -0.008513 -0.008513 0.040128 0.000000 0.000000 0.000000
# 4 0.000000 0.000000 0.000000 0.064226 0.000000 0.000000
# 5 0.000000 0.000000 0.000000 0.000000 0.064226 0.000000
# 6 0.000000 0.000000 0.000000 0.000000 0.000000 0.058756
#
#
# Mechanical properties :
#
#
# Convention : Reuss Voigt Hill
#
# Bulk Modulus (GPa) = 34.43735 44.25973 39.34854
# Shear Modulus (GPa) = 15.15954 16.10091 15.63023
#
# Velocity S-wave (km/s) = 3.08851 3.18296 3.13609
# Velocity P-wave (km/s) = 5.86410 6.43102 6.15409
#
# Compressibility (1/GPa) = 0.02903824
#
# Stress axis : x y z
#
# Youngs Moduli (GPa) = 48.94766 48.94766 24.92056
#
# Poissons Ratio (x) = 0.43799 0.21215
# Poissons Ratio (y) = 0.43799 0.21215
# Poissons Ratio (z) = 0.41670 0.41670
#
# Static dielectric constant tensor:
#      x y z
#    x 1.541610 0.000000 0.000000 
#    y 0.000000 1.541610 0.000000 
#    z 0.000000 0.000000 1.516540 
# 
# From -- ./inp_files/5903.got.cif
#   From: 2010.05.17/outbox.cif.g08.bks.cpg/sg178_3_cif.got.tgz:5903.got - 2010.05.20 11:30:59.
