data_PCOD9582615
_publ_section_title
;
Structure prediction by ZEFSAII (Michael W. Deem and Ramdas Pophale) SiO2 
 PCOD9582615
Probable space group: P 61 2 2
;
_chemical_formula_sum "Si O2"
_cell_formula_units_Z 48
_cell_length_a 17.874185
_cell_length_b 17.874185
_cell_length_c 8.303566
_cell_angle_alpha 90.000000
_cell_angle_beta 90.000000
_cell_angle_gamma 120.000000
_cell_volume 2297.459006
_symmetry_space_group_name_H-M "P 61 2 2"
_symmetry_group_IT_number 178
_symmetry_cell_setting 'hexagonal'
loop_
_space_group_symop_operation_xyz
x,y,z
x-y,x,1/6+z
-y,x-y,1/3+z
-x,-y,1/2+z
-x+y,-x,2/3+z
y,-x+y,5/6+z
x-y,-y,-z
-x,-x+y,2/3-z
y,x,1/3-z
-y,-x,5/6-z
-x+y,y,1/2-z
x,x-y,1/6-z
loop_
_atom_site_type_symbol
_atom_site_label
_atom_site_fract_x
_atom_site_fract_y
_atom_site_fract_z
Si Si1 0.474446 0.065747 0.878832
Si Si2 0.954979 0.303588 0.660317
Si Si3 0.829524 0.959511 0.751398
Si Si4 0.183733 0.511565 0.165059
O O1 0.550556 0.101112 0.750000
O O2 0.630872 0.014275 0.709653
O O3 0.473069 0.131361 0.003160
O O4 0.484366 0.000000 0.000000
O O5 0.957598 0.217067 0.620855
O O6 0.858296 0.289025 0.627209
O O7 0.000000 0.335122 0.833334
O O8 0.850923 0.907400 0.884685
O O9 0.818528 0.909264 0.583334
O O10 0.276843 0.553686 0.250000
O O11 0.169914 0.584957 0.083334
#
# Coordination Sequence:
#
# PCOD9582615 Si02
#       4
#    12  12  12  12
#     4  10  20  38  67  95 127 168 215 278 339 396
#     4  11  23  41  69 102 135 172 238 289 344 411
#     4  10  24  45  67  94 139 187 231 281 356 420
#     4  11  25  43  68  96 138 182 226 282 359 423
#
# _framework density 20.892645000000002
#
# number of rings (size 3 to 8) (size 9 to 14) (size 15 to 20)
#    0.000    1.500    0.000    6.000   14.000    2.000 
#   13.500    2.500    0.000    0.000    0.000    0.000 
#    0.000    0.000    0.000    0.000    0.000    0.000 
#
# Total GULP energy -267417.619657 kJ/mol
# GULP energy per Si atom -5571.200410 kJ/mol
# Density = 2.084509 g / cm^3
# Si number density = 20.892645 Si / 1000 Ang^3
#
#
#
# Elastic Constant Matrix: (Units=GPa)
#
#
# Indices 1 2 3 4 5 6 
#
# 1 88.4617 68.1117 38.6717 0.0000 0.0000 0.0000
# 2 68.1117 88.4617 38.6717 0.0000 0.0000 0.0000
# 3 38.6717 38.6717 115.9237 0.0000 0.0000 0.0000
# 4 0.0000 0.0000 0.0000 23.6297 0.0000 0.0000
# 5 0.0000 0.0000 0.0000 0.0000 23.6297 0.0000
# 6 0.0000 0.0000 0.0000 0.0000 0.0000 10.1750
#
#
#
# Elastic Compliance Matrix: (Units=1/GPa)
#
#
# Indices 1 2 3 4 5 6 
#
# 1 0.028393 -0.020747 -0.002551 0.000000 0.000000 0.000000
# 2 -0.020747 0.028393 -0.002551 0.000000 0.000000 0.000000
# 3 -0.002551 -0.002551 0.010328 0.000000 0.000000 0.000000
# 4 0.000000 0.000000 0.000000 0.042320 0.000000 0.000000
# 5 0.000000 0.000000 0.000000 0.000000 0.042320 0.000000
# 6 0.000000 0.000000 0.000000 0.000000 0.000000 0.098280
#
#
# Mechanical properties :
#
#
# Convention : Reuss Voigt Hill
#
# Bulk Modulus (GPa) = 64.85823 64.86195 64.86009
# Shear Modulus (GPa) = 16.29349 21.31302 18.80326
#
# Velocity S-wave (km/s) = 2.79564 3.19740 3.00324
# Velocity P-wave (km/s) = 6.44451 6.68909 6.56794
#
# Compressibility (1/GPa) = 0.01541824
#
# Stress axis : x y z
#
# Youngs Moduli (GPa) = 35.21935 35.21935 96.82085
#
# Poissons Ratio (x) = 0.73068 0.24699
# Poissons Ratio (y) = 0.73068 0.24699
# Poissons Ratio (z) = 0.08984 0.08984
#
# Static dielectric constant tensor:
#      x y z
#    x 1.824350 0.000000 0.000000 
#    y 0.000000 1.824350 0.000000 
#    z 0.000000 0.000000 1.769240 
# 
# From -- ./inp_files/2609.got.cif
#   From: 2010.05.17/outbox.cif.g08.bks.cpg/sg178_2_cif.got.tgz:2609.got - 2010.05.20 11:30:59.
