data_PCOD9582223
_publ_section_title
;
Structure prediction by ZEFSAII (Michael W. Deem and Ramdas Pophale) SiO2 
 PCOD9582223
Probable space group: P 6 2 2
;
_chemical_formula_sum "Si O2"
_cell_formula_units_Z 48
_cell_length_a 23.846881
_cell_length_b 23.846881
_cell_length_c 5.162828
_cell_angle_alpha 90.000000
_cell_angle_beta 90.000000
_cell_angle_gamma 120.000000
_cell_volume 2542.619992
_symmetry_space_group_name_H-M "P 6 2 2"
_symmetry_group_IT_number 177
_symmetry_cell_setting 'hexagonal'
loop_
_space_group_symop_operation_xyz
x,y,z
x-y,x,z
-y,x-y,z
-x,-y,z
-x+y,-x,z
y,-x+y,z
x-y,-y,-z
-x,-x+y,-z
y,x,-z
-y,-x,-z
-x+y,y,-z
x,x-y,-z
loop_
_atom_site_type_symbol
_atom_site_label
_atom_site_fract_x
_atom_site_fract_y
_atom_site_fract_z
Si Si1 0.665871 0.453656 0.567739
Si Si2 0.203803 0.282258 0.491921
Si Si3 0.505083 0.374439 0.933473
Si Si4 0.722198 0.645333 0.991944
O O1 0.621829 0.378172 0.500000
O O2 0.739527 0.479054 0.500000
O O3 0.637676 0.485350 0.365866
O O4 0.655235 0.464454 0.864846
O O5 0.231519 0.231519 0.500000
O O6 0.126233 0.252466 0.500000
O O7 0.230755 0.326811 0.237460
O O8 0.235882 0.331220 0.732152
O O9 0.429599 0.331881 0.993667
O O10 0.548664 0.451337 0.000000
O O11 0.682905 0.682905 0.000000
#
# Coordination Sequence:
#
# PCOD9582223 Si02
#       4
#    12  12  12  12
#     4  10  20  33  48  67  93 125 163 209 261 313
#     4  10  21  37  58  84 113 143 176 217 265 321
#     4  10  21  34  49  72  99 131 175 221 266 317
#     4  10  21  36  54  78 106 138 176 214 257 308
#
# _framework density 18.878164000000002
#
# number of rings (size 3 to 8) (size 9 to 14) (size 15 to 20)
#    0.000    2.000    0.000    3.250    0.000    6.500 
#    0.000    2.500    0.000    9.250    0.000    0.000 
#    0.000    6.000    0.000    0.000    0.000    1.000 
#
# Total GULP energy -267437.096681 kJ/mol
# GULP energy per Si atom -5571.606181 kJ/mol
# Density = 1.883520 g / cm^3
# Si number density = 18.878164 Si / 1000 Ang^3
#
#
#
# Elastic Constant Matrix: (Units=GPa)
#
#
# Indices 1 2 3 4 5 6 
#
# 1 58.4423 58.8949 20.4958 0.0000 0.0000 0.0000
# 2 58.8949 58.4423 20.4958 0.0000 0.0000 0.0000
# 3 20.4958 20.4958 102.3036 0.0000 0.0000 0.0000
# 4 0.0000 0.0000 0.0000 -37.1203 0.0000 0.0000
# 5 0.0000 0.0000 0.0000 0.0000 -37.1203 0.0000
# 6 0.0000 0.0000 0.0000 0.0000 0.0000 -0.2263
#
#
#
# Elastic Compliance Matrix: (Units=1/GPa)
#
#
# Indices 1 2 3 4 5 6 
#
# 1 -1.100082 1.109246 -0.001836 0.000000 0.000000 0.000000
# 2 1.109246 -1.100082 -0.001836 0.000000 0.000000 0.000000
# 3 -0.001836 -0.001836 0.010510 0.000000 0.000000 0.000000
# 4 0.000000 0.000000 0.000000 -0.026939 0.000000 0.000000
# 5 0.000000 0.000000 0.000000 0.000000 -0.026939 0.000000
# 6 0.000000 0.000000 0.000000 0.000000 0.000000 -4.418655
#
#
# Mechanical properties :
#
#
# Convention : Reuss Voigt Hill
#
# Bulk Modulus (GPa) = 46.52362 46.55125 46.53744
# Shear Modulus (GPa) = -0.56394 -6.93995 -3.75195
#
# Velocity S-wave (km/s) = -0.54715 -1.91942 -1.41130
# Velocity P-wave (km/s) = 4.92935 4.44973 4.69567
#
# Compressibility (1/GPa) = 0.02149446
#
# Stress axis : x y z
#
# Youngs Moduli (GPa) = -0.90902 -0.90902 95.14347
#
# Poissons Ratio (x) = 1.00833 0.17467
# Poissons Ratio (y) = 1.00833 0.17467
# Poissons Ratio (z) = -0.00167 -0.00167
#
# Static dielectric constant tensor:
#      x y z
#    x 1.703480 0.000000 0.000000 
#    y 0.000000 1.703480 0.000000 
#    z 0.000000 0.000000 1.712480 
# 
# From -- ./inp_files/436.got.cif
#   From: 2010.05.17/outbox.cif.g08.bks.cpg/sg177_1_cif.got.tgz:436.got - 2010.05.20 11:28:44.
