data_PCOD9582570
_publ_section_title
;
Structure prediction by ZEFSAII (Michael W. Deem and Ramdas Pophale) SiO2 
 PCOD9582570
Probable space group: P 61 2 2
;
_chemical_formula_sum "Si O2"
_cell_formula_units_Z 60
_cell_length_a 15.978894
_cell_length_b 15.978894
_cell_length_c 13.397591
_cell_angle_alpha 90.000000
_cell_angle_beta 90.000000
_cell_angle_gamma 120.000000
_cell_volume 2962.448293
_symmetry_space_group_name_H-M "P 61 2 2"
_symmetry_group_IT_number 178
_symmetry_cell_setting 'hexagonal'
loop_
_space_group_symop_operation_xyz
x,y,z
x-y,x,1/6+z
-y,x-y,1/3+z
-x,-y,1/2+z
-x+y,-x,2/3+z
y,-x+y,5/6+z
x-y,-y,-z
-x,-x+y,2/3-z
y,x,1/3-z
-y,-x,5/6-z
-x+y,y,1/2-z
x,x-y,1/6-z
loop_
_atom_site_type_symbol
_atom_site_label
_atom_site_fract_x
_atom_site_fract_y
_atom_site_fract_z
Si Si1 0.669894 0.697656 0.462633
Si Si2 0.624087 0.043671 0.889421
Si Si3 0.225632 0.451264 0.250000
Si Si4 0.965164 0.115578 0.072179
Si Si5 0.903226 0.375305 0.264531
Si Si6 0.848482 0.151519 0.916667
O O1 0.608788 0.640966 0.364350
O O2 0.612217 0.737650 0.524950
O O3 0.773928 0.788999 0.441153
O O4 0.683683 0.616501 0.521749
O O5 0.561694 0.096479 0.876982
O O6 0.738467 0.110660 0.888876
O O7 0.601207 0.000000 0.000000
O O8 0.309545 0.500473 0.165388
O O9 0.929063 0.039796 0.161862
O O10 0.872675 0.103459 0.009961
O O11 0.000000 0.426235 0.333334
#
# Coordination Sequence:
#
# PCOD9582570 Si02
#       6
#    12  12   6  12  12   6
#     4  10  20  37  62  90 121 167 207 262 320 393
#     4  10  20  36  60  86 119 161 211 256 316 394
#     4  10  20  38  63  92 126 158 211 268 324 394
#     4  11  22  38  58  84 119 161 208 254 304 364
#     4   9  19  35  60  88 122 157 206 258 321 388
#     4  10  20  36  57  78 114 158 207 250 304 370
#
# _framework density 20.253519000000001
#
# number of rings (size 3 to 8) (size 9 to 14) (size 15 to 20)
#    0.000    2.000    0.000    4.800    0.000    1.600 
#    0.000    7.000   22.000    0.000    0.000    0.000 
#    0.000    0.000    0.000    0.000    0.000    0.000 
#
# Total GULP energy -334474.493710 kJ/mol
# GULP energy per Si atom -5574.574895 kJ/mol
# Density = 2.020742 g / cm^3
# Si number density = 20.253519 Si / 1000 Ang^3
#
#
#
# Elastic Constant Matrix: (Units=GPa)
#
#
# Indices 1 2 3 4 5 6 
#
# 1 97.2250 54.1462 48.4925 0.0000 0.0000 0.0000
# 2 54.1462 97.2250 48.4925 0.0000 0.0000 0.0000
# 3 48.4925 48.4925 112.3461 0.0000 0.0000 0.0000
# 4 0.0000 0.0000 0.0000 14.3574 0.0000 0.0000
# 5 0.0000 0.0000 0.0000 0.0000 14.3574 0.0000
# 6 0.0000 0.0000 0.0000 0.0000 0.0000 21.5394
#
#
#
# Elastic Compliance Matrix: (Units=1/GPa)
#
#
# Indices 1 2 3 4 5 6 
#
# 1 0.016172 -0.007041 -0.003942 0.000000 0.000000 0.000000
# 2 -0.007041 0.016172 -0.003942 0.000000 0.000000 0.000000
# 3 -0.003942 -0.003942 0.012304 0.000000 0.000000 0.000000
# 4 0.000000 0.000000 0.000000 0.069650 0.000000 0.000000
# 5 0.000000 0.000000 0.000000 0.000000 0.069650 0.000000
# 6 0.000000 0.000000 0.000000 0.000000 0.000000 0.046427
#
#
# Mechanical properties :
#
#
# Convention : Reuss Voigt Hill
#
# Bulk Modulus (GPa) = 67.56376 67.67315 67.61845
# Shear Modulus (GPa) = 18.85672 20.42850 19.64261
#
# Velocity S-wave (km/s) = 3.05460 3.17935 3.11760
# Velocity P-wave (km/s) = 6.77290 6.85298 6.81306
#
# Compressibility (1/GPa) = 0.01480083
#
# Stress axis : x y z
#
# Youngs Moduli (GPa) = 61.83347 61.83347 81.27646
#
# Poissons Ratio (x) = 0.43536 0.32036
# Poissons Ratio (y) = 0.43536 0.32036
# Poissons Ratio (z) = 0.24372 0.24372
#
# Static dielectric constant tensor:
#      x y z
#    x 1.718750 0.000000 0.000000 
#    y 0.000000 1.718750 0.000000 
#    z 0.000000 0.000000 1.833260 
# 
# From -- ./inp_files/5763.got.cif
#   From: 2010.05.17/outbox.cif.g08.bks.cpg/sg178_3_cif.got.tgz:5763.got - 2010.05.20 11:30:59.
