data_PCOD9582252
_publ_section_title
;
Structure prediction by ZEFSAII (Michael W. Deem and Ramdas Pophale) SiO2 
 PCOD9582252
Probable space group: P 6 2 2
;
_chemical_formula_sum "Si O2"
_cell_formula_units_Z 72
_cell_length_a 14.585923
_cell_length_b 14.585923
_cell_length_c 18.443795
_cell_angle_alpha 90.000000
_cell_angle_beta 90.000000
_cell_angle_gamma 120.000000
_cell_volume 3398.198558
_symmetry_space_group_name_H-M "P 6 2 2"
_symmetry_group_IT_number 177
_symmetry_cell_setting 'hexagonal'
loop_
_space_group_symop_operation_xyz
x,y,z
x-y,x,z
-y,x-y,z
-x,-y,z
-x+y,-x,z
y,-x+y,z
x-y,-y,-z
-x,-x+y,-z
y,x,-z
-y,-x,-z
-x+y,y,-z
x,x-y,-z
loop_
_atom_site_type_symbol
_atom_site_label
_atom_site_fract_x
_atom_site_fract_y
_atom_site_fract_z
Si Si1 0.873649 0.412148 0.419648
Si Si2 0.956075 0.186702 0.290665
Si Si3 0.756788 0.573103 0.202440
Si Si4 0.082919 0.760125 0.444753
Si Si5 0.131438 0.880944 0.913438
Si Si6 0.586032 0.460767 0.739712
O O1 0.832602 0.416301 0.500000
O O2 0.853275 0.293146 0.413565
O O3 0.835232 0.435298 0.344015
O O4 0.000000 0.500000 0.418926
O O5 0.912860 0.256079 0.253059
O O6 0.962120 0.208914 0.376739
O O7 0.069154 0.204030 0.270927
O O8 0.802374 0.638101 0.128143
O O9 0.644206 0.466033 0.209921
O O10 0.843604 0.545341 0.232355
O O11 0.145346 0.854655 0.500000
O O12 0.000000 0.673835 0.500000
O O13 0.006091 0.819711 0.895033
O O14 0.133178 0.866823 0.000000
O O15 0.500000 0.500000 0.740435
#
# Coordination Sequence:
#
# PCOD9582252 Si02
#       6
#    12  12  12  12  12  12
#     4  10  21  36  59  80 111 156 216 276 332 383
#     4  12  25  40  60  90 128 174 219 269 337 418
#     4  12  25  43  67  95 131 173 224 277 346 406
#     4  12  23  37  57  87 116 162 215 274 337 406
#     4  10  21  41  72 110 147 183 223 269 322 397
#     4  11  24  41  62  91 126 164 214 280 335 392
#
# _framework density 21.187695000000001
#
# number of rings (size 3 to 8) (size 9 to 14) (size 15 to 20)
#    0.000    0.833    5.000    3.667    4.667    0.667 
#    0.000    2.500    0.000    3.333    0.000    0.000 
#    0.000    0.000    0.000    0.000    0.000    0.000 
#
# Total GULP energy -402028.273059 kJ/mol
# GULP energy per Si atom -5583.726015 kJ/mol
# Density = 2.113947 g / cm^3
# Si number density = 21.187695 Si / 1000 Ang^3
#
#
#
# Elastic Constant Matrix: (Units=GPa)
#
#
# Indices 1 2 3 4 5 6 
#
# 1 80.8686 12.9192 30.5408 0.0000 0.0000 0.0000
# 2 12.9192 80.8686 30.5408 0.0000 0.0000 0.0000
# 3 30.5408 30.5408 121.5411 0.0000 0.0000 0.0000
# 4 0.0000 0.0000 0.0000 29.5343 0.0000 0.0000
# 5 0.0000 0.0000 0.0000 0.0000 29.5343 0.0000
# 6 0.0000 0.0000 0.0000 0.0000 0.0000 33.9747
#
#
#
# Elastic Compliance Matrix: (Units=1/GPa)
#
#
# Indices 1 2 3 4 5 6 
#
# 1 0.013733 -0.000984 -0.003203 0.000000 0.000000 0.000000
# 2 -0.000984 0.013733 -0.003203 0.000000 0.000000 0.000000
# 3 -0.003203 -0.003203 0.009838 0.000000 0.000000 0.000000
# 4 0.000000 0.000000 0.000000 0.033859 0.000000 0.000000
# 5 0.000000 0.000000 0.000000 0.000000 0.033859 0.000000
# 6 0.000000 0.000000 0.000000 0.000000 0.000000 0.029434
#
#
# Mechanical properties :
#
#
# Convention : Reuss Voigt Hill
#
# Bulk Modulus (GPa) = 44.40282 47.91997 46.16139
# Shear Modulus (GPa) = 31.89917 32.56048 32.22983
#
# Velocity S-wave (km/s) = 3.88435 3.92441 3.90443
# Velocity P-wave (km/s) = 6.41249 6.57272 6.49310
#
# Compressibility (1/GPa) = 0.02252109
#
# Stress axis : x y z
#
# Youngs Moduli (GPa) = 72.81847 72.81847 101.65067
#
# Poissons Ratio (x) = 0.07166 0.32564
# Poissons Ratio (y) = 0.07166 0.32564
# Poissons Ratio (z) = 0.23327 0.23327
#
# Static dielectric constant tensor:
#      x y z
#    x 1.705540 0.000000 0.000000 
#    y 0.000000 1.705540 0.000000 
#    z 0.000000 0.000000 1.771770 
# 
# From -- ./inp_files/2842.got.cif
#   From: 2010.05.17/outbox.cif.g08.bks.cpg/sg177_2_cif.got.tgz:2842.got - 2010.05.20 11:28:44.
