data_PCOD9582063
_publ_section_title
;
Structure prediction by ZEFSAII (Michael W. Deem and Ramdas Pophale) SiO2 
 PCOD9582063
Probable space group: P 63/M
;
_chemical_formula_sum "Si O2"
_cell_formula_units_Z 84
_cell_length_a 17.193132
_cell_length_b 17.193132
_cell_length_c 14.970840
_cell_angle_alpha 90.000000
_cell_angle_beta 90.000000
_cell_angle_gamma 120.000000
_cell_volume 3832.540876
_symmetry_space_group_name_H-M "P 63/M"
_symmetry_group_IT_number 176
_symmetry_cell_setting 'hexagonal'
loop_
_space_group_symop_operation_xyz
x,y,z
x-y,x,1/2+z
-y,x-y,z
-x,-y,1/2+z
-x+y,-x,z
y,-x+y,1/2+z
-x,-y,-z
-x+y,-x,1/2-z
y,-x+y,-z
x,y,1/2-z
x-y,x,-z
-y,x-y,1/2-z
loop_
_atom_site_type_symbol
_atom_site_label
_atom_site_fract_x
_atom_site_fract_y
_atom_site_fract_z
Si Si1 0.416095 0.557492 0.349059
Si Si2 0.116761 0.683468 0.937193
Si Si3 0.756002 0.003872 0.014390
Si Si4 0.632153 0.776557 0.848906
Si Si5 0.497147 0.433706 0.145945
Si Si6 0.262971 0.151521 0.643983
Si Si7 0.471004 0.250860 0.594880
O O1 0.453920 0.590299 0.250000
O O2 0.431272 0.474401 0.369803
O O3 0.472796 0.642493 0.411358
O O4 0.311217 0.524644 0.348201
O O5 0.035204 0.688381 0.983848
O O6 0.151483 0.750674 0.853289
O O7 0.094582 0.584837 0.913051
O O8 0.200983 0.735710 0.002903
O O9 0.807250 0.023330 0.919571
O O10 0.758012 0.937676 0.088863
O O11 0.795349 0.096770 0.068464
O O12 0.670542 0.779056 0.750000
O O13 0.554384 0.673297 0.863265
O O14 0.524772 0.452430 0.250000
O O15 0.241547 0.140591 0.750000
O O16 0.371293 0.216149 0.632770
#
# Coordination Sequence:
#
# PCOD9582063 Si02
#       7
#    12  12  12  12  12  12  12
#     4  11  22  38  60  89 127 172 221 270 334 399
#     4  11  24  39  62  91 131 166 222 277 327 396
#     4  11  22  43  66 102 132 166 220 267 332 404
#     4  11  23  43  66  91 129 174 223 275 329 390
#     4  10  23  40  62  88 121 176 227 274 333 394
#     4  11  23  42  68 100 139 175 215 273 329 391
#     4  11  23  37  58  92 129 175 223 276 335 386
#
# _framework density 21.917574999999999
#
# number of rings (size 3 to 8) (size 9 to 14) (size 15 to 20)
#    0.000    1.143    2.857    5.000    2.000    4.571 
#    0.857    0.000    0.000    0.286    0.000    0.000 
#    0.000    0.000    0.000    0.000    0.000    0.000 
#
# Total GULP energy -469157.185945 kJ/mol
# GULP energy per Si atom -5585.204595 kJ/mol
# Density = 2.186769 g / cm^3
# Si number density = 21.917575 Si / 1000 Ang^3
#
#
#
# Elastic Constant Matrix: (Units=GPa)
#
#
# Indices 1 2 3 4 5 6 
#
# 1 50.1644 9.4945 22.8843 0.0000 0.0000 0.0000
# 2 9.4945 50.1644 22.8843 0.0000 0.0000 0.0000
# 3 22.8843 22.8843 161.1970 0.0000 0.0000 0.0000
# 4 0.0000 0.0000 0.0000 25.2591 0.0000 0.0000
# 5 0.0000 0.0000 0.0000 0.0000 25.2591 0.0000
# 6 0.0000 0.0000 0.0000 0.0000 0.0000 20.3349
#
#
#
# Elastic Compliance Matrix: (Units=1/GPa)
#
#
# Indices 1 2 3 4 5 6 
#
# 1 0.021699 -0.002889 -0.002670 0.000000 0.000000 0.000000
# 2 -0.002889 0.021699 -0.002670 0.000000 0.000000 0.000000
# 3 -0.002670 -0.002670 0.006962 0.000000 0.000000 0.000000
# 4 0.000000 0.000000 0.000000 0.039590 0.000000 0.000000
# 5 0.000000 0.000000 0.000000 0.000000 0.039590 0.000000
# 6 0.000000 0.000000 0.000000 0.000000 0.000000 0.049176
#
#
# Mechanical properties :
#
#
# Convention : Reuss Voigt Hill
#
# Bulk Modulus (GPa) = 29.49739 41.33912 35.41825
# Shear Modulus (GPa) = 24.21585 27.92146 26.06866
#
# Velocity S-wave (km/s) = 3.32755 3.57309 3.45250
# Velocity P-wave (km/s) = 5.31517 5.99372 5.66461
#
# Compressibility (1/GPa) = 0.03390131
#
# Stress axis : x y z
#
# Youngs Moduli (GPa) = 46.08412 46.08412 143.64074
#
# Poissons Ratio (x) = 0.13313 0.38359
# Poissons Ratio (y) = 0.13313 0.38359
# Poissons Ratio (z) = 0.12307 0.12307
#
# Static dielectric constant tensor:
#      x y z
#    x 1.801270 0.000000 0.000000 
#    y 0.000000 1.801270 0.000000 
#    z 0.000000 0.000000 1.926070 
# 
# From -- ./inp_files/2927.got.cif
#   From: 2010.05.17/outbox.cif.g08.bks.cpg/sg176_2_cif.got.tgz:2927.got - 2010.06.03 11:36:45.
