data_PCOD9582322
_publ_section_title
;
Structure prediction by ZEFSAII (Michael W. Deem and Ramdas Pophale) SiO2 
 PCOD9582322
Probable space group: P 6 2 2
;
_chemical_formula_sum "Si O2"
_cell_formula_units_Z 72
_cell_length_a 23.511198
_cell_length_b 23.511198
_cell_length_c 7.517006
_cell_angle_alpha 90.000000
_cell_angle_beta 90.000000
_cell_angle_gamma 120.000000
_cell_volume 3598.529327
_symmetry_space_group_name_H-M "P 6 2 2"
_symmetry_group_IT_number 177
_symmetry_cell_setting 'hexagonal'
loop_
_space_group_symop_operation_xyz
x,y,z
x-y,x,z
-y,x-y,z
-x,-y,z
-x+y,-x,z
y,-x+y,z
x-y,-y,-z
-x,-x+y,-z
y,x,-z
-y,-x,-z
-x+y,y,-z
x,x-y,-z
loop_
_atom_site_type_symbol
_atom_site_label
_atom_site_fract_x
_atom_site_fract_y
_atom_site_fract_z
Si Si1 0.263921 0.000000 0.718177
Si Si2 0.131869 1.000000 0.717234
Si Si3 0.868784 0.260379 0.712882
Si Si4 0.796366 0.334063 0.786735
Si Si5 0.868784 0.260379 0.287118
Si Si6 0.796366 0.334063 0.213265
O O1 0.197861 1.000000 0.772750
O O2 0.329924 0.064580 0.778383
O O3 0.263636 0.000000 0.500000
O O4 0.265345 0.935420 0.778383
O O5 0.131945 0.065973 0.773489
O O6 0.131687 0.000000 0.500000
O O7 0.855117 0.319708 0.748634
O O8 0.869186 0.254042 0.500000
O O9 0.805338 0.194662 0.783153
O O10 0.728819 0.271181 0.719073
O O11 0.804666 0.402333 0.719575
O O12 0.790515 0.334191 0.000000
O O13 0.855117 0.319708 0.251367
#
# Coordination Sequence:
#
# PCOD9582322 Si02
#       6
#    12  12  12  12  12  12
#     4   9  16  27  42  59  83 118 154 183 216 260
#     4   9  15  22  35  58  88 119 150 185 224 264
#     4   9  17  29  45  65  88 115 149 185 217 254
#     4   9  17  30  48  68  89 113 141 176 221 269
#     4   9  17  29  45  65  88 115 149 185 217 254
#     4   9  17  30  48  68  89 113 141 176 221 269
#
# _framework density 20.008174
#
# number of rings (size 3 to 8) (size 9 to 14) (size 15 to 20)
#    0.000    3.000    0.000    1.500    0.000    6.667 
#    0.000    1.667    0.000    7.000    0.000    0.000 
#    0.000    0.000    0.000    1.000    0.000   30.833 
#
# Total GULP energy -401650.456252 kJ/mol
# GULP energy per Si atom -5578.478559 kJ/mol
# Density = 1.996263 g / cm^3
# Si number density = 20.008174 Si / 1000 Ang^3
#
#
#
# Elastic Constant Matrix: (Units=GPa)
#
#
# Indices 1 2 3 4 5 6 
#
# 1 187.6888 125.5267 2.6630 0.0000 0.0000 0.0000
# 2 125.5267 187.6888 2.6630 0.0000 0.0000 0.0000
# 3 2.6630 2.6630 51.6119 0.0000 0.0000 0.0000
# 4 0.0000 0.0000 0.0000 2842.4651 -0.0008 0.0000
# 5 0.0000 0.0000 0.0000 -0.0008 2842.4661 0.0000
# 6 0.0000 0.0000 0.0000 0.0000 0.0000 31.0811
#
#
#
# Elastic Compliance Matrix: (Units=1/GPa)
#
#
# Indices 1 2 3 4 5 6 
#
# 1 0.009641 -0.006446 -0.000165 0.000000 0.000000 0.000000
# 2 -0.006446 0.009641 -0.000165 0.000000 0.000000 0.000000
# 3 -0.000165 -0.000165 0.019392 0.000000 0.000000 0.000000
# 4 0.000000 0.000000 0.000000 0.000352 0.000000 0.000000
# 5 0.000000 0.000000 0.000000 0.000000 0.000352 0.000000
# 6 0.000000 0.000000 0.000000 0.000000 0.000000 0.032174
#
#
# Mechanical properties :
#
#
# Convention : Reuss Voigt Hill
#
# Bulk Modulus (GPa) = 39.80280 76.52164 58.16222
# Shear Modulus (GPa) = 53.48856 1162.94492 608.21674
#
# Velocity S-wave (km/s) = 5.17604 24.13497 17.45406
# Velocity P-wave (km/s) = 7.46045 28.54804 20.86443
#
# Compressibility (1/GPa) = 0.02512386
#
# Stress axis : x y z
#
# Youngs Moduli (GPa) = 103.72126 103.72126 51.56666
#
# Poissons Ratio (x) = 0.66856 0.00850
# Poissons Ratio (y) = 0.66856 0.00850
# Poissons Ratio (z) = 0.01710 0.01710
#
# Static dielectric constant tensor:
#      x y z
#    x 1.687610 0.000000 0.000000 
#    y 0.000000 1.687610 0.000000 
#    z 0.000000 0.000000 1.769630 
# 
# From -- ./inp_files/1550.got.cif
#   From: 2010.05.17/outbox.cif.g08.bks.cpg/sg177_1_cif.got.tgz:1550.got - 2010.05.20 11:28:44.
