data_PCOD9582599
_publ_section_title
;
Structure prediction by ZEFSAII (Michael W. Deem and Ramdas Pophale) SiO2 
 PCOD9582599
Probable space group: P 61 2 2
;
_chemical_formula_sum "Si O2"
_cell_formula_units_Z 54
_cell_length_a 11.596812
_cell_length_b 11.596812
_cell_length_c 19.792601
_cell_angle_alpha 90.000000
_cell_angle_beta 90.000000
_cell_angle_gamma 120.000000
_cell_volume 2305.211274
_symmetry_space_group_name_H-M "P 61 2 2"
_symmetry_group_IT_number 178
_symmetry_cell_setting 'hexagonal'
loop_
_space_group_symop_operation_xyz
x,y,z
x-y,x,1/6+z
-y,x-y,1/3+z
-x,-y,1/2+z
-x+y,-x,2/3+z
y,-x+y,5/6+z
x-y,-y,-z
-x,-x+y,2/3-z
y,x,1/3-z
-y,-x,5/6-z
-x+y,y,1/2-z
x,x-y,1/6-z
loop_
_atom_site_type_symbol
_atom_site_label
_atom_site_fract_x
_atom_site_fract_y
_atom_site_fract_z
Si Si1 0.939941 0.151638 0.245574
Si Si2 0.859768 0.285726 0.048209
Si Si3 0.683048 0.613072 0.832944
Si Si4 0.386615 0.693308 0.583334
Si Si5 0.758697 0.991302 0.886106
O O1 0.830530 0.116774 0.303291
O O2 0.059598 0.119196 0.250000
O O3 0.996075 0.307559 0.233940
O O4 0.857727 0.074817 0.179552
O O5 0.721162 0.282455 0.044328
O O6 0.959526 0.369562 0.110949
O O7 0.810060 0.130511 0.063795
O O8 0.942263 0.323097 0.978768
O O9 0.668640 0.476201 0.805153
O O10 0.894264 0.105737 0.916667
#
# Coordination Sequence:
#
# PCOD9582599 Si02
#       5
#    12  12  12   6  12
#     4  10  20  37  66 102 140 174 228 298 341 405
#     4  10  25  44  70 100 138 183 237 298 348 423
#     4  10  23  42  65 101 132 180 240 281 354 424
#     4  12  26  46  72  92 140 192 226 298 354 436
#     4  10  22  43  64 103 139 181 232 287 359 423
#
# _framework density 23.425186
#
# number of rings (size 3 to 8) (size 9 to 14) (size 15 to 20)
#    0.000    1.778    1.111    1.333    3.111   16.889 
#    8.000    2.222    0.000    0.000    0.000    0.000 
#    0.000    0.000    0.000    0.000    0.000    0.000 
#
# Total GULP energy -301221.319904 kJ/mol
# GULP energy per Si atom -5578.172591 kJ/mol
# Density = 2.337187 g / cm^3
# Si number density = 23.425186 Si / 1000 Ang^3
#
#
#
# Elastic Constant Matrix: (Units=GPa)
#
#
# Indices 1 2 3 4 5 6 
#
# 1 131.6700 35.6862 17.4183 0.0000 0.0000 0.0000
# 2 35.6862 131.6700 17.4183 0.0000 0.0000 0.0000
# 3 17.4183 17.4183 51.5200 0.0000 0.0000 0.0000
# 4 0.0000 0.0000 0.0000 18.9624 0.0000 0.0000
# 5 0.0000 0.0000 0.0000 0.0000 18.9624 0.0000
# 6 0.0000 0.0000 0.0000 0.0000 0.0000 47.9919
#
#
#
# Elastic Compliance Matrix: (Units=1/GPa)
#
#
# Indices 1 2 3 4 5 6 
#
# 1 0.008423 -0.001995 -0.002173 0.000000 0.000000 0.000000
# 2 -0.001995 0.008423 -0.002173 0.000000 0.000000 0.000000
# 3 -0.002173 -0.002173 0.020879 0.000000 0.000000 0.000000
# 4 0.000000 0.000000 0.000000 0.052736 0.000000 0.000000
# 5 0.000000 0.000000 0.000000 0.000000 0.052736 0.000000
# 6 0.000000 0.000000 0.000000 0.000000 0.000000 0.020837
#
#
# Mechanical properties :
#
#
# Convention : Reuss Voigt Hill
#
# Bulk Modulus (GPa) = 39.93264 50.65617 45.29440
# Shear Modulus (GPa) = 27.01761 33.47250 30.24505
#
# Velocity S-wave (km/s) = 3.39980 3.78419 3.59713
# Velocity P-wave (km/s) = 5.70047 6.38476 6.05229
#
# Compressibility (1/GPa) = 0.02504217
#
# Stress axis : x y z
#
# Youngs Moduli (GPa) = 118.72212 118.72212 47.89428
#
# Poissons Ratio (x) = 0.23690 0.10408
# Poissons Ratio (y) = 0.23690 0.10408
# Poissons Ratio (z) = 0.25800 0.25800
#
# Static dielectric constant tensor:
#      x y z
#    x 1.983930 0.000000 0.000000 
#    y 0.000000 1.983930 0.000000 
#    z 0.000000 0.000000 1.957580 
# 
# From -- ./inp_files/8100.got.cif
#   From: 2010.05.17/outbox.cif.g08.bks.cpg/sg178_5_cif.got.tgz:8100.got - 2010.05.20 11:30:59.
