data_PCOD9582890
_publ_section_title
;
Structure prediction by ZEFSAII (Michael W. Deem and Ramdas Pophale) SiO2 
 PCOD9582890
Probable space group: P 61 2 2
;
_chemical_formula_sum "Si O2"
_cell_formula_units_Z 42
_cell_length_a 13.124384
_cell_length_b 13.124384
_cell_length_c 13.198733
_cell_angle_alpha 90.000000
_cell_angle_beta 90.000000
_cell_angle_gamma 120.000000
_cell_volume 1968.886733
_symmetry_space_group_name_H-M "P 61 2 2"
_symmetry_group_IT_number 178
_symmetry_cell_setting 'hexagonal'
loop_
_space_group_symop_operation_xyz
x,y,z
x-y,x,1/6+z
-y,x-y,1/3+z
-x,-y,1/2+z
-x+y,-x,2/3+z
y,-x+y,5/6+z
x-y,-y,-z
-x,-x+y,2/3-z
y,x,1/3-z
-y,-x,5/6-z
-x+y,y,1/2-z
x,x-y,1/6-z
loop_
_atom_site_type_symbol
_atom_site_label
_atom_site_fract_x
_atom_site_fract_y
_atom_site_fract_z
Si Si1 0.738440 0.112821 0.572431
Si Si2 0.690331 0.683972 0.952797
Si Si3 0.166946 0.617977 0.470490
Si Si4 0.085361 0.914640 0.416667
O O1 0.865472 0.230389 0.570342
O O2 0.638220 0.148878 0.566727
O O3 0.705030 0.000000 0.500000
O O4 0.736740 0.075118 0.688450
O O5 0.564610 0.603383 0.006421
O O6 0.757061 0.786070 0.035087
O O7 0.259236 0.740765 0.416667
O O8 0.211161 0.605581 0.583334
O O9 0.000000 0.911715 0.333334
#
# Coordination Sequence:
#
# PCOD9582890 Si02
#       4
#    12  12  12   6
#     4  11  25  42  67 103 145 178 227 305 366 418
#     4  11  23  44  68  98 133 184 238 282 352 432
#     4  10  24  43  70 102 137 190 243 288 351 438
#     4  12  24  42  70  98 128 180 232 284 332 416
#
# _framework density 21.331851
#
# number of rings (size 3 to 8) (size 9 to 14) (size 15 to 20)
#    0.000    1.143    4.286    0.857    0.000   12.571 
#    0.000    0.000    0.000    0.000    0.000    0.000 
#    0.000    0.000    0.000    0.000    0.000    0.000 
#
# Total GULP energy -234052.078535 kJ/mol
# GULP energy per Si atom -5572.668537 kJ/mol
# Density = 2.128330 g / cm^3
# Si number density = 21.331851 Si / 1000 Ang^3
#
#
#
# Elastic Constant Matrix: (Units=GPa)
#
#
# Indices 1 2 3 4 5 6 
#
# 1 198.3273 -51.8983 10.9845 0.0000 0.0000 0.0000
# 2 -51.8983 198.3273 10.9845 0.0000 0.0000 0.0000
# 3 10.9845 10.9845 64.6122 0.0000 0.0000 0.0000
# 4 0.0000 0.0000 0.0000 85.9034 0.0000 0.0000
# 5 0.0000 0.0000 0.0000 0.0000 85.9034 0.0000
# 6 0.0000 0.0000 0.0000 0.0000 0.0000 125.1128
#
#
#
# Elastic Compliance Matrix: (Units=1/GPa)
#
#
# Indices 1 2 3 4 5 6 
#
# 1 0.005502 0.001506 -0.001191 0.000000 0.000000 0.000000
# 2 0.001506 0.005502 -0.001191 0.000000 0.000000 0.000000
# 3 -0.001191 -0.001191 0.015882 0.000000 0.000000 0.000000
# 4 0.000000 0.000000 0.000000 0.011641 0.000000 0.000000
# 5 0.000000 0.000000 0.000000 0.000000 0.011641 0.000000
# 6 0.000000 0.000000 0.000000 0.000000 0.000000 0.007993
#
#
# Mechanical properties :
#
#
# Convention : Reuss Voigt Hill
#
# Bulk Modulus (GPa) = 39.78926 44.60092 42.19509
# Shear Modulus (GPa) = 73.21430 92.13033 82.67232
#
# Velocity S-wave (km/s) = 5.86482 6.57897 6.23213
# Velocity P-wave (km/s) = 8.03458 8.86927 8.46222
#
# Compressibility (1/GPa) = 0.02513241
#
# Stress axis : x y z
#
# Youngs Moduli (GPa) = 181.74565 181.74565 62.96420
#
# Poissons Ratio (x) = -0.27367 0.07502
# Poissons Ratio (y) = -0.27367 0.07502
# Poissons Ratio (z) = 0.21653 0.21653
#
# Static dielectric constant tensor:
#      x y z
#    x 1.817930 0.000000 0.000000 
#    y 0.000000 1.817930 0.000000 
#    z 0.000000 0.000000 1.747830 
# 
# From -- ./inp_files/3972.got.cif
#   From: 2010.05.17/outbox.cif.g08.bks.cpg/sg178_2_cif.got.tgz:3972.got - 2010.05.20 11:30:59.
