data_PCOD9582428
_publ_section_title
;
Structure prediction by ZEFSAII (Michael W. Deem and Ramdas Pophale) SiO2 
 PCOD9582428
Probable space group: P 61 2 2
;
_chemical_formula_sum "Si O2"
_cell_formula_units_Z 36
_cell_length_a 9.507879
_cell_length_b 9.507879
_cell_length_c 18.334664
_cell_angle_alpha 90.000000
_cell_angle_beta 90.000000
_cell_angle_gamma 120.000000
_cell_volume 1435.393183
_symmetry_space_group_name_H-M "P 61 2 2"
_symmetry_group_IT_number 178
_symmetry_cell_setting 'hexagonal'
loop_
_space_group_symop_operation_xyz
x,y,z
x-y,x,1/6+z
-y,x-y,1/3+z
-x,-y,1/2+z
-x+y,-x,2/3+z
y,-x+y,5/6+z
x-y,-y,-z
-x,-x+y,2/3-z
y,x,1/3-z
-y,-x,5/6-z
-x+y,y,1/2-z
x,x-y,1/6-z
loop_
_atom_site_type_symbol
_atom_site_label
_atom_site_fract_x
_atom_site_fract_y
_atom_site_fract_z
Si Si1 0.367058 0.544796 0.538354
Si Si2 0.994263 0.005738 0.416667
Si Si3 0.452171 0.000000 0.500000
Si Si4 0.185080 0.389593 0.112599
O O1 0.312731 0.656366 0.583334
O O2 0.342743 0.408897 0.596532
O O3 0.555074 0.659729 0.510718
O O4 0.280314 0.460795 0.465113
O O5 0.000000 0.938866 0.333334
O O6 0.086547 0.199420 0.398239
O O7 0.498077 0.868752 0.471152
#
# Coordination Sequence:
#
# PCOD9582428 Si02
#       4
#    12   6   6  12
#     4   9  20  39  64  95 129 172 233 294 351 416
#     4  12  24  42  66  96 136 188 236 284 360 440
#     4  10  18  36  64  88 124 168 222 282 350 420
#     4  10  20  38  64  95 125 175 234 287 342 427
#
# _framework density 25.080238000000001
#
# number of rings (size 3 to 8) (size 9 to 14) (size 15 to 20)
#    0.000    2.000    1.667    2.000    4.667    0.000 
#   15.000    0.000    0.000    0.000    0.000    0.000 
#    0.000    0.000    0.000    0.000    0.000    0.000 
#
# Total GULP energy -200467.253104 kJ/mol
# GULP energy per Si atom -5568.534808 kJ/mol
# Density = 2.502315 g / cm^3
# Si number density = 25.080238 Si / 1000 Ang^3
#
#
#
# Elastic Constant Matrix: (Units=GPa)
#
#
# Indices 1 2 3 4 5 6 
#
# 1 -10.9676 63.8276 24.3909 0.0000 0.0000 0.0000
# 2 63.8276 -10.9676 24.3909 0.0000 0.0000 0.0000
# 3 24.3909 24.3909 231.1894 0.0000 0.0000 0.0000
# 4 0.0000 0.0000 0.0000 43.2358 0.0000 0.0000
# 5 0.0000 0.0000 0.0000 0.0000 43.2358 0.0000
# 6 0.0000 0.0000 0.0000 0.0000 0.0000 -37.3976
#
#
#
# Elastic Compliance Matrix: (Units=1/GPa)
#
#
# Indices 1 2 3 4 5 6 
#
# 1 0.003794 0.017164 -0.002211 0.000000 0.000000 0.000000
# 2 0.017164 0.003794 -0.002211 0.000000 0.000000 0.000000
# 3 -0.002211 -0.002211 0.004792 0.000000 0.000000 0.000000
# 4 0.000000 0.000000 0.000000 0.023129 0.000000 0.000000
# 5 0.000000 0.000000 0.000000 0.000000 0.023129 0.000000
# 6 0.000000 0.000000 0.000000 0.000000 0.000000 -0.026740
#
#
# Mechanical properties :
#
#
# Convention : Reuss Voigt Hill
#
# Bulk Modulus (GPa) = 26.41010 48.27478 37.34244
# Shear Modulus (GPa) = 262.65060 16.25777 139.45419
#
# Velocity S-wave (km/s) = 10.24458 2.54880 7.46485
# Velocity P-wave (km/s) = 12.26737 5.28694 9.44564
#
# Compressibility (1/GPa) = 0.03786430
#
# Stress axis : x y z
#
# Youngs Moduli (GPa) = 263.55303 263.55303 208.68026
#
# Poissons Ratio (x) = -4.52366 0.46142
# Poissons Ratio (y) = -4.52366 0.46142
# Poissons Ratio (z) = 0.58276 0.58276
#
# Static dielectric constant tensor:
#      x y z
#    x 2.107840 0.000000 0.000000 
#    y 0.000000 2.107840 0.000000 
#    z 0.000000 0.000000 2.014890 
# 
# From -- ./inp_files/6242.got.cif
#   From: 2010.05.17/outbox.cif.g08.bks.cpg/sg178_4_cif.got.tgz:6242.got - 2010.05.20 11:30:59.
