data_PCOD9582182
_publ_section_title
;
Structure prediction by ZEFSAII (Michael W. Deem and Ramdas Pophale) SiO2 
 PCOD9582182
Probable space group: P 6 2 2
;
_chemical_formula_sum "Si O2"
_cell_formula_units_Z 48
_cell_length_a 25.704687
_cell_length_b 25.704687
_cell_length_c 5.254246
_cell_angle_alpha 90.000000
_cell_angle_beta 90.000000
_cell_angle_gamma 120.000000
_cell_volume 3006.530915
_symmetry_space_group_name_H-M "P 6 2 2"
_symmetry_group_IT_number 177
_symmetry_cell_setting 'hexagonal'
loop_
_space_group_symop_operation_xyz
x,y,z
x-y,x,z
-y,x-y,z
-x,-y,z
-x+y,-x,z
y,-x+y,z
x-y,-y,-z
-x,-x+y,-z
y,x,-z
-y,-x,-z
-x+y,y,-z
x,x-y,-z
loop_
_atom_site_type_symbol
_atom_site_label
_atom_site_fract_x
_atom_site_fract_y
_atom_site_fract_z
Si Si1 0.705028 0.170266 0.500000
Si Si2 0.328824 0.258565 0.500002
Si Si3 0.070334 0.811568 0.999998
Si Si4 0.666444 0.208817 0.000000
O O1 0.772300 0.227701 0.500000
O O2 0.712024 0.112039 0.500000
O O3 0.673017 0.176608 0.249777
O O4 0.673017 0.176608 0.750224
O O5 0.308078 0.308078 0.500000
O O6 0.299585 0.218187 0.750581
O O7 0.299584 0.218186 0.249425
O O8 0.117901 0.882100 0.000000
O O9 0.000000 0.791990 0.000000
O O10 0.723315 0.276686 0.000000
O O11 0.605028 0.210055 0.000000
#
# Coordination Sequence:
#
# PCOD9582182 Si02
#       4
#    12  12  12  12
#     4  10  19  31  50  72  94 123 157 196 239 283
#     4  10  20  33  51  74 100 129 160 198 241 285
#     4  10  19  31  49  73 101 131 162 199 241 284
#     4  10  20  33  50  71  95 123 155 195 241 288
#
# _framework density 15.965244
#
# number of rings (size 3 to 8) (size 9 to 14) (size 15 to 20)
#    0.000    2.000    0.000    4.750    0.000    2.000 
#    0.000    2.500    0.000    4.750    0.000    0.000 
#    0.000    6.000    0.000    0.000    0.000    1.000 
#
# Total GULP energy -267946.977117 kJ/mol
# GULP energy per Si atom -5582.228690 kJ/mol
# Density = 1.592891 g / cm^3
# Si number density = 15.965244 Si / 1000 Ang^3
#
#
#
# Elastic Constant Matrix: (Units=GPa)
#
#
# Indices 1 2 3 4 5 6 
#
# 1 119.9624 75.1725 62.2672 0.0000 0.0000 0.0000
# 2 75.1725 119.9624 62.2672 0.0000 0.0000 0.0000
# 3 62.2672 62.2672 161.9028 0.0000 0.0000 0.0000
# 4 0.0000 0.0000 0.0000 -17.7316 0.0000 0.0000
# 5 0.0000 0.0000 0.0000 0.0000 -17.7316 0.0000
# 6 0.0000 0.0000 0.0000 0.0000 0.0000 22.3950
#
#
#
# Elastic Compliance Matrix: (Units=1/GPa)
#
#
# Indices 1 2 3 4 5 6 
#
# 1 0.014559 -0.007767 -0.002612 0.000000 0.000000 0.000000
# 2 -0.007767 0.014559 -0.002612 0.000000 0.000000 0.000000
# 3 -0.002612 -0.002612 0.008186 0.000000 0.000000 0.000000
# 4 0.000000 0.000000 0.000000 -0.056396 0.000000 0.000000
# 5 0.000000 0.000000 0.000000 0.000000 -0.056396 0.000000
# 6 0.000000 0.000000 0.000000 0.000000 0.000000 0.044653
#
#
# Mechanical properties :
#
#
# Convention : Reuss Voigt Hill
#
# Bulk Modulus (GPa) = 88.33263 89.02682 88.67973
# Shear Modulus (GPa) = -4631.83925 10.86106 -2310.48910
#
# Velocity S-wave (km/s) = -53.92124 2.61107 -38.08334
# Velocity P-wave (km/s) = 61.81600 8.06066 43.33731
#
# Compressibility (1/GPa) = 0.01132084
#
# Stress axis : x y z
#
# Youngs Moduli (GPa) = 68.68577 68.68577 122.16410
#
# Poissons Ratio (x) = 0.53351 0.31910
# Poissons Ratio (y) = 0.53351 0.31910
# Poissons Ratio (z) = 0.17941 0.17941
#
# Static dielectric constant tensor:
#      x y z
#    x 1.506790 0.000000 0.000000 
#    y 0.000000 1.506790 0.000000 
#    z 0.000000 0.000000 1.540720 
# 
# From -- ./inp_files/442.got.cif
#   From: 2010.05.17/outbox.cif.g08.bks.cpg/sg177_1_cif.got.tgz:442.got - 2010.05.20 11:28:44.
