data_PCOD9582872
_publ_section_title
;
Structure prediction by ZEFSAII (Michael W. Deem and Ramdas Pophale) SiO2 
 PCOD9582872
Probable space group: P 61 2 2
;
_chemical_formula_sum "Si O2"
_cell_formula_units_Z 36
_cell_length_a 12.856598
_cell_length_b 12.856598
_cell_length_c 9.431764
_cell_angle_alpha 90.000000
_cell_angle_beta 90.000000
_cell_angle_gamma 120.000000
_cell_volume 1350.130307
_symmetry_space_group_name_H-M "P 61 2 2"
_symmetry_group_IT_number 178
_symmetry_cell_setting 'hexagonal'
loop_
_space_group_symop_operation_xyz
x,y,z
x-y,x,1/6+z
-y,x-y,1/3+z
-x,-y,1/2+z
-x+y,-x,2/3+z
y,-x+y,5/6+z
x-y,-y,-z
-x,-x+y,2/3-z
y,x,1/3-z
-y,-x,5/6-z
-x+y,y,1/2-z
x,x-y,1/6-z
loop_
_atom_site_type_symbol
_atom_site_label
_atom_site_fract_x
_atom_site_fract_y
_atom_site_fract_z
Si Si1 0.526097 0.664349 0.192561
Si Si2 0.328219 0.481053 0.028496
Si Si3 0.168983 0.208478 0.000474
O O1 0.623013 0.623013 0.166667
O O2 0.543841 0.771921 0.083334
O O3 0.518379 0.723272 0.338078
O O4 0.397784 0.545387 0.169381
O O5 0.431501 0.568500 0.916667
O O6 0.281372 0.342463 0.005829
O O7 0.169282 0.169282 0.166667
O O8 0.034878 0.186727 0.023080
#
# Coordination Sequence:
#
# PCOD9582872 Si02
#       3
#    12  12  12
#     4  10  23  46  68 105 142 189 244 300 374 445
#     4  10  23  45  67 105 141 191 241 300 375 434
#     4  10  23  47  75 108 147 193 245 301 376 445
#
# _framework density 26.664092
#
# number of rings (size 3 to 8) (size 9 to 14) (size 15 to 20)
#    0.000    2.000    0.000    1.000    9.333    0.000 
#   54.000    8.333    0.000    0.000    0.000    0.000 
#    0.000    0.000    0.000    0.000    0.000    0.000 
#
# Total GULP energy -200443.830895 kJ/mol
# GULP energy per Si atom -5567.884192 kJ/mol
# Density = 2.660340 g / cm^3
# Si number density = 26.664092 Si / 1000 Ang^3
#
#
#
# Elastic Constant Matrix: (Units=GPa)
#
#
# Indices 1 2 3 4 5 6 
#
# 1 97.8105 78.3106 29.7390 0.0000 0.0000 0.0000
# 2 78.3106 97.8105 29.7390 0.0000 0.0000 0.0000
# 3 29.7390 29.7390 51.9812 0.0000 0.0000 0.0000
# 4 0.0000 0.0000 0.0000 43.2564 0.0000 0.0000
# 5 0.0000 0.0000 0.0000 0.0000 43.2564 0.0000
# 6 0.0000 0.0000 0.0000 0.0000 0.0000 9.7499
#
#
#
# Elastic Compliance Matrix: (Units=1/GPa)
#
#
# Indices 1 2 3 4 5 6 
#
# 1 0.029160 -0.022122 -0.004026 0.000000 0.000000 0.000000
# 2 -0.022122 0.029160 -0.004026 0.000000 0.000000 0.000000
# 3 -0.004026 -0.004026 0.023845 0.000000 0.000000 0.000000
# 4 0.000000 0.000000 0.000000 0.023118 0.000000 0.000000
# 5 0.000000 0.000000 0.000000 0.000000 0.023118 0.000000
# 6 0.000000 0.000000 0.000000 0.000000 0.000000 0.102565
#
#
# Mechanical properties :
#
#
# Convention : Reuss Voigt Hill
#
# Bulk Modulus (GPa) = 45.84053 58.13105 51.98579
# Shear Modulus (GPa) = 16.74554 26.57346 21.65950
#
# Velocity S-wave (km/s) = 2.50875 3.16032 2.85320
# Velocity P-wave (km/s) = 5.06171 5.93005 5.51300
#
# Compressibility (1/GPa) = 0.02181476
#
# Stress axis : x y z
#
# Youngs Moduli (GPa) = 34.29353 34.29353 41.93801
#
# Poissons Ratio (x) = 0.75865 0.16886
# Poissons Ratio (y) = 0.75865 0.16886
# Poissons Ratio (z) = 0.13808 0.13808
#
# Static dielectric constant tensor:
#      x y z
#    x -0.004960 0.000000 0.000000 
#    y 0.000000 -0.004960 0.000000 
#    z 0.000000 0.000000 2.385630 
# 
# From -- ./inp_files/5128.got.cif
#   From: 2010.05.17/outbox.cif.g08.bks.cpg/sg178_3_cif.got.tgz:5128.got - 2010.05.20 11:30:59.
