data_PCOD9582807
_publ_section_title
;
Structure prediction by ZEFSAII (Michael W. Deem and Ramdas Pophale) SiO2 
 PCOD9582807
Probable space group: P 61 2 2
;
_chemical_formula_sum "Si O2"
_cell_formula_units_Z 84
_cell_length_a 18.666980
_cell_length_b 18.666980
_cell_length_c 14.123839
_cell_angle_alpha 90.000000
_cell_angle_beta 90.000000
_cell_angle_gamma 120.000000
_cell_volume 4262.177326
_symmetry_space_group_name_H-M "P 61 2 2"
_symmetry_group_IT_number 178
_symmetry_cell_setting 'hexagonal'
loop_
_space_group_symop_operation_xyz
x,y,z
x-y,x,1/6+z
-y,x-y,1/3+z
-x,-y,1/2+z
-x+y,-x,2/3+z
y,-x+y,5/6+z
x-y,-y,-z
-x,-x+y,2/3-z
y,x,1/3-z
-y,-x,5/6-z
-x+y,y,1/2-z
x,x-y,1/6-z
loop_
_atom_site_type_symbol
_atom_site_label
_atom_site_fract_x
_atom_site_fract_y
_atom_site_fract_z
Si Si1 0.991975 0.074072 0.134108
Si Si2 0.035963 0.562111 0.438723
Si Si3 0.670534 0.225886 0.833683
Si Si4 0.951643 0.299403 0.621319
Si Si5 0.026040 0.634753 0.724891
Si Si6 0.408579 0.222086 0.366679
Si Si7 0.165816 0.243999 0.846872
O O1 0.941058 0.104367 0.072686
O O2 0.963887 0.080340 0.243472
O O3 0.985007 0.985007 0.166667
O O4 0.135051 0.617060 0.452153
O O5 0.013791 0.469321 0.465832
O O6 0.000000 0.554690 0.333334
O O7 0.996533 0.605637 0.500316
O O8 0.706254 0.293747 0.916667
O O9 0.618400 0.236799 0.750000
O O10 0.745446 0.226296 0.777058
O O11 0.855130 0.253469 0.641522
O O12 0.971547 0.314611 0.510407
O O13 0.994922 0.249984 0.664533
O O14 0.120688 0.702588 0.698667
O O15 0.000000 0.631629 0.833334
O O16 0.325185 0.189044 0.426887
O O17 0.121661 0.243321 0.750000
#
# Coordination Sequence:
#
# PCOD9582807 Si02
#       7
#    12  12  12  12  12  12  12
#     4  10  23  39  57  79 113 164 213 263 324 393
#     4  11  21  40  73  99 131 181 233 275 339 420
#     4  12  23  44  69 101 149 188 222 281 349 419
#     4  11  23  39  64 103 131 172 233 282 339 416
#     4  10  22  43  68  95 133 188 229 276 343 404
#     4  11  23  41  66 102 141 174 224 298 344 406
#     4  11  24  39  63  94 130 166 222 288 356 392
#
# _framework density 19.708238000000001
#
# number of rings (size 3 to 8) (size 9 to 14) (size 15 to 20)
#    0.000    1.143    4.286    2.571    6.000    1.714 
#    0.000   19.286    0.000    0.000    0.000    0.000 
#    0.000    0.000    0.000    0.000    0.000    0.000 
#
# Total GULP energy -467642.825084 kJ/mol
# GULP energy per Si atom -5567.176489 kJ/mol
# Density = 1.966338 g / cm^3
# Si number density = 19.708238 Si / 1000 Ang^3
#
#
#
# Elastic Constant Matrix: (Units=GPa)
#
#
# Indices 1 2 3 4 5 6 
#
# 1 86.7604 36.7759 57.4294 0.0000 0.0000 0.0000
# 2 36.7759 86.7604 57.4294 0.0000 0.0000 0.0000
# 3 57.4294 57.4294 132.9308 0.0000 0.0000 0.0000
# 4 0.0000 0.0000 0.0000 28.8027 0.0000 0.0000
# 5 0.0000 0.0000 0.0000 0.0000 28.8027 0.0000
# 6 0.0000 0.0000 0.0000 0.0000 0.0000 24.9923
#
#
#
# Elastic Compliance Matrix: (Units=1/GPa)
#
#
# Indices 1 2 3 4 5 6 
#
# 1 0.016768 -0.003239 -0.005845 0.000000 0.000000 0.000000
# 2 -0.003239 0.016768 -0.005845 0.000000 0.000000 0.000000
# 3 -0.005845 -0.005845 0.012573 0.000000 0.000000 0.000000
# 4 0.000000 0.000000 0.000000 0.034719 0.000000 0.000000
# 5 0.000000 0.000000 0.000000 0.000000 0.034719 0.000000
# 6 0.000000 0.000000 0.000000 0.000000 0.000000 0.040012
#
#
# Mechanical properties :
#
#
# Convention : Reuss Voigt Hill
#
# Bulk Modulus (GPa) = 61.53239 67.74678 64.63958
# Shear Modulus (GPa) = 26.20096 26.84065 26.52081
#
# Velocity S-wave (km/s) = 3.65011 3.69440 3.67232
# Velocity P-wave (km/s) = 7.00384 7.25586 7.13097
#
# Compressibility (1/GPa) = 0.01625160
#
# Stress axis : x y z
#
# Youngs Moduli (GPa) = 59.63859 59.63859 79.53545
#
# Poissons Ratio (x) = 0.19314 0.46488
# Poissons Ratio (y) = 0.19314 0.46488
# Poissons Ratio (z) = 0.34858 0.34858
#
# Static dielectric constant tensor:
#      x y z
#    x 1.604420 0.000000 0.000000 
#    y 0.000000 1.604420 0.000000 
#    z 0.000000 0.000000 1.373960 
# 
# From -- ./inp_files/6041.got.cif
#   From: 2010.05.17/outbox.cif.g08.bks.cpg/sg178_4_cif.got.tgz:6041.got - 2010.05.20 11:30:59.
