data_PCOD9582336
_publ_section_title
;
Structure prediction by ZEFSAII (Michael W. Deem and Ramdas Pophale) SiO2 
 PCOD9582336
Probable space group: P 61 2 2
;
_chemical_formula_sum "Si O2"
_cell_formula_units_Z 60
_cell_length_a 13.714762
_cell_length_b 13.714762
_cell_length_c 19.392377
_cell_angle_alpha 90.000000
_cell_angle_beta 90.000000
_cell_angle_gamma 120.000000
_cell_volume 3158.917095
_symmetry_space_group_name_H-M "P 61 2 2"
_symmetry_group_IT_number 178
_symmetry_cell_setting 'hexagonal'
loop_
_space_group_symop_operation_xyz
x,y,z
x-y,x,1/6+z
-y,x-y,1/3+z
-x,-y,1/2+z
-x+y,-x,2/3+z
y,-x+y,5/6+z
x-y,-y,-z
-x,-x+y,2/3-z
y,x,1/3-z
-y,-x,5/6-z
-x+y,y,1/2-z
x,x-y,1/6-z
loop_
_atom_site_type_symbol
_atom_site_label
_atom_site_fract_x
_atom_site_fract_y
_atom_site_fract_z
Si Si1 0.603290 0.229185 0.175151
Si Si2 0.259563 0.413398 0.579679
Si Si3 0.597511 0.452417 0.208118
Si Si4 0.351262 0.000000 0.000000
Si Si5 0.653081 0.910150 0.136868
Si Si6 0.593037 0.796519 0.583334
O O1 0.586587 0.173175 0.250000
O O2 0.704085 0.224840 0.136132
O O3 0.624241 0.353854 0.189696
O O4 0.491729 0.178118 0.128340
O O5 0.350950 0.464777 0.642193
O O6 0.277150 0.320966 0.539454
O O7 0.141909 0.360322 0.620577
O O8 0.463114 0.391512 0.213046
O O9 0.656818 0.527692 0.274433
O O10 0.242765 0.906704 0.961255
O O11 0.695855 0.847928 0.083334
#
# Coordination Sequence:
#
# PCOD9582336 Si02
#       6
#    12  12  12   6  12   6
#     4  11  20  32  51  79 113 158 199 237 287 360
#     4  11  19  34  48  79 114 159 204 243 294 354
#     4  10  16  29  52  76 110 155 206 239 282 357
#     4  10  16  32  50  76 110 156 208 242 300 344
#     4  10  19  31  55  75 110 159 199 246 281 360
#     4  10  20  32  54  74 112 158 204 248 282 370
#
# _framework density 18.993852
#
# number of rings (size 3 to 8) (size 9 to 14) (size 15 to 20)
#    0.000    1.600    6.000    3.600    0.000    0.000 
#    0.000   10.000    0.000    0.000    0.000    0.000 
#    0.000    0.000  153.000    8.200   10.600    0.000 
#
# Total GULP energy -334429.629957 kJ/mol
# GULP energy per Si atom -5573.827166 kJ/mol
# Density = 1.895062 g / cm^3
# Si number density = 18.993852 Si / 1000 Ang^3
#
#
#
# Elastic Constant Matrix: (Units=GPa)
#
#
# Indices 1 2 3 4 5 6 
#
# 1 86.4554 52.2040 36.4606 0.0000 0.0000 0.0000
# 2 52.2040 86.4554 36.4606 0.0000 0.0000 0.0000
# 3 36.4606 36.4606 83.0966 0.0000 0.0000 0.0000
# 4 0.0000 0.0000 0.0000 28.6652 0.0000 0.0000
# 5 0.0000 0.0000 0.0000 0.0000 28.6652 0.0000
# 6 0.0000 0.0000 0.0000 0.0000 0.0000 17.1257
#
#
#
# Elastic Compliance Matrix: (Units=1/GPa)
#
#
# Indices 1 2 3 4 5 6 
#
# 1 0.019286 -0.009910 -0.004114 0.000000 0.000000 0.000000
# 2 -0.009910 0.019286 -0.004114 0.000000 0.000000 0.000000
# 3 -0.004114 -0.004114 0.015644 0.000000 0.000000 0.000000
# 4 0.000000 0.000000 0.000000 0.034885 0.000000 0.000000
# 5 0.000000 0.000000 0.000000 0.000000 0.034885 0.000000
# 6 0.000000 0.000000 0.000000 0.000000 0.000000 0.058392
#
#
# Mechanical properties :
#
#
# Convention : Reuss Voigt Hill
#
# Bulk Modulus (GPa) = 55.74091 56.25086 55.99589
# Shear Modulus (GPa) = 22.25849 23.61670 22.93760
#
# Velocity S-wave (km/s) = 3.42699 3.52999 3.47887
# Velocity P-wave (km/s) = 6.71338 6.80397 6.75883
#
# Compressibility (1/GPa) = 0.01794014
#
# Stress axis : x y z
#
# Youngs Moduli (GPa) = 51.85214 51.85214 63.92190
#
# Poissons Ratio (x) = 0.51387 0.26295
# Poissons Ratio (y) = 0.51387 0.26295
# Poissons Ratio (z) = 0.21330 0.21330
#
# Static dielectric constant tensor:
#      x y z
#    x 1.694930 0.000000 0.000000 
#    y 0.000000 1.694930 0.000000 
#    z 0.000000 0.000000 1.776310 
# 
# From -- ./inp_files/7602.got.cif
#   From: 2010.05.17/outbox.cif.g08.bks.cpg/sg178_4_cif.got.tgz:7602.got - 2010.05.20 11:30:59.
