data_PCOD9582337
_publ_section_title
;
Structure prediction by ZEFSAII (Michael W. Deem and Ramdas Pophale) SiO2 
 PCOD9582337
Probable space group: P 61 2 2
;
_chemical_formula_sum "Si O2"
_cell_formula_units_Z 54
_cell_length_a 10.074225
_cell_length_b 10.074225
_cell_length_c 22.332165
_cell_angle_alpha 90.000000
_cell_angle_beta 90.000000
_cell_angle_gamma 120.000000
_cell_volume 1962.839333
_symmetry_space_group_name_H-M "P 61 2 2"
_symmetry_group_IT_number 178
_symmetry_cell_setting 'hexagonal'
loop_
_space_group_symop_operation_xyz
x,y,z
x-y,x,1/6+z
-y,x-y,1/3+z
-x,-y,1/2+z
-x+y,-x,2/3+z
y,-x+y,5/6+z
x-y,-y,-z
-x,-x+y,2/3-z
y,x,1/3-z
-y,-x,5/6-z
-x+y,y,1/2-z
x,x-y,1/6-z
loop_
_atom_site_type_symbol
_atom_site_label
_atom_site_fract_x
_atom_site_fract_y
_atom_site_fract_z
Si Si1 0.422828 0.577173 0.416667
Si Si2 0.304797 0.512234 0.605185
Si Si3 0.929741 0.742517 0.019849
Si Si4 0.740505 0.085759 0.558865
Si Si5 0.347595 0.955585 0.355694
O O1 0.247767 0.498100 0.397713
O O2 0.421020 0.477738 0.473400
O O3 0.372832 0.686416 0.583334
O O4 0.157430 0.409127 0.561226
O O5 0.404152 0.432681 0.585738
O O6 0.220130 0.484522 0.668951
O O7 0.981111 0.696766 0.958590
O O8 0.790041 0.776347 0.014433
O O9 0.083036 0.872156 0.048127
O O10 0.651878 0.000000 0.500000
#
# Coordination Sequence:
#
# PCOD9582337 Si02
#       5
#     6  12  12  12  12
#     4  10  16  34  48  68 112 156 184 238 290 354
#     4  10  16  30  52  78 116 157 197 242 308 364
#     4   9  16  30  48  75 113 151 189 245 291 358
#     4  11  20  31  52  79 118 157 197 248 308 361
#     4   9  16  29  54  74 114 159 197 243 296 366
#
# _framework density 27.511164999999998
#
# number of rings (size 3 to 8) (size 9 to 14) (size 15 to 20)
#    1.333    0.889    5.556    0.667    0.000    0.000 
#    0.000    4.444    0.000    0.000    0.000    0.000 
#   13.333    8.444    0.000    0.667    0.000    0.000 
#
# Total GULP energy -301711.942248 kJ/mol
# GULP energy per Si atom -5587.258190 kJ/mol
# Density = 2.744855 g / cm^3
# Si number density = 27.511165 Si / 1000 Ang^3
#
#
#
# Elastic Constant Matrix: (Units=GPa)
#
#
# Indices 1 2 3 4 5 6 
#
# 1 77.9950 25.2748 26.4001 0.0000 0.0000 0.0000
# 2 25.2748 77.9950 26.4001 0.0000 0.0000 0.0000
# 3 26.4001 26.4001 67.3953 0.0000 0.0000 0.0000
# 4 0.0000 0.0000 0.0000 49.2193 0.0000 0.0000
# 5 0.0000 0.0000 0.0000 0.0000 49.2193 0.0000
# 6 0.0000 0.0000 0.0000 0.0000 0.0000 26.3601
#
#
#
# Elastic Compliance Matrix: (Units=1/GPa)
#
#
# Indices 1 2 3 4 5 6 
#
# 1 0.015538 -0.003430 -0.004743 0.000000 0.000000 0.000000
# 2 -0.003430 0.015538 -0.004743 0.000000 0.000000 0.000000
# 3 -0.004743 -0.004743 0.018554 0.000000 0.000000 0.000000
# 4 0.000000 0.000000 0.000000 0.020317 0.000000 0.000000
# 5 0.000000 0.000000 0.000000 0.000000 0.020317 0.000000
# 6 0.000000 0.000000 0.000000 0.000000 0.000000 0.037936
#
#
# Mechanical properties :
#
#
# Convention : Reuss Voigt Hill
#
# Bulk Modulus (GPa) = 42.02001 42.17061 42.09531
# Shear Modulus (GPa) = 30.87073 34.64710 32.75891
#
# Velocity S-wave (km/s) = 3.35343 3.55263 3.45447
# Velocity P-wave (km/s) = 5.50463 5.67363 5.58977
#
# Compressibility (1/GPa) = 0.02379818
#
# Stress axis : x y z
#
# Youngs Moduli (GPa) = 64.35728 64.35728 53.89740
#
# Poissons Ratio (x) = 0.22073 0.25564
# Poissons Ratio (y) = 0.22073 0.25564
# Poissons Ratio (z) = 0.30525 0.30525
#
# Static dielectric constant tensor:
#      x y z
#    x 2.165670 0.000000 0.000000 
#    y 0.000000 2.165670 0.000000 
#    z 0.000000 0.000000 2.245850 
# 
# From -- ./inp_files/9363.got.cif
#   From: 2010.05.17/outbox.cif.g08.bks.cpg/sg178_5_cif.got.tgz:9363.got - 2010.05.20 11:30:59.
