data_PCOD9582464
_publ_section_title
;
Structure prediction by ZEFSAII (Michael W. Deem and Ramdas Pophale) SiO2 
 PCOD9582464
Probable space group: P 61 2 2
;
_chemical_formula_sum "Si O2"
_cell_formula_units_Z 66
_cell_length_a 13.885614
_cell_length_b 13.885614
_cell_length_c 21.411486
_cell_angle_alpha 90.000000
_cell_angle_beta 90.000000
_cell_angle_gamma 120.000000
_cell_volume 3575.259898
_symmetry_space_group_name_H-M "P 61 2 2"
_symmetry_group_IT_number 178
_symmetry_cell_setting 'hexagonal'
loop_
_space_group_symop_operation_xyz
x,y,z
x-y,x,1/6+z
-y,x-y,1/3+z
-x,-y,1/2+z
-x+y,-x,2/3+z
y,-x+y,5/6+z
x-y,-y,-z
-x,-x+y,2/3-z
y,x,1/3-z
-y,-x,5/6-z
-x+y,y,1/2-z
x,x-y,1/6-z
loop_
_atom_site_type_symbol
_atom_site_label
_atom_site_fract_x
_atom_site_fract_y
_atom_site_fract_z
Si Si1 0.167068 0.985109 0.700617
Si Si2 0.321565 0.078411 0.810919
Si Si3 0.278695 0.683118 0.490353
Si Si4 0.506770 0.181796 0.391711
Si Si5 0.135608 0.067804 0.583334
Si Si6 0.517207 0.024207 0.676566
O O1 0.086290 0.854792 0.688009
O O2 0.259940 0.004905 0.750413
O O3 0.208397 0.047709 0.634234
O O4 0.107043 0.050820 0.725991
O O5 0.400259 0.204718 0.787907
O O6 0.400422 0.037287 0.840130
O O7 0.297710 0.702291 0.416667
O O8 0.325310 0.605180 0.517235
O O9 0.330254 0.790204 0.535677
O O10 0.146498 0.614051 0.503765
O O11 0.486781 0.065362 0.366774
O O12 0.496356 0.992712 0.750000
#
# Coordination Sequence:
#
# PCOD9582464 Si02
#       6
#    12  12  12  12   6  12
#     4   9  17  31  52  77 112 142 194 230 297 356
#     4  10  19  33  56  83 106 150 196 241 282 367
#     4  10  21  40  58  86 119 152 195 252 310 360
#     4  10  21  38  60  83 115 157 198 246 303 364
#     4   8  16  32  48  74 112 150 164 238 298 346
#     4  11  20  38  59  83 115 159 204 247 305 366
#
# _framework density 18.460197000000001
#
# number of rings (size 3 to 8) (size 9 to 14) (size 15 to 20)
#    0.000    2.182    3.636    1.636    0.000    2.182 
#    1.636    5.455    0.000    8.727    0.000    0.000 
#    0.000    0.000    0.000    0.000    0.000    0.000 
#
# Total GULP energy -367828.788941 kJ/mol
# GULP energy per Si atom -5573.163469 kJ/mol
# Density = 1.841818 g / cm^3
# Si number density = 18.460197 Si / 1000 Ang^3
#
#
#
# Elastic Constant Matrix: (Units=GPa)
#
#
# Indices 1 2 3 4 5 6 
#
# 1 55.7834 17.3981 26.7813 0.0000 0.0000 0.0000
# 2 17.3981 55.7834 26.7813 0.0000 0.0000 0.0000
# 3 26.7813 26.7813 109.4386 0.0000 0.0000 0.0000
# 4 0.0000 0.0000 0.0000 19.9233 0.0000 0.0000
# 5 0.0000 0.0000 0.0000 0.0000 19.9233 0.0000
# 6 0.0000 0.0000 0.0000 0.0000 0.0000 19.1927
#
#
#
# Elastic Compliance Matrix: (Units=1/GPa)
#
#
# Indices 1 2 3 4 5 6 
#
# 1 0.021349 -0.004703 -0.004074 0.000000 0.000000 0.000000
# 2 -0.004703 0.021349 -0.004074 0.000000 0.000000 0.000000
# 3 -0.004074 -0.004074 0.011131 0.000000 0.000000 0.000000
# 4 0.000000 0.000000 0.000000 0.050193 0.000000 0.000000
# 5 0.000000 0.000000 0.000000 0.000000 0.050193 0.000000
# 6 0.000000 0.000000 0.000000 0.000000 0.000000 0.052103
#
#
# Mechanical properties :
#
#
# Convention : Reuss Voigt Hill
#
# Bulk Modulus (GPa) = 35.55008 40.32519 37.93764
# Shear Modulus (GPa) = 20.71305 21.81082 21.26193
#
# Velocity S-wave (km/s) = 3.35332 3.44103 3.39746
# Velocity P-wave (km/s) = 5.85598 6.13836 5.99883
#
# Compressibility (1/GPa) = 0.02812933
#
# Stress axis : x y z
#
# Youngs Moduli (GPa) = 46.84081 46.84081 89.83691
#
# Poissons Ratio (x) = 0.22028 0.36596
# Poissons Ratio (y) = 0.22028 0.36596
# Poissons Ratio (z) = 0.19081 0.19081
#
# Static dielectric constant tensor:
#      x y z
#    x 1.634100 0.000000 0.000000 
#    y 0.000000 1.634100 0.000000 
#    z 0.000000 0.000000 1.689950 
# 
# From -- ./inp_files/7639.got.cif
#   From: 2010.05.17/outbox.cif.g08.bks.cpg/sg178_4_cif.got.tgz:7639.got - 2010.05.20 11:30:59.
