data_PCOD9582730
_publ_section_title
;
Structure prediction by ZEFSAII (Michael W. Deem and Ramdas Pophale) SiO2 
 PCOD9582730
Probable space group: P 61 2 2
;
_chemical_formula_sum "Si O2"
_cell_formula_units_Z 36
_cell_length_a 7.870553
_cell_length_b 7.870553
_cell_length_c 26.207993
_cell_angle_alpha 90.000000
_cell_angle_beta 90.000000
_cell_angle_gamma 120.000000
_cell_volume 1405.966236
_symmetry_space_group_name_H-M "P 61 2 2"
_symmetry_group_IT_number 178
_symmetry_cell_setting 'hexagonal'
loop_
_space_group_symop_operation_xyz
x,y,z
x-y,x,1/6+z
-y,x-y,1/3+z
-x,-y,1/2+z
-x+y,-x,2/3+z
y,-x+y,5/6+z
x-y,-y,-z
-x,-x+y,2/3-z
y,x,1/3-z
-y,-x,5/6-z
-x+y,y,1/2-z
x,x-y,1/6-z
loop_
_atom_site_type_symbol
_atom_site_label
_atom_site_fract_x
_atom_site_fract_y
_atom_site_fract_z
Si Si1 0.861175 0.220453 0.728203
Si Si2 0.304485 0.865901 0.828685
Si Si3 0.028686 0.028686 0.166667
Si Si4 0.434109 0.000000 0.500000
O O1 0.881744 0.402704 0.695792
O O2 0.896896 0.287963 0.786265
O O3 0.653526 0.026878 0.715776
O O4 0.000509 0.146591 0.702826
O O5 0.170845 0.642286 0.810870
O O6 0.156266 0.919810 0.859270
#
# Coordination Sequence:
#
# PCOD9582730 Si02
#       4
#    12  12   6   6
#     4  10  21  48  90 122 179 243 294 393 466 546
#     4   9  21  47  86 120 182 235 304 377 466 575
#     4   7  20  44  85 119 173 232 306 358 466 572
#     4  11  22  46  93 133 173 236 318 388 464 552
#
# _framework density 25.605167999999999
#
# number of rings (size 3 to 8) (size 9 to 14) (size 15 to 20)
#    2.000    0.667    0.000    1.000    0.000    0.000 
#    0.000   16.667   14.667    0.000    0.000    0.000 
#    0.000    0.000    0.000    0.000    0.000    0.000 
#
# Total GULP energy -200875.345902 kJ/mol
# GULP energy per Si atom -5579.870720 kJ/mol
# Density = 2.554689 g / cm^3
# Si number density = 25.605168 Si / 1000 Ang^3
#
#
#
# Elastic Constant Matrix: (Units=GPa)
#
#
# Indices 1 2 3 4 5 6 
#
# 1 169.4822 80.9231 95.2086 0.0000 0.0000 0.0000
# 2 80.9231 169.4822 95.2086 0.0000 0.0000 0.0000
# 3 95.2086 95.2086 179.1978 0.0000 0.0000 0.0000
# 4 0.0000 0.0000 0.0000 5.4802 0.0000 0.0000
# 5 0.0000 0.0000 0.0000 0.0000 5.4802 0.0000
# 6 0.0000 0.0000 0.0000 0.0000 0.0000 44.2796
#
#
#
# Elastic Compliance Matrix: (Units=1/GPa)
#
#
# Indices 1 2 3 4 5 6 
#
# 1 0.008996 -0.002296 -0.003560 0.000000 0.000000 0.000000
# 2 -0.002296 0.008996 -0.003560 0.000000 0.000000 0.000000
# 3 -0.003560 -0.003560 0.009363 0.000000 0.000000 0.000000
# 4 0.000000 0.000000 0.000000 0.182477 0.000000 0.000000
# 5 0.000000 0.000000 0.000000 0.000000 0.182477 0.000000
# 6 0.000000 0.000000 0.000000 0.000000 0.000000 0.022584
#
#
# Mechanical properties :
#
#
# Convention : Reuss Voigt Hill
#
# Bulk Modulus (GPa) = 117.30991 117.87145 117.59068
# Shear Modulus (GPa) = 11.45301 27.50276 19.47789
#
# Velocity S-wave (km/s) = 2.11722 3.28092 2.76107
# Velocity P-wave (km/s) = 7.20356 7.77732 7.49593
#
# Compressibility (1/GPa) = 0.00852443
#
# Stress axis : x y z
#
# Youngs Moduli (GPa) = 111.15618 111.15618 106.79768
#
# Poissons Ratio (x) = 0.25516 0.38022
# Poissons Ratio (y) = 0.25516 0.38022
# Poissons Ratio (z) = 0.39574 0.39574
#
# Static dielectric constant tensor:
#      x y z
#    x 2.120950 0.000000 0.000000 
#    y 0.000000 2.120950 0.000000 
#    z 0.000000 0.000000 1.936530 
# 
# From -- ./inp_files/8581.got.cif
#   From: 2010.05.17/outbox.cif.g08.bks.cpg/sg178_5_cif.got.tgz:8581.got - 2010.05.20 11:30:59.
