data_PCOD9582450
_publ_section_title
;
Structure prediction by ZEFSAII (Michael W. Deem and Ramdas Pophale) SiO2 
 PCOD9582450
Probable space group: P 61 2 2
;
_chemical_formula_sum "Si O2"
_cell_formula_units_Z 48
_cell_length_a 25.774365
_cell_length_b 25.774365
_cell_length_c 5.170520
_cell_angle_alpha 90.000000
_cell_angle_beta 90.000000
_cell_angle_gamma 120.000000
_cell_volume 2974.683763
_symmetry_space_group_name_H-M "P 61 2 2"
_symmetry_group_IT_number 178
_symmetry_cell_setting 'hexagonal'
loop_
_space_group_symop_operation_xyz
x,y,z
x-y,x,1/6+z
-y,x-y,1/3+z
-x,-y,1/2+z
-x+y,-x,2/3+z
y,-x+y,5/6+z
x-y,-y,-z
-x,-x+y,2/3-z
y,x,1/3-z
-y,-x,5/6-z
-x+y,y,1/2-z
x,x-y,1/6-z
loop_
_atom_site_type_symbol
_atom_site_label
_atom_site_fract_x
_atom_site_fract_y
_atom_site_fract_z
Si Si1 0.701465 0.070108 0.508392
Si Si2 0.764370 0.235630 0.916667
Si Si3 0.182434 0.623912 0.336878
Si Si4 0.629257 0.069060 0.011361
Si Si5 0.192797 0.385593 0.250000
O O1 0.663424 0.079207 0.282955
O O2 0.769977 0.120526 0.446445
O O3 0.683211 0.000000 0.500000
O O4 0.676636 0.080127 0.780699
O O5 0.790274 0.305462 0.863639
O O6 0.784127 0.212716 0.666901
O O7 0.200803 0.600402 0.583334
O O8 0.111837 0.601548 0.342838
O O9 0.197828 0.598914 0.083334
O O10 0.579523 0.000000 0.000000
#
# Coordination Sequence:
#
# PCOD9582450 Si02
#       5
#    12   6  12  12   6
#     4  10  19  32  54  82 106 131 168 206 244 298
#     4  12  24  40  58  76  90 134 172 203 258 323
#     4  12  24  39  56  74  98 126 165 210 255 307
#     4  10  20  36  54  79 105 126 159 203 252 310
#     4  12  18  36  62  76 102 138 166 205 248 303
#
# _framework density 16.13617
#
# number of rings (size 3 to 8) (size 9 to 14) (size 15 to 20)
#    0.000    1.000    5.000    3.000    0.000    1.000 
#    2.250    0.000    0.000    0.000    0.000    0.000 
#    0.000    0.000    0.000    0.000    0.000   10.000 
#
# Total GULP energy -267828.963431 kJ/mol
# GULP energy per Si atom -5579.770071 kJ/mol
# Density = 1.609944 g / cm^3
# Si number density = 16.136170 Si / 1000 Ang^3
#
#
#
# Elastic Constant Matrix: (Units=GPa)
#
#
# Indices 1 2 3 4 5 6 
#
# 1 71.8628 17.6632 24.8072 0.0000 0.0000 0.0000
# 2 17.6632 71.8628 24.8072 0.0000 0.0000 0.0000
# 3 24.8072 24.8072 115.1191 0.0000 0.0000 0.0000
# 4 0.0000 0.0000 0.0000 18.9468 0.0000 0.0000
# 5 0.0000 0.0000 0.0000 0.0000 18.9468 0.0000
# 6 0.0000 0.0000 0.0000 0.0000 0.0000 27.0998
#
#
#
# Elastic Compliance Matrix: (Units=1/GPa)
#
#
# Indices 1 2 3 4 5 6 
#
# 1 0.015568 -0.002883 -0.002733 0.000000 0.000000 0.000000
# 2 -0.002883 0.015568 -0.002733 0.000000 0.000000 0.000000
# 3 -0.002733 -0.002733 0.009865 0.000000 0.000000 0.000000
# 4 0.000000 0.000000 0.000000 0.052779 0.000000 0.000000
# 5 0.000000 0.000000 0.000000 0.000000 0.052779 0.000000
# 6 0.000000 0.000000 0.000000 0.000000 0.000000 0.036901
#
#
# Mechanical properties :
#
#
# Convention : Reuss Voigt Hill
#
# Bulk Modulus (GPa) = 41.15149 43.71111 42.43130
# Shear Modulus (GPa) = 24.00861 25.76983 24.88922
#
# Velocity S-wave (km/s) = 3.86148 4.00061 3.93166
# Velocity P-wave (km/s) = 6.74088 6.96330 6.85299
#
# Compressibility (1/GPa) = 0.02430046
#
# Stress axis : x y z
#
# Youngs Moduli (GPa) = 64.23615 64.23615 101.37118
#
# Poissons Ratio (x) = 0.18518 0.27710
# Poissons Ratio (y) = 0.18518 0.27710
# Poissons Ratio (z) = 0.17559 0.17559
#
# Static dielectric constant tensor:
#      x y z
#    x 1.540640 0.000000 0.000000 
#    y 0.000000 1.540640 0.000000 
#    z 0.000000 0.000000 1.551190 
# 
# From -- ./inp_files/1093.got.cif
#   From: 2010.05.17/outbox.cif.g08.bks.cpg/sg178_1_cif.got.tgz:1093.got - 2010.05.20 11:30:59.
