data_PCOD9582000
_publ_section_title
;
Structure prediction by ZEFSAII (Michael W. Deem and Ramdas Pophale) SiO2 
 PCOD9582000
Probable space group: P 63/M
;
_chemical_formula_sum "Si O2"
_cell_formula_units_Z 60
_cell_length_a 15.804744
_cell_length_b 15.804744
_cell_length_c 12.779941
_cell_angle_alpha 90.000000
_cell_angle_beta 90.000000
_cell_angle_gamma 120.000000
_cell_volume 2764.613420
_symmetry_space_group_name_H-M "P 63/M"
_symmetry_group_IT_number 176
_symmetry_cell_setting 'hexagonal'
loop_
_space_group_symop_operation_xyz
x,y,z
x-y,x,1/2+z
-y,x-y,z
-x,-y,1/2+z
-x+y,-x,z
y,-x+y,1/2+z
-x,-y,-z
-x+y,-x,1/2-z
y,-x+y,-z
x,y,1/2-z
x-y,x,-z
-y,x-y,1/2-z
loop_
_atom_site_type_symbol
_atom_site_label
_atom_site_fract_x
_atom_site_fract_y
_atom_site_fract_z
Si Si1 0.865510 0.503787 0.425586
Si Si2 0.827059 0.036378 0.001820
Si Si3 0.315592 0.372138 0.081998
Si Si4 0.594453 0.744019 0.367425
Si Si5 0.542996 0.846931 0.633393
O O1 0.859106 0.522576 0.549467
O O2 0.830781 0.394420 0.393163
O O3 0.795015 0.538741 0.375922
O O4 0.978198 0.573547 0.392555
O O5 0.745440 0.002589 0.093067
O O6 0.792480 0.088890 0.916873
O O7 0.936425 0.115229 0.035042
O O8 0.259938 0.422429 0.133043
O O9 0.307125 0.390136 0.958369
O O10 0.587389 0.708416 0.250000
O O11 0.572169 0.885801 0.750000
#
# Coordination Sequence:
#
# PCOD9582000 Si02
#       5
#    12  12  12  12  12
#     4  10  21  39  58  85 117 143 180 235 283 326
#     4   9  17  33  55  79 112 151 187 233 283 321
#     4   9  20  37  55  81 116 150 188 229 271 328
#     4   9  19  36  58  82 112 151 188 225 276 337
#     4  11  22  37  61  87 111 145 186 230 281 332
#
# _framework density 21.702855
#
# number of rings (size 3 to 8) (size 9 to 14) (size 15 to 20)
#    0.000    2.400    0.000    3.000    0.000    4.800 
#    0.000    8.000    0.000    0.000    0.000    0.000 
#    0.000    0.000    0.000    0.000    0.000    0.000 
#
# Total GULP energy -334788.847283 kJ/mol
# GULP energy per Si atom -5579.814121 kJ/mol
# Density = 2.165346 g / cm^3
# Si number density = 21.702855 Si / 1000 Ang^3
#
#
#
# Elastic Constant Matrix: (Units=GPa)
#
#
# Indices 1 2 3 4 5 6 
#
# 1 70.5830 0.7356 1.1199 0.0000 0.0000 0.0000
# 2 0.7356 70.5830 1.1199 0.0000 0.0000 0.0000
# 3 1.1199 1.1199 101.6792 0.0000 0.0000 0.0000
# 4 0.0000 0.0000 0.0000 -4.0365 0.0000 0.0000
# 5 0.0000 0.0000 0.0000 0.0000 -4.0365 0.0000
# 6 0.0000 0.0000 0.0000 0.0000 0.0000 34.9237
#
#
#
# Elastic Compliance Matrix: (Units=1/GPa)
#
#
# Indices 1 2 3 4 5 6 
#
# 1 0.014172 -0.000145 -0.000154 0.000000 0.000000 0.000000
# 2 -0.000145 0.014172 -0.000154 0.000000 0.000000 0.000000
# 3 -0.000154 -0.000154 0.009838 0.000000 0.000000 0.000000
# 4 0.000000 0.000000 0.000000 -0.247737 0.000000 0.000000
# 5 0.000000 0.000000 0.000000 0.000000 -0.247737 0.000000
# 6 0.000000 0.000000 0.000000 0.000000 0.000000 0.028634
#
#
# Mechanical properties :
#
#
# Convention : Reuss Voigt Hill
#
# Bulk Modulus (GPa) = 26.82891 27.64396 27.23644
# Shear Modulus (GPa) = -12.03875 21.36144 4.66134
#
# Velocity S-wave (km/s) = -2.35778 3.14071 1.46713
# Velocity P-wave (km/s) = 2.23083 5.09089 3.93025
#
# Compressibility (1/GPa) = 0.03727323
#
# Stress axis : x y z
#
# Youngs Moduli (GPa) = 70.56321 70.56321 101.64398
#
# Poissons Ratio (x) = 0.01025 0.01570
# Poissons Ratio (y) = 0.01025 0.01570
# Poissons Ratio (z) = 0.01090 0.01090
#
# Static dielectric constant tensor:
#      x y z
#    x 1.820820 0.000000 0.000000 
#    y 0.000000 1.820820 0.000000 
#    z 0.000000 0.000000 1.810630 
# 
# From -- ./inp_files/1858.got.cif
#   From: 2010.05.17/outbox.cif.g08.bks.cpg/sg176_1_cif.got.tgz:1858.got - 2010.06.03 11:36:45.
