data_PCOD9582225
_publ_section_title
;
Structure prediction by ZEFSAII (Michael W. Deem and Ramdas Pophale) SiO2 
 PCOD9582225
Probable space group: P 6 2 2
;
_chemical_formula_sum "Si O2"
_cell_formula_units_Z 76
_cell_length_a 17.126090
_cell_length_b 17.126090
_cell_length_c 16.659792
_cell_angle_alpha 90.000000
_cell_angle_beta 90.000000
_cell_angle_gamma 120.000000
_cell_volume 4231.717335
_symmetry_space_group_name_H-M "P 6 2 2"
_symmetry_group_IT_number 177
_symmetry_cell_setting 'hexagonal'
loop_
_space_group_symop_operation_xyz
x,y,z
x-y,x,z
-y,x-y,z
-x,-y,z
-x+y,-x,z
y,-x+y,z
x-y,-y,-z
-x,-x+y,-z
y,x,-z
-y,-x,-z
-x+y,y,-z
x,x-y,-z
loop_
_atom_site_type_symbol
_atom_site_label
_atom_site_fract_x
_atom_site_fract_y
_atom_site_fract_z
Si Si1 0.513634 0.667248 0.166321
Si Si2 0.098635 0.381350 0.671311
Si Si3 0.717284 0.618649 0.671312
Si Si4 0.435387 0.870774 0.403974
Si Si5 0.282732 0.898688 1.000000
Si Si6 0.486366 0.153615 0.166322
Si Si7 0.333334 0.666668 0.402520
O O1 0.588521 0.699492 0.235520
O O2 0.432222 0.567778 0.182941
O O3 0.479424 0.739712 0.167005
O O4 0.556483 0.673607 0.079474
O O5 0.187086 0.374172 0.648175
O O6 0.096418 0.464286 0.626644
O O7 0.110971 0.411479 0.764480
O O8 1.000000 0.294524 0.658831
O O9 0.632131 0.535713 0.626644
O O10 0.438789 0.877577 0.500000
O O11 0.383890 0.767779 0.375122
O O12 0.326393 0.882876 0.920526
O O13 0.178285 0.821716 0.000000
O O14 0.302576 0.000000 0.000000
O O15 0.333334 0.666667 0.500000
#
# Coordination Sequence:
#
# PCOD9582225 Si02
#       7
#    12  12  12  12  12  12   4
#     4  10  20  33  51  76 107 142 176 210 250 303
#     4  11  23  37  55  79 108 142 181 224 269 316
#     4  11  23  37  55  79 108 142 181 224 269 316
#     4  11  21  36  57  81 112 146 178 212 258 316
#     4  10  21  35  51  72  99 133 172 216 263 307
#     4  10  20  33  51  76 107 142 176 210 250 303
#     4   9  18  33  54  81 111 142 173 208 252 309
#
# _framework density 17.959612
#
# number of rings (size 3 to 8) (size 9 to 14) (size 15 to 20)
#    0.000    1.579    3.158    2.211    0.000    3.789 
#    0.000    1.579    0.000    0.474    0.000    0.000 
#    0.000    7.579    0.000    2.842    0.000    0.632 
#
# Total GULP energy -424034.055050 kJ/mol
# GULP energy per Si atom -5579.395461 kJ/mol
# Density = 1.791873 g / cm^3
# Si number density = 17.959612 Si / 1000 Ang^3
#
#
#
# Elastic Constant Matrix: (Units=GPa)
#
#
# Indices 1 2 3 4 5 6 
#
# 1 90.2393 73.9527 6.4353 0.0000 0.0000 0.0000
# 2 73.9527 90.2397 6.4352 0.0000 0.0000 0.0000
# 3 6.4353 6.4352 76.1359 0.0000 0.0000 0.0000
# 4 0.0000 0.0000 0.0000 -3.2427 0.0000 0.0000
# 5 0.0000 0.0000 0.0000 0.0000 -3.2423 0.0000
# 6 0.0000 0.0000 0.0000 0.0000 0.0000 8.1432
#
#
#
# Elastic Compliance Matrix: (Units=1/GPa)
#
#
# Indices 1 2 3 4 5 6 
#
# 1 0.033765 -0.027634 -0.000518 0.000000 0.000000 0.000000
# 2 -0.027634 0.033765 -0.000518 0.000000 0.000000 0.000000
# 3 -0.000518 -0.000518 0.013222 0.000000 0.000000 0.000000
# 4 0.000000 0.000000 0.000000 -0.308389 0.000001 0.000000
# 5 0.000000 0.000000 0.000000 0.000001 -0.308423 0.000001
# 6 0.000000 0.000000 0.000000 0.000000 0.000001 0.122801
#
#
# Mechanical properties :
#
#
# Convention : Reuss Voigt Hill
#
# Bulk Modulus (GPa) = 42.71454 47.80683 45.26068
# Shear Modulus (GPa) = -14.36315 11.65110 -1.35602
#
# Velocity S-wave (km/s) = -2.83105 2.54980 -0.86987
# Velocity P-wave (km/s) = 3.62614 5.94521 4.92414
#
# Compressibility (1/GPa) = 0.02341123
#
# Stress axis : x y z
#
# Youngs Moduli (GPa) = 29.61623 29.61636 75.63145
#
# Poissons Ratio (x) = 0.81842 0.03920
# Poissons Ratio (y) = 0.81842 0.03919
# Poissons Ratio (z) = 0.01535 0.01535
#
# Static dielectric constant tensor:
#      x y z
#    x 1.620310 0.000000 0.000000 
#    y 0.000000 1.620310 0.000000 
#    z 0.000000 0.000000 1.628430 
# 
# From -- ./inp_files/2583.got.cif
#   From: 2010.05.17/outbox.cif.g08.bks.cpg/sg177_2_cif.got.tgz:2583.got - 2010.05.20 11:28:44.
