data_PCOD9582725
_publ_section_title
;
Structure prediction by ZEFSAII (Michael W. Deem and Ramdas Pophale) SiO2 
 PCOD9582725
Probable space group: P 61 2 2
;
_chemical_formula_sum "Si O2"
_cell_formula_units_Z 36
_cell_length_a 9.415990
_cell_length_b 9.415990
_cell_length_c 22.724923
_cell_angle_alpha 90.000000
_cell_angle_beta 90.000000
_cell_angle_gamma 120.000000
_cell_volume 1744.877849
_symmetry_space_group_name_H-M "P 61 2 2"
_symmetry_group_IT_number 178
_symmetry_cell_setting 'hexagonal'
loop_
_space_group_symop_operation_xyz
x,y,z
x-y,x,1/6+z
-y,x-y,1/3+z
-x,-y,1/2+z
-x+y,-x,2/3+z
y,-x+y,5/6+z
x-y,-y,-z
-x,-x+y,2/3-z
y,x,1/3-z
-y,-x,5/6-z
-x+y,y,1/2-z
x,x-y,1/6-z
loop_
_atom_site_type_symbol
_atom_site_label
_atom_site_fract_x
_atom_site_fract_y
_atom_site_fract_z
Si Si1 0.648631 0.464888 0.193329
Si Si2 0.653242 0.765082 0.461915
Si Si3 0.836499 0.418250 0.083334
Si Si4 0.107057 0.214113 0.250000
O O1 0.572775 0.572775 0.166667
O O2 0.769491 0.538981 0.250000
O O3 0.499646 0.291765 0.217338
O O4 0.733009 0.424930 0.138606
O O5 0.641523 0.601904 0.438426
O O6 0.671691 0.778131 0.531811
O O7 0.814978 0.922244 0.437806
#
# Coordination Sequence:
#
# PCOD9582725 Si02
#       4
#    12  12   6   6
#     4  12  27  47  76 105 150 197 250 310 374 443
#     4  11  23  44  71 106 138 191 237 300 367 438
#     4  12  29  44  74 109 152 188 254 305 380 440
#     4  10  21  42  74  95 140 180 240 285 368 442
#
# _framework density 20.631816000000001
#
# number of rings (size 3 to 8) (size 9 to 14) (size 15 to 20)
#    0.000    0.667    5.000    3.000    4.667    0.000 
#    9.000    0.000    0.000    0.000    0.000    0.000 
#    0.000    0.000    0.000    0.000    0.000    0.000 
#
# Total GULP energy -201149.298197 kJ/mol
# GULP energy per Si atom -5587.480505 kJ/mol
# Density = 2.058486 g / cm^3
# Si number density = 20.631816 Si / 1000 Ang^3
#
#
#
# Elastic Constant Matrix: (Units=GPa)
#
#
# Indices 1 2 3 4 5 6 
#
# 1 111.5477 74.0262 48.5661 0.0000 0.0000 0.0000
# 2 74.0262 111.5477 48.5661 0.0000 0.0000 0.0000
# 3 48.5661 48.5661 112.8113 0.0000 0.0000 0.0000
# 4 0.0000 0.0000 0.0000 27.9268 0.0000 0.0000
# 5 0.0000 0.0000 0.0000 0.0000 27.9268 0.0000
# 6 0.0000 0.0000 0.0000 0.0000 0.0000 18.7607
#
#
#
# Elastic Compliance Matrix: (Units=1/GPa)
#
#
# Indices 1 2 3 4 5 6 
#
# 1 0.016804 -0.009848 -0.002995 0.000000 0.000000 0.000000
# 2 -0.009848 0.016804 -0.002995 0.000000 0.000000 0.000000
# 3 -0.002995 -0.002995 0.011443 0.000000 0.000000 0.000000
# 4 0.000000 0.000000 0.000000 0.035808 0.000000 0.000000
# 5 0.000000 0.000000 0.000000 0.000000 0.035808 0.000000
# 6 0.000000 0.000000 0.000000 0.000000 0.000000 0.053303
#
#
# Mechanical properties :
#
#
# Convention : Reuss Voigt Hill
#
# Bulk Modulus (GPa) = 74.75840 75.35815 75.05828
# Shear Modulus (GPa) = 24.25986 25.90609 25.08298
#
# Velocity S-wave (km/s) = 3.43278 3.54734 3.49053
# Velocity P-wave (km/s) = 7.21285 7.30635 7.25975
#
# Compressibility (1/GPa) = 0.01337642
#
# Stress axis : x y z
#
# Youngs Moduli (GPa) = 59.51040 59.51040 87.39107
#
# Poissons Ratio (x) = 0.58604 0.26171
# Poissons Ratio (y) = 0.58604 0.26171
# Poissons Ratio (z) = 0.17821 0.17821
#
# Static dielectric constant tensor:
#      x y z
#    x 1.742940 0.000000 0.000000 
#    y 0.000000 1.742940 0.000000 
#    z 0.000000 0.000000 1.803410 
# 
# From -- ./inp_files/8592.got.cif
#   From: 2010.05.17/outbox.cif.g08.bks.cpg/sg178_5_cif.got.tgz:8592.got - 2010.05.20 11:30:59.
