data_PCOD9582423
_publ_section_title
;
Structure prediction by ZEFSAII (Michael W. Deem and Ramdas Pophale) SiO2 
 PCOD9582423
Probable space group: P 61 2 2
;
_chemical_formula_sum "Si O2"
_cell_formula_units_Z 48
_cell_length_a 17.191313
_cell_length_b 17.191313
_cell_length_c 12.246231
_cell_angle_alpha 90.000000
_cell_angle_beta 90.000000
_cell_angle_gamma 120.000000
_cell_volume 3134.376583
_symmetry_space_group_name_H-M "P 61 2 2"
_symmetry_group_IT_number 178
_symmetry_cell_setting 'hexagonal'
loop_
_space_group_symop_operation_xyz
x,y,z
x-y,x,1/6+z
-y,x-y,1/3+z
-x,-y,1/2+z
-x+y,-x,2/3+z
y,-x+y,5/6+z
x-y,-y,-z
-x,-x+y,2/3-z
y,x,1/3-z
-y,-x,5/6-z
-x+y,y,1/2-z
x,x-y,1/6-z
loop_
_atom_site_type_symbol
_atom_site_label
_atom_site_fract_x
_atom_site_fract_y
_atom_site_fract_z
Si Si1 0.427590 0.040096 0.767510
Si Si2 0.805765 0.611529 0.750000
Si Si3 0.668648 0.514856 0.943945
Si Si4 0.294179 0.529449 0.871341
Si Si5 0.667812 0.667812 0.666667
O O1 0.520590 0.041179 0.750000
O O2 0.447605 0.133423 0.716391
O O3 0.398868 0.030180 0.895036
O O4 0.354449 0.948777 0.710766
O O5 0.741375 0.547426 0.846499
O O6 0.758542 0.667711 0.705855
O O7 0.576856 0.423145 0.916667
O O8 0.706024 0.495134 0.051587
O O9 0.380727 0.619274 0.916667
O O10 0.272357 0.544714 0.750000
#
# Coordination Sequence:
#
# PCOD9582423 Si02
#       5
#    12   6  12  12   6
#     4   9  20  34  50  71 100 138 172 217 262 311
#     4  10  20  34  58  78 112 134 180 222 274 322
#     4  10  21  33  51  74 101 141 170 217 268 307
#     4  11  23  34  49  72 102 136 180 219 256 311
#     4  10  18  36  56  80 106 134 178 226 274 324
#
# _framework density 15.31405
#
# number of rings (size 3 to 8) (size 9 to 14) (size 15 to 20)
#    0.000    2.000    2.500    0.750    5.250    7.000 
#    0.000    0.000    0.000    0.000    0.000    0.000 
#   15.000    0.000    0.000    0.000    0.000    0.000 
#
# Total GULP energy -267300.021285 kJ/mol
# GULP energy per Si atom -5568.750443 kJ/mol
# Density = 1.527919 g / cm^3
# Si number density = 15.314050 Si / 1000 Ang^3
#
#
#
# Elastic Constant Matrix: (Units=GPa)
#
#
# Indices 1 2 3 4 5 6 
#
# 1 78.6644 56.6453 59.4671 0.0000 0.0000 0.0000
# 2 56.6453 78.6644 59.4671 0.0000 0.0000 0.0000
# 3 59.4671 59.4671 117.5368 0.0000 0.0000 0.0000
# 4 0.0000 0.0000 0.0000-2900.8704 0.0044 0.0000
# 5 0.0000 0.0000 0.0000 0.0044-2900.8754 0.0000
# 6 0.0000 0.0000 0.0000 0.0000 0.0000 11.0095
#
#
#
# Elastic Compliance Matrix: (Units=1/GPa)
#
#
# Indices 1 2 3 4 5 6 
#
# 1 0.029362 -0.016053 -0.006734 0.000000 0.000000 0.000000
# 2 -0.016053 0.029362 -0.006734 0.000000 0.000000 0.000000
# 3 -0.006734 -0.006734 0.015322 0.000000 0.000000 0.000000
# 4 0.000000 0.000000 0.000000 -0.000345 0.000000 0.000000
# 5 0.000000 0.000000 0.000000 0.000000 -0.000345 0.000000
# 6 0.000000 0.000000 0.000000 0.000000 0.000000 0.090830
#
#
# Mechanical properties :
#
#
# Convention : Reuss Voigt Hill
#
# Bulk Modulus (GPa) = 66.64308 69.55832 68.10070
# Shear Modulus (GPa) = 21.90773 -1151.52819 -564.81023
#
# Velocity S-wave (km/s) = 3.78638 -27.45132 -19.22548
# Velocity P-wave (km/s) = 7.92008 30.97170 21.17214
#
# Compressibility (1/GPa) = 0.01500531
#
# Stress axis : x y z
#
# Youngs Moduli (GPa) = 34.05735 34.05735 65.26654
#
# Poissons Ratio (x) = 0.54672 0.43949
# Poissons Ratio (y) = 0.54672 0.43949
# Poissons Ratio (z) = 0.22933 0.22933
#
# Static dielectric constant tensor:
#      x y z
#    x 5.450640 0.000010 0.000000 
#    y 0.000010 5.450640 0.000000 
#    z 0.000000 0.000000 1.490800 
# 
# From -- ./inp_files/2655.got.cif
#   From: 2010.05.17/outbox.cif.g08.bks.cpg/sg178_2_cif.got.tgz:2655.got - 2010.05.20 11:30:59.
