data_PCOD9582467
_publ_section_title
;
Structure prediction by ZEFSAII (Michael W. Deem and Ramdas Pophale) SiO2 
 PCOD9582467
Probable space group: P 61 2 2
;
_chemical_formula_sum "Si O2"
_cell_formula_units_Z 96
_cell_length_a 14.732885
_cell_length_b 14.732885
_cell_length_c 29.765976
_cell_angle_alpha 90.000000
_cell_angle_beta 90.000000
_cell_angle_gamma 120.000000
_cell_volume 5595.338393
_symmetry_space_group_name_H-M "P 61 2 2"
_symmetry_group_IT_number 178
_symmetry_cell_setting 'hexagonal'
loop_
_space_group_symop_operation_xyz
x,y,z
x-y,x,1/6+z
-y,x-y,1/3+z
-x,-y,1/2+z
-x+y,-x,2/3+z
y,-x+y,5/6+z
x-y,-y,-z
-x,-x+y,2/3-z
y,x,1/3-z
-y,-x,5/6-z
-x+y,y,1/2-z
x,x-y,1/6-z
loop_
_atom_site_type_symbol
_atom_site_label
_atom_site_fract_x
_atom_site_fract_y
_atom_site_fract_z
Si Si1 0.829502 0.537832 0.818533
Si Si2 0.398448 0.382752 0.917208
Si Si3 0.077580 0.426643 0.184131
Si Si4 0.489483 0.338492 0.562486
Si Si5 0.705771 0.325969 0.014084
Si Si6 0.244956 0.467327 0.925446
Si Si7 0.958853 0.393992 0.266137
Si Si8 0.573607 0.636485 0.318394
O O1 0.761102 0.586917 0.800301
O O2 0.738715 0.417957 0.825131
O O3 0.886119 0.583076 0.866179
O O4 0.923382 0.547996 0.786993
O O5 0.500027 0.499974 0.916667
O O6 0.298584 0.397885 0.918714
O O7 0.406575 0.332163 0.870698
O O8 0.401476 0.334956 0.964778
O O9 0.092006 0.543748 0.187055
O O10 0.976425 0.363658 0.216105
O O11 0.446470 0.223235 0.583334
O O12 0.586900 0.352929 0.532646
O O13 0.531507 0.438603 0.595772
O O14 0.413043 0.354983 0.529262
O O15 0.731119 0.250013 0.044053
O O16 0.748640 0.433028 0.042018
O O17 0.134502 0.409174 0.950092
#
# Coordination Sequence:
#
# PCOD9582467 Si02
#       8
#    12  12  12  12  12  12  12  12
#     4  11  21  35  50  78 106 150 197 229 272 337
#     4  10  19  34  49  73 106 135 178 238 277 330
#     4  10  20  34  51  73 107 142 186 237 276 325
#     4  11  20  35  49  72 112 144 188 235 270 326
#     4  11  19  31  51  73 100 149 190 217 271 326
#     4  11  19  32  54  71 103 142 187 224 277 327
#     4  10  22  34  50  73 109 145 190 236 267 321
#     4  10  20  34  50  76 101 142 189 228 278 337
#
# _framework density 17.157138
#
# number of rings (size 3 to 8) (size 9 to 14) (size 15 to 20)
#    0.000    1.500    5.000    3.375    1.750    2.000 
#    2.250    0.000    0.000    0.000    0.000    0.000 
#    0.000    8.000    0.000    0.500    0.000    0.000 
#
# Total GULP energy -534876.910695 kJ/mol
# GULP energy per Si atom -5571.634486 kJ/mol
# Density = 1.711809 g / cm^3
# Si number density = 17.157138 Si / 1000 Ang^3
#
#
#
# Elastic Constant Matrix: (Units=GPa)
#
#
# Indices 1 2 3 4 5 6 
#
# 1 56.3538 12.9606 15.3083 0.0000 0.0000 0.0000
# 2 12.9606 56.3538 15.3083 0.0000 0.0000 0.0000
# 3 15.3083 15.3083 73.5081 0.0000 0.0000 0.0000
# 4 0.0000 0.0000 0.0000 17.6061 0.0000 0.0000
# 5 0.0000 0.0000 0.0000 0.0000 17.6061 0.0000
# 6 0.0000 0.0000 0.0000 0.0000 0.0000 21.6966
#
#
#
# Elastic Compliance Matrix: (Units=1/GPa)
#
#
# Indices 1 2 3 4 5 6 
#
# 1 0.019467 -0.003578 -0.003309 0.000000 0.000000 0.000000
# 2 -0.003578 0.019467 -0.003309 0.000000 0.000000 0.000000
# 3 -0.003309 -0.003309 0.014982 0.000000 0.000000 0.000000
# 4 0.000000 0.000000 0.000000 0.056798 0.000000 0.000000
# 5 0.000000 0.000000 0.000000 0.000000 0.056798 0.000000
# 6 0.000000 0.000000 0.000000 0.000000 0.000000 0.046090
#
#
# Mechanical properties :
#
#
# Convention : Reuss Voigt Hill
#
# Bulk Modulus (GPa) = 29.82950 30.37443 30.10197
# Shear Modulus (GPa) = 20.39406 20.89099 20.64253
#
# Velocity S-wave (km/s) = 3.45144 3.49324 3.47240
# Velocity P-wave (km/s) = 5.77123 5.83201 5.80170
#
# Compressibility (1/GPa) = 0.03352386
#
# Stress axis : x y z
#
# Youngs Moduli (GPa) = 51.36944 51.36944 66.74639
#
# Poissons Ratio (x) = 0.18381 0.22085
# Poissons Ratio (y) = 0.18381 0.22085
# Poissons Ratio (z) = 0.16997 0.16997
#
# Static dielectric constant tensor:
#      x y z
#    x 1.586050 0.000000 0.000000 
#    y 0.000000 1.586050 0.000000 
#    z 0.000000 0.000000 1.660470 
# 
# From -- ./inp_files/9691.got.cif
#   From: 2010.05.17/outbox.cif.g08.bks.cpg/sg178_5_cif.got.tgz:9691.got - 2010.05.20 11:30:59.
