data_PCOD9582832
_publ_section_title
;
Structure prediction by ZEFSAII (Michael W. Deem and Ramdas Pophale) SiO2 
 PCOD9582832
Probable space group: P 61 2 2
;
_chemical_formula_sum "Si O2"
_cell_formula_units_Z 60
_cell_length_a 14.452633
_cell_length_b 14.452633
_cell_length_c 15.439624
_cell_angle_alpha 90.000000
_cell_angle_beta 90.000000
_cell_angle_gamma 120.000000
_cell_volume 2792.938037
_symmetry_space_group_name_H-M "P 61 2 2"
_symmetry_group_IT_number 178
_symmetry_cell_setting 'hexagonal'
loop_
_space_group_symop_operation_xyz
x,y,z
x-y,x,1/6+z
-y,x-y,1/3+z
-x,-y,1/2+z
-x+y,-x,2/3+z
y,-x+y,5/6+z
x-y,-y,-z
-x,-x+y,2/3-z
y,x,1/3-z
-y,-x,5/6-z
-x+y,y,1/2-z
x,x-y,1/6-z
loop_
_atom_site_type_symbol
_atom_site_label
_atom_site_fract_x
_atom_site_fract_y
_atom_site_fract_z
Si Si1 0.277649 0.878466 0.968399
Si Si2 0.407179 0.586057 0.513760
Si Si3 0.637694 0.920713 0.921389
Si Si4 0.095915 0.402961 0.626661
Si Si5 0.448297 0.819037 0.365340
O O1 0.164966 0.835035 0.916667
O O2 0.332961 0.850732 0.889672
O O3 0.310403 0.827082 0.049705
O O4 0.327662 0.000000 0.000000
O O5 0.432919 0.567082 0.416667
O O6 0.363882 0.487777 0.579286
O O7 0.303978 0.602106 0.500987
O O8 0.646376 0.817370 0.940071
O O9 0.677124 0.986327 0.831852
O O10 0.689569 0.000000 0.000000
O O11 0.145251 0.503611 0.695807
O O12 0.102728 0.463219 0.537366
#
# Coordination Sequence:
#
# PCOD9582832 Si02
#       5
#    12  12  12  12  12
#     4  12  26  42  66  97 139 193 247 301 359 438
#     4  11  23  37  60  90 130 178 232 282 348 427
#     4  11  23  38  58  88 128 173 230 284 345 415
#     4  10  23  38  64  91 129 184 226 288 347 427
#     4  10  23  41  62  91 136 182 238 282 358 432
#
# _framework density 21.482754
#
# number of rings (size 3 to 8) (size 9 to 14) (size 15 to 20)
#    0.000    1.200    2.000    3.600   11.200    3.200 
#    0.000    0.000    0.000    0.000    0.000    0.000 
#    0.000   97.600    0.000    0.000    0.000    0.000 
#
# Total GULP energy -334289.319253 kJ/mol
# GULP energy per Si atom -5571.488654 kJ/mol
# Density = 2.143386 g / cm^3
# Si number density = 21.482754 Si / 1000 Ang^3
#
#
#
# Elastic Constant Matrix: (Units=GPa)
#
#
# Indices 1 2 3 4 5 6 
#
# 1 70.6228 66.6273 28.6566 0.0000 0.0000 0.0000
# 2 66.6273 70.6228 28.6566 0.0000 0.0000 0.0000
# 3 28.6566 28.6566 138.2496 0.0000 0.0000 0.0000
# 4 0.0000 0.0000 0.0000 28.3291 0.0000 0.0000
# 5 0.0000 0.0000 0.0000 0.0000 28.3291 0.0000
# 6 0.0000 0.0000 0.0000 0.0000 0.0000 1.9978
#
#
#
# Elastic Compliance Matrix: (Units=1/GPa)
#
#
# Indices 1 2 3 4 5 6 
#
# 1 0.129128 -0.121152 -0.001653 0.000000 0.000000 0.000000
# 2 -0.121152 0.129128 -0.001653 0.000000 0.000000 0.000000
# 3 -0.001653 -0.001653 0.007919 0.000000 0.000000 0.000000
# 4 0.000000 0.000000 0.000000 0.035299 0.000000 0.000000
# 5 0.000000 0.000000 0.000000 0.000000 0.035299 0.000000
# 6 0.000000 0.000000 0.000000 0.000000 0.000000 0.500560
#
#
# Mechanical properties :
#
#
# Convention : Reuss Voigt Hill
#
# Bulk Modulus (GPa) = 57.94399 58.59737 58.27068
# Shear Modulus (GPa) = 4.57874 22.10150 13.34012
#
# Velocity S-wave (km/s) = 1.46150 3.21097 2.49463
# Velocity P-wave (km/s) = 5.46616 6.40959 5.95658
#
# Compressibility (1/GPa) = 0.01725805
#
# Stress axis : x y z
#
# Youngs Moduli (GPa) = 7.74424 7.74424 126.28311
#
# Poissons Ratio (x) = 0.93823 0.20879
# Poissons Ratio (y) = 0.93823 0.20879
# Poissons Ratio (z) = 0.01280 0.01280
#
# Static dielectric constant tensor:
#      x y z
#    x 1.896960 0.000000 0.000000 
#    y 0.000000 1.896960 0.000000 
#    z 0.000000 0.000000 1.853310 
# 
# From -- ./inp_files/5691.got.cif
#   From: 2010.05.17/outbox.cif.g08.bks.cpg/sg178_3_cif.got.tgz:5691.got - 2010.05.20 11:30:59.
