data_PCOD9582952
_publ_section_title
;
Structure prediction by ZEFSAII (Michael W. Deem and Ramdas Pophale) SiO2 
 PCOD9582952
Probable space group: P 61 2 2
;
_chemical_formula_sum "Si O2"
_cell_formula_units_Z 84
_cell_length_a 14.294353
_cell_length_b 14.294353
_cell_length_c 23.435919
_cell_angle_alpha 90.000000
_cell_angle_beta 90.000000
_cell_angle_gamma 120.000000
_cell_volume 4147.072479
_symmetry_space_group_name_H-M "P 61 2 2"
_symmetry_group_IT_number 178
_symmetry_cell_setting 'hexagonal'
loop_
_space_group_symop_operation_xyz
x,y,z
x-y,x,1/6+z
-y,x-y,1/3+z
-x,-y,1/2+z
-x+y,-x,2/3+z
y,-x+y,5/6+z
x-y,-y,-z
-x,-x+y,2/3-z
y,x,1/3-z
-y,-x,5/6-z
-x+y,y,1/2-z
x,x-y,1/6-z
loop_
_atom_site_type_symbol
_atom_site_label
_atom_site_fract_x
_atom_site_fract_y
_atom_site_fract_z
Si Si1 0.464138 0.232847 0.790135
Si Si2 0.559829 0.562420 0.473850
Si Si3 0.101625 0.640801 0.449498
Si Si4 0.246771 0.665647 0.019341
Si Si5 0.478553 0.676605 0.166222
Si Si6 0.130232 0.070013 0.725321
Si Si7 0.735514 0.963604 0.840570
O O1 0.431477 0.106610 0.793818
O O2 0.580754 0.324186 0.811196
O O3 0.462894 0.277301 0.726549
O O4 0.380722 0.241399 0.832270
O O5 0.494506 0.505495 0.416667
O O6 0.510437 0.479182 0.526649
O O7 0.527221 0.655011 0.485189
O O8 0.222332 0.692721 0.473579
O O9 0.107560 0.650878 0.381420
O O10 0.060680 0.715824 0.477559
O O11 0.254316 0.627158 0.083334
O O12 0.354879 0.777350 0.002701
O O13 0.128415 0.128415 0.666667
O O14 0.208324 0.153919 0.771369
O O15 0.009529 0.019057 0.750000
O O16 0.172328 0.988862 0.710948
#
# Coordination Sequence:
#
# PCOD9582952 Si02
#       7
#    12  12  12  12  12  12  12
#     4  12  22  37  61  90 121 163 217 275 327 390
#     4  11  21  37  58  84 125 164 221 264 309 386
#     4  11  21  36  55  90 124 165 203 260 327 389
#     4  11  21  37  56  81 120 172 216 261 323 384
#     4  11  22  36  59  85 130 168 206 261 334 405
#     4   9  21  38  55  81 124 160 195 249 316 394
#     4  11  23  36  61  94 122 162 208 259 326 392
#
# _framework density 20.255251999999999
#
# number of rings (size 3 to 8) (size 9 to 14) (size 15 to 20)
#    0.000    1.143    5.714    1.286    8.000    0.000 
#    0.000    0.000    0.000    1.714    0.000    2.000 
#    0.000    0.000    0.000    0.000    0.000    0.000 
#
# Total GULP energy -468234.692885 kJ/mol
# GULP energy per Si atom -5574.222534 kJ/mol
# Density = 2.020915 g / cm^3
# Si number density = 20.255252 Si / 1000 Ang^3
#
#
#
# Elastic Constant Matrix: (Units=GPa)
#
#
# Indices 1 2 3 4 5 6 
#
# 1 54.0662 16.0547 17.4253 0.0000 0.0000 0.0000
# 2 16.0547 54.0662 17.4253 0.0000 0.0000 0.0000
# 3 17.4253 17.4253 51.5526 0.0000 0.0000 0.0000
# 4 0.0000 0.0000 0.0000 18.9409 0.0000 0.0000
# 5 0.0000 0.0000 0.0000 0.0000 18.9409 0.0000
# 6 0.0000 0.0000 0.0000 0.0000 0.0000 19.0058
#
#
#
# Elastic Compliance Matrix: (Units=1/GPa)
#
#
# Indices 1 2 3 4 5 6 
#
# 1 0.021724 -0.004584 -0.005794 0.000000 0.000000 0.000000
# 2 -0.004584 0.021724 -0.005794 0.000000 0.000000 0.000000
# 3 -0.005794 -0.005794 0.023314 0.000000 0.000000 0.000000
# 4 0.000000 0.000000 0.000000 0.052796 0.000000 0.000000
# 5 0.000000 0.000000 0.000000 0.000000 0.052796 0.000000
# 6 0.000000 0.000000 0.000000 0.000000 0.000000 0.052616
#
#
# Mechanical properties :
#
#
# Convention : Reuss Voigt Hill
#
# Bulk Modulus (GPa) = 29.05224 29.05505 29.05364
# Shear Modulus (GPa) = 18.60219 18.62949 18.61584
#
# Velocity S-wave (km/s) = 3.03378 3.03601 3.03489
# Velocity P-wave (km/s) = 5.16197 5.16385 5.16291
#
# Compressibility (1/GPa) = 0.03442075
#
# Stress axis : x y z
#
# Youngs Moduli (GPa) = 46.03157 46.03157 42.89208
#
# Poissons Ratio (x) = 0.21099 0.24850
# Poissons Ratio (y) = 0.21099 0.24850
# Poissons Ratio (z) = 0.26669 0.26669
#
# Static dielectric constant tensor:
#      x y z
#    x 1.920390 0.000000 0.000000 
#    y 0.000000 1.920390 0.000000 
#    z 0.000000 0.000000 1.744600 
# 
# From -- ./inp_files/8324.got.cif
#   From: 2010.05.17/outbox.cif.g08.bks.cpg/sg178_5_cif.got.tgz:8324.got - 2010.05.20 11:30:59.
