data_PCOD9582108
_publ_section_title
;
Structure prediction by ZEFSAII (Michael W. Deem and Ramdas Pophale) SiO2 
 PCOD9582108
Probable space group: P 63/M
;
_chemical_formula_sum "Si O2"
_cell_formula_units_Z 68
_cell_length_a 12.868866
_cell_length_b 12.868866
_cell_length_c 25.825980
_cell_angle_alpha 90.000000
_cell_angle_beta 90.000000
_cell_angle_gamma 120.000000
_cell_volume 3703.974597
_symmetry_space_group_name_H-M "P 63/M"
_symmetry_group_IT_number 176
_symmetry_cell_setting 'hexagonal'
loop_
_space_group_symop_operation_xyz
x,y,z
x-y,x,1/2+z
-y,x-y,z
-x,-y,1/2+z
-x+y,-x,z
y,-x+y,1/2+z
-x,-y,-z
-x+y,-x,1/2-z
y,-x+y,-z
x,y,1/2-z
x-y,x,-z
-y,x-y,1/2-z
loop_
_atom_site_type_symbol
_atom_site_label
_atom_site_fract_x
_atom_site_fract_y
_atom_site_fract_z
Si Si1 0.025932 0.774976 0.944582
Si Si2 0.333334 0.666667 0.313336
Si Si3 0.000000 0.000000 0.686462
Si Si4 0.116706 0.704586 0.162044
Si Si5 0.766440 0.738163 0.942967
Si Si6 0.744882 0.769333 0.164964
Si Si7 0.933387 0.550419 0.250000
Si Si8 0.129805 0.718467 0.750000
O O1 0.994099 0.702826 0.891301
O O2 0.910343 0.793404 0.949063
O O3 0.150784 0.895798 0.934380
O O4 0.032225 0.719186 0.999340
O O5 0.333334 0.666668 0.250000
O O6 0.446627 0.789487 0.333957
O O7 0.986451 0.875772 0.665879
O O8 0.000000 0.000000 0.750000
O O9 0.072410 0.717596 0.104651
O O10 0.006054 0.625676 0.199737
O O11 0.187880 0.841320 0.183056
O O12 0.752660 0.675588 0.201360
O O13 0.923592 0.422427 0.250000
O O14 0.799834 0.528389 0.250000
#
# Coordination Sequence:
#
# PCOD9582108 Si02
#       8
#    12   4   4  12  12  12   6   6
#     4   9  16  29  51  82 119 152 189 227 282 343
#     4  12  24  42  63  81 108 150 198 247 287 340
#     4  12  21  30  51  91 137 157 180 232 302 355
#     4  11  23  38  60  85 113 148 195 238 288 338
#     4   9  17  30  53  84 118 154 188 232 280 341
#     4  11  21  34  55  85 119 156 187 232 291 351
#     4  12  24  40  58  80 111 148 190 234 282 350
#     4  12  24  38  56  78 111 150 192 234 288 344
#
# _framework density 18.358656
#
# number of rings (size 3 to 8) (size 9 to 14) (size 15 to 20)
#    0.000    1.412    1.765    6.353    0.000    1.412 
#    0.000    0.000    0.000   19.059    0.000    0.000 
#    0.000    0.000    0.000    0.000    0.000    0.000 
#
# Total GULP energy -379225.316583 kJ/mol
# GULP energy per Si atom -5576.842891 kJ/mol
# Density = 1.831687 g / cm^3
# Si number density = 18.358656 Si / 1000 Ang^3
#
#
#
# Elastic Constant Matrix: (Units=GPa)
#
#
# Indices 1 2 3 4 5 6 
#
# 1 60.7851 3.0089 24.1167 0.0000 0.0000 0.0000
# 2 3.0089 60.7864 24.1169 0.0000 0.0000 0.0001
# 3 24.1167 24.1169 117.8035 0.0000 0.0000 0.0000
# 4 0.0000 0.0000 0.0000 18.1825 0.0000 0.0000
# 5 0.0000 0.0000 0.0000 0.0000 18.1824 0.0000
# 6 0.0000 0.0001 0.0000 0.0000 0.0000 28.8886
#
#
#
# Elastic Compliance Matrix: (Units=1/GPa)
#
#
# Indices 1 2 3 4 5 6 
#
# 1 0.017927 0.000619 -0.003797 0.000000 0.000000 0.000000
# 2 0.000619 0.017927 -0.003797 0.000000 0.000000 0.000000
# 3 -0.003797 -0.003797 0.010043 0.000000 0.000000 0.000000
# 4 0.000000 0.000000 0.000000 0.054998 0.000000 0.000000
# 5 0.000000 0.000000 0.000000 0.000000 0.054998 0.000000
# 6 0.000000 0.000000 0.000000 0.000000 0.000000 0.034616
#
#
# Mechanical properties :
#
#
# Convention : Reuss Voigt Hill
#
# Bulk Modulus (GPa) = 31.30072 37.98444 34.64258
# Shear Modulus (GPa) = 23.24421 25.59287 24.41854
#
# Velocity S-wave (km/s) = 3.56211 3.73775 3.65099
# Velocity P-wave (km/s) = 5.83136 6.27398 6.05671
#
# Compressibility (1/GPa) = 0.03194815
#
# Stress axis : x y z
#
# Youngs Moduli (GPa) = 55.78138 55.78256 99.56939
#
# Poissons Ratio (x) = -0.03453 0.37804
# Poissons Ratio (y) = -0.03453 0.37804
# Poissons Ratio (z) = 0.21179 0.21179
#
# Static dielectric constant tensor:
#      x y z
#    x 1.613210 0.000000 0.000000 
#    y 0.000000 1.613210 0.000000 
#    z 0.000000 0.000000 1.705770 
# 
# From -- ./inp_files/4509.got.cif
#   From: 2010.05.17/outbox.cif.g08.bks.cpg/sg176_3_cif.got.tgz:4509.got - 2010.06.03 11:36:45.
