data_PCOD9582898
_publ_section_title
;
Structure prediction by ZEFSAII (Michael W. Deem and Ramdas Pophale) SiO2 
 PCOD9582898
Probable space group: P 61 2 2
;
_chemical_formula_sum "Si O2"
_cell_formula_units_Z 54
_cell_length_a 15.257096
_cell_length_b 15.257096
_cell_length_c 12.863288
_cell_angle_alpha 90.000000
_cell_angle_beta 90.000000
_cell_angle_gamma 120.000000
_cell_volume 2593.142498
_symmetry_space_group_name_H-M "P 61 2 2"
_symmetry_group_IT_number 178
_symmetry_cell_setting 'hexagonal'
loop_
_space_group_symop_operation_xyz
x,y,z
x-y,x,1/6+z
-y,x-y,1/3+z
-x,-y,1/2+z
-x+y,-x,2/3+z
y,-x+y,5/6+z
x-y,-y,-z
-x,-x+y,2/3-z
y,x,1/3-z
-y,-x,5/6-z
-x+y,y,1/2-z
x,x-y,1/6-z
loop_
_atom_site_type_symbol
_atom_site_label
_atom_site_fract_x
_atom_site_fract_y
_atom_site_fract_z
Si Si1 0.979749 0.671687 0.209732
Si Si2 0.110240 0.447283 0.343797
Si Si3 0.318888 0.842221 0.767837
Si Si4 0.082532 0.165063 0.750000
Si Si5 0.637371 0.184110 0.859712
O O1 0.958727 0.764866 0.199153
O O2 0.876486 0.572749 0.177027
O O3 0.000000 0.668767 0.333334
O O4 0.067380 0.670446 0.139661
O O5 0.135758 0.468742 0.223465
O O6 0.201797 0.447138 0.405220
O O7 0.110547 0.540734 0.402422
O O8 0.000000 0.349548 0.333334
O O9 0.407612 0.815223 0.750000
O O10 0.098093 0.098093 0.666667
O O11 0.711280 0.288721 0.916667
O O12 0.601484 0.202967 0.750000
#
# Coordination Sequence:
#
# PCOD9582898 Si02
#       5
#    12  12  12   6  12
#     4  11  23  43  72 101 137 181 238 293 360 428
#     4  11  25  42  64  97 140 183 229 291 365 426
#     4  11  24  43  69  98 139 184 233 293 354 439
#     4  10  24  46  72 104 136 180 236 300 362 434
#     4  12  26  40  66 100 138 186 243 291 354 431
#
# _framework density 20.824152999999999
#
# number of rings (size 3 to 8) (size 9 to 14) (size 15 to 20)
#    0.000    0.889    1.111    6.000    9.333    3.556 
#    0.000    3.333    0.000    0.000    0.000    0.000 
#    0.000    0.000    0.000    0.000    0.000    0.000 
#
# Total GULP energy -301455.415199 kJ/mol
# GULP energy per Si atom -5582.507689 kJ/mol
# Density = 2.077676 g / cm^3
# Si number density = 20.824153 Si / 1000 Ang^3
#
#
#
# Elastic Constant Matrix: (Units=GPa)
#
#
# Indices 1 2 3 4 5 6 
#
# 1 129.1927 61.0849 61.7955 0.0000 0.0000 0.0000
# 2 61.0849 129.1927 61.7955 0.0000 0.0000 0.0000
# 3 61.7955 61.7955 130.5048 0.0000 0.0000 0.0000
# 4 0.0000 0.0000 0.0000 30.2444 0.0000 0.0000
# 5 0.0000 0.0000 0.0000 0.0000 30.2444 0.0000
# 6 0.0000 0.0000 0.0000 0.0000 0.0000 34.0539
#
#
#
# Elastic Compliance Matrix: (Units=1/GPa)
#
#
# Indices 1 2 3 4 5 6 
#
# 1 0.011136 -0.003546 -0.003594 0.000000 0.000000 0.000000
# 2 -0.003546 0.011136 -0.003594 0.000000 0.000000 0.000000
# 3 -0.003594 -0.003594 0.011066 0.000000 0.000000 0.000000
# 4 0.000000 0.000000 0.000000 0.033064 0.000000 0.000000
# 5 0.000000 0.000000 0.000000 0.000000 0.033064 0.000000
# 6 0.000000 0.000000 0.000000 0.000000 0.000000 0.029365
#
#
# Mechanical properties :
#
#
# Convention : Reuss Voigt Hill
#
# Bulk Modulus (GPa) = 84.24465 84.24911 84.24688
# Shear Modulus (GPa) = 32.41353 32.52282 32.46818
#
# Velocity S-wave (km/s) = 3.94958 3.95623 3.95290
# Velocity P-wave (km/s) = 7.83211 7.83672 7.83442
#
# Compressibility (1/GPa) = 0.01187019
#
# Stress axis : x y z
#
# Youngs Moduli (GPa) = 89.79724 89.79724 90.36669
#
# Poissons Ratio (x) = 0.31846 0.32477
# Poissons Ratio (y) = 0.31846 0.32477
# Poissons Ratio (z) = 0.32272 0.32272
#
# Static dielectric constant tensor:
#      x y z
#    x 1.813710 0.000000 0.000000 
#    y 0.000000 1.813710 0.000000 
#    z 0.000000 0.000000 1.901900 
# 
# From -- ./inp_files/5574.got.cif
#   From: 2010.05.17/outbox.cif.g08.bks.cpg/sg178_3_cif.got.tgz:5574.got - 2010.05.20 11:30:59.
