data_PCOD9582275
_publ_section_title
;
Structure prediction by ZEFSAII (Michael W. Deem and Ramdas Pophale) SiO2 
 PCOD9582275
Probable space group: P 6 2 2
;
_chemical_formula_sum "Si O2"
_cell_formula_units_Z 46
_cell_length_a 14.338217
_cell_length_b 14.338217
_cell_length_c 13.337711
_cell_angle_alpha 90.000000
_cell_angle_beta 90.000000
_cell_angle_gamma 120.000000
_cell_volume 2374.664350
_symmetry_space_group_name_H-M "P 6 2 2"
_symmetry_group_IT_number 177
_symmetry_cell_setting 'hexagonal'
loop_
_space_group_symop_operation_xyz
x,y,z
x-y,x,z
-y,x-y,z
-x,-y,z
-x+y,-x,z
y,-x+y,z
x-y,-y,-z
-x,-x+y,-z
y,x,-z
-y,-x,-z
-x+y,y,-z
x,x-y,-z
loop_
_atom_site_type_symbol
_atom_site_label
_atom_site_fract_x
_atom_site_fract_y
_atom_site_fract_z
Si Si1 0.637409 0.483250 0.098610
Si Si2 0.937196 0.756615 0.206737
Si Si3 0.287359 0.287359 0.000000
Si Si4 0.680394 0.511168 0.761282
Si Si5 0.666668 0.333335 0.618732
O O1 0.542444 0.432046 0.180233
O O2 0.735827 0.487643 0.159103
O O3 0.590796 0.409205 0.000000
O O4 0.681064 0.603496 0.060182
O O5 0.848915 0.790728 0.232924
O O6 0.901233 0.638988 0.252170
O O7 0.940462 0.741535 0.086050
O O8 0.671722 0.440573 0.664675
O O9 0.666668 0.333334 0.500000
#
# Coordination Sequence:
#
# PCOD9582275 Si02
#       5
#    12  12   6  12   4
#     4  11  20  33  51  83 121 164 205 253 304 376
#     4  12  25  40  55  81 123 177 231 262 295 337
#     4  12  23  34  51  78 126 178 225 260 299 350
#     4  10  22  37  61  91 123 162 203 250 320 398
#     4   9  21  45  73 104 130 147 177 252 349 419
#
# _framework density 19.371158999999999
#
# number of rings (size 3 to 8) (size 9 to 14) (size 15 to 20)
#    0.000    1.043    5.217    2.739    0.000    0.000 
#    0.000    1.304    0.000    3.130    0.000    0.000 
#    0.000    2.087    0.000    0.000    0.000    0.000 
#
# Total GULP energy -256983.643676 kJ/mol
# GULP energy per Si atom -5586.600949 kJ/mol
# Density = 1.932707 g / cm^3
# Si number density = 19.371159 Si / 1000 Ang^3
#
#
#
# Elastic Constant Matrix: (Units=GPa)
#
#
# Indices 1 2 3 4 5 6 
#
# 1 104.7713 44.1767 20.2772 0.0000 0.0001 -0.0001
# 2 44.1767 104.7708 20.2770 0.0000 0.0000 -0.0001
# 3 20.2772 20.2770 98.0839 0.0002 0.0001 -0.0001
# 4 0.0000 0.0000 0.0002 7.7690 0.0000 0.0000
# 5 0.0001 0.0000 0.0001 0.0000 7.7690 0.0000
# 6 -0.0001 -0.0001 -0.0001 0.0000 0.0000 30.2973
#
#
#
# Elastic Compliance Matrix: (Units=1/GPa)
#
#
# Indices 1 2 3 4 5 6 
#
# 1 0.011809 -0.004694 -0.001471 0.000000 0.000000 0.000000
# 2 -0.004694 0.011809 -0.001471 0.000000 0.000000 0.000000
# 3 -0.001471 -0.001471 0.010803 0.000000 0.000000 0.000000
# 4 0.000000 0.000000 0.000000 0.128716 0.000000 0.000000
# 5 0.000000 0.000000 0.000000 0.000000 0.128716 0.000000
# 6 0.000000 0.000000 0.000000 0.000000 0.000000 0.033006
#
#
# Mechanical properties :
#
#
# Convention : Reuss Voigt Hill
#
# Bulk Modulus (GPa) = 52.22229 53.00977 52.61603
# Shear Modulus (GPa) = 14.42942 24.02674 19.22808
#
# Velocity S-wave (km/s) = 2.73223 3.52566 3.15400
# Velocity P-wave (km/s) = 6.08036 6.63313 6.36275
#
# Compressibility (1/GPa) = 0.01914891
#
# Stress axis : x y z
#
# Youngs Moduli (GPa) = 84.68355 84.68314 92.56302
#
# Poissons Ratio (x) = 0.39754 0.13614
# Poissons Ratio (y) = 0.39755 0.13613
# Poissons Ratio (z) = 0.12455 0.12455
#
# Static dielectric constant tensor:
#      x y z
#    x 1.765260 0.000000 0.000000 
#    y 0.000000 1.765260 0.000000 
#    z 0.000000 0.000000 1.612690 
# 
# From -- ./inp_files/1822.got.cif
#   From: 2010.05.17/outbox.cif.g08.bks.cpg/sg177_1_cif.got.tgz:1822.got - 2010.05.20 11:28:44.
