data_PCOD9582141
_publ_section_title
;
Structure prediction by ZEFSAII (Michael W. Deem and Ramdas Pophale) SiO2 
 PCOD9582141
Probable space group: P 63/M
;
_chemical_formula_sum "Si O2"
_cell_formula_units_Z 36
_cell_length_a 9.268370
_cell_length_b 9.268370
_cell_length_c 17.834222
_cell_angle_alpha 90.000000
_cell_angle_beta 90.000000
_cell_angle_gamma 120.000000
_cell_volume 1326.757422
_symmetry_space_group_name_H-M "P 63/M"
_symmetry_group_IT_number 176
_symmetry_cell_setting 'hexagonal'
loop_
_space_group_symop_operation_xyz
x,y,z
x-y,x,1/2+z
-y,x-y,z
-x,-y,1/2+z
-x+y,-x,z
y,-x+y,1/2+z
-x,-y,-z
-x+y,-x,1/2-z
y,-x+y,-z
x,y,1/2-z
x-y,x,-z
-y,x-y,1/2-z
loop_
_atom_site_type_symbol
_atom_site_label
_atom_site_fract_x
_atom_site_fract_y
_atom_site_fract_z
Si Si1 0.579676 0.985838 0.877786
Si Si2 0.878199 0.378080 0.750000
Si Si3 0.207986 0.044850 0.250000
Si Si4 0.374292 0.173042 0.507564
O O1 0.456499 0.011778 0.824513
O O2 0.707470 0.157050 0.921114
O O3 0.685472 0.934851 0.823643
O O4 0.515278 0.857181 0.946775
O O5 0.794605 0.501804 0.750000
O O6 0.134675 0.170716 0.250000
O O7 0.265328 0.246541 0.470078
#
# Coordination Sequence:
#
# PCOD9582141 Si02
#       4
#    12   6   6  12
#     4   9  16  26  41  65  83 116 140 168 203 265
#     4   9  20  36  46  46  78 118 168 189 218 216
#     4   9  16  18  34  66  98 126 128 131 192 282
#     4   8  15  22  43  68 104 112 119 150 215 278
#
# _framework density 27.133821999999999
#
# number of rings (size 3 to 8) (size 9 to 14) (size 15 to 20)
#    2.667    0.667    0.000    2.333    0.000    0.000 
#    0.000    1.667    0.000    0.000    0.000    0.000 
#    0.000    0.000    0.000   14.667    0.000    0.000 
#
# Total GULP energy -200866.561500 kJ/mol
# GULP energy per Si atom -5579.626708 kJ/mol
# Density = 2.707206 g / cm^3
# Si number density = 27.133822 Si / 1000 Ang^3
#
#
#
# Elastic Constant Matrix: (Units=GPa)
#
#
# Indices 1 2 3 4 5 6 
#
# 1 98.6578 14.6195 37.4212 0.0000 0.0000 0.0000
# 2 14.6195 98.6578 37.4212 0.0000 0.0000 0.0000
# 3 37.4212 37.4212 174.3006 0.0000 0.0000 0.0000
# 4 0.0000 0.0000 0.0000 38.9253 0.0000 0.0000
# 5 0.0000 0.0000 0.0000 0.0000 38.9253 0.0000
# 6 0.0000 0.0000 0.0000 0.0000 0.0000 42.0191
#
#
#
# Elastic Compliance Matrix: (Units=1/GPa)
#
#
# Indices 1 2 3 4 5 6 
#
# 1 0.011093 -0.000806 -0.002209 0.000000 0.000000 0.000000
# 2 -0.000806 0.011093 -0.002209 0.000000 0.000000 0.000000
# 3 -0.002209 -0.002209 0.006686 0.000000 0.000000 0.000000
# 4 0.000000 0.000000 0.000000 0.025690 0.000000 0.000000
# 5 0.000000 0.000000 0.000000 0.000000 0.025690 0.000000
# 6 0.000000 0.000000 0.000000 0.000000 0.000000 0.023799
#
#
# Mechanical properties :
#
#
# Convention : Reuss Voigt Hill
#
# Bulk Modulus (GPa) = 54.27276 61.17112 57.72194
# Shear Modulus (GPa) = 41.44578 42.78421 42.11500
#
# Velocity S-wave (km/s) = 3.91251 3.97518 3.94397
# Velocity P-wave (km/s) = 6.36047 6.60777 6.48530
#
# Compressibility (1/GPa) = 0.01842545
#
# Stress axis : x y z
#
# Youngs Moduli (GPa) = 90.14517 90.14517 149.57637
#
# Poissons Ratio (x) = 0.07267 0.33035
# Poissons Ratio (y) = 0.07267 0.33035
# Poissons Ratio (z) = 0.19909 0.19909
#
# Static dielectric constant tensor:
#      x y z
#    x 2.149730 0.000000 0.000000 
#    y 0.000000 2.149730 0.000000 
#    z 0.000000 0.000000 2.062190 
# 
# From -- ./inp_files/3601.got.cif
#   From: 2010.05.17/outbox.cif.g08.bks.cpg/sg176_2_cif.got.tgz:3601.got - 2010.06.03 11:36:45.
