data_PCOD9582917
_publ_section_title
;
Structure prediction by ZEFSAII (Michael W. Deem and Ramdas Pophale) SiO2 
 PCOD9582917
Probable space group: P 61 2 2
;
_chemical_formula_sum "Si O2"
_cell_formula_units_Z 42
_cell_length_a 8.255467
_cell_length_b 8.255467
_cell_length_c 26.758918
_cell_angle_alpha 90.000000
_cell_angle_beta 90.000000
_cell_angle_gamma 120.000000
_cell_volume 1579.364863
_symmetry_space_group_name_H-M "P 61 2 2"
_symmetry_group_IT_number 178
_symmetry_cell_setting 'hexagonal'
loop_
_space_group_symop_operation_xyz
x,y,z
x-y,x,1/6+z
-y,x-y,1/3+z
-x,-y,1/2+z
-x+y,-x,2/3+z
y,-x+y,5/6+z
x-y,-y,-z
-x,-x+y,2/3-z
y,x,1/3-z
-y,-x,5/6-z
-x+y,y,1/2-z
x,x-y,1/6-z
loop_
_atom_site_type_symbol
_atom_site_label
_atom_site_fract_x
_atom_site_fract_y
_atom_site_fract_z
Si Si1 0.441790 0.720895 0.583334
Si Si2 0.723394 0.127778 0.308589
Si Si3 0.279112 0.720889 0.416667
Si Si4 0.872212 0.595606 0.141923
Si Si5 0.000005 0.000005 0.666667
O O1 0.554960 0.737250 0.533730
O O2 0.301957 0.512102 0.604421
O O3 0.789851 0.301945 0.271087
O O4 0.500000 0.999994 0.301458
O O5 0.857190 0.042571 0.303226
O O6 0.262752 0.817702 0.367064
O O7 0.957421 0.814610 0.136560
#
# Coordination Sequence:
#
# PCOD9582917 Si02
#       5
#     6  12   6  12   6
#     4  10  25  49  74 102 168 212 248 341 423 464
#     4  11  26  50  76 117 162 208 274 343 409 491
#     4  10  25  49  74 102 168 212 248 341 423 464
#     4  11  26  50  76 117 162 208 274 343 409 491
#     4  12  28  48  84 124 152 208 296 334 402 524
#
# _framework density 26.592969
#
# number of rings (size 3 to 8) (size 9 to 14) (size 15 to 20)
#    0.000    1.143    0.000    4.286    8.000    3.429 
#    0.000    0.000    0.000    0.000    0.000    0.000 
#    0.000    0.000    0.000    0.000    0.000    0.000 
#
# Total GULP energy -235340.259442 kJ/mol
# GULP energy per Si atom -5603.339511 kJ/mol
# Density = 2.653244 g / cm^3
# Si number density = 26.592969 Si / 1000 Ang^3
#
#
#
# Elastic Constant Matrix: (Units=GPa)
#
#
# Indices 1 2 3 4 5 6 
#
# 1 172.0209 81.6658 53.8184 0.0000 0.0000 0.0000
# 2 81.6658 172.0209 53.8184 0.0000 0.0000 0.0000
# 3 53.8184 53.8184 235.0763 0.0000 0.0000 0.0000
# 4 0.0000 0.0000 0.0000 -0.1674 0.0000 0.0000
# 5 0.0000 0.0000 0.0000 0.0000 -0.1674 0.0000
# 6 0.0000 0.0000 0.0000 0.0000 0.0000 45.1775
#
#
#
# Elastic Compliance Matrix: (Units=1/GPa)
#
#
# Indices 1 2 3 4 5 6 
#
# 1 0.007717 -0.003351 -0.001000 0.000000 0.000000 0.000000
# 2 -0.003351 0.007717 -0.001000 0.000000 0.000000 0.000000
# 3 -0.001000 -0.001000 0.004712 0.000000 0.000000 0.000000
# 4 0.000000 0.000000 0.000000 -5.972406 -0.000001 0.000000
# 5 0.000000 0.000000 0.000000 -0.000001 -5.972405 0.000000
# 6 0.000000 0.000000 0.000000 0.000000 0.000000 0.022135
#
#
# Mechanical properties :
#
#
# Convention : Reuss Voigt Hill
#
# Bulk Modulus (GPa) = 105.87204 106.41369 106.14287
# Shear Modulus (GPa) = -0.42057 34.95624 17.26783
#
# Velocity S-wave (km/s) = -0.39811 3.62953 2.55098
# Velocity P-wave (km/s) = 6.29977 7.59389 6.97690
#
# Compressibility (1/GPa) = 0.00944536
#
# Stress axis : x y z
#
# Youngs Moduli (GPa) = 129.58896 129.58896 212.24173
#
# Poissons Ratio (x) = 0.43422 0.21214
# Poissons Ratio (y) = 0.43422 0.21214
# Poissons Ratio (z) = 0.12953 0.12953
#
# Static dielectric constant tensor:
#      x y z
#    x 2.106560 0.000000 0.000000 
#    y 0.000000 2.106560 0.000000 
#    z 0.000000 0.000000 1.989260 
# 
# From -- ./inp_files/9348.got.cif
#   From: 2010.05.17/outbox.cif.g08.bks.cpg/sg178_5_cif.got.tgz:9348.got - 2010.05.20 11:30:59.
