data_PCOD9582455
_publ_section_title
;
Structure prediction by ZEFSAII (Michael W. Deem and Ramdas Pophale) SiO2 
 PCOD9582455
Probable space group: P 61 2 2
;
_chemical_formula_sum "Si O2"
_cell_formula_units_Z 30
_cell_length_a 14.435874
_cell_length_b 14.435874
_cell_length_c 10.032969
_cell_angle_alpha 90.000000
_cell_angle_beta 90.000000
_cell_angle_gamma 120.000000
_cell_volume 1810.699024
_symmetry_space_group_name_H-M "P 61 2 2"
_symmetry_group_IT_number 178
_symmetry_cell_setting 'hexagonal'
loop_
_space_group_symop_operation_xyz
x,y,z
x-y,x,1/6+z
-y,x-y,1/3+z
-x,-y,1/2+z
-x+y,-x,2/3+z
y,-x+y,5/6+z
x-y,-y,-z
-x,-x+y,2/3-z
y,x,1/3-z
-y,-x,5/6-z
-x+y,y,1/2-z
x,x-y,1/6-z
loop_
_atom_site_type_symbol
_atom_site_label
_atom_site_fract_x
_atom_site_fract_y
_atom_site_fract_z
Si Si1 0.273972 0.547944 0.250000
Si Si2 0.273682 0.486430 0.546488
Si Si3 0.547354 0.452647 0.416667
Si Si4 0.588823 0.000000 0.000000
O O1 0.270824 0.486329 0.384767
O O2 0.228893 0.629403 0.269215
O O3 0.168557 0.492815 0.578885
O O4 0.300596 0.402805 0.616080
O O5 0.532232 0.508008 0.288806
#
# Coordination Sequence:
#
# PCOD9582455 Si02
#       4
#     6  12   6   6
#     4   9  16  32  50  64  92 138 170 224 266 299
#     4  10  19  33  50  71 102 136 182 229 268 324
#     4  11  22  36  50  76 106 142 182 240 262 333
#     4  12  22  32  52  76  96 146 194 212 280 330
#
# _framework density 16.568186000000001
#
# number of rings (size 3 to 8) (size 9 to 14) (size 15 to 20)
#    0.000    1.600    4.000    3.600    0.000    0.000 
#    0.000    0.000    0.000    0.000    0.000    0.000 
#    0.000    0.000    0.000   57.600    0.000    0.000 
#
# Total GULP energy -167014.708788 kJ/mol
# GULP energy per Si atom -5567.156960 kJ/mol
# Density = 1.653048 g / cm^3
# Si number density = 16.568186 Si / 1000 Ang^3
#
#
#
# Elastic Constant Matrix: (Units=GPa)
#
#
# Indices 1 2 3 4 5 6 
#
# 1 46.8049 19.8873 21.5203 0.0000 0.0000 0.0000
# 2 19.8873 46.8049 21.5203 0.0000 0.0000 0.0000
# 3 21.5203 21.5203 127.2915 0.0000 0.0000 0.0000
# 4 0.0000 0.0000 0.0000 26.2599 0.0000 0.0000
# 5 0.0000 0.0000 0.0000 0.0000 26.2599 0.0000
# 6 0.0000 0.0000 0.0000 0.0000 0.0000 13.4588
#
#
#
# Elastic Compliance Matrix: (Units=1/GPa)
#
#
# Indices 1 2 3 4 5 6 
#
# 1 0.026991 -0.010160 -0.002845 0.000000 0.000000 0.000000
# 2 -0.010160 0.026991 -0.002845 0.000000 0.000000 0.000000
# 3 -0.002845 -0.002845 0.008818 0.000000 0.000000 0.000000
# 4 0.000000 0.000000 0.000000 0.038081 0.000000 0.000000
# 5 0.000000 0.000000 0.000000 0.000000 0.038081 0.000000
# 6 0.000000 0.000000 0.000000 0.000000 0.000000 0.074301
#
#
# Mechanical properties :
#
#
# Convention : Reuss Voigt Hill
#
# Bulk Modulus (GPa) = 32.15687 38.52857 35.34272
# Shear Modulus (GPa) = 19.58255 23.72725 21.65490
#
# Velocity S-wave (km/s) = 3.44166 3.78841 3.61919
# Velocity P-wave (km/s) = 5.93669 6.51468 6.23239
#
# Compressibility (1/GPa) = 0.03109755
#
# Stress axis : x y z
#
# Youngs Moduli (GPa) = 37.05004 37.05004 113.40312
#
# Poissons Ratio (x) = 0.37643 0.32268
# Poissons Ratio (y) = 0.37643 0.32268
# Poissons Ratio (z) = 0.10542 0.10542
#
# Static dielectric constant tensor:
#      x y z
#    x 1.605700 0.000000 0.000000 
#    y 0.000000 1.605700 0.000000 
#    z 0.000000 0.000000 1.643340 
# 
# From -- ./inp_files/2093.got.cif
#   From: 2010.05.17/outbox.cif.g08.bks.cpg/sg178_2_cif.got.tgz:2093.got - 2010.05.20 11:30:59.
