data_PCOD9582846
_publ_section_title
;
Structure prediction by ZEFSAII (Michael W. Deem and Ramdas Pophale) SiO2 
 PCOD9582846
Probable space group: P 61 2 2
;
_chemical_formula_sum "Si O2"
_cell_formula_units_Z 60
_cell_length_a 15.587788
_cell_length_b 15.587788
_cell_length_c 13.446967
_cell_angle_alpha 90.000000
_cell_angle_beta 90.000000
_cell_angle_gamma 120.000000
_cell_volume 2829.592867
_symmetry_space_group_name_H-M "P 61 2 2"
_symmetry_group_IT_number 178
_symmetry_cell_setting 'hexagonal'
loop_
_space_group_symop_operation_xyz
x,y,z
x-y,x,1/6+z
-y,x-y,1/3+z
-x,-y,1/2+z
-x+y,-x,2/3+z
y,-x+y,5/6+z
x-y,-y,-z
-x,-x+y,2/3-z
y,x,1/3-z
-y,-x,5/6-z
-x+y,y,1/2-z
x,x-y,1/6-z
loop_
_atom_site_type_symbol
_atom_site_label
_atom_site_fract_x
_atom_site_fract_y
_atom_site_fract_z
Si Si1 0.576918 0.000000 0.000000
Si Si2 0.475369 0.423695 0.019316
Si Si3 0.855955 0.855955 0.666667
Si Si4 0.152232 0.796985 0.301876
Si Si5 0.351742 0.101615 0.894337
Si Si6 0.130619 0.000000 0.500000
Si Si7 0.527487 0.763744 0.583334
O O1 0.499910 0.976822 0.086887
O O2 0.680047 0.084625 0.041476
O O3 0.356661 0.359334 0.039429
O O4 0.518804 0.352756 0.054451
O O5 0.528582 0.471419 0.916667
O O6 0.937600 0.875200 0.750000
O O7 0.826099 0.758762 0.599064
O O8 0.187138 0.812863 0.416667
O O9 0.226696 0.842666 0.211338
O O10 0.083718 0.847120 0.292693
O O11 0.415093 0.177068 0.982880
O O12 0.099940 0.049970 0.583334
#
# Coordination Sequence:
#
# PCOD9582846 Si02
#       7
#     6  12   6  12  12   6   6
#     4  11  21  44  65  99 130 178 240 281 367 446
#     4  12  24  42  74 105 141 185 245 309 368 456
#     4  12  25  44  69 104 144 198 248 300 362 430
#     4  10  23  41  68  97 133 181 232 291 363 436
#     4  12  22  46  72 101 142 189 249 300 364 453
#     4   9  20  40  60  87 126 170 216 269 329 398
#     4  12  22  44  72 104 140 192 242 304 372 452
#
# _framework density 21.204464999999999
#
# number of rings (size 3 to 8) (size 9 to 14) (size 15 to 20)
#    0.000    0.800    5.000    2.400    0.000    8.000 
#    0.000    8.000    4.400    0.000    0.000    0.000 
#    0.000    0.000    0.000    0.000    0.000    0.000 
#
# Total GULP energy -334145.520375 kJ/mol
# GULP energy per Si atom -5569.092006 kJ/mol
# Density = 2.115620 g / cm^3
# Si number density = 21.204465 Si / 1000 Ang^3
#
#
#
# Elastic Constant Matrix: (Units=GPa)
#
#
# Indices 1 2 3 4 5 6 
#
# 1 37.1118 55.0691 38.3004 0.0000 0.0000 0.0000
# 2 55.0691 37.1118 38.3004 0.0000 0.0000 0.0000
# 3 38.3004 38.3004 149.4262 0.0000 0.0000 0.0000
# 4 0.0000 0.0000 0.0000 26.2904 0.0000 0.0000
# 5 0.0000 0.0000 0.0000 0.0000 26.2904 0.0000
# 6 0.0000 0.0000 0.0000 0.0000 0.0000 -8.9787
#
#
#
# Elastic Compliance Matrix: (Units=1/GPa)
#
#
# Indices 1 2 3 4 5 6 
#
# 1 -0.020952 0.034736 -0.003533 0.000000 0.000000 0.000000
# 2 0.034736 -0.020952 -0.003533 0.000000 0.000000 0.000000
# 3 -0.003533 -0.003533 0.008503 0.000000 0.000000 0.000000
# 4 0.000000 0.000000 0.000000 0.038037 0.000000 0.000000
# 5 0.000000 0.000000 0.000000 0.000000 0.038037 0.000000
# 6 0.000000 0.000000 0.000000 0.000000 0.000000 -0.111375
#
#
# Mechanical properties :
#
#
# Convention : Reuss Voigt Hill
#
# Bulk Modulus (GPa) = 45.58015 54.10995 49.84505
# Shear Modulus (GPa) = -42.83461 14.85243 -13.99109
#
# Velocity S-wave (km/s) = -4.49940 2.64945 -2.57148
# Velocity P-wave (km/s) = 2.33465 5.91042 3.83943
#
# Compressibility (1/GPa) = 0.02193937
#
# Stress axis : x y z
#
# Youngs Moduli (GPa) = -47.72880 -47.72880 117.59924
#
# Poissons Ratio (x) = 1.65790 0.41549
# Poissons Ratio (y) = 1.65790 0.41549
# Poissons Ratio (z) = -0.16863 -0.16863
#
# Static dielectric constant tensor:
#      x y z
#    x 1.789490 0.000000 0.000000 
#    y 0.000000 1.789490 0.000000 
#    z 0.000000 0.000000 1.649540 
# 
# From -- ./inp_files/5795.got.cif
#   From: 2010.05.17/outbox.cif.g08.bks.cpg/sg178_3_cif.got.tgz:5795.got - 2010.05.20 11:30:59.
