data_PCOD9582184
_publ_section_title
;
Structure prediction by ZEFSAII (Michael W. Deem and Ramdas Pophale) SiO2 
 PCOD9582184
Probable space group: P 6 2 2
;
_chemical_formula_sum "Si O2"
_cell_formula_units_Z 84
_cell_length_a 14.178338
_cell_length_b 14.178338
_cell_length_c 26.038319
_cell_angle_alpha 90.000000
_cell_angle_beta 90.000000
_cell_angle_gamma 120.000000
_cell_volume 4533.088790
_symmetry_space_group_name_H-M "P 6 2 2"
_symmetry_group_IT_number 177
_symmetry_cell_setting 'hexagonal'
loop_
_space_group_symop_operation_xyz
x,y,z
x-y,x,z
-y,x-y,z
-x,-y,z
-x+y,-x,z
y,-x+y,z
x-y,-y,-z
-x,-x+y,-z
y,x,-z
-y,-x,-z
-x+y,y,-z
x,x-y,-z
loop_
_atom_site_type_symbol
_atom_site_label
_atom_site_fract_x
_atom_site_fract_y
_atom_site_fract_z
Si Si1 0.744587 0.918876 0.649836
Si Si2 0.244406 0.831036 0.254098
Si Si3 0.984887 0.767344 0.054464
Si Si4 0.453047 0.872876 0.395903
Si Si5 0.753769 0.951935 0.834198
Si Si6 0.776150 0.189491 0.440961
Si Si7 0.873513 0.407748 0.278927
O O1 0.793345 0.837717 0.655847
O O2 0.650482 0.885257 0.692744
O O3 0.685362 0.894982 0.594637
O O4 0.246620 0.908793 0.209192
O O5 0.350561 0.818801 0.250938
O O6 0.147168 0.705697 0.255827
O O7 0.883379 0.788256 0.054527
O O8 0.964115 0.709615 0.109740
O O9 0.000000 0.720835 0.000000
O O10 0.544661 0.854927 0.420812
O O11 0.343539 0.826291 0.429393
O O12 0.439973 0.830420 0.337634
O O13 0.500000 0.000000 0.391934
O O14 0.790752 0.860935 0.829403
O O15 0.807161 0.192840 0.500000
O O16 0.000000 0.500000 0.279145
#
# Coordination Sequence:
#
# PCOD9582184 Si02
#       7
#    12  12  12  12  12  12  12
#     4  12  25  42  61  82 111 149 190 228 274 345
#     4  12  23  38  59  82 111 144 186 237 289 346
#     4   8  13  22  39  67 108 154 194 228 262 305
#     4  11  22  40  61  81 105 135 174 226 288 347
#     4  10  19  31  50  80 120 161 194 228 271 325
#     4  12  25  40  62  88 112 138 177 232 293 356
#     4  11  21  37  59  80 103 137 180 225 283 348
#
# _framework density 18.53041
#
# number of rings (size 3 to 8) (size 9 to 14) (size 15 to 20)
#    0.000    1.143    2.857    4.857    0.000    4.571 
#    0.000    1.429    0.000    0.857    0.000    0.000 
#    0.000   39.429    0.000    0.000    0.000    0.000 
#
# Total GULP energy -468299.816176 kJ/mol
# GULP energy per Si atom -5574.997812 kJ/mol
# Density = 1.848823 g / cm^3
# Si number density = 18.530410 Si / 1000 Ang^3
#
#
#
# Elastic Constant Matrix: (Units=GPa)
#
#
# Indices 1 2 3 4 5 6 
#
# 1 62.5538 4.6619 24.3650 0.0000 0.0000 0.0000
# 2 4.6619 62.5538 24.3650 0.0000 0.0000 0.0000
# 3 24.3650 24.3650 137.6275 0.0000 0.0000 0.0000
# 4 0.0000 0.0000 0.0000 23.4467 0.0000 0.0000
# 5 0.0000 0.0000 0.0000 0.0000 23.4467 0.0000
# 6 0.0000 0.0000 0.0000 0.0000 0.0000 28.9459
#
#
#
# Elastic Compliance Matrix: (Units=1/GPa)
#
#
# Indices 1 2 3 4 5 6 
#
# 1 0.017171 -0.000103 -0.003022 0.000000 0.000000 0.000000
# 2 -0.000103 0.017171 -0.003022 0.000000 0.000000 0.000000
# 3 -0.003022 -0.003022 0.008336 0.000000 0.000000 0.000000
# 4 0.000000 0.000000 0.000000 0.042650 0.000000 0.000000
# 5 0.000000 0.000000 0.000000 0.000000 0.042650 0.000000
# 6 0.000000 0.000000 0.000000 0.000000 0.000000 0.034547
#
#
# Mechanical properties :
#
#
# Convention : Reuss Voigt Hill
#
# Bulk Modulus (GPa) = 32.91048 41.05766 36.98407
# Shear Modulus (GPa) = 27.03501 29.12406 28.07954
#
# Velocity S-wave (km/s) = 3.82377 3.96876 3.89694
# Velocity P-wave (km/s) = 6.10686 6.57316 6.34429
#
# Compressibility (1/GPa) = 0.03038545
#
# Stress axis : x y z
#
# Youngs Moduli (GPa) = 58.23822 58.23822 119.96340
#
# Poissons Ratio (x) = 0.00598 0.36249
# Poissons Ratio (y) = 0.00598 0.36249
# Poissons Ratio (z) = 0.17598 0.17598
#
# Static dielectric constant tensor:
#      x y z
#    x 1.560050 0.000000 0.000000 
#    y 0.000000 1.560050 0.000000 
#    z 0.000000 0.000000 1.725320 
# 
# From -- ./inp_files/3191.got.cif
#   From: 2010.05.17/outbox.cif.g08.bks.cpg/sg177_2_cif.got.tgz:3191.got - 2010.05.20 11:28:44.
