data_PCOD9582070
_publ_section_title
;
Structure prediction by ZEFSAII (Michael W. Deem and Ramdas Pophale) SiO2 
 PCOD9582070
Probable space group: P 63/M
;
_chemical_formula_sum "Si O2"
_cell_formula_units_Z 52
_cell_length_a 13.986294
_cell_length_b 13.986294
_cell_length_c 13.202942
_cell_angle_alpha 90.000000
_cell_angle_beta 90.000000
_cell_angle_gamma 120.000000
_cell_volume 2236.694415
_symmetry_space_group_name_H-M "P 63/M"
_symmetry_group_IT_number 176
_symmetry_cell_setting 'hexagonal'
loop_
_space_group_symop_operation_xyz
x,y,z
x-y,x,1/2+z
-y,x-y,z
-x,-y,1/2+z
-x+y,-x,z
y,-x+y,1/2+z
-x,-y,-z
-x+y,-x,1/2-z
y,-x+y,-z
x,y,1/2-z
x-y,x,-z
-y,x-y,1/2-z
loop_
_atom_site_type_symbol
_atom_site_label
_atom_site_fract_x
_atom_site_fract_y
_atom_site_fract_z
Si Si1 0.200605 0.978639 0.358658
Si Si2 0.692213 0.961208 0.081687
Si Si3 0.878110 0.395942 0.017327
Si Si4 0.467963 0.270500 0.363934
Si Si5 0.000000 0.000000 0.381307
O O1 0.260101 0.999750 0.250000
O O2 0.263338 0.011293 0.465485
O O3 0.111518 0.848769 0.368059
O O4 0.123306 0.033334 0.353176
O O5 0.558878 0.880918 0.075280
O O6 0.728311 0.081345 0.127873
O O7 0.808427 0.455200 0.046726
O O8 0.842047 0.309054 0.110500
O O9 0.000000 0.500000 0.000000
O O10 0.510141 0.306945 0.250000
O O11 0.000000 0.000000 0.500000
#
# Coordination Sequence:
#
# PCOD9582070 Si02
#       5
#    12  12  12  12   4
#     4  12  23  38  62  89 129 178 218 267 333 407
#     4  11  22  42  60  95 135 170 222 282 342 410
#     4  10  23  41  67  99 137 174 218 294 356 410
#     4  11  22  40  68  99 130 171 226 281 341 415
#     4  12  22  38  55  88 134 175 220 269 328 394
#
# _framework density 23.248593
#
# number of rings (size 3 to 8) (size 9 to 14) (size 15 to 20)
#    0.000    0.923    4.615    2.538    0.000    1.846 
#    0.000    0.000    0.000    0.000    0.000    0.000 
#    0.000    0.000    0.000    0.000    0.000    0.000 
#
# Total GULP energy -289559.949302 kJ/mol
# GULP energy per Si atom -5568.460564 kJ/mol
# Density = 2.319568 g / cm^3
# Si number density = 23.248593 Si / 1000 Ang^3
#
#
#
# Elastic Constant Matrix: (Units=GPa)
#
#
# Indices 1 2 3 4 5 6 
#
# 1 77.4176 30.6390 22.6815 0.0000 0.0000 0.0000
# 2 30.6390 77.4176 22.6815 0.0000 0.0000 0.0000
# 3 22.6815 22.6815 122.6130 0.0000 0.0000 0.0000
# 4 0.0000 0.0000 0.0000 -11.3806 0.0000 0.0000
# 5 0.0000 0.0000 0.0000 0.0000 -11.3806 0.0000
# 6 0.0000 0.0000 0.0000 0.0000 0.0000 23.3893
#
#
#
# Elastic Compliance Matrix: (Units=1/GPa)
#
#
# Indices 1 2 3 4 5 6 
#
# 1 0.015705 -0.005672 -0.001856 0.000000 0.000000 0.000000
# 2 -0.005672 0.015705 -0.001856 0.000000 0.000000 0.000000
# 3 -0.001856 -0.001856 0.008842 0.000000 0.000000 0.000000
# 4 0.000000 0.000000 0.000000 -0.087869 0.000000 0.000000
# 5 0.000000 0.000000 0.000000 0.000000 -0.087869 0.000000
# 6 0.000000 0.000000 0.000000 0.000000 0.000000 0.042755
#
#
# Mechanical properties :
#
#
# Convention : Reuss Voigt Hill
#
# Bulk Modulus (GPa) = 46.54327 47.71691 47.13009
# Shear Modulus (GPa) = -74.84933 13.55540 -30.64697
#
# Velocity S-wave (km/s) = -5.68024 2.41729 -3.63468
# Velocity P-wave (km/s) = 4.79133 5.32543 1.64369
#
# Compressibility (1/GPa) = 0.02148538
#
# Stress axis : x y z
#
# Youngs Moduli (GPa) = 63.67222 63.67222 113.09112
#
# Poissons Ratio (x) = 0.36114 0.20990
# Poissons Ratio (y) = 0.36114 0.20990
# Poissons Ratio (z) = 0.11818 0.11818
#
# Static dielectric constant tensor:
#      x y z
#    x 1.973330 0.000000 0.000000 
#    y 0.000000 1.973330 0.000000 
#    z 0.000000 0.000000 1.873140 
# 
# From -- ./inp_files/2561.got.cif
#   From: 2010.05.17/outbox.cif.g08.bks.cpg/sg176_2_cif.got.tgz:2561.got - 2010.06.03 11:36:45.
