data_PCOD9582372
_publ_section_title
;
Structure prediction by ZEFSAII (Michael W. Deem and Ramdas Pophale) SiO2 
 PCOD9582372
Probable space group: P 61 2 2
;
_chemical_formula_sum "Si O2"
_cell_formula_units_Z 54
_cell_length_a 22.006466
_cell_length_b 22.006466
_cell_length_c 5.651590
_cell_angle_alpha 90.000000
_cell_angle_beta 90.000000
_cell_angle_gamma 120.000000
_cell_volume 2370.292215
_symmetry_space_group_name_H-M "P 61 2 2"
_symmetry_group_IT_number 178
_symmetry_cell_setting 'hexagonal'
loop_
_space_group_symop_operation_xyz
x,y,z
x-y,x,1/6+z
-y,x-y,1/3+z
-x,-y,1/2+z
-x+y,-x,2/3+z
y,-x+y,5/6+z
x-y,-y,-z
-x,-x+y,2/3-z
y,x,1/3-z
-y,-x,5/6-z
-x+y,y,1/2-z
x,x-y,1/6-z
loop_
_atom_site_type_symbol
_atom_site_label
_atom_site_fract_x
_atom_site_fract_y
_atom_site_fract_z
Si Si1 0.687589 0.195121 0.017620
Si Si2 0.791035 0.582070 0.750000
Si Si3 0.403831 0.403831 0.166667
Si Si4 0.551337 0.448664 0.916667
Si Si5 0.362771 0.270021 0.425882
Si Si6 0.246990 0.123495 0.583334
Si Si7 0.838041 0.919021 0.583334
O O1 0.725715 0.197571 0.260201
O O2 0.605553 0.153188 0.053392
O O3 0.726377 0.273623 0.916667
O O4 0.711162 0.149361 0.863001
O O5 0.766725 0.634420 0.648619
O O6 0.420626 0.476392 0.291307
O O7 0.371050 0.344351 0.368982
O O8 0.298147 0.208257 0.562215
O O9 0.205448 0.093339 0.332714
O O10 0.884946 0.884946 0.666667
#
# Coordination Sequence:
#
# PCOD9582372 Si02
#       7
#    12   6   6   6  12   6   6
#     4  10  22  42  72  94 136 204 255 314 400 460
#     4  10  17  44  66  94 128 210 244 302 396 457
#     4  12  26  42  72 112 156 204 244 346 418 480
#     4  12  24  44  68 109 151 188 274 320 404 504
#     4  11  23  43  72 103 156 200 250 317 408 472
#     4  12  26  49  86 125 159 208 286 326 382 517
#     4  12  31  59  86 126 166 216 258 332 392 470
#
# _framework density 22.782001000000001
#
# number of rings (size 3 to 8) (size 9 to 14) (size 15 to 20)
#    0.000    0.889    5.556    2.667    1.556    0.889 
#    8.000    0.000    2.444    1.333    0.000    0.000 
#    0.000    0.000    0.000    0.000    0.000    0.000 
#
# Total GULP energy -301131.056737 kJ/mol
# GULP energy per Si atom -5576.501051 kJ/mol
# Density = 2.273015 g / cm^3
# Si number density = 22.782001 Si / 1000 Ang^3
#
#
#
# Elastic Constant Matrix: (Units=GPa)
#
#
# Indices 1 2 3 4 5 6 
#
# 1 215.1234 15.0391 52.0007 0.0000 0.0000 0.0000
# 2 15.0391 215.1234 52.0007 0.0000 0.0000 0.0000
# 3 52.0007 52.0007 83.7455 0.0000 0.0000 0.0000
# 4 0.0000 0.0000 0.0000 21.4359 0.0000 0.0000
# 5 0.0000 0.0000 0.0000 0.0000 21.4359 0.0000
# 6 0.0000 0.0000 0.0000 0.0000 0.0000 100.0421
#
#
#
# Elastic Compliance Matrix: (Units=1/GPa)
#
#
# Indices 1 2 3 4 5 6 
#
# 1 0.005519 0.000521 -0.003750 0.000000 0.000000 0.000000
# 2 0.000521 0.005519 -0.003750 0.000000 0.000000 0.000000
# 3 -0.003750 -0.003750 0.016598 0.000000 0.000000 0.000000
# 4 0.000000 0.000000 0.000000 0.046651 0.000000 0.000000
# 5 0.000000 0.000000 0.000000 0.000000 0.046651 0.000000
# 6 0.000000 0.000000 0.000000 0.000000 0.000000 0.009996
#
#
# Mechanical properties :
#
#
# Convention : Reuss Voigt Hill
#
# Bulk Modulus (GPa) = 73.11823 83.56368 78.34096
# Shear Modulus (GPa) = 33.45604 54.91289 44.18446
#
# Velocity S-wave (km/s) = 3.83630 4.91487 4.40869
# Velocity P-wave (km/s) = 7.19634 8.30465 7.77028
#
# Compressibility (1/GPa) = 0.01367648
#
# Stress axis : x y z
#
# Youngs Moduli (GPa) = 181.20667 181.20667 60.24839
#
# Poissons Ratio (x) = -0.09435 0.22593
# Poissons Ratio (y) = -0.09435 0.22593
# Poissons Ratio (z) = 0.67952 0.67952
#
# Static dielectric constant tensor:
#      x y z
#    x 1.901780 0.000000 0.000000 
#    y 0.000000 1.901780 0.000000 
#    z 0.000000 0.000000 2.011100 
# 
# From -- ./inp_files/1276.got.cif
#   From: 2010.05.17/outbox.cif.g08.bks.cpg/sg178_1_cif.got.tgz:1276.got - 2010.05.20 11:30:59.
