data_PCOD9582433
_publ_section_title
;
Structure prediction by ZEFSAII (Michael W. Deem and Ramdas Pophale) SiO2 
 PCOD9582433
Probable space group: P 61 2 2
;
_chemical_formula_sum "Si O2"
_cell_formula_units_Z 42
_cell_length_a 17.265400
_cell_length_b 17.265400
_cell_length_c 8.321584
_cell_angle_alpha 90.000000
_cell_angle_beta 90.000000
_cell_angle_gamma 120.000000
_cell_volume 2148.275235
_symmetry_space_group_name_H-M "P 61 2 2"
_symmetry_group_IT_number 178
_symmetry_cell_setting 'hexagonal'
loop_
_space_group_symop_operation_xyz
x,y,z
x-y,x,1/6+z
-y,x-y,1/3+z
-x,-y,1/2+z
-x+y,-x,2/3+z
y,-x+y,5/6+z
x-y,-y,-z
-x,-x+y,2/3-z
y,x,1/3-z
-y,-x,5/6-z
-x+y,y,1/2-z
x,x-y,1/6-z
loop_
_atom_site_type_symbol
_atom_site_label
_atom_site_fract_x
_atom_site_fract_y
_atom_site_fract_z
Si Si1 0.609277 0.390724 0.916667
Si Si2 0.827830 0.903786 0.303551
Si Si3 0.357190 0.535741 0.069458
Si Si4 0.896895 0.667728 0.889928
O O1 0.599046 0.431984 0.748009
O O2 0.567205 0.284245 0.892979
O O3 0.868580 0.878295 0.451490
O O4 0.854028 0.854028 0.166667
O O5 0.725398 0.877034 0.314573
O O6 0.306112 0.429055 0.057544
O O7 0.421030 0.578971 0.916667
O O8 0.826810 0.653620 0.750000
O O9 0.000000 0.725645 0.833334
#
# Coordination Sequence:
#
# PCOD9582433 Si02
#       4
#     6  12  12  12
#     4  10  18  38  70  98 118 162 222 274 330 412
#     4  10  22  39  61  93 129 175 227 272 325 403
#     4  11  21  42  68  99 126 171 223 276 341 406
#     4  12  24  42  66  93 137 179 220 280 351 404
#
# _framework density 19.550567000000001
#
# number of rings (size 3 to 8) (size 9 to 14) (size 15 to 20)
#    0.000    1.143    8.571    0.000    0.000    5.714 
#   12.857    0.000    0.000    0.000    0.000    0.000 
#    0.000    0.000    0.000    0.000    0.000    0.000 
#
# Total GULP energy -234076.459641 kJ/mol
# GULP energy per Si atom -5573.249039 kJ/mol
# Density = 1.950607 g / cm^3
# Si number density = 19.550567 Si / 1000 Ang^3
#
#
#
# Elastic Constant Matrix: (Units=GPa)
#
#
# Indices 1 2 3 4 5 6 
#
# 1 112.3265 56.2445 61.4948 0.0000 0.0000 0.0000
# 2 56.2445 112.3265 61.4948 0.0000 0.0000 0.0000
# 3 61.4948 61.4948 130.4252 0.0000 0.0000 0.0000
# 4 0.0000 0.0000 0.0000 25.0792 0.0000 0.0000
# 5 0.0000 0.0000 0.0000 0.0000 25.0792 0.0000
# 6 0.0000 0.0000 0.0000 0.0000 0.0000 28.0410
#
#
#
# Elastic Compliance Matrix: (Units=1/GPa)
#
#
# Indices 1 2 3 4 5 6 
#
# 1 0.013437 -0.004394 -0.004264 0.000000 0.000000 0.000000
# 2 -0.004394 0.013437 -0.004264 0.000000 0.000000 0.000000
# 3 -0.004264 -0.004264 0.011688 0.000000 0.000000 0.000000
# 4 0.000000 0.000000 0.000000 0.039874 0.000000 0.000000
# 5 0.000000 0.000000 0.000000 0.000000 0.039874 0.000000
# 6 0.000000 0.000000 0.000000 0.000000 0.000000 0.035662
#
#
# Mechanical properties :
#
#
# Convention : Reuss Voigt Hill
#
# Bulk Modulus (GPa) = 78.62252 79.28295 78.95274
# Shear Modulus (GPa) = 27.16592 27.36281 27.26437
#
# Velocity S-wave (km/s) = 3.73167 3.74517 3.73843
# Velocity P-wave (km/s) = 7.67264 7.70341 7.68804
#
# Compressibility (1/GPa) = 0.01271900
#
# Stress axis : x y z
#
# Youngs Moduli (GPa) = 74.42108 74.42108 85.55849
#
# Poissons Ratio (x) = 0.32701 0.36480
# Poissons Ratio (y) = 0.32701 0.36480
# Poissons Ratio (z) = 0.31731 0.31731
#
# Static dielectric constant tensor:
#      x y z
#    x 1.674750 0.000000 0.000000 
#    y 0.000000 1.674750 0.000000 
#    z 0.000000 0.000000 1.788310 
# 
# From -- ./inp_files/2398.got.cif
#   From: 2010.05.17/outbox.cif.g08.bks.cpg/sg178_2_cif.got.tgz:2398.got - 2010.05.20 11:30:59.
