data_PCOD9582371
_publ_section_title
;
Structure prediction by ZEFSAII (Michael W. Deem and Ramdas Pophale) SiO2 
 PCOD9582371
Probable space group: P 61 2 2
;
_chemical_formula_sum "Si O2"
_cell_formula_units_Z 84
_cell_length_a 18.255676
_cell_length_b 18.255676
_cell_length_c 15.476854
_cell_angle_alpha 90.000000
_cell_angle_beta 90.000000
_cell_angle_gamma 120.000000
_cell_volume 4466.930095
_symmetry_space_group_name_H-M "P 61 2 2"
_symmetry_group_IT_number 178
_symmetry_cell_setting 'hexagonal'
loop_
_space_group_symop_operation_xyz
x,y,z
x-y,x,1/6+z
-y,x-y,1/3+z
-x,-y,1/2+z
-x+y,-x,2/3+z
y,-x+y,5/6+z
x-y,-y,-z
-x,-x+y,2/3-z
y,x,1/3-z
-y,-x,5/6-z
-x+y,y,1/2-z
x,x-y,1/6-z
loop_
_atom_site_type_symbol
_atom_site_label
_atom_site_fract_x
_atom_site_fract_y
_atom_site_fract_z
Si Si1 0.736232 0.438153 0.042120
Si Si2 0.415474 0.919983 0.160776
Si Si3 0.599416 0.838396 0.173541
Si Si4 0.329431 0.202089 0.989318
Si Si5 0.595585 0.587448 0.262305
Si Si6 0.485438 0.350891 0.894824
Si Si7 0.756479 0.685600 0.505156
O O1 0.692212 0.346106 0.083334
O O2 0.769071 0.511385 0.115511
O O3 0.818707 0.450320 0.991406
O O4 0.683610 0.456787 0.975232
O O5 0.468643 0.937285 0.250000
O O6 0.489661 0.968784 0.092792
O O7 0.337955 0.938536 0.154647
O O8 0.587082 0.915910 0.145920
O O9 0.668116 0.874247 0.250532
O O10 0.619573 0.809787 0.083334
O O11 0.419242 0.285005 0.963246
O O12 0.311141 0.128442 0.917469
O O13 0.333799 0.166900 0.083334
O O14 0.262640 0.237112 0.994710
O O15 0.621201 0.621201 0.166667
O O16 0.569396 0.644612 0.316384
O O17 0.552565 0.447436 0.916667
#
# Coordination Sequence:
#
# PCOD9582371 Si02
#       7
#    12  12  12  12  12  12  12
#     4  10  20  40  58  78 125 173 220 269 322 369
#     4  10  17  39  60  82 122 179 212 263 319 376
#     4  11  21  37  65  94 122 167 214 265 328 390
#     4  12  25  44  68  97 130 173 225 274 338 400
#     4  12  23  36  62  90 126 169 220 262 333 392
#     4  12  25  41  59  93 134 170 218 282 318 373
#     4  11  23  43  69  94 135 167 219 281 331 400
#
# _framework density 18.804860999999999
#
# number of rings (size 3 to 8) (size 9 to 14) (size 15 to 20)
#    0.000    0.857    8.571    2.571    0.000    3.429 
#    2.571    0.000    0.000    0.000    0.000    5.000 
#    0.000    0.000    0.000    0.000    0.000    0.000 
#
# Total GULP energy -468082.678389 kJ/mol
# GULP energy per Si atom -5572.412838 kJ/mol
# Density = 1.876206 g / cm^3
# Si number density = 18.804861 Si / 1000 Ang^3
#
#
#
# Elastic Constant Matrix: (Units=GPa)
#
#
# Indices 1 2 3 4 5 6 
#
# 1 -296.5580 425.8961 45.2063 0.0000 0.0000 0.0000
# 2 425.8961 -296.5580 45.2063 0.0000 0.0000 0.0000
# 3 45.2063 45.2063 143.7026 0.0000 0.0000 0.0000
# 4 0.0000 0.0000 0.0000 20.0731 0.0000 0.0000
# 5 0.0000 0.0000 0.0000 0.0000 20.0731 0.0000
# 6 0.0000 0.0000 0.0000 0.0000 0.0000 -361.2271
#
#
#
# Elastic Compliance Matrix: (Units=1/GPa)
#
#
# Indices 1 2 3 4 5 6 
#
# 1 0.004264 0.005648 -0.003118 0.000000 0.000000 0.000000
# 2 0.005648 0.004264 -0.003118 0.000000 0.000000 0.000000
# 3 -0.003118 -0.003118 0.008920 0.000000 0.000000 0.000000
# 4 0.000000 0.000000 0.000000 0.049818 0.000000 0.000000
# 5 0.000000 0.000000 0.000000 0.000000 0.049818 0.000000
# 6 0.000000 0.000000 0.000000 0.000000 0.000000 -0.002768
#
#
# Mechanical properties :
#
#
# Convention : Reuss Voigt Hill
#
# Bulk Modulus (GPa) = 61.45776 64.80043 63.12909
# Shear Modulus (GPa) = 41.35134 -128.59765 -43.62315
#
# Velocity S-wave (km/s) = 4.69441 -8.27851 -4.82164
# Velocity P-wave (km/s) = 7.88264 7.53951 1.62664
#
# Compressibility (1/GPa) = 0.01627134
#
# Stress axis : x y z
#
# Youngs Moduli (GPa) = 234.54811 234.54811 112.10160
#
# Poissons Ratio (x) = -1.32465 0.34952
# Poissons Ratio (y) = -1.32465 0.34952
# Poissons Ratio (z) = 0.73129 0.73129
#
# Static dielectric constant tensor:
#      x y z
#    x 1.714200 0.000000 0.000000 
#    y 0.000000 1.714200 0.000000 
#    z 0.000000 0.000000 1.780030 
# 
# From -- ./inp_files/6044.got.cif
#   From: 2010.05.17/outbox.cif.g08.bks.cpg/sg178_4_cif.got.tgz:6044.got - 2010.05.20 11:30:59.
