data_PCOD9582535
_publ_section_title
;
Structure prediction by ZEFSAII (Michael W. Deem and Ramdas Pophale) SiO2 
 PCOD9582535
Probable space group: P 61 2 2
;
_chemical_formula_sum "Si O2"
_cell_formula_units_Z 84
_cell_length_a 18.121720
_cell_length_b 18.121720
_cell_length_c 12.956745
_cell_angle_alpha 90.000000
_cell_angle_beta 90.000000
_cell_angle_gamma 120.000000
_cell_volume 3684.897186
_symmetry_space_group_name_H-M "P 61 2 2"
_symmetry_group_IT_number 178
_symmetry_cell_setting 'hexagonal'
loop_
_space_group_symop_operation_xyz
x,y,z
x-y,x,1/6+z
-y,x-y,1/3+z
-x,-y,1/2+z
-x+y,-x,2/3+z
y,-x+y,5/6+z
x-y,-y,-z
-x,-x+y,2/3-z
y,x,1/3-z
-y,-x,5/6-z
-x+y,y,1/2-z
x,x-y,1/6-z
loop_
_atom_site_type_symbol
_atom_site_label
_atom_site_fract_x
_atom_site_fract_y
_atom_site_fract_z
Si Si1 0.119083 0.993587 0.709145
Si Si2 0.035541 0.752334 0.035742
Si Si3 0.970054 0.571230 0.119165
Si Si4 0.316919 0.519147 0.941787
Si Si5 0.623594 0.476722 0.022844
Si Si6 0.810605 0.189396 0.416667
Si Si7 0.825773 0.825773 0.666667
Si Si8 0.374973 0.896868 0.009596
O O1 0.212195 0.002625 0.710801
O O2 0.070883 0.917947 0.793444
O O3 0.071015 0.954809 0.601099
O O4 0.998777 0.652642 0.045338
O O5 0.137819 0.806234 0.021357
O O6 0.011527 0.776590 0.927381
O O7 0.971906 0.485953 0.083334
O O8 0.053020 0.613710 0.192399
O O9 0.870570 0.536306 0.144093
O O10 0.351707 0.493925 0.043079
O O11 0.381796 0.618205 0.916667
O O12 0.223871 0.504287 0.964764
O O13 0.567930 0.423237 0.118771
O O14 0.577878 0.422123 0.916667
O O15 0.713523 0.141577 0.449426
O O16 0.430302 0.000000 0.000000
#
# Coordination Sequence:
#
# PCOD9582535 Si02
#       8
#    12  12  12  12  12   6   6  12
#     4  10  20  35  54  90 145 178 218 273 337 407
#     4  11  20  32  56  84 134 163 212 268 340 399
#     4  10  22  43  56  87 133 170 212 270 338 412
#     4  11  25  41  66  94 133 172 231 279 339 419
#     4  11  24  43  62  93 138 170 224 286 340 413
#     4  12  22  32  56  94 124 172 214 268 334 422
#     4  10  20  34  50  92 138 160 206 270 328 412
#     4  12  25  41  66  93 135 184 220 281 360 420
#
# _framework density 22.795750999999999
#
# number of rings (size 3 to 8) (size 9 to 14) (size 15 to 20)
#    0.000    1.143    1.429    8.143    6.000    2.286 
#    0.000    0.000    0.000    0.000    0.000    0.000 
#  162.857    0.000    0.000    0.000    0.000    0.000 
#
# Total GULP energy -468254.040043 kJ/mol
# GULP energy per Si atom -5574.452858 kJ/mol
# Density = 2.274387 g / cm^3
# Si number density = 22.795751 Si / 1000 Ang^3
#
#
#
# Elastic Constant Matrix: (Units=GPa)
#
#
# Indices 1 2 3 4 5 6 
#
# 1 130.7177 64.0507 35.0908 0.0000 0.0000 0.0000
# 2 64.0507 130.7177 35.0908 0.0000 0.0000 0.0000
# 3 35.0908 35.0908 53.2327 0.0000 0.0000 0.0000
# 4 0.0000 0.0000 0.0000 30.1409 0.0000 0.0000
# 5 0.0000 0.0000 0.0000 0.0000 30.1409 0.0000
# 6 0.0000 0.0000 0.0000 0.0000 0.0000 33.3335
#
#
#
# Elastic Compliance Matrix: (Units=1/GPa)
#
#
# Indices 1 2 3 4 5 6 
#
# 1 0.010867 -0.004133 -0.004439 0.000000 0.000000 0.000000
# 2 -0.004133 0.010867 -0.004439 0.000000 0.000000 0.000000
# 3 -0.004439 -0.004439 0.024638 0.000000 0.000000 0.000000
# 4 0.000000 0.000000 0.000000 0.033177 0.000000 0.000000
# 5 0.000000 0.000000 0.000000 0.000000 0.033177 0.000000
# 6 0.000000 0.000000 0.000000 0.000000 0.000000 0.030000
#
#
# Mechanical properties :
#
#
# Convention : Reuss Voigt Hill
#
# Bulk Modulus (GPa) = 49.14087 64.79252 56.96670
# Shear Modulus (GPa) = 28.48498 30.75212 29.61855
#
# Velocity S-wave (km/s) = 3.53877 3.67690 3.60849
# Velocity P-wave (km/s) = 6.18878 6.81989 6.51198
#
# Compressibility (1/GPa) = 0.02034966
#
# Stress axis : x y z
#
# Youngs Moduli (GPa) = 92.02295 92.02295 40.58829
#
# Poissons Ratio (x) = 0.38034 0.18017
# Poissons Ratio (y) = 0.38034 0.18017
# Poissons Ratio (z) = 0.40848 0.40848
#
# Static dielectric constant tensor:
#      x y z
#    x 1.977490 0.000000 0.000000 
#    y 0.000000 1.977490 0.000000 
#    z 0.000000 0.000000 1.890270 
# 
# From -- ./inp_files/6053.got.cif
#   From: 2010.05.17/outbox.cif.g08.bks.cpg/sg178_4_cif.got.tgz:6053.got - 2010.05.20 11:30:59.
