data_PCOD9582088
_publ_section_title
;
Structure prediction by ZEFSAII (Michael W. Deem and Ramdas Pophale) SiO2 
 PCOD9582088
Probable space group: P 63/M
;
_chemical_formula_sum "Si O2"
_cell_formula_units_Z 58
_cell_length_a 15.091440
_cell_length_b 15.091440
_cell_length_c 14.314824
_cell_angle_alpha 90.000000
_cell_angle_beta 90.000000
_cell_angle_gamma 120.000000
_cell_volume 2823.436386
_symmetry_space_group_name_H-M "P 63/M"
_symmetry_group_IT_number 176
_symmetry_cell_setting 'hexagonal'
loop_
_space_group_symop_operation_xyz
x,y,z
x-y,x,1/2+z
-y,x-y,z
-x,-y,1/2+z
-x+y,-x,z
y,-x+y,1/2+z
-x,-y,-z
-x+y,-x,1/2-z
y,-x+y,-z
x,y,1/2-z
x-y,x,-z
-y,x-y,1/2-z
loop_
_atom_site_type_symbol
_atom_site_label
_atom_site_fract_x
_atom_site_fract_y
_atom_site_fract_z
Si Si1 0.670847 0.903943 0.250000
Si Si2 0.451211 0.773521 0.039582
Si Si3 0.340617 0.076686 0.431280
Si Si4 0.000000 0.000000 0.390142
Si Si5 0.621949 0.461338 0.750000
Si Si6 0.328536 0.948200 0.250000
Si Si7 0.961921 0.778307 0.406394
O O1 0.578236 0.925840 0.250000
O O2 0.645661 0.788172 0.250000
O O3 0.732240 0.955289 0.341311
O O4 0.342630 0.767497 0.014337
O O5 0.454207 0.782195 0.152652
O O6 0.554275 0.862555 0.992158
O O7 0.313234 0.160847 0.394489
O O8 0.349830 0.015040 0.344091
O O9 0.236623 0.001907 0.491542
O O10 0.117243 0.082875 0.371434
O O11 0.000000 0.000000 0.500000
O O12 0.502106 0.392293 0.750000
#
# Coordination Sequence:
#
# PCOD9582088 Si02
#       7
#     6  12  12   4   6   6  12
#     4  12  25  45  67 107 133 178 230 287 348 405
#     4  10  24  44  73 102 134 183 229 291 355 402
#     4  12  25  45  68 101 140 181 233 284 346 417
#     4  12  21  40  65  97 135 189 217 268 338 409
#     4  12  24  44  72 105 134 175 233 293 344 414
#     4  12  29  43  69 102 139 185 225 290 342 413
#     4  12  24  41  69  97 138 178 228 279 342 414
#
# _framework density 20.542344
#
# number of rings (size 3 to 8) (size 9 to 14) (size 15 to 20)
#    0.414    0.000    4.138    4.966    2.897    3.310 
#    0.621    1.034    0.000    0.000    0.000    0.000 
#    0.000    0.000    0.000    0.000    0.000    0.000 
#
# Total GULP energy -323174.497977 kJ/mol
# GULP energy per Si atom -5571.974103 kJ/mol
# Density = 2.049559 g / cm^3
# Si number density = 20.542344 Si / 1000 Ang^3
#
#
#
# Elastic Constant Matrix: (Units=GPa)
#
#
# Indices 1 2 3 4 5 6 
#
# 1 115.7980 65.3622 54.6552 0.0000 0.0000 0.0000
# 2 65.3622 115.7980 54.6552 0.0000 0.0000 0.0000
# 3 54.6552 54.6552 102.2502 0.0000 0.0000 0.0000
# 4 0.0000 0.0000 0.0000 1.1041 0.0000 0.0000
# 5 0.0000 0.0000 0.0000 0.0000 1.1041 0.0000
# 6 0.0000 0.0000 0.0000 0.0000 0.0000 25.2179
#
#
#
# Elastic Compliance Matrix: (Units=1/GPa)
#
#
# Indices 1 2 3 4 5 6 
#
# 1 0.013988 -0.005840 -0.004355 0.000000 0.000000 0.000000
# 2 -0.005840 0.013988 -0.004355 0.000000 0.000000 0.000000
# 3 -0.004355 -0.004355 0.014436 0.000000 0.000000 0.000000
# 4 0.000000 0.000000 0.000000 0.905748 0.000000 0.000000
# 5 0.000000 0.000000 0.000000 0.000000 0.905748 0.000000
# 6 0.000000 0.000000 0.000000 0.000000 0.000000 0.039654
#
#
# Mechanical properties :
#
#
# Convention : Reuss Voigt Hill
#
# Bulk Modulus (GPa) = 75.12751 75.91015 75.51883
# Shear Modulus (GPa) = 2.59457 16.09677 9.34567
#
# Velocity S-wave (km/s) = 1.12507 2.80230 2.13526
# Velocity P-wave (km/s) = 6.19186 6.89230 6.55145
#
# Compressibility (1/GPa) = 0.01331070
#
# Stress axis : x y z
#
# Youngs Moduli (GPa) = 71.49218 71.49218 69.27177
#
# Poissons Ratio (x) = 0.41749 0.30170
# Poissons Ratio (y) = 0.41749 0.30170
# Poissons Ratio (z) = 0.31137 0.31137
#
# Static dielectric constant tensor:
#      x y z
#    x 1.708780 0.000000 0.000000 
#    y 0.000000 1.708780 0.000000 
#    z 0.000000 0.000000 2.143800 
# 
# From -- ./inp_files/2724.got.cif
#   From: 2010.05.17/outbox.cif.g08.bks.cpg/sg176_2_cif.got.tgz:2724.got - 2010.06.03 11:36:45.
