data_PCOD9582222
_publ_section_title
;
Structure prediction by ZEFSAII (Michael W. Deem and Ramdas Pophale) SiO2 
 PCOD9582222
Probable space group: P 6 2 2
;
_chemical_formula_sum "Si O2"
_cell_formula_units_Z 36
_cell_length_a 15.449258
_cell_length_b 15.449258
_cell_length_c 9.243711
_cell_angle_alpha 90.000000
_cell_angle_beta 90.000000
_cell_angle_gamma 120.000000
_cell_volume 1910.698851
_symmetry_space_group_name_H-M "P 6 2 2"
_symmetry_group_IT_number 177
_symmetry_cell_setting 'hexagonal'
loop_
_space_group_symop_operation_xyz
x,y,z
x-y,x,z
-y,x-y,z
-x,-y,z
-x+y,-x,z
y,-x+y,z
x-y,-y,-z
-x,-x+y,-z
y,x,-z
-y,-x,-z
-x+y,y,-z
x,x-y,-z
loop_
_atom_site_type_symbol
_atom_site_label
_atom_site_fract_x
_atom_site_fract_y
_atom_site_fract_z
Si Si1 0.221461 0.778540 0.500000
Si Si2 0.221458 0.442916 0.000000
Si Si3 0.632317 0.138823 0.249999
Si Si4 0.677154 0.598933 0.250000
O O1 0.311365 0.802256 0.392290
O O2 0.126746 0.744071 0.392948
O O3 0.311363 0.509105 0.892291
O O4 0.126744 0.382671 0.892948
O O5 0.519196 0.113325 0.249997
O O6 0.645463 0.040503 0.250002
#
# Coordination Sequence:
#
# PCOD9582222 Si02
#       4
#     6   6  12  12
#     4  10  20  32  48  76  88 128 182 212 234 294
#     4  10  20  32  48  76  88 128 182 212 234 294
#     4  10  20  36  51  68 102 141 168 205 267 307
#     4  10  20  36  51  68 102 141 168 205 267 307
#
# _framework density 18.841273000000001
#
# number of rings (size 3 to 8) (size 9 to 14) (size 15 to 20)
#    0.000    2.000    0.000    4.000    0.000    5.333 
#   40.000    0.000    0.000    0.000    0.000    0.000 
#    0.000    0.000    0.000  924.000    0.000    0.000 
#
# Total GULP energy -200905.076744 kJ/mol
# GULP energy per Si atom -5580.696576 kJ/mol
# Density = 1.879839 g / cm^3
# Si number density = 18.841273 Si / 1000 Ang^3
#
#
#
# Elastic Constant Matrix: (Units=GPa)
#
#
# Indices 1 2 3 4 5 6 
#
# 1 68.6571 24.7902 38.9091 0.0000 0.0000 0.0000
# 2 24.7902 68.6571 38.9091 0.0000 0.0000 0.0000
# 3 38.9091 38.9091 160.6461 0.0000 0.0000 0.0000
# 4 0.0000 0.0000 0.0000 16.4128 0.0000 0.0000
# 5 0.0000 0.0000 0.0000 0.0000 16.4128 0.0000
# 6 0.0000 0.0000 0.0000 0.0000 0.0000 21.9335
#
#
#
# Elastic Compliance Matrix: (Units=1/GPa)
#
#
# Indices 1 2 3 4 5 6 
#
# 1 0.018101 -0.004696 -0.003247 0.000000 0.000000 0.000000
# 2 -0.004696 0.018101 -0.003247 0.000000 0.000000 0.000000
# 3 -0.003247 -0.003247 0.007798 0.000000 0.000000 0.000000
# 4 0.000000 0.000000 0.000000 0.060928 0.000000 0.000000
# 5 0.000000 0.000000 0.000000 0.000000 0.060928 0.000000
# 6 0.000000 0.000000 0.000000 0.000000 0.000000 0.045592
#
#
# Mechanical properties :
#
#
# Convention : Reuss Voigt Hill
#
# Bulk Modulus (GPa) = 46.25228 55.90858 51.08043
# Shear Modulus (GPa) = 20.74412 23.97528 22.35970
#
# Velocity S-wave (km/s) = 3.32172 3.57106 3.44865
# Velocity P-wave (km/s) = 6.27004 6.83675 6.55952
#
# Compressibility (1/GPa) = 0.02162056
#
# Stress axis : x y z
#
# Youngs Moduli (GPa) = 55.24685 55.24685 128.24453
#
# Poissons Ratio (x) = 0.25942 0.41638
# Poissons Ratio (y) = 0.25942 0.41638
# Poissons Ratio (z) = 0.17937 0.17937
#
# Static dielectric constant tensor:
#      x y z
#    x 1.664180 0.000000 0.000000 
#    y 0.000000 1.664180 0.000000 
#    z 0.000000 0.000000 1.687690 
# 
# From -- ./inp_files/986.got.cif
#   From: 2010.05.17/outbox.cif.g08.bks.cpg/sg177_1_cif.got.tgz:986.got - 2010.05.20 11:28:44.
