data_PCOD9582214
_publ_section_title
;
Structure prediction by ZEFSAII (Michael W. Deem and Ramdas Pophale) SiO2 
 PCOD9582214
Probable space group: P 6 2 2
;
_chemical_formula_sum "Si O2"
_cell_formula_units_Z 60
_cell_length_a 27.467963
_cell_length_b 27.467963
_cell_length_c 5.535143
_cell_angle_alpha 90.000000
_cell_angle_beta 90.000000
_cell_angle_gamma 120.000000
_cell_volume 3616.699153
_symmetry_space_group_name_H-M "P 6 2 2"
_symmetry_group_IT_number 177
_symmetry_cell_setting 'hexagonal'
loop_
_space_group_symop_operation_xyz
x,y,z
x-y,x,z
-y,x-y,z
-x,-y,z
-x+y,-x,z
y,-x+y,z
x-y,-y,-z
-x,-x+y,-z
y,x,-z
-y,-x,-z
-x+y,y,-z
x,x-y,-z
loop_
_atom_site_type_symbol
_atom_site_label
_atom_site_fract_x
_atom_site_fract_y
_atom_site_fract_z
Si Si1 0.736187 0.162347 0.359218
Si Si2 0.325827 0.381238 0.885907
Si Si3 0.224158 0.638465 0.246273
Si Si4 0.000000 0.426140 0.500000
Si Si5 0.370245 0.890108 0.718231
Si Si6 0.493022 0.746511 0.000000
O O1 0.793359 0.206642 0.500000
O O2 0.729142 0.104595 0.247123
O O3 0.681531 0.140869 0.528906
O O4 0.729142 0.196160 0.137537
O O5 0.376435 0.404846 0.695136
O O6 0.328152 0.328152 0.000000
O O7 0.344878 0.431689 0.078540
O O8 0.236753 0.618377 0.500000
O O9 0.157175 0.614027 0.223589
O O10 0.242803 0.621402 0.000000
O O11 0.249795 0.704689 0.209769
O O12 0.946641 0.424294 0.377815
#
# Coordination Sequence:
#
# PCOD9582214 Si02
#       6
#    12  12  12   6  12   6
#     4  11  18  31  59  82 102 134 176 213 252 311
#     4   9  17  31  51  83 107 134 162 207 256 309
#     4  12  27  42  64  82 104 133 168 215 266 311
#     4   8  18  30  57  74 110 134 160 192 246 306
#     4  10  19  35  56  78 103 134 165 203 250 309
#     4  12  24  42  62  80 102 130 174 214 259 324
#
# _framework density 16.589711000000001
#
# number of rings (size 3 to 8) (size 9 to 14) (size 15 to 20)
#    0.000    1.600    4.000    1.200    2.800    0.000 
#    0.600    0.500    4.400    0.000    0.000    0.000 
#    0.000    0.000    0.000    0.000    0.000    0.000 
#
# Total GULP energy -334241.860031 kJ/mol
# GULP energy per Si atom -5570.697667 kJ/mol
# Density = 1.655195 g / cm^3
# Si number density = 16.589711 Si / 1000 Ang^3
#
#
#
# Elastic Constant Matrix: (Units=GPa)
#
#
# Indices 1 2 3 4 5 6 
#
# 1 64.2841 34.9436 33.1261 0.0000 0.0000 0.0000
# 2 34.9436 64.2841 33.1261 0.0000 0.0000 0.0000
# 3 33.1261 33.1261 98.8086 0.0000 0.0000 0.0000
# 4 0.0000 0.0000 0.0000 -23.0156 0.0000 0.0000
# 5 0.0000 0.0000 0.0000 0.0000 -23.0156 0.0000
# 6 0.0000 0.0000 0.0000 0.0000 0.0000 14.6703
#
#
#
# Elastic Compliance Matrix: (Units=1/GPa)
#
#
# Indices 1 2 3 4 5 6 
#
# 1 0.023533 -0.010549 -0.004353 0.000000 0.000000 0.000000
# 2 -0.010549 0.023533 -0.004353 0.000000 0.000000 0.000000
# 3 -0.004353 -0.004353 0.013039 0.000000 0.000000 0.000000
# 4 0.000000 0.000000 0.000000 -0.043449 0.000000 0.000000
# 5 0.000000 0.000000 0.000000 0.000000 -0.043449 0.000000
# 6 0.000000 0.000000 0.000000 0.000000 0.000000 0.068165
#
#
# Mechanical properties :
#
#
# Convention : Reuss Voigt Hill
#
# Bulk Modulus (GPa) = 46.30552 47.75204 47.02878
# Shear Modulus (GPa) = 57.41671 2.13989 29.77830
#
# Velocity S-wave (km/s) = 5.88939 1.13696 4.24132
# Velocity P-wave (km/s) = 8.61507 5.52903 7.23843
#
# Compressibility (1/GPa) = 0.02159570
#
# Stress axis : x y z
#
# Youngs Moduli (GPa) = 42.49279 42.49279 76.69107
#
# Poissons Ratio (x) = 0.44826 0.33384
# Poissons Ratio (y) = 0.44826 0.33384
# Poissons Ratio (z) = 0.18497 0.18497
#
# Static dielectric constant tensor:
#      x y z
#    x 1.710110 0.000000 0.000000 
#    y 0.000000 1.710110 0.000000 
#    z 0.000000 0.000000 1.647420 
# 
# From -- ./inp_files/639.got.cif
#   From: 2010.05.17/outbox.cif.g08.bks.cpg/sg177_1_cif.got.tgz:639.got - 2010.05.20 11:28:44.
