data_PCOD9582748
_publ_section_title
;
Structure prediction by ZEFSAII (Michael W. Deem and Ramdas Pophale) SiO2 
 PCOD9582748
Probable space group: P 61 2 2
;
_chemical_formula_sum "Si O2"
_cell_formula_units_Z 54
_cell_length_a 23.790355
_cell_length_b 23.790355
_cell_length_c 4.817569
_cell_angle_alpha 90.000000
_cell_angle_beta 90.000000
_cell_angle_gamma 120.000000
_cell_volume 2361.350312
_symmetry_space_group_name_H-M "P 61 2 2"
_symmetry_group_IT_number 178
_symmetry_cell_setting 'hexagonal'
loop_
_space_group_symop_operation_xyz
x,y,z
x-y,x,1/6+z
-y,x-y,1/3+z
-x,-y,1/2+z
-x+y,-x,2/3+z
y,-x+y,5/6+z
x-y,-y,-z
-x,-x+y,2/3-z
y,x,1/3-z
-y,-x,5/6-z
-x+y,y,1/2-z
x,x-y,1/6-z
loop_
_atom_site_type_symbol
_atom_site_label
_atom_site_fract_x
_atom_site_fract_y
_atom_site_fract_z
Si Si1 0.665455 0.110872 0.769287
Si Si2 0.000000 0.756736 0.333334
Si Si3 0.463120 0.000000 0.000000
Si Si4 0.101948 0.362919 0.110311
Si Si5 0.716236 0.858118 0.083334
Si Si6 0.773903 0.425341 0.847597
O O1 0.599714 0.048238 0.674508
O O2 0.721957 0.112432 0.581693
O O3 0.653984 0.168840 0.677539
O O4 0.688830 0.111478 0.081071
O O5 0.968884 0.698874 0.556524
O O6 0.937015 0.759157 0.213856
O O7 0.515872 0.031744 0.250000
O O8 0.143499 0.332024 0.987938
O O9 0.723068 0.446135 0.750000
O O10 0.793336 0.396668 0.583334
O O11 0.741613 0.370807 0.083334
#
# Coordination Sequence:
#
# PCOD9582748 Si02
#       6
#    12   6   6  12   6  12
#     4  12  24  41  66  93 127 167 209 270 327 396
#     4   8  18  39  58  96 134 177 208 272 306 400
#     4  12  24  41  64  90 130 169 216 260 322 402
#     4  10  22  38  62  94 131 162 214 263 326 383
#     4   8  20  38  64  92 146 162 234 252 342 382
#     4  12  26  43  64  86 118 160 216 271 331 390
#
# _framework density 22.868269999999999
#
# number of rings (size 3 to 8) (size 9 to 14) (size 15 to 20)
#    1.333    0.000    0.000    6.667    3.111    0.000 
#    0.000    0.000    0.000    0.000    0.000    0.000 
#    6.667    0.000    0.000    0.000    0.000    0.889 
#
# Total GULP energy -301538.065426 kJ/mol
# GULP energy per Si atom -5584.038249 kJ/mol
# Density = 2.281622 g / cm^3
# Si number density = 22.868270 Si / 1000 Ang^3
#
#
#
# Elastic Constant Matrix: (Units=GPa)
#
#
# Indices 1 2 3 4 5 6 
#
# 1 107.7148 31.3349 4.0899 0.0000 0.0000 0.0000
# 2 31.3349 107.7148 4.0899 0.0000 0.0000 0.0000
# 3 4.0899 4.0899 83.9664 0.0000 0.0000 0.0000
# 4 0.0000 0.0000 0.0000 14.9405 0.0000 0.0000
# 5 0.0000 0.0000 0.0000 0.0000 14.9405 0.0000
# 6 0.0000 0.0000 0.0000 0.0000 0.0000 38.1900
#
#
#
# Elastic Compliance Matrix: (Units=1/GPa)
#
#
# Indices 1 2 3 4 5 6 
#
# 1 0.010152 -0.002940 -0.000351 0.000000 0.000000 0.000000
# 2 -0.002940 0.010152 -0.000351 0.000000 0.000000 0.000000
# 3 -0.000351 -0.000351 0.011944 0.000000 0.000000 0.000000
# 4 0.000000 0.000000 0.000000 0.066932 0.000000 0.000000
# 5 0.000000 0.000000 0.000000 0.000000 0.066932 0.000000
# 6 0.000000 0.000000 0.000000 0.000000 0.000000 0.026185
#
#
# Mechanical properties :
#
#
# Convention : Reuss Voigt Hill
#
# Bulk Modulus (GPa) = 40.05894 42.04726 41.05310
# Shear Modulus (GPa) = 24.04952 30.93961 27.49457
#
# Velocity S-wave (km/s) = 3.24644 3.68224 3.47118
# Velocity P-wave (km/s) = 5.62208 6.04195 5.83579
#
# Compressibility (1/GPa) = 0.02496322
#
# Stress axis : x y z
#
# Youngs Moduli (GPa) = 98.49896 98.49896 83.72582
#
# Poissons Ratio (x) = 0.28959 0.02941
# Poissons Ratio (y) = 0.28959 0.02941
# Poissons Ratio (z) = 0.03460 0.03460
#
# Static dielectric constant tensor:
#      x y z
#    x 1.881820 0.000000 0.000000 
#    y 0.000000 1.881820 0.000000 
#    z 0.000000 0.000000 1.889400 
# 
# From -- ./inp_files/1229.got.cif
#   From: 2010.05.17/outbox.cif.g08.bks.cpg/sg178_1_cif.got.tgz:1229.got - 2010.05.20 11:30:59.
