data_PCOD9582483
_publ_section_title
;
Structure prediction by ZEFSAII (Michael W. Deem and Ramdas Pophale) SiO2 
 PCOD9582483
Probable space group: P 61 2 2
;
_chemical_formula_sum "Si O2"
_cell_formula_units_Z 54
_cell_length_a 10.891073
_cell_length_b 10.891073
_cell_length_c 28.741975
_cell_angle_alpha 90.000000
_cell_angle_beta 90.000000
_cell_angle_gamma 120.000000
_cell_volume 2952.490963
_symmetry_space_group_name_H-M "P 61 2 2"
_symmetry_group_IT_number 178
_symmetry_cell_setting 'hexagonal'
loop_
_space_group_symop_operation_xyz
x,y,z
x-y,x,1/6+z
-y,x-y,1/3+z
-x,-y,1/2+z
-x+y,-x,2/3+z
y,-x+y,5/6+z
x-y,-y,-z
-x,-x+y,2/3-z
y,x,1/3-z
-y,-x,5/6-z
-x+y,y,1/2-z
x,x-y,1/6-z
loop_
_atom_site_type_symbol
_atom_site_label
_atom_site_fract_x
_atom_site_fract_y
_atom_site_fract_z
Si Si1 0.163684 0.163684 0.166667
Si Si2 0.324142 0.773896 0.612190
Si Si3 0.247932 0.302092 0.987528
Si Si4 0.528622 0.228148 0.205987
Si Si5 0.999024 0.367845 0.258251
O O1 0.279772 0.229751 0.124439
O O2 0.014662 0.147735 0.152893
O O3 0.257726 0.628863 0.583334
O O4 0.201755 0.807300 0.627506
O O5 0.382887 0.747197 0.659843
O O6 0.467589 0.889399 0.585374
O O7 0.390842 0.318558 0.964590
O O8 0.289770 0.347743 0.041616
O O9 0.616691 0.233381 0.250000
O O10 0.481460 0.344299 0.213121
#
# Coordination Sequence:
#
# PCOD9582483 Si02
#       5
#     6  12  12  12  12
#     4  10  20  36  58  84 114 148 200 234 286 344
#     4  11  21  34  56  90 119 146 193 237 287 344
#     4  10  20  33  56  85 110 147 189 238 283 333
#     4  10  19  35  56  84 115 150 189 238 281 334
#     4  10  19  35  58  85 115 147 190 239 286 336
#
# _framework density 18.289641
#
# number of rings (size 3 to 8) (size 9 to 14) (size 15 to 20)
#    0.000    1.778    2.222    5.333    0.000    0.000 
#    0.000    0.000    0.000    5.333    0.000   14.000 
#    0.000    0.000    0.000    0.000    0.000    0.000 
#
# Total GULP energy -301064.204668 kJ/mol
# GULP energy per Si atom -5575.263049 kJ/mol
# Density = 1.824801 g / cm^3
# Si number density = 18.289641 Si / 1000 Ang^3
#
#
#
# Elastic Constant Matrix: (Units=GPa)
#
#
# Indices 1 2 3 4 5 6 
#
# 1 99.5566 49.0793 42.2613 0.0000 0.0000 0.0000
# 2 49.0793 99.5566 42.2613 0.0000 0.0000 0.0000
# 3 42.2613 42.2613 75.7697 0.0000 0.0000 0.0000
# 4 0.0000 0.0000 0.0000 26.0179 0.0000 0.0000
# 5 0.0000 0.0000 0.0000 0.0000 26.0179 0.0000
# 6 0.0000 0.0000 0.0000 0.0000 0.0000 25.2386
#
#
#
# Elastic Compliance Matrix: (Units=1/GPa)
#
#
# Indices 1 2 3 4 5 6 
#
# 1 0.014832 -0.004979 -0.005496 0.000000 0.000000 0.000000
# 2 -0.004979 0.014832 -0.005496 0.000000 0.000000 0.000000
# 3 -0.005496 -0.005496 0.019328 0.000000 0.000000 0.000000
# 4 0.000000 0.000000 0.000000 0.038435 0.000000 0.000000
# 5 0.000000 0.000000 0.000000 0.000000 0.038435 0.000000
# 6 0.000000 0.000000 0.000000 0.000000 0.000000 0.039622
#
#
# Mechanical properties :
#
#
# Convention : Reuss Voigt Hill
#
# Bulk Modulus (GPa) = 58.64453 60.23187 59.43820
# Shear Modulus (GPa) = 24.61742 24.87363 24.74553
#
# Velocity S-wave (km/s) = 3.67273 3.69180 3.68228
# Velocity P-wave (km/s) = 7.07950 7.15376 7.11672
#
# Compressibility (1/GPa) = 0.01705189
#
# Stress axis : x y z
#
# Youngs Moduli (GPa) = 67.42219 67.42219 51.73755
#
# Poissons Ratio (x) = 0.33569 0.28433
# Poissons Ratio (y) = 0.33569 0.28433
# Poissons Ratio (z) = 0.37052 0.37052
#
# Static dielectric constant tensor:
#      x y z
#    x 1.643950 0.000000 0.000000 
#    y 0.000000 1.643950 0.000000 
#    z 0.000000 0.000000 1.653260 
# 
# From -- ./inp_files/9361.got.cif
#   From: 2010.05.17/outbox.cif.g08.bks.cpg/sg178_5_cif.got.tgz:9361.got - 2010.05.20 11:30:59.
