data_PCOD9582646
_publ_section_title
;
Structure prediction by ZEFSAII (Michael W. Deem and Ramdas Pophale) SiO2 
 PCOD9582646
Probable space group: P 61 2 2
;
_chemical_formula_sum "Si O2"
_cell_formula_units_Z 54
_cell_length_a 14.283363
_cell_length_b 14.283363
_cell_length_c 14.568078
_cell_angle_alpha 90.000000
_cell_angle_beta 90.000000
_cell_angle_gamma 120.000000
_cell_volume 2573.912843
_symmetry_space_group_name_H-M "P 61 2 2"
_symmetry_group_IT_number 178
_symmetry_cell_setting 'hexagonal'
loop_
_space_group_symop_operation_xyz
x,y,z
x-y,x,1/6+z
-y,x-y,1/3+z
-x,-y,1/2+z
-x+y,-x,2/3+z
y,-x+y,5/6+z
x-y,-y,-z
-x,-x+y,2/3-z
y,x,1/3-z
-y,-x,5/6-z
-x+y,y,1/2-z
x,x-y,1/6-z
loop_
_atom_site_type_symbol
_atom_site_label
_atom_site_fract_x
_atom_site_fract_y
_atom_site_fract_z
Si Si1 0.386439 0.193220 0.083334
Si Si2 0.631470 0.631470 0.666667
Si Si3 0.984972 0.668123 0.224614
Si Si4 0.920542 0.841084 0.250000
Si Si5 0.874851 0.432126 0.184760
Si Si6 0.298223 0.805778 0.722900
O O1 0.332472 0.068381 0.062778
O O2 0.448866 0.207517 0.178622
O O3 0.590144 0.533016 0.594409
O O4 0.096071 0.693552 0.172090
O O5 0.000000 0.672487 0.333334
O O6 0.957232 0.761433 0.203475
O O7 0.885049 0.546665 0.208776
O O8 0.906945 0.906945 0.166667
O O9 0.765474 0.315037 0.178077
O O10 0.923452 0.461726 0.083334
O O11 0.416136 0.832272 0.750000
#
# Coordination Sequence:
#
# PCOD9582646 Si02
#       6
#     6   6  12   6  12  12
#     4  10  22  42  67  94 142 181 230 294 354 430
#     4  10  20  42  62 100 136 192 232 288 354 426
#     4  11  24  45  72 105 145 192 242 304 365 445
#     4  10  26  50  81 102 140 187 258 314 368 426
#     4  11  24  38  71 103 149 190 236 288 365 446
#     4  11  26  42  70 107 147 191 241 288 367 451
#
# _framework density 20.97973
#
# number of rings (size 3 to 8) (size 9 to 14) (size 15 to 20)
#    0.000    1.333    1.111    3.333   12.444    0.000 
#    0.000    1.111    2.444    0.000    0.000    0.000 
#    0.000    0.000    0.000    0.000    0.000    0.000 
#
# Total GULP energy -300631.076900 kJ/mol
# GULP energy per Si atom -5567.242165 kJ/mol
# Density = 2.093198 g / cm^3
# Si number density = 20.979730 Si / 1000 Ang^3
#
#
#
# Elastic Constant Matrix: (Units=GPa)
#
#
# Indices 1 2 3 4 5 6 
#
# 1 100.0910 68.5602 50.3920 0.0000 0.0000 0.0000
# 2 68.5602 100.0910 50.3920 0.0000 0.0000 0.0000
# 3 50.3920 50.3920 115.9459 0.0000 0.0000 0.0000
# 4 0.0000 0.0000 0.0000 20.5985 0.0000 0.0000
# 5 0.0000 0.0000 0.0000 0.0000 20.5985 0.0000
# 6 0.0000 0.0000 0.0000 0.0000 0.0000 15.7654
#
#
#
# Elastic Compliance Matrix: (Units=1/GPa)
#
#
# Indices 1 2 3 4 5 6 
#
# 1 0.019862 -0.011853 -0.003481 0.000000 0.000000 0.000000
# 2 -0.011853 0.019862 -0.003481 0.000000 0.000000 0.000000
# 3 -0.003481 -0.003481 0.011651 0.000000 0.000000 0.000000
# 4 0.000000 0.000000 0.000000 0.048547 0.000000 0.000000
# 5 0.000000 0.000000 0.000000 0.000000 0.048547 0.000000
# 6 0.000000 0.000000 0.000000 0.000000 0.000000 0.063430
#
#
# Mechanical properties :
#
#
# Convention : Reuss Voigt Hill
#
# Bulk Modulus (GPa) = 72.75138 72.75736 72.75437
# Shear Modulus (GPa) = 19.67640 21.17806 20.42723
#
# Velocity S-wave (km/s) = 3.06580 3.18064 3.12375
# Velocity P-wave (km/s) = 6.87637 6.94577 6.91116
#
# Compressibility (1/GPa) = 0.01374544
#
# Stress axis : x y z
#
# Youngs Moduli (GPa) = 50.34650 50.34650 85.83220
#
# Poissons Ratio (x) = 0.59674 0.29879
# Poissons Ratio (y) = 0.59674 0.29879
# Poissons Ratio (z) = 0.17526 0.17526
#
# Static dielectric constant tensor:
#      x y z
#    x 1.824990 0.000000 0.000000 
#    y 0.000000 1.824990 0.000000 
#    z 0.000000 0.000000 1.749880 
# 
# From -- ./inp_files/5620.got.cif
#   From: 2010.05.17/outbox.cif.g08.bks.cpg/sg178_3_cif.got.tgz:5620.got - 2010.05.20 11:30:59.
