data_PCOD9582678
_publ_section_title
;
Structure prediction by ZEFSAII (Michael W. Deem and Ramdas Pophale) SiO2 
 PCOD9582678
Probable space group: P 61 2 2
;
_chemical_formula_sum "Si O2"
_cell_formula_units_Z 72
_cell_length_a 14.857325
_cell_length_b 14.857325
_cell_length_c 18.156192
_cell_angle_alpha 90.000000
_cell_angle_beta 90.000000
_cell_angle_gamma 120.000000
_cell_volume 3470.856396
_symmetry_space_group_name_H-M "P 61 2 2"
_symmetry_group_IT_number 178
_symmetry_cell_setting 'hexagonal'
loop_
_space_group_symop_operation_xyz
x,y,z
x-y,x,1/6+z
-y,x-y,1/3+z
-x,-y,1/2+z
-x+y,-x,2/3+z
y,-x+y,5/6+z
x-y,-y,-z
-x,-x+y,2/3-z
y,x,1/3-z
-y,-x,5/6-z
-x+y,y,1/2-z
x,x-y,1/6-z
loop_
_atom_site_type_symbol
_atom_site_label
_atom_site_fract_x
_atom_site_fract_y
_atom_site_fract_z
Si Si1 0.817583 0.167360 0.153355
Si Si2 0.557941 0.641381 0.502336
Si Si3 0.296473 0.749873 0.075839
Si Si4 0.441951 0.493735 0.738330
Si Si5 0.317241 0.951100 0.302708
Si Si6 0.983578 0.215689 0.417254
O O1 0.776056 0.241426 0.188871
O O2 0.869964 0.214914 0.074868
O O3 0.906742 0.173304 0.207985
O O4 0.728732 0.048145 0.155897
O O5 0.487587 0.688869 0.479669
O O6 0.503374 0.542487 0.554106
O O7 0.599799 0.609335 0.430119
O O8 0.659371 0.733553 0.540183
O O9 0.337395 0.668698 0.083334
O O10 0.390550 0.859573 0.050267
O O11 0.424254 0.424254 0.666667
O O12 0.354660 0.453017 0.801427
O O13 0.908581 0.091420 0.416667
O O14 0.000000 0.250677 0.333334
#
# Coordination Sequence:
#
# PCOD9582678 Si02
#       6
#    12  12  12  12  12  12
#     4  10  21  40  66  96 131 184 222 274 360 415
#     4  10  21  36  60  82 129 176 218 266 347 410
#     4  11  23  39  61  92 128 172 232 277 338 414
#     4  12  25  39  60  91 129 181 232 287 346 414
#     4  10  21  41  65  87 127 176 223 276 344 419
#     4  11  20  32  61  97 137 169 209 273 349 424
#
# _framework density 20.744160999999998
#
# number of rings (size 3 to 8) (size 9 to 14) (size 15 to 20)
#    0.000    1.333    3.333    6.000    2.333    1.333 
#    0.000    3.333    0.000    0.000    0.000   18.667 
#    0.000    0.000    0.000    0.000    0.000    0.000 
#
# Total GULP energy -402011.990755 kJ/mol
# GULP energy per Si atom -5583.499872 kJ/mol
# Density = 2.069695 g / cm^3
# Si number density = 20.744161 Si / 1000 Ang^3
#
#
#
# Elastic Constant Matrix: (Units=GPa)
#
#
# Indices 1 2 3 4 5 6 
#
# 1 56.9804 25.2777 31.0373 0.0000 0.0000 0.0000
# 2 25.2777 56.9804 31.0373 0.0000 0.0000 0.0000
# 3 31.0373 31.0373 79.5044 0.0000 0.0000 0.0000
# 4 0.0000 0.0000 0.0000 5.7953 0.0000 0.0000
# 5 0.0000 0.0000 0.0000 0.0000 5.7953 0.0000
# 6 0.0000 0.0000 0.0000 0.0000 0.0000 15.8514
#
#
#
# Elastic Compliance Matrix: (Units=1/GPa)
#
#
# Indices 1 2 3 4 5 6 
#
# 1 0.024388 -0.007155 -0.006728 0.000000 0.000000 0.000000
# 2 -0.007155 0.024388 -0.006728 0.000000 0.000000 0.000000
# 3 -0.006728 -0.006728 0.017831 0.000000 0.000000 0.000000
# 4 0.000000 0.000000 0.000000 0.172554 0.000000 0.000000
# 5 0.000000 0.000000 0.000000 0.000000 0.172554 0.000000
# 6 0.000000 0.000000 0.000000 0.000000 0.000000 0.063086
#
#
# Mechanical properties :
#
#
# Convention : Reuss Voigt Hill
#
# Bulk Modulus (GPa) = 39.38987 40.90773 40.14880
# Shear Modulus (GPa) = 9.53316 12.56258 11.04787
#
# Velocity S-wave (km/s) = 2.14606 2.46356 2.31027
# Velocity P-wave (km/s) = 5.01701 5.27779 5.14905
#
# Compressibility (1/GPa) = 0.02538724
#
# Stress axis : x y z
#
# Youngs Moduli (GPa) = 41.00298 41.00298 56.08266
#
# Poissons Ratio (x) = 0.29336 0.37732
# Poissons Ratio (y) = 0.29336 0.37732
# Poissons Ratio (z) = 0.27586 0.27586
#
# Static dielectric constant tensor:
#      x y z
#    x 1.916840 0.000000 0.000000 
#    y 0.000000 1.916840 0.000000 
#    z 0.000000 0.000000 1.758940 
# 
# From -- ./inp_files/6789.got.cif
#   From: 2010.05.17/outbox.cif.g08.bks.cpg/sg178_4_cif.got.tgz:6789.got - 2010.05.20 11:30:59.
