data_PCOD9582365
_publ_section_title
;
Structure prediction by ZEFSAII (Michael W. Deem and Ramdas Pophale) SiO2 
 PCOD9582365
Probable space group: P 61 2 2
;
_chemical_formula_sum "Si O2"
_cell_formula_units_Z 54
_cell_length_a 10.347823
_cell_length_b 10.347823
_cell_length_c 31.597760
_cell_angle_alpha 90.000000
_cell_angle_beta 90.000000
_cell_angle_gamma 120.000000
_cell_volume 2930.116653
_symmetry_space_group_name_H-M "P 61 2 2"
_symmetry_group_IT_number 178
_symmetry_cell_setting 'hexagonal'
loop_
_space_group_symop_operation_xyz
x,y,z
x-y,x,1/6+z
-y,x-y,1/3+z
-x,-y,1/2+z
-x+y,-x,2/3+z
y,-x+y,5/6+z
x-y,-y,-z
-x,-x+y,2/3-z
y,x,1/3-z
-y,-x,5/6-z
-x+y,y,1/2-z
x,x-y,1/6-z
loop_
_atom_site_type_symbol
_atom_site_label
_atom_site_fract_x
_atom_site_fract_y
_atom_site_fract_z
Si Si1 0.793755 0.615755 0.983205
Si Si2 0.261459 0.094631 0.941982
Si Si3 0.214609 0.429218 0.250000
Si Si4 0.891557 0.863475 0.296402
Si Si5 0.898815 0.369346 0.500078
O O1 0.845261 0.705923 0.939281
O O2 0.626725 0.481118 0.978593
O O3 0.789706 0.725098 0.018725
O O4 0.924505 0.577231 0.994408
O O5 0.100211 0.064554 0.955979
O O6 0.382806 0.219381 0.972345
O O7 0.260474 0.940249 0.940569
O O8 0.332888 0.510012 0.286919
O O9 0.902928 0.805855 0.250000
O O10 0.000000 0.863994 0.333334
#
# Coordination Sequence:
#
# PCOD9582365 Si02
#       5
#    12  12   6  12  12
#     4  10  21  36  55  82 115 149 191 238 293 357
#     4  10  17  33  60  82 108 142 192 247 286 337
#     4  10  18  34  56  84 112 138 194 242 286 340
#     4  11  18  33  57  85 113 139 192 246 291 331
#     4  10  21  36  55  84 114 152 192 240 292 356
#
# _framework density 18.429302
#
# number of rings (size 3 to 8) (size 9 to 14) (size 15 to 20)
#    0.000    1.778    3.333    4.000    0.000    0.000 
#    8.000    4.444    0.000    0.000    0.000    0.000 
#    0.000    0.000    0.000    0.000    0.000    0.000 
#
# Total GULP energy -301121.763941 kJ/mol
# GULP energy per Si atom -5576.328962 kJ/mol
# Density = 1.838736 g / cm^3
# Si number density = 18.429302 Si / 1000 Ang^3
#
#
#
# Elastic Constant Matrix: (Units=GPa)
#
#
# Indices 1 2 3 4 5 6 
#
# 1 49.7486 18.5833 23.8162 0.0000 0.0000 0.0000
# 2 18.5833 49.7486 23.8162 0.0000 0.0000 0.0000
# 3 23.8162 23.8162 96.9337 0.0000 0.0000 0.0000
# 4 0.0000 0.0000 0.0000 17.8983 0.0000 0.0000
# 5 0.0000 0.0000 0.0000 0.0000 17.8983 0.0000
# 6 0.0000 0.0000 0.0000 0.0000 0.0000 15.5826
#
#
#
# Elastic Compliance Matrix: (Units=1/GPa)
#
#
# Indices 1 2 3 4 5 6 
#
# 1 0.024873 -0.007214 -0.004339 0.000000 0.000000 0.000000
# 2 -0.007214 0.024873 -0.004339 0.000000 0.000000 0.000000
# 3 -0.004339 -0.004339 0.012448 0.000000 0.000000 0.000000
# 4 0.000000 0.000000 0.000000 0.055871 0.000000 0.000000
# 5 0.000000 0.000000 0.000000 0.000000 0.055871 0.000000
# 6 0.000000 0.000000 0.000000 0.000000 0.000000 0.064174
#
#
# Mechanical properties :
#
#
# Convention : Reuss Voigt Hill
#
# Bulk Modulus (GPa) = 32.88259 36.54023 34.71141
# Shear Modulus (GPa) = 17.85520 18.95687 18.40603
#
# Velocity S-wave (km/s) = 3.11601 3.21070 3.16371
# Velocity P-wave (km/s) = 5.55223 5.79785 5.67637
#
# Compressibility (1/GPa) = 0.03041123
#
# Stress axis : x y z
#
# Youngs Moduli (GPa) = 40.20438 40.20438 80.33207
#
# Poissons Ratio (x) = 0.29004 0.34854
# Poissons Ratio (y) = 0.29004 0.34854
# Poissons Ratio (z) = 0.17443 0.17443
#
# Static dielectric constant tensor:
#      x y z
#    x 1.625210 0.000000 0.000000 
#    y 0.000000 1.625210 0.000000 
#    z 0.000000 0.000000 1.694330 
# 
# From -- ./inp_files/9394.got.cif
#   From: 2010.05.17/outbox.cif.g08.bks.cpg/sg178_5_cif.got.tgz:9394.got - 2010.05.20 11:30:59.
