data_PCOD9582355
_publ_section_title
;
Structure prediction by ZEFSAII (Michael W. Deem and Ramdas Pophale) SiO2 
 PCOD9582355
Probable space group: P 61 2 2
;
_chemical_formula_sum "Si O2"
_cell_formula_units_Z 48
_cell_length_a 17.408423
_cell_length_b 17.408423
_cell_length_c 7.883087
_cell_angle_alpha 90.000000
_cell_angle_beta 90.000000
_cell_angle_gamma 120.000000
_cell_volume 2068.930076
_symmetry_space_group_name_H-M "P 61 2 2"
_symmetry_group_IT_number 178
_symmetry_cell_setting 'hexagonal'
loop_
_space_group_symop_operation_xyz
x,y,z
x-y,x,1/6+z
-y,x-y,1/3+z
-x,-y,1/2+z
-x+y,-x,2/3+z
y,-x+y,5/6+z
x-y,-y,-z
-x,-x+y,2/3-z
y,x,1/3-z
-y,-x,5/6-z
-x+y,y,1/2-z
x,x-y,1/6-z
loop_
_atom_site_type_symbol
_atom_site_label
_atom_site_fract_x
_atom_site_fract_y
_atom_site_fract_z
Si Si1 0.684435 0.551000 0.252881
Si Si2 0.646465 0.957850 0.735993
Si Si3 0.029511 0.177170 0.025626
Si Si4 0.900860 0.479276 0.774228
O O1 0.776269 0.552538 0.250000
O O2 0.670777 0.609945 0.397267
O O3 0.602937 0.449649 0.232503
O O4 0.687810 0.600141 0.078322
O O5 0.731474 0.946571 0.717226
O O6 0.573767 0.907797 0.589424
O O7 0.102733 0.151140 0.974028
O O8 0.000000 0.186872 0.833334
O O9 0.883351 0.441676 0.583334
O O10 0.000000 0.507461 0.833334
#
# Coordination Sequence:
#
# PCOD9582355 Si02
#       4
#    12  12  12  12
#     4  10  17  29  53  89 128 170 222 278 324 387
#     4  10  18  30  56  92 131 167 224 277 317 393
#     4  10  19  33  58  94 130 174 222 267 326 405
#     4  10  18  34  55  91 127 168 222 273 334 383
#
# _framework density 23.200396000000001
#
# number of rings (size 3 to 8) (size 9 to 14) (size 15 to 20)
#    0.000    2.000    7.500    1.500    0.000    0.000 
#    0.000    0.000    0.000   24.000    0.000   28.000 
#    0.000    0.000    0.000    0.000    0.000    0.000 
#
# Total GULP energy -267348.609628 kJ/mol
# GULP energy per Si atom -5569.762701 kJ/mol
# Density = 2.314759 g / cm^3
# Si number density = 23.200396 Si / 1000 Ang^3
#
#
#
# Elastic Constant Matrix: (Units=GPa)
#
#
# Indices 1 2 3 4 5 6 
#
# 1 124.5694 98.8996 44.6941 0.0000 0.0000 0.0000
# 2 98.8996 124.5694 44.6941 0.0000 0.0000 0.0000
# 3 44.6941 44.6941 110.6040 0.0000 0.0000 0.0000
# 4 0.0000 0.0000 0.0000 -67.9993 0.0000 0.0000
# 5 0.0000 0.0000 0.0000 0.0000 -67.9993 0.0000
# 6 0.0000 0.0000 0.0000 0.0000 0.0000 12.8349
#
#
#
# Elastic Compliance Matrix: (Units=1/GPa)
#
#
# Indices 1 2 3 4 5 6 
#
# 1 0.022147 -0.016809 -0.002157 0.000000 0.000000 0.000000
# 2 -0.016809 0.022147 -0.002157 0.000000 0.000000 0.000000
# 3 -0.002157 -0.002157 0.010784 0.000000 0.000000 0.000000
# 4 0.000000 0.000000 0.000000 -0.014706 0.000000 0.000000
# 5 0.000000 0.000000 0.000000 0.000000 -0.014706 0.000000
# 6 0.000000 0.000000 0.000000 0.000000 0.000000 0.077913
#
#
# Mechanical properties :
#
#
# Convention : Reuss Voigt Hill
#
# Bulk Modulus (GPa) = 77.92930 81.81318 79.87124
# Shear Modulus (GPa) = 33.31056 -13.20242 10.05407
#
# Velocity S-wave (km/s) = 3.79327 -2.38809 2.08398
# Velocity P-wave (km/s) = 7.26965 5.26653 6.34760
#
# Compressibility (1/GPa) = 0.01283214
#
# Stress axis : x y z
#
# Youngs Moduli (GPa) = 45.15289 45.15289 92.72624
#
# Poissons Ratio (x) = 0.75899 0.20000
# Poissons Ratio (y) = 0.75899 0.20000
# Poissons Ratio (z) = 0.09739 0.09739
#
# Static dielectric constant tensor:
#      x y z
#    x 1.952470 0.000000 0.000000 
#    y 0.000000 1.952470 0.000000 
#    z 0.000000 0.000000 1.966860 
# 
# From -- ./inp_files/2605.got.cif
#   From: 2010.05.17/outbox.cif.g08.bks.cpg/sg178_2_cif.got.tgz:2605.got - 2010.05.20 11:30:59.
