data_PCOD9582505
_publ_section_title
;
Structure prediction by ZEFSAII (Michael W. Deem and Ramdas Pophale) SiO2 
 PCOD9582505
Probable space group: P 61 2 2
;
_chemical_formula_sum "Si O2"
_cell_formula_units_Z 84
_cell_length_a 19.506059
_cell_length_b 19.506059
_cell_length_c 12.181122
_cell_angle_alpha 90.000000
_cell_angle_beta 90.000000
_cell_angle_gamma 120.000000
_cell_volume 4013.811672
_symmetry_space_group_name_H-M "P 61 2 2"
_symmetry_group_IT_number 178
_symmetry_cell_setting 'hexagonal'
loop_
_space_group_symop_operation_xyz
x,y,z
x-y,x,1/6+z
-y,x-y,1/3+z
-x,-y,1/2+z
-x+y,-x,2/3+z
y,-x+y,5/6+z
x-y,-y,-z
-x,-x+y,2/3-z
y,x,1/3-z
-y,-x,5/6-z
-x+y,y,1/2-z
x,x-y,1/6-z
loop_
_atom_site_type_symbol
_atom_site_label
_atom_site_fract_x
_atom_site_fract_y
_atom_site_fract_z
Si Si1 0.569796 0.858885 0.971400
Si Si2 0.346828 0.693655 0.250000
Si Si3 0.281384 0.128402 0.892361
Si Si4 0.286697 0.427218 0.198096
Si Si5 0.404679 0.598784 0.705913
Si Si6 0.050809 0.689193 0.082836
Si Si7 0.000000 0.880824 0.833334
Si Si8 0.634389 0.881402 0.194715
O O1 0.587195 0.904577 0.857285
O O2 0.563577 0.773028 0.951693
O O3 0.495734 0.855090 0.033152
O O4 0.639045 0.894035 0.063507
O O5 0.368920 0.749847 0.144899
O O6 0.253685 0.635521 0.269377
O O7 0.296342 0.216435 0.914987
O O8 0.295546 0.118652 0.764726
O O9 0.198719 0.062103 0.937359
O O10 0.351588 0.122718 0.957121
O O11 0.226553 0.453105 0.250000
O O12 0.355708 0.501460 0.136378
O O13 0.322364 0.404167 0.300592
O O14 0.957466 0.633164 0.093225
O O15 0.950725 0.901449 0.750000
#
# Coordination Sequence:
#
# PCOD9582505 Si02
#       8
#    12   6  12  12  12  12   6  12
#     4  10  23  37  60  89 124 178 221 266 341 412
#     4  10  22  34  58  90 124 164 214 282 348 436
#     4  10  21  37  68 101 127 166 223 275 342 399
#     4  10  21  37  61  98 125 161 216 294 341 408
#     4  11  23  37  61  91 125 171 222 278 359 418
#     4  10  21  37  64  89 130 165 220 281 336 399
#     4  12  24  44  76 106 148 188 224 280 350 408
#     4  10  19  38  63  87 124 168 219 275 329 411
#
# _framework density 20.927738999999999
#
# number of rings (size 3 to 8) (size 9 to 14) (size 15 to 20)
#    0.000    1.714    0.714    5.143    8.000    0.571 
#    0.000    0.000   31.429    0.000    0.000    0.000 
#    0.000    0.000    0.000    0.000    0.000    0.000 
#
# Total GULP energy -468735.094979 kJ/mol
# GULP energy per Si atom -5580.179702 kJ/mol
# Density = 2.088011 g / cm^3
# Si number density = 20.927739 Si / 1000 Ang^3
#
#
#
# Elastic Constant Matrix: (Units=GPa)
#
#
# Indices 1 2 3 4 5 6 
#
# 1 85.6066 42.9028 41.3387 0.0000 0.0000 0.0000
# 2 42.9028 85.6066 41.3387 0.0000 0.0000 0.0000
# 3 41.3387 41.3387 104.6616 0.0000 0.0000 0.0000
# 4 0.0000 0.0000 0.0000 24.7126 0.0000 0.0000
# 5 0.0000 0.0000 0.0000 0.0000 24.7126 0.0000
# 6 0.0000 0.0000 0.0000 0.0000 0.0000 21.3519
#
#
#
# Elastic Compliance Matrix: (Units=1/GPa)
#
#
# Indices 1 2 3 4 5 6 
#
# 1 0.016925 -0.006492 -0.004121 0.000000 0.000000 0.000000
# 2 -0.006492 0.016925 -0.004121 0.000000 0.000000 0.000000
# 3 -0.004121 -0.004121 0.012810 0.000000 0.000000 0.000000
# 4 0.000000 0.000000 0.000000 0.040465 0.000000 0.000000
# 5 0.000000 0.000000 0.000000 0.000000 0.040465 0.000000
# 6 0.000000 0.000000 0.000000 0.000000 0.000000 0.046834
#
#
# Mechanical properties :
#
#
# Convention : Reuss Voigt Hill
#
# Bulk Modulus (GPa) = 58.16530 58.55947 58.36238
# Shear Modulus (GPa) = 23.85250 24.17507 24.01379
#
# Velocity S-wave (km/s) = 3.37969 3.40246 3.39110
# Velocity P-wave (km/s) = 6.56380 6.59380 6.57882
#
# Compressibility (1/GPa) = 0.01719238
#
# Stress axis : x y z
#
# Youngs Moduli (GPa) = 59.08478 59.08478 78.06615
#
# Poissons Ratio (x) = 0.38360 0.32168
# Poissons Ratio (y) = 0.38360 0.32168
# Poissons Ratio (z) = 0.24346 0.24346
#
# Static dielectric constant tensor:
#      x y z
#    x 1.786260 0.000000 0.000000 
#    y 0.000000 1.786260 0.000000 
#    z 0.000000 0.000000 1.801700 
# 
# From -- ./inp_files/4823.got.cif
#   From: 2010.05.17/outbox.cif.g08.bks.cpg/sg178_3_cif.got.tgz:4823.got - 2010.05.20 11:30:59.
