data_PCOD9582228
_publ_section_title
;
Structure prediction by ZEFSAII (Michael W. Deem and Ramdas Pophale) SiO2 
 PCOD9582228
Probable space group: P 6 2 2
;
_chemical_formula_sum "Si O2"
_cell_formula_units_Z 84
_cell_length_a 17.635549
_cell_length_b 17.635549
_cell_length_c 15.087448
_cell_angle_alpha 90.000000
_cell_angle_beta 90.000000
_cell_angle_gamma 120.000000
_cell_volume 4063.725703
_symmetry_space_group_name_H-M "P 6 2 2"
_symmetry_group_IT_number 177
_symmetry_cell_setting 'hexagonal'
loop_
_space_group_symop_operation_xyz
x,y,z
x-y,x,z
-y,x-y,z
-x,-y,z
-x+y,-x,z
y,-x+y,z
x-y,-y,-z
-x,-x+y,-z
y,x,-z
-y,-x,-z
-x+y,y,-z
x,x-y,-z
loop_
_atom_site_type_symbol
_atom_site_label
_atom_site_fract_x
_atom_site_fract_y
_atom_site_fract_z
Si Si1 0.822203 0.526665 0.735090
Si Si2 0.414413 0.998789 0.633065
Si Si3 0.850300 0.149701 0.000000
Si Si4 0.399260 0.338392 0.073493
Si Si5 0.150456 0.517006 0.229523
Si Si6 0.705065 0.928014 0.172252
Si Si7 0.153412 0.198193 0.358951
Si Si8 0.292038 0.292038 0.500000
O O1 0.720079 0.494807 0.721143
O O2 0.826647 0.443449 0.770738
O O3 0.851204 0.608129 0.801665
O O4 0.900201 0.561693 0.660538
O O5 0.455882 0.060145 0.718255
O O6 0.371936 0.041096 0.569998
O O7 0.500000 0.000000 0.594366
O O8 0.889312 0.250840 0.982523
O O9 0.847332 0.100814 0.908399
O O10 0.481409 0.353874 0.129933
O O11 0.317306 0.312482 0.140130
O O12 0.409006 0.409006 0.000000
O O13 0.760227 0.949231 0.262115
O O14 0.169415 0.116765 0.367960
O O15 0.209296 0.265547 0.436967
#
# Coordination Sequence:
#
# PCOD9582228 Si02
#       8
#    12  12   6  12  12  12  12   6
#     4  11  22  39  66  92 128 171 217 268 340 404
#     4  10  23  41  67  98 134 175 221 279 333 392
#     4  10  20  36  60  94 127 164 218 289 334 378
#     4  10  20  34  59  86 120 161 213 272 329 385
#     4  11  22  40  64  91 130 171 214 269 335 407
#     4  11  21  39  67  94 122 172 227 280 325 403
#     4  12  27  44  67  97 140 177 223 276 350 414
#     4  12  23  40  69 102 130 172 224 268 329 402
#
# _framework density 20.670686
#
# number of rings (size 3 to 8) (size 9 to 14) (size 15 to 20)
#    0.000    1.143    4.286    1.929    2.000    1.143 
#    0.000    5.714    0.000    0.000    0.000    3.000 
#    0.000    0.000    0.000    0.000    0.000    0.000 
#
# Total GULP energy -468176.035019 kJ/mol
# GULP energy per Si atom -5573.524226 kJ/mol
# Density = 2.062364 g / cm^3
# Si number density = 20.670686 Si / 1000 Ang^3
#
#
#
# Elastic Constant Matrix: (Units=GPa)
#
#
# Indices 1 2 3 4 5 6 
#
# 1 88.7018 48.6539 29.4982 0.0000 0.0000 0.0000
# 2 48.6539 88.7018 29.4982 0.0000 0.0000 0.0000
# 3 29.4982 29.4982 98.2306 0.0000 0.0000 0.0000
# 4 0.0000 0.0000 0.0000 -9.4512 0.0000 0.0000
# 5 0.0000 0.0000 0.0000 0.0000 -9.4512 0.0000
# 6 0.0000 0.0000 0.0000 0.0000 0.0000 20.0240
#
#
#
# Elastic Compliance Matrix: (Units=1/GPa)
#
#
# Indices 1 2 3 4 5 6 
#
# 1 0.016664 -0.008306 -0.002510 0.000000 0.000000 0.000000
# 2 -0.008306 0.016664 -0.002510 0.000000 0.000000 0.000000
# 3 -0.002510 -0.002510 0.011688 0.000000 0.000000 0.000000
# 4 0.000000 0.000000 0.000000 -0.105807 0.000000 0.000000
# 5 0.000000 0.000000 0.000000 0.000000 -0.105807 0.000000
# 6 0.000000 0.000000 0.000000 0.000000 0.000000 0.049940
#
#
# Mechanical properties :
#
#
# Convention : Reuss Voigt Hill
#
# Bulk Modulus (GPa) = 54.45290 54.54833 54.50062
# Shear Modulus (GPa) = -59.60552 11.42326 -24.09113
#
# Velocity S-wave (km/s) = -5.37572 2.35336 -3.41761
# Velocity P-wave (km/s) = 3.48295 5.81644 3.29393
#
# Compressibility (1/GPa) = 0.01836449
#
# Stress axis : x y z
#
# Youngs Moduli (GPa) = 60.00862 60.00862 85.56071
#
# Poissons Ratio (x) = 0.49842 0.21476
# Poissons Ratio (y) = 0.49842 0.21476
# Poissons Ratio (z) = 0.15062 0.15062
#
# Static dielectric constant tensor:
#      x y z
#    x 1.781460 0.000000 0.000000 
#    y 0.000000 1.781460 0.000000 
#    z 0.000000 0.000000 1.839900 
# 
# From -- ./inp_files/2668.got.cif
#   From: 2010.05.17/outbox.cif.g08.bks.cpg/sg177_2_cif.got.tgz:2668.got - 2010.05.20 11:28:44.
