data_PCOD9582626
_publ_section_title
;
Structure prediction by ZEFSAII (Michael W. Deem and Ramdas Pophale) SiO2 
 PCOD9582626
Probable space group: P 61 2 2
;
_chemical_formula_sum "Si O2"
_cell_formula_units_Z 66
_cell_length_a 20.897880
_cell_length_b 20.897880
_cell_length_c 9.836217
_cell_angle_alpha 90.000000
_cell_angle_beta 90.000000
_cell_angle_gamma 120.000000
_cell_volume 3720.173502
_symmetry_space_group_name_H-M "P 61 2 2"
_symmetry_group_IT_number 178
_symmetry_cell_setting 'hexagonal'
loop_
_space_group_symop_operation_xyz
x,y,z
x-y,x,1/6+z
-y,x-y,1/3+z
-x,-y,1/2+z
-x+y,-x,2/3+z
y,-x+y,5/6+z
x-y,-y,-z
-x,-x+y,2/3-z
y,x,1/3-z
-y,-x,5/6-z
-x+y,y,1/2-z
x,x-y,1/6-z
loop_
_atom_site_type_symbol
_atom_site_label
_atom_site_fract_x
_atom_site_fract_y
_atom_site_fract_z
Si Si1 0.926337 0.852673 0.750000
Si Si2 0.874427 0.645992 0.126674
Si Si3 0.606091 0.094041 0.155216
Si Si4 0.396999 0.478308 0.826481
Si Si5 0.403522 0.238040 0.949782
Si Si6 0.768637 0.746931 0.826046
O O1 0.901952 0.901952 0.666667
O O2 0.856638 0.800043 0.846129
O O3 0.827678 0.655355 0.250000
O O4 0.883446 0.574007 0.149226
O O5 0.828987 0.630471 0.988377
O O6 0.954308 0.717719 0.093401
O O7 0.556160 0.112320 0.250000
O O8 0.689418 0.147703 0.200367
O O9 0.577130 0.006880 0.178676
O O10 0.594162 0.098523 0.995871
O O11 0.449210 0.550791 0.916667
O O12 0.432950 0.216475 0.083334
O O13 0.336707 0.250527 0.993839
O O14 0.757576 0.757576 0.666667
#
# Coordination Sequence:
#
# PCOD9582626 Si02
#       6
#     6  12  12  12  12  12
#     4  10  20  40  56  78 118 168 226 274 326 392
#     4  12  24  39  63  97 133 167 209 273 336 388
#     4  10  22  39  60  90 124 157 205 253 306 375
#     4  10  22  40  62  89 127 163 196 258 320 377
#     4  12  22  37  63  94 124 168 211 260 315 380
#     4  11  21  39  62  88 122 168 221 274 329 388
#
# _framework density 17.741109000000002
#
# number of rings (size 3 to 8) (size 9 to 14) (size 15 to 20)
#    0.000    1.091    6.364    1.091    2.545    0.727 
#    1.636    0.000    0.000    2.182    0.000    0.000 
#    0.000    0.000    0.000    0.000    0.000    0.000 
#
# Total GULP energy -368058.577026 kJ/mol
# GULP energy per Si atom -5576.645106 kJ/mol
# Density = 1.770073 g / cm^3
# Si number density = 17.741109 Si / 1000 Ang^3
#
#
#
# Elastic Constant Matrix: (Units=GPa)
#
#
# Indices 1 2 3 4 5 6 
#
# 1 86.3968 31.7114 34.0324 0.0000 0.0000 0.0000
# 2 31.7114 86.3968 34.0324 0.0000 0.0000 0.0000
# 3 34.0324 34.0324 88.3385 0.0000 0.0000 0.0000
# 4 0.0000 0.0000 0.0000 20.3684 0.0000 0.0000
# 5 0.0000 0.0000 0.0000 0.0000 20.3684 0.0000
# 6 0.0000 0.0000 0.0000 0.0000 0.0000 27.3427
#
#
#
# Elastic Compliance Matrix: (Units=1/GPa)
#
#
# Indices 1 2 3 4 5 6 
#
# 1 0.014585 -0.003702 -0.004193 0.000000 0.000000 0.000000
# 2 -0.003702 0.014585 -0.004193 0.000000 0.000000 0.000000
# 3 -0.004193 -0.004193 0.014551 0.000000 0.000000 0.000000
# 4 0.000000 0.000000 0.000000 0.049096 0.000000 0.000000
# 5 0.000000 0.000000 0.000000 0.000000 0.049096 0.000000
# 6 0.000000 0.000000 0.000000 0.000000 0.000000 0.036573
#
#
# Mechanical properties :
#
#
# Convention : Reuss Voigt Hill
#
# Bulk Modulus (GPa) = 51.16172 51.18717 51.17444
# Shear Modulus (GPa) = 23.90359 24.37296 24.13827
#
# Velocity S-wave (km/s) = 3.67462 3.71052 3.69261
# Velocity P-wave (km/s) = 6.84867 6.87548 6.86209
#
# Compressibility (1/GPa) = 0.01954586
#
# Stress axis : x y z
#
# Youngs Moduli (GPa) = 68.56490 68.56490 68.72587
#
# Poissons Ratio (x) = 0.25381 0.28815
# Poissons Ratio (y) = 0.25381 0.28815
# Poissons Ratio (z) = 0.28747 0.28747
#
# Static dielectric constant tensor:
#      x y z
#    x 1.622190 0.000000 0.000000 
#    y 0.000000 1.622190 0.000000 
#    z 0.000000 0.000000 2.106980 
# 
# From -- ./inp_files/3257.got.cif
#   From: 2010.05.17/outbox.cif.g08.bks.cpg/sg178_2_cif.got.tgz:3257.got - 2010.05.20 11:30:59.
