data_PCOD9582633
_publ_section_title
;
Structure prediction by ZEFSAII (Michael W. Deem and Ramdas Pophale) SiO2 
 PCOD9582633
Probable space group: P 61 2 2
;
_chemical_formula_sum "Si O2"
_cell_formula_units_Z 60
_cell_length_a 15.795892
_cell_length_b 15.795892
_cell_length_c 12.057948
_cell_angle_alpha 90.000000
_cell_angle_beta 90.000000
_cell_angle_gamma 120.000000
_cell_volume 2605.507633
_symmetry_space_group_name_H-M "P 61 2 2"
_symmetry_group_IT_number 178
_symmetry_cell_setting 'hexagonal'
loop_
_space_group_symop_operation_xyz
x,y,z
x-y,x,1/6+z
-y,x-y,1/3+z
-x,-y,1/2+z
-x+y,-x,2/3+z
y,-x+y,5/6+z
x-y,-y,-z
-x,-x+y,2/3-z
y,x,1/3-z
-y,-x,5/6-z
-x+y,y,1/2-z
x,x-y,1/6-z
loop_
_atom_site_type_symbol
_atom_site_label
_atom_site_fract_x
_atom_site_fract_y
_atom_site_fract_z
Si Si1 0.663051 0.440849 0.523549
Si Si2 0.832117 0.913035 0.255739
Si Si3 0.126312 0.467447 0.062981
Si Si4 0.358355 0.464029 0.688351
Si Si5 0.285489 0.355875 0.913796
O O1 0.631906 0.368095 0.416667
O O2 0.760442 0.474276 0.595692
O O3 0.569147 0.389234 0.600402
O O4 0.675623 0.542520 0.477461
O O5 0.877676 0.896708 0.366246
O O6 0.838478 0.838478 0.166667
O O7 0.726166 0.901187 0.271145
O O8 0.088358 0.544179 0.083334
O O9 0.043871 0.362383 0.105742
O O10 0.137418 0.451013 0.932297
O O11 0.452260 0.452260 0.666667
O O12 0.296806 0.385690 0.783136
#
# Coordination Sequence:
#
# PCOD9582633 Si02
#       5
#    12  12  12  12  12
#     4  10  22  36  58  87 124 161 205 265 316 385
#     4  10  22  38  64  96 128 162 202 271 330 388
#     4  11  23  36  61  88 124 170 208 261 314 396
#     4   9  20  38  59  84 121 162 206 264 317 374
#     4  10  20  40  62  92 120 160 218 262 323 373
#
# _framework density 23.028143
#
# number of rings (size 3 to 8) (size 9 to 14) (size 15 to 20)
#    0.000    2.000    0.000    4.200    2.800   12.800 
#    0.000    0.000    0.000   40.800    0.000    0.000 
#    0.000    0.000    0.000    0.000    0.000    0.000 
#
# Total GULP energy -335265.136798 kJ/mol
# GULP energy per Si atom -5587.752280 kJ/mol
# Density = 2.297573 g / cm^3
# Si number density = 23.028143 Si / 1000 Ang^3
#
#
#
# Elastic Constant Matrix: (Units=GPa)
#
#
# Indices 1 2 3 4 5 6 
#
# 1 134.0856 48.1566 11.7126 0.0000 0.0000 0.0000
# 2 48.1566 134.0856 11.7126 0.0000 0.0000 0.0000
# 3 11.7126 11.7126 32.7988 0.0000 0.0000 0.0000
# 4 0.0000 0.0000 0.0000 24.3154 0.0000 0.0000
# 5 0.0000 0.0000 0.0000 0.0000 24.3154 0.0000
# 6 0.0000 0.0000 0.0000 0.0000 0.0000 42.9645
#
#
#
# Elastic Compliance Matrix: (Units=1/GPa)
#
#
# Indices 1 2 3 4 5 6 
#
# 1 0.008694 -0.002943 -0.002054 0.000000 0.000000 0.000000
# 2 -0.002943 0.008694 -0.002054 0.000000 0.000000 0.000000
# 3 -0.002054 -0.002054 0.031956 0.000000 0.000000 0.000000
# 4 0.000000 0.000000 0.000000 0.041126 0.000000 0.000000
# 5 0.000000 0.000000 0.000000 0.000000 0.041126 0.000000
# 6 0.000000 0.000000 0.000000 0.000000 0.000000 0.023275
#
#
# Mechanical properties :
#
#
# Convention : Reuss Voigt Hill
#
# Bulk Modulus (GPa) = 28.37439 49.34817 38.86128
# Shear Modulus (GPa) = 27.66697 33.61163 30.63930
#
# Velocity S-wave (km/s) = 3.46994 3.82460 3.65158
# Velocity P-wave (km/s) = 5.32939 6.40152 5.88990
#
# Compressibility (1/GPa) = 0.03524305
#
# Stress axis : x y z
#
# Youngs Moduli (GPa) = 115.01724 115.01724 31.29325
#
# Poissons Ratio (x) = 0.33851 0.06427
# Poissons Ratio (y) = 0.33851 0.06427
# Poissons Ratio (z) = 0.23622 0.23622
#
# Static dielectric constant tensor:
#      x y z
#    x 1.920130 0.000000 0.000000 
#    y 0.000000 1.920130 0.000000 
#    z 0.000000 0.000000 1.903830 
# 
# From -- ./inp_files/5679.got.cif
#   From: 2010.05.17/outbox.cif.g08.bks.cpg/sg178_3_cif.got.tgz:5679.got - 2010.05.20 11:30:59.
