data_PCOD9582039
_publ_section_title
;
Structure prediction by ZEFSAII (Michael W. Deem and Ramdas Pophale) SiO2 
 PCOD9582039
Probable space group: P 63/M
;
_chemical_formula_sum "Si O2"
_cell_formula_units_Z 66
_cell_length_a 20.616805
_cell_length_b 20.616805
_cell_length_c 8.004313
_cell_angle_alpha 90.000000
_cell_angle_beta 90.000000
_cell_angle_gamma 120.000000
_cell_volume 2946.438775
_symmetry_space_group_name_H-M "P 63/M"
_symmetry_group_IT_number 176
_symmetry_cell_setting 'hexagonal'
loop_
_space_group_symop_operation_xyz
x,y,z
x-y,x,1/2+z
-y,x-y,z
-x,-y,1/2+z
-x+y,-x,z
y,-x+y,1/2+z
-x,-y,-z
-x+y,-x,1/2-z
y,-x+y,-z
x,y,1/2-z
x-y,x,-z
-y,x-y,1/2-z
loop_
_atom_site_type_symbol
_atom_site_label
_atom_site_fract_x
_atom_site_fract_y
_atom_site_fract_z
Si Si1 0.251307 0.671213 0.250000
Si Si2 0.153076 0.817376 0.952456
Si Si3 0.865404 0.551393 0.441366
Si Si4 0.545745 0.152859 0.053855
Si Si5 0.082246 0.168151 0.441859
Si Si6 0.377634 0.029498 0.052761
O O1 0.262683 0.598686 0.250000
O O2 0.209937 0.666576 0.421635
O O3 0.155946 0.816968 0.750000
O O4 0.231413 0.827924 0.020057
O O5 0.083989 0.737130 0.002575
O O6 0.137588 0.883384 0.003992
O O7 0.839099 0.536561 0.250000
O O8 0.856277 0.472602 0.496794
O O9 0.953440 0.610383 0.452411
O O10 0.552334 0.176040 0.250000
O O11 0.467537 0.076089 0.038173
O O12 0.121627 0.128872 0.538878
O O13 0.102174 0.167564 0.250000
O O14 0.359654 0.011846 0.250000
#
# Coordination Sequence:
#
# PCOD9582039 Si02
#       6
#     6  12  12  12  12  12
#     4  10  26  42  62 102 128 160 218 264 314 388
#     4  10  22  40  62  93 129 163 213 260 315 381
#     4  10  22  39  63  92 125 169 212 262 320 375
#     4  10  23  43  66  93 131 172 211 267 326 379
#     4  12  25  43  65  93 125 166 206 257 313 376
#     4  10  22  39  63  92 125 169 212 262 320 375
#
# _framework density 22.399923000000001
#
# number of rings (size 3 to 8) (size 9 to 14) (size 15 to 20)
#    0.182    1.455    0.000    3.455    5.091    5.091 
#    0.000    0.000    0.000    0.000    0.000    0.000 
#    0.000    0.000    0.000    0.000    0.000    0.000 
#
# Total GULP energy -368786.223639 kJ/mol
# GULP energy per Si atom -5587.670055 kJ/mol
# Density = 2.234894 g / cm^3
# Si number density = 22.399923 Si / 1000 Ang^3
#
#
#
# Elastic Constant Matrix: (Units=GPa)
#
#
# Indices 1 2 3 4 5 6 
#
# 1 84.0786 13.2182 12.2276 0.0000 0.0000 0.0000
# 2 13.2182 84.0786 12.2276 0.0000 0.0000 0.0000
# 3 12.2276 12.2276 41.3245 0.0000 0.0000 0.0000
# 4 0.0000 0.0000 0.0000 -114.2814 0.0000 0.0000
# 5 0.0000 0.0000 0.0000 0.0000 -114.2814 0.0000
# 6 0.0000 0.0000 0.0000 0.0000 0.0000 35.4302
#
#
#
# Elastic Compliance Matrix: (Units=1/GPa)
#
#
# Indices 1 2 3 4 5 6 
#
# 1 0.012608 -0.001504 -0.003285 0.000000 0.000000 0.000000
# 2 -0.001504 0.012608 -0.003285 0.000000 0.000000 0.000000
# 3 -0.003285 -0.003285 0.026143 0.000000 0.000000 0.000000
# 4 0.000000 0.000000 0.000000 -0.008750 0.000000 0.000000
# 5 0.000000 0.000000 0.000000 0.000000 -0.008750 0.000000
# 6 0.000000 0.000000 0.000000 0.000000 0.000000 0.028225
#
#
# Mechanical properties :
#
#
# Convention : Reuss Voigt Hill
#
# Bulk Modulus (GPa) = 28.40237 31.64761 30.02499
# Shear Modulus (GPa) = 55.57446 -27.17265 14.20090
#
# Velocity S-wave (km/s) = 4.98638 -3.48669 2.52061
# Velocity P-wave (km/s) = 6.77194 1.43187 4.68022
#
# Compressibility (1/GPa) = 0.03520833
#
# Stress axis : x y z
#
# Youngs Moduli (GPa) = 79.31508 79.31508 38.25118
#
# Poissons Ratio (x) = 0.11931 0.12567
# Poissons Ratio (y) = 0.11931 0.12567
# Poissons Ratio (z) = 0.26059 0.26059
#
# Static dielectric constant tensor:
#      x y z
#    x 1.815390 0.000000 0.000000 
#    y 0.000000 1.815390 0.000000 
#    z 0.000000 0.000000 1.834850 
# 
# From -- ./inp_files/1028.got.cif
#   From: 2010.05.17/outbox.cif.g08.bks.cpg/sg176_1_cif.got.tgz:1028.got - 2010.06.03 11:36:45.
