data_PCOD9582477
_publ_section_title
;
Structure prediction by ZEFSAII (Michael W. Deem and Ramdas Pophale) SiO2 
 PCOD9582477
Probable space group: P 61 2 2
;
_chemical_formula_sum "Si O2"
_cell_formula_units_Z 42
_cell_length_a 8.528860
_cell_length_b 8.528860
_cell_length_c 29.180644
_cell_angle_alpha 90.000000
_cell_angle_beta 90.000000
_cell_angle_gamma 120.000000
_cell_volume 1838.262277
_symmetry_space_group_name_H-M "P 61 2 2"
_symmetry_group_IT_number 178
_symmetry_cell_setting 'hexagonal'
loop_
_space_group_symop_operation_xyz
x,y,z
x-y,x,1/6+z
-y,x-y,1/3+z
-x,-y,1/2+z
-x+y,-x,2/3+z
y,-x+y,5/6+z
x-y,-y,-z
-x,-x+y,2/3-z
y,x,1/3-z
-y,-x,5/6-z
-x+y,y,1/2-z
x,x-y,1/6-z
loop_
_atom_site_type_symbol
_atom_site_label
_atom_site_fract_x
_atom_site_fract_y
_atom_site_fract_z
Si Si1 0.567225 0.807505 0.723967
Si Si2 0.990919 0.603330 0.970335
Si Si3 0.533962 0.802659 0.002341
Si Si4 0.334310 0.668619 0.250000
O O1 0.421000 0.841999 0.750000
O O2 0.666955 0.767499 0.765253
O O3 0.452586 0.617183 0.695682
O O4 0.667819 0.965146 0.686237
O O5 0.180789 0.639748 0.951730
O O6 0.875978 0.384867 0.973933
O O7 0.503726 0.739160 0.949373
O O8 0.711221 0.000000 0.000000
#
# Coordination Sequence:
#
# PCOD9582477 Si02
#       4
#    12  12  12   6
#     4   9  19  35  55  92 127 171 228 289 349 412
#     4  10  20  34  60  92 131 171 229 299 347 414
#     4  10  19  34  57  90 128 167 224 289 347 409
#     4  10  20  34  58  94 124 170 228 290 338 416
#
# _framework density 22.847664999999999
#
# number of rings (size 3 to 8) (size 9 to 14) (size 15 to 20)
#    0.000    2.286    2.857    0.000    2.000    0.000 
#    0.000    0.000    0.000    0.000   66.857    0.000 
#    0.000    0.000    0.000    0.000    0.000    0.000 
#
# Total GULP energy -233807.509987 kJ/mol
# GULP energy per Si atom -5566.845476 kJ/mol
# Density = 2.279566 g / cm^3
# Si number density = 22.847665 Si / 1000 Ang^3
#
#
#
# Elastic Constant Matrix: (Units=GPa)
#
#
# Indices 1 2 3 4 5 6 
#
# 1 62.1088 -0.0019 25.2329 0.0000 0.0000 0.0000
# 2 -0.0019 62.1088 25.2329 0.0000 0.0000 0.0000
# 3 25.2329 25.2329 142.2256 0.0000 0.0000 0.0000
# 4 0.0000 0.0000 0.0000 -132.1648 0.0000 0.0000
# 5 0.0000 0.0000 0.0000 0.0000 -132.1648 0.0000
# 6 0.0000 0.0000 0.0000 0.0000 0.0000 31.0553
#
#
#
# Elastic Compliance Matrix: (Units=1/GPa)
#
#
# Indices 1 2 3 4 5 6 
#
# 1 0.017457 0.001357 -0.003338 0.000000 0.000000 0.000000
# 2 0.001357 0.017457 -0.003338 0.000000 0.000000 0.000000
# 3 -0.003338 -0.003338 0.008215 0.000000 0.000000 0.000000
# 4 0.000000 0.000000 0.000000 -0.007566 0.000000 0.000000
# 5 0.000000 0.000000 0.000000 0.000000 -0.007566 0.000000
# 6 0.000000 0.000000 0.000000 0.000000 0.000000 0.032201
#
#
# Mechanical properties :
#
#
# Convention : Reuss Voigt Hill
#
# Bulk Modulus (GPa) = 30.77759 40.81899 35.79829
# Shear Modulus (GPa) = 61.22535 -32.25626 14.48455
#
# Velocity S-wave (km/s) = 5.18222 -3.76146 2.52059
# Velocity P-wave (km/s) = 7.02191 0.97996 4.91665
#
# Compressibility (1/GPa) = 0.03249117
#
# Stress axis : x y z
#
# Youngs Moduli (GPa) = 57.28406 57.28406 121.72230
#
# Poissons Ratio (x) = -0.07771 0.40628
# Poissons Ratio (y) = -0.07771 0.40628
# Poissons Ratio (z) = 0.19120 0.19120
#
# Static dielectric constant tensor:
#      x y z
#    x 2.165990 0.000000 0.000000 
#    y 0.000000 2.165990 0.000000 
#    z 0.000000 0.000000 1.851690 
# 
# From -- ./inp_files/9256.got.cif
#   From: 2010.05.17/outbox.cif.g08.bks.cpg/sg178_5_cif.got.tgz:9256.got - 2010.05.20 11:30:59.
