data_PCOD9582719
_publ_section_title
;
Structure prediction by ZEFSAII (Michael W. Deem and Ramdas Pophale) SiO2 
 PCOD9582719
Probable space group: P 61 2 2
;
_chemical_formula_sum "Si O2"
_cell_formula_units_Z 84
_cell_length_a 21.694947
_cell_length_b 21.694947
_cell_length_c 10.887540
_cell_angle_alpha 90.000000
_cell_angle_beta 90.000000
_cell_angle_gamma 120.000000
_cell_volume 4437.900718
_symmetry_space_group_name_H-M "P 61 2 2"
_symmetry_group_IT_number 178
_symmetry_cell_setting 'hexagonal'
loop_
_space_group_symop_operation_xyz
x,y,z
x-y,x,1/6+z
-y,x-y,1/3+z
-x,-y,1/2+z
-x+y,-x,2/3+z
y,-x+y,5/6+z
x-y,-y,-z
-x,-x+y,2/3-z
y,x,1/3-z
-y,-x,5/6-z
-x+y,y,1/2-z
x,x-y,1/6-z
loop_
_atom_site_type_symbol
_atom_site_label
_atom_site_fract_x
_atom_site_fract_y
_atom_site_fract_z
Si Si1 0.028246 0.922219 0.560213
Si Si2 0.913344 0.516586 0.325024
Si Si3 0.752741 0.804620 0.887013
Si Si4 0.625642 0.086412 0.510533
Si Si5 0.603477 0.923762 0.235985
Si Si6 0.671591 0.094156 0.240246
Si Si7 0.182366 0.296766 0.373127
O O1 0.045614 0.861408 0.528227
O O2 0.947419 0.898373 0.532967
O O3 0.080435 0.000000 0.500000
O O4 0.894868 0.436341 0.300942
O O5 0.892429 0.549995 0.211514
O O6 0.884858 0.525823 0.456695
O O7 0.000000 0.562163 0.333334
O O8 0.676681 0.753340 0.947558
O O9 0.739781 0.851145 0.787324
O O10 0.784899 0.754725 0.842680
O O11 0.676031 0.106290 0.629873
O O12 0.660536 0.115284 0.377282
O O13 0.586541 0.000000 0.500000
O O14 0.628282 0.007786 0.240503
O O15 0.754065 0.118050 0.225140
O O16 0.160016 0.320031 0.250000
#
# Coordination Sequence:
#
# PCOD9582719 Si02
#       7
#    12  12  12  12  12  12  12
#     4  10  21  42  57  74  92 124 189 270 342 396
#     4   9  16  29  46  76 103 136 166 198 238 300
#     4  11  21  38  53  73  98 139 188 248 316 387
#     4   9  15  27  50  71 106 137 164 195 231 291
#     4   9  18  30  48  76 103 134 174 214 267 335
#     4   9  18  31  47  73 101 136 176 217 260 332
#     4  11  22  37  52  71 101 137 191 247 314 376
#
# _framework density 18.927868
#
# number of rings (size 3 to 8) (size 9 to 14) (size 15 to 20)
#    0.000    2.286    1.429    2.143    0.000    5.714 
#   10.286    0.000    0.000    0.000    0.000    0.000 
#    0.000    0.000    0.000   48.857    0.000   32.571 
#
# Total GULP energy -467669.944343 kJ/mol
# GULP energy per Si atom -5567.499337 kJ/mol
# Density = 1.888479 g / cm^3
# Si number density = 18.927868 Si / 1000 Ang^3
#
#
#
# Elastic Constant Matrix: (Units=GPa)
#
#
# Indices 1 2 3 4 5 6 
#
# 1 65.9688 21.2501 21.9415 0.0000 0.0000 0.0000
# 2 21.2501 65.9688 21.9415 0.0000 0.0000 0.0000
# 3 21.9415 21.9415 69.2521 0.0000 0.0000 0.0000
# 4 0.0000 0.0000 0.0000 14.8646 0.0000 0.0000
# 5 0.0000 0.0000 0.0000 0.0000 14.8646 0.0000
# 6 0.0000 0.0000 0.0000 0.0000 0.0000 22.3594
#
#
#
# Elastic Compliance Matrix: (Units=1/GPa)
#
#
# Indices 1 2 3 4 5 6 
#
# 1 0.018001 -0.004361 -0.004322 0.000000 0.000000 0.000000
# 2 -0.004361 0.018001 -0.004322 0.000000 0.000000 0.000000
# 3 -0.004322 -0.004322 0.017178 0.000000 0.000000 0.000000
# 4 0.000000 0.000000 0.000000 0.067274 0.000000 0.000000
# 5 0.000000 0.000000 0.000000 0.000000 0.067274 0.000000
# 6 0.000000 0.000000 0.000000 0.000000 0.000000 0.044724
#
#
# Mechanical properties :
#
#
# Convention : Reuss Voigt Hill
#
# Bulk Modulus (GPa) = 36.80299 36.82844 36.81572
# Shear Modulus (GPa) = 18.69036 19.48816 19.08926
#
# Velocity S-wave (km/s) = 3.14578 3.21222 3.17918
# Velocity P-wave (km/s) = 5.71670 5.76692 5.74186
#
# Compressibility (1/GPa) = 0.02717170
#
# Stress axis : x y z
#
# Youngs Moduli (GPa) = 55.55287 55.55287 58.21253
#
# Poissons Ratio (x) = 0.24227 0.25157
# Poissons Ratio (y) = 0.24227 0.25157
# Poissons Ratio (z) = 0.24007 0.24007
#
# Static dielectric constant tensor:
#      x y z
#    x 1.674670 0.000000 0.000000 
#    y 0.000000 1.674670 0.000000 
#    z 0.000000 0.000000 2.233020 
# 
# From -- ./inp_files/4774.got.cif
#   From: 2010.05.17/outbox.cif.g08.bks.cpg/sg178_3_cif.got.tgz:4774.got - 2010.05.20 11:30:59.
