data_PCOD9582947
_publ_section_title
;
Structure prediction by ZEFSAII (Michael W. Deem and Ramdas Pophale) SiO2 
 PCOD9582947
Probable space group: P 61 2 2
;
_chemical_formula_sum "Si O2"
_cell_formula_units_Z 60
_cell_length_a 13.835152
_cell_length_b 13.835152
_cell_length_c 17.105531
_cell_angle_alpha 90.000000
_cell_angle_beta 90.000000
_cell_angle_gamma 120.000000
_cell_volume 2835.535323
_symmetry_space_group_name_H-M "P 61 2 2"
_symmetry_group_IT_number 178
_symmetry_cell_setting 'hexagonal'
loop_
_space_group_symop_operation_xyz
x,y,z
x-y,x,1/6+z
-y,x-y,1/3+z
-x,-y,1/2+z
-x+y,-x,2/3+z
y,-x+y,5/6+z
x-y,-y,-z
-x,-x+y,2/3-z
y,x,1/3-z
-y,-x,5/6-z
-x+y,y,1/2-z
x,x-y,1/6-z
loop_
_atom_site_type_symbol
_atom_site_label
_atom_site_fract_x
_atom_site_fract_y
_atom_site_fract_z
Si Si1 0.157828 0.394997 0.533688
Si Si2 0.769219 0.389005 0.489195
Si Si3 0.437414 0.312576 0.533438
Si Si4 0.001216 0.569064 0.924788
Si Si5 0.800220 0.810634 0.254036
O O1 0.287463 0.479714 0.515822
O O2 0.143950 0.457362 0.608737
O O3 0.076462 0.393431 0.468248
O O4 0.134423 0.270284 0.550190
O O5 0.682234 0.317767 0.416667
O O6 0.735024 0.367512 0.583334
O O7 0.878424 0.380155 0.466910
O O8 0.472139 0.236070 0.583334
O O9 0.493320 0.434917 0.567662
O O10 0.303555 0.246413 0.533356
O O11 0.000000 0.591801 0.833334
O O12 0.765725 0.765725 0.166667
O O13 0.935294 0.870588 0.250000
#
# Coordination Sequence:
#
# PCOD9582947 Si02
#       5
#    12  12  12  12  12
#     4  12  24  41  68 104 134 182 237 296 361 428
#     4  12  26  44  64  98 148 191 236 287 355 445
#     4  11  20  38  70  99 134 171 232 303 357 410
#     4  12  25  42  64  99 146 194 234 279 352 447
#     4  11  21  40  68 102 129 165 228 311 369 411
#
# _framework density 21.160026999999999
#
# number of rings (size 3 to 8) (size 9 to 14) (size 15 to 20)
#    0.000    0.400    6.000    6.000    0.000    1.600 
#    0.000    0.000    0.000    2.400    0.000    0.000 
#    0.000    0.000    0.000    0.000    0.000    0.000 
#
# Total GULP energy -334374.480948 kJ/mol
# GULP energy per Si atom -5572.908016 kJ/mol
# Density = 2.111187 g / cm^3
# Si number density = 21.160027 Si / 1000 Ang^3
#
#
#
# Elastic Constant Matrix: (Units=GPa)
#
#
# Indices 1 2 3 4 5 6 
#
# 1 97.3736 56.9905 47.8034 0.0000 0.0000 0.0000
# 2 56.9905 97.3736 47.8034 0.0000 0.0000 0.0000
# 3 47.8034 47.8034 158.8904 0.0000 0.0000 0.0000
# 4 0.0000 0.0000 0.0000 25.1354 0.0000 0.0000
# 5 0.0000 0.0000 0.0000 0.0000 25.1354 0.0000
# 6 0.0000 0.0000 0.0000 0.0000 0.0000 20.1916
#
#
#
# Elastic Compliance Matrix: (Units=1/GPa)
#
#
# Indices 1 2 3 4 5 6 
#
# 1 0.016362 -0.008401 -0.002395 0.000000 0.000000 0.000000
# 2 -0.008401 0.016362 -0.002395 0.000000 0.000000 0.000000
# 3 -0.002395 -0.002395 0.007735 0.000000 0.000000 0.000000
# 4 0.000000 0.000000 0.000000 0.039785 0.000000 0.000000
# 5 0.000000 0.000000 0.000000 0.000000 0.039785 0.000000
# 6 0.000000 0.000000 0.000000 0.000000 0.000000 0.049526
#
#
# Mechanical properties :
#
#
# Convention : Reuss Voigt Hill
#
# Bulk Modulus (GPa) = 71.03747 73.20360 72.12053
# Shear Modulus (GPa) = 24.92160 27.49515 26.20837
#
# Velocity S-wave (km/s) = 3.43559 3.60862 3.52316
# Velocity P-wave (km/s) = 7.02724 7.21340 7.12093
#
# Compressibility (1/GPa) = 0.01407708
#
# Stress axis : x y z
#
# Youngs Moduli (GPa) = 61.11615 61.11615 129.28292
#
# Poissons Ratio (x) = 0.51341 0.30968
# Poissons Ratio (y) = 0.51341 0.30968
# Poissons Ratio (z) = 0.14640 0.14640
#
# Static dielectric constant tensor:
#      x y z
#    x 1.811330 0.000000 0.000000 
#    y 0.000000 1.811330 0.000000 
#    z 0.000000 0.000000 1.890850 
# 
# From -- ./inp_files/5704.got.cif
#   From: 2010.05.17/outbox.cif.g08.bks.cpg/sg178_3_cif.got.tgz:5704.got - 2010.05.20 11:30:59.
