data_PCOD9582760
_publ_section_title
;
Structure prediction by ZEFSAII (Michael W. Deem and Ramdas Pophale) SiO2 
 PCOD9582760
Probable space group: P 61 2 2
;
_chemical_formula_sum "Si O2"
_cell_formula_units_Z 72
_cell_length_a 11.520693
_cell_length_b 11.520693
_cell_length_c 28.090153
_cell_angle_alpha 90.000000
_cell_angle_beta 90.000000
_cell_angle_gamma 120.000000
_cell_volume 3228.805944
_symmetry_space_group_name_H-M "P 61 2 2"
_symmetry_group_IT_number 178
_symmetry_cell_setting 'hexagonal'
loop_
_space_group_symop_operation_xyz
x,y,z
x-y,x,1/6+z
-y,x-y,1/3+z
-x,-y,1/2+z
-x+y,-x,2/3+z
y,-x+y,5/6+z
x-y,-y,-z
-x,-x+y,2/3-z
y,x,1/3-z
-y,-x,5/6-z
-x+y,y,1/2-z
x,x-y,1/6-z
loop_
_atom_site_type_symbol
_atom_site_label
_atom_site_fract_x
_atom_site_fract_y
_atom_site_fract_z
Si Si1 0.044694 0.881752 0.780272
Si Si2 0.439994 0.879987 0.250000
Si Si3 0.146741 0.368467 0.698599
Si Si4 0.654242 0.083328 0.416967
Si Si5 0.670575 0.939079 0.787171
Si Si6 0.139288 0.504499 0.483159
Si Si7 0.565858 0.000000 0.000000
O O1 0.192892 0.949544 0.759463
O O2 0.000000 0.882287 0.833334
O O3 0.970185 0.940369 0.750000
O O4 0.980906 0.723890 0.768365
O O5 0.398435 0.975470 0.276055
O O6 0.345905 0.812739 0.204854
O O7 0.157501 0.315002 0.750000
O O8 0.154215 0.512706 0.704520
O O9 0.285277 0.409714 0.672286
O O10 0.016575 0.263697 0.668140
O O11 0.757113 0.242888 0.416667
O O12 0.532684 0.034249 0.454510
O O13 0.600542 0.016166 0.364984
O O14 0.563678 0.783329 0.794771
#
# Coordination Sequence:
#
# PCOD9582760 Si02
#       7
#    12   6  12  12  12  12   6
#     4  10  22  42  68 103 135 173 235 291 353 415
#     4  10  24  42  68 102 134 182 236 294 356 424
#     4  11  25  47  67 101 144 190 243 290 367 454
#     4  10  22  39  71 105 132 174 234 299 354 420
#     4  10  25  44  71 100 144 188 239 302 365 433
#     4  10  23  45  69 101 139 187 240 299 364 431
#     4  12  24  44  68  98 146 186 232 294 364 444
#
# _framework density 22.299263
#
# number of rings (size 3 to 8) (size 9 to 14) (size 15 to 20)
#    0.000    1.667    2.500    0.000    8.167    5.333 
#    7.500    0.000    0.000    0.000    0.000    0.000 
#    0.000    0.000    0.000    0.000    0.000    0.000 
#
# Total GULP energy -401407.716485 kJ/mol
# GULP energy per Si atom -5575.107173 kJ/mol
# Density = 2.224851 g / cm^3
# Si number density = 22.299263 Si / 1000 Ang^3
#
#
#
# Elastic Constant Matrix: (Units=GPa)
#
#
# Indices 1 2 3 4 5 6 
#
# 1 -87.5426 142.0083 -9.1389 0.0000 0.0000 0.0000
# 2 142.0083 -87.5426 -9.1389 0.0000 0.0000 0.0000
# 3 -9.1389 -9.1389 111.0001 0.0000 0.0000 0.0000
# 4 0.0000 0.0000 0.0000 266.9242 0.0000 0.0000
# 5 0.0000 0.0000 0.0000 0.0000 266.9242 0.0000
# 6 0.0000 0.0000 0.0000 0.0000 0.0000 -114.7754
#
#
#
# Elastic Compliance Matrix: (Units=1/GPa)
#
#
# Indices 1 2 3 4 5 6 
#
# 1 0.007263 0.011619 0.001555 0.000000 0.000000 0.000000
# 2 0.011619 0.007263 0.001555 0.000000 0.000000 0.000000
# 3 0.001555 0.001555 0.009265 0.000000 0.000000 0.000000
# 4 0.000000 0.000000 0.000000 0.003746 0.000000 0.000000
# 5 0.000000 0.000000 0.000000 0.000000 0.003746 0.000000
# 6 0.000000 0.000000 0.000000 0.000000 0.000000 -0.008713
#
#
# Mechanical properties :
#
#
# Convention : Reuss Voigt Hill
#
# Bulk Modulus (GPa) = 18.78038 20.37512 19.57775
# Shear Modulus (GPa) = 460.27385 71.29357 265.78371
#
# Velocity S-wave (km/s) = 14.38248 5.66045 10.92924
# Velocity P-wave (km/s) = 16.85965 7.20263 12.96391
#
# Compressibility (1/GPa) = 0.05324705
#
# Stress axis : x y z
#
# Youngs Moduli (GPa) = 137.68858 137.68858 107.93325
#
# Poissons Ratio (x) = -1.59982 -0.16779
# Poissons Ratio (y) = -1.59982 -0.16779
# Poissons Ratio (z) = -0.21405 -0.21405
#
# Static dielectric constant tensor:
#      x y z
#    x 0.144350 0.000000 0.000000 
#    y 0.000000 0.144350 0.000000 
#    z 0.000000 0.000000 1.485800 
# 
# From -- ./inp_files/9620.got.cif
#   From: 2010.05.17/outbox.cif.g08.bks.cpg/sg178_5_cif.got.tgz:9620.got - 2010.05.20 11:30:59.
