data_PCOD9582951
_publ_section_title
;
Structure prediction by ZEFSAII (Michael W. Deem and Ramdas Pophale) SiO2 
 PCOD9582951
Probable space group: P 61 2 2
;
_chemical_formula_sum "Si O2"
_cell_formula_units_Z 96
_cell_length_a 14.275096
_cell_length_b 14.275096
_cell_length_c 25.883084
_cell_angle_alpha 90.000000
_cell_angle_beta 90.000000
_cell_angle_gamma 120.000000
_cell_volume 4567.775267
_symmetry_space_group_name_H-M "P 61 2 2"
_symmetry_group_IT_number 178
_symmetry_cell_setting 'hexagonal'
loop_
_space_group_symop_operation_xyz
x,y,z
x-y,x,1/6+z
-y,x-y,1/3+z
-x,-y,1/2+z
-x+y,-x,2/3+z
y,-x+y,5/6+z
x-y,-y,-z
-x,-x+y,2/3-z
y,x,1/3-z
-y,-x,5/6-z
-x+y,y,1/2-z
x,x-y,1/6-z
loop_
_atom_site_type_symbol
_atom_site_label
_atom_site_fract_x
_atom_site_fract_y
_atom_site_fract_z
Si Si1 0.462987 0.159247 0.752207
Si Si2 0.311193 0.486014 0.669925
Si Si3 0.878063 0.383728 0.941080
Si Si4 0.475286 0.248670 0.299365
Si Si5 0.084887 0.547441 0.992600
Si Si6 0.341771 0.058727 0.227521
Si Si7 0.500501 0.335695 0.112087
Si Si8 0.853063 0.737014 0.691502
O O1 0.581018 0.162035 0.750000
O O2 0.457785 0.254855 0.720432
O O3 0.444332 0.166704 0.812886
O O4 0.352804 0.048409 0.739045
O O5 0.350121 0.441927 0.719224
O O6 0.219122 0.499662 0.698092
O O7 0.424599 0.589105 0.656131
O O8 0.823741 0.460155 0.936750
O O9 0.977286 0.434753 0.981016
O O10 0.537949 0.185920 0.319346
O O11 0.378884 0.162851 0.263777
O O12 0.091449 0.600702 0.936316
O O13 0.072239 0.622627 0.033868
O O14 0.268419 0.062238 0.181087
O O15 0.559874 0.279937 0.083334
O O16 0.387309 0.244033 0.134205
O O17 0.805407 0.805407 0.666667
O O18 0.887875 0.775749 0.750000
#
# Coordination Sequence:
#
# PCOD9582951 Si02
#       8
#    12  12  12  12  12  12  12  12
#     4  12  23  43  62  89 136 169 222 278 323 392
#     4  11  22  38  56  87 123 172 211 266 310 379
#     4  11  25  37  61  88 129 170 229 263 327 391
#     4  12  24  36  63  88 128 182 230 264 327 384
#     4  12  23  40  57  92 127 177 219 269 320 387
#     4  12  25  39  65  90 129 172 227 268 326 390
#     4  11  21  35  58  84 126 167 204 245 314 384
#     4  11  26  43  65  95 135 167 209 271 334 405
#
# _framework density 21.016797
#
# number of rings (size 3 to 8) (size 9 to 14) (size 15 to 20)
#    0.000    0.500    6.250    3.750    8.750    0.000 
#    0.000    0.000    0.000    0.000    0.000    1.750 
#    0.000    0.000    0.000    0.000    0.000    0.000 
#
# Total GULP energy -534688.666401 kJ/mol
# GULP energy per Si atom -5569.673608 kJ/mol
# Density = 2.096896 g / cm^3
# Si number density = 21.016797 Si / 1000 Ang^3
#
#
#
# Elastic Constant Matrix: (Units=GPa)
#
#
# Indices 1 2 3 4 5 6 
#
# 1 46.8610 11.2768 13.9710 0.0000 0.0000 0.0000
# 2 11.2768 46.8610 13.9710 0.0000 0.0000 0.0000
# 3 13.9710 13.9710 126.2898 0.0000 0.0000 0.0000
# 4 0.0000 0.0000 0.0000 23.5268 0.0000 0.0000
# 5 0.0000 0.0000 0.0000 0.0000 23.5268 0.0000
# 6 0.0000 0.0000 0.0000 0.0000 0.0000 17.7921
#
#
#
# Elastic Compliance Matrix: (Units=1/GPa)
#
#
# Indices 1 2 3 4 5 6 
#
# 1 0.023134 -0.004968 -0.002010 0.000000 0.000000 0.000000
# 2 -0.004968 0.023134 -0.002010 0.000000 0.000000 0.000000
# 3 -0.002010 -0.002010 0.008363 0.000000 0.000000 0.000000
# 4 0.000000 0.000000 0.000000 0.042505 0.000000 0.000000
# 5 0.000000 0.000000 0.000000 0.000000 0.042505 0.000000
# 6 0.000000 0.000000 0.000000 0.000000 0.000000 0.056205
#
#
# Mechanical properties :
#
#
# Convention : Reuss Voigt Hill
#
# Bulk Modulus (GPa) = 27.27992 33.16104 30.22048
# Shear Modulus (GPa) = 22.12002 25.02200 23.57101
#
# Velocity S-wave (km/s) = 3.24773 3.45421 3.35256
# Velocity P-wave (km/s) = 5.20307 5.63217 5.42187
#
# Compressibility (1/GPa) = 0.03665700
#
# Stress axis : x y z
#
# Youngs Moduli (GPa) = 43.22575 43.22575 119.57506
#
# Poissons Ratio (x) = 0.21474 0.24031
# Poissons Ratio (y) = 0.21474 0.24031
# Poissons Ratio (z) = 0.08687 0.08687
#
# Static dielectric constant tensor:
#      x y z
#    x 1.997740 0.000000 0.000000 
#    y 0.000000 1.997740 0.000000 
#    z 0.000000 0.000000 1.842650 
# 
# From -- ./inp_files/9018.got.cif
#   From: 2010.05.17/outbox.cif.g08.bks.cpg/sg178_5_cif.got.tgz:9018.got - 2010.05.20 11:30:59.
