data_PCOD9582997
_publ_section_title
;
Structure prediction by ZEFSAII (Michael W. Deem and Ramdas Pophale) SiO2 
 PCOD9582997
Probable space group: P 61 2 2
;
_chemical_formula_sum "Si O2"
_cell_formula_units_Z 48
_cell_length_a 15.186339
_cell_length_b 15.186339
_cell_length_c 10.920526
_cell_angle_alpha 90.000000
_cell_angle_beta 90.000000
_cell_angle_gamma 120.000000
_cell_volume 2181.124065
_symmetry_space_group_name_H-M "P 61 2 2"
_symmetry_group_IT_number 178
_symmetry_cell_setting 'hexagonal'
loop_
_space_group_symop_operation_xyz
x,y,z
x-y,x,1/6+z
-y,x-y,1/3+z
-x,-y,1/2+z
-x+y,-x,2/3+z
y,-x+y,5/6+z
x-y,-y,-z
-x,-x+y,2/3-z
y,x,1/3-z
-y,-x,5/6-z
-x+y,y,1/2-z
x,x-y,1/6-z
loop_
_atom_site_type_symbol
_atom_site_label
_atom_site_fract_x
_atom_site_fract_y
_atom_site_fract_z
Si Si1 0.738846 0.653194 0.313443
Si Si2 0.842126 0.842126 0.666667
Si Si3 0.755330 0.244671 0.416667
Si Si4 0.612463 0.180295 0.896011
Si Si5 0.806859 0.147088 0.209012
O O1 0.849028 0.698056 0.250000
O O2 0.649803 0.551624 0.249874
O O3 0.707852 0.738823 0.330976
O O4 0.767689 0.614547 0.437722
O O5 0.872535 0.936268 0.583334
O O6 0.829389 0.743617 0.598972
O O7 0.805573 0.348420 0.333272
O O8 0.743443 0.163222 0.314656
O O9 0.713858 0.286143 0.916667
O O10 0.585532 0.171063 0.750000
#
# Coordination Sequence:
#
# PCOD9582997 Si02
#       5
#    12   6   6  12  12
#     4  11  25  45  71 104 153 194 243 306 380 451
#     4  12  24  42  70 112 150 198 252 288 378 460
#     4  12  24  44  84 102 142 198 254 314 378 450
#     4  11  23  45  72 102 138 189 245 304 372 448
#     4  12  23  45  74 107 151 198 244 316 368 455
#
# _framework density 22.007000000000001
#
# number of rings (size 3 to 8) (size 9 to 14) (size 15 to 20)
#    0.000    0.500    7.500    0.750    0.000    1.000 
#    0.000   11.250    0.000    0.000    0.000    0.000 
#    0.000    0.000    0.000    0.000    0.000    0.000 
#
# Total GULP energy -267256.654101 kJ/mol
# GULP energy per Si atom -5567.846960 kJ/mol
# Density = 2.195691 g / cm^3
# Si number density = 22.007000 Si / 1000 Ang^3
#
#
#
# Elastic Constant Matrix: (Units=GPa)
#
#
# Indices 1 2 3 4 5 6 
#
# 1 127.9014 81.4530 55.9005 0.0000 0.0000 0.0000
# 2 81.4530 127.9014 55.9005 0.0000 0.0000 0.0000
# 3 55.9005 55.9005 107.7280 0.0000 0.0000 0.0000
# 4 0.0000 0.0000 0.0000 44.9735 0.0000 0.0000
# 5 0.0000 0.0000 0.0000 0.0000 44.9735 0.0000
# 6 0.0000 0.0000 0.0000 0.0000 0.0000 23.2242
#
#
#
# Elastic Compliance Matrix: (Units=1/GPa)
#
#
# Indices 1 2 3 4 5 6 
#
# 1 0.014068 -0.007461 -0.003429 0.000000 0.000000 0.000000
# 2 -0.007461 0.014068 -0.003429 0.000000 0.000000 0.000000
# 3 -0.003429 -0.003429 0.012841 0.000000 0.000000 0.000000
# 4 0.000000 0.000000 0.000000 0.022235 0.000000 0.000000
# 5 0.000000 0.000000 0.000000 0.000000 0.022235 0.000000
# 6 0.000000 0.000000 0.000000 0.000000 0.000000 0.043059
#
#
# Mechanical properties :
#
#
# Convention : Reuss Voigt Hill
#
# Bulk Modulus (GPa) = 81.02839 83.33761 82.18300
# Shear Modulus (GPa) = 31.00635 33.98605 32.49620
#
# Velocity S-wave (km/s) = 3.75765 3.93406 3.84686
# Velocity P-wave (km/s) = 7.46497 7.65419 7.56017
#
# Compressibility (1/GPa) = 0.01234135
#
# Stress axis : x y z
#
# Youngs Moduli (GPa) = 71.08106 71.08106 77.87565
#
# Poissons Ratio (x) = 0.53032 0.26701
# Poissons Ratio (y) = 0.53032 0.26701
# Poissons Ratio (z) = 0.24372 0.24372
#
# Static dielectric constant tensor:
#      x y z
#    x 1.878390 0.000000 0.000000 
#    y 0.000000 1.878390 0.000000 
#    z 0.000000 0.000000 2.076820 
# 
# From -- ./inp_files/4217.got.cif
#   From: 2010.05.17/outbox.cif.g08.bks.cpg/sg178_3_cif.got.tgz:4217.got - 2010.05.20 11:30:59.
