data_PCOD9582327
_publ_section_title
;
Structure prediction by ZEFSAII (Michael W. Deem and Ramdas Pophale) SiO2 
 PCOD9582327
Probable space group: P 6 2 2
;
_chemical_formula_sum "Si O2"
_cell_formula_units_Z 66
_cell_length_a 21.000000
_cell_length_b 21.000000
_cell_length_c 9.000000
_cell_angle_alpha 90.000000
_cell_angle_beta 90.000000
_cell_angle_gamma 120.000000
_cell_volume 3437.254828
_symmetry_space_group_name_H-M "P 6 2 2"
_symmetry_group_IT_number 177
_symmetry_cell_setting 'hexagonal'
loop_
_space_group_symop_operation_xyz
x,y,z
x-y,x,z
-y,x-y,z
-x,-y,z
-x+y,-x,z
y,-x+y,z
x-y,-y,-z
-x,-x+y,-z
y,x,-z
-y,-x,-z
-x+y,y,-z
x,x-y,-z
loop_
_atom_site_type_symbol
_atom_site_label
_atom_site_fract_x
_atom_site_fract_y
_atom_site_fract_z
Si Si1 0.145566 0.155386 0.324931
Si Si2 0.265424 0.301448 0.163387
Si Si3 0.632180 0.494464 0.415612
Si Si4 0.202659 0.762795 0.168919
Si Si5 0.000000 0.500000 0.248587
Si Si6 0.918466 0.582564 0.280686
O O1 0.144877 0.079594 0.296018
O O2 0.168119 0.168119 0.500000
O O3 0.200760 0.225109 0.227575
O O4 0.244610 0.366212 0.157076
O O5 0.335529 0.322162 0.267746
O O6 0.288367 0.288367 0.000000
O O7 0.586193 0.413808 0.500000
O O8 0.697250 0.510949 0.293216
O O9 0.569170 0.504853 0.335554
O O10 0.657021 0.551657 0.552320
O O11 0.265250 0.843528 0.223468
O O12 0.234486 0.765515 0.000000
O O13 0.949328 0.534704 0.190180
#
# Coordination Sequence:
#
# PCOD9582327 Si02
#       6
#    12  12  12  12   6  12
#     4  10  23  41  63  87 121 176 244 307 364 433
#     4  12  25  42  60  97 147 185 231 294 377 448
#     4  10  22  43  72 102 139 184 245 301 361 448
#     4  12  25  41  64 105 150 186 230 303 376 443
#     4  10  21  42  73 102 133 176 245 296 353 438
#     4  11  22  41  68 102 134 182 233 299 362 435
#
# _framework density 19.201370000000001
#
# number of rings (size 3 to 8) (size 9 to 14) (size 15 to 20)
#    0.000    1.091    3.636    4.273    2.545    0.727 
#    0.000    8.636    0.000   20.000    0.000    0.000 
#    0.000    0.000    0.000    0.000    0.000    0.000 
#
# Total GULP energy -367509.568424 kJ/mol
# GULP energy per Si atom -5568.326794 kJ/mol
# Density = 1.915767 g / cm^3
# Si number density = 19.201370 Si / 1000 Ang^3
#
#
#
# Elastic Constant Matrix: (Units=GPa)
#
#
# Indices 1 2 3 4 5 6 
#
# 1 131.1755 46.8114 39.5618 0.0000 0.0000 0.0000
# 2 46.8114 131.1755 39.5618 0.0000 0.0000 0.0000
# 3 39.5618 39.5618 75.5539 0.0000 0.0000 0.0000
# 4 0.0000 0.0000 0.0000 28.6203 0.0000 0.0000
# 5 0.0000 0.0000 0.0000 0.0000 28.6203 0.0000
# 6 0.0000 0.0000 0.0000 0.0000 0.0000 42.1821
#
#
#
# Elastic Compliance Matrix: (Units=1/GPa)
#
#
# Indices 1 2 3 4 5 6 
#
# 1 0.009588 -0.002265 -0.003835 0.000000 0.000000 0.000000
# 2 -0.002265 0.009588 -0.003835 0.000000 0.000000 0.000000
# 3 -0.003835 -0.003835 0.017251 0.000000 0.000000 0.000000
# 4 0.000000 0.000000 0.000000 0.034940 0.000000 0.000000
# 5 0.000000 0.000000 0.000000 0.000000 0.034940 0.000000
# 6 0.000000 0.000000 0.000000 0.000000 0.000000 0.023707
#
#
# Mechanical properties :
#
#
# Convention : Reuss Voigt Hill
#
# Bulk Modulus (GPa) = 60.38915 65.53056 62.95986
# Shear Modulus (GPa) = 32.17441 34.01586 33.09513
#
# Velocity S-wave (km/s) = 4.09789 4.21352 4.15611
# Velocity P-wave (km/s) = 7.34227 7.60749 7.47606
#
# Compressibility (1/GPa) = 0.01655926
#
# Stress axis : x y z
#
# Youngs Moduli (GPa) = 104.29492 104.29492 57.96679
#
# Poissons Ratio (x) = 0.23625 0.22227
# Poissons Ratio (y) = 0.23625 0.22227
# Poissons Ratio (z) = 0.39992 0.39992
#
# Static dielectric constant tensor:
#      x y z
#    x 1.680760 0.000000 0.000000 
#    y 0.000000 1.680760 0.000000 
#    z 0.000000 0.000000 1.729780 
# 
# From -- ./inp_files/1407.got.cif
#   From: 2010.05.17/outbox.ucp.g08.bks.cvg/sg177_1_cif.got.tgz:1407.got - 2010.06.11 15:19:11.
