data_PCOD9582338
_publ_section_title
;
Structure prediction by ZEFSAII (Michael W. Deem and Ramdas Pophale) SiO2 
 PCOD9582338
Probable space group: P 61 2 2
;
_chemical_formula_sum "Si O2"
_cell_formula_units_Z 78
_cell_length_a 17.261873
_cell_length_b 17.261873
_cell_length_c 14.555907
_cell_angle_alpha 90.000000
_cell_angle_beta 90.000000
_cell_angle_gamma 120.000000
_cell_volume 3756.174309
_symmetry_space_group_name_H-M "P 61 2 2"
_symmetry_group_IT_number 178
_symmetry_cell_setting 'hexagonal'
loop_
_space_group_symop_operation_xyz
x,y,z
x-y,x,1/6+z
-y,x-y,1/3+z
-x,-y,1/2+z
-x+y,-x,2/3+z
y,-x+y,5/6+z
x-y,-y,-z
-x,-x+y,2/3-z
y,x,1/3-z
-y,-x,5/6-z
-x+y,y,1/2-z
x,x-y,1/6-z
loop_
_atom_site_type_symbol
_atom_site_label
_atom_site_fract_x
_atom_site_fract_y
_atom_site_fract_z
Si Si1 0.691048 0.995703 0.131564
Si Si2 0.159392 0.627761 0.892403
Si Si3 0.049116 0.608652 0.044394
Si Si4 0.817328 0.653603 0.420031
Si Si5 0.266364 0.556580 0.637978
Si Si6 0.921943 0.292197 0.262222
Si Si7 0.000000 0.562876 0.333334
O O1 0.672268 0.048703 0.211342
O O2 0.773554 0.076018 0.079161
O O3 0.599861 0.956650 0.073024
O O4 0.698079 0.917133 0.180253
O O5 0.238980 0.608590 0.890705
O O6 0.148133 0.691591 0.820258
O O7 0.074892 0.528709 0.875078
O O8 0.143291 0.653265 0.993045
O O9 0.028204 0.514102 0.083334
O O10 0.974886 0.597517 0.971352
O O11 0.763028 0.546688 0.397033
O O12 0.789063 0.665676 0.523562
O O13 0.278134 0.556269 0.750000
O O14 0.226866 0.613433 0.583334
O O15 0.000000 0.302157 0.333334
#
# Coordination Sequence:
#
# PCOD9582338 Si02
#       7
#    12  12  12  12  12  12   6
#     4  11  24  37  63  87 124 158 206 268 317 391
#     4  11  19  34  59  84 121 168 220 260 311 365
#     4  10  16  30  52  82 110 157 203 251 299 359
#     4  11  24  43  62  91 125 162 215 266 332 398
#     4  12  26  41  56  88 133 181 225 276 326 381
#     4   9  19  35  57  86 120 157 207 258 312 376
#     4  12  18  36  60  86 124 162 212 252 310 376
#
# _framework density 20.765810999999999
#
# number of rings (size 3 to 8) (size 9 to 14) (size 15 to 20)
#    0.000    1.231    5.385    1.846    0.000    6.769 
#    0.000    6.154    0.000    0.000    0.000    0.000 
#   11.538    0.000    0.000    0.000    0.000    0.000 
#
# Total GULP energy -435240.085526 kJ/mol
# GULP energy per Si atom -5580.001096 kJ/mol
# Density = 2.071855 g / cm^3
# Si number density = 20.765811 Si / 1000 Ang^3
#
#
#
# Elastic Constant Matrix: (Units=GPa)
#
#
# Indices 1 2 3 4 5 6 
#
# 1 81.3155 32.6192 13.2044 0.0000 0.0000 0.0000
# 2 32.6192 81.3155 13.2044 0.0000 0.0000 0.0000
# 3 13.2044 13.2044 75.4769 0.0000 0.0000 0.0000
# 4 0.0000 0.0000 0.0000 17.5869 0.0000 0.0000
# 5 0.0000 0.0000 0.0000 0.0000 17.5869 0.0000
# 6 0.0000 0.0000 0.0000 0.0000 0.0000 24.3481
#
#
#
# Elastic Compliance Matrix: (Units=1/GPa)
#
#
# Indices 1 2 3 4 5 6 
#
# 1 0.014842 -0.005694 -0.001600 0.000000 0.000000 0.000000
# 2 -0.005694 0.014842 -0.001600 0.000000 0.000000 0.000000
# 3 -0.001600 -0.001600 0.013809 0.000000 0.000000 0.000000
# 4 0.000000 0.000000 0.000000 0.056860 0.000000 0.000000
# 5 0.000000 0.000000 0.000000 0.000000 0.056860 0.000000
# 6 0.000000 0.000000 0.000000 0.000000 0.000000 0.041071
#
#
# Mechanical properties :
#
#
# Convention : Reuss Voigt Hill
#
# Bulk Modulus (GPa) = 38.90550 39.57376 39.23963
# Shear Modulus (GPa) = 22.25772 23.84304 23.05038
#
# Velocity S-wave (km/s) = 3.27746 3.39217 3.33530
# Velocity P-wave (km/s) = 5.75311 5.86864 5.81116
#
# Compressibility (1/GPa) = 0.02570331
#
# Stress axis : x y z
#
# Youngs Moduli (GPa) = 67.37779 67.37779 72.41622
#
# Poissons Ratio (x) = 0.38363 0.11589
# Poissons Ratio (y) = 0.38363 0.11589
# Poissons Ratio (z) = 0.10783 0.10783
#
# Static dielectric constant tensor:
#      x y z
#    x 1.779940 0.000000 0.000000 
#    y 0.000000 1.779940 0.000000 
#    z 0.000000 0.000000 1.868770 
# 
# From -- ./inp_files/5978.got.cif
#   From: 2010.05.17/outbox.cif.g08.bks.cpg/sg178_3_cif.got.tgz:5978.got - 2010.05.20 11:30:59.
