data_PCOD9582147
_publ_section_title
;
Structure prediction by ZEFSAII (Michael W. Deem and Ramdas Pophale) SiO2 
 PCOD9582147
Probable space group: P 63/M
;
_chemical_formula_sum "Si O2"
_cell_formula_units_Z 72
_cell_length_a 24.000000
_cell_length_b 24.000000
_cell_length_c 9.000000
_cell_angle_alpha 90.000000
_cell_angle_beta 90.000000
_cell_angle_gamma 120.000000
_cell_volume 4489.475693
_symmetry_space_group_name_H-M "P 63/M"
_symmetry_group_IT_number 176
_symmetry_cell_setting 'hexagonal'
loop_
_space_group_symop_operation_xyz
x,y,z
x-y,x,1/2+z
-y,x-y,z
-x,-y,1/2+z
-x+y,-x,z
y,-x+y,1/2+z
-x,-y,-z
-x+y,-x,1/2-z
y,-x+y,-z
x,y,1/2-z
x-y,x,-z
-y,x-y,1/2-z
loop_
_atom_site_type_symbol
_atom_site_label
_atom_site_fract_x
_atom_site_fract_y
_atom_site_fract_z
Si Si1 0.801438 0.067390 0.073514
Si Si2 0.191097 0.257649 0.925208
Si Si3 0.849462 0.257891 0.425850
Si Si4 0.934871 0.403576 0.426688
Si Si5 0.404215 0.265211 0.574093
Si Si6 0.398877 0.928466 0.925557
O O1 0.793506 0.069779 0.250000
O O2 0.875071 0.120295 0.037968
O O3 0.756693 0.090603 0.993707
O O4 0.782118 0.996944 0.019901
O O5 0.193524 0.245098 0.750000
O O6 0.237893 0.334013 0.949821
O O7 0.833424 0.247907 0.250000
O O8 0.879314 0.332248 0.463282
O O9 0.787925 0.209294 0.518824
O O10 0.948992 0.404984 0.250000
O O11 0.916182 0.458147 0.454545
O O12 0.999397 0.423008 0.516793
O O13 0.400784 0.266237 0.750000
O O14 0.453847 0.334669 0.510949
O O15 0.386841 0.924452 0.750000
#
# Coordination Sequence:
#
# PCOD9582147 Si02
#       6
#    12  12  12  12  12  12
#     4  10  20  33  50  72  97 126 159 196 238 283
#     4   9  18  31  48  72 100 126 153 192 239 284
#     4   9  18  33  50  70  97 125 157 197 239 283
#     4   9  18  32  51  74  99 127 157 194 239 284
#     4  11  21  32  48  70  97 129 162 197 238 281
#     4  10  19  31  49  73 100 129 160 194 235 283
#
# _framework density 16.037507000000002
#
# number of rings (size 3 to 8) (size 9 to 14) (size 15 to 20)
#    0.000    2.333    0.000    4.500    0.000    6.000 
#    0.000    0.000    0.000    1.000    0.000    2.333 
#    0.000    0.000    0.000    0.000    0.000    0.000 
#
# Total GULP energy -401711.394137 kJ/mol
# GULP energy per Si atom -5579.324919 kJ/mol
# Density = 1.600101 g / cm^3
# Si number density = 16.037507 Si / 1000 Ang^3
#
#
#
# Elastic Constant Matrix: (Units=GPa)
#
#
# Indices 1 2 3 4 5 6 
#
# 1 78.2154 61.4967 61.7250 0.0000 0.0000 0.0000
# 2 61.4967 78.2154 61.7250 0.0000 0.0000 0.0000
# 3 61.7250 61.7250 71.7360 0.0000 0.0000 0.0000
# 4 0.0000 0.0000 0.0000 24.4195 0.0000 0.0000
# 5 0.0000 0.0000 0.0000 0.0000 24.4195 0.0000
# 6 0.0000 0.0000 0.0000 0.0000 0.0000 8.3594
#
#
#
# Elastic Compliance Matrix: (Units=1/GPa)
#
#
# Indices 1 2 3 4 5 6 
#
# 1 0.044836 -0.014977 -0.025693 0.000000 0.000000 0.000000
# 2 -0.014977 0.044836 -0.025693 0.000000 0.000000 0.000000
# 3 -0.025693 -0.025693 0.058154 0.000000 0.000000 0.000000
# 4 0.000000 0.000000 0.000000 0.040951 0.000000 0.000000
# 5 0.000000 0.000000 0.000000 0.000000 0.040951 0.000000
# 6 0.000000 0.000000 0.000000 0.000000 0.000000 0.119626
#
#
# Mechanical properties :
#
#
# Convention : Reuss Voigt Hill
#
# Bulk Modulus (GPa) = 66.21181 66.45114 66.33147
# Shear Modulus (GPa) = 10.26453 14.32100 12.29277
#
# Velocity S-wave (km/s) = 2.53263 2.99150 2.77158
# Velocity P-wave (km/s) = 7.06594 7.31142 7.18973
#
# Compressibility (1/GPa) = 0.01510305
#
# Stress axis : x y z
#
# Youngs Moduli (GPa) = 22.30328 22.30328 17.19559
#
# Poissons Ratio (x) = 0.33403 0.44180
# Poissons Ratio (y) = 0.33403 0.44180
# Poissons Ratio (z) = 0.57303 0.57303
#
# Static dielectric constant tensor:
#      x y z
#    x 1.522140 0.000000 0.000000 
#    y 0.000000 1.522140 0.000000 
#    z 0.000000 0.000000 1.534390 
# 
# From -- ./inp_files/1155.got.cif
#   From: 2010.05.17/outbox.ucp.g08.bks.cvg/sg176_1_cif.got.tgz:1155.got - 2010.06.11 15:18:56.
