data_PCOD9582623
_publ_section_title
;
Structure prediction by ZEFSAII (Michael W. Deem and Ramdas Pophale) SiO2 
 PCOD9582623
Probable space group: P 61 2 2
;
_chemical_formula_sum "Si O2"
_cell_formula_units_Z 48
_cell_length_a 15.732918
_cell_length_b 15.732918
_cell_length_c 11.806425
_cell_angle_alpha 90.000000
_cell_angle_beta 90.000000
_cell_angle_gamma 120.000000
_cell_volume 2530.856974
_symmetry_space_group_name_H-M "P 61 2 2"
_symmetry_group_IT_number 178
_symmetry_cell_setting 'hexagonal'
loop_
_space_group_symop_operation_xyz
x,y,z
x-y,x,1/6+z
-y,x-y,1/3+z
-x,-y,1/2+z
-x+y,-x,2/3+z
y,-x+y,5/6+z
x-y,-y,-z
-x,-x+y,2/3-z
y,x,1/3-z
-y,-x,5/6-z
-x+y,y,1/2-z
x,x-y,1/6-z
loop_
_atom_site_type_symbol
_atom_site_label
_atom_site_fract_x
_atom_site_fract_y
_atom_site_fract_z
Si Si1 0.832250 0.605227 0.072910
Si Si2 0.090840 0.169747 0.571715
Si Si3 0.361120 0.895363 0.444602
Si Si4 0.301573 0.748495 0.044518
O O1 0.887474 0.720918 0.052824
O O2 0.896409 0.573029 0.150667
O O3 0.736834 0.581104 0.146688
O O4 0.791668 0.538698 0.962025
O O5 0.106928 0.122362 0.460719
O O6 0.164220 0.164220 0.666667
O O7 0.405454 0.823402 0.448619
O O8 0.432897 0.000000 0.500000
O O9 0.284087 0.642044 0.083334
O O10 0.263612 0.736389 0.916667
#
# Coordination Sequence:
#
# PCOD9582623 Si02
#       4
#    12  12  12  12
#     4  11  21  38  66  95 134 163 224 274 339 387
#     4  10  20  39  69  97 125 165 218 275 336 399
#     4  11  21  37  64  97 125 172 229 275 320 395
#     4  12  22  44  64  90 134 186 219 269 331 410
#
# _framework density 18.965909
#
# number of rings (size 3 to 8) (size 9 to 14) (size 15 to 20)
#    0.000    1.000    5.000    6.000    0.000    0.000 
#   13.500    0.000   16.500    0.000    0.000    0.000 
#    0.000    0.000    0.000    0.000    0.000    0.000 
#
# Total GULP energy -268204.359172 kJ/mol
# GULP energy per Si atom -5587.590816 kJ/mol
# Density = 1.892274 g / cm^3
# Si number density = 18.965909 Si / 1000 Ang^3
#
#
#
# Elastic Constant Matrix: (Units=GPa)
#
#
# Indices 1 2 3 4 5 6 
#
# 1 59.2283 95.2431 72.0532 0.0000 0.0000 0.0000
# 2 95.2431 59.2283 72.0532 0.0000 0.0000 0.0000
# 3 72.0532 72.0532 152.3309 0.0000 0.0000 0.0000
# 4 0.0000 0.0000 0.0000 20.1687 0.0000 0.0000
# 5 0.0000 0.0000 0.0000 0.0000 20.1687 0.0000
# 6 0.0000 0.0000 0.0000 0.0000 0.0000 -18.0074
#
#
#
# Elastic Compliance Matrix: (Units=1/GPa)
#
#
# Indices 1 2 3 4 5 6 
#
# 1 -0.008090 0.019676 -0.005480 0.000000 0.000000 0.000000
# 2 0.019676 -0.008090 -0.005480 0.000000 0.000000 0.000000
# 3 -0.005480 -0.005480 0.011749 0.000000 0.000000 0.000000
# 4 0.000000 0.000000 0.000000 0.049582 0.000000 0.000000
# 5 0.000000 0.000000 0.000000 0.000000 0.049582 0.000000
# 6 0.000000 0.000000 0.000000 0.000000 0.000000 -0.055533
#
#
# Mechanical properties :
#
#
# Convention : Reuss Voigt Hill
#
# Bulk Modulus (GPa) = 76.92142 83.27627 80.09885
# Shear Modulus (GPa) = 191.55530 6.56188 99.05859
#
# Velocity S-wave (km/s) = 10.06077 1.86208 7.23486
# Velocity P-wave (km/s) = 13.25159 6.97329 10.58847
#
# Compressibility (1/GPa) = 0.01300028
#
# Stress axis : x y z
#
# Youngs Moduli (GPa) = -123.60894 -123.60894 85.11255
#
# Poissons Ratio (x) = 2.43218 0.46645
# Poissons Ratio (y) = 2.43218 0.46645
# Poissons Ratio (z) = -0.67743 -0.67743
#
# Static dielectric constant tensor:
#      x y z
#    x 1.657090 0.000000 0.000000 
#    y 0.000000 1.657090 0.000000 
#    z 0.000000 0.000000 1.595370 
# 
# From -- ./inp_files/4086.got.cif
#   From: 2010.05.17/outbox.cif.g08.bks.cpg/sg178_3_cif.got.tgz:4086.got - 2010.05.20 11:30:59.
