data_PCOD9582281
_publ_section_title
;
Structure prediction by ZEFSAII (Michael W. Deem and Ramdas Pophale) SiO2 
 PCOD9582281
Probable space group: P 6 2 2
;
_chemical_formula_sum "Si O2"
_cell_formula_units_Z 84
_cell_length_a 18.212658
_cell_length_b 18.212658
_cell_length_c 13.862896
_cell_angle_alpha 90.000000
_cell_angle_beta 90.000000
_cell_angle_gamma 120.000000
_cell_volume 3982.275131
_symmetry_space_group_name_H-M "P 6 2 2"
_symmetry_group_IT_number 177
_symmetry_cell_setting 'hexagonal'
loop_
_space_group_symop_operation_xyz
x,y,z
x-y,x,z
-y,x-y,z
-x,-y,z
-x+y,-x,z
y,-x+y,z
x-y,-y,-z
-x,-x+y,-z
y,x,-z
-y,-x,-z
-x+y,y,-z
x,x-y,-z
loop_
_atom_site_type_symbol
_atom_site_label
_atom_site_fract_x
_atom_site_fract_y
_atom_site_fract_z
Si Si1 0.782813 0.077921 0.431276
Si Si2 0.093028 0.510425 0.637264
Si Si3 0.943690 0.267692 0.913763
Si Si4 0.236067 0.472133 0.000000
Si Si5 0.855328 0.807279 0.761705
Si Si6 0.062857 0.462149 0.848916
Si Si7 0.191427 0.595714 0.000000
Si Si8 0.519077 0.682995 0.450927
O O1 0.855601 0.144400 0.500000
O O2 0.822951 0.052885 0.344812
O O3 0.732661 0.124838 0.395487
O O4 0.725337 0.000000 0.500000
O O5 0.100417 0.476495 0.741227
O O6 0.105124 0.465402 0.544927
O O7 0.158679 0.609372 0.616388
O O8 0.000000 0.500000 0.634297
O O9 0.930898 0.200293 0.833675
O O10 0.005103 0.363845 0.875097
O O11 0.854390 0.253860 0.951740
O O12 0.000000 0.262556 0.000000
O O13 0.234765 0.552219 0.060331
O O14 0.837321 0.883996 0.775448
O O15 0.000000 0.500000 0.853826
O O16 0.136637 0.516051 0.926856
O O17 0.493492 0.746746 0.500000
#
# Coordination Sequence:
#
# PCOD9582281 Si02
#       8
#    12  12  12   6  12  12   6  12
#     4  11  22  39  65  99 136 181 236 290 349 426
#     4  10  22  41  66  97 130 185 239 285 355 436
#     4  12  25  47  75 107 141 188 248 305 357 443
#     4  12  25  44  71 104 146 182 231 298 361 428
#     4  12  28  47  72 106 145 190 237 300 376 445
#     4  11  22  42  73 100 134 185 241 288 363 422
#     4  12  24  46  67 102 144 186 225 298 361 423
#     4  10  22  40  62  95 141 180 230 301 354 413
#
# _framework density 21.09347
#
# number of rings (size 3 to 8) (size 9 to 14) (size 15 to 20)
#    0.000    0.857    4.286    3.071    6.000    0.000 
#    6.000    0.000    0.000    0.857    0.000    0.000 
#    0.000    0.000    0.000    0.000    0.000    0.000 
#
# Total GULP energy -467746.223614 kJ/mol
# GULP energy per Si atom -5568.407424 kJ/mol
# Density = 2.104546 g / cm^3
# Si number density = 21.093470 Si / 1000 Ang^3
#
#
#
# Elastic Constant Matrix: (Units=GPa)
#
#
# Indices 1 2 3 4 5 6 
#
# 1 111.9599 38.1161 17.5137 0.0000 0.0000 0.0000
# 2 38.1161 111.9599 17.5137 0.0000 0.0000 0.0000
# 3 17.5137 17.5137 65.9787 0.0000 0.0000 0.0000
# 4 0.0000 0.0000 0.0000 2.0332 0.0000 0.0000
# 5 0.0000 0.0000 0.0000 0.0000 2.0332 0.0000
# 6 0.0000 0.0000 0.0000 0.0000 0.0000 36.9219
#
#
#
# Elastic Compliance Matrix: (Units=1/GPa)
#
#
# Indices 1 2 3 4 5 6 
#
# 1 0.010323 -0.003219 -0.001886 0.000000 0.000000 0.000000
# 2 -0.003219 0.010323 -0.001886 0.000000 0.000000 0.000000
# 3 -0.001886 -0.001886 0.016157 0.000000 0.000000 0.000000
# 4 0.000000 0.000000 0.000000 0.491847 0.000000 0.000000
# 5 0.000000 0.000000 0.000000 0.000000 0.491847 0.000000
# 6 0.000000 0.000000 0.000000 0.000000 0.000000 0.027084
#
#
# Mechanical properties :
#
#
# Convention : Reuss Voigt Hill
#
# Bulk Modulus (GPa) = 43.81743 48.46504 46.14123
# Shear Modulus (GPa) = 4.67653 22.64798 13.66226
#
# Velocity S-wave (km/s) = 1.49059 3.28029 2.54776
# Velocity P-wave (km/s) = 4.87653 6.11337 5.52964
#
# Compressibility (1/GPa) = 0.02282197
#
# Stress axis : x y z
#
# Youngs Moduli (GPa) = 96.87357 96.87357 61.89102
#
# Poissons Ratio (x) = 0.31187 0.11670
# Poissons Ratio (y) = 0.31187 0.11670
# Poissons Ratio (z) = 0.18266 0.18266
#
# Static dielectric constant tensor:
#      x y z
#    x 1.725050 0.000000 0.000000 
#    y 0.000000 1.725050 0.000000 
#    z 0.000000 0.000000 0.362060 
# 
# From -- ./inp_files/2666.got.cif
#   From: 2010.05.17/outbox.cif.g08.bks.cpg/sg177_2_cif.got.tgz:2666.got - 2010.05.20 11:28:44.
