data_PCOD9582060
_publ_section_title
;
Structure prediction by ZEFSAII (Michael W. Deem and Ramdas Pophale) SiO2 
 PCOD9582060
Probable space group: P 63/M
;
_chemical_formula_sum "Si O2"
_cell_formula_units_Z 60
_cell_length_a 14.784989
_cell_length_b 14.784989
_cell_length_c 16.941288
_cell_angle_alpha 90.000000
_cell_angle_beta 90.000000
_cell_angle_gamma 120.000000
_cell_volume 3207.148494
_symmetry_space_group_name_H-M "P 63/M"
_symmetry_group_IT_number 176
_symmetry_cell_setting 'hexagonal'
loop_
_space_group_symop_operation_xyz
x,y,z
x-y,x,1/2+z
-y,x-y,z
-x,-y,1/2+z
-x+y,-x,z
y,-x+y,1/2+z
-x,-y,-z
-x+y,-x,1/2-z
y,-x+y,-z
x,y,1/2-z
x-y,x,-z
-y,x-y,1/2-z
loop_
_atom_site_type_symbol
_atom_site_label
_atom_site_fract_x
_atom_site_fract_y
_atom_site_fract_z
Si Si1 0.750458 0.286201 0.388891
Si Si2 0.942874 0.175130 0.007610
Si Si3 0.120364 0.518129 0.157539
Si Si4 0.943275 0.287724 0.336266
Si Si5 0.273306 0.457497 0.067240
O O1 0.777812 0.405036 0.372342
O O2 0.822276 0.254566 0.341504
O O3 0.771942 0.279325 0.481172
O O4 0.890755 0.225155 0.950648
O O5 0.965468 0.233939 0.091260
O O6 0.053813 0.193868 0.978858
O O7 0.143223 0.546724 0.250000
O O8 0.201584 0.485808 0.121572
O O9 0.126925 0.613112 0.107396
O O10 0.009438 0.412401 0.151874
O O11 0.970399 0.264532 0.250000
#
# Coordination Sequence:
#
# PCOD9582060 Si02
#       5
#    12  12  12  12  12
#     4   9  18  34  56  81 119 162 204 241 300 381
#     4  11  24  45  70  92 121 170 227 276 319 380
#     4  11  21  36  58  91 132 166 200 253 322 383
#     4  10  23  39  59  90 127 159 203 273 321 368
#     4  11  20  37  59  95 126 166 210 256 311 390
#
# _framework density 18.708207000000002
#
# number of rings (size 3 to 8) (size 9 to 14) (size 15 to 20)
#    0.400    1.200    4.000    1.200    0.000    7.200 
#    0.000    5.000    0.000    0.000    0.000    0.000 
#    0.000    0.000    0.000    0.000    0.000    0.000 
#
# Total GULP energy -334632.822190 kJ/mol
# GULP energy per Si atom -5577.213703 kJ/mol
# Density = 1.866563 g / cm^3
# Si number density = 18.708207 Si / 1000 Ang^3
#
#
#
# Elastic Constant Matrix: (Units=GPa)
#
#
# Indices 1 2 3 4 5 6 
#
# 1 82.7631 18.1175 23.6401 0.0000 0.0000 0.0000
# 2 18.1175 82.7631 23.6401 0.0000 0.0000 0.0000
# 3 23.6401 23.6401 77.9142 0.0000 0.0000 0.0000
# 4 0.0000 0.0000 0.0000 7.7546 0.0000 0.0000
# 5 0.0000 0.0000 0.0000 0.0000 7.7546 0.0000
# 6 0.0000 0.0000 0.0000 0.0000 0.0000 32.3228
#
#
#
# Elastic Compliance Matrix: (Units=1/GPa)
#
#
# Indices 1 2 3 4 5 6 
#
# 1 0.013512 -0.001956 -0.003506 0.000000 0.000000 0.000000
# 2 -0.001956 0.013512 -0.003506 0.000000 0.000000 0.000000
# 3 -0.003506 -0.003506 0.014962 0.000000 0.000000 0.000000
# 4 0.000000 0.000000 0.000000 0.128956 0.000000 0.000000
# 5 0.000000 0.000000 0.000000 0.000000 0.128956 0.000000
# 6 0.000000 0.000000 0.000000 0.000000 0.000000 0.030938
#
#
# Mechanical properties :
#
#
# Convention : Reuss Voigt Hill
#
# Bulk Modulus (GPa) = 41.58113 41.58175 41.58144
# Shear Modulus (GPa) = 14.01381 21.43592 17.72486
#
# Velocity S-wave (km/s) = 2.73989 3.38864 3.08139
# Velocity P-wave (km/s) = 5.68188 6.13068 5.91054
#
# Compressibility (1/GPa) = 0.02404937
#
# Stress axis : x y z
#
# Youngs Moduli (GPa) = 74.00572 74.00572 66.83472
#
# Poissons Ratio (x) = 0.14479 0.23434
# Poissons Ratio (y) = 0.14479 0.23434
# Poissons Ratio (z) = 0.25948 0.25948
#
# Static dielectric constant tensor:
#      x y z
#    x 1.645420 0.000000 0.000000 
#    y 0.000000 1.645420 0.000000 
#    z 0.000000 0.000000 1.645730 
# 
# From -- ./inp_files/2626.got.cif
#   From: 2010.05.17/outbox.cif.g08.bks.cpg/sg176_2_cif.got.tgz:2626.got - 2010.06.03 11:36:45.
