data_PCOD9582250
_publ_section_title
;
Structure prediction by ZEFSAII (Michael W. Deem and Ramdas Pophale) SiO2 
 PCOD9582250
Probable space group: P 6 2 2
;
_chemical_formula_sum "Si O2"
_cell_formula_units_Z 96
_cell_length_a 27.755089
_cell_length_b 27.755089
_cell_length_c 7.535253
_cell_angle_alpha 90.000000
_cell_angle_beta 90.000000
_cell_angle_gamma 120.000000
_cell_volume 5027.055950
_symmetry_space_group_name_H-M "P 6 2 2"
_symmetry_group_IT_number 177
_symmetry_cell_setting 'hexagonal'
loop_
_space_group_symop_operation_xyz
x,y,z
x-y,x,z
-y,x-y,z
-x,-y,z
-x+y,-x,z
y,-x+y,z
x-y,-y,-z
-x,-x+y,-z
y,x,-z
-y,-x,-z
-x+y,y,-z
x,x-y,-z
loop_
_atom_site_type_symbol
_atom_site_label
_atom_site_fract_x
_atom_site_fract_y
_atom_site_fract_z
Si Si1 0.059779 0.419533 0.219789
Si Si2 0.535442 0.063228 0.289559
Si Si3 0.756564 0.623282 0.210720
Si Si4 0.833447 0.071247 0.207363
Si Si5 0.067119 0.634034 0.199567
Si Si6 0.776676 0.738518 0.148779
Si Si7 0.233221 0.866396 0.221752
Si Si8 0.874068 0.934524 0.288985
O O1 0.085039 0.485255 0.254375
O O2 0.095917 0.392406 0.287743
O O3 0.994942 0.389484 0.281416
O O4 0.059589 0.417034 0.006834
O O5 0.530430 0.060860 0.500000
O O6 0.498364 0.088364 0.218768
O O7 0.500000 0.000000 0.216309
O O8 0.694134 0.582334 0.270180
O O9 0.768521 0.685549 0.252636
O O10 0.802397 0.608560 0.276592
O O11 0.761268 0.626853 0.993999
O O12 0.932401 0.173739 0.007065
O O13 0.805801 0.107274 0.265556
O O14 0.893919 0.085452 0.263312
O O15 0.789081 0.007424 0.262286
O O16 0.727544 0.727544 0.000000
O O17 0.904699 0.901845 0.216968
O O18 0.882635 0.941318 0.500000
#
# Coordination Sequence:
#
# PCOD9582250 Si02
#       8
#    12  12  12  12  12  12  12  12
#     4   9  16  27  44  67  96 122 157 194 229 259
#     4   9  17  29  45  64  91 123 157 185 225 268
#     4   9  15  24  41  68  99 121 155 182 229 279
#     4   8  16  28  46  66  87 110 144 178 236 293
#     4   9  16  25  45  68  92 123 160 198 218 267
#     4   7  15  26  42  69  95 116 141 180 231 293
#     4   9  16  25  42  68  96 125 147 186 231 284
#     4  10  21  36  51  60  72 100 149 207 256 301
#
# _framework density 19.096661999999998
#
# number of rings (size 3 to 8) (size 9 to 14) (size 15 to 20)
#    0.750    2.375    0.000    1.250    3.500    2.000 
#    2.250    0.000    2.750    1.500    0.000    3.500 
#    1.250    0.000    2.250    0.000    0.750    0.000 
#
# Total GULP energy -534432.996481 kJ/mol
# GULP energy per Si atom -5567.010380 kJ/mol
# Density = 1.905320 g / cm^3
# Si number density = 19.096662 Si / 1000 Ang^3
#
#
#
# Elastic Constant Matrix: (Units=GPa)
#
#
# Indices 1 2 3 4 5 6 
#
# 1 121.3253 82.4015 5.5095 0.0000 0.0000 0.0000
# 2 82.4015 121.3253 5.5095 0.0000 0.0000 0.0000
# 3 5.5095 5.5095 33.1763 0.0000 0.0000 0.0000
# 4 0.0000 0.0000 0.0000 -3.8298 0.0000 0.0000
# 5 0.0000 0.0000 0.0000 0.0000 -3.8298 0.0000
# 6 0.0000 0.0000 0.0000 0.0000 0.0000 19.4619
#
#
#
# Elastic Compliance Matrix: (Units=1/GPa)
#
#
# Indices 1 2 3 4 5 6 
#
# 1 0.015322 -0.010369 -0.000823 0.000000 0.000000 0.000000
# 2 -0.010369 0.015322 -0.000823 0.000000 0.000000 0.000000
# 3 -0.000823 -0.000823 0.030415 0.000000 0.000000 0.000000
# 4 0.000000 0.000000 0.000000 -0.261109 0.000000 0.000000
# 5 0.000000 0.000000 0.000000 0.000000 -0.261109 0.000000
# 6 0.000000 0.000000 0.000000 0.000000 0.000000 0.051382
#
#
# Mechanical properties :
#
#
# Convention : Reuss Voigt Hill
#
# Bulk Modulus (GPa) = 27.00431 51.40754 39.20592
# Shear Modulus (GPa) = -13.39030 14.52089 0.56529
#
# Velocity S-wave (km/s) = -2.65086 2.76051 0.54466
# Velocity P-wave (km/s) = 2.19137 6.09415 4.57934
#
# Compressibility (1/GPa) = 0.03703113
#
# Stress axis : x y z
#
# Youngs Moduli (GPa) = 65.26518 65.26518 32.87827
#
# Poissons Ratio (x) = 0.67674 0.02704
# Poissons Ratio (y) = 0.67674 0.02704
# Poissons Ratio (z) = 0.05368 0.05368
#
# Static dielectric constant tensor:
#      x y z
#    x 1.720590 0.000000 0.000000 
#    y 0.000000 1.720590 0.000000 
#    z 0.000000 0.000000 1.727640 
# 
# From -- ./inp_files/2209.got.cif
#   From: 2010.05.17/outbox.cif.g08.bks.cpg/sg177_2_cif.got.tgz:2209.got - 2010.05.20 11:28:44.
