data_PCOD9582449
_publ_section_title
;
Structure prediction by ZEFSAII (Michael W. Deem and Ramdas Pophale) SiO2 
 PCOD9582449
Probable space group: P 61 2 2
;
_chemical_formula_sum "Si O2"
_cell_formula_units_Z 60
_cell_length_a 11.787943
_cell_length_b 11.787943
_cell_length_c 29.140820
_cell_angle_alpha 90.000000
_cell_angle_beta 90.000000
_cell_angle_gamma 120.000000
_cell_volume 3506.779462
_symmetry_space_group_name_H-M "P 61 2 2"
_symmetry_group_IT_number 178
_symmetry_cell_setting 'hexagonal'
loop_
_space_group_symop_operation_xyz
x,y,z
x-y,x,1/6+z
-y,x-y,1/3+z
-x,-y,1/2+z
-x+y,-x,2/3+z
y,-x+y,5/6+z
x-y,-y,-z
-x,-x+y,2/3-z
y,x,1/3-z
-y,-x,5/6-z
-x+y,y,1/2-z
x,x-y,1/6-z
loop_
_atom_site_type_symbol
_atom_site_label
_atom_site_fract_x
_atom_site_fract_y
_atom_site_fract_z
Si Si1 0.409200 0.726685 0.636614
Si Si2 0.069464 0.635256 0.546494
Si Si3 0.342142 0.890208 0.534749
Si Si4 0.466603 0.472785 0.046480
Si Si5 0.500569 0.724990 0.385230
O O1 0.374238 0.687119 0.583334
O O2 0.410198 0.598672 0.654635
O O3 0.307618 0.747587 0.667003
O O4 0.533463 0.873252 0.635270
O O5 0.086965 0.543483 0.583334
O O6 0.193447 0.780096 0.545906
O O7 0.055461 0.570182 0.496682
O O8 0.925673 0.614735 0.556218
O O9 0.354871 0.000000 0.500000
O O10 0.425797 0.959173 0.580087
O O11 0.329480 0.455752 0.062368
O O12 0.379868 0.620133 0.416667
#
# Coordination Sequence:
#
# PCOD9582449 Si02
#       5
#    12  12  12  12  12
#     4   9  18  33  50  78 109 143 183 227 287 333
#     4  10  21  35  54  81 117 146 189 243 295 342
#     4  11  21  34  56  82 117 150 195 241 290 351
#     4  10  20  31  58  81 111 152 185 236 290 350
#     4  10  19  32  51  81 112 141 188 238 287 347
#
# _framework density 17.109717
#
# number of rings (size 3 to 8) (size 9 to 14) (size 15 to 20)
#    0.000    2.000    2.000    3.000    2.800    0.000 
#    0.000    0.000    0.000    1.200   10.400    0.000 
#    0.000    0.000    0.000    0.000    0.000    0.000 
#
# Total GULP energy -334041.668065 kJ/mol
# GULP energy per Si atom -5567.361134 kJ/mol
# Density = 1.707077 g / cm^3
# Si number density = 17.109717 Si / 1000 Ang^3
#
#
#
# Elastic Constant Matrix: (Units=GPa)
#
#
# Indices 1 2 3 4 5 6 
#
# 1 135.2083 59.4540 35.0593 0.0000 0.0000 0.0000
# 2 59.4540 135.2083 35.0593 0.0000 0.0000 0.0000
# 3 35.0593 35.0593 69.4280 0.0000 0.0000 0.0000
# 4 0.0000 0.0000 0.0000 21.4370 0.0000 0.0000
# 5 0.0000 0.0000 0.0000 0.0000 21.4370 0.0000
# 6 0.0000 0.0000 0.0000 0.0000 0.0000 37.8771
#
#
#
# Elastic Compliance Matrix: (Units=1/GPa)
#
#
# Indices 1 2 3 4 5 6 
#
# 1 0.009740 -0.003461 -0.003171 0.000000 0.000000 0.000000
# 2 -0.003461 0.009740 -0.003171 0.000000 0.000000 0.000000
# 3 -0.003171 -0.003171 0.017606 0.000000 0.000000 0.000000
# 4 0.000000 0.000000 0.000000 0.046648 0.000000 0.000000
# 5 0.000000 0.000000 0.000000 0.000000 0.046648 0.000000
# 6 0.000000 0.000000 0.000000 0.000000 0.000000 0.026401
#
#
# Mechanical properties :
#
#
# Convention : Reuss Voigt Hill
#
# Bulk Modulus (GPa) = 57.20530 66.55441 61.87986
# Shear Modulus (GPa) = 27.44010 30.16837 28.80423
#
# Velocity S-wave (km/s) = 4.00906 4.20364 4.10750
# Velocity P-wave (km/s) = 7.41195 7.90847 7.66423
#
# Compressibility (1/GPa) = 0.01748090
#
# Stress axis : x y z
#
# Youngs Moduli (GPa) = 102.67026 102.67026 56.79944
#
# Poissons Ratio (x) = 0.35531 0.18010
# Poissons Ratio (y) = 0.35531 0.18010
# Poissons Ratio (z) = 0.32555 0.32555
#
# Static dielectric constant tensor:
#      x y z
#    x 1.604840 0.000000 0.000000 
#    y 0.000000 1.604840 0.000000 
#    z 0.000000 0.000000 1.642960 
# 
# From -- ./inp_files/8792.got.cif
#   From: 2010.05.17/outbox.cif.g08.bks.cpg/sg178_5_cif.got.tgz:8792.got - 2010.05.20 11:30:59.
