data_PCOD9582181
_publ_section_title
;
Structure prediction by ZEFSAII (Michael W. Deem and Ramdas Pophale) SiO2 
 PCOD9582181
Probable space group: P 6 2 2
;
_chemical_formula_sum "Si O2"
_cell_formula_units_Z 96
_cell_length_a 14.229048
_cell_length_b 14.229048
_cell_length_c 31.930932
_cell_angle_alpha 90.000000
_cell_angle_beta 90.000000
_cell_angle_gamma 120.000000
_cell_volume 5598.786612
_symmetry_space_group_name_H-M "P 6 2 2"
_symmetry_group_IT_number 177
_symmetry_cell_setting 'hexagonal'
loop_
_space_group_symop_operation_xyz
x,y,z
x-y,x,z
-y,x-y,z
-x,-y,z
-x+y,-x,z
y,-x+y,z
x-y,-y,-z
-x,-x+y,-z
y,x,-z
-y,-x,-z
-x+y,y,-z
x,x-y,-z
loop_
_atom_site_type_symbol
_atom_site_label
_atom_site_fract_x
_atom_site_fract_y
_atom_site_fract_z
Si Si1 0.776603 0.587097 0.547952
Si Si2 0.205343 0.239946 0.865754
Si Si3 0.758673 0.586866 0.700508
Si Si4 0.059465 0.810316 0.774382
Si Si5 0.918127 0.745118 0.377700
Si Si6 0.589861 0.463468 0.320871
Si Si7 0.219653 0.988382 0.044799
Si Si8 0.126938 0.547770 0.583759
O O1 0.808518 0.617035 0.500000
O O2 0.790758 0.684390 0.577619
O O3 0.853825 0.543313 0.564065
O O4 0.656641 0.483835 0.556380
O O5 0.209888 0.129473 0.865763
O O6 0.240897 0.296187 0.820431
O O7 0.262541 0.291154 0.910354
O O8 0.761679 0.661542 0.738324
O O9 0.767926 0.652635 0.657812
O O10 0.650589 0.470483 0.702494
O O11 0.853322 0.556053 0.697917
O O12 0.938829 0.792506 0.770610
O O13 0.837698 0.794318 0.373225
O O14 0.500000 0.500000 0.321251
O O15 0.606512 0.436960 0.368682
O O16 0.213039 0.098287 0.044790
O O17 0.278084 0.000000 0.000000
O O18 0.000000 0.500000 0.586753
#
# Coordination Sequence:
#
# PCOD9582181 Si02
#       8
#    12  12  12  12  12  12  12  12
#     4  12  25  40  62  88 112 136 163 198 246 301
#     4   8  13  20  31  50  80 120 167 210 244 278
#     4  12  23  38  59  80 103 127 160 209 257 305
#     4  10  19  31  48  72 103 139 176 211 244 286
#     4  12  25  42  61  82 109 141 174 204 236 282
#     4  11  21  37  59  80  99 123 156 196 249 302
#     4   8  11  14  22  39  67 108 161 213 250 278
#     4  11  22  40  61  81 105 131 160 198 244 296
#
# _framework density 17.146573
#
# number of rings (size 3 to 8) (size 9 to 14) (size 15 to 20)
#    0.000    1.500    2.500    4.375    0.000    5.000 
#    0.000    1.250    0.000    0.750    0.000    0.000 
#    0.000    0.000    0.000    0.000    0.000   86.875 
#
# Total GULP energy -534740.678025 kJ/mol
# GULP energy per Si atom -5570.215396 kJ/mol
# Density = 1.710755 g / cm^3
# Si number density = 17.146573 Si / 1000 Ang^3
#
#
#
# Elastic Constant Matrix: (Units=GPa)
#
#
# Indices 1 2 3 4 5 6 
#
# 1 47.3832 0.8031 17.8055 0.0000 0.0000 0.0000
# 2 0.8031 47.3832 17.8055 0.0000 0.0000 0.0000
# 3 17.8055 17.8055 145.9159 0.0000 0.0000 0.0000
# 4 0.0000 0.0000 0.0000 13.0894 0.0000 0.0000
# 5 0.0000 0.0000 0.0000 0.0000 13.0894 0.0000
# 6 0.0000 0.0000 0.0000 0.0000 0.0000 23.2901
#
#
#
# Elastic Compliance Matrix: (Units=1/GPa)
#
#
# Indices 1 2 3 4 5 6 
#
# 1 0.022139 0.000671 -0.002783 0.000000 0.000000 0.000000
# 2 0.000671 0.022139 -0.002783 0.000000 0.000000 0.000000
# 3 -0.002783 -0.002783 0.007533 0.000000 0.000000 0.000000
# 4 0.000000 0.000000 0.000000 0.076397 0.000000 0.000000
# 5 0.000000 0.000000 0.000000 0.000000 0.076397 0.000000
# 6 0.000000 0.000000 0.000000 0.000000 0.000000 0.042937
#
#
# Mechanical properties :
#
#
# Convention : Reuss Voigt Hill
#
# Bulk Modulus (GPa) = 23.79895 34.83446 29.31671
# Shear Modulus (GPa) = 18.42702 23.51167 20.96935
#
# Velocity S-wave (km/s) = 3.28178 3.70701 3.50086
# Velocity P-wave (km/s) = 5.31695 6.21952 5.78586
#
# Compressibility (1/GPa) = 0.04201867
#
# Stress axis : x y z
#
# Youngs Moduli (GPa) = 45.16895 45.16895 132.75723
#
# Poissons Ratio (x) = -0.03030 0.36951
# Poissons Ratio (y) = -0.03030 0.36951
# Poissons Ratio (z) = 0.12572 0.12572
#
# Static dielectric constant tensor:
#      x y z
#    x 1.528960 0.000000 0.000000 
#    y 0.000000 1.528960 0.000000 
#    z 0.000000 0.000000 1.681460 
# 
# From -- ./inp_files/3320.got.cif
#   From: 2010.05.17/outbox.cif.g08.bks.cpg/sg177_2_cif.got.tgz:3320.got - 2010.05.20 11:28:44.
