data_PCOD9582065
_publ_section_title
;
Structure prediction by ZEFSAII (Michael W. Deem and Ramdas Pophale) SiO2 
 PCOD9582065
Probable space group: P 63/M
;
_chemical_formula_sum "Si O2"
_cell_formula_units_Z 36
_cell_length_a 16.207922
_cell_length_b 16.207922
_cell_length_c 7.968127
_cell_angle_alpha 90.000000
_cell_angle_beta 90.000000
_cell_angle_gamma 120.000000
_cell_volume 1812.765199
_symmetry_space_group_name_H-M "P 63/M"
_symmetry_group_IT_number 176
_symmetry_cell_setting 'hexagonal'
loop_
_space_group_symop_operation_xyz
x,y,z
x-y,x,1/2+z
-y,x-y,z
-x,-y,1/2+z
-x+y,-x,z
y,-x+y,1/2+z
-x,-y,-z
-x+y,-x,1/2-z
y,-x+y,-z
x,y,1/2-z
x-y,x,-z
-y,x-y,1/2-z
loop_
_atom_site_type_symbol
_atom_site_label
_atom_site_fract_x
_atom_site_fract_y
_atom_site_fract_z
Si Si1 0.024656 0.651398 0.934927
Si Si2 0.849768 0.791668 0.554038
Si Si3 0.700743 0.158455 0.750000
Si Si4 0.493520 0.123350 0.750000
O O1 0.058414 0.639889 0.750000
O O2 0.910183 0.599454 0.907670
O O3 0.062502 0.761661 0.973423
O O4 0.058987 0.611739 0.085527
O O5 0.824050 0.875024 0.536154
O O6 0.858949 0.774003 0.750000
O O7 0.606147 0.166648 0.750000
O O8 0.793664 0.260212 0.750000
#
# Coordination Sequence:
#
# PCOD9582065 Si02
#       4
#    12  12   6   6
#     4  10  23  41  64  93 121 170 219 247 320 390
#     4  12  23  38  58  88 127 168 215 269 322 384
#     4  10  25  40  71  98 124 170 214 258 337 376
#     4  12  21  48  65  96 136 160 210 282 311 386
#
# _framework density 19.859164
#
# number of rings (size 3 to 8) (size 9 to 14) (size 15 to 20)
#    1.000    0.000    1.667    6.667    0.000    0.000 
#    3.000    0.000    0.000    0.000    0.000    0.000 
#    0.000    0.000    0.000    0.000    0.000    0.000 
#
# Total GULP energy -201105.164284 kJ/mol
# GULP energy per Si atom -5586.254563 kJ/mol
# Density = 1.981396 g / cm^3
# Si number density = 19.859164 Si / 1000 Ang^3
#
#
#
# Elastic Constant Matrix: (Units=GPa)
#
#
# Indices 1 2 3 4 5 6 
#
# 1 73.4915 7.6335 23.4381 0.0000 0.0000 0.0000
# 2 7.6335 73.4915 23.4381 0.0000 0.0000 0.0000
# 3 23.4381 23.4381 135.5078 0.0000 0.0000 0.0000
# 4 0.0000 0.0000 0.0000 22.7265 0.0000 0.0000
# 5 0.0000 0.0000 0.0000 0.0000 22.7265 0.0000
# 6 0.0000 0.0000 0.0000 0.0000 0.0000 32.9290
#
#
#
# Elastic Compliance Matrix: (Units=1/GPa)
#
#
# Indices 1 2 3 4 5 6 
#
# 1 0.014440 -0.000744 -0.002369 0.000000 0.000000 0.000000
# 2 -0.000744 0.014440 -0.002369 0.000000 0.000000 0.000000
# 3 -0.002369 -0.002369 0.008199 0.000000 0.000000 0.000000
# 4 0.000000 0.000000 0.000000 0.044001 0.000000 0.000000
# 5 0.000000 0.000000 0.000000 0.000000 0.044001 0.000000
# 6 0.000000 0.000000 0.000000 0.000000 0.000000 0.030368
#
#
# Mechanical properties :
#
#
# Convention : Reuss Voigt Hill
#
# Bulk Modulus (GPa) = 38.29270 43.50114 40.89692
# Shear Modulus (GPa) = 28.55203 30.87514 29.71358
#
# Velocity S-wave (km/s) = 3.79585 3.94725 3.87229
# Velocity P-wave (km/s) = 6.20768 6.53657 6.37425
#
# Compressibility (1/GPa) = 0.02611463
#
# Stress axis : x y z
#
# Youngs Moduli (GPa) = 69.25298 69.25298 121.96457
#
# Poissons Ratio (x) = 0.05155 0.28891
# Poissons Ratio (y) = 0.05155 0.28891
# Poissons Ratio (z) = 0.16405 0.16405
#
# Static dielectric constant tensor:
#      x y z
#    x 1.696160 0.000000 0.000000 
#    y 0.000000 1.696160 0.000000 
#    z 0.000000 0.000000 1.686070 
# 
# From -- ./inp_files/428.got.cif
#   From: 2010.05.17/outbox.cif.g08.bks.cpg/sg176_1_cif.got.tgz:428.got - 2010.06.03 11:36:45.
