data_PCOD9582920
_publ_section_title
;
Structure prediction by ZEFSAII (Michael W. Deem and Ramdas Pophale) SiO2 
 PCOD9582920
Probable space group: P 61 2 2
;
_chemical_formula_sum "Si O2"
_cell_formula_units_Z 48
_cell_length_a 14.852283
_cell_length_b 14.852283
_cell_length_c 11.539351
_cell_angle_alpha 90.000000
_cell_angle_beta 90.000000
_cell_angle_gamma 120.000000
_cell_volume 2204.440834
_symmetry_space_group_name_H-M "P 61 2 2"
_symmetry_group_IT_number 178
_symmetry_cell_setting 'hexagonal'
loop_
_space_group_symop_operation_xyz
x,y,z
x-y,x,1/6+z
-y,x-y,1/3+z
-x,-y,1/2+z
-x+y,-x,2/3+z
y,-x+y,5/6+z
x-y,-y,-z
-x,-x+y,2/3-z
y,x,1/3-z
-y,-x,5/6-z
-x+y,y,1/2-z
x,x-y,1/6-z
loop_
_atom_site_type_symbol
_atom_site_label
_atom_site_fract_x
_atom_site_fract_y
_atom_site_fract_z
Si Si1 0.842688 0.837776 0.844444
Si Si2 0.417002 0.512118 0.739947
Si Si3 0.680194 0.433809 0.032983
Si Si4 0.895345 0.597251 0.035284
O O1 0.852730 0.944141 0.793966
O O2 0.901892 0.803783 0.750000
O O3 0.720073 0.755962 0.854246
O O4 0.430779 0.430779 0.666667
O O5 0.384936 0.568639 0.644149
O O6 0.527342 0.596071 0.795958
O O7 0.331531 0.443475 0.834258
O O8 0.727739 0.363870 0.083334
O O9 0.773625 0.548439 0.003161
O O10 0.615163 0.384838 0.916667
#
# Coordination Sequence:
#
# PCOD9582920 Si02
#       4
#    12  12  12  12
#     4  10  25  51  78 106 141 192 271 336 394 450
#     4  11  26  41  64 111 155 193 251 307 369 479
#     4  12  22  46  72 106 156 206 240 299 386 466
#     4  11  24  46  73 103 155 199 253 311 384 469
#
# _framework density 21.774229999999999
#
# number of rings (size 3 to 8) (size 9 to 14) (size 15 to 20)
#    0.000    1.000    5.000    0.750   10.500    0.000 
#    4.500   12.500    0.000    0.000    0.000    0.000 
#    0.000    0.000    0.000    0.000    0.000    0.000 
#
# Total GULP energy -267915.599690 kJ/mol
# GULP energy per Si atom -5581.574994 kJ/mol
# Density = 2.172467 g / cm^3
# Si number density = 21.774230 Si / 1000 Ang^3
#
#
#
# Elastic Constant Matrix: (Units=GPa)
#
#
# Indices 1 2 3 4 5 6 
#
# 1 156.8218 36.0882 53.8562 0.0000 0.0000 0.0000
# 2 36.0882 156.8218 53.8562 0.0000 0.0000 0.0000
# 3 53.8562 53.8562 112.2849 0.0000 0.0000 0.0000
# 4 0.0000 0.0000 0.0000 14.7302 0.0000 0.0000
# 5 0.0000 0.0000 0.0000 0.0000 14.7302 0.0000
# 6 0.0000 0.0000 0.0000 0.0000 0.0000 60.3668
#
#
#
# Elastic Compliance Matrix: (Units=1/GPa)
#
#
# Indices 1 2 3 4 5 6 
#
# 1 0.007681 -0.000601 -0.003396 0.000000 0.000000 0.000000
# 2 -0.000601 0.007681 -0.003396 0.000000 0.000000 0.000000
# 3 -0.003396 -0.003396 0.012163 0.000000 0.000000 0.000000
# 4 0.000000 0.000000 0.000000 0.067888 0.000000 0.000000
# 5 0.000000 0.000000 0.000000 0.000000 0.067888 0.000000
# 6 0.000000 0.000000 0.000000 0.000000 0.000000 0.016565
#
#
# Mechanical properties :
#
#
# Convention : Reuss Voigt Hill
#
# Bulk Modulus (GPa) = 78.49298 79.28107 78.88702
# Shear Modulus (GPa) = 25.13833 36.77396 30.95614
#
# Velocity S-wave (km/s) = 3.40148 4.11405 3.77462
# Velocity P-wave (km/s) = 7.18008 7.68484 7.43674
#
# Compressibility (1/GPa) = 0.01273999
#
# Stress axis : x y z
#
# Youngs Moduli (GPa) = 130.18715 130.18715 82.21393
#
# Poissons Ratio (x) = 0.07830 0.27918
# Poissons Ratio (y) = 0.07830 0.27918
# Poissons Ratio (z) = 0.44208 0.44208
#
# Static dielectric constant tensor:
#      x y z
#    x 2.119530 0.000000 0.000000 
#    y 0.000000 2.119530 0.000000 
#    z 0.000000 0.000000 1.796910 
# 
# From -- ./inp_files/4112.got.cif
#   From: 2010.05.17/outbox.cif.g08.bks.cpg/sg178_3_cif.got.tgz:4112.got - 2010.05.20 11:30:59.
