data_PCOD9582778
_publ_section_title
;
Structure prediction by ZEFSAII (Michael W. Deem and Ramdas Pophale) SiO2 
 PCOD9582778
Probable space group: P 61 2 2
;
_chemical_formula_sum "Si O2"
_cell_formula_units_Z 42
_cell_length_a 8.436923
_cell_length_b 8.436923
_cell_length_c 25.197121
_cell_angle_alpha 90.000000
_cell_angle_beta 90.000000
_cell_angle_gamma 120.000000
_cell_volume 1553.279907
_symmetry_space_group_name_H-M "P 61 2 2"
_symmetry_group_IT_number 178
_symmetry_cell_setting 'hexagonal'
loop_
_space_group_symop_operation_xyz
x,y,z
x-y,x,1/6+z
-y,x-y,1/3+z
-x,-y,1/2+z
-x+y,-x,2/3+z
y,-x+y,5/6+z
x-y,-y,-z
-x,-x+y,2/3-z
y,x,1/3-z
-y,-x,5/6-z
-x+y,y,1/2-z
x,x-y,1/6-z
loop_
_atom_site_type_symbol
_atom_site_label
_atom_site_fract_x
_atom_site_fract_y
_atom_site_fract_z
Si Si1 0.163213 0.000000 0.500000
Si Si2 0.538457 0.076913 0.750000
Si Si3 0.641270 0.000000 0.500000
Si Si4 0.573332 0.318873 0.839887
Si Si5 0.766262 0.233739 0.916667
Si Si6 0.936313 0.872625 0.750000
O O1 0.332376 0.108136 0.538289
O O2 0.091978 0.096322 0.459116
O O3 0.492195 0.212461 0.784512
O O4 0.413255 0.938609 0.703522
O O5 0.463770 0.792439 0.502260
O O6 0.754761 0.999961 0.550694
O O7 0.582697 0.185467 0.884694
#
# Coordination Sequence:
#
# PCOD9582778 Si02
#       6
#     6   6   6  12   6   6
#     4   9  19  40  68 118 156 204 258 332 396 492
#     4  11  29  53  85 120 166 226 285 355 439 517
#     4  11  23  44  78 114 164 214 274 342 414 500
#     4  11  27  51  80 119 167 219 281 348 428 520
#     4  10  22  40  72 108 152 200 256 326 404 480
#     4   9  21  39  69 118 158 208 267 333 399 487
#
# _framework density 27.039555
#
# number of rings (size 3 to 8) (size 9 to 14) (size 15 to 20)
#    0.000    1.714    0.000    1.714    4.000   11.429 
#   10.286    0.000    0.000    0.000    0.000    0.000 
#    0.000    0.000    0.000    0.000    0.000    0.000 
#
# Total GULP energy -234653.795418 kJ/mol
# GULP energy per Si atom -5586.995129 kJ/mol
# Density = 2.697801 g / cm^3
# Si number density = 27.039555 Si / 1000 Ang^3
#
#
#
# Elastic Constant Matrix: (Units=GPa)
#
#
# Indices 1 2 3 4 5 6 
#
# 1 109.9579 78.8989 75.0586 0.0000 0.0000 0.0000
# 2 78.8989 109.9579 75.0586 0.0000 0.0000 0.0000
# 3 75.0586 75.0586 216.5918 0.0000 0.0000 0.0000
# 4 0.0000 0.0000 0.0000 6.9288 0.0000 0.0000
# 5 0.0000 0.0000 0.0000 0.0000 6.9288 0.0000
# 6 0.0000 0.0000 0.0000 0.0000 0.0000 15.5295
#
#
#
# Elastic Compliance Matrix: (Units=1/GPa)
#
#
# Indices 1 2 3 4 5 6 
#
# 1 0.019752 -0.012444 -0.002533 0.000000 0.000000 0.000000
# 2 -0.012444 0.019752 -0.002533 0.000000 0.000000 0.000000
# 3 -0.002533 -0.002533 0.006372 0.000000 0.000000 0.000000
# 4 0.000000 0.000000 0.000000 0.144326 0.000000 0.000000
# 5 0.000000 0.000000 0.000000 0.000000 0.144326 0.000000
# 6 0.000000 0.000000 0.000000 0.000000 0.000000 0.064393
#
#
# Mechanical properties :
#
#
# Convention : Reuss Voigt Hill
#
# Bulk Modulus (GPa) = 92.09665 99.39333 95.74499
# Shear Modulus (GPa) = 11.42699 19.71018 15.56858
#
# Velocity S-wave (km/s) = 2.05796 2.70282 2.40213
# Velocity P-wave (km/s) = 6.30721 6.82485 6.57113
#
# Compressibility (1/GPa) = 0.01085816
#
# Stress axis : x y z
#
# Youngs Moduli (GPa) = 50.62673 50.62673 156.92967
#
# Poissons Ratio (x) = 0.63001 0.39744
# Poissons Ratio (y) = 0.63001 0.39744
# Poissons Ratio (z) = 0.12822 0.12822
#
# Static dielectric constant tensor:
#      x y z
#    x 2.210120 0.000000 0.000000 
#    y 0.000000 2.210120 0.000000 
#    z 0.000000 0.000000 2.057830 
# 
# From -- ./inp_files/9229.got.cif
#   From: 2010.05.17/outbox.cif.g08.bks.cpg/sg178_5_cif.got.tgz:9229.got - 2010.05.20 11:30:59.
