data_PCOD9582419
_publ_section_title
;
Structure prediction by ZEFSAII (Michael W. Deem and Ramdas Pophale) SiO2 
 PCOD9582419
Probable space group: P 61 2 2
;
_chemical_formula_sum "Si O2"
_cell_formula_units_Z 84
_cell_length_a 21.826002
_cell_length_b 21.826002
_cell_length_c 10.540593
_cell_angle_alpha 90.000000
_cell_angle_beta 90.000000
_cell_angle_gamma 120.000000
_cell_volume 4348.545889
_symmetry_space_group_name_H-M "P 61 2 2"
_symmetry_group_IT_number 178
_symmetry_cell_setting 'hexagonal'
loop_
_space_group_symop_operation_xyz
x,y,z
x-y,x,1/6+z
-y,x-y,1/3+z
-x,-y,1/2+z
-x+y,-x,2/3+z
y,-x+y,5/6+z
x-y,-y,-z
-x,-x+y,2/3-z
y,x,1/3-z
-y,-x,5/6-z
-x+y,y,1/2-z
x,x-y,1/6-z
loop_
_atom_site_type_symbol
_atom_site_label
_atom_site_fract_x
_atom_site_fract_y
_atom_site_fract_z
Si Si1 0.330503 0.597582 0.029582
Si Si2 0.083612 0.717511 0.841911
Si Si3 0.147951 0.785757 0.115827
Si Si4 0.153802 0.918248 0.539540
Si Si5 0.867518 0.897921 0.786469
Si Si6 0.830968 0.492041 0.483254
Si Si7 0.476185 0.618611 0.612667
O O1 0.342419 0.671210 0.083334
O O2 0.252611 0.559542 0.970774
O O3 0.337466 0.551714 0.140293
O O4 0.385940 0.614061 0.916667
O O5 0.139989 0.778582 0.745439
O O6 0.092199 0.647332 0.834389
O O7 0.000000 0.690688 0.833334
O O8 0.113661 0.752875 0.979538
O O9 0.093179 0.796833 0.198292
O O10 0.158010 0.727821 0.193280
O O11 0.131392 0.868609 0.416667
O O12 0.082681 0.890876 0.620364
O O13 0.186242 0.000000 0.500000
O O14 0.925322 0.896044 0.876197
O O15 0.844280 0.844280 0.666667
O O16 0.847074 0.486019 0.631103
O O17 0.870504 0.461717 0.394602
#
# Coordination Sequence:
#
# PCOD9582419 Si02
#       7
#    12  12  12  12  12  12  12
#     4  12  18  27  52  90 122 152 191 253 315 374
#     4  10  22  40  69  94 125 158 223 285 323 373
#     4  10  24  42  64  92 120 172 218 261 323 386
#     4  12  26  44  64  87 127 168 207 254 320 386
#     4  10  22  38  63  95 124 153 195 250 313 380
#     4  10  18  35  60  84 123 154 204 253 308 385
#     4  10  19  34  59  90 121 159 202 257 329 378
#
# _framework density 19.316801000000002
#
# number of rings (size 3 to 8) (size 9 to 14) (size 15 to 20)
#    0.000    1.429    5.714    0.429    2.000    5.714 
#    2.571    0.714    6.286    0.000    0.000    0.000 
#    0.000    0.000    0.000    0.000    0.000    0.000 
#
# Total GULP energy -467887.188275 kJ/mol
# GULP energy per Si atom -5570.085575 kJ/mol
# Density = 1.927283 g / cm^3
# Si number density = 19.316801 Si / 1000 Ang^3
#
#
#
# Elastic Constant Matrix: (Units=GPa)
#
#
# Indices 1 2 3 4 5 6 
#
# 1 71.7431 28.9948 12.6526 0.0000 0.0000 0.0000
# 2 28.9948 71.7431 12.6526 0.0000 0.0000 0.0000
# 3 12.6526 12.6526 43.5175 0.0000 0.0000 0.0000
# 4 0.0000 0.0000 0.0000 17.8491 0.0000 0.0000
# 5 0.0000 0.0000 0.0000 0.0000 17.8491 0.0000
# 6 0.0000 0.0000 0.0000 0.0000 0.0000 21.3741
#
#
#
# Elastic Compliance Matrix: (Units=1/GPa)
#
#
# Indices 1 2 3 4 5 6 
#
# 1 0.017051 -0.006342 -0.003114 0.000000 0.000000 0.000000
# 2 -0.006342 0.017051 -0.003114 0.000000 0.000000 0.000000
# 3 -0.003114 -0.003114 0.024790 0.000000 0.000000 0.000000
# 4 0.000000 0.000000 0.000000 0.056025 0.000000 0.000000
# 5 0.000000 0.000000 0.000000 0.000000 0.056025 0.000000
# 6 0.000000 0.000000 0.000000 0.000000 0.000000 0.046786
#
#
# Mechanical properties :
#
#
# Convention : Reuss Voigt Hill
#
# Bulk Modulus (GPa) = 29.62680 32.84486 31.23583
# Shear Modulus (GPa) = 19.67599 20.26137 19.96868
#
# Velocity S-wave (km/s) = 3.19501 3.24218 3.21868
# Velocity P-wave (km/s) = 5.38343 5.57278 5.47892
#
# Compressibility (1/GPa) = 0.03375323
#
# Stress axis : x y z
#
# Youngs Moduli (GPa) = 58.64823 58.64823 40.33921
#
# Poissons Ratio (x) = 0.37194 0.12560
# Poissons Ratio (y) = 0.37194 0.12560
# Poissons Ratio (z) = 0.18261 0.18261
#
# Static dielectric constant tensor:
#      x y z
#    x 1.731970 0.000000 0.000000 
#    y 0.000000 1.731970 0.000000 
#    z 0.000000 0.000000 1.706170 
# 
# From -- ./inp_files/4804.got.cif
#   From: 2010.05.17/outbox.cif.g08.bks.cpg/sg178_3_cif.got.tgz:4804.got - 2010.05.20 11:30:59.
