data_PCOD9582209
_publ_section_title
;
Structure prediction by ZEFSAII (Michael W. Deem and Ramdas Pophale) SiO2 
 PCOD9582209
Probable space group: P 6 2 2
;
_chemical_formula_sum "Si O2"
_cell_formula_units_Z 84
_cell_length_a 14.836504
_cell_length_b 14.836504
_cell_length_c 21.995394
_cell_angle_alpha 90.000000
_cell_angle_beta 90.000000
_cell_angle_gamma 120.000000
_cell_volume 4193.006480
_symmetry_space_group_name_H-M "P 6 2 2"
_symmetry_group_IT_number 177
_symmetry_cell_setting 'hexagonal'
loop_
_space_group_symop_operation_xyz
x,y,z
x-y,x,z
-y,x-y,z
-x,-y,z
-x+y,-x,z
y,-x+y,z
x-y,-y,-z
-x,-x+y,-z
y,x,-z
-y,-x,-z
-x+y,y,-z
x,x-y,-z
loop_
_atom_site_type_symbol
_atom_site_label
_atom_site_fract_x
_atom_site_fract_y
_atom_site_fract_z
Si Si1 0.224972 0.811178 0.069979
Si Si2 0.422884 0.192479 0.329435
Si Si3 0.118407 0.246293 0.572068
Si Si4 0.102835 0.603642 0.841513
Si Si5 0.574102 0.123264 0.289609
Si Si6 0.292434 0.277532 0.867108
Si Si7 0.231754 0.162440 0.750696
O O1 0.325623 0.821967 0.104978
O O2 0.118029 0.731856 0.103405
O O3 0.237710 0.926873 0.080790
O O4 0.216883 0.783118 0.000000
O O5 0.351060 0.162884 0.388730
O O6 0.520766 0.174534 0.328747
O O7 0.467812 0.312066 0.312753
O O8 0.346044 0.116643 0.276892
O O9 0.176878 0.181512 0.585470
O O10 0.134397 0.268794 0.500000
O O11 0.151873 0.583161 0.782467
O O12 0.000000 0.500000 0.863733
O O13 0.049466 0.672996 0.822231
O O14 0.500000 0.000000 0.291659
O O15 0.235830 0.178040 0.823733
O O16 0.149369 0.195343 0.730587
#
# Coordination Sequence:
#
# PCOD9582209 Si02
#       7
#    12  12  12  12  12  12  12
#     4  10  20  35  57  82 113 154 211 256 323 407
#     4  12  24  39  64  92 127 172 225 274 333 386
#     4  10  21  40  66 101 143 186 225 262 310 384
#     4   9  20  35  56  82 114 153 201 256 322 391
#     4  11  22  40  61  91 124 161 212 274 330 390
#     4  10  19  34  56  80 115 152 203 254 325 397
#     4  12  21  35  55  88 126 163 201 256 327 407
#
# _framework density 20.033356999999999
#
# number of rings (size 3 to 8) (size 9 to 14) (size 15 to 20)
#    0.857    0.571    1.429    7.000    0.000    0.571 
#    0.000    3.571    0.000    3.143    0.000    2.000 
#    0.000    0.000    0.000    0.000    0.000    0.000 
#
# Total GULP energy -468313.862549 kJ/mol
# GULP energy per Si atom -5575.165030 kJ/mol
# Density = 1.998776 g / cm^3
# Si number density = 20.033357 Si / 1000 Ang^3
#
#
#
# Elastic Constant Matrix: (Units=GPa)
#
#
# Indices 1 2 3 4 5 6 
#
# 1 85.9799 15.8419 38.4345 0.0000 0.0000 0.0000
# 2 15.8419 85.9799 38.4345 0.0000 0.0000 0.0000
# 3 38.4345 38.4345 113.0292 0.0000 0.0000 0.0000
# 4 0.0000 0.0000 0.0000 28.8485 0.0000 0.0000
# 5 0.0000 0.0000 0.0000 0.0000 28.8485 0.0000
# 6 0.0000 0.0000 0.0000 0.0000 0.0000 35.0690
#
#
#
# Elastic Compliance Matrix: (Units=1/GPa)
#
#
# Indices 1 2 3 4 5 6 
#
# 1 0.013735 -0.000522 -0.004493 0.000000 0.000000 0.000000
# 2 -0.000522 0.013735 -0.004493 0.000000 0.000000 0.000000
# 3 -0.004493 -0.004493 0.011903 0.000000 0.000000 0.000000
# 4 0.000000 0.000000 0.000000 0.034664 0.000000 0.000000
# 5 0.000000 0.000000 0.000000 0.000000 0.034664 0.000000
# 6 0.000000 0.000000 0.000000 0.000000 0.000000 0.028515
#
#
# Mechanical properties :
#
#
# Convention : Reuss Voigt Hill
#
# Bulk Modulus (GPa) = 49.12317 52.26788 50.69552
# Shear Modulus (GPa) = 30.67137 31.37173 31.02155
#
# Velocity S-wave (km/s) = 3.91706 3.96153 3.93936
# Velocity P-wave (km/s) = 6.71057 6.86091 6.78616
#
# Compressibility (1/GPa) = 0.02035699
#
# Stress axis : x y z
#
# Youngs Moduli (GPa) = 72.80514 72.80514 84.01360
#
# Poissons Ratio (x) = 0.03803 0.37747
# Poissons Ratio (y) = 0.03803 0.37747
# Poissons Ratio (z) = 0.32711 0.32711
#
# Static dielectric constant tensor:
#      x y z
#    x 1.771810 0.000000 0.000000 
#    y 0.000000 1.771810 0.000000 
#    z 0.000000 0.000000 1.714380 
# 
# From -- ./inp_files/3172.got.cif
#   From: 2010.05.17/outbox.cif.g08.bks.cpg/sg177_2_cif.got.tgz:3172.got - 2010.05.20 11:28:44.
