data_PCOD9582446
_publ_section_title
;
Structure prediction by ZEFSAII (Michael W. Deem and Ramdas Pophale) SiO2 
 PCOD9582446
Probable space group: P 61 2 2
;
_chemical_formula_sum "Si O2"
_cell_formula_units_Z 72
_cell_length_a 17.903503
_cell_length_b 17.903503
_cell_length_c 16.570957
_cell_angle_alpha 90.000000
_cell_angle_beta 90.000000
_cell_angle_gamma 120.000000
_cell_volume 4599.962051
_symmetry_space_group_name_H-M "P 61 2 2"
_symmetry_group_IT_number 178
_symmetry_cell_setting 'hexagonal'
loop_
_space_group_symop_operation_xyz
x,y,z
x-y,x,1/6+z
-y,x-y,1/3+z
-x,-y,1/2+z
-x+y,-x,2/3+z
y,-x+y,5/6+z
x-y,-y,-z
-x,-x+y,2/3-z
y,x,1/3-z
-y,-x,5/6-z
-x+y,y,1/2-z
x,x-y,1/6-z
loop_
_atom_site_type_symbol
_atom_site_label
_atom_site_fract_x
_atom_site_fract_y
_atom_site_fract_z
Si Si1 0.989795 0.611474 0.427047
Si Si2 0.547930 0.535814 0.830230
Si Si3 0.823069 0.300365 0.985587
Si Si4 0.836373 0.357876 0.232107
Si Si5 0.646262 0.177768 0.413159
Si Si6 0.286206 0.488245 0.527139
O O1 0.988352 0.520705 0.433145
O O2 0.897871 0.587450 0.466290
O O3 0.000000 0.638901 0.333334
O O4 0.077470 0.674281 0.474601
O O5 0.506627 0.493374 0.916667
O O6 0.547053 0.622800 0.812831
O O7 0.634618 0.535233 0.809964
O O8 0.766167 0.233834 0.916667
O O9 0.816283 0.386702 0.972675
O O10 0.779985 0.255285 0.068449
O O11 0.850427 0.376009 0.326969
O O12 0.759820 0.260888 0.216839
O O13 0.739817 0.260184 0.416667
O O14 0.577016 0.202403 0.378399
#
# Coordination Sequence:
#
# PCOD9582446 Si02
#       6
#    12  12  12  12  12  12
#     4  10  19  32  48  66  91 122 156 195 243 286
#     4  10  20  35  50  65  90 126 164 201 247 290
#     4  11  17  31  49  68  92 123 160 198 239 287
#     4  11  21  34  49  69  94 126 169 204 243 289
#     4  11  23  32  48  69  98 126 159 211 250 284
#     4  11  21  32  49  69  92 127 163 200 239 290
#
# _framework density 15.652303
#
# number of rings (size 3 to 8) (size 9 to 14) (size 15 to 20)
#    0.000    1.333    3.333    7.000    4.667    0.000 
#    0.000    0.000    0.000    0.000    0.000    0.000 
#    0.000    0.000    0.000    4.500    0.333    0.000 
#
# Total GULP energy -401522.845581 kJ/mol
# GULP energy per Si atom -5576.706189 kJ/mol
# Density = 1.561668 g / cm^3
# Si number density = 15.652303 Si / 1000 Ang^3
#
#
#
# Elastic Constant Matrix: (Units=GPa)
#
#
# Indices 1 2 3 4 5 6 
#
# 1 81.0881 39.6055 13.4904 0.0000 0.0000 0.0000
# 2 39.6055 81.0881 13.4904 0.0000 0.0000 0.0000
# 3 13.4904 13.4904 51.0572 0.0000 0.0000 0.0000
# 4 0.0000 0.0000 0.0000 23.8876 0.0000 0.0000
# 5 0.0000 0.0000 0.0000 0.0000 23.8876 0.0000
# 6 0.0000 0.0000 0.0000 0.0000 0.0000 20.7413
#
#
#
# Elastic Compliance Matrix: (Units=1/GPa)
#
#
# Indices 1 2 3 4 5 6 
#
# 1 0.016456 -0.007650 -0.002327 0.000000 0.000000 0.000000
# 2 -0.007650 0.016456 -0.002327 0.000000 0.000000 0.000000
# 3 -0.002327 -0.002327 0.020815 0.000000 0.000000 0.000000
# 4 0.000000 0.000000 0.000000 0.041863 0.000000 0.000000
# 5 0.000000 0.000000 0.000000 0.000000 0.041863 0.000000
# 6 0.000000 0.000000 0.000000 0.000000 0.000000 0.048213
#
#
# Mechanical properties :
#
#
# Convention : Reuss Voigt Hill
#
# Bulk Modulus (GPa) = 34.34067 38.48957 36.41512
# Shear Modulus (GPa) = 22.72933 23.47976 23.10455
#
# Velocity S-wave (km/s) = 3.81483 3.87729 3.84619
# Velocity P-wave (km/s) = 6.43360 6.68493 6.56047
#
# Compressibility (1/GPa) = 0.02911999
#
# Stress axis : x y z
#
# Youngs Moduli (GPa) = 60.76793 60.76793 48.04140
#
# Poissons Ratio (x) = 0.46490 0.11177
# Poissons Ratio (y) = 0.46490 0.11177
# Poissons Ratio (z) = 0.14138 0.14138
#
# Static dielectric constant tensor:
#      x y z
#    x 1.558750 0.000000 0.000000 
#    y 0.000000 1.558750 0.000000 
#    z 0.000000 0.000000 1.602050 
# 
# From -- ./inp_files/6911.got.cif
#   From: 2010.05.17/outbox.cif.g08.bks.cpg/sg178_4_cif.got.tgz:6911.got - 2010.05.20 11:30:59.
