data_PCOD9582991
_publ_section_title
;
Structure prediction by ZEFSAII (Michael W. Deem and Ramdas Pophale) SiO2 
 PCOD9582991
Probable space group: P 61 2 2
;
_chemical_formula_sum "Si O2"
_cell_formula_units_Z 84
_cell_length_a 20.715272
_cell_length_b 20.715272
_cell_length_c 10.389581
_cell_angle_alpha 90.000000
_cell_angle_beta 90.000000
_cell_angle_gamma 120.000000
_cell_volume 3861.090181
_symmetry_space_group_name_H-M "P 61 2 2"
_symmetry_group_IT_number 178
_symmetry_cell_setting 'hexagonal'
loop_
_space_group_symop_operation_xyz
x,y,z
x-y,x,1/6+z
-y,x-y,1/3+z
-x,-y,1/2+z
-x+y,-x,2/3+z
y,-x+y,5/6+z
x-y,-y,-z
-x,-x+y,2/3-z
y,x,1/3-z
-y,-x,5/6-z
-x+y,y,1/2-z
x,x-y,1/6-z
loop_
_atom_site_type_symbol
_atom_site_label
_atom_site_fract_x
_atom_site_fract_y
_atom_site_fract_z
Si Si1 0.288782 0.402662 0.117204
Si Si2 0.245905 0.552969 0.618593
Si Si3 0.675420 0.090464 0.815902
Si Si4 0.542188 0.464220 0.594658
Si Si5 0.373706 0.123922 0.234124
Si Si6 0.707418 0.918637 0.997205
Si Si7 0.838870 0.361763 0.677450
O O1 0.367175 0.481443 0.103641
O O2 0.274630 0.363814 0.257353
O O3 0.213054 0.406406 0.110546
O O4 0.297744 0.367898 0.983470
O O5 0.291176 0.582352 0.750000
O O6 0.214488 0.607244 0.583334
O O7 0.179890 0.469290 0.639990
O O8 0.302702 0.551534 0.516732
O O9 0.586292 0.061504 0.823241
O O10 0.714531 0.073818 0.933098
O O11 0.512936 0.512936 0.666667
O O12 0.529318 0.394870 0.682483
O O13 0.312332 0.099879 0.346118
O O14 0.439227 0.115195 0.296521
O O15 0.712840 0.856420 0.083334
O O16 0.779652 0.000000 0.000000
O O17 0.854233 0.427117 0.583334
#
# Coordination Sequence:
#
# PCOD9582991 Si02
#       7
#    12  12  12  12  12  12  12
#     4  11  24  41  64  89 138 174 235 297 366 415
#     4  12  23  36  55  80 111 159 229 298 366 416
#     4  12  23  42  63  94 127 183 236 298 350 430
#     4  12  26  40  60  88 125 180 240 299 363 426
#     4  11  23  43  67  93 130 182 230 298 363 428
#     4  12  25  48  78 107 142 183 231 282 348 434
#     4  12  23  37  56  80 117 162 234 292 365 423
#
# _framework density 21.755514000000002
#
# number of rings (size 3 to 8) (size 9 to 14) (size 15 to 20)
#    0.000    0.286    7.143    2.571    0.000    3.429 
#    0.000    0.000    0.000    0.000    0.000    0.000 
#    4.286    0.000    0.000    0.000    0.000    0.000 
#
# Total GULP energy -468391.498162 kJ/mol
# GULP energy per Si atom -5576.089264 kJ/mol
# Density = 2.170600 g / cm^3
# Si number density = 21.755514 Si / 1000 Ang^3
#
#
#
# Elastic Constant Matrix: (Units=GPa)
#
#
# Indices 1 2 3 4 5 6 
#
# 1 58.6454 46.2373 22.9429 0.0000 0.0000 0.0000
# 2 46.2373 58.6454 22.9429 0.0000 0.0000 0.0000
# 3 22.9429 22.9429 146.9431 0.0000 0.0000 0.0000
# 4 0.0000 0.0000 0.0000 11.1256 0.0000 0.0000
# 5 0.0000 0.0000 0.0000 0.0000 11.1256 0.0000
# 6 0.0000 0.0000 0.0000 0.0000 0.0000 6.2041
#
#
#
# Elastic Compliance Matrix: (Units=1/GPa)
#
#
# Indices 1 2 3 4 5 6 
#
# 1 0.045413 -0.035180 -0.001598 0.000000 0.000000 0.000000
# 2 -0.035180 0.045413 -0.001598 0.000000 0.000000 0.000000
# 3 -0.001598 -0.001598 0.007304 0.000000 0.000000 0.000000
# 4 0.000000 0.000000 0.000000 0.089883 0.000000 0.000000
# 5 0.000000 0.000000 0.000000 0.000000 0.089883 0.000000
# 6 0.000000 0.000000 0.000000 0.000000 0.000000 0.161185
#
#
# Mechanical properties :
#
#
# Convention : Reuss Voigt Hill
#
# Bulk Modulus (GPa) = 46.77250 49.83111 48.30180
# Shear Modulus (GPa) = 9.56100 17.16510 13.36305
#
# Velocity S-wave (km/s) = 2.09864 2.81196 2.48107
# Velocity P-wave (km/s) = 5.23624 5.78771 5.51887
#
# Compressibility (1/GPa) = 0.02138009
#
# Stress axis : x y z
#
# Youngs Moduli (GPa) = 22.02013 22.02013 136.90569
#
# Poissons Ratio (x) = 0.77466 0.21875
# Poissons Ratio (y) = 0.77466 0.21875
# Poissons Ratio (z) = 0.03518 0.03518
#
# Static dielectric constant tensor:
#      x y z
#    x 1.821900 0.000000 0.000000 
#    y 0.000000 1.821900 0.000000 
#    z 0.000000 0.000000 2.126660 
# 
# From -- ./inp_files/4806.got.cif
#   From: 2010.05.17/outbox.cif.g08.bks.cpg/sg178_3_cif.got.tgz:4806.got - 2010.05.20 11:30:59.
