data_PCOD9582458
_publ_section_title
;
Structure prediction by ZEFSAII (Michael W. Deem and Ramdas Pophale) SiO2 
 PCOD9582458
Probable space group: P 61 2 2
;
_chemical_formula_sum "Si O2"
_cell_formula_units_Z 78
_cell_length_a 18.727126
_cell_length_b 18.727126
_cell_length_c 16.220064
_cell_angle_alpha 90.000000
_cell_angle_beta 90.000000
_cell_angle_gamma 120.000000
_cell_volume 4926.352229
_symmetry_space_group_name_H-M "P 61 2 2"
_symmetry_group_IT_number 178
_symmetry_cell_setting 'hexagonal'
loop_
_space_group_symop_operation_xyz
x,y,z
x-y,x,1/6+z
-y,x-y,1/3+z
-x,-y,1/2+z
-x+y,-x,2/3+z
y,-x+y,5/6+z
x-y,-y,-z
-x,-x+y,2/3-z
y,x,1/3-z
-y,-x,5/6-z
-x+y,y,1/2-z
x,x-y,1/6-z
loop_
_atom_site_type_symbol
_atom_site_label
_atom_site_fract_x
_atom_site_fract_y
_atom_site_fract_z
Si Si1 0.773443 0.265845 0.609130
Si Si2 0.454181 0.908362 0.750000
Si Si3 0.822234 0.135956 0.543828
Si Si4 0.276413 0.566442 0.885496
Si Si5 0.973622 0.712362 0.713900
Si Si6 0.597683 0.191007 0.918661
Si Si7 0.552502 0.987188 0.400242
O O1 0.849618 0.355900 0.592847
O O2 0.787486 0.194617 0.573038
O O3 0.751935 0.256039 0.705823
O O4 0.690138 0.256462 0.570936
O O5 0.467400 0.960360 0.834156
O O6 0.775733 0.085663 0.460979
O O7 0.917613 0.199164 0.524078
O O8 0.795813 0.060398 0.606432
O O9 0.340398 0.659603 0.916667
O O10 0.196369 0.557073 0.839444
O O11 0.332680 0.554762 0.818001
O O12 0.995480 0.639231 0.709202
O O13 0.519473 0.106941 0.891603
O O14 0.552264 0.000000 0.500000
#
# Coordination Sequence:
#
# PCOD9582458 Si02
#       7
#    12   6  12  12  12  12  12
#     4  11  19  33  49  70 101 135 187 230 257 325
#     4  12  26  32  50  80 106 144 188 230 278 320
#     4  10  19  33  53  75 105 140 175 206 276 344
#     4   9  19  33  49  70  93 138 185 232 272 302
#     4  10  19  35  52  78 104 147 168 213 277 346
#     4  10  20  34  51  68  99 142 186 228 276 311
#     4  12  22  35  50  76 108 142 182 231 281 322
#
# _framework density 15.833216
#
# number of rings (size 3 to 8) (size 9 to 14) (size 15 to 20)
#    0.000    1.538    4.615    2.769    3.231    0.000 
#    2.769    0.000    0.000    0.000    0.000    0.000 
#    0.000    0.000   78.462    0.000    0.000    0.000 
#
# Total GULP energy -434305.993199 kJ/mol
# GULP energy per Si atom -5568.025554 kJ/mol
# Density = 1.579718 g / cm^3
# Si number density = 15.833216 Si / 1000 Ang^3
#
#
#
# Elastic Constant Matrix: (Units=GPa)
#
#
# Indices 1 2 3 4 5 6 
#
# 1 85.9596 34.8215 25.2375 0.0000 0.0000 0.0000
# 2 34.8215 85.9596 25.2375 0.0000 0.0000 0.0000
# 3 25.2375 25.2375 63.4366 0.0000 0.0000 0.0000
# 4 0.0000 0.0000 0.0000 21.4076 0.0000 0.0000
# 5 0.0000 0.0000 0.0000 0.0000 21.4076 0.0000
# 6 0.0000 0.0000 0.0000 0.0000 0.0000 25.5690
#
#
#
# Elastic Compliance Matrix: (Units=1/GPa)
#
#
# Indices 1 2 3 4 5 6 
#
# 1 0.014743 -0.004812 -0.003951 0.000000 0.000000 0.000000
# 2 -0.004812 0.014743 -0.003951 0.000000 0.000000 0.000000
# 3 -0.003951 -0.003951 0.018907 0.000000 0.000000 0.000000
# 4 0.000000 0.000000 0.000000 0.046712 0.000000 0.000000
# 5 0.000000 0.000000 0.000000 0.000000 0.046712 0.000000
# 6 0.000000 0.000000 0.000000 0.000000 0.000000 0.039110
#
#
# Mechanical properties :
#
#
# Convention : Reuss Voigt Hill
#
# Bulk Modulus (GPa) = 43.54391 45.10541 44.32466
# Shear Modulus (GPa) = 23.36344 23.68080 23.52212
#
# Velocity S-wave (km/s) = 3.84552 3.87155 3.85855
# Velocity P-wave (km/s) = 6.87595 6.96670 6.92147
#
# Compressibility (1/GPa) = 0.02296533
#
# Stress axis : x y z
#
# Youngs Moduli (GPa) = 67.83027 67.83027 52.88974
#
# Poissons Ratio (x) = 0.32641 0.20895
# Poissons Ratio (y) = 0.32641 0.20895
# Poissons Ratio (z) = 0.26798 0.26798
#
# Static dielectric constant tensor:
#      x y z
#    x 1.540300 0.000000 0.000000 
#    y 0.000000 1.540300 0.000000 
#    z 0.000000 0.000000 1.583320 
# 
# From -- ./inp_files/6946.got.cif
#   From: 2010.05.17/outbox.cif.g08.bks.cpg/sg178_4_cif.got.tgz:6946.got - 2010.05.20 11:30:59.
