data_PCOD9582574
_publ_section_title
;
Structure prediction by ZEFSAII (Michael W. Deem and Ramdas Pophale) SiO2 
 PCOD9582574
Probable space group: P 61 2 2
;
_chemical_formula_sum "Si O2"
_cell_formula_units_Z 66
_cell_length_a 21.612098
_cell_length_b 21.612098
_cell_length_c 7.444404
_cell_angle_alpha 90.000000
_cell_angle_beta 90.000000
_cell_angle_gamma 120.000000
_cell_volume 3011.302758
_symmetry_space_group_name_H-M "P 61 2 2"
_symmetry_group_IT_number 178
_symmetry_cell_setting 'hexagonal'
loop_
_space_group_symop_operation_xyz
x,y,z
x-y,x,1/6+z
-y,x-y,1/3+z
-x,-y,1/2+z
-x+y,-x,2/3+z
y,-x+y,5/6+z
x-y,-y,-z
-x,-x+y,2/3-z
y,x,1/3-z
-y,-x,5/6-z
-x+y,y,1/2-z
x,x-y,1/6-z
loop_
_atom_site_type_symbol
_atom_site_label
_atom_site_fract_x
_atom_site_fract_y
_atom_site_fract_z
Si Si1 0.124883 0.366067 0.120598
Si Si2 0.832915 0.167086 0.916667
Si Si3 0.380838 0.480405 0.893706
Si Si4 0.259341 0.700886 0.612583
Si Si5 0.026222 0.315517 0.630962
Si Si6 0.504994 0.143556 0.308322
O O1 0.181950 0.363899 0.250000
O O2 0.089186 0.296841 0.657348
O O3 0.113885 0.433544 0.138666
O O4 0.044725 0.299862 0.132526
O O5 0.842678 0.217225 0.747514
O O6 0.341586 0.517780 0.997268
O O7 0.339042 0.396429 0.939912
O O8 0.366921 0.486189 0.681803
O O9 0.466069 0.533932 0.916667
O O10 0.265624 0.734377 0.416667
O O11 0.280690 0.640345 0.583334
O O12 0.313736 0.770265 0.721434
O O13 0.000000 0.316806 0.833334
O O14 0.559415 0.118830 0.250000
#
# Coordination Sequence:
#
# PCOD9582574 Si02
#       6
#    12   6  12  12  12  12
#     4  11  25  42  65  94 128 166 217 268 336 400
#     4  10  20  42  72  86 128 170 204 268 326 394
#     4  10  20  36  59  79 112 168 216 265 337 399
#     4   9  18  30  49  71 102 155 211 256 321 378
#     4  10  20  40  65  89 122 170 214 266 331 400
#     4  11  22  35  53  83 124 157 217 291 329 385
#
# _framework density 21.917425000000001
#
# number of rings (size 3 to 8) (size 9 to 14) (size 15 to 20)
#    0.000    1.818    3.636    1.636    2.545    8.000 
#    0.000    0.000    0.000    0.000    0.000    0.000 
#    0.000    0.000  250.364    0.000    0.000    0.000 
#
# Total GULP energy -368529.490540 kJ/mol
# GULP energy per Si atom -5583.780160 kJ/mol
# Density = 2.186754 g / cm^3
# Si number density = 21.917425 Si / 1000 Ang^3
#
#
#
# Elastic Constant Matrix: (Units=GPa)
#
#
# Indices 1 2 3 4 5 6 
#
# 1 104.7906 66.7103 22.3601 0.0000 0.0000 0.0000
# 2 66.7103 104.7906 22.3601 0.0000 0.0000 0.0000
# 3 22.3601 22.3601 70.5226 0.0000 0.0000 0.0000
# 4 0.0000 0.0000 0.0000 27.9473 0.0000 0.0000
# 5 0.0000 0.0000 0.0000 0.0000 27.9473 0.0000
# 6 0.0000 0.0000 0.0000 0.0000 0.0000 19.0402
#
#
#
# Elastic Compliance Matrix: (Units=1/GPa)
#
#
# Indices 1 2 3 4 5 6 
#
# 1 0.016308 -0.009952 -0.002015 0.000000 0.000000 0.000000
# 2 -0.009952 0.016308 -0.002015 0.000000 0.000000 0.000000
# 3 -0.002015 -0.002015 0.015458 0.000000 0.000000 0.000000
# 4 0.000000 0.000000 0.000000 0.035782 0.000000 0.000000
# 5 0.000000 0.000000 0.000000 0.000000 0.035782 0.000000
# 6 0.000000 0.000000 0.000000 0.000000 0.000000 0.052521
#
#
# Mechanical properties :
#
#
# Convention : Reuss Voigt Hill
#
# Bulk Modulus (GPa) = 49.72865 55.88499 52.80682
# Shear Modulus (GPa) = 24.17482 26.23185 25.20334
#
# Velocity S-wave (km/s) = 3.32474 3.46330 3.39473
# Velocity P-wave (km/s) = 6.12184 6.44562 6.28581
#
# Compressibility (1/GPa) = 0.02010913
#
# Stress axis : x y z
#
# Youngs Moduli (GPa) = 61.31832 61.31832 64.69202
#
# Poissons Ratio (x) = 0.61024 0.13038
# Poissons Ratio (y) = 0.61024 0.13038
# Poissons Ratio (z) = 0.12358 0.12358
#
# Static dielectric constant tensor:
#      x y z
#    x 1.844750 0.000000 0.000000 
#    y 0.000000 1.844750 0.000000 
#    z 0.000000 0.000000 1.889640 
# 
# From -- ./inp_files/3245.got.cif
#   From: 2010.05.17/outbox.cif.g08.bks.cpg/sg178_2_cif.got.tgz:3245.got - 2010.05.20 11:30:59.
