data_PCOD9582348
_publ_section_title
;
Structure prediction by ZEFSAII (Michael W. Deem and Ramdas Pophale) SiO2 
 PCOD9582348
Probable space group: P 61 2 2
;
_chemical_formula_sum "Si O2"
_cell_formula_units_Z 60
_cell_length_a 11.844766
_cell_length_b 11.844766
_cell_length_c 31.573763
_cell_angle_alpha 90.000000
_cell_angle_beta 90.000000
_cell_angle_gamma 120.000000
_cell_volume 3836.276905
_symmetry_space_group_name_H-M "P 61 2 2"
_symmetry_group_IT_number 178
_symmetry_cell_setting 'hexagonal'
loop_
_space_group_symop_operation_xyz
x,y,z
x-y,x,1/6+z
-y,x-y,1/3+z
-x,-y,1/2+z
-x+y,-x,2/3+z
y,-x+y,5/6+z
x-y,-y,-z
-x,-x+y,2/3-z
y,x,1/3-z
-y,-x,5/6-z
-x+y,y,1/2-z
x,x-y,1/6-z
loop_
_atom_site_type_symbol
_atom_site_label
_atom_site_fract_x
_atom_site_fract_y
_atom_site_fract_z
Si Si1 0.453655 0.924586 0.863650
Si Si2 0.983308 0.605169 0.555038
Si Si3 0.173241 0.698689 0.732215
Si Si4 0.660947 0.389219 0.651652
Si Si5 0.492998 0.726930 0.232654
O O1 0.559929 0.983686 0.826294
O O2 0.330671 0.796836 0.843940
O O3 0.509654 0.877117 0.901880
O O4 0.418525 0.030717 0.879988
O O5 0.964910 0.482455 0.583334
O O6 0.854768 0.615133 0.562690
O O7 0.122736 0.728638 0.565534
O O8 0.181467 0.657770 0.780219
O O9 0.269134 0.667209 0.704006
O O10 0.545835 0.333747 0.685825
O O11 0.366255 0.732510 0.250000
#
# Coordination Sequence:
#
# PCOD9582348 Si02
#       5
#    12  12  12  12  12
#     4  10  18  28  45  70  94 133 170 202 252 312
#     4  10  17  28  44  65  96 133 159 201 253 305
#     4  10  17  27  46  67  96 132 168 200 251 312
#     4   9  17  30  42  65  99 127 159 206 251 301
#     4   9  18  29  45  65  98 127 161 204 253 303
#
# _framework density 15.640162999999999
#
# number of rings (size 3 to 8) (size 9 to 14) (size 15 to 20)
#    0.000    2.400    6.000    0.000    2.800    0.800 
#    0.000    0.000    0.000    0.000    0.000    0.000 
#   18.000    9.600    0.000    0.000    0.000    0.000 
#
# Total GULP energy -334184.925733 kJ/mol
# GULP energy per Si atom -5569.748762 kJ/mol
# Density = 1.560457 g / cm^3
# Si number density = 15.640163 Si / 1000 Ang^3
#
#
#
# Elastic Constant Matrix: (Units=GPa)
#
#
# Indices 1 2 3 4 5 6 
#
# 1 60.3974 27.2226 32.7878 0.0000 0.0000 0.0000
# 2 27.2226 60.3974 32.7878 0.0000 0.0000 0.0000
# 3 32.7878 32.7878 110.2477 0.0000 0.0000 0.0000
# 4 0.0000 0.0000 0.0000 8.9361 0.0000 0.0000
# 5 0.0000 0.0000 0.0000 0.0000 8.9361 0.0000
# 6 0.0000 0.0000 0.0000 0.0000 0.0000 16.5874
#
#
#
# Elastic Compliance Matrix: (Units=1/GPa)
#
#
# Indices 1 2 3 4 5 6 
#
# 1 0.022412 -0.007731 -0.004366 0.000000 0.000000 0.000000
# 2 -0.007731 0.022412 -0.004366 0.000000 0.000000 0.000000
# 3 -0.004366 -0.004366 0.011667 0.000000 0.000000 0.000000
# 4 0.000000 0.000000 0.000000 0.111905 0.000000 0.000000
# 5 0.000000 0.000000 0.000000 0.000000 0.111905 0.000000
# 6 0.000000 0.000000 0.000000 0.000000 0.000000 0.060287
#
#
# Mechanical properties :
#
#
# Convention : Reuss Voigt Hill
#
# Bulk Modulus (GPa) = 42.43694 46.29319 44.36507
# Shear Modulus (GPa) = 13.11062 16.10821 14.60942
#
# Velocity S-wave (km/s) = 2.89842 3.21273 3.05961
# Velocity P-wave (km/s) = 6.19624 6.58979 6.39604
#
# Compressibility (1/GPa) = 0.02356437
#
# Stress axis : x y z
#
# Youngs Moduli (GPa) = 44.61909 44.61909 85.70899
#
# Poissons Ratio (x) = 0.34497 0.37420
# Poissons Ratio (y) = 0.34497 0.37420
# Poissons Ratio (z) = 0.19481 0.19481
#
# Static dielectric constant tensor:
#      x y z
#    x 1.515750 0.000000 0.000000 
#    y 0.000000 1.515750 0.000000 
#    z 0.000000 0.000000 1.554920 
# 
# From -- ./inp_files/9421.got.cif
#   From: 2010.05.17/outbox.cif.g08.bks.cpg/sg178_5_cif.got.tgz:9421.got - 2010.05.20 11:30:59.
