data_PCOD9582385
_publ_section_title
;
Structure prediction by ZEFSAII (Michael W. Deem and Ramdas Pophale) SiO2 
 PCOD9582385
Probable space group: P 61 2 2
;
_chemical_formula_sum "Si O2"
_cell_formula_units_Z 84
_cell_length_a 18.785022
_cell_length_b 18.785022
_cell_length_c 14.957504
_cell_angle_alpha 90.000000
_cell_angle_beta 90.000000
_cell_angle_gamma 120.000000
_cell_volume 4571.020567
_symmetry_space_group_name_H-M "P 61 2 2"
_symmetry_group_IT_number 178
_symmetry_cell_setting 'hexagonal'
loop_
_space_group_symop_operation_xyz
x,y,z
x-y,x,1/6+z
-y,x-y,1/3+z
-x,-y,1/2+z
-x+y,-x,2/3+z
y,-x+y,5/6+z
x-y,-y,-z
-x,-x+y,2/3-z
y,x,1/3-z
-y,-x,5/6-z
-x+y,y,1/2-z
x,x-y,1/6-z
loop_
_atom_site_type_symbol
_atom_site_label
_atom_site_fract_x
_atom_site_fract_y
_atom_site_fract_z
Si Si1 0.471498 0.571758 0.167134
Si Si2 0.203211 0.727159 0.198739
Si Si3 0.797804 0.276025 0.323240
Si Si4 0.163578 0.886091 0.643024
Si Si5 0.183560 0.902676 0.004778
Si Si6 0.298488 0.461945 0.816126
Si Si7 0.275815 0.070698 0.648698
O O1 0.521451 0.521451 0.166667
O O2 0.494981 0.639927 0.248899
O O3 0.373508 0.515766 0.162538
O O4 0.492065 0.619525 0.072903
O O5 0.238057 0.736994 0.097021
O O6 0.152532 0.776378 0.199387
O O7 0.282773 0.784132 0.260886
O O8 0.749179 0.250822 0.416667
O O9 0.856595 0.236389 0.321633
O O10 0.128962 0.873953 0.742100
O O11 0.087601 0.837736 0.577536
O O12 0.217159 0.980075 0.615929
O O13 0.129392 0.870609 0.916667
O O14 0.241463 0.000000 0.000000
O O15 0.228406 0.456811 0.750000
O O16 0.278532 0.368851 0.828540
O O17 0.276819 0.138410 0.583334
#
# Coordination Sequence:
#
# PCOD9582385 Si02
#       7
#    12  12  12  12  12  12  12
#     4  11  21  38  63  89 119 154 202 254 304 351
#     4   9  20  39  58  84 118 149 196 243 297 356
#     4  10  23  41  57  84 119 154 199 238 291 354
#     4  10  19  32  54  78 104 141 180 227 280 338
#     4  10  20  37  59  78 104 140 186 233 272 328
#     4   8  17  33  54  85 113 144 188 236 296 354
#     4  10  18  30  51  79 111 138 176 225 281 340
#
# _framework density 18.376639999999998
#
# number of rings (size 3 to 8) (size 9 to 14) (size 15 to 20)
#    0.000    2.286    0.000    3.429    0.000    1.143 
#    7.714    5.714    0.000    8.571    0.000    0.000 
#    0.000    0.000    0.000    0.000    0.000    0.000 
#
# Total GULP energy -467805.729109 kJ/mol
# GULP energy per Si atom -5569.115823 kJ/mol
# Density = 1.833481 g / cm^3
# Si number density = 18.376640 Si / 1000 Ang^3
#
#
#
# Elastic Constant Matrix: (Units=GPa)
#
#
# Indices 1 2 3 4 5 6 
#
# 1 58.5594 35.0915 33.7273 0.0000 0.0000 0.0000
# 2 35.0915 58.5594 33.7273 0.0000 0.0000 0.0000
# 3 33.7273 33.7273 136.0835 0.0000 0.0000 0.0000
# 4 0.0000 0.0000 0.0000 8.8767 0.0000 0.0000
# 5 0.0000 0.0000 0.0000 0.0000 8.8767 0.0000
# 6 0.0000 0.0000 0.0000 0.0000 0.0000 11.7339
#
#
#
# Elastic Compliance Matrix: (Units=1/GPa)
#
#
# Indices 1 2 3 4 5 6 
#
# 1 0.027805 -0.014807 -0.003222 0.000000 0.000000 0.000000
# 2 -0.014807 0.027805 -0.003222 0.000000 0.000000 0.000000
# 3 -0.003222 -0.003222 0.008945 0.000000 0.000000 0.000000
# 4 0.000000 0.000000 0.000000 0.112655 0.000000 0.000000
# 5 0.000000 0.000000 0.000000 0.000000 0.112655 0.000000
# 6 0.000000 0.000000 0.000000 0.000000 0.000000 0.085223
#
#
# Mechanical properties :
#
#
# Convention : Reuss Voigt Hill
#
# Bulk Modulus (GPa) = 45.33948 50.92160 48.13054
# Shear Modulus (GPa) = 11.76640 15.94120 13.85380
#
# Velocity S-wave (km/s) = 2.53314 2.94848 2.74867
# Velocity P-wave (km/s) = 5.76903 6.27388 6.02674
#
# Compressibility (1/GPa) = 0.02205584
#
# Stress axis : x y z
#
# Youngs Moduli (GPa) = 35.96487 35.96487 111.79055
#
# Poissons Ratio (x) = 0.53252 0.36014
# Poissons Ratio (y) = 0.53252 0.36014
# Poissons Ratio (z) = 0.11586 0.11586
#
# Static dielectric constant tensor:
#      x y z
#    x 1.621310 0.000000 0.000000 
#    y 0.000000 1.621310 0.000000 
#    z 0.000000 0.000000 1.679290 
# 
# From -- ./inp_files/6042.got.cif
#   From: 2010.05.17/outbox.cif.g08.bks.cpg/sg178_4_cif.got.tgz:6042.got - 2010.05.20 11:30:59.
