data_PCOD9582610
_publ_section_title
;
Structure prediction by ZEFSAII (Michael W. Deem and Ramdas Pophale) SiO2 
 PCOD9582610
Probable space group: P 61 2 2
;
_chemical_formula_sum "Si O2"
_cell_formula_units_Z 48
_cell_length_a 17.130953
_cell_length_b 17.130953
_cell_length_c 9.225042
_cell_angle_alpha 90.000000
_cell_angle_beta 90.000000
_cell_angle_gamma 120.000000
_cell_volume 2344.563669
_symmetry_space_group_name_H-M "P 61 2 2"
_symmetry_group_IT_number 178
_symmetry_cell_setting 'hexagonal'
loop_
_space_group_symop_operation_xyz
x,y,z
x-y,x,1/6+z
-y,x-y,1/3+z
-x,-y,1/2+z
-x+y,-x,2/3+z
y,-x+y,5/6+z
x-y,-y,-z
-x,-x+y,2/3-z
y,x,1/3-z
-y,-x,5/6-z
-x+y,y,1/2-z
x,x-y,1/6-z
loop_
_atom_site_type_symbol
_atom_site_label
_atom_site_fract_x
_atom_site_fract_y
_atom_site_fract_z
Si Si1 0.814320 0.907160 0.583334
Si Si2 0.504247 0.414617 0.572866
Si Si3 0.206849 0.350369 0.440677
Si Si4 0.662567 0.559326 0.713135
Si Si5 0.202027 0.404053 0.750000
O O1 0.872197 0.872197 0.666667
O O2 0.746090 0.913883 0.697598
O O3 0.438637 0.438637 0.666667
O O4 0.534052 0.465949 0.416667
O O5 0.596076 0.457100 0.668578
O O6 0.462833 0.308575 0.549509
O O7 0.306743 0.416882 0.379298
O O8 0.150382 0.395537 0.377770
O O9 0.196800 0.346379 0.610706
O O10 0.610176 0.610176 0.666667
#
# Coordination Sequence:
#
# PCOD9582610 Si02
#       5
#     6  12  12  12   6
#     4  10  22  44  71  96 126 170 216 265 354 450
#     4  11  25  44  64  94 134 184 238 279 347 413
#     4  10  20  38  62  95 128 170 222 276 336 401
#     4   9  19  39  63  83 120 175 225 262 331 423
#     4  12  26  38  63 104 136 168 230 303 336 390
#
# _framework density 20.472894
#
# number of rings (size 3 to 8) (size 9 to 14) (size 15 to 20)
#    0.000    2.000    2.500    3.000    7.000    2.000 
#    4.500    1.250    0.000    0.000    0.000    0.000 
#    0.000    0.000    0.000    0.000    0.000    0.000 
#
# Total GULP energy -267882.516048 kJ/mol
# GULP energy per Si atom -5580.885751 kJ/mol
# Density = 2.042630 g / cm^3
# Si number density = 20.472894 Si / 1000 Ang^3
#
#
#
# Elastic Constant Matrix: (Units=GPa)
#
#
# Indices 1 2 3 4 5 6 
#
# 1 80.8883 36.5187 39.9664 0.0000 0.0000 0.0000
# 2 36.5187 80.8883 39.9664 0.0000 0.0000 0.0000
# 3 39.9664 39.9664 175.2962 0.0000 0.0000 0.0000
# 4 0.0000 0.0000 0.0000 34.6163 0.0000 0.0000
# 5 0.0000 0.0000 0.0000 0.0000 34.6163 0.0000
# 6 0.0000 0.0000 0.0000 0.0000 0.0000 22.1848
#
#
#
# Elastic Compliance Matrix: (Units=1/GPa)
#
#
# Indices 1 2 3 4 5 6 
#
# 1 0.016310 -0.006228 -0.002299 0.000000 0.000000 0.000000
# 2 -0.006228 0.016310 -0.002299 0.000000 0.000000 0.000000
# 3 -0.002299 -0.002299 0.006753 0.000000 0.000000 0.000000
# 4 0.000000 0.000000 0.000000 0.028888 0.000000 0.000000
# 5 0.000000 0.000000 0.000000 0.000000 0.028888 0.000000
# 6 0.000000 0.000000 0.000000 0.000000 0.000000 0.045076
#
#
# Mechanical properties :
#
#
# Convention : Reuss Voigt Hill
#
# Bulk Modulus (GPa) = 56.42475 63.33064 59.87769
# Shear Modulus (GPa) = 29.44929 32.99156 31.22042
#
# Velocity S-wave (km/s) = 3.79681 4.01867 3.90932
# Velocity P-wave (km/s) = 6.84409 7.24804 7.04896
#
# Compressibility (1/GPa) = 0.01772272
#
# Stress axis : x y z
#
# Youngs Moduli (GPa) = 61.31145 61.31145 148.08643
#
# Poissons Ratio (x) = 0.38183 0.34041
# Poissons Ratio (y) = 0.38183 0.34041
# Poissons Ratio (z) = 0.14094 0.14094
#
# Static dielectric constant tensor:
#      x y z
#    x 1.756770 0.000000 0.000000 
#    y 0.000000 1.756770 0.000000 
#    z 0.000000 0.000000 1.802080 
# 
# From -- ./inp_files/2798.got.cif
#   From: 2010.05.17/outbox.cif.g08.bks.cpg/sg178_2_cif.got.tgz:2798.got - 2010.05.20 11:30:59.
