data_PCOD9582521
_publ_section_title
;
Structure prediction by ZEFSAII (Michael W. Deem and Ramdas Pophale) SiO2 
 PCOD9582521
Probable space group: P 61 2 2
;
_chemical_formula_sum "Si O2"
_cell_formula_units_Z 54
_cell_length_a 14.570377
_cell_length_b 14.570377
_cell_length_c 14.555427
_cell_angle_alpha 90.000000
_cell_angle_beta 90.000000
_cell_angle_gamma 120.000000
_cell_volume 2676.068095
_symmetry_space_group_name_H-M "P 61 2 2"
_symmetry_group_IT_number 178
_symmetry_cell_setting 'hexagonal'
loop_
_space_group_symop_operation_xyz
x,y,z
x-y,x,1/6+z
-y,x-y,1/3+z
-x,-y,1/2+z
-x+y,-x,2/3+z
y,-x+y,5/6+z
x-y,-y,-z
-x,-x+y,2/3-z
y,x,1/3-z
-y,-x,5/6-z
-x+y,y,1/2-z
x,x-y,1/6-z
loop_
_atom_site_type_symbol
_atom_site_label
_atom_site_fract_x
_atom_site_fract_y
_atom_site_fract_z
Si Si1 0.099534 0.549767 0.583334
Si Si2 0.630781 0.973124 0.634988
Si Si3 0.446275 0.209642 0.485817
Si Si4 0.347071 0.799700 0.991794
Si Si5 0.612168 0.801628 0.381084
O O1 0.169854 0.504486 0.627293
O O2 0.024976 0.460390 0.510545
O O3 0.557820 0.895516 0.554769
O O4 0.644746 0.904056 0.713888
O O5 0.745753 0.071271 0.611879
O O6 0.387863 0.193932 0.583334
O O7 0.535193 0.177004 0.503362
O O8 0.386523 0.156959 0.391090
O O9 0.292586 0.707415 0.916667
O O10 0.276821 0.769422 0.084069
#
# Coordination Sequence:
#
# PCOD9582521 Si02
#       5
#     6  12  12  12  12
#     4  10  20  34  52  78 116 148 200 230 266 350
#     4  10  20  37  54  79 111 152 192 246 294 342
#     4  11  20  32  49  77 111 153 193 232 270 340
#     4  10  20  32  53  76 108 147 187 231 293 335
#     4  10  22  36  54  78 111 149 196 238 296 345
#
# _framework density 20.17886
#
# number of rings (size 3 to 8) (size 9 to 14) (size 15 to 20)
#    0.000    1.778    1.111    4.667    0.000    1.778 
#    0.000    8.889    0.000    0.000    0.000    0.000 
#    0.000  113.778    0.000    0.000    0.000    0.000 
#
# Total GULP energy -301456.220149 kJ/mol
# GULP energy per Si atom -5582.522595 kJ/mol
# Density = 2.013293 g / cm^3
# Si number density = 20.178860 Si / 1000 Ang^3
#
#
#
# Elastic Constant Matrix: (Units=GPa)
#
#
# Indices 1 2 3 4 5 6 
#
# 1 50.2687 12.7628 17.3743 0.0000 0.0000 0.0000
# 2 12.7628 50.2687 17.3743 0.0000 0.0000 0.0000
# 3 17.3743 17.3743 140.2699 0.0000 0.0000 0.0000
# 4 0.0000 0.0000 0.0000 24.1888 0.0000 0.0000
# 5 0.0000 0.0000 0.0000 0.0000 24.1888 0.0000
# 6 0.0000 0.0000 0.0000 0.0000 0.0000 18.7529
#
#
#
# Elastic Compliance Matrix: (Units=1/GPa)
#
#
# Indices 1 2 3 4 5 6 
#
# 1 0.021845 -0.004817 -0.002109 0.000000 0.000000 0.000000
# 2 -0.004817 0.021845 -0.002109 0.000000 0.000000 0.000000
# 3 -0.002109 -0.002109 0.007652 0.000000 0.000000 0.000000
# 4 0.000000 0.000000 0.000000 0.041341 0.000000 0.000000
# 5 0.000000 0.000000 0.000000 0.000000 0.041341 0.000000
# 6 0.000000 0.000000 0.000000 0.000000 0.000000 0.053325
#
#
# Mechanical properties :
#
#
# Convention : Reuss Voigt Hill
#
# Bulk Modulus (GPa) = 30.05643 37.31446 33.68544
# Shear Modulus (GPa) = 23.09349 26.31250 24.70299
#
# Velocity S-wave (km/s) = 3.38663 3.61496 3.50265
# Velocity P-wave (km/s) = 5.49724 5.99633 5.75220
#
# Compressibility (1/GPa) = 0.03327075
#
# Stress axis : x y z
#
# Youngs Moduli (GPa) = 45.77671 45.77671 130.69164
#
# Poissons Ratio (x) = 0.22052 0.27564
# Poissons Ratio (y) = 0.22052 0.27564
# Poissons Ratio (z) = 0.09655 0.09655
#
# Static dielectric constant tensor:
#      x y z
#    x 1.727740 0.000000 0.000000 
#    y 0.000000 1.727740 0.000000 
#    z 0.000000 0.000000 1.829770 
# 
# From -- ./inp_files/5588.got.cif
#   From: 2010.05.17/outbox.cif.g08.bks.cpg/sg178_3_cif.got.tgz:5588.got - 2010.05.20 11:30:59.
