data_PCOD9582699
_publ_section_title
;
Structure prediction by ZEFSAII (Michael W. Deem and Ramdas Pophale) SiO2 
 PCOD9582699
Probable space group: P 61 2 2
;
_chemical_formula_sum "Si O2"
_cell_formula_units_Z 72
_cell_length_a 12.263302
_cell_length_b 12.263302
_cell_length_c 28.384598
_cell_angle_alpha 90.000000
_cell_angle_beta 90.000000
_cell_angle_gamma 120.000000
_cell_volume 3696.819331
_symmetry_space_group_name_H-M "P 61 2 2"
_symmetry_group_IT_number 178
_symmetry_cell_setting 'hexagonal'
loop_
_space_group_symop_operation_xyz
x,y,z
x-y,x,1/6+z
-y,x-y,1/3+z
-x,-y,1/2+z
-x+y,-x,2/3+z
y,-x+y,5/6+z
x-y,-y,-z
-x,-x+y,2/3-z
y,x,1/3-z
-y,-x,5/6-z
-x+y,y,1/2-z
x,x-y,1/6-z
loop_
_atom_site_type_symbol
_atom_site_label
_atom_site_fract_x
_atom_site_fract_y
_atom_site_fract_z
Si Si1 0.089024 0.643958 0.497278
Si Si2 0.262883 0.131442 0.083334
Si Si3 0.922915 0.922915 0.666667
Si Si4 0.690330 0.369978 0.028535
Si Si5 0.813028 0.826981 0.284975
Si Si6 0.626851 0.713617 0.898364
Si Si7 0.082256 0.437506 0.182232
O O1 0.237677 0.689117 0.500057
O O2 0.058635 0.637390 0.553230
O O3 0.046810 0.734815 0.473502
O O4 0.011715 0.504335 0.475448
O O5 0.169947 0.135713 0.122449
O O6 0.353149 0.263512 0.057217
O O7 0.061936 0.944774 0.656458
O O8 0.660352 0.330176 0.083334
O O9 0.798519 0.515697 0.035302
O O10 0.561274 0.345038 0.006519
O O11 0.722890 0.865003 0.257223
O O12 0.916470 0.832939 0.250000
O O13 0.680483 0.649028 0.863976
#
# Coordination Sequence:
#
# PCOD9582699 Si02
#       7
#    12   6   6  12  12  12  12
#     4  10  23  40  65  99 130 175 229 273 340 409
#     4  12  26  42  68  98 134 178 224 288 352 404
#     4  12  26  46  62 100 136 178 234 272 340 412
#     4   9  18  37  63  90 128 167 211 274 333 391
#     4  12  23  41  67  92 133 177 221 283 332 401
#     4  10  21  39  63  97 127 173 232 268 331 409
#     4  11  20  40  68  93 133 176 220 283 341 405
#
# _framework density 19.476203000000002
#
# number of rings (size 3 to 8) (size 9 to 14) (size 15 to 20)
#    0.000    1.333    5.000    2.500    0.000    0.000 
#    0.000    3.333    0.000    0.000    0.000    0.000 
#    0.000    0.000    0.000    0.000    0.000    0.000 
#
# Total GULP energy -401656.126992 kJ/mol
# GULP energy per Si atom -5578.557319 kJ/mol
# Density = 1.943187 g / cm^3
# Si number density = 19.476203 Si / 1000 Ang^3
#
#
#
# Elastic Constant Matrix: (Units=GPa)
#
#
# Indices 1 2 3 4 5 6 
#
# 1 115.6523 53.4512 44.7571 0.0000 0.0000 0.0000
# 2 53.4512 115.6523 44.7571 0.0000 0.0000 0.0000
# 3 44.7571 44.7571 75.6650 0.0000 0.0000 0.0000
# 4 0.0000 0.0000 0.0000 33.4441 0.0000 0.0000
# 5 0.0000 0.0000 0.0000 0.0000 33.4441 0.0000
# 6 0.0000 0.0000 0.0000 0.0000 0.0000 31.1006
#
#
#
# Elastic Compliance Matrix: (Units=1/GPa)
#
#
# Indices 1 2 3 4 5 6 
#
# 1 0.012343 -0.003734 -0.005093 0.000000 0.000000 0.000000
# 2 -0.003734 0.012343 -0.005093 0.000000 0.000000 0.000000
# 3 -0.005093 -0.005093 0.019241 0.000000 0.000000 0.000000
# 4 0.000000 0.000000 0.000000 0.029901 0.000000 0.000000
# 5 0.000000 0.000000 0.000000 0.000000 0.029901 0.000000
# 6 0.000000 0.000000 0.000000 0.000000 0.000000 0.032154
#
#
# Mechanical properties :
#
#
# Convention : Reuss Voigt Hill
#
# Bulk Modulus (GPa) = 62.15351 65.87784 64.01568
# Shear Modulus (GPa) = 29.57135 30.53138 30.05136
#
# Velocity S-wave (km/s) = 3.90081 3.96362 3.93234
# Velocity P-wave (km/s) = 7.22981 7.40576 7.31831
#
# Compressibility (1/GPa) = 0.01608919
#
# Stress axis : x y z
#
# Youngs Moduli (GPa) = 81.01719 81.01719 51.97302
#
# Poissons Ratio (x) = 0.30250 0.26467
# Poissons Ratio (y) = 0.30250 0.26467
# Poissons Ratio (z) = 0.41258 0.41258
#
# Static dielectric constant tensor:
#      x y z
#    x 1.715030 0.000000 0.000000 
#    y 0.000000 1.715030 0.000000 
#    z 0.000000 0.000000 1.660360 
# 
# From -- ./inp_files/9631.got.cif
#   From: 2010.05.17/outbox.cif.g08.bks.cpg/sg178_5_cif.got.tgz:9631.got - 2010.05.20 11:30:59.
