data_PCOD9582492
_publ_section_title
;
Structure prediction by ZEFSAII (Michael W. Deem and Ramdas Pophale) SiO2 
 PCOD9582492
Probable space group: P 61 2 2
;
_chemical_formula_sum "Si O2"
_cell_formula_units_Z 72
_cell_length_a 11.069661
_cell_length_b 11.069661
_cell_length_c 29.103235
_cell_angle_alpha 90.000000
_cell_angle_beta 90.000000
_cell_angle_gamma 120.000000
_cell_volume 3088.449753
_symmetry_space_group_name_H-M "P 61 2 2"
_symmetry_group_IT_number 178
_symmetry_cell_setting 'hexagonal'
loop_
_space_group_symop_operation_xyz
x,y,z
x-y,x,1/6+z
-y,x-y,1/3+z
-x,-y,1/2+z
-x+y,-x,2/3+z
y,-x+y,5/6+z
x-y,-y,-z
-x,-x+y,2/3-z
y,x,1/3-z
-y,-x,5/6-z
-x+y,y,1/2-z
x,x-y,1/6-z
loop_
_atom_site_type_symbol
_atom_site_label
_atom_site_fract_x
_atom_site_fract_y
_atom_site_fract_z
Si Si1 0.450906 0.392220 0.594608
Si Si2 0.385834 0.771667 0.250000
Si Si3 0.396339 0.120323 0.188617
Si Si4 0.226178 0.000000 0.500000
Si Si5 0.633923 0.501574 0.018127
Si Si6 0.660333 0.320665 0.250000
Si Si7 0.297508 0.025261 0.720668
Si Si8 0.627076 0.000000 0.500000
O O1 0.357190 0.274551 0.631749
O O2 0.343155 0.395517 0.560016
O O3 0.567070 0.379285 0.565886
O O4 0.538718 0.533984 0.623543
O O5 0.282400 0.684992 0.208181
O O6 0.537413 0.866420 0.227139
O O7 0.465339 0.054667 0.156352
O O8 0.543104 0.224796 0.214552
O O9 0.284830 0.030159 0.227140
O O10 0.355908 0.221615 0.163560
O O11 0.097206 0.877805 0.528755
O O12 0.709620 0.606558 0.975787
#
# Coordination Sequence:
#
# PCOD9582492 Si02
#       8
#    12   6  12   6  12   6  12   6
#     4  10  21  36  62 102 141 183 221 297 373 428
#     4  12  25  42  66 112 144 183 254 306 380 454
#     4  11  22  41  65 108 138 194 240 305 373 447
#     4  11  24  44  62 105 146 186 247 293 360 464
#     4  12  23  38  69 106 144 189 238 315 368 451
#     4  10  19  36  62 100 134 173 230 284 366 418
#     4  12  25  45  70 104 151 197 252 305 382 456
#     4   9  22  38  62  95 148 174 239 295 366 442
#
# _framework density 23.312667000000001
#
# number of rings (size 3 to 8) (size 9 to 14) (size 15 to 20)
#    0.000    1.000    5.000    2.000    7.000    0.000 
#    0.000    0.000    0.000    3.000    0.000    0.000 
#    0.000    0.000    0.000    0.000    0.000    0.000 
#
# Total GULP energy -401539.560595 kJ/mol
# GULP energy per Si atom -5576.938342 kJ/mol
# Density = 2.325961 g / cm^3
# Si number density = 23.312667 Si / 1000 Ang^3
#
#
#
# Elastic Constant Matrix: (Units=GPa)
#
#
# Indices 1 2 3 4 5 6 
#
# 1 87.5615 22.8281 18.0803 0.0000 0.0000 0.0000
# 2 22.8281 87.5615 18.0803 0.0000 0.0000 0.0000
# 3 18.0803 18.0803 70.1478 0.0000 0.0000 0.0000
# 4 0.0000 0.0000 0.0000 27.9361 0.0000 0.0000
# 5 0.0000 0.0000 0.0000 0.0000 27.9361 0.0000
# 6 0.0000 0.0000 0.0000 0.0000 0.0000 32.3667
#
#
#
# Elastic Compliance Matrix: (Units=1/GPa)
#
#
# Indices 1 2 3 4 5 6 
#
# 1 0.012671 -0.002777 -0.002550 0.000000 0.000000 0.000000
# 2 -0.002777 0.012671 -0.002550 0.000000 0.000000 0.000000
# 3 -0.002550 -0.002550 0.015570 0.000000 0.000000 0.000000
# 4 0.000000 0.000000 0.000000 0.035796 0.000000 0.000000
# 5 0.000000 0.000000 0.000000 0.000000 0.035796 0.000000
# 6 0.000000 0.000000 0.000000 0.000000 0.000000 0.030896
#
#
# Mechanical properties :
#
#
# Convention : Reuss Voigt Hill
#
# Bulk Modulus (GPa) = 39.74901 40.36090 40.05495
# Shear Modulus (GPa) = 29.84347 30.06657 29.95502
#
# Velocity S-wave (km/s) = 3.58179 3.59515 3.58847
# Velocity P-wave (km/s) = 5.84748 5.88081 5.86417
#
# Compressibility (1/GPa) = 0.02515786
#
# Stress axis : x y z
#
# Youngs Moduli (GPa) = 78.91981 78.91981 64.22518
#
# Poissons Ratio (x) = 0.21915 0.16379
# Poissons Ratio (y) = 0.21915 0.16379
# Poissons Ratio (z) = 0.20126 0.20126
#
# Static dielectric constant tensor:
#      x y z
#    x 1.958290 0.000000 0.000000 
#    y 0.000000 1.958290 0.000000 
#    z 0.000000 0.000000 2.038020 
# 
# From -- ./inp_files/9634.got.cif
#   From: 2010.05.17/outbox.cif.g08.bks.cpg/sg178_5_cif.got.tgz:9634.got - 2010.05.20 11:30:59.
