data_PCOD9582030
_publ_section_title
;
Structure prediction by ZEFSAII (Michael W. Deem and Ramdas Pophale) SiO2 
 PCOD9582030
Probable space group: P 63/M
;
_chemical_formula_sum "Si O2"
_cell_formula_units_Z 66
_cell_length_a 20.826790
_cell_length_b 20.826790
_cell_length_c 7.972366
_cell_angle_alpha 90.000000
_cell_angle_beta 90.000000
_cell_angle_gamma 120.000000
_cell_volume 2994.763532
_symmetry_space_group_name_H-M "P 63/M"
_symmetry_group_IT_number 176
_symmetry_cell_setting 'hexagonal'
loop_
_space_group_symop_operation_xyz
x,y,z
x-y,x,1/2+z
-y,x-y,z
-x,-y,1/2+z
-x+y,-x,z
y,-x+y,1/2+z
-x,-y,-z
-x+y,-x,1/2-z
y,-x+y,-z
x,y,1/2-z
x-y,x,-z
-y,x-y,1/2-z
loop_
_atom_site_type_symbol
_atom_site_label
_atom_site_fract_x
_atom_site_fract_y
_atom_site_fract_z
Si Si1 0.169715 0.097435 0.447497
Si Si2 0.872746 0.426814 0.056777
Si Si3 0.332083 0.143507 0.445837
Si Si4 0.302983 0.869384 0.054808
Si Si5 0.392560 0.039355 0.456071
Si Si6 0.250950 0.668204 0.750000
O O1 0.172390 0.114507 0.250000
O O2 0.121767 0.130229 0.530246
O O3 0.254572 0.133307 0.514256
O O4 0.105132 0.545614 0.750000
O O5 0.853406 0.482965 0.967503
O O6 0.932555 0.408583 0.981140
O O7 0.799398 0.346057 0.088520
O O8 0.316230 0.123542 0.250000
O O9 0.401059 0.226229 0.458845
O O10 0.357822 0.088288 0.518296
O O11 0.283358 0.862478 0.250000
O O12 0.339444 0.954720 0.001307
O O13 0.398857 0.045231 0.250000
O O14 0.264532 0.597208 0.750000
#
# Coordination Sequence:
#
# PCOD9582030 Si02
#       6
#    12  12  12  12  12   6
#     4  11  23  40  62  90 120 158 195 244 291 350
#     4   9  19  33  59  80 106 145 190 227 266 328
#     4  10  22  38  62  84 111 148 197 236 284 340
#     4  11  22  36  55  83 118 147 178 231 291 337
#     4   9  19  36  58  82 108 145 189 233 273 327
#     4   8  18  30  58  90 102 136 190 242 266 306
#
# _framework density 22.038468000000002
#
# number of rings (size 3 to 8) (size 9 to 14) (size 15 to 20)
#    0.727    1.455    0.000    2.909    2.545    2.909 
#    0.000    3.636    0.000    0.000    0.000    0.000 
#    0.000    0.000    0.000    0.000    0.000    0.000 
#
# Total GULP energy -368009.334433 kJ/mol
# GULP energy per Si atom -5575.899007 kJ/mol
# Density = 2.198831 g / cm^3
# Si number density = 22.038468 Si / 1000 Ang^3
#
#
#
# Elastic Constant Matrix: (Units=GPa)
#
#
# Indices 1 2 3 4 5 6 
#
# 1 83.4870 6.6927 -5.3282 0.0000 0.0000 0.0000
# 2 6.6927 83.4870 -5.3282 0.0000 0.0000 0.0000
# 3 -5.3282 -5.3282 18.4102 0.0000 0.0000 0.0000
# 4 0.0000 0.0000 0.0000 3.8820 0.0000 0.0000
# 5 0.0000 0.0000 0.0000 0.0000 3.8820 0.0000
# 6 0.0000 0.0000 0.0000 0.0000 0.0000 38.3971
#
#
#
# Elastic Compliance Matrix: (Units=1/GPa)
#
#
# Indices 1 2 3 4 5 6 
#
# 1 0.012252 -0.000770 0.003323 0.000000 0.000000 0.000000
# 2 -0.000770 0.012252 0.003323 0.000000 0.000000 0.000000
# 3 0.003323 0.003323 0.056241 0.000000 0.000000 0.000000
# 4 0.000000 0.000000 0.000000 0.257598 0.000000 0.000000
# 5 0.000000 0.000000 0.000000 0.000000 0.257598 0.000000
# 6 0.000000 0.000000 0.000000 0.000000 0.000000 0.026044
#
#
# Mechanical properties :
#
#
# Convention : Reuss Voigt Hill
#
# Bulk Modulus (GPa) = 10.81123 19.71741 15.26432
# Shear Modulus (GPa) = 7.79953 21.85543 14.82748
#
# Velocity S-wave (km/s) = 1.88328 3.15253 2.59665
# Velocity P-wave (km/s) = 3.10568 4.71355 3.99141
#
# Compressibility (1/GPa) = 0.09249640
#
# Stress axis : x y z
#
# Youngs Moduli (GPa) = 81.62116 81.62116 17.78056
#
# Poissons Ratio (x) = 0.06285 -0.05908
# Poissons Ratio (y) = 0.06285 -0.05908
# Poissons Ratio (z) = -0.27122 -0.27122
#
# Static dielectric constant tensor:
#      x y z
#    x 1.818740 0.000000 0.000000 
#    y 0.000000 1.818740 0.000000 
#    z 0.000000 0.000000 1.797400 
# 
# From -- ./inp_files/997.got.cif
#   From: 2010.05.17/outbox.cif.g08.bks.cpg/sg176_1_cif.got.tgz:997.got - 2010.06.03 11:36:45.
