data_PCOD9582857
_publ_section_title
;
Structure prediction by ZEFSAII (Michael W. Deem and Ramdas Pophale) SiO2 
 PCOD9582857
Probable space group: P 61 2 2
;
_chemical_formula_sum "Si O2"
_cell_formula_units_Z 60
_cell_length_a 14.935300
_cell_length_b 14.935300
_cell_length_c 13.976492
_cell_angle_alpha 90.000000
_cell_angle_beta 90.000000
_cell_angle_gamma 120.000000
_cell_volume 2699.956164
_symmetry_space_group_name_H-M "P 61 2 2"
_symmetry_group_IT_number 178
_symmetry_cell_setting 'hexagonal'
loop_
_space_group_symop_operation_xyz
x,y,z
x-y,x,1/6+z
-y,x-y,1/3+z
-x,-y,1/2+z
-x+y,-x,2/3+z
y,-x+y,5/6+z
x-y,-y,-z
-x,-x+y,2/3-z
y,x,1/3-z
-y,-x,5/6-z
-x+y,y,1/2-z
x,x-y,1/6-z
loop_
_atom_site_type_symbol
_atom_site_label
_atom_site_fract_x
_atom_site_fract_y
_atom_site_fract_z
Si Si1 0.151307 0.385525 0.976388
Si Si2 0.206477 0.688555 0.017034
Si Si3 0.529710 0.203709 0.676803
Si Si4 0.497518 0.480336 0.775220
Si Si5 0.021289 0.880821 0.187193
O O1 0.241478 0.427661 0.898123
O O2 0.083753 0.439233 0.948530
O O3 0.079237 0.263442 0.979437
O O4 0.205514 0.433705 0.077992
O O5 0.239654 0.619827 0.083334
O O6 0.264268 0.735733 0.916667
O O7 0.087065 0.606185 0.992951
O O8 0.626128 0.252256 0.750000
O O9 0.541713 0.270857 0.583334
O O10 0.517804 0.095068 0.648825
O O11 0.515245 0.515245 0.666667
O O12 0.985055 0.891031 0.081294
O O13 0.915045 0.830089 0.250000
#
# Coordination Sequence:
#
# PCOD9582857 Si02
#       5
#    12  12  12  12  12
#     4  11  24  43  73 105 141 189 249 302 372 440
#     4  10  25  49  72 103 150 196 249 304 371 446
#     4  12  27  45  71 107 148 199 247 305 372 439
#     4  11  24  45  66  99 146 189 238 308 364 430
#     4  10  23  43  72 105 141 184 238 316 377 441
#
# _framework density 22.222584000000001
#
# number of rings (size 3 to 8) (size 9 to 14) (size 15 to 20)
#    0.000    1.200    2.000    3.000    5.600    8.800 
#    0.000    5.000    0.000    0.000    0.000    0.000 
#    0.000    0.000    0.000    0.000    0.000    0.000 
#
# Total GULP energy -335580.837291 kJ/mol
# GULP energy per Si atom -5593.013955 kJ/mol
# Density = 2.217200 g / cm^3
# Si number density = 22.222584 Si / 1000 Ang^3
#
#
#
# Elastic Constant Matrix: (Units=GPa)
#
#
# Indices 1 2 3 4 5 6 
#
# 1 127.5546 -0.8853 47.7953 0.0000 0.0000 0.0000
# 2 -0.8853 127.5546 47.7953 0.0000 0.0000 0.0000
# 3 47.7953 47.7953 157.3407 0.0000 0.0000 0.0000
# 4 0.0000 0.0000 0.0000 35.0789 0.0000 0.0000
# 5 0.0000 0.0000 0.0000 0.0000 35.0789 0.0000
# 6 0.0000 0.0000 0.0000 0.0000 0.0000 64.2200
#
#
#
# Elastic Compliance Matrix: (Units=1/GPa)
#
#
# Indices 1 2 3 4 5 6 
#
# 1 0.009014 0.001228 -0.003111 0.000000 0.000000 0.000000
# 2 0.001228 0.009014 -0.003111 0.000000 0.000000 0.000000
# 3 -0.003111 -0.003111 0.008246 0.000000 0.000000 0.000000
# 4 0.000000 0.000000 0.000000 0.028507 0.000000 0.000000
# 5 0.000000 0.000000 0.000000 0.000000 0.028507 0.000000
# 6 0.000000 0.000000 0.000000 0.000000 0.000000 0.015571
#
#
# Mechanical properties :
#
#
# Convention : Reuss Voigt Hill
#
# Bulk Modulus (GPa) = 61.40416 66.87336 64.13876
# Shear Modulus (GPa) = 43.75324 48.05852 45.90588
#
# Velocity S-wave (km/s) = 4.44200 4.65542 4.54996
# Velocity P-wave (km/s) = 7.34846 7.68473 7.51848
#
# Compressibility (1/GPa) = 0.01628554
#
# Stress axis : x y z
#
# Youngs Moduli (GPa) = 110.93666 110.93666 121.27215
#
# Poissons Ratio (x) = -0.13628 0.37732
# Poissons Ratio (y) = -0.13628 0.37732
# Poissons Ratio (z) = 0.34517 0.34517
#
# Static dielectric constant tensor:
#      x y z
#    x 1.818700 0.000000 0.000000 
#    y 0.000000 1.818700 0.000000 
#    z 0.000000 0.000000 1.881320 
# 
# From -- ./inp_files/5681.got.cif
#   From: 2010.05.17/outbox.cif.g08.bks.cpg/sg178_3_cif.got.tgz:5681.got - 2010.05.20 11:30:59.
