data_PCOD9582516
_publ_section_title
;
Structure prediction by ZEFSAII (Michael W. Deem and Ramdas Pophale) SiO2 
 PCOD9582516
Probable space group: P 61 2 2
;
_chemical_formula_sum "Si O2"
_cell_formula_units_Z 42
_cell_length_a 16.065415
_cell_length_b 16.065415
_cell_length_c 10.933691
_cell_angle_alpha 90.000000
_cell_angle_beta 90.000000
_cell_angle_gamma 120.000000
_cell_volume 2443.888147
_symmetry_space_group_name_H-M "P 61 2 2"
_symmetry_group_IT_number 178
_symmetry_cell_setting 'hexagonal'
loop_
_space_group_symop_operation_xyz
x,y,z
x-y,x,1/6+z
-y,x-y,1/3+z
-x,-y,1/2+z
-x+y,-x,2/3+z
y,-x+y,5/6+z
x-y,-y,-z
-x,-x+y,2/3-z
y,x,1/3-z
-y,-x,5/6-z
-x+y,y,1/2-z
x,x-y,1/6-z
loop_
_atom_site_type_symbol
_atom_site_label
_atom_site_fract_x
_atom_site_fract_y
_atom_site_fract_z
Si Si1 0.255473 0.753829 0.663056
Si Si2 0.725755 0.618313 0.674353
Si Si3 0.304960 0.695041 0.416667
Si Si4 0.941413 0.480786 0.452281
O O1 0.157427 0.745251 0.707797
O O2 0.253823 0.710069 0.531439
O O3 0.267393 0.685145 0.761883
O O4 0.353769 0.855699 0.653077
O O5 0.706143 0.706143 0.666667
O O6 0.817559 0.635117 0.750000
O O7 0.628465 0.534002 0.740175
O O8 0.995505 0.497753 0.583334
O O9 0.000000 0.541212 0.333334
#
# Coordination Sequence:
#
# PCOD9582516 Si02
#       4
#    12  12   6  12
#     4  11  19  35  52  80 115 155 195 235 284 355
#     4  11  22  38  59  82 113 155 200 249 296 352
#     4  10  20  30  56  78 114 156 194 228 284 344
#     4  11  22  35  57  82 120 154 193 237 294 356
#
# _framework density 17.18573
#
# number of rings (size 3 to 8) (size 9 to 14) (size 15 to 20)
#    0.000    1.143    7.143    0.000    0.000    4.571 
#    0.000    0.000    0.000    0.000    0.000    2.000 
#    0.000    0.000    0.000    0.000    0.000    0.000 
#
# Total GULP energy -233831.206937 kJ/mol
# GULP energy per Si atom -5567.409689 kJ/mol
# Density = 1.714661 g / cm^3
# Si number density = 17.185730 Si / 1000 Ang^3
#
#
#
# Elastic Constant Matrix: (Units=GPa)
#
#
# Indices 1 2 3 4 5 6 
#
# 1 77.2584 35.4875 35.7811 0.0000 0.0000 0.0000
# 2 35.4875 77.2584 35.7811 0.0000 0.0000 0.0000
# 3 35.7811 35.7811 128.8960 0.0000 0.0000 0.0000
# 4 0.0000 0.0000 0.0000 22.3991 0.0000 0.0000
# 5 0.0000 0.0000 0.0000 0.0000 22.3991 0.0000
# 6 0.0000 0.0000 0.0000 0.0000 0.0000 20.8854
#
#
#
# Elastic Compliance Matrix: (Units=1/GPa)
#
#
# Indices 1 2 3 4 5 6 
#
# 1 0.017353 -0.006587 -0.002989 0.000000 0.000000 0.000000
# 2 -0.006587 0.017353 -0.002989 0.000000 0.000000 0.000000
# 3 -0.002989 -0.002989 0.009418 0.000000 0.000000 0.000000
# 4 0.000000 0.000000 0.000000 0.044645 0.000000 0.000000
# 5 0.000000 0.000000 0.000000 0.000000 0.044645 0.000000
# 6 0.000000 0.000000 0.000000 0.000000 0.000000 0.047880
#
#
# Mechanical properties :
#
#
# Convention : Reuss Voigt Hill
#
# Bulk Modulus (GPa) = 52.64385 55.27914 53.96149
# Shear Modulus (GPa) = 23.50130 24.89427 24.19778
#
# Velocity S-wave (km/s) = 3.70197 3.81010 3.75642
# Velocity P-wave (km/s) = 6.99797 7.18271 7.09094
#
# Compressibility (1/GPa) = 0.01899557
#
# Stress axis : x y z
#
# Youngs Moduli (GPa) = 57.62585 57.62585 106.18497
#
# Poissons Ratio (x) = 0.37957 0.31736
# Poissons Ratio (y) = 0.37957 0.31736
# Poissons Ratio (z) = 0.17223 0.17223
#
# Static dielectric constant tensor:
#      x y z
#    x 1.616680 0.000000 0.000000 
#    y 0.000000 1.616680 0.000000 
#    z 0.000000 0.000000 1.668690 
# 
# From -- ./inp_files/3933.got.cif
#   From: 2010.05.17/outbox.cif.g08.bks.cpg/sg178_2_cif.got.tgz:3933.got - 2010.05.20 11:30:59.
