data_PCOD9582787
_publ_section_title
;
Structure prediction by ZEFSAII (Michael W. Deem and Ramdas Pophale) SiO2 
 PCOD9582787
Probable space group: P 61 2 2
;
_chemical_formula_sum "Si O2"
_cell_formula_units_Z 48
_cell_length_a 14.213417
_cell_length_b 14.213417
_cell_length_c 13.140126
_cell_angle_alpha 90.000000
_cell_angle_beta 90.000000
_cell_angle_gamma 120.000000
_cell_volume 2298.937460
_symmetry_space_group_name_H-M "P 61 2 2"
_symmetry_group_IT_number 178
_symmetry_cell_setting 'hexagonal'
loop_
_space_group_symop_operation_xyz
x,y,z
x-y,x,1/6+z
-y,x-y,1/3+z
-x,-y,1/2+z
-x+y,-x,2/3+z
y,-x+y,5/6+z
x-y,-y,-z
-x,-x+y,2/3-z
y,x,1/3-z
-y,-x,5/6-z
-x+y,y,1/2-z
x,x-y,1/6-z
loop_
_atom_site_type_symbol
_atom_site_label
_atom_site_fract_x
_atom_site_fract_y
_atom_site_fract_z
Si Si1 0.005794 0.850550 0.000040
Si Si2 0.528512 0.263111 0.960543
Si Si3 0.456510 0.509825 0.766474
Si Si4 0.631374 0.659160 0.442938
O O1 0.103310 0.896691 0.916667
O O2 0.917456 0.866198 0.937703
O O3 0.974166 0.729323 0.024951
O O4 0.625299 0.374702 0.916667
O O5 0.419443 0.262902 0.922391
O O6 0.528826 0.264413 0.083334
O O7 0.550806 0.168420 0.920190
O O8 0.440186 0.440186 0.666667
O O9 0.385722 0.426420 0.854645
O O10 0.581758 0.558932 0.799280
#
# Coordination Sequence:
#
# PCOD9582787 Si02
#       4
#    12  12  12  12
#     4  10  22  41  74 106 132 177 233 290 347 411
#     4  12  23  40  65  94 134 184 227 280 343 404
#     4  11  23  41  63  96 143 178 233 288 332 416
#     4  11  22  41  65 101 136 175 230 284 344 409
#
# _framework density 20.879211000000002
#
# number of rings (size 3 to 8) (size 9 to 14) (size 15 to 20)
#    0.000    1.000    5.000    2.250    7.000    0.000 
#    4.500    0.000   16.500    0.000    0.000    0.000 
#    0.000    0.000    0.000    0.000    0.000    0.000 
#
# Total GULP energy -267775.800676 kJ/mol
# GULP energy per Si atom -5578.662514 kJ/mol
# Density = 2.083169 g / cm^3
# Si number density = 20.879211 Si / 1000 Ang^3
#
#
#
# Elastic Constant Matrix: (Units=GPa)
#
#
# Indices 1 2 3 4 5 6 
#
# 1 993.6691 -892.8656 38.4052 0.0000 0.0000 0.0000
# 2 -892.8656 993.6691 38.4052 0.0000 0.0000 0.0000
# 3 38.4052 38.4052 97.9974 0.0000 0.0000 0.0000
# 4 0.0000 0.0000 0.0000 18.8234 0.0000 0.0000
# 5 0.0000 0.0000 0.0000 0.0000 18.8234 0.0000
# 6 0.0000 0.0000 0.0000 0.0000 0.0000 943.2674
#
#
#
# Elastic Compliance Matrix: (Units=1/GPa)
#
#
# Indices 1 2 3 4 5 6 
#
# 1 0.007337 0.006807 -0.005543 0.000000 0.000000 0.000000
# 2 0.006807 0.007337 -0.005543 0.000000 0.000000 0.000000
# 3 -0.005543 -0.005543 0.014549 0.000000 0.000000 0.000000
# 4 0.000000 0.000000 0.000000 0.053125 0.000000 0.000000
# 5 0.000000 0.000000 0.000000 0.000000 0.053125 0.000000
# 6 0.000000 0.000000 0.000000 0.000000 0.000000 0.001060
#
#
# Mechanical properties :
#
#
# Convention : Reuss Voigt Hill
#
# Bulk Modulus (GPa) = 48.39142 50.35835 49.37488
# Shear Modulus (GPa) = 32.89901 389.60889 211.25395
#
# Velocity S-wave (km/s) = 3.97379 13.67503 10.06969
# Velocity P-wave (km/s) = 6.65446 16.53823 12.60546
#
# Compressibility (1/GPa) = 0.02066482
#
# Stress axis : x y z
#
# Youngs Moduli (GPa) = 136.29524 136.29524 68.73340
#
# Poissons Ratio (x) = -0.92775 0.38099
# Poissons Ratio (y) = -0.92775 0.38099
# Poissons Ratio (z) = 0.75549 0.75549
#
# Static dielectric constant tensor:
#      x y z
#    x 1.782170 0.000000 0.000000 
#    y 0.000000 1.782170 0.000000 
#    z 0.000000 0.000000 1.784260 
# 
# From -- ./inp_files/5410.got.cif
#   From: 2010.05.17/outbox.cif.g08.bks.cpg/sg178_3_cif.got.tgz:5410.got - 2010.05.20 11:30:59.
