data_PCOD9582589
_publ_section_title
;
Structure prediction by ZEFSAII (Michael W. Deem and Ramdas Pophale) SiO2 
 PCOD9582589
Probable space group: P 61 2 2
;
_chemical_formula_sum "Si O2"
_cell_formula_units_Z 48
_cell_length_a 16.961349
_cell_length_b 16.961349
_cell_length_c 9.425084
_cell_angle_alpha 90.000000
_cell_angle_beta 90.000000
_cell_angle_gamma 120.000000
_cell_volume 2348.208425
_symmetry_space_group_name_H-M "P 61 2 2"
_symmetry_group_IT_number 178
_symmetry_cell_setting 'hexagonal'
loop_
_space_group_symop_operation_xyz
x,y,z
x-y,x,1/6+z
-y,x-y,1/3+z
-x,-y,1/2+z
-x+y,-x,2/3+z
y,-x+y,5/6+z
x-y,-y,-z
-x,-x+y,2/3-z
y,x,1/3-z
-y,-x,5/6-z
-x+y,y,1/2-z
x,x-y,1/6-z
loop_
_atom_site_type_symbol
_atom_site_label
_atom_site_fract_x
_atom_site_fract_y
_atom_site_fract_z
Si Si1 0.781752 0.164057 0.246781
Si Si2 0.336638 0.575984 0.557317
Si Si3 0.719607 0.033869 0.643832
Si Si4 0.433782 0.519761 0.078348
O O1 0.802172 0.197829 0.416667
O O2 0.739544 0.214722 0.154537
O O3 0.873081 0.188628 0.158890
O O4 0.717018 0.054510 0.259349
O O5 0.396653 0.603348 0.416667
O O6 0.313009 0.656505 0.583334
O O7 0.401638 0.578337 0.682630
O O8 0.654012 0.073308 0.594310
O O9 0.743392 0.000000 0.500000
O O10 0.508534 0.508534 0.166667
O O11 0.459186 0.540815 0.916667
#
# Coordination Sequence:
#
# PCOD9582589 Si02
#       4
#    12  12  12  12
#     4  10  20  37  60  85 119 160 208 271 335 402
#     4  12  24  38  55  79 120 170 218 269 321 384
#     4   9  18  34  56  81 112 150 195 252 320 385
#     4  11  22  37  59  85 116 158 210 266 324 387
#
# _framework density 20.441116000000001
#
# number of rings (size 3 to 8) (size 9 to 14) (size 15 to 20)
#    0.000    1.500    0.000    9.000    0.000    5.000 
#    0.000    2.500    0.000    0.000    0.000    0.000 
#    0.000   74.000    0.000    0.000    0.000    0.000 
#
# Total GULP energy -267257.804431 kJ/mol
# GULP energy per Si atom -5567.870926 kJ/mol
# Density = 2.039459 g / cm^3
# Si number density = 20.441116 Si / 1000 Ang^3
#
#
#
# Elastic Constant Matrix: (Units=GPa)
#
#
# Indices 1 2 3 4 5 6 
#
# 1 92.3562 114.7685 41.1978 0.0000 0.0000 0.0000
# 2 114.7685 92.3562 41.1978 0.0000 0.0000 0.0000
# 3 41.1978 41.1978 116.7750 0.0000 0.0000 0.0000
# 4 0.0000 0.0000 0.0000 30.1236 0.0000 0.0000
# 5 0.0000 0.0000 0.0000 0.0000 30.1236 0.0000
# 6 0.0000 0.0000 0.0000 0.0000 0.0000 -11.2062
#
#
#
# Elastic Compliance Matrix: (Units=1/GPa)
#
#
# Indices 1 2 3 4 5 6 
#
# 1 -0.019501 0.025117 -0.001981 0.000000 0.000000 0.000000
# 2 0.025117 -0.019501 -0.001981 0.000000 0.000000 0.000000
# 3 -0.001981 -0.001981 0.009962 0.000000 0.000000 0.000000
# 4 0.000000 0.000000 0.000000 0.033197 0.000000 0.000000
# 5 0.000000 0.000000 0.000000 0.000000 0.033197 0.000000
# 6 0.000000 0.000000 0.000000 0.000000 0.000000 -0.089237
#
#
# Mechanical properties :
#
#
# Convention : Reuss Voigt Hill
#
# Bulk Modulus (GPa) = 75.36686 77.31285 76.33985
# Shear Modulus (GPa) = -55.69790 16.76307 -19.46742
#
# Velocity S-wave (km/s) = -5.22562 2.86679 -3.08939
# Velocity P-wave (km/s) = 0.73537 6.99016 4.97006
#
# Compressibility (1/GPa) = 0.01326843
#
# Stress axis : x y z
#
# Youngs Moduli (GPa) = -51.27937 -51.27937 100.38618
#
# Poissons Ratio (x) = 1.28800 0.19890
# Poissons Ratio (y) = 1.28800 0.19890
# Poissons Ratio (z) = -0.10160 -0.10160
#
# Static dielectric constant tensor:
#      x y z
#    x 1.893740 0.000000 0.000000 
#    y 0.000000 1.893740 0.000000 
#    z 0.000000 0.000000 1.799720 
# 
# From -- ./inp_files/2530.got.cif
#   From: 2010.05.17/outbox.cif.g08.bks.cpg/sg178_2_cif.got.tgz:2530.got - 2010.05.20 11:30:59.
