data_PCOD9582716
_publ_section_title
;
Structure prediction by ZEFSAII (Michael W. Deem and Ramdas Pophale) SiO2 
 PCOD9582716
Probable space group: P 61 2 2
;
_chemical_formula_sum "Si O2"
_cell_formula_units_Z 36
_cell_length_a 8.623945
_cell_length_b 8.623945
_cell_length_c 21.997809
_cell_angle_alpha 90.000000
_cell_angle_beta 90.000000
_cell_angle_gamma 120.000000
_cell_volume 1416.843933
_symmetry_space_group_name_H-M "P 61 2 2"
_symmetry_group_IT_number 178
_symmetry_cell_setting 'hexagonal'
loop_
_space_group_symop_operation_xyz
x,y,z
x-y,x,1/6+z
-y,x-y,1/3+z
-x,-y,1/2+z
-x+y,-x,2/3+z
y,-x+y,5/6+z
x-y,-y,-z
-x,-x+y,2/3-z
y,x,1/3-z
-y,-x,5/6-z
-x+y,y,1/2-z
x,x-y,1/6-z
loop_
_atom_site_type_symbol
_atom_site_label
_atom_site_fract_x
_atom_site_fract_y
_atom_site_fract_z
Si Si1 0.807792 0.687869 0.363925
Si Si2 0.520137 0.054423 0.397856
Si Si3 0.753663 0.178968 0.284316
O O1 0.654535 0.606388 0.312713
O O2 0.817697 0.526194 0.396750
O O3 0.751858 0.782440 0.416214
O O4 0.000000 0.814465 0.333334
O O5 0.690829 0.136638 0.353441
O O6 0.537655 0.912980 0.439085
O O7 0.583092 0.166184 0.250000
#
# Coordination Sequence:
#
# PCOD9582716 Si02
#       3
#    12  12  12
#     4  11  23  40  69 104 140 184 235 296 364 430
#     4  11  24  43  73 103 139 187 239 295 361 435
#     4  10  21  41  69 101 133 179 235 287 345 427
#
# _framework density 25.408584999999999
#
# number of rings (size 3 to 8) (size 9 to 14) (size 15 to 20)
#    0.000    1.333    0.000    7.000    0.000    5.333 
#    0.000    0.000    0.000  124.000    0.000    0.000 
#    0.000    0.000    0.000    0.000    0.000    0.000 
#
# Total GULP energy -202078.266332 kJ/mol
# GULP energy per Si atom -5613.285176 kJ/mol
# Density = 2.535075 g / cm^3
# Si number density = 25.408585 Si / 1000 Ang^3
#
#
#
# Elastic Constant Matrix: (Units=GPa)
#
#
# Indices 1 2 3 4 5 6 
#
# 1 113.0870 25.9512 39.1232 0.0000 0.0000 0.0000
# 2 25.9512 113.0870 39.1232 0.0000 0.0000 0.0000
# 3 39.1232 39.1232 126.0217 0.0000 0.0000 0.0000
# 4 0.0000 0.0000 0.0000 32.9601 0.0000 0.0000
# 5 0.0000 0.0000 0.0000 0.0000 32.9601 0.0000
# 6 0.0000 0.0000 0.0000 0.0000 0.0000 43.5679
#
#
#
# Elastic Compliance Matrix: (Units=1/GPa)
#
#
# Indices 1 2 3 4 5 6 
#
# 1 0.010096 -0.001381 -0.002706 0.000000 0.000000 0.000000
# 2 -0.001381 0.010096 -0.002706 0.000000 0.000000 0.000000
# 3 -0.002706 -0.002706 0.009615 0.000000 0.000000 0.000000
# 4 0.000000 0.000000 0.000000 0.030340 0.000000 0.000000
# 5 0.000000 0.000000 0.000000 0.000000 0.030340 0.000000
# 6 0.000000 0.000000 0.000000 0.000000 0.000000 0.022953
#
#
# Mechanical properties :
#
#
# Convention : Reuss Voigt Hill
#
# Bulk Modulus (GPa) = 61.64225 62.28787 61.96506
# Shear Modulus (GPa) = 37.75597 38.43082 38.09339
#
# Velocity S-wave (km/s) = 3.85899 3.89332 3.87619
# Velocity P-wave (km/s) = 6.64596 6.69166 6.66885
#
# Compressibility (1/GPa) = 0.01622264
#
# Stress axis : x y z
#
# Youngs Moduli (GPa) = 99.05316 99.05316 104.00435
#
# Poissons Ratio (x) = 0.13677 0.28138
# Poissons Ratio (y) = 0.13677 0.28138
# Poissons Ratio (z) = 0.26799 0.26799
#
# Static dielectric constant tensor:
#      x y z
#    x 1.975150 0.000000 0.000000 
#    y 0.000000 1.975150 0.000000 
#    z 0.000000 0.000000 2.005910 
# 
# From -- ./inp_files/8541.got.cif
#   From: 2010.05.17/outbox.cif.g08.bks.cpg/sg178_5_cif.got.tgz:8541.got - 2010.05.20 11:30:59.
