data_PCOD9582645
_publ_section_title
;
Structure prediction by ZEFSAII (Michael W. Deem and Ramdas Pophale) SiO2 
 PCOD9582645
Probable space group: P 61 2 2
;
_chemical_formula_sum "Si O2"
_cell_formula_units_Z 66
_cell_length_a 13.347884
_cell_length_b 13.347884
_cell_length_c 17.515244
_cell_angle_alpha 90.000000
_cell_angle_beta 90.000000
_cell_angle_gamma 120.000000
_cell_volume 2702.537139
_symmetry_space_group_name_H-M "P 61 2 2"
_symmetry_group_IT_number 178
_symmetry_cell_setting 'hexagonal'
loop_
_space_group_symop_operation_xyz
x,y,z
x-y,x,1/6+z
-y,x-y,1/3+z
-x,-y,1/2+z
-x+y,-x,2/3+z
y,-x+y,5/6+z
x-y,-y,-z
-x,-x+y,2/3-z
y,x,1/3-z
-y,-x,5/6-z
-x+y,y,1/2-z
x,x-y,1/6-z
loop_
_atom_site_type_symbol
_atom_site_label
_atom_site_fract_x
_atom_site_fract_y
_atom_site_fract_z
Si Si1 0.158703 0.240171 0.465595
Si Si2 0.708103 0.198651 0.256503
Si Si3 0.792477 0.584954 0.750000
Si Si4 0.000000 0.603299 0.333334
Si Si5 0.834460 0.381545 0.958659
Si Si6 0.210955 0.000000 0.000000
Si Si7 0.799370 0.144301 0.783475
O O1 0.253344 0.360618 0.428072
O O2 0.234449 0.186705 0.498173
O O3 0.111747 0.286064 0.533494
O O4 0.066757 0.179503 0.397480
O O5 0.573656 0.147312 0.250000
O O6 0.732704 0.228361 0.345172
O O7 0.780704 0.314604 0.205542
O O8 0.757509 0.675590 0.716133
O O9 0.943750 0.510800 0.265196
O O10 0.899021 0.624188 0.366091
O O11 0.730700 0.269301 0.916667
O O12 0.861959 0.321962 0.029790
#
# Coordination Sequence:
#
# PCOD9582645 Si02
#       7
#    12  12   6   6  12   6  12
#     4  11  23  41  65  94 137 176 235 295 352 443
#     4  10  23  42  64  99 135 180 232 287 358 426
#     4  10  22  44  70  94 138 184 248 294 356 448
#     4  10  20  41  65  94 132 170 232 281 375 444
#     4   9  20  38  63  91 130 175 222 285 354 428
#     4  10  22  45  67  90 134 194 236 297 351 442
#     4  11  22  41  63  98 135 176 228 301 362 434
#
# _framework density 24.421495
#
# number of rings (size 3 to 8) (size 9 to 14) (size 15 to 20)
#    0.000    1.818    1.818    2.182    0.000    8.000 
#    9.818    5.455    0.000    0.000    0.000    0.000 
#    0.000    0.000    0.000    0.000    0.000    0.000 
#
# Total GULP energy -368377.422823 kJ/mol
# GULP energy per Si atom -5581.476103 kJ/mol
# Density = 2.436591 g / cm^3
# Si number density = 24.421495 Si / 1000 Ang^3
#
#
#
# Elastic Constant Matrix: (Units=GPa)
#
#
# Indices 1 2 3 4 5 6 
#
# 1 59.0677 13.5305 -1.4152 0.0000 0.0000 0.0000
# 2 13.5305 59.0677 -1.4152 0.0000 0.0000 0.0000
# 3 -1.4152 -1.4152 72.9612 0.0000 0.0000 0.0000
# 4 0.0000 0.0000 0.0000 25.6536 0.0000 0.0000
# 5 0.0000 0.0000 0.0000 0.0000 25.6536 0.0000
# 6 0.0000 0.0000 0.0000 0.0000 0.0000 22.7686
#
#
#
# Elastic Compliance Matrix: (Units=1/GPa)
#
#
# Indices 1 2 3 4 5 6 
#
# 1 0.017872 -0.004088 0.000267 0.000000 0.000000 0.000000
# 2 -0.004088 0.017872 0.000267 0.000000 0.000000 0.000000
# 3 0.000267 0.000267 0.013716 0.000000 0.000000 0.000000
# 4 0.000000 0.000000 0.000000 0.038981 0.000000 0.000000
# 5 0.000000 0.000000 0.000000 0.000000 0.038981 0.000000
# 6 0.000000 0.000000 0.000000 0.000000 0.000000 0.043920
#
#
# Mechanical properties :
#
#
# Convention : Reuss Voigt Hill
#
# Bulk Modulus (GPa) = 23.60967 23.61076 23.61022
# Shear Modulus (GPa) = 25.96498 26.84163 26.40330
#
# Velocity S-wave (km/s) = 3.26422 3.31886 3.29165
# Velocity P-wave (km/s) = 4.88829 4.93715 4.91278
#
# Compressibility (1/GPa) = 0.04235553
#
# Stress axis : x y z
#
# Youngs Moduli (GPa) = 55.95202 55.95202 72.90607
#
# Poissons Ratio (x) = 0.22871 -0.01949
# Poissons Ratio (y) = 0.22871 -0.01949
# Poissons Ratio (z) = -0.01496 -0.01496
#
# Static dielectric constant tensor:
#      x y z
#    x 2.002970 0.000000 0.000000 
#    y 0.000000 2.002970 0.000000 
#    z 0.000000 0.000000 2.020710 
# 
# From -- ./inp_files/6752.got.cif
#   From: 2010.05.17/outbox.cif.g08.bks.cpg/sg178_4_cif.got.tgz:6752.got - 2010.05.20 11:30:59.
