data_PCOD9582384
_publ_section_title
;
Structure prediction by ZEFSAII (Michael W. Deem and Ramdas Pophale) SiO2 
 PCOD9582384
Probable space group: P 61 2 2
;
_chemical_formula_sum "Si O2"
_cell_formula_units_Z 48
_cell_length_a 10.378166
_cell_length_b 10.378166
_cell_length_c 26.402828
_cell_angle_alpha 90.000000
_cell_angle_beta 90.000000
_cell_angle_gamma 120.000000
_cell_volume 2462.761208
_symmetry_space_group_name_H-M "P 61 2 2"
_symmetry_group_IT_number 178
_symmetry_cell_setting 'hexagonal'
loop_
_space_group_symop_operation_xyz
x,y,z
x-y,x,1/6+z
-y,x-y,1/3+z
-x,-y,1/2+z
-x+y,-x,2/3+z
y,-x+y,5/6+z
x-y,-y,-z
-x,-x+y,2/3-z
y,x,1/3-z
-y,-x,5/6-z
-x+y,y,1/2-z
x,x-y,1/6-z
loop_
_atom_site_type_symbol
_atom_site_label
_atom_site_fract_x
_atom_site_fract_y
_atom_site_fract_z
Si Si1 0.463212 0.536789 0.416667
Si Si2 0.245884 0.683306 0.984933
Si Si3 0.012514 0.616952 0.246249
Si Si4 0.840458 0.263090 0.020881
Si Si5 0.425027 0.000000 0.000000
O O1 0.356270 0.531499 0.373191
O O2 0.620889 0.591884 0.390238
O O3 0.284905 0.854169 0.977160
O O4 0.130944 0.548094 0.949538
O O5 0.402017 0.685519 0.981205
O O6 0.107115 0.760413 0.282148
O O7 0.938487 0.485650 0.287824
O O8 0.908779 0.625118 0.202435
#
# Coordination Sequence:
#
# PCOD9582384 Si02
#       5
#     6  12  12  12   6
#     4  10  18  30  50  74 108 136 170 218 272 314
#     4  10  19  32  51  78 108 135 176 218 265 327
#     4  10  20  31  53  75 115 137 178 222 271 328
#     4  10  18  34  49  78 109 142 172 221 269 327
#     4  10  18  32  48  76 104 140 170 224 270 320
#
# _framework density 19.490320000000001
#
# number of rings (size 3 to 8) (size 9 to 14) (size 15 to 20)
#    0.000    2.000    2.500    3.750    0.000    3.000 
#    0.000    0.000    0.000    0.000    0.000   21.000 
#    0.000    0.000    0.000    0.000    0.000    0.000 
#
# Total GULP energy -267307.537824 kJ/mol
# GULP energy per Si atom -5568.907038 kJ/mol
# Density = 1.944596 g / cm^3
# Si number density = 19.490320 Si / 1000 Ang^3
#
#
#
# Elastic Constant Matrix: (Units=GPa)
#
#
# Indices 1 2 3 4 5 6 
#
# 1 61.4202 13.4587 26.9845 0.0000 0.0000 0.0000
# 2 13.4587 61.4202 26.9845 0.0000 0.0000 0.0000
# 3 26.9845 26.9845 149.8824 0.0000 0.0000 0.0000
# 4 0.0000 0.0000 0.0000 37.4468 0.0000 0.0000
# 5 0.0000 0.0000 0.0000 0.0000 37.4468 0.0000
# 6 0.0000 0.0000 0.0000 0.0000 0.0000 23.9807
#
#
#
# Elastic Compliance Matrix: (Units=1/GPa)
#
#
# Indices 1 2 3 4 5 6 
#
# 1 0.018098 -0.002752 -0.002763 0.000000 0.000000 0.000000
# 2 -0.002752 0.018098 -0.002763 0.000000 0.000000 0.000000
# 3 -0.002763 -0.002763 0.007667 0.000000 0.000000 0.000000
# 4 0.000000 0.000000 0.000000 0.026705 0.000000 0.000000
# 5 0.000000 0.000000 0.000000 0.000000 0.026705 0.000000
# 6 0.000000 0.000000 0.000000 0.000000 0.000000 0.041700
#
#
# Mechanical properties :
#
#
# Convention : Reuss Voigt Hill
#
# Bulk Modulus (GPa) = 36.61977 45.28648 40.95313
# Shear Modulus (GPa) = 30.37108 33.46122 31.91615
#
# Velocity S-wave (km/s) = 3.95177 4.14794 4.05104
# Velocity P-wave (km/s) = 6.29694 6.79899 6.55278
#
# Compressibility (1/GPa) = 0.02730765
#
# Stress axis : x y z
#
# Youngs Moduli (GPa) = 55.25420 55.25420 130.43324
#
# Poissons Ratio (x) = 0.15205 0.36038
# Poissons Ratio (y) = 0.15205 0.36038
# Poissons Ratio (z) = 0.15266 0.15266
#
# Static dielectric constant tensor:
#      x y z
#    x 1.718840 0.000000 0.000000 
#    y 0.000000 1.718840 0.000000 
#    z 0.000000 0.000000 1.733710 
# 
# From -- ./inp_files/8651.got.cif
#   From: 2010.05.17/outbox.cif.g08.bks.cpg/sg178_5_cif.got.tgz:8651.got - 2010.05.20 11:30:59.
