data_PCOD9582530
_publ_section_title
;
Structure prediction by ZEFSAII (Michael W. Deem and Ramdas Pophale) SiO2 
 PCOD9582530
Probable space group: P 61 2 2
;
_chemical_formula_sum "Si O2"
_cell_formula_units_Z 78
_cell_length_a 18.389798
_cell_length_b 18.389798
_cell_length_c 15.309082
_cell_angle_alpha 90.000000
_cell_angle_beta 90.000000
_cell_angle_gamma 120.000000
_cell_volume 4483.670596
_symmetry_space_group_name_H-M "P 61 2 2"
_symmetry_group_IT_number 178
_symmetry_cell_setting 'hexagonal'
loop_
_space_group_symop_operation_xyz
x,y,z
x-y,x,1/6+z
-y,x-y,1/3+z
-x,-y,1/2+z
-x+y,-x,2/3+z
y,-x+y,5/6+z
x-y,-y,-z
-x,-x+y,2/3-z
y,x,1/3-z
-y,-x,5/6-z
-x+y,y,1/2-z
x,x-y,1/6-z
loop_
_atom_site_type_symbol
_atom_site_label
_atom_site_fract_x
_atom_site_fract_y
_atom_site_fract_z
Si Si1 0.724052 0.018840 0.187612
Si Si2 0.193104 0.636486 0.904381
Si Si3 0.047699 0.593623 0.033581
Si Si4 0.808096 0.663657 0.467039
Si Si5 0.286019 0.475948 0.660547
Si Si6 0.925896 0.333686 0.275205
Si Si7 0.000000 0.646749 0.333334
O O1 0.713822 0.939749 0.242313
O O2 0.666091 0.049295 0.238961
O O3 0.815420 0.098439 0.171979
O O4 0.689735 0.994328 0.089190
O O5 0.276006 0.723995 0.916667
O O6 0.218204 0.566777 0.879680
O O7 0.136057 0.647040 0.830597
O O8 0.136216 0.616024 0.990949
O O9 0.015780 0.507890 0.083334
O O10 0.981166 0.573085 0.957537
O O11 0.802669 0.588983 0.405470
O O12 0.747951 0.624123 0.549928
O O13 0.239500 0.479000 0.750000
O O14 0.349715 0.438649 0.668597
O O15 0.000000 0.334472 0.333334
#
# Coordination Sequence:
#
# PCOD9582530 Si02
#       7
#    12  12  12  12  12  12   6
#     4  10  20  33  60  81 121 141 189 239 290 343
#     4  11  24  37  54  77 119 159 195 237 287 342
#     4  10  20  35  55  82 105 155 198 239 290 328
#     4  10  20  38  56  87 114 149 186 242 286 347
#     4  11  23  36  57  83 115 150 193 236 294 337
#     4   9  21  37  58  82 113 150 196 237 282 336
#     4  10  20  36  56  82 112 142 184 246 284 346
#
# _framework density 17.396460999999999
#
# number of rings (size 3 to 8) (size 9 to 14) (size 15 to 20)
#    0.000    1.846    1.538    2.769    5.385    1.846 
#    0.000    0.769    0.000    0.000    0.000    0.000 
#   46.154    0.000    0.000    0.000    0.000    0.000 
#
# Total GULP energy -434705.435753 kJ/mol
# GULP energy per Si atom -5573.146612 kJ/mol
# Density = 1.735687 g / cm^3
# Si number density = 17.396461 Si / 1000 Ang^3
#
#
#
# Elastic Constant Matrix: (Units=GPa)
#
#
# Indices 1 2 3 4 5 6 
#
# 1 95.9924 26.2325 39.9600 0.0000 0.0000 0.0000
# 2 26.2325 95.9924 39.9600 0.0000 0.0000 0.0000
# 3 39.9600 39.9600 97.9597 0.0000 0.0000 0.0000
# 4 0.0000 0.0000 0.0000 23.6364 0.0000 0.0000
# 5 0.0000 0.0000 0.0000 0.0000 23.6364 0.0000
# 6 0.0000 0.0000 0.0000 0.0000 0.0000 34.8799
#
#
#
# Elastic Compliance Matrix: (Units=1/GPa)
#
#
# Indices 1 2 3 4 5 6 
#
# 1 0.012746 -0.001589 -0.004552 0.000000 0.000000 0.000000
# 2 -0.001589 0.012746 -0.004552 0.000000 0.000000 0.000000
# 3 -0.004552 -0.004552 0.013922 0.000000 0.000000 0.000000
# 4 0.000000 0.000000 0.000000 0.042308 0.000000 0.000000
# 5 0.000000 0.000000 0.000000 0.000000 0.042308 0.000000
# 6 0.000000 0.000000 0.000000 0.000000 0.000000 0.028670
#
#
# Mechanical properties :
#
#
# Convention : Reuss Voigt Hill
#
# Bulk Modulus (GPa) = 55.45972 55.80551 55.63261
# Shear Modulus (GPa) = 27.76348 28.68336 28.22342
#
# Velocity S-wave (km/s) = 3.99924 4.06495 4.03223
# Velocity P-wave (km/s) = 7.29893 7.36071 7.32988
#
# Compressibility (1/GPa) = 0.01803111
#
# Stress axis : x y z
#
# Youngs Moduli (GPa) = 78.45396 78.45396 71.83077
#
# Poissons Ratio (x) = 0.12463 0.32694
# Poissons Ratio (y) = 0.12463 0.32694
# Poissons Ratio (z) = 0.35708 0.35708
#
# Static dielectric constant tensor:
#      x y z
#    x 1.551310 0.000000 0.000000 
#    y 0.000000 1.551310 0.000000 
#    z 0.000000 0.000000 1.530820 
# 
# From -- ./inp_files/5979.got.cif
#   From: 2010.05.17/outbox.cif.g08.bks.cpg/sg178_3_cif.got.tgz:5979.got - 2010.05.20 11:30:59.
