data_PCOD9582814
_publ_section_title
;
Structure prediction by ZEFSAII (Michael W. Deem and Ramdas Pophale) SiO2 
 PCOD9582814
Probable space group: P 61 2 2
;
_chemical_formula_sum "Si O2"
_cell_formula_units_Z 42
_cell_length_a 12.457718
_cell_length_b 12.457718
_cell_length_c 13.395590
_cell_angle_alpha 90.000000
_cell_angle_beta 90.000000
_cell_angle_gamma 120.000000
_cell_volume 1800.401929
_symmetry_space_group_name_H-M "P 61 2 2"
_symmetry_group_IT_number 178
_symmetry_cell_setting 'hexagonal'
loop_
_space_group_symop_operation_xyz
x,y,z
x-y,x,1/6+z
-y,x-y,1/3+z
-x,-y,1/2+z
-x+y,-x,2/3+z
y,-x+y,5/6+z
x-y,-y,-z
-x,-x+y,2/3-z
y,x,1/3-z
-y,-x,5/6-z
-x+y,y,1/2-z
x,x-y,1/6-z
loop_
_atom_site_type_symbol
_atom_site_label
_atom_site_fract_x
_atom_site_fract_y
_atom_site_fract_z
Si Si1 0.695255 0.618981 0.538275
Si Si2 0.000000 0.840163 0.833334
Si Si3 0.157451 0.545181 0.281779
Si Si4 0.862517 0.638758 0.357227
O O1 0.806850 0.714943 0.609474
O O2 0.579383 0.643568 0.552125
O O3 0.639511 0.491764 0.600878
O O4 0.761824 0.641252 0.432271
O O5 0.939685 0.879369 0.750000
O O6 0.296664 0.593327 0.250000
O O7 0.116983 0.646727 0.266263
O O8 0.799647 0.599293 0.250000
O O9 0.000000 0.756380 0.333334
#
# Coordination Sequence:
#
# PCOD9582814 Si02
#       4
#    12   6  12  12
#     4  10  22  47  72  97 148 188 242 305 359 454
#     4  10  22  44  70  98 126 186 238 292 350 430
#     4  10  23  45  75 107 137 201 247 299 380 448
#     4  12  29  47  69 112 152 194 250 316 388 446
#
# _framework density 23.328125
#
# number of rings (size 3 to 8) (size 9 to 14) (size 15 to 20)
#    0.000    1.714    2.857    3.429   12.000    0.000 
#    2.571    0.000    0.000    0.000    0.000    0.000 
#    0.000    0.000    0.000    0.000    0.000    0.000 
#
# Total GULP energy -234183.316359 kJ/mol
# GULP energy per Si atom -5575.793247 kJ/mol
# Density = 2.327503 g / cm^3
# Si number density = 23.328125 Si / 1000 Ang^3
#
#
#
# Elastic Constant Matrix: (Units=GPa)
#
#
# Indices 1 2 3 4 5 6 
#
# 1 68.2850 12.2362 31.2389 0.0000 0.0000 0.0000
# 2 12.2362 68.2850 31.2389 0.0000 0.0000 0.0000
# 3 31.2389 31.2389 145.9906 0.0000 0.0000 0.0000
# 4 0.0000 0.0000 0.0000 16.5722 0.0000 0.0000
# 5 0.0000 0.0000 0.0000 0.0000 16.5722 0.0000
# 6 0.0000 0.0000 0.0000 0.0000 0.0000 28.0244
#
#
#
# Elastic Compliance Matrix: (Units=1/GPa)
#
#
# Indices 1 2 3 4 5 6 
#
# 1 0.016367 -0.001475 -0.003186 0.000000 0.000000 0.000000
# 2 -0.001475 0.016367 -0.003186 0.000000 0.000000 0.000000
# 3 -0.003186 -0.003186 0.008213 0.000000 0.000000 0.000000
# 4 0.000000 0.000000 0.000000 0.060342 0.000000 0.000000
# 5 0.000000 0.000000 0.000000 0.000000 0.060342 0.000000
# 6 0.000000 0.000000 0.000000 0.000000 0.000000 0.035683
#
#
# Mechanical properties :
#
#
# Convention : Reuss Voigt Hill
#
# Bulk Modulus (GPa) = 39.60301 47.99875 43.80088
# Shear Modulus (GPa) = 22.58081 26.09018 24.33549
#
# Velocity S-wave (km/s) = 3.11459 3.34788 3.23334
# Velocity P-wave (km/s) = 5.47244 5.96360 5.72329
#
# Compressibility (1/GPa) = 0.02525061
#
# Stress axis : x y z
#
# Youngs Moduli (GPa) = 61.10017 61.10017 121.75173
#
# Poissons Ratio (x) = 0.09012 0.38796
# Poissons Ratio (y) = 0.09012 0.38796
# Poissons Ratio (z) = 0.19469 0.19469
#
# Static dielectric constant tensor:
#      x y z
#    x 2.041430 0.000000 0.000000 
#    y 0.000000 2.041430 0.000000 
#    z 0.000000 0.000000 1.916250 
# 
# From -- ./inp_files/3993.got.cif
#   From: 2010.05.17/outbox.cif.g08.bks.cpg/sg178_2_cif.got.tgz:3993.got - 2010.05.20 11:30:59.
