data_PCOD9582815
_publ_section_title
;
Structure prediction by ZEFSAII (Michael W. Deem and Ramdas Pophale) SiO2 
 PCOD9582815
Probable space group: P 61 2 2
;
_chemical_formula_sum "Si O2"
_cell_formula_units_Z 48
_cell_length_a 17.777828
_cell_length_b 17.777828
_cell_length_c 8.045667
_cell_angle_alpha 90.000000
_cell_angle_beta 90.000000
_cell_angle_gamma 120.000000
_cell_volume 2202.166165
_symmetry_space_group_name_H-M "P 61 2 2"
_symmetry_group_IT_number 178
_symmetry_cell_setting 'hexagonal'
loop_
_space_group_symop_operation_xyz
x,y,z
x-y,x,1/6+z
-y,x-y,1/3+z
-x,-y,1/2+z
-x+y,-x,2/3+z
y,-x+y,5/6+z
x-y,-y,-z
-x,-x+y,2/3-z
y,x,1/3-z
-y,-x,5/6-z
-x+y,y,1/2-z
x,x-y,1/6-z
loop_
_atom_site_type_symbol
_atom_site_label
_atom_site_fract_x
_atom_site_fract_y
_atom_site_fract_z
Si Si1 0.160977 0.000000 0.500000
Si Si2 0.128422 0.343539 0.925528
Si Si3 0.557239 0.692169 0.772666
Si Si4 0.561611 0.945983 0.736604
Si Si5 0.367826 0.632175 0.916667
O O1 0.193350 0.948211 0.618731
O O2 0.073493 0.926508 0.416667
O O3 0.173662 0.347323 0.750000
O O4 0.206676 0.374778 0.052611
O O5 0.091457 0.409317 0.943584
O O6 0.599402 0.640111 0.858228
O O7 0.540520 0.659501 0.584346
O O8 0.468708 0.671438 0.865536
O O9 0.477600 0.955199 0.750000
O O10 0.319859 0.639718 0.750000
#
# Coordination Sequence:
#
# PCOD9582815 Si02
#       5
#     6  12  12  12   6
#     4  10  22  44  72 106 138 184 236 308 388 456
#     4  11  24  42  72 101 139 183 244 300 367 444
#     4  11  26  45  66 104 140 188 248 297 367 430
#     4  11  25  44  70  99 142 191 243 304 357 438
#     4  12  30  48  70 104 150 198 252 310 368 430
#
# _framework density 21.796720000000001
#
# number of rings (size 3 to 8) (size 9 to 14) (size 15 to 20)
#    0.000    1.000    1.250    4.500   10.500    2.000 
#    0.000    5.000    0.000    0.000    0.000    0.000 
#    0.000    0.000    0.000    0.000    0.000    0.000 
#
# Total GULP energy -268464.623373 kJ/mol
# GULP energy per Si atom -5593.012987 kJ/mol
# Density = 2.174711 g / cm^3
# Si number density = 21.796720 Si / 1000 Ang^3
#
#
#
# Elastic Constant Matrix: (Units=GPa)
#
#
# Indices 1 2 3 4 5 6 
#
# 1 133.3333 65.8511 24.3461 0.0000 0.0000 0.0000
# 2 65.8511 133.3333 24.3461 0.0000 0.0000 0.0000
# 3 24.3461 24.3461 78.4454 0.0000 0.0000 0.0000
# 4 0.0000 0.0000 0.0000 22.5500 0.0000 0.0000
# 5 0.0000 0.0000 0.0000 0.0000 22.5500 0.0000
# 6 0.0000 0.0000 0.0000 0.0000 0.0000 33.7411
#
#
#
# Elastic Compliance Matrix: (Units=1/GPa)
#
#
# Indices 1 2 3 4 5 6 
#
# 1 0.010126 -0.004693 -0.001686 0.000000 0.000000 0.000000
# 2 -0.004693 0.010126 -0.001686 0.000000 0.000000 0.000000
# 3 -0.001686 -0.001686 0.013794 0.000000 0.000000 0.000000
# 4 0.000000 0.000000 0.000000 0.044346 0.000000 0.000000
# 5 0.000000 0.000000 0.000000 0.000000 0.044346 0.000000
# 6 0.000000 0.000000 0.000000 0.000000 0.000000 0.029637
#
#
# Mechanical properties :
#
#
# Convention : Reuss Voigt Hill
#
# Bulk Modulus (GPa) = 55.81812 63.79982 59.80897
# Shear Modulus (GPa) = 28.65705 31.13945 29.89825
#
# Velocity S-wave (km/s) = 3.62987 3.78382 3.70765
# Velocity P-wave (km/s) = 6.57511 6.95871 6.76963
#
# Compressibility (1/GPa) = 0.01791533
#
# Stress axis : x y z
#
# Youngs Moduli (GPa) = 98.75875 98.75875 72.49387
#
# Poissons Ratio (x) = 0.46348 0.12223
# Poissons Ratio (y) = 0.46348 0.12223
# Poissons Ratio (z) = 0.16651 0.16651
#
# Static dielectric constant tensor:
#      x y z
#    x 1.795400 0.000000 0.000000 
#    y 0.000000 1.795400 0.000000 
#    z 0.000000 0.000000 1.806840 
# 
# From -- ./inp_files/2677.got.cif
#   From: 2010.05.17/outbox.cif.g08.bks.cpg/sg178_2_cif.got.tgz:2677.got - 2010.05.20 11:30:59.
