data_PCOD9582035
_publ_section_title
;
Structure prediction by ZEFSAII (Michael W. Deem and Ramdas Pophale) SiO2 
 PCOD9582035
Probable space group: P 63/M
;
_chemical_formula_sum "Si O2"
_cell_formula_units_Z 72
_cell_length_a 16.045446
_cell_length_b 16.045446
_cell_length_c 18.044972
_cell_angle_alpha 90.000000
_cell_angle_beta 90.000000
_cell_angle_gamma 120.000000
_cell_volume 4023.374238
_symmetry_space_group_name_H-M "P 63/M"
_symmetry_group_IT_number 176
_symmetry_cell_setting 'hexagonal'
loop_
_space_group_symop_operation_xyz
x,y,z
x-y,x,1/2+z
-y,x-y,z
-x,-y,1/2+z
-x+y,-x,z
y,-x+y,1/2+z
-x,-y,-z
-x+y,-x,1/2-z
y,-x+y,-z
x,y,1/2-z
x-y,x,-z
-y,x-y,1/2-z
loop_
_atom_site_type_symbol
_atom_site_label
_atom_site_fract_x
_atom_site_fract_y
_atom_site_fract_z
Si Si1 0.192074 0.999769 0.414705
Si Si2 0.100908 0.708011 0.837819
Si Si3 0.100908 0.392898 0.837819
Si Si4 0.499353 0.500647 0.588283
Si Si5 0.604401 0.395599 0.661484
Si Si6 0.000231 0.807926 0.085295
O O1 0.223852 1.000000 0.500000
O O2 0.104413 0.895587 0.396793
O O3 0.281401 0.035841 0.360282
O O4 0.158528 0.079264 0.413011
O O5 0.096694 0.690935 0.750000
O O6 0.210438 0.789562 0.857221
O O7 0.058533 0.608992 0.881184
O O8 0.096694 0.405759 0.750000
O O9 0.058533 0.449541 0.881184
O O10 0.035841 0.281401 0.860282
O O11 0.500000 0.500000 0.500000
O O12 0.554217 0.445783 0.619167
O O13 0.562579 0.281290 0.645455
O O14 0.595303 0.404697 0.750000
#
# Coordination Sequence:
#
# PCOD9582035 Si02
#       6
#    12  12  12  12  12  12
#     4   9  17  31  53  82 116 151 186 226 273 327
#     4  10  22  39  55  77 112 149 191 239 279 333
#     4  10  22  39  55  77 112 149 191 239 279 333
#     4  12  24  38  62  88 114 150 188 238 299 352
#     4   8  18  38  62  88 118 148 186 244 300 350
#     4   9  17  31  53  82 116 151 186 226 273 327
#
# _framework density 17.895427000000002
#
# number of rings (size 3 to 8) (size 9 to 14) (size 15 to 20)
#    0.333    2.000    0.000    2.833    0.000    4.667 
#    1.000    0.000    0.000    2.000    0.000    0.000 
#    0.000    0.000    0.000    0.000    0.000    0.000 
#
# Total GULP energy -401500.639169 kJ/mol
# GULP energy per Si atom -5576.397766 kJ/mol
# Density = 1.785470 g / cm^3
# Si number density = 17.895427 Si / 1000 Ang^3
#
#
#
# Elastic Constant Matrix: (Units=GPa)
#
#
# Indices 1 2 3 4 5 6 
#
# 1 130.8581 58.9273 72.6775 0.0000 0.0000 0.0000
# 2 58.9273 130.8581 72.6775 0.0000 0.0000 0.0000
# 3 72.6775 72.6775 103.8516 0.0000 0.0000 0.0000
# 4 0.0000 0.0000 0.0000 19.2782 0.0000 0.0000
# 5 0.0000 0.0000 0.0000 0.0000 19.2782 0.0000
# 6 0.0000 0.0000 0.0000 0.0000 0.0000 35.9654
#
#
#
# Elastic Compliance Matrix: (Units=1/GPa)
#
#
# Indices 1 2 3 4 5 6 
#
# 1 0.012629 -0.001273 -0.007947 0.000000 0.000000 0.000000
# 2 -0.001273 0.012629 -0.007947 0.000000 0.000000 0.000000
# 3 -0.007947 -0.007947 0.020752 0.000000 0.000000 0.000000
# 4 0.000000 0.000000 0.000000 0.051872 0.000000 0.000000
# 5 0.000000 0.000000 0.000000 0.000000 0.051872 0.000000
# 6 0.000000 0.000000 0.000000 0.000000 0.000000 0.027804
#
#
# Mechanical properties :
#
#
# Convention : Reuss Voigt Hill
#
# Bulk Modulus (GPa) = 85.64902 86.01473 85.83188
# Shear Modulus (GPa) = 23.17129 25.65672 24.41401
#
# Velocity S-wave (km/s) = 3.60226 3.79053 3.69760
# Velocity P-wave (km/s) = 8.07876 8.20531 8.14228
#
# Compressibility (1/GPa) = 0.01167556
#
# Stress axis : x y z
#
# Youngs Moduli (GPa) = 79.18354 79.18354 48.18847
#
# Poissons Ratio (x) = 0.10083 0.38295
# Poissons Ratio (y) = 0.10083 0.38295
# Poissons Ratio (z) = 0.62926 0.62926
#
# Static dielectric constant tensor:
#      x y z
#    x 1.604780 0.000000 0.000000 
#    y 0.000000 1.604780 0.000000 
#    z 0.000000 0.000000 1.601030 
# 
# From -- ./inp_files/3371.got.cif
#   From: 2010.05.17/outbox.cif.g08.bks.cpg/sg176_2_cif.got.tgz:3371.got - 2010.06.03 11:36:45.
