data_PCOD9582976
_publ_section_title
;
Structure prediction by ZEFSAII (Michael W. Deem and Ramdas Pophale) SiO2 
 PCOD9582976
Probable space group: P 61 2 2
;
_chemical_formula_sum "Si O2"
_cell_formula_units_Z 60
_cell_length_a 14.705417
_cell_length_b 14.705417
_cell_length_c 15.346941
_cell_angle_alpha 90.000000
_cell_angle_beta 90.000000
_cell_angle_gamma 120.000000
_cell_volume 2874.134870
_symmetry_space_group_name_H-M "P 61 2 2"
_symmetry_group_IT_number 178
_symmetry_cell_setting 'hexagonal'
loop_
_space_group_symop_operation_xyz
x,y,z
x-y,x,1/6+z
-y,x-y,1/3+z
-x,-y,1/2+z
-x+y,-x,2/3+z
y,-x+y,5/6+z
x-y,-y,-z
-x,-x+y,2/3-z
y,x,1/3-z
-y,-x,5/6-z
-x+y,y,1/2-z
x,x-y,1/6-z
loop_
_atom_site_type_symbol
_atom_site_label
_atom_site_fract_x
_atom_site_fract_y
_atom_site_fract_z
Si Si1 0.124098 0.541799 0.829200
Si Si2 0.364971 0.130836 0.410074
Si Si3 0.000000 0.859921 0.333334
Si Si4 0.546743 0.891242 0.733642
Si Si5 0.510198 0.634924 0.846762
Si Si6 0.493644 0.246822 0.083334
O O1 0.134387 0.440282 0.845400
O O2 0.161482 0.606383 0.740997
O O3 0.192506 0.630092 0.898785
O O4 0.000000 0.499330 0.833334
O O5 0.389029 0.078346 0.325482
O O6 0.411635 0.246535 0.371939
O O7 0.248476 0.079944 0.448891
O O8 0.941853 0.883705 0.250000
O O9 0.421801 0.843602 0.750000
O O10 0.568968 0.816655 0.670005
O O11 0.580162 0.999193 0.683869
O O12 0.419828 0.580173 0.916667
#
# Coordination Sequence:
#
# PCOD9582976 Si02
#       6
#    12  12   6  12  12   6
#     4  12  23  42  65  99 148 190 240 295 361 460
#     4  12  25  43  74 110 146 199 252 309 389 464
#     4  12  30  56  90 114 148 198 278 360 428 480
#     4  11  22  41  60  96 146 190 235 294 351 437
#     4  11  25  40  64  98 145 186 235 293 362 445
#     4  12  22  38  68  92 140 210 238 290 364 438
#
# _framework density 20.875847
#
# number of rings (size 3 to 8) (size 9 to 14) (size 15 to 20)
#    0.000    0.400    7.000    2.400    4.200    0.000 
#    0.000    0.000   11.000    0.000    0.000    0.000 
#    0.000    0.000    0.000    0.000    0.000    0.000 
#
# Total GULP energy -334486.870100 kJ/mol
# GULP energy per Si atom -5574.781168 kJ/mol
# Density = 2.082833 g / cm^3
# Si number density = 20.875847 Si / 1000 Ang^3
#
#
#
# Elastic Constant Matrix: (Units=GPa)
#
#
# Indices 1 2 3 4 5 6 
#
# 1 71.3475 30.4783 45.5907 0.0000 0.0000 0.0000
# 2 30.4783 71.3475 45.5907 0.0000 0.0000 0.0000
# 3 45.5907 45.5907 140.6693 0.0000 0.0000 0.0000
# 4 0.0000 0.0000 0.0000 33.4211 0.0000 0.0000
# 5 0.0000 0.0000 0.0000 0.0000 33.4211 0.0000
# 6 0.0000 0.0000 0.0000 0.0000 0.0000 20.4346
#
#
#
# Elastic Compliance Matrix: (Units=1/GPa)
#
#
# Indices 1 2 3 4 5 6 
#
# 1 0.019152 -0.005316 -0.004484 0.000000 0.000000 0.000000
# 2 -0.005316 0.019152 -0.004484 0.000000 0.000000 0.000000
# 3 -0.004484 -0.004484 0.010016 0.000000 0.000000 0.000000
# 4 0.000000 0.000000 0.000000 0.029921 0.000000 0.000000
# 5 0.000000 0.000000 0.000000 0.000000 0.029921 0.000000
# 6 0.000000 0.000000 0.000000 0.000000 0.000000 0.048937
#
#
# Mechanical properties :
#
#
# Convention : Reuss Voigt Hill
#
# Bulk Modulus (GPa) = 50.63075 58.52042 54.57558
# Shear Modulus (GPa) = 26.00753 28.23567 27.12160
#
# Velocity S-wave (km/s) = 3.53345 3.68170 3.60833
# Velocity P-wave (km/s) = 6.39945 6.79460 6.59998
#
# Compressibility (1/GPa) = 0.01975084
#
# Stress axis : x y z
#
# Youngs Moduli (GPa) = 52.21312 52.21312 99.84435
#
# Poissons Ratio (x) = 0.27757 0.44773
# Poissons Ratio (y) = 0.27757 0.44773
# Poissons Ratio (z) = 0.23414 0.23414
#
# Static dielectric constant tensor:
#      x y z
#    x 1.776540 0.000000 0.000000 
#    y 0.000000 1.776540 0.000000 
#    z 0.000000 0.000000 2.265890 
# 
# From -- ./inp_files/5748.got.cif
#   From: 2010.05.17/outbox.cif.g08.bks.cpg/sg178_3_cif.got.tgz:5748.got - 2010.05.20 11:30:59.
