data_PCOD9582123
_publ_section_title
;
Structure prediction by ZEFSAII (Michael W. Deem and Ramdas Pophale) SiO2 
 PCOD9582123
Probable space group: P 63/M
;
_chemical_formula_sum "Si O2"
_cell_formula_units_Z 40
_cell_length_a 16.708253
_cell_length_b 16.708253
_cell_length_c 8.506858
_cell_angle_alpha 90.000000
_cell_angle_beta 90.000000
_cell_angle_gamma 120.000000
_cell_volume 2056.657155
_symmetry_space_group_name_H-M "P 63/M"
_symmetry_group_IT_number 176
_symmetry_cell_setting 'hexagonal'
loop_
_space_group_symop_operation_xyz
x,y,z
x-y,x,1/2+z
-y,x-y,z
-x,-y,1/2+z
-x+y,-x,z
y,-x+y,1/2+z
-x,-y,-z
-x+y,-x,1/2-z
y,-x+y,-z
x,y,1/2-z
x-y,x,-z
-y,x-y,1/2-z
loop_
_atom_site_type_symbol
_atom_site_label
_atom_site_fract_x
_atom_site_fract_y
_atom_site_fract_z
Si Si1 0.560584 0.136482 0.563654
Si Si2 0.333335 0.666668 0.938385
Si Si3 0.066920 0.701406 0.937588
Si Si4 0.609909 0.736150 0.562648
O O1 0.549092 0.126310 0.750000
O O2 0.585978 0.238217 0.505618
O O3 0.462405 0.072044 0.482188
O O4 0.650110 0.130943 0.512600
O O5 0.333334 0.666668 0.750000
O O6 0.058998 0.704186 0.750000
O O7 0.163216 0.791289 0.988146
O O8 0.975763 0.691529 0.017882
O O9 0.595366 0.730257 0.750000
#
# Coordination Sequence:
#
# PCOD9582123 Si02
#       4
#    12   4  12  12
#     4  12  23  37  60  88 121 162 204 241 289 349
#     4  12  22  35  55  84 124 164 202 243 292 341
#     4  11  24  41  62  87 120 157 197 247 298 351
#     4  11  24  41  62  87 120 157 197 247 298 351
#
# _framework density 19.449037000000001
#
# number of rings (size 3 to 8) (size 9 to 14) (size 15 to 20)
#    0.000    0.600    3.000    6.300    0.000    3.600 
#    0.000    0.000    0.000    0.600    0.000    0.000 
#    0.000    0.000    0.000    0.000    0.000    0.000 
#
# Total GULP energy -223647.103172 kJ/mol
# GULP energy per Si atom -5591.177579 kJ/mol
# Density = 1.940477 g / cm^3
# Si number density = 19.449037 Si / 1000 Ang^3
#
#
#
# Elastic Constant Matrix: (Units=GPa)
#
#
# Indices 1 2 3 4 5 6 
#
# 1 94.8735 36.0903 -2.5903 0.0000 0.0000 0.0001
# 2 36.0903 94.8743 -2.5906 0.0000 0.0000 0.0007
# 3 -2.5903 -2.5906 46.9620 0.0000 0.0000 0.0002
# 4 0.0000 0.0000 0.0000 29.5612 0.0001 0.0000
# 5 0.0000 0.0000 0.0000 0.0001 29.5609 0.0000
# 6 0.0001 0.0007 0.0002 0.0000 0.0000 29.3918
#
#
#
# Elastic Compliance Matrix: (Units=1/GPa)
#
#
# Indices 1 2 3 4 5 6 
#
# 1 0.012332 -0.004680 0.000422 0.000000 0.000000 0.000000
# 2 -0.004680 0.012332 0.000422 0.000000 0.000000 0.000000
# 3 0.000422 0.000422 0.021340 0.000000 0.000000 0.000000
# 4 0.000000 0.000000 0.000000 0.033828 0.000000 0.000000
# 5 0.000000 0.000000 0.000000 0.000000 0.033828 0.000000
# 6 0.000000 0.000000 0.000000 0.000000 0.000000 0.034023
#
#
# Mechanical properties :
#
#
# Convention : Reuss Voigt Hill
#
# Bulk Modulus (GPa) = 26.08682 33.16986 29.62834
# Shear Modulus (GPa) = 29.73844 31.42281 30.58062
#
# Velocity S-wave (km/s) = 3.91454 4.02387 3.96958
# Velocity P-wave (km/s) = 5.82010 6.21937 6.02304
#
# Compressibility (1/GPa) = 0.03833353
#
# Stress axis : x y z
#
# Youngs Moduli (GPa) = 81.08970 81.09043 46.85957
#
# Poissons Ratio (x) = 0.37947 -0.01978
# Poissons Ratio (y) = 0.37947 -0.01978
# Poissons Ratio (z) = -0.03423 -0.03423
#
# Static dielectric constant tensor:
#      x y z
#    x 1.681780 0.000000 0.000000 
#    y 0.000000 1.681780 0.000000 
#    z 0.000000 0.000000 1.645390 
# 
# From -- ./inp_files/515.got.cif
#   From: 2010.05.17/outbox.cif.g08.bks.cpg/sg176_1_cif.got.tgz:515.got - 2010.06.03 11:36:45.
