data_PCOD9582836
_publ_section_title
;
Structure prediction by ZEFSAII (Michael W. Deem and Ramdas Pophale) SiO2 
 PCOD9582836
Probable space group: P 61 2 2
;
_chemical_formula_sum "Si O2"
_cell_formula_units_Z 78
_cell_length_a 23.938102
_cell_length_b 23.938102
_cell_length_c 8.689431
_cell_angle_alpha 90.000000
_cell_angle_beta 90.000000
_cell_angle_gamma 120.000000
_cell_volume 4312.224841
_symmetry_space_group_name_H-M "P 61 2 2"
_symmetry_group_IT_number 178
_symmetry_cell_setting 'hexagonal'
loop_
_space_group_symop_operation_xyz
x,y,z
x-y,x,1/6+z
-y,x-y,1/3+z
-x,-y,1/2+z
-x+y,-x,2/3+z
y,-x+y,5/6+z
x-y,-y,-z
-x,-x+y,2/3-z
y,x,1/3-z
-y,-x,5/6-z
-x+y,y,1/2-z
x,x-y,1/6-z
loop_
_atom_site_type_symbol
_atom_site_label
_atom_site_fract_x
_atom_site_fract_y
_atom_site_fract_z
Si Si1 0.512095 0.565842 0.778184
Si Si2 0.607310 0.900869 0.864174
Si Si3 0.229593 0.402124 0.983044
Si Si4 0.742579 0.485157 0.250000
Si Si5 0.482548 0.321122 0.089598
Si Si6 0.624074 0.250733 0.075736
Si Si7 0.042895 0.671802 0.530261
O O1 0.512711 0.512711 0.666667
O O2 0.505755 0.612841 0.661430
O O3 0.579314 0.611984 0.865054
O O4 0.462084 0.537917 0.916667
O O5 0.628501 0.846708 0.873666
O O6 0.545532 0.863229 0.749117
O O7 0.661648 0.971276 0.805812
O O8 0.596322 0.924552 0.031224
O O9 0.258534 0.467145 0.878106
O O10 0.261133 0.359865 0.931607
O O11 0.260318 0.428157 0.150118
O O12 0.765801 0.437544 0.318969
O O13 0.550774 0.328078 0.141609
O O14 0.612795 0.225590 0.250000
O O15 0.656537 0.328269 0.083334
#
# Coordination Sequence:
#
# PCOD9582836 Si02
#       7
#    12  12  12   6  12  12  12
#     4  11  25  40  55  81 110 143 184 238 293 348
#     4  11  20  41  62  85 112 147 187 231 287 352
#     4  11  23  40  61  86 111 147 187 232 289 347
#     4  12  24  40  58  76 108 138 186 242 290 368
#     4  11  25  39  61  83 110 143 192 237 293 354
#     4  12  25  39  55  75 100 136 179 234 297 354
#     4  10  23  39  61  82 116 145 184 237 282 347
#
# _framework density 18.08811
#
# number of rings (size 3 to 8) (size 9 to 14) (size 15 to 20)
#    0.000    0.923    3.846    3.231    6.462    0.615 
#    0.000    0.000    0.000    0.000    0.000    0.000 
#    0.000    0.000    0.000    0.000    0.000   36.923 
#
# Total GULP energy -434400.787663 kJ/mol
# GULP energy per Si atom -5569.240867 kJ/mol
# Density = 1.804694 g / cm^3
# Si number density = 18.088110 Si / 1000 Ang^3
#
#
#
# Elastic Constant Matrix: (Units=GPa)
#
#
# Indices 1 2 3 4 5 6 
#
# 1 72.6613 42.1865 7.2094 0.0000 0.0000 0.0000
# 2 42.1865 72.6613 7.2094 0.0000 0.0000 0.0000
# 3 7.2094 7.2094 43.3934 0.0000 0.0000 0.0000
# 4 0.0000 0.0000 0.0000 24.3609 0.0000 0.0000
# 5 0.0000 0.0000 0.0000 0.0000 24.3609 0.0000
# 6 0.0000 0.0000 0.0000 0.0000 0.0000 15.2374
#
#
#
# Elastic Compliance Matrix: (Units=1/GPa)
#
#
# Indices 1 2 3 4 5 6 
#
# 1 0.020853 -0.011961 -0.001477 0.000000 0.000000 0.000000
# 2 -0.011961 0.020853 -0.001477 0.000000 0.000000 0.000000
# 3 -0.001477 -0.001477 0.023536 0.000000 0.000000 0.000000
# 4 0.000000 0.000000 0.000000 0.041049 0.000000 0.000000
# 5 0.000000 0.000000 0.000000 0.000000 0.041049 0.000000
# 6 0.000000 0.000000 0.000000 0.000000 0.000000 0.065628
#
#
# Mechanical properties :
#
#
# Convention : Reuss Voigt Hill
#
# Bulk Modulus (GPa) = 28.23939 33.54738 30.89338
# Shear Modulus (GPa) = 19.63835 21.59924 20.61879
#
# Velocity S-wave (km/s) = 3.29858 3.45934 3.37992
# Velocity P-wave (km/s) = 5.49122 5.87733 5.68755
#
# Compressibility (1/GPa) = 0.03541153
#
# Stress axis : x y z
#
# Youngs Moduli (GPa) = 47.95403 47.95403 42.48830
#
# Poissons Ratio (x) = 0.57356 0.06277
# Poissons Ratio (y) = 0.57356 0.06277
# Poissons Ratio (z) = 0.07085 0.07085
#
# Static dielectric constant tensor:
#      x y z
#    x 1.634980 0.000000 0.000000 
#    y 0.000000 1.634980 0.000000 
#    z 0.000000 0.000000 1.758070 
# 
# From -- ./inp_files/3534.got.cif
#   From: 2010.05.17/outbox.cif.g08.bks.cpg/sg178_2_cif.got.tgz:3534.got - 2010.05.20 11:30:59.
