data_PCOD9582949
_publ_section_title
;
Structure prediction by ZEFSAII (Michael W. Deem and Ramdas Pophale) SiO2 
 PCOD9582949
Probable space group: P 61 2 2
;
_chemical_formula_sum "Si O2"
_cell_formula_units_Z 60
_cell_length_a 18.168537
_cell_length_b 18.168537
_cell_length_c 11.536194
_cell_angle_alpha 90.000000
_cell_angle_beta 90.000000
_cell_angle_gamma 120.000000
_cell_volume 3297.866703
_symmetry_space_group_name_H-M "P 61 2 2"
_symmetry_group_IT_number 178
_symmetry_cell_setting 'hexagonal'
loop_
_space_group_symop_operation_xyz
x,y,z
x-y,x,1/6+z
-y,x-y,1/3+z
-x,-y,1/2+z
-x+y,-x,2/3+z
y,-x+y,5/6+z
x-y,-y,-z
-x,-x+y,2/3-z
y,x,1/3-z
-y,-x,5/6-z
-x+y,y,1/2-z
x,x-y,1/6-z
loop_
_atom_site_type_symbol
_atom_site_label
_atom_site_fract_x
_atom_site_fract_y
_atom_site_fract_z
Si Si1 0.297867 0.413423 0.052202
Si Si2 0.869772 0.869772 0.666667
Si Si3 0.000000 0.138472 0.833334
Si Si4 0.752225 0.459722 0.616754
Si Si5 0.729086 0.848222 0.355501
Si Si6 0.688338 0.072687 0.341045
O O1 0.301639 0.503921 0.049979
O O2 0.209860 0.349928 0.988422
O O3 0.368830 0.391801 0.007361
O O4 0.288811 0.388978 0.190379
O O5 0.893368 0.946684 0.583334
O O6 0.857351 0.789926 0.594358
O O7 0.940383 0.157864 0.750048
O O8 0.060342 0.120684 0.750000
O O9 0.727440 0.454880 0.750000
O O10 0.738082 0.369041 0.583334
O O11 0.852741 0.531301 0.613459
O O12 0.692870 0.767643 0.441849
#
# Coordination Sequence:
#
# PCOD9582949 Si02
#       6
#    12   6   6  12  12  12
#     4   9  16  31  56  81 100 124 166 214 257 299
#     4  12  22  29  40  58  86 121 164 212 252 289
#     4  12  26  35  40  56  90 137 178 214 260 311
#     4   9  18  32  54  81 109 137 166 207 257 308
#     4  11  21  32  47  67  92 126 169 217 261 300
#     4   9  17  32  56  81  99 125 169 217 258 297
#
# _framework density 18.193580000000001
#
# number of rings (size 3 to 8) (size 9 to 14) (size 15 to 20)
#    0.000    2.000    0.000    7.800    0.000    4.000 
#    0.000    1.000    0.000   28.800    0.000    0.000 
#    0.000    0.000    0.000    0.000    0.000    0.000 
#
# Total GULP energy -334559.603905 kJ/mol
# GULP energy per Si atom -5575.993398 kJ/mol
# Density = 1.815217 g / cm^3
# Si number density = 18.193580 Si / 1000 Ang^3
#
#
#
# Elastic Constant Matrix: (Units=GPa)
#
#
# Indices 1 2 3 4 5 6 
#
# 1 101.8264 45.0657 17.9520 0.0000 0.0000 0.0000
# 2 45.0657 101.8264 17.9520 0.0000 0.0000 0.0000
# 3 17.9520 17.9520 34.3620 0.0000 0.0000 0.0000
# 4 0.0000 0.0000 0.0000 16.5708 0.0000 0.0000
# 5 0.0000 0.0000 0.0000 0.0000 16.5708 0.0000
# 6 0.0000 0.0000 0.0000 0.0000 0.0000 28.3803
#
#
#
# Elastic Compliance Matrix: (Units=1/GPa)
#
#
# Indices 1 2 3 4 5 6 
#
# 1 0.012711 -0.004907 -0.004077 0.000000 0.000000 0.000000
# 2 -0.004907 0.012711 -0.004077 0.000000 0.000000 0.000000
# 3 -0.004077 -0.004077 0.033362 0.000000 0.000000 0.000000
# 4 0.000000 0.000000 0.000000 0.060347 0.000000 0.000000
# 5 0.000000 0.000000 0.000000 0.000000 0.060347 0.000000
# 6 0.000000 0.000000 0.000000 0.000000 0.000000 0.035236
#
#
# Mechanical properties :
#
#
# Convention : Reuss Voigt Hill
#
# Bulk Modulus (GPa) = 30.61688 44.43934 37.52811
# Shear Modulus (GPa) = 19.86299 22.77403 21.31851
#
# Velocity S-wave (km/s) = 3.30776 3.54186 3.42681
# Velocity P-wave (km/s) = 5.60833 6.41913 6.02738
#
# Compressibility (1/GPa) = 0.03266172
#
# Stress axis : x y z
#
# Youngs Moduli (GPa) = 78.67160 78.67160 29.97406
#
# Poissons Ratio (x) = 0.38602 0.12221
# Poissons Ratio (y) = 0.38602 0.12221
# Poissons Ratio (z) = 0.32077 0.32077
#
# Static dielectric constant tensor:
#      x y z
#    x 1.659870 0.000000 0.000000 
#    y 0.000000 1.659870 0.000000 
#    z 0.000000 0.000000 1.612810 
# 
# From -- ./inp_files/4592.got.cif
#   From: 2010.05.17/outbox.cif.g08.bks.cpg/sg178_3_cif.got.tgz:4592.got - 2010.05.20 11:30:59.
