data_PCOD9582926
_publ_section_title
;
Structure prediction by ZEFSAII (Michael W. Deem and Ramdas Pophale) SiO2 
 PCOD9582926
Probable space group: P 61 2 2
;
_chemical_formula_sum "Si O2"
_cell_formula_units_Z 48
_cell_length_a 10.806290
_cell_length_b 10.806290
_cell_length_c 18.981075
_cell_angle_alpha 90.000000
_cell_angle_beta 90.000000
_cell_angle_gamma 120.000000
_cell_volume 1919.573179
_symmetry_space_group_name_H-M "P 61 2 2"
_symmetry_group_IT_number 178
_symmetry_cell_setting 'hexagonal'
loop_
_space_group_symop_operation_xyz
x,y,z
x-y,x,1/6+z
-y,x-y,1/3+z
-x,-y,1/2+z
-x+y,-x,2/3+z
y,-x+y,5/6+z
x-y,-y,-z
-x,-x+y,2/3-z
y,x,1/3-z
-y,-x,5/6-z
-x+y,y,1/2-z
x,x-y,1/6-z
loop_
_atom_site_type_symbol
_atom_site_label
_atom_site_fract_x
_atom_site_fract_y
_atom_site_fract_z
Si Si1 0.409178 0.141855 0.361498
Si Si2 0.246550 0.946525 0.783732
Si Si3 0.618271 0.618271 0.166667
Si Si4 0.276917 0.693212 0.824851
Si Si5 0.007200 0.992801 0.416667
O O1 0.370252 0.049463 0.291008
O O2 0.349134 0.249050 0.349241
O O3 0.578656 0.233810 0.372272
O O4 0.330616 0.038855 0.427629
O O5 0.228237 0.811478 0.825713
O O6 0.097066 0.937543 0.767979
O O7 0.463581 0.603358 0.157646
O O8 0.349169 0.698338 0.750000
O O9 0.000000 0.932233 0.333334
#
# Coordination Sequence:
#
# PCOD9582926 Si02
#       5
#    12  12   6  12   6
#     4  11  27  46  75 108 151 199 252 323 393 469
#     4  11  26  49  77 107 157 199 253 329 389 471
#     4  12  28  42  78 106 144 194 262 310 388 488
#     4  10  27  49  70 107 145 199 251 317 401 470
#     4  12  26  46  80 120 156 204 266 322 398 466
#
# _framework density 25.005559999999999
#
# number of rings (size 3 to 8) (size 9 to 14) (size 15 to 20)
#    0.000    1.000    2.500    0.750   14.000    4.000 
#    0.000    0.000    0.000    0.000    0.000    0.000 
#    0.000    0.000    0.000    0.000    0.000    0.000 
#
# Total GULP energy -267643.748948 kJ/mol
# GULP energy per Si atom -5575.911436 kJ/mol
# Density = 2.494865 g / cm^3
# Si number density = 25.005560 Si / 1000 Ang^3
#
#
#
# Elastic Constant Matrix: (Units=GPa)
#
#
# Indices 1 2 3 4 5 6 
#
# 1 72.0243 4.1308 -11.5748 0.0000 0.0000 0.0000
# 2 4.1308 72.0243 -11.5748 0.0000 0.0000 0.0000
# 3 -11.5748 -11.5748 88.4469 0.0000 0.0000 0.0000
# 4 0.0000 0.0000 0.0000 21.5030 0.0000 0.0000
# 5 0.0000 0.0000 0.0000 0.0000 21.5030 0.0000
# 6 0.0000 0.0000 0.0000 0.0000 0.0000 33.9467
#
#
#
# Elastic Compliance Matrix: (Units=1/GPa)
#
#
# Indices 1 2 3 4 5 6 
#
# 1 0.014202 -0.000527 0.001790 0.000000 0.000000 0.000000
# 2 -0.000527 0.014202 0.001790 0.000000 0.000000 0.000000
# 3 0.001790 0.001790 0.011775 0.000000 0.000000 0.000000
# 4 0.000000 0.000000 0.000000 0.046505 0.000000 0.000000
# 5 0.000000 0.000000 0.000000 0.000000 0.046505 0.000000
# 6 0.000000 0.000000 0.000000 0.000000 0.000000 0.029458
#
#
# Mechanical properties :
#
#
# Convention : Reuss Voigt Hill
#
# Bulk Modulus (GPa) = 21.60604 21.60642 21.60623
# Shear Modulus (GPa) = 29.07480 32.15814 30.61647
#
# Velocity S-wave (km/s) = 3.41359 3.59003 3.50292
# Velocity P-wave (km/s) = 4.91894 5.08368 5.00199
#
# Compressibility (1/GPa) = 0.04628335
#
# Stress axis : x y z
#
# Youngs Moduli (GPa) = 70.41242 70.41242 84.92842
#
# Poissons Ratio (x) = 0.03710 -0.15199
# Poissons Ratio (y) = 0.03710 -0.15199
# Poissons Ratio (z) = -0.12601 -0.12601
#
# Static dielectric constant tensor:
#      x y z
#    x 1.973990 0.000000 0.000000 
#    y 0.000000 1.973990 0.000000 
#    z 0.000000 0.000000 2.554960 
# 
# From -- ./inp_files/7338.got.cif
#   From: 2010.05.17/outbox.cif.g08.bks.cpg/sg178_4_cif.got.tgz:7338.got - 2010.05.20 11:30:59.
