data_PCOD9582309
_publ_section_title
;
Structure prediction by ZEFSAII (Michael W. Deem and Ramdas Pophale) SiO2 
 PCOD9582309
Probable space group: P 6 2 2
;
_chemical_formula_sum "Si O2"
_cell_formula_units_Z 72
_cell_length_a 14.337136
_cell_length_b 14.337136
_cell_length_c 19.484972
_cell_angle_alpha 90.000000
_cell_angle_beta 90.000000
_cell_angle_gamma 120.000000
_cell_volume 3468.608049
_symmetry_space_group_name_H-M "P 6 2 2"
_symmetry_group_IT_number 177
_symmetry_cell_setting 'hexagonal'
loop_
_space_group_symop_operation_xyz
x,y,z
x-y,x,z
-y,x-y,z
-x,-y,z
-x+y,-x,z
y,-x+y,z
x-y,-y,-z
-x,-x+y,-z
y,x,-z
-y,-x,-z
-x+y,y,-z
x,x-y,-z
loop_
_atom_site_type_symbol
_atom_site_label
_atom_site_fract_x
_atom_site_fract_y
_atom_site_fract_z
Si Si1 0.420522 0.874897 0.117183
Si Si2 0.119329 0.451110 0.525653
Si Si3 0.183802 0.432511 0.677330
Si Si4 0.094449 0.254908 0.794873
Si Si5 0.875209 0.405593 0.726942
Si Si6 0.191317 0.784771 0.073199
O O1 0.371398 0.845292 0.194119
O O2 0.320225 0.853966 0.072965
O O3 0.491303 0.826214 0.087558
O O4 0.500000 0.000000 0.121086
O O5 0.221645 0.443290 0.500000
O O6 0.133868 0.566934 0.500000
O O7 0.126151 0.429711 0.606401
O O8 0.000000 0.364440 0.500000
O O9 0.120255 0.333932 0.729435
O O10 0.194566 0.539624 0.709867
O O11 0.306692 0.456672 0.676948
O O12 0.168269 0.199793 0.792835
O O13 0.129150 0.326230 0.864335
O O14 0.000000 0.500000 0.722398
O O15 0.173976 0.826025 0.000000
#
# Coordination Sequence:
#
# PCOD9582309 Si02
#       6
#    12  12  12  12  12  12
#     4  11  22  41  62  95 135 175 221 278 344 419
#     4  11  27  48  71 109 153 194 238 288 362 440
#     4  12  24  42  75 101 143 183 223 285 345 428
#     4  12  27  47  71 100 132 183 244 308 365 414
#     4  11  22  38  68 103 135 174 229 279 342 419
#     4  12  25  42  66  99 140 184 232 286 356 437
#
# _framework density 20.757605999999999
#
# number of rings (size 3 to 8) (size 9 to 14) (size 15 to 20)
#    0.000    0.500    3.333    4.500    7.000    3.333 
#    0.000    0.000    0.000    1.167    0.000    0.000 
#    0.000    0.000    0.000    0.000    0.000    0.000 
#
# Total GULP energy -401719.510849 kJ/mol
# GULP energy per Si atom -5579.437651 kJ/mol
# Density = 2.071036 g / cm^3
# Si number density = 20.757606 Si / 1000 Ang^3
#
#
#
# Elastic Constant Matrix: (Units=GPa)
#
#
# Indices 1 2 3 4 5 6 
#
# 1 74.6564 44.2060 64.2951 0.0000 0.0000 0.0000
# 2 44.2060 74.6564 64.2951 0.0000 0.0000 0.0000
# 3 64.2951 64.2951 120.1822 0.0000 0.0000 0.0000
# 4 0.0000 0.0000 0.0000 16.3991 0.0000 0.0000
# 5 0.0000 0.0000 0.0000 0.0000 16.3991 0.0000
# 6 0.0000 0.0000 0.0000 0.0000 0.0000 15.2252
#
#
#
# Elastic Compliance Matrix: (Units=1/GPa)
#
#
# Indices 1 2 3 4 5 6 
#
# 1 0.026406 -0.006434 -0.010685 0.000000 0.000000 0.000000
# 2 -0.006434 0.026406 -0.010685 0.000000 0.000000 0.000000
# 3 -0.010685 -0.010685 0.019753 0.000000 0.000000 0.000000
# 4 0.000000 0.000000 0.000000 0.060979 0.000000 0.000000
# 5 0.000000 0.000000 0.000000 0.000000 0.060979 0.000000
# 6 0.000000 0.000000 0.000000 0.000000 0.000000 0.065681
#
#
# Mechanical properties :
#
#
# Convention : Reuss Voigt Hill
#
# Bulk Modulus (GPa) = 58.96755 68.34305 63.65530
# Shear Modulus (GPa) = 15.55381 16.05125 15.80253
#
# Velocity S-wave (km/s) = 2.74032 2.78379 2.76214
# Velocity P-wave (km/s) = 6.20337 6.58244 6.39571
#
# Compressibility (1/GPa) = 0.01695848
#
# Stress axis : x y z
#
# Youngs Moduli (GPa) = 37.86968 37.86968 50.62516
#
# Poissons Ratio (x) = 0.24365 0.54092
# Poissons Ratio (y) = 0.24365 0.54092
# Poissons Ratio (z) = 0.40463 0.40463
#
# Static dielectric constant tensor:
#      x y z
#    x 1.734080 0.000000 0.000000 
#    y 0.000000 1.734080 0.000000 
#    z 0.000000 0.000000 2.329590 
# 
# From -- ./inp_files/2854.got.cif
#   From: 2010.05.17/outbox.cif.g08.bks.cpg/sg177_2_cif.got.tgz:2854.got - 2010.05.20 11:28:44.
