data_PCOD9582029
_publ_section_title
;
Structure prediction by ZEFSAII (Michael W. Deem and Ramdas Pophale) SiO2 
 PCOD9582029
Probable space group: P 63/M
;
_chemical_formula_sum "Si O2"
_cell_formula_units_Z 54
_cell_length_a 11.770409
_cell_length_b 11.770409
_cell_length_c 22.856541
_cell_angle_alpha 90.000000
_cell_angle_beta 90.000000
_cell_angle_gamma 120.000000
_cell_volume 2742.358618
_symmetry_space_group_name_H-M "P 63/M"
_symmetry_group_IT_number 176
_symmetry_cell_setting 'hexagonal'
loop_
_space_group_symop_operation_xyz
x,y,z
x-y,x,1/2+z
-y,x-y,z
-x,-y,1/2+z
-x+y,-x,z
y,-x+y,1/2+z
-x,-y,-z
-x+y,-x,1/2-z
y,-x+y,-z
x,y,1/2-z
x-y,x,-z
-y,x-y,1/2-z
loop_
_atom_site_type_symbol
_atom_site_label
_atom_site_fract_x
_atom_site_fract_y
_atom_site_fract_z
Si Si1 0.603694 0.911262 0.185049
Si Si2 0.575766 0.638180 0.162759
Si Si3 0.520409 0.175799 0.250000
Si Si4 0.078122 0.406079 0.569937
Si Si5 0.079999 0.657843 0.547367
O O1 0.647343 0.965580 0.250000
O O2 0.621563 0.785356 0.180734
O O3 0.451666 0.873706 0.177878
O O4 0.667028 0.012512 0.131867
O O5 0.640743 0.560694 0.195613
O O6 0.603799 0.641968 0.093881
O O7 0.542441 0.323606 0.250000
O O8 0.137771 0.562923 0.563914
O O9 0.192533 0.375700 0.558180
O O10 0.970181 0.356688 0.518611
#
# Coordination Sequence:
#
# PCOD9582029 Si02
#       5
#    12  12   6  12  12
#     4  11  21  37  59  93 124 166 208 254 323 370
#     4  11  22  38  63  92 129 168 211 267 307 382
#     4  10  24  36  60 100 128 166 210 256 326 378
#     4  10  22  39  61  90 125 159 212 264 321 388
#     4  10  22  38  60  90 119 164 203 267 321 372
#
# _framework density 19.691079999999999
#
# number of rings (size 3 to 8) (size 9 to 14) (size 15 to 20)
#    0.222    1.333    2.222    2.222    6.222    0.000 
#    0.000    4.444    0.000    8.000    0.000    0.000 
#    0.000    0.000    0.000    0.000    0.000    0.000 
#
# Total GULP energy -300971.108728 kJ/mol
# GULP energy per Si atom -5573.539051 kJ/mol
# Density = 1.964626 g / cm^3
# Si number density = 19.691080 Si / 1000 Ang^3
#
#
#
# Elastic Constant Matrix: (Units=GPa)
#
#
# Indices 1 2 3 4 5 6 
#
# 1 80.4641 35.1372 36.5073 0.0000 0.0000 0.0000
# 2 35.1372 80.4641 36.5073 0.0000 0.0000 0.0000
# 3 36.5073 36.5073 159.2975 0.0000 0.0000 0.0000
# 4 0.0000 0.0000 0.0000 6.5584 0.0000 0.0000
# 5 0.0000 0.0000 0.0000 0.0000 6.5584 0.0000
# 6 0.0000 0.0000 0.0000 0.0000 0.0000 22.6635
#
#
#
# Elastic Compliance Matrix: (Units=1/GPa)
#
#
# Indices 1 2 3 4 5 6 
#
# 1 0.016088 -0.005974 -0.002318 0.000000 0.000000 0.000000
# 2 -0.005974 0.016088 -0.002318 0.000000 0.000000 0.000000
# 3 -0.002318 -0.002318 0.007340 0.000000 0.000000 0.000000
# 4 0.000000 0.000000 0.000000 0.152475 0.000000 0.000000
# 5 0.000000 0.000000 0.000000 0.000000 0.152475 0.000000
# 6 0.000000 0.000000 0.000000 0.000000 0.000000 0.044124
#
#
# Mechanical properties :
#
#
# Convention : Reuss Voigt Hill
#
# Bulk Modulus (GPa) = 54.65380 59.61435 57.13408
# Shear Modulus (GPa) = 12.02184 21.29433 16.65808
#
# Velocity S-wave (km/s) = 2.47355 3.29206 2.91171
# Velocity P-wave (km/s) = 5.99782 6.69259 6.35471
#
# Compressibility (1/GPa) = 0.01829699
#
# Stress axis : x y z
#
# Youngs Moduli (GPa) = 62.15731 62.15731 136.23921
#
# Poissons Ratio (x) = 0.37131 0.31580
# Poissons Ratio (y) = 0.37131 0.31580
# Poissons Ratio (z) = 0.14408 0.14408
#
# Static dielectric constant tensor:
#      x y z
#    x 1.696490 0.000000 0.000000 
#    y 0.000000 1.696490 0.000000 
#    z 0.000000 0.000000 1.741910 
# 
# From -- ./inp_files/4002.got.cif
#   From: 2010.05.17/outbox.cif.g08.bks.cpg/sg176_3_cif.got.tgz:4002.got - 2010.06.03 11:36:45.
