data_PCOD9582178
_publ_section_title
;
Structure prediction by ZEFSAII (Michael W. Deem and Ramdas Pophale) SiO2 
 PCOD9582178
Probable space group: P 6 2 2
;
_chemical_formula_sum "Si O2"
_cell_formula_units_Z 78
_cell_length_a 21.844775
_cell_length_b 21.844775
_cell_length_c 14.484723
_cell_angle_alpha 90.000000
_cell_angle_beta 90.000000
_cell_angle_gamma 120.000000
_cell_volume 5985.989873
_symmetry_space_group_name_H-M "P 6 2 2"
_symmetry_group_IT_number 177
_symmetry_cell_setting 'hexagonal'
loop_
_space_group_symop_operation_xyz
x,y,z
x-y,x,z
-y,x-y,z
-x,-y,z
-x+y,-x,z
y,-x+y,z
x-y,-y,-z
-x,-x+y,-z
y,x,-z
-y,-x,-z
-x+y,y,-z
x,x-y,-z
loop_
_atom_site_type_symbol
_atom_site_label
_atom_site_fract_x
_atom_site_fract_y
_atom_site_fract_z
Si Si1 0.486537 0.679970 0.637405
Si Si2 0.920885 0.386726 0.512489
Si Si3 0.526316 0.668123 0.847119
Si Si4 0.534772 0.191834 0.653731
Si Si5 0.247120 0.752881 0.000000
Si Si6 0.435223 0.009190 0.889836
Si Si7 0.369732 0.833673 0.134244
O O1 0.533086 0.664902 0.565444
O O2 0.514828 0.684726 0.742185
O O3 0.408087 0.611654 0.628314
O O4 0.480071 0.748174 0.617241
O O5 0.924529 0.462265 0.500000
O O6 0.883205 0.360028 0.611256
O O7 0.000000 0.402377 0.500000
O O8 0.578735 0.635798 0.850940
O O9 0.449037 0.601985 0.876372
O O10 0.544409 0.729836 0.922100
O O11 0.536204 0.193701 0.763828
O O12 0.317046 0.778740 0.060596
O O13 0.463026 0.091463 0.874203
O O14 0.500000 0.000000 0.852122
O O15 0.432017 0.000000 0.000000
#
# Coordination Sequence:
#
# PCOD9582178 Si02
#       7
#    12  12  12  12   6  12  12
#     4  10  19  31  43  60  80 102 129 158 204 255
#     4   9  19  32  46  60  74  95 128 168 202 238
#     4  10  20  30  41  58  77 104 131 163 197 243
#     4  10  19  31  43  60  80 102 129 158 204 255
#     4  12  18  30  38  58  84  98 128 155 206 239
#     4   9  16  28  42  51  69 101 137 162 190 231
#     4  10  20  30  41  58  77 104 131 163 197 243
#
# _framework density 13.030424999999999
#
# number of rings (size 3 to 8) (size 9 to 14) (size 15 to 20)
#    0.000    2.154    3.077    1.231    2.154    0.000 
#    3.692    1.538    0.000    0.000    0.000    0.000 
#    0.000    0.000    0.000    0.000    0.000    0.000 
#
# Total GULP energy -434243.921259 kJ/mol
# GULP energy per Si atom -5567.229760 kJ/mol
# Density = 1.300077 g / cm^3
# Si number density = 13.030425 Si / 1000 Ang^3
#
#
#
# Elastic Constant Matrix: (Units=GPa)
#
#
# Indices 1 2 3 4 5 6 
#
# 1 45.0840 21.5258 14.2897 0.0000 0.0000 0.0000
# 2 21.5258 45.0840 14.2897 0.0000 0.0000 0.0000
# 3 14.2897 14.2897 53.8357 0.0000 0.0000 0.0000
# 4 0.0000 0.0000 0.0000 13.7699 0.0000 0.0000
# 5 0.0000 0.0000 0.0000 0.0000 13.7699 0.0000
# 6 0.0000 0.0000 0.0000 0.0000 0.0000 11.7791
#
#
#
# Elastic Compliance Matrix: (Units=1/GPa)
#
#
# Indices 1 2 3 4 5 6 
#
# 1 0.029695 -0.012753 -0.004497 0.000000 0.000000 0.000000
# 2 -0.012753 0.029695 -0.004497 0.000000 0.000000 0.000000
# 3 -0.004497 -0.004497 0.020962 0.000000 0.000000 0.000000
# 4 0.000000 0.000000 0.000000 0.072622 0.000000 0.000000
# 5 0.000000 0.000000 0.000000 0.000000 0.072622 0.000000
# 6 0.000000 0.000000 0.000000 0.000000 0.000000 0.084896
#
#
# Mechanical properties :
#
#
# Convention : Reuss Voigt Hill
#
# Bulk Modulus (GPa) = 27.13053 27.13489 27.13271
# Shear Modulus (GPa) = 13.65102 14.12369 13.88735
#
# Velocity S-wave (km/s) = 3.24022 3.29584 3.26815
# Velocity P-wave (km/s) = 5.90464 5.94583 5.92527
#
# Compressibility (1/GPa) = 0.03685884
#
# Stress axis : x y z
#
# Youngs Moduli (GPa) = 33.67558 33.67558 47.70465
#
# Poissons Ratio (x) = 0.42946 0.21453
# Poissons Ratio (y) = 0.42946 0.21453
# Poissons Ratio (z) = 0.15144 0.15144
#
# Static dielectric constant tensor:
#      x y z
#    x 1.431680 0.000000 0.000000 
#    y 0.000000 1.431680 0.000000 
#    z 0.000000 0.000000 1.464960 
# 
# From -- ./inp_files/2676.got.cif
#   From: 2010.05.17/outbox.cif.g08.bks.cpg/sg177_2_cif.got.tgz:2676.got - 2010.05.20 11:28:44.
