data_PCOD9582983
_publ_section_title
;
Structure prediction by ZEFSAII (Michael W. Deem and Ramdas Pophale) SiO2 
 PCOD9582983
Probable space group: P 61 2 2
;
_chemical_formula_sum "Si O2"
_cell_formula_units_Z 48
_cell_length_a 16.832611
_cell_length_b 16.832611
_cell_length_c 7.806814
_cell_angle_alpha 90.000000
_cell_angle_beta 90.000000
_cell_angle_gamma 120.000000
_cell_volume 1915.611511
_symmetry_space_group_name_H-M "P 61 2 2"
_symmetry_group_IT_number 178
_symmetry_cell_setting 'hexagonal'
loop_
_space_group_symop_operation_xyz
x,y,z
x-y,x,1/6+z
-y,x-y,1/3+z
-x,-y,1/2+z
-x+y,-x,2/3+z
y,-x+y,5/6+z
x-y,-y,-z
-x,-x+y,2/3-z
y,x,1/3-z
-y,-x,5/6-z
-x+y,y,1/2-z
x,x-y,1/6-z
loop_
_atom_site_type_symbol
_atom_site_label
_atom_site_fract_x
_atom_site_fract_y
_atom_site_fract_z
Si Si1 0.889039 0.271466 0.537585
Si Si2 0.461581 0.461581 0.166667
Si Si3 0.823376 0.965531 0.755577
Si Si4 0.137486 0.568743 0.583334
Si Si5 0.548414 0.298114 0.784770
O O1 0.808091 0.191910 0.416667
O O2 0.943788 0.371120 0.449965
O O3 0.954976 0.231936 0.589917
O O4 0.837034 0.287288 0.693746
O O5 0.485116 0.553487 0.067285
O O6 0.836080 0.905164 0.900177
O O7 0.824525 0.912263 0.583334
O O8 0.284691 0.569381 0.750000
O O9 0.200772 0.665026 0.675310
O O10 0.621318 0.378683 0.916667
#
# Coordination Sequence:
#
# PCOD9582983 Si02
#       5
#    12   6  12   6  12
#     4  11  22  44  73 109 156 207 269 344 422 508
#     4  12  26  44  72 112 156 212 278 350 432 514
#     4   9  18  35  69 109 146 202 266 338 419 506
#     4  12  28  46  70 112 156 208 274 346 414 514
#     4  12  28  50  80 114 157 220 288 351 423 511
#
# _framework density 25.057272000000001
#
# number of rings (size 3 to 8) (size 9 to 14) (size 15 to 20)
#    0.000    1.000    2.500    5.250    7.000    0.000 
#    2.250    0.000    0.000   13.500    0.000    0.000 
#    0.000    0.000    0.000    0.000    0.000    0.000 
#
# Total GULP energy -267466.661191 kJ/mol
# GULP energy per Si atom -5572.222108 kJ/mol
# Density = 2.500024 g / cm^3
# Si number density = 25.057272 Si / 1000 Ang^3
#
#
#
# Elastic Constant Matrix: (Units=GPa)
#
#
# Indices 1 2 3 4 5 6 
#
# 1 90.2399 39.3650 43.0921 0.0000 0.0000 0.0000
# 2 39.3650 90.2399 43.0921 0.0000 0.0000 0.0000
# 3 43.0921 43.0921 122.2349 0.0000 0.0000 0.0000
# 4 0.0000 0.0000 0.0000 39.9483 0.0000 0.0000
# 5 0.0000 0.0000 0.0000 0.0000 39.9483 0.0000
# 6 0.0000 0.0000 0.0000 0.0000 0.0000 25.4374
#
#
#
# Elastic Compliance Matrix: (Units=1/GPa)
#
#
# Indices 1 2 3 4 5 6 
#
# 1 0.014867 -0.004789 -0.003553 0.000000 0.000000 0.000000
# 2 -0.004789 0.014867 -0.003553 0.000000 0.000000 0.000000
# 3 -0.003553 -0.003553 0.010686 0.000000 0.000000 0.000000
# 4 0.000000 0.000000 0.000000 0.025032 0.000000 0.000000
# 5 0.000000 0.000000 0.000000 0.000000 0.025032 0.000000
# 6 0.000000 0.000000 0.000000 0.000000 0.000000 0.039312
#
#
# Mechanical properties :
#
#
# Convention : Reuss Voigt Hill
#
# Bulk Modulus (GPa) = 60.12892 61.53479 60.83185
# Shear Modulus (GPa) = 31.42070 32.87782 32.14926
#
# Velocity S-wave (km/s) = 3.54496 3.62623 3.58583
# Velocity P-wave (km/s) = 6.38783 6.49182 6.44003
#
# Compressibility (1/GPa) = 0.01663093
#
# Stress axis : x y z
#
# Youngs Moduli (GPa) = 67.26194 67.26194 93.57968
#
# Poissons Ratio (x) = 0.32211 0.33249
# Poissons Ratio (y) = 0.32211 0.33249
# Poissons Ratio (z) = 0.23898 0.23898
#
# Static dielectric constant tensor:
#      x y z
#    x 2.099760 0.000000 0.000000 
#    y 0.000000 2.099760 0.000000 
#    z 0.000000 0.000000 2.166750 
# 
# From -- ./inp_files/2675.got.cif
#   From: 2010.05.17/outbox.cif.g08.bks.cpg/sg178_2_cif.got.tgz:2675.got - 2010.05.20 11:30:59.
