data_PCOD9582155
_publ_section_title
;
Structure prediction by ZEFSAII (Michael W. Deem and Ramdas Pophale) SiO2 
 PCOD9582155
Probable space group: P 63/M
;
_chemical_formula_sum "Si O2"
_cell_formula_units_Z 30
_cell_length_a 9.000000
_cell_length_b 9.000000
_cell_length_c 24.000000
_cell_angle_alpha 90.000000
_cell_angle_beta 90.000000
_cell_angle_gamma 120.000000
_cell_volume 1683.553385
_symmetry_space_group_name_H-M "P 63/M"
_symmetry_group_IT_number 176
_symmetry_cell_setting 'hexagonal'
loop_
_space_group_symop_operation_xyz
x,y,z
x-y,x,1/2+z
-y,x-y,z
-x,-y,1/2+z
-x+y,-x,z
y,-x+y,1/2+z
-x,-y,-z
-x+y,-x,1/2-z
y,-x+y,-z
x,y,1/2-z
x-y,x,-z
-y,x-y,1/2-z
loop_
_atom_site_type_symbol
_atom_site_label
_atom_site_fract_x
_atom_site_fract_y
_atom_site_fract_z
Si Si1 0.860442 0.324935 0.250000
Si Si2 0.333335 0.666668 0.940265
Si Si3 0.000000 0.000000 0.929913
Si Si4 0.666667 0.333335 0.578382
Si Si5 0.014495 0.671085 0.879211
O O1 0.830951 0.490838 0.250000
O O2 0.945616 0.321738 0.310931
O O3 0.334410 0.501837 0.913414
O O4 0.333334 0.666667 0.009077
O O5 0.006716 0.835952 0.903804
O O6 0.000000 0.000000 0.000000
O O7 0.663951 0.163230 0.602767
#
# Coordination Sequence:
#
# PCOD9582155 Si02
#       5
#     6   4   4   4  12
#     4  10  22  44  72  92 138 172 230 278 344 402
#     4  12  21  46  68  97 141 180 217 284 337 396
#     4  12  27  46  68 106 141 177 232 281 340 414
#     4  12  27  40  68 106 132 177 232 266 340 411
#     4  12  24  43  71  97 137 182 222 282 338 397
#
# _framework density 17.819452999999999
#
# number of rings (size 3 to 8) (size 9 to 14) (size 15 to 20)
#    0.400    0.000    4.000    6.000    0.000    3.200 
#    0.000    0.000    0.000    0.000    0.000    0.000 
#    0.000    0.000    0.000    0.000    0.000    0.000 
#
# Total GULP energy -167269.066107 kJ/mol
# GULP energy per Si atom -5575.635537 kJ/mol
# Density = 1.777889 g / cm^3
# Si number density = 17.819453 Si / 1000 Ang^3
#
#
#
# Elastic Constant Matrix: (Units=GPa)
#
#
# Indices 1 2 3 4 5 6 
#
# 1 183.2437 84.4075 71.5177 0.0000 0.0000 0.0000
# 2 84.4075 183.2446 71.5179 0.0000 0.0000 0.0006
# 3 71.5177 71.5179 250.9284 0.0000 0.0000 0.0002
# 4 0.0000 0.0000 0.0000 47.4423 0.0001 0.0000
# 5 0.0000 0.0000 0.0000 0.0001 47.4420 0.0000
# 6 0.0000 0.0006 0.0002 0.0000 0.0000 49.4186
#
#
#
# Elastic Compliance Matrix: (Units=1/GPa)
#
#
# Indices 1 2 3 4 5 6 
#
# 1 0.007263 -0.002855 -0.001256 0.000000 0.000000 0.000000
# 2 -0.002855 0.007263 -0.001256 0.000000 0.000000 0.000000
# 3 -0.001256 -0.001256 0.004701 0.000000 0.000000 0.000000
# 4 0.000000 0.000000 0.000000 0.021078 0.000000 0.000000
# 5 0.000000 0.000000 0.000000 0.000000 0.021078 0.000000
# 6 0.000000 0.000000 0.000000 0.000000 0.000000 0.020235
#
#
# Mechanical properties :
#
#
# Convention : Reuss Voigt Hill
#
# Bulk Modulus (GPa) = 117.76462 119.14476 118.45469
# Shear Modulus (GPa) = 52.52992 54.85884 53.69438
#
# Velocity S-wave (km/s) = 5.43534 5.55453 5.49526
# Velocity P-wave (km/s) = 10.27725 10.39925 10.33843
#
# Compressibility (1/GPa) = 0.00849151
#
# Stress axis : x y z
#
# Youngs Moduli (GPa) = 137.69114 137.69177 212.70858
#
# Poissons Ratio (x) = 0.39312 0.26720
# Poissons Ratio (y) = 0.39312 0.26720
# Poissons Ratio (z) = 0.17297 0.17297
#
# Static dielectric constant tensor:
#      x y z
#    x 1.630000 0.000000 0.000000 
#    y 0.000000 1.630000 0.000000 
#    z 0.000000 0.000000 1.617850 
# 
# From -- ./inp_files/3940.got.cif
#   From: 2010.05.17/outbox.ucp.g08.bks.cvg/sg176_2_cif.got.tgz:3940.got - 2010.06.11 15:18:56.
