data_PCOD9582471
_publ_section_title
;
Structure prediction by ZEFSAII (Michael W. Deem and Ramdas Pophale) SiO2 
 PCOD9582471
Probable space group: P 61 2 2
;
_chemical_formula_sum "Si O2"
_cell_formula_units_Z 84
_cell_length_a 20.263754
_cell_length_b 20.263754
_cell_length_c 12.671472
_cell_angle_alpha 90.000000
_cell_angle_beta 90.000000
_cell_angle_gamma 120.000000
_cell_volume 4506.065590
_symmetry_space_group_name_H-M "P 61 2 2"
_symmetry_group_IT_number 178
_symmetry_cell_setting 'hexagonal'
loop_
_space_group_symop_operation_xyz
x,y,z
x-y,x,1/6+z
-y,x-y,1/3+z
-x,-y,1/2+z
-x+y,-x,2/3+z
y,-x+y,5/6+z
x-y,-y,-z
-x,-x+y,2/3-z
y,x,1/3-z
-y,-x,5/6-z
-x+y,y,1/2-z
x,x-y,1/6-z
loop_
_atom_site_type_symbol
_atom_site_label
_atom_site_fract_x
_atom_site_fract_y
_atom_site_fract_z
Si Si1 0.934852 0.524310 0.919825
Si Si2 0.708920 0.601384 0.998967
Si Si3 0.752305 0.829200 0.734677
Si Si4 0.239488 0.912086 0.437023
Si Si5 0.014695 0.236046 0.062116
Si Si6 0.599034 0.032708 0.830806
Si Si7 0.183888 0.426686 0.363644
O O1 0.860324 0.527749 0.886644
O O2 0.000000 0.571970 0.833334
O O3 0.953336 0.554871 0.039703
O O4 0.932871 0.444260 0.936523
O O5 0.740610 0.645861 0.108872
O O6 0.731939 0.672615 0.920193
O O7 0.617961 0.558581 0.009604
O O8 0.754001 0.561685 0.953765
O O9 0.801585 0.801585 0.666667
O O10 0.750881 0.802498 0.853644
O O11 0.784504 0.919840 0.744193
O O12 0.664575 0.786974 0.696083
O O13 0.169258 0.830743 0.416667
O O14 0.315991 0.931469 0.374679
O O15 0.218434 0.973119 0.385479
O O16 0.223491 0.446982 0.250000
#
# Coordination Sequence:
#
# PCOD9582471 Si02
#       7
#    12  12  12  12  12  12  12
#     4  11  21  35  55  85 123 157 194 243 296 362
#     4  10  19  34  53  79 113 147 190 243 304 358
#     4  11  20  34  52  75 110 152 195 236 292 349
#     4  11  20  35  56  81 107 140 190 251 307 354
#     4  10  20  32  51  76 103 137 186 241 287 334
#     4  10  21  36  56  85 117 153 195 243 302 363
#     4  11  21  34  56  88 119 154 193 242 298 357
#
# _framework density 18.641539000000002
#
# number of rings (size 3 to 8) (size 9 to 14) (size 15 to 20)
#    0.000    1.429    0.000   10.286    0.000    0.000 
#    0.000    0.000    0.000    3.429   14.857    0.000 
#    0.000    0.000    0.000    0.000    0.000    0.000 
#
# Total GULP energy -467894.425947 kJ/mol
# GULP energy per Si atom -5570.171737 kJ/mol
# Density = 1.859911 g / cm^3
# Si number density = 18.641539 Si / 1000 Ang^3
#
#
#
# Elastic Constant Matrix: (Units=GPa)
#
#
# Indices 1 2 3 4 5 6 
#
# 1 113.1836 26.2839 26.9839 0.0000 0.0000 0.0000
# 2 26.2839 113.1836 26.9839 0.0000 0.0000 0.0000
# 3 26.9839 26.9839 100.7411 0.0000 0.0000 0.0000
# 4 0.0000 0.0000 0.0000 21.1580 0.0000 0.0000
# 5 0.0000 0.0000 0.0000 0.0000 21.1580 0.0000
# 6 0.0000 0.0000 0.0000 0.0000 0.0000 43.4499
#
#
#
# Elastic Compliance Matrix: (Units=1/GPa)
#
#
# Indices 1 2 3 4 5 6 
#
# 1 0.009753 -0.001754 -0.002143 0.000000 0.000000 0.000000
# 2 -0.001754 0.009753 -0.002143 0.000000 0.000000 0.000000
# 3 -0.002143 -0.002143 0.011074 0.000000 0.000000 0.000000
# 4 0.000000 0.000000 0.000000 0.047263 0.000000 0.000000
# 5 0.000000 0.000000 0.000000 0.000000 0.047263 0.000000
# 6 0.000000 0.000000 0.000000 0.000000 0.000000 0.023015
#
#
# Mechanical properties :
#
#
# Convention : Reuss Voigt Hill
#
# Bulk Modulus (GPa) = 54.04758 54.17908 54.11333
# Shear Modulus (GPa) = 30.05368 33.61029 31.83198
#
# Velocity S-wave (km/s) = 4.01956 4.25076 4.13677
# Velocity P-wave (km/s) = 7.11327 7.29511 7.20476
#
# Compressibility (1/GPa) = 0.01850221
#
# Stress axis : x y z
#
# Youngs Moduli (GPa) = 102.52860 102.52860 90.29944
#
# Poissons Ratio (x) = 0.17985 0.19348
# Poissons Ratio (y) = 0.17985 0.19348
# Poissons Ratio (z) = 0.21968 0.21968
#
# Static dielectric constant tensor:
#      x y z
#    x 1.670410 0.000000 0.000000 
#    y 0.000000 1.670410 0.000000 
#    z 0.000000 0.000000 1.714840 
# 
# From -- ./inp_files/4801.got.cif
#   From: 2010.05.17/outbox.cif.g08.bks.cpg/sg178_3_cif.got.tgz:4801.got - 2010.05.20 11:30:59.
