data_PCOD9582963
_publ_section_title
;
Structure prediction by ZEFSAII (Michael W. Deem and Ramdas Pophale) SiO2 
 PCOD9582963
Probable space group: P 61 2 2
;
_chemical_formula_sum "Si O2"
_cell_formula_units_Z 84
_cell_length_a 17.086278
_cell_length_b 17.086278
_cell_length_c 14.204748
_cell_angle_alpha 90.000000
_cell_angle_beta 90.000000
_cell_angle_gamma 120.000000
_cell_volume 3591.361326
_symmetry_space_group_name_H-M "P 61 2 2"
_symmetry_group_IT_number 178
_symmetry_cell_setting 'hexagonal'
loop_
_space_group_symop_operation_xyz
x,y,z
x-y,x,1/6+z
-y,x-y,1/3+z
-x,-y,1/2+z
-x+y,-x,2/3+z
y,-x+y,5/6+z
x-y,-y,-z
-x,-x+y,2/3-z
y,x,1/3-z
-y,-x,5/6-z
-x+y,y,1/2-z
x,x-y,1/6-z
loop_
_atom_site_type_symbol
_atom_site_label
_atom_site_fract_x
_atom_site_fract_y
_atom_site_fract_z
Si Si1 0.709982 0.974568 0.369317
Si Si2 0.637364 0.509634 0.987659
Si Si3 0.166833 0.333666 0.750000
Si Si4 0.000000 0.190406 0.833334
Si Si5 0.281688 0.716002 0.530710
Si Si6 0.183083 0.381172 0.154025
Si Si7 0.574998 0.922755 0.199909
Si Si8 0.928441 0.059006 0.670767
O O1 0.657365 0.906294 0.456230
O O2 0.632234 0.953326 0.295221
O O3 0.776147 0.937444 0.342807
O O4 0.777444 0.082595 0.356025
O O5 0.572526 0.427475 0.916667
O O6 0.732252 0.568407 0.930779
O O7 0.584607 0.566918 0.002052
O O8 0.667326 0.482138 0.085302
O O9 0.095622 0.279727 0.831924
O O10 0.265006 0.380042 0.794363
O O11 0.004263 0.147354 0.932103
O O12 0.286575 0.713426 0.416667
O O13 0.321450 0.660725 0.583334
O O14 0.174067 0.661556 0.552906
O O15 0.219707 0.439413 0.250000
O O16 0.974633 0.069422 0.570884
#
# Coordination Sequence:
#
# PCOD9582963 Si02
#       8
#    12  12   6   6  12  12  12  12
#     4  11  21  41  68 101 143 193 254 315 365 456
#     4  11  27  51  79 112 156 206 258 320 398 482
#     4  12  24  34  70 100 146 192 246 314 378 460
#     4  12  22  34  56  92 136 188 246 304 378 444
#     4  12  27  49  79 116 156 201 253 323 398 479
#     4  11  24  43  74 107 148 199 256 306 380 448
#     4  11  24  44  74 112 150 196 255 320 392 471
#     4  12  22  38  58  83 132 190 248 312 371 431
#
# _framework density 23.389458999999999
#
# number of rings (size 3 to 8) (size 9 to 14) (size 15 to 20)
#    0.000    0.571    6.429    1.286    4.000    2.286 
#    0.000    2.857    3.143    0.000    0.000    0.000 
#    0.000    0.000    0.000    0.000    0.000    0.000 
#
# Total GULP energy -467938.833557 kJ/mol
# GULP energy per Si atom -5570.700399 kJ/mol
# Density = 2.333622 g / cm^3
# Si number density = 23.389459 Si / 1000 Ang^3
#
#
#
# Elastic Constant Matrix: (Units=GPa)
#
#
# Indices 1 2 3 4 5 6 
#
# 1 66.8464 48.8964 28.5903 0.0000 0.0000 0.0000
# 2 48.8964 66.8464 28.5903 0.0000 0.0000 0.0000
# 3 28.5903 28.5903 131.5224 0.0000 0.0000 0.0000
# 4 0.0000 0.0000 0.0000 19.4208 0.0000 0.0000
# 5 0.0000 0.0000 0.0000 0.0000 19.4208 0.0000
# 6 0.0000 0.0000 0.0000 0.0000 0.0000 8.9750
#
#
#
# Elastic Compliance Matrix: (Units=1/GPa)
#
#
# Indices 1 2 3 4 5 6 
#
# 1 0.032695 -0.023015 -0.002104 0.000000 0.000000 0.000000
# 2 -0.023015 0.032695 -0.002104 0.000000 0.000000 0.000000
# 3 -0.002104 -0.002104 0.008518 0.000000 0.000000 0.000000
# 4 0.000000 0.000000 0.000000 0.051491 0.000000 0.000000
# 5 0.000000 0.000000 0.000000 0.000000 0.051491 0.000000
# 6 0.000000 0.000000 0.000000 0.000000 0.000000 0.111420
#
#
# Mechanical properties :
#
#
# Convention : Reuss Voigt Hill
#
# Bulk Modulus (GPa) = 51.38654 53.04102 52.21378
# Shear Modulus (GPa) = 14.31663 20.17254 17.24458
#
# Velocity S-wave (km/s) = 2.47674 2.93996 2.71824
# Velocity P-wave (km/s) = 5.49515 5.85244 5.67660
#
# Compressibility (1/GPa) = 0.01946035
#
# Stress axis : x y z
#
# Youngs Moduli (GPa) = 30.58594 30.58594 117.39786
#
# Poissons Ratio (x) = 0.70395 0.24702
# Poissons Ratio (y) = 0.70395 0.24702
# Poissons Ratio (z) = 0.06436 0.06436
#
# Static dielectric constant tensor:
#      x y z
#    x 1.914390 0.000000 0.000000 
#    y 0.000000 1.914390 0.000000 
#    z 0.000000 0.000000 1.898430 
# 
# From -- ./inp_files/6051.got.cif
#   From: 2010.05.17/outbox.cif.g08.bks.cpg/sg178_4_cif.got.tgz:6051.got - 2010.05.20 11:30:59.
