data_PCOD9582790
_publ_section_title
;
Structure prediction by ZEFSAII (Michael W. Deem and Ramdas Pophale) SiO2 
 PCOD9582790
Probable space group: P 61 2 2
;
_chemical_formula_sum "Si O2"
_cell_formula_units_Z 66
_cell_length_a 13.810315
_cell_length_b 13.810315
_cell_length_c 18.483775
_cell_angle_alpha 90.000000
_cell_angle_beta 90.000000
_cell_angle_gamma 120.000000
_cell_volume 3053.011738
_symmetry_space_group_name_H-M "P 61 2 2"
_symmetry_group_IT_number 178
_symmetry_cell_setting 'hexagonal'
loop_
_space_group_symop_operation_xyz
x,y,z
x-y,x,1/6+z
-y,x-y,1/3+z
-x,-y,1/2+z
-x+y,-x,2/3+z
y,-x+y,5/6+z
x-y,-y,-z
-x,-x+y,2/3-z
y,x,1/3-z
-y,-x,5/6-z
-x+y,y,1/2-z
x,x-y,1/6-z
loop_
_atom_site_type_symbol
_atom_site_label
_atom_site_fract_x
_atom_site_fract_y
_atom_site_fract_z
Si Si1 0.635952 0.820401 0.369444
Si Si2 0.211834 0.540339 0.360373
Si Si3 0.000000 0.272753 0.833334
Si Si4 0.090033 0.623440 0.455961
Si Si5 0.595690 0.151650 0.129532
Si Si6 0.223026 0.925622 0.269816
O O1 0.585534 0.841851 0.441625
O O2 0.536392 0.719701 0.322090
O O3 0.725802 0.780245 0.377775
O O4 0.688078 0.922974 0.315565
O O5 0.185035 0.603395 0.423624
O O6 0.169006 0.571130 0.287107
O O7 0.336130 0.567550 0.342672
O O8 0.051293 0.369180 0.771894
O O9 0.098094 0.257082 0.868318
O O10 0.119390 0.702185 0.524668
O O11 0.981165 0.505487 0.475167
#
# Coordination Sequence:
#
# PCOD9582790 Si02
#       6
#    12  12   6  12  12  12
#     4  11  25  42  64 101 139 178 230 291 351 409
#     4  11  23  39  67  91 139 186 221 278 338 421
#     4  12  20  42  70 100 134 178 226 292 352 412
#     4  11  22  41  68 101 138 179 232 277 355 418
#     4  10  22  42  62  98 137 181 234 266 340 422
#     4  11  24  42  65 103 137 174 228 294 357 410
#
# _framework density 21.617996000000002
#
# number of rings (size 3 to 8) (size 9 to 14) (size 15 to 20)
#    0.000    1.091    5.455    1.091    2.545    8.000 
#    0.000    0.000    0.000    0.000   14.182    0.000 
#    0.000    0.000    0.000    0.000    0.000    0.000 
#
# Total GULP energy -368738.291050 kJ/mol
# GULP energy per Si atom -5586.943804 kJ/mol
# Density = 2.156879 g / cm^3
# Si number density = 21.617996 Si / 1000 Ang^3
#
#
#
# Elastic Constant Matrix: (Units=GPa)
#
#
# Indices 1 2 3 4 5 6 
#
# 1 80.7236 31.2041 24.0610 0.0000 0.0000 0.0000
# 2 31.2041 80.7236 24.0610 0.0000 0.0000 0.0000
# 3 24.0610 24.0610 74.0889 0.0000 0.0000 0.0000
# 4 0.0000 0.0000 0.0000 29.2822 0.0000 0.0000
# 5 0.0000 0.0000 0.0000 0.0000 29.2822 0.0000
# 6 0.0000 0.0000 0.0000 0.0000 0.0000 24.7597
#
#
#
# Elastic Compliance Matrix: (Units=1/GPa)
#
#
# Indices 1 2 3 4 5 6 
#
# 1 0.015289 -0.004905 -0.003372 0.000000 0.000000 0.000000
# 2 -0.004905 0.015289 -0.003372 0.000000 0.000000 0.000000
# 3 -0.003372 -0.003372 0.015688 0.000000 0.000000 0.000000
# 4 0.000000 0.000000 0.000000 0.034150 0.000000 0.000000
# 5 0.000000 0.000000 0.000000 0.000000 0.034150 0.000000
# 6 0.000000 0.000000 0.000000 0.000000 0.000000 0.040388
#
#
# Mechanical properties :
#
#
# Convention : Reuss Voigt Hill
#
# Bulk Modulus (GPa) = 43.54126 43.79869 43.66997
# Shear Modulus (GPa) = 26.89475 27.07884 26.98680
#
# Velocity S-wave (km/s) = 3.53099 3.54306 3.53703
# Velocity P-wave (km/s) = 6.06703 6.08621 6.07663
#
# Compressibility (1/GPa) = 0.02296672
#
# Stress axis : x y z
#
# Youngs Moduli (GPa) = 65.40579 65.40579 63.74417
#
# Poissons Ratio (x) = 0.32081 0.21497
# Poissons Ratio (y) = 0.32081 0.21497
# Poissons Ratio (z) = 0.22057 0.22057
#
# Static dielectric constant tensor:
#      x y z
#    x 1.788680 0.000000 0.000000 
#    y 0.000000 1.788680 0.000000 
#    z 0.000000 0.000000 1.837480 
# 
# From -- ./inp_files/8228.got.cif
#   From: 2010.05.17/outbox.cif.g08.bks.cpg/sg178_5_cif.got.tgz:8228.got - 2010.05.20 11:30:59.
