data_PCOD9582013
_publ_section_title
;
Structure prediction by ZEFSAII (Michael W. Deem and Ramdas Pophale) SiO2 
 PCOD9582013
Probable space group: P 63/M
;
_chemical_formula_sum "Si O2"
_cell_formula_units_Z 52
_cell_length_a 11.500321
_cell_length_b 11.500321
_cell_length_c 22.482998
_cell_angle_alpha 90.000000
_cell_angle_beta 90.000000
_cell_angle_gamma 120.000000
_cell_volume 2575.163327
_symmetry_space_group_name_H-M "P 63/M"
_symmetry_group_IT_number 176
_symmetry_cell_setting 'hexagonal'
loop_
_space_group_symop_operation_xyz
x,y,z
x-y,x,1/2+z
-y,x-y,z
-x,-y,1/2+z
-x+y,-x,z
y,-x+y,1/2+z
-x,-y,-z
-x+y,-x,1/2-z
y,-x+y,-z
x,y,1/2-z
x-y,x,-z
-y,x-y,1/2-z
loop_
_atom_site_type_symbol
_atom_site_label
_atom_site_fract_x
_atom_site_fract_y
_atom_site_fract_z
Si Si1 0.863093 0.230211 0.820604
Si Si2 0.835510 0.865643 0.401972
Si Si3 0.101778 0.702544 0.537422
Si Si4 0.378321 0.958624 0.920573
Si Si5 0.666668 0.333334 0.821612
O O1 0.883269 0.245859 0.750000
O O2 0.835420 0.084046 0.841547
O O3 0.738298 0.249742 0.838997
O O4 0.987878 0.346488 0.857466
O O5 0.742201 0.753968 0.447952
O O6 0.975914 0.866935 0.408595
O O7 0.245938 0.824046 0.556818
O O8 0.071975 0.571828 0.575225
O O9 0.078457 0.661996 0.468380
O O10 0.666667 0.333334 0.750000
#
# Coordination Sequence:
#
# PCOD9582013 Si02
#       5
#    12  12  12  12   4
#     4  11  22  41  63  94 131 169 220 265 324 395
#     4  10  21  40  63  92 127 169 209 268 328 390
#     4  11  23  41  65  94 130 165 224 269 332 395
#     4  11  23  41  65  96 127 174 212 277 330 388
#     4   9  21  39  66  90 123 174 219 267 316 383
#
# _framework density 20.192893999999999
#
# number of rings (size 3 to 8) (size 9 to 14) (size 15 to 20)
#    0.462    0.923    2.308    3.231    0.000    2.769 
#    0.000    3.462    0.000    0.000    0.000    0.000 
#    0.000    0.000    0.000    0.000    0.000    0.000 
#
# Total GULP energy -289732.084508 kJ/mol
# GULP energy per Si atom -5571.770856 kJ/mol
# Density = 2.014693 g / cm^3
# Si number density = 20.192894 Si / 1000 Ang^3
#
#
#
# Elastic Constant Matrix: (Units=GPa)
#
#
# Indices 1 2 3 4 5 6 
#
# 1 98.9066 35.1232 20.9334 0.0000 0.0000 0.0001
# 2 35.1232 98.9096 20.9346 0.0000 0.0000 -0.0002
# 3 20.9334 20.9346 91.0458 0.0000 0.0000 0.0002
# 4 0.0000 0.0000 0.0000 22.8611 0.0000 0.0000
# 5 0.0000 0.0000 0.0000 0.0000 22.8608 0.0000
# 6 0.0001 -0.0002 0.0002 0.0000 0.0000 31.8920
#
#
#
# Elastic Compliance Matrix: (Units=1/GPa)
#
#
# Indices 1 2 3 4 5 6 
#
# 1 0.011858 -0.003820 -0.001848 0.000000 0.000000 0.000000
# 2 -0.003820 0.011858 -0.001848 0.000000 0.000000 0.000000
# 3 -0.001848 -0.001848 0.011833 0.000000 0.000000 0.000000
# 4 0.000000 0.000000 0.000000 0.043742 0.000000 0.000000
# 5 0.000000 0.000000 0.000000 0.000000 0.043743 0.000000
# 6 0.000000 0.000000 0.000000 0.000000 0.000000 0.031356
#
#
# Mechanical properties :
#
#
# Convention : Reuss Voigt Hill
#
# Bulk Modulus (GPa) = 48.73994 49.20494 48.97244
# Shear Modulus (GPa) = 28.36688 29.64751 29.00719
#
# Velocity S-wave (km/s) = 3.75213 3.83589 3.79424
# Velocity P-wave (km/s) = 6.55445 6.63619 6.59545
#
# Compressibility (1/GPa) = 0.02051705
#
# Stress axis : x y z
#
# Youngs Moduli (GPa) = 84.33025 84.33240 84.50655
#
# Poissons Ratio (x) = 0.32212 0.15618
# Poissons Ratio (y) = 0.32212 0.15619
# Poissons Ratio (z) = 0.15586 0.15587
#
# Static dielectric constant tensor:
#      x y z
#    x 1.761500 0.000000 0.000000 
#    y 0.000000 1.761490 0.000000 
#    z 0.000000 0.000000 1.687790 
# 
# From -- ./inp_files/3692.got.cif
#   From: 2010.05.17/outbox.cif.g08.bks.cpg/sg176_2_cif.got.tgz:3692.got - 2010.06.03 11:36:45.
