data_PCOD9582080
_publ_section_title
;
Structure prediction by ZEFSAII (Michael W. Deem and Ramdas Pophale) SiO2 
 PCOD9582080
Probable space group: P 63/M
;
_chemical_formula_sum "Si O2"
_cell_formula_units_Z 66
_cell_length_a 20.318860
_cell_length_b 20.318860
_cell_length_c 9.221976
_cell_angle_alpha 90.000000
_cell_angle_beta 90.000000
_cell_angle_gamma 120.000000
_cell_volume 3297.260769
_symmetry_space_group_name_H-M "P 63/M"
_symmetry_group_IT_number 176
_symmetry_cell_setting 'hexagonal'
loop_
_space_group_symop_operation_xyz
x,y,z
x-y,x,1/2+z
-y,x-y,z
-x,-y,1/2+z
-x+y,-x,z
y,-x+y,1/2+z
-x,-y,-z
-x+y,-x,1/2-z
y,-x+y,-z
x,y,1/2-z
x-y,x,-z
-y,x-y,1/2-z
loop_
_atom_site_type_symbol
_atom_site_label
_atom_site_fract_x
_atom_site_fract_y
_atom_site_fract_z
Si Si1 0.280353 0.026880 0.917260
Si Si2 0.674913 0.806007 0.424444
Si Si3 0.289440 0.785812 0.074777
Si Si4 0.810794 0.373218 0.416810
Si Si5 0.029994 0.486692 0.250000
Si Si6 0.970365 0.401276 0.503998
O O1 0.255178 0.014889 0.750000
O O2 0.289847 0.106231 0.970759
O O3 0.364643 0.038176 0.925377
O O4 0.228736 0.952015 0.008960
O O5 0.676541 0.805156 0.250000
O O6 0.585327 0.757868 0.466092
O O7 0.300425 0.788525 0.250000
O O8 0.368880 0.816026 0.991150
O O9 0.240892 0.698716 0.018150
O O10 0.783522 0.363940 0.250000
O O11 0.894117 0.382685 0.416294
O O12 0.021239 0.539837 0.373828
O O13 0.034050 0.433566 0.379952
#
# Coordination Sequence:
#
# PCOD9582080 Si02
#       6
#    12  12  12  12   6  12
#     4  11  24  45  68  99 136 172 214 278 333 407
#     4  10  25  44  69  99 132 172 221 269 339 406
#     4  11  25  42  64  88 125 182 227 278 332 391
#     4  12  25  41  59  87 128 168 227 275 325 383
#     4  10  24  36  56  90 128 170 212 268 324 374
#     4  11  23  39  62  91 130 169 220 270 327 383
#
# _framework density 20.016615000000002
#
# number of rings (size 3 to 8) (size 9 to 14) (size 15 to 20)
#    0.000    1.091    3.636    1.455    8.909    2.182 
#    0.000    0.000    0.000    0.364    0.000    0.000 
#    0.000    0.000    0.000    0.000    0.000    0.000 
#
# Total GULP energy -367447.866917 kJ/mol
# GULP energy per Si atom -5567.391923 kJ/mol
# Density = 1.997106 g / cm^3
# Si number density = 20.016615 Si / 1000 Ang^3
#
#
#
# Elastic Constant Matrix: (Units=GPa)
#
#
# Indices 1 2 3 4 5 6 
#
# 1 105.7228 47.5258 21.3021 0.0000 0.0000 0.0000
# 2 47.5258 105.7228 21.3021 0.0000 0.0000 0.0000
# 3 21.3021 21.3021 96.0487 0.0000 0.0000 0.0000
# 4 0.0000 0.0000 0.0000 30.5291 0.0000 0.0000
# 5 0.0000 0.0000 0.0000 0.0000 30.5291 0.0000
# 6 0.0000 0.0000 0.0000 0.0000 0.0000 29.0985
#
#
#
# Elastic Compliance Matrix: (Units=1/GPa)
#
#
# Indices 1 2 3 4 5 6 
#
# 1 0.012069 -0.005114 -0.001542 0.000000 0.000000 0.000000
# 2 -0.005114 0.012069 -0.001542 0.000000 0.000000 0.000000
# 3 -0.001542 -0.001542 0.011096 0.000000 0.000000 0.000000
# 4 0.000000 0.000000 0.000000 0.032756 0.000000 0.000000
# 5 0.000000 0.000000 0.000000 0.000000 0.032756 0.000000
# 6 0.000000 0.000000 0.000000 0.000000 0.000000 0.034366
#
#
# Mechanical properties :
#
#
# Convention : Reuss Voigt Hill
#
# Bulk Modulus (GPa) = 53.09409 54.19492 53.64451
# Shear Modulus (GPa) = 31.68840 32.52227 32.10534
#
# Velocity S-wave (km/s) = 3.98314 4.03521 4.00926
# Velocity P-wave (km/s) = 6.90916 6.98887 6.94913
#
# Compressibility (1/GPa) = 0.01883449
#
# Stress axis : x y z
#
# Youngs Moduli (GPa) = 82.85979 82.85979 90.12659
#
# Poissons Ratio (x) = 0.42378 0.13900
# Poissons Ratio (y) = 0.42378 0.13900
# Poissons Ratio (z) = 0.12780 0.12780
#
# Static dielectric constant tensor:
#      x y z
#    x 1.766380 0.000000 0.000000 
#    y 0.000000 1.766380 0.000000 
#    z 0.000000 0.000000 1.694770 
# 
# From -- ./inp_files/970.got.cif
#   From: 2010.05.17/outbox.cif.g08.bks.cpg/sg176_1_cif.got.tgz:970.got - 2010.06.03 11:36:45.
