data_PCOD9582956
_publ_section_title
;
Structure prediction by ZEFSAII (Michael W. Deem and Ramdas Pophale) SiO2 
 PCOD9582956
Probable space group: P 61 2 2
;
_chemical_formula_sum "Si O2"
_cell_formula_units_Z 66
_cell_length_a 12.277866
_cell_length_b 12.277866
_cell_length_c 22.560896
_cell_angle_alpha 90.000000
_cell_angle_beta 90.000000
_cell_angle_gamma 120.000000
_cell_volume 2945.321812
_symmetry_space_group_name_H-M "P 61 2 2"
_symmetry_group_IT_number 178
_symmetry_cell_setting 'hexagonal'
loop_
_space_group_symop_operation_xyz
x,y,z
x-y,x,1/6+z
-y,x-y,1/3+z
-x,-y,1/2+z
-x+y,-x,2/3+z
y,-x+y,5/6+z
x-y,-y,-z
-x,-x+y,2/3-z
y,x,1/3-z
-y,-x,5/6-z
-x+y,y,1/2-z
x,x-y,1/6-z
loop_
_atom_site_type_symbol
_atom_site_label
_atom_site_fract_x
_atom_site_fract_y
_atom_site_fract_z
Si Si1 0.141074 0.198707 0.416813
Si Si2 0.992590 0.695644 0.973536
Si Si3 0.402665 0.567075 0.346286
Si Si4 0.860328 0.930164 0.083334
Si Si5 0.675708 0.006637 0.851661
Si Si6 0.603492 0.407747 0.487597
O O1 0.200819 0.203350 0.353619
O O2 0.044485 0.251901 0.416194
O O3 0.259028 0.294157 0.455999
O O4 0.096857 0.063132 0.445372
O O5 0.883736 0.552673 0.988961
O O6 0.116366 0.685977 0.985165
O O7 0.435334 0.564667 0.416667
O O8 0.530095 0.629391 0.306119
O O9 0.350070 0.661355 0.340546
O O10 0.762900 0.789719 0.059511
O O11 0.669208 0.132828 0.846046
O O12 0.592663 0.407337 0.416667
#
# Coordination Sequence:
#
# PCOD9582956 Si02
#       6
#    12  12  12   6  12  12
#     4  12  21  41  63  88 124 160 217 259 309 380
#     4  11  21  39  65  94 120 169 213 255 313 387
#     4  11  21  41  66  91 126 166 213 259 314 389
#     4  12  26  38  62  96 124 164 206 274 318 366
#     4  11  22  38  62  94 125 159 209 260 317 380
#     4  11  21  38  66  94 128 166 207 267 326 376
#
# _framework density 22.408418999999999
#
# number of rings (size 3 to 8) (size 9 to 14) (size 15 to 20)
#    0.000    0.727    7.273    1.636    1.273    0.000 
#    1.636    0.000    0.000    0.000    0.000    0.000 
#    0.000    0.000    0.000    0.000    0.000    0.000 
#
# Total GULP energy -367713.070424 kJ/mol
# GULP energy per Si atom -5571.410158 kJ/mol
# Density = 2.235742 g / cm^3
# Si number density = 22.408419 Si / 1000 Ang^3
#
#
#
# Elastic Constant Matrix: (Units=GPa)
#
#
# Indices 1 2 3 4 5 6 
#
# 1 137.9547 51.6884 12.2111 0.0000 0.0000 0.0000
# 2 51.6884 137.9547 12.2111 0.0000 0.0000 0.0000
# 3 12.2111 12.2111 13.2064 0.0000 0.0000 0.0000
# 4 0.0000 0.0000 0.0000 10.1788 0.0000 0.0000
# 5 0.0000 0.0000 0.0000 0.0000 10.1788 0.0000
# 6 0.0000 0.0000 0.0000 0.0000 0.0000 43.1332
#
#
#
# Elastic Compliance Matrix: (Units=1/GPa)
#
#
# Indices 1 2 3 4 5 6 
#
# 1 0.008789 -0.002803 -0.005535 0.000000 0.000000 0.000000
# 2 -0.002803 0.008789 -0.005535 0.000000 0.000000 0.000000
# 3 -0.005535 -0.005535 0.085956 0.000000 0.000000 0.000000
# 4 0.000000 0.000000 0.000000 0.098243 0.000000 0.000000
# 5 0.000000 0.000000 0.000000 0.000000 0.098243 0.000000
# 6 0.000000 0.000000 0.000000 0.000000 0.000000 0.023184
#
#
# Mechanical properties :
#
#
# Convention : Reuss Voigt Hill
#
# Bulk Modulus (GPa) = 13.19452 49.03744 31.11598
# Shear Modulus (GPa) = 13.29035 26.89851 20.09443
#
# Velocity S-wave (km/s) = 2.43800 3.46840 2.99780
# Velocity P-wave (km/s) = 3.71835 6.16204 5.08905
#
# Compressibility (1/GPa) = 0.07578906
#
# Stress axis : x y z
#
# Youngs Moduli (GPa) = 113.77970 113.77970 11.63383
#
# Poissons Ratio (x) = 0.31894 0.06439
# Poissons Ratio (y) = 0.31894 0.06439
# Poissons Ratio (z) = 0.62974 0.62974
#
# Static dielectric constant tensor:
#      x y z
#    x 1.933830 0.000000 0.000000 
#    y 0.000000 1.933830 0.000000 
#    z 0.000000 0.000000 1.986470 
# 
# From -- ./inp_files/9521.got.cif
#   From: 2010.05.17/outbox.cif.g08.bks.cpg/sg178_5_cif.got.tgz:9521.got - 2010.05.20 11:30:59.
