data_PCOD9582485
_publ_section_title
;
Structure prediction by ZEFSAII (Michael W. Deem and Ramdas Pophale) SiO2 
 PCOD9582485
Probable space group: P 61 2 2
;
_chemical_formula_sum "Si O2"
_cell_formula_units_Z 60
_cell_length_a 11.636880
_cell_length_b 11.636880
_cell_length_c 29.452931
_cell_angle_alpha 90.000000
_cell_angle_beta 90.000000
_cell_angle_gamma 120.000000
_cell_volume 3454.078977
_symmetry_space_group_name_H-M "P 61 2 2"
_symmetry_group_IT_number 178
_symmetry_cell_setting 'hexagonal'
loop_
_space_group_symop_operation_xyz
x,y,z
x-y,x,1/6+z
-y,x-y,1/3+z
-x,-y,1/2+z
-x+y,-x,2/3+z
y,-x+y,5/6+z
x-y,-y,-z
-x,-x+y,2/3-z
y,x,1/3-z
-y,-x,5/6-z
-x+y,y,1/2-z
x,x-y,1/6-z
loop_
_atom_site_type_symbol
_atom_site_label
_atom_site_fract_x
_atom_site_fract_y
_atom_site_fract_z
Si Si1 0.413097 0.046916 0.215710
Si Si2 0.797944 0.553934 0.433644
Si Si3 0.592519 0.294715 0.676046
Si Si4 0.682427 0.574996 0.629958
Si Si5 0.967755 0.471659 0.956702
O O1 0.526476 0.052952 0.250000
O O2 0.392182 0.172287 0.219743
O O3 0.461197 0.032884 0.165723
O O4 0.274740 0.911713 0.223487
O O5 0.776577 0.518740 0.380676
O O6 0.711861 0.418338 0.462817
O O7 0.947538 0.600327 0.446995
O O8 0.629704 0.433830 0.654650
O O9 0.548456 0.181272 0.638366
O O10 0.672459 0.672459 0.666667
O O11 0.551644 0.587041 0.746076
#
# Coordination Sequence:
#
# PCOD9582485 Si02
#       5
#    12  12  12  12  12
#     4  11  22  37  58  88 122 151 201 248 303 359
#     4  10  19  35  59  85 119 155 187 253 303 351
#     4  10  19  36  54  86 121 150 199 236 296 357
#     4  12  24  36  58  91 122 157 202 249 299 366
#     4  11  21  35  62  84 122 159 188 254 300 357
#
# _framework density 17.370767000000001
#
# number of rings (size 3 to 8) (size 9 to 14) (size 15 to 20)
#    0.000    1.200    8.000    1.800    2.800    0.800 
#    0.000    0.000    0.000    1.200    5.200    0.000 
#    0.000    0.000    0.000    0.000    0.000    0.000 
#
# Total GULP energy -334665.780747 kJ/mol
# GULP energy per Si atom -5577.763012 kJ/mol
# Density = 1.733123 g / cm^3
# Si number density = 17.370767 Si / 1000 Ang^3
#
#
#
# Elastic Constant Matrix: (Units=GPa)
#
#
# Indices 1 2 3 4 5 6 
#
# 1 74.8186 18.7049 18.5984 0.0000 0.0000 0.0000
# 2 18.7049 74.8186 18.5984 0.0000 0.0000 0.0000
# 3 18.5984 18.5984 87.7597 0.0000 0.0000 0.0000
# 4 0.0000 0.0000 0.0000 16.3792 0.0000 0.0000
# 5 0.0000 0.0000 0.0000 0.0000 16.3792 0.0000
# 6 0.0000 0.0000 0.0000 0.0000 0.0000 28.0568
#
#
#
# Elastic Compliance Matrix: (Units=1/GPa)
#
#
# Indices 1 2 3 4 5 6 
#
# 1 0.014749 -0.003072 -0.002475 0.000000 0.000000 0.000000
# 2 -0.003072 0.014749 -0.002475 0.000000 0.000000 0.000000
# 3 -0.002475 -0.002475 0.012444 0.000000 0.000000 0.000000
# 4 0.000000 0.000000 0.000000 0.061053 0.000000 0.000000
# 5 0.000000 0.000000 0.000000 0.000000 0.061053 0.000000
# 6 0.000000 0.000000 0.000000 0.000000 0.000000 0.035642
#
#
# Mechanical properties :
#
#
# Convention : Reuss Voigt Hill
#
# Bulk Modulus (GPa) = 38.61196 38.80002 38.70599
# Shear Modulus (GPa) = 22.28517 24.26274 23.27396
#
# Velocity S-wave (km/s) = 3.58566 3.74138 3.66435
# Velocity P-wave (km/s) = 6.27846 6.40693 6.34302
#
# Compressibility (1/GPa) = 0.02589871
#
# Stress axis : x y z
#
# Youngs Moduli (GPa) = 67.80194 67.80194 80.36264
#
# Poissons Ratio (x) = 0.20830 0.19886
# Poissons Ratio (y) = 0.20830 0.19886
# Poissons Ratio (z) = 0.16778 0.16778
#
# Static dielectric constant tensor:
#      x y z
#    x 1.598950 0.000000 0.000000 
#    y 0.000000 1.598950 0.000000 
#    z 0.000000 0.000000 1.606570 
# 
# From -- ./inp_files/8810.got.cif
#   From: 2010.05.17/outbox.cif.g08.bks.cpg/sg178_5_cif.got.tgz:8810.got - 2010.05.20 11:30:59.
