data_PCOD9582087
_publ_section_title
;
Structure prediction by ZEFSAII (Michael W. Deem and Ramdas Pophale) SiO2 
 PCOD9582087
Probable space group: P 63/M
;
_chemical_formula_sum "Si O2"
_cell_formula_units_Z 58
_cell_length_a 14.553302
_cell_length_b 14.553302
_cell_length_c 15.994940
_cell_angle_alpha 90.000000
_cell_angle_beta 90.000000
_cell_angle_gamma 120.000000
_cell_volume 2933.839357
_symmetry_space_group_name_H-M "P 63/M"
_symmetry_group_IT_number 176
_symmetry_cell_setting 'hexagonal'
loop_
_space_group_symop_operation_xyz
x,y,z
x-y,x,1/2+z
-y,x-y,z
-x,-y,1/2+z
-x+y,-x,z
y,-x+y,1/2+z
-x,-y,-z
-x+y,-x,1/2-z
y,-x+y,-z
x,y,1/2-z
x-y,x,-z
-y,x-y,1/2-z
loop_
_atom_site_type_symbol
_atom_site_label
_atom_site_fract_x
_atom_site_fract_y
_atom_site_fract_z
Si Si1 0.239678 0.531045 0.750000
Si Si2 0.905365 0.421790 0.651727
Si Si3 0.822178 0.768543 0.651275
Si Si4 0.102459 0.411287 0.906372
Si Si5 0.439241 0.251945 0.591666
Si Si6 0.000000 0.000000 0.600059
O O1 0.367285 0.588700 0.750000
O O2 0.186552 0.462698 0.831813
O O3 0.916736 0.404803 0.750000
O O4 0.810579 0.312439 0.613375
O O5 0.873354 0.510999 0.640566
O O6 0.014126 0.447062 0.605932
O O7 0.799771 0.753325 0.750000
O O8 0.715567 0.749478 0.605435
O O9 0.848927 0.680137 0.619074
O O10 0.917300 0.884135 0.632897
O O11 0.161066 0.442000 0.994617
O O12 0.000000 0.000000 0.500000
#
# Coordination Sequence:
#
# PCOD9582087 Si02
#       6
#     6  12  12  12  12   4
#     4  10  24  42  66  88 132 174 216 256 322 394
#     4  11  22  42  64  93 135 170 211 271 327 385
#     4  11  23  46  66  93 132 170 215 272 332 383
#     4  11  22  44  62  95 132 173 211 273 321 382
#     4  11  24  38  67  97 126 172 222 264 321 392
#     4  12  25  44  67  99 127 170 223 277 323 388
#
# _framework density 19.769317999999998
#
# number of rings (size 3 to 8) (size 9 to 14) (size 15 to 20)
#    0.207    0.828    2.069    6.000    2.897    1.655 
#    3.724    0.000    0.000    0.000    0.000    0.000 
#    0.000    0.000    0.000    0.000    0.000    0.000 
#
# Total GULP energy -324336.318062 kJ/mol
# GULP energy per Si atom -5592.005484 kJ/mol
# Density = 1.972432 g / cm^3
# Si number density = 19.769318 Si / 1000 Ang^3
#
#
#
# Elastic Constant Matrix: (Units=GPa)
#
#
# Indices 1 2 3 4 5 6 
#
# 1 91.9631 48.5707 18.0192 0.0000 0.0000 0.0000
# 2 48.5707 91.9631 18.0192 0.0000 0.0000 0.0000
# 3 18.0192 18.0192 121.6070 0.0000 0.0000 0.0000
# 4 0.0000 0.0000 0.0000 24.7874 0.0000 0.0000
# 5 0.0000 0.0000 0.0000 0.0000 24.7874 0.0000
# 6 0.0000 0.0000 0.0000 0.0000 0.0000 21.6962
#
#
#
# Elastic Compliance Matrix: (Units=1/GPa)
#
#
# Indices 1 2 3 4 5 6 
#
# 1 0.015221 -0.007824 -0.001096 0.000000 0.000000 0.000000
# 2 -0.007824 0.015221 -0.001096 0.000000 0.000000 0.000000
# 3 -0.001096 -0.001096 0.008548 0.000000 0.000000 0.000000
# 4 0.000000 0.000000 0.000000 0.040343 0.000000 0.000000
# 5 0.000000 0.000000 0.000000 0.000000 0.040343 0.000000
# 6 0.000000 0.000000 0.000000 0.000000 0.000000 0.046091
#
#
# Mechanical properties :
#
#
# Convention : Reuss Voigt Hill
#
# Bulk Modulus (GPa) = 52.74958 52.75017 52.74988
# Shear Modulus (GPa) = 26.02549 28.98248 27.50399
#
# Velocity S-wave (km/s) = 3.63224 3.83304 3.73399
# Velocity P-wave (km/s) = 6.65818 6.80664 6.73282
#
# Compressibility (1/GPa) = 0.01895750
#
# Stress axis : x y z
#
# Youngs Moduli (GPa) = 65.69810 65.69810 116.98612
#
# Poissons Ratio (x) = 0.51405 0.12822
# Poissons Ratio (y) = 0.51405 0.12822
# Poissons Ratio (z) = 0.07201 0.07201
#
# Static dielectric constant tensor:
#      x y z
#    x 1.679990 0.000000 0.000000 
#    y 0.000000 1.679990 0.000000 
#    z 0.000000 0.000000 1.674540 
# 
# From -- ./inp_files/2681.got.cif
#   From: 2010.05.17/outbox.cif.g08.bks.cpg/sg176_2_cif.got.tgz:2681.got - 2010.06.03 11:36:45.
