data_PCOD9582508
_publ_section_title
;
Structure prediction by ZEFSAII (Michael W. Deem and Ramdas Pophale) SiO2 
 PCOD9582508
Probable space group: P 61 2 2
;
_chemical_formula_sum "Si O2"
_cell_formula_units_Z 84
_cell_length_a 14.926490
_cell_length_b 14.926490
_cell_length_c 22.383193
_cell_angle_alpha 90.000000
_cell_angle_beta 90.000000
_cell_angle_gamma 120.000000
_cell_volume 4318.849395
_symmetry_space_group_name_H-M "P 61 2 2"
_symmetry_group_IT_number 178
_symmetry_cell_setting 'hexagonal'
loop_
_space_group_symop_operation_xyz
x,y,z
x-y,x,1/6+z
-y,x-y,1/3+z
-x,-y,1/2+z
-x+y,-x,2/3+z
y,-x+y,5/6+z
x-y,-y,-z
-x,-x+y,2/3-z
y,x,1/3-z
-y,-x,5/6-z
-x+y,y,1/2-z
x,x-y,1/6-z
loop_
_atom_site_type_symbol
_atom_site_label
_atom_site_fract_x
_atom_site_fract_y
_atom_site_fract_z
Si Si1 0.662298 0.890564 0.642247
Si Si2 0.786861 0.657754 0.569926
Si Si3 0.838480 0.973282 0.933066
Si Si4 0.253446 0.007525 0.686117
Si Si5 0.743296 0.323218 0.204416
Si Si6 0.555569 0.425864 0.989452
Si Si7 0.083861 0.599556 0.522985
O O1 0.656798 0.828399 0.583334
O O2 0.691084 0.837353 0.696965
O O3 0.548523 0.870682 0.660060
O O4 0.733572 0.013553 0.625464
O O5 0.887503 0.680323 0.532352
O O6 0.711973 0.533393 0.565680
O O7 0.801269 0.853235 0.937289
O O8 0.787622 0.009289 0.882393
O O9 0.959666 0.040335 0.916667
O O10 0.820645 0.000000 0.000000
O O11 0.373955 0.072950 0.699823
O O12 0.666762 0.333524 0.250000
O O13 0.662598 0.231749 0.160261
O O14 0.814217 0.434036 0.176308
O O15 0.563461 0.436540 0.916667
O O16 0.542465 0.520630 0.011533
O O17 0.083565 0.541783 0.583334
#
# Coordination Sequence:
#
# PCOD9582508 Si02
#       7
#    12  12  12  12  12  12  12
#     4  12  25  42  68  98 142 185 232 294 360 426
#     4  12  23  42  69  99 136 182 237 287 353 425
#     4   9  21  41  63  97 138 170 213 283 349 408
#     4  11  22  38  72  97 131 178 232 282 344 411
#     4  11  22  40  65  93 138 176 227 292 350 410
#     4  10  19  40  65  92 128 175 223 281 341 408
#     4  11  23  37  66  99 127 172 236 280 339 416
#
# _framework density 19.449624
#
# number of rings (size 3 to 8) (size 9 to 14) (size 15 to 20)
#    0.000    1.143    5.714    2.143    2.000    2.857 
#    0.000    2.857    3.143    0.000    0.000    0.000 
#    0.000    0.000    0.000    0.000    0.000    0.000 
#
# Total GULP energy -468112.823476 kJ/mol
# GULP energy per Si atom -5572.771708 kJ/mol
# Density = 1.940536 g / cm^3
# Si number density = 19.449624 Si / 1000 Ang^3
#
#
#
# Elastic Constant Matrix: (Units=GPa)
#
#
# Indices 1 2 3 4 5 6 
#
# 1 130.0563 61.1008 39.2090 0.0000 0.0000 0.0000
# 2 61.1008 130.0563 39.2090 0.0000 0.0000 0.0000
# 3 39.2090 39.2090 88.3244 0.0000 0.0000 0.0000
# 4 0.0000 0.0000 0.0000 27.2731 0.0000 0.0000
# 5 0.0000 0.0000 0.0000 0.0000 27.2731 0.0000
# 6 0.0000 0.0000 0.0000 0.0000 0.0000 34.4777
#
#
#
# Elastic Compliance Matrix: (Units=1/GPa)
#
#
# Indices 1 2 3 4 5 6 
#
# 1 0.010449 -0.004053 -0.002839 0.000000 0.000000 0.000000
# 2 -0.004053 0.010449 -0.002839 0.000000 0.000000 0.000000
# 3 -0.002839 -0.002839 0.013843 0.000000 0.000000 0.000000
# 4 0.000000 0.000000 0.000000 0.036666 0.000000 0.000000
# 5 0.000000 0.000000 0.000000 0.000000 0.036666 0.000000
# 6 0.000000 0.000000 0.000000 0.000000 0.000000 0.029004
#
#
# Mechanical properties :
#
#
# Convention : Reuss Voigt Hill
#
# Bulk Modulus (GPa) = 65.45552 69.71941 67.58747
# Shear Modulus (GPa) = 30.93417 31.73265 31.33341
#
# Velocity S-wave (km/s) = 3.99240 4.04360 4.01809
# Velocity P-wave (km/s) = 7.41480 7.59769 7.50681
#
# Compressibility (1/GPa) = 0.01527755
#
# Stress axis : x y z
#
# Youngs Moduli (GPa) = 95.70203 95.70203 72.23978
#
# Poissons Ratio (x) = 0.38788 0.20511
# Poissons Ratio (y) = 0.38788 0.20511
# Poissons Ratio (z) = 0.27173 0.27173
#
# Static dielectric constant tensor:
#      x y z
#    x 1.728350 0.000000 0.000000 
#    y 0.000000 1.728350 0.000000 
#    z 0.000000 0.000000 1.733810 
# 
# From -- ./inp_files/8340.got.cif
#   From: 2010.05.17/outbox.cif.g08.bks.cpg/sg178_5_cif.got.tgz:8340.got - 2010.05.20 11:30:59.
