data_PCOD9582021
_publ_section_title
;
Structure prediction by ZEFSAII (Michael W. Deem and Ramdas Pophale) SiO2 
 PCOD9582021
Probable space group: P 63/M
;
_chemical_formula_sum "Si O2"
_cell_formula_units_Z 48
_cell_length_a 14.228787
_cell_length_b 14.228787
_cell_length_c 13.399704
_cell_angle_alpha 90.000000
_cell_angle_beta 90.000000
_cell_angle_gamma 120.000000
_cell_volume 2349.425039
_symmetry_space_group_name_H-M "P 63/M"
_symmetry_group_IT_number 176
_symmetry_cell_setting 'hexagonal'
loop_
_space_group_symop_operation_xyz
x,y,z
x-y,x,1/2+z
-y,x-y,z
-x,-y,1/2+z
-x+y,-x,z
y,-x+y,1/2+z
-x,-y,-z
-x+y,-x,1/2-z
y,-x+y,-z
x,y,1/2-z
x-y,x,-z
-y,x-y,1/2-z
loop_
_atom_site_type_symbol
_atom_site_label
_atom_site_fract_x
_atom_site_fract_y
_atom_site_fract_z
Si Si1 0.606877 0.594304 0.953306
Si Si2 0.334509 0.161841 0.474380
Si Si3 0.499655 0.414826 0.250000
Si Si4 0.244962 0.412657 0.750000
Si Si5 0.919409 0.856974 0.636411
O O1 0.633778 0.713890 0.987880
O O2 0.572926 0.587156 0.840588
O O3 0.500000 0.500000 0.000000
O O4 0.710055 0.583052 0.979686
O O5 0.343778 0.143027 0.354076
O O6 0.231779 0.098451 0.550958
O O7 0.623532 0.514638 0.250000
O O8 0.493874 0.298111 0.250000
O O9 0.885426 0.950041 0.627645
O O10 0.894431 0.813359 0.750000
#
# Coordination Sequence:
#
# PCOD9582021 Si02
#       5
#    12  12   6   6  12
#     4  11  25  46  67 104 140 183 236 301 354 433
#     4  11  24  42  71 105 142 187 241 291 363 428
#     4  10  21  44  69  97 139 177 248 294 364 418
#     4  10  21  42  69  99 135 191 242 306 362 418
#     4   8  19  42  70 104 150 197 231 273 343 431
#
# _framework density 20.430531999999999
#
# number of rings (size 3 to 8) (size 9 to 14) (size 15 to 20)
#    0.500    1.500    2.500    0.250    5.250    0.000 
#    6.000    2.500    0.000    0.000    0.000    0.000 
#    0.000    0.000    0.000    0.000    0.000    0.000 
#
# Total GULP energy -267409.792006 kJ/mol
# GULP energy per Si atom -5571.037333 kJ/mol
# Density = 2.038403 g / cm^3
# Si number density = 20.430532 Si / 1000 Ang^3
#
#
#
# Elastic Constant Matrix: (Units=GPa)
#
#
# Indices 1 2 3 4 5 6 
#
# 1 88.5892 40.0899 55.9906 0.0000 0.0000 0.0000
# 2 40.0899 88.5892 55.9906 0.0000 0.0000 0.0000
# 3 55.9906 55.9906 158.7377 0.0000 0.0000 0.0000
# 4 0.0000 0.0000 0.0000 30.9287 0.0000 0.0000
# 5 0.0000 0.0000 0.0000 0.0000 30.9287 0.0000
# 6 0.0000 0.0000 0.0000 0.0000 0.0000 24.2496
#
#
#
# Elastic Compliance Matrix: (Units=1/GPa)
#
#
# Indices 1 2 3 4 5 6 
#
# 1 0.015916 -0.004703 -0.003955 0.000000 0.000000 0.000000
# 2 -0.004703 0.015916 -0.003955 0.000000 0.000000 0.000000
# 3 -0.003955 -0.003955 0.009090 0.000000 0.000000 0.000000
# 4 0.000000 0.000000 0.000000 0.032332 0.000000 0.000000
# 5 0.000000 0.000000 0.000000 0.000000 0.032332 0.000000
# 6 0.000000 0.000000 0.000000 0.000000 0.000000 0.041238
#
#
# Mechanical properties :
#
#
# Convention : Reuss Voigt Hill
#
# Bulk Modulus (GPa) = 63.71212 71.11760 67.41486
# Shear Modulus (GPa) = 28.20353 29.47773 28.84063
#
# Velocity S-wave (km/s) = 3.71948 3.80258 3.76126
# Velocity P-wave (km/s) = 7.04972 7.35965 7.20635
#
# Compressibility (1/GPa) = 0.01569560
#
# Stress axis : x y z
#
# Youngs Moduli (GPa) = 62.82970 62.82970 110.01263
#
# Poissons Ratio (x) = 0.29548 0.43512
# Poissons Ratio (y) = 0.29548 0.43512
# Poissons Ratio (z) = 0.24850 0.24850
#
# Static dielectric constant tensor:
#      x y z
#    x 1.843300 0.000000 0.000000 
#    y 0.000000 1.843300 0.000000 
#    z 0.000000 0.000000 1.704290 
# 
# From -- ./inp_files/1690.got.cif
#   From: 2010.05.17/outbox.cif.g08.bks.cpg/sg176_1_cif.got.tgz:1690.got - 2010.06.03 11:36:45.
