data_PCOD9582689
_publ_section_title
;
Structure prediction by ZEFSAII (Michael W. Deem and Ramdas Pophale) SiO2 
 PCOD9582689
Probable space group: P 61 2 2
;
_chemical_formula_sum "Si O2"
_cell_formula_units_Z 54
_cell_length_a 17.273142
_cell_length_b 17.273142
_cell_length_c 12.244727
_cell_angle_alpha 90.000000
_cell_angle_beta 90.000000
_cell_angle_gamma 120.000000
_cell_volume 3163.897644
_symmetry_space_group_name_H-M "P 61 2 2"
_symmetry_group_IT_number 178
_symmetry_cell_setting 'hexagonal'
loop_
_space_group_symop_operation_xyz
x,y,z
x-y,x,1/6+z
-y,x-y,1/3+z
-x,-y,1/2+z
-x+y,-x,2/3+z
y,-x+y,5/6+z
x-y,-y,-z
-x,-x+y,2/3-z
y,x,1/3-z
-y,-x,5/6-z
-x+y,y,1/2-z
x,x-y,1/6-z
loop_
_atom_site_type_symbol
_atom_site_label
_atom_site_fract_x
_atom_site_fract_y
_atom_site_fract_z
Si Si1 0.422878 0.422878 0.666667
Si Si2 0.593816 0.403383 0.149794
Si Si3 0.772581 0.492730 0.017487
Si Si4 0.025246 0.419196 0.593359
Si Si5 0.722812 0.147015 0.338309
O O1 0.428085 0.517984 0.670763
O O2 0.381793 0.380336 0.550015
O O3 0.575006 0.348272 0.260779
O O4 0.521459 0.341353 0.059471
O O5 0.692578 0.444341 0.102535
O O6 0.753315 0.559347 0.945597
O O7 0.870901 0.542688 0.068970
O O8 0.007863 0.503932 0.583334
O O9 0.958530 0.341033 0.511776
O O10 0.809665 0.190336 0.416667
#
# Coordination Sequence:
#
# PCOD9582689 Si02
#       5
#     6  12  12  12  12
#     4  12  22  40  56  70 110 144 186 232 284 344
#     4  11  21  38  54  78 107 149 186 240 282 321
#     4  11  23  36  56  78 108 146 192 235 283 334
#     4  12  22  38  55  77 105 144 184 230 289 336
#     4  10  21  38  58  75 109 145 187 238 276 328
#
# _framework density 17.067554999999999
#
# number of rings (size 3 to 8) (size 9 to 14) (size 15 to 20)
#    0.000    0.889    6.667    0.667    0.000    8.000 
#    4.000    0.000    0.000    0.000    0.000    0.000 
#    0.000    0.000    0.000    8.000    0.000    0.000 
#
# Total GULP energy -301666.629691 kJ/mol
# GULP energy per Si atom -5586.419068 kJ/mol
# Density = 1.702871 g / cm^3
# Si number density = 17.067555 Si / 1000 Ang^3
#
#
#
# Elastic Constant Matrix: (Units=GPa)
#
#
# Indices 1 2 3 4 5 6 
#
# 1 79.3178 40.9053 35.6971 0.0000 0.0000 0.0000
# 2 40.9053 79.3178 35.6971 0.0000 0.0000 0.0000
# 3 35.6971 35.6971 80.3702 0.0000 0.0000 0.0000
# 4 0.0000 0.0000 0.0000 30.1701 0.0000 0.0000
# 5 0.0000 0.0000 0.0000 0.0000 30.1701 0.0000
# 6 0.0000 0.0000 0.0000 0.0000 0.0000 19.2062
#
#
#
# Elastic Compliance Matrix: (Units=1/GPa)
#
#
# Indices 1 2 3 4 5 6 
#
# 1 0.018666 -0.007368 -0.005018 0.000000 0.000000 0.000000
# 2 -0.007368 0.018666 -0.005018 0.000000 0.000000 0.000000
# 3 -0.005018 -0.005018 0.016900 0.000000 0.000000 0.000000
# 4 0.000000 0.000000 0.000000 0.033145 0.000000 0.000000
# 5 0.000000 0.000000 0.000000 0.000000 0.033145 0.000000
# 6 0.000000 0.000000 0.000000 0.000000 0.000000 0.052066
#
#
# Mechanical properties :
#
#
# Convention : Reuss Voigt Hill
#
# Bulk Modulus (GPa) = 51.48386 51.51164 51.49775
# Shear Modulus (GPa) = 23.37867 24.35638 23.86752
#
# Velocity S-wave (km/s) = 3.70506 3.78174 3.74360
# Velocity P-wave (km/s) = 6.96660 7.02248 6.99460
#
# Compressibility (1/GPa) = 0.01942356
#
# Stress axis : x y z
#
# Youngs Moduli (GPa) = 53.57477 53.57477 59.17164
#
# Poissons Ratio (x) = 0.39472 0.29692
# Poissons Ratio (y) = 0.39472 0.29692
# Poissons Ratio (z) = 0.26884 0.26884
#
# Static dielectric constant tensor:
#      x y z
#    x 1.585690 0.000000 0.000000 
#    y 0.000000 1.585690 0.000000 
#    z 0.000000 0.000000 1.659290 
# 
# From -- ./inp_files/4376.got.cif
#   From: 2010.05.17/outbox.cif.g08.bks.cpg/sg178_3_cif.got.tgz:4376.got - 2010.05.20 11:30:59.
