data_PCOD9582763
_publ_section_title
;
Structure prediction by ZEFSAII (Michael W. Deem and Ramdas Pophale) SiO2 
 PCOD9582763
Probable space group: P 61 2 2
;
_chemical_formula_sum "Si O2"
_cell_formula_units_Z 42
_cell_length_a 11.625007
_cell_length_b 11.625007
_cell_length_c 17.251058
_cell_angle_alpha 90.000000
_cell_angle_beta 90.000000
_cell_angle_gamma 120.000000
_cell_volume 2018.983702
_symmetry_space_group_name_H-M "P 61 2 2"
_symmetry_group_IT_number 178
_symmetry_cell_setting 'hexagonal'
loop_
_space_group_symop_operation_xyz
x,y,z
x-y,x,1/6+z
-y,x-y,1/3+z
-x,-y,1/2+z
-x+y,-x,2/3+z
y,-x+y,5/6+z
x-y,-y,-z
-x,-x+y,2/3-z
y,x,1/3-z
-y,-x,5/6-z
-x+y,y,1/2-z
x,x-y,1/6-z
loop_
_atom_site_type_symbol
_atom_site_label
_atom_site_fract_x
_atom_site_fract_y
_atom_site_fract_z
Si Si1 0.910629 0.361149 0.408010
Si Si2 0.989935 0.360342 0.095466
Si Si3 0.103348 0.374606 0.942256
Si Si4 0.934615 0.869229 0.250000
O O1 0.757162 0.242839 0.416667
O O2 0.917519 0.504404 0.415966
O O3 0.000000 0.375320 0.333334
O O4 0.975898 0.333683 0.482600
O O5 0.980446 0.490223 0.083334
O O6 0.847819 0.237592 0.075693
O O7 0.101838 0.375364 0.035983
O O8 0.996000 0.223333 0.923410
O O9 0.948428 0.948428 0.166667
#
# Coordination Sequence:
#
# PCOD9582763 Si02
#       4
#    12  12  12   6
#     4  11  24  43  68 101 140 184 237 294 365 433
#     4  10  22  40  63  93 135 176 227 288 347 428
#     4  11  22  42  67  98 135 180 234 290 357 426
#     4  12  24  44  70 106 142 188 248 300 368 446
#
# _framework density 20.802544999999999
#
# number of rings (size 3 to 8) (size 9 to 14) (size 15 to 20)
#    0.000    1.143    2.857    3.429    0.000    0.000 
#    2.571    0.000    0.000    0.000    0.000    0.000 
#    0.000    0.000    0.000    0.000    0.000    0.000 
#
# Total GULP energy -233918.715316 kJ/mol
# GULP energy per Si atom -5569.493222 kJ/mol
# Density = 2.075520 g / cm^3
# Si number density = 20.802545 Si / 1000 Ang^3
#
#
#
# Elastic Constant Matrix: (Units=GPa)
#
#
# Indices 1 2 3 4 5 6 
#
# 1 64.2936 12.5453 20.1366 0.0000 0.0000 0.0000
# 2 12.5453 64.2936 20.1366 0.0000 0.0000 0.0000
# 3 20.1366 20.1366 152.1685 0.0000 0.0000 0.0000
# 4 0.0000 0.0000 0.0000 15.0380 0.0000 0.0000
# 5 0.0000 0.0000 0.0000 0.0000 15.0380 0.0000
# 6 0.0000 0.0000 0.0000 0.0000 0.0000 25.8742
#
#
#
# Elastic Compliance Matrix: (Units=1/GPa)
#
#
# Indices 1 2 3 4 5 6 
#
# 1 0.016654 -0.002670 -0.001851 0.000000 0.000000 0.000000
# 2 -0.002670 0.016654 -0.001851 0.000000 0.000000 0.000000
# 3 -0.001851 -0.001851 0.007061 0.000000 0.000000 0.000000
# 4 0.000000 0.000000 0.000000 0.066498 0.000000 0.000000
# 5 0.000000 0.000000 0.000000 0.000000 0.066498 0.000000
# 6 0.000000 0.000000 0.000000 0.000000 0.000000 0.038649
#
#
# Mechanical properties :
#
#
# Convention : Reuss Voigt Hill
#
# Bulk Modulus (GPa) = 36.19569 42.93251 39.56410
# Shear Modulus (GPa) = 21.37059 26.38585 23.87822
#
# Velocity S-wave (km/s) = 3.20864 3.56532 3.39167
# Velocity P-wave (km/s) = 5.58252 6.13446 5.86499
#
# Compressibility (1/GPa) = 0.02762760
#
# Stress axis : x y z
#
# Youngs Moduli (GPa) = 60.04481 60.04481 141.61444
#
# Poissons Ratio (x) = 0.16032 0.26206
# Poissons Ratio (y) = 0.16032 0.26206
# Poissons Ratio (z) = 0.11111 0.11111
#
# Static dielectric constant tensor:
#      x y z
#    x 1.758280 0.000000 0.000000 
#    y 0.000000 1.758280 0.000000 
#    z 0.000000 0.000000 1.899090 
# 
# From -- ./inp_files/6351.got.cif
#   From: 2010.05.17/outbox.cif.g08.bks.cpg/sg178_4_cif.got.tgz:6351.got - 2010.05.20 11:30:59.
