data_PCOD9582415
_publ_section_title
;
Structure prediction by ZEFSAII (Michael W. Deem and Ramdas Pophale) SiO2 
 PCOD9582415
Probable space group: P 61 2 2
;
_chemical_formula_sum "Si O2"
_cell_formula_units_Z 66
_cell_length_a 21.884834
_cell_length_b 21.884834
_cell_length_c 8.712361
_cell_angle_alpha 90.000000
_cell_angle_beta 90.000000
_cell_angle_gamma 120.000000
_cell_volume 3613.707587
_symmetry_space_group_name_H-M "P 61 2 2"
_symmetry_group_IT_number 178
_symmetry_cell_setting 'hexagonal'
loop_
_space_group_symop_operation_xyz
x,y,z
x-y,x,1/6+z
-y,x-y,1/3+z
-x,-y,1/2+z
-x+y,-x,2/3+z
y,-x+y,5/6+z
x-y,-y,-z
-x,-x+y,2/3-z
y,x,1/3-z
-y,-x,5/6-z
-x+y,y,1/2-z
x,x-y,1/6-z
loop_
_atom_site_type_symbol
_atom_site_label
_atom_site_fract_x
_atom_site_fract_y
_atom_site_fract_z
Si Si1 0.317441 0.317441 0.166667
Si Si2 0.262188 0.737812 0.416667
Si Si3 0.957780 0.095939 0.673298
Si Si4 0.094322 0.290253 0.117761
Si Si5 0.468824 0.331572 0.183162
Si Si6 0.181429 0.735262 0.131929
Si Si7 0.816753 0.408377 0.083334
O O1 0.259732 0.285475 0.302099
O O2 0.394217 0.328407 0.206404
O O3 0.198870 0.719213 0.298689
O O4 0.334069 0.764775 0.327192
O O5 0.921169 0.141733 0.637918
O O6 0.013895 0.110316 0.538887
O O7 0.000000 0.122848 0.833334
O O8 0.150427 0.300854 0.250000
O O9 0.129354 0.362641 0.024277
O O10 0.458830 0.257028 0.240628
O O11 0.532036 0.391653 0.285430
O O12 0.477368 0.326198 0.998215
#
# Coordination Sequence:
#
# PCOD9582415 Si02
#       7
#     6   6  12  12  12  12   6
#     4  10  18  34  60  84 116 152 190 242 298 356
#     4  10  22  36  60  88 115 160 190 246 298 353
#     4  10  23  41  52  78 116 154 195 252 314 368
#     4  11  19  36  61  89 105 149 205 252 292 356
#     4   9  18  36  58  82 119 152 190 246 291 360
#     4   9  18  36  58  84 115 148 195 249 299 334
#     4  10  22  38  56  90 117 154 202 232 302 365
#
# _framework density 18.26379
#
# number of rings (size 3 to 8) (size 9 to 14) (size 15 to 20)
#    0.000    2.182    3.636    1.091    0.000    5.091 
#   13.091    3.636    0.000    0.000    0.000    0.000 
#    0.000    0.000    0.000    0.000    0.000    0.000 
#
# Total GULP energy -367730.661454 kJ/mol
# GULP energy per Si atom -5571.676689 kJ/mol
# Density = 1.822222 g / cm^3
# Si number density = 18.263790 Si / 1000 Ang^3
#
#
#
# Elastic Constant Matrix: (Units=GPa)
#
#
# Indices 1 2 3 4 5 6 
#
# 1 83.8189 31.4344 48.5149 0.0000 0.0000 0.0000
# 2 31.4344 83.8189 48.5149 0.0000 0.0000 0.0000
# 3 48.5149 48.5149 87.7414 0.0000 0.0000 0.0000
# 4 0.0000 0.0000 0.0000 26.3209 0.0000 0.0000
# 5 0.0000 0.0000 0.0000 0.0000 26.3209 0.0000
# 6 0.0000 0.0000 0.0000 0.0000 0.0000 26.1923
#
#
#
# Elastic Compliance Matrix: (Units=1/GPa)
#
#
# Indices 1 2 3 4 5 6 
#
# 1 0.017661 -0.001428 -0.008976 0.000000 0.000000 0.000000
# 2 -0.001428 0.017661 -0.008976 0.000000 0.000000 0.000000
# 3 -0.008976 -0.008976 0.021323 0.000000 0.000000 0.000000
# 4 0.000000 0.000000 0.000000 0.037993 0.000000 0.000000
# 5 0.000000 0.000000 0.000000 0.000000 0.037993 0.000000
# 6 0.000000 0.000000 0.000000 0.000000 0.000000 0.038179
#
#
# Mechanical properties :
#
#
# Convention : Reuss Voigt Hill
#
# Bulk Modulus (GPa) = 55.90911 56.92308 56.41609
# Shear Modulus (GPa) = 23.19844 24.22783 23.71313
#
# Velocity S-wave (km/s) = 3.56784 3.64613 3.60720
# Velocity P-wave (km/s) = 6.90297 6.99718 6.95024
#
# Compressibility (1/GPa) = 0.01788617
#
# Stress axis : x y z
#
# Youngs Moduli (GPa) = 56.62086 56.62086 46.89760
#
# Poissons Ratio (x) = 0.08087 0.42094
# Poissons Ratio (y) = 0.08087 0.42094
# Poissons Ratio (z) = 0.50821 0.50821
#
# Static dielectric constant tensor:
#      x y z
#    x 1.623820 0.000000 0.000000 
#    y 0.000000 1.623820 0.000000 
#    z 0.000000 0.000000 1.705100 
# 
# From -- ./inp_files/3320.got.cif
#   From: 2010.05.17/outbox.cif.g08.bks.cpg/sg178_2_cif.got.tgz:3320.got - 2010.05.20 11:30:59.
