data_PCOD9582174
_publ_section_title
;
Structure prediction by ZEFSAII (Michael W. Deem and Ramdas Pophale) SiO2 
 PCOD9582174
Probable space group: P 6 2 2
;
_chemical_formula_sum "Si O2"
_cell_formula_units_Z 84
_cell_length_a 19.907483
_cell_length_b 19.907483
_cell_length_c 12.574352
_cell_angle_alpha 90.000000
_cell_angle_beta 90.000000
_cell_angle_gamma 120.000000
_cell_volume 4315.677191
_symmetry_space_group_name_H-M "P 6 2 2"
_symmetry_group_IT_number 177
_symmetry_cell_setting 'hexagonal'
loop_
_space_group_symop_operation_xyz
x,y,z
x-y,x,z
-y,x-y,z
-x,-y,z
-x+y,-x,z
y,-x+y,z
x-y,-y,-z
-x,-x+y,-z
y,x,-z
-y,-x,-z
-x+y,y,-z
x,x-y,-z
loop_
_atom_site_type_symbol
_atom_site_label
_atom_site_fract_x
_atom_site_fract_y
_atom_site_fract_z
Si Si1 0.715811 0.825476 0.313937
Si Si2 0.679950 0.134630 0.716028
Si Si3 0.545631 0.703250 0.267099
Si Si4 0.458932 0.906547 0.875433
Si Si5 0.482063 0.817769 0.508078
Si Si6 0.257635 0.297839 0.390123
Si Si7 0.906038 0.815538 0.117977
O O1 0.637738 0.748245 0.279569
O O2 0.699497 0.877359 0.396132
O O3 0.766355 0.789459 0.357037
O O4 0.753144 0.876798 0.210414
O O5 0.754312 0.221512 0.736322
O O6 0.618394 0.122275 0.805452
O O7 0.646910 0.132383 0.597674
O O8 0.700973 0.066148 0.700059
O O9 0.509317 0.638864 0.175001
O O10 0.511213 0.656695 0.377267
O O11 0.500000 0.000000 0.868062
O O12 0.442751 0.885502 0.000000
O O13 0.390340 0.780680 0.500000
O O14 0.506967 0.753484 0.500000
O O15 0.305093 0.305093 0.500000
O O16 0.867652 0.869071 0.126588
O O17 0.889662 0.779323 0.000000
#
# Coordination Sequence:
#
# PCOD9582174 Si02
#       7
#    12  12  12  12  12  12  12
#     4  11  21  38  60  88 127 163 204 254 309 381
#     4  10  22  40  64  92 122 162 209 257 316 380
#     4  10  22  40  62  92 125 156 207 258 312 374
#     4  11  24  44  63  87 124 168 213 261 319 372
#     4  10  18  34  61  90 120 151 191 252 310 367
#     4  11  22  38  61  91 125 166 207 253 315 380
#     4  10  20  38  62  91 118 156 209 266 316 362
#
# _framework density 19.463922
#
# number of rings (size 3 to 8) (size 9 to 14) (size 15 to 20)
#    0.000    1.571    2.857    2.429    0.000    3.429 
#    6.000    2.143    0.000    0.000    0.000    2.000 
#    0.000    0.000    0.000    0.000    0.000    0.000 
#
# Total GULP energy -467649.805729 kJ/mol
# GULP energy per Si atom -5567.259592 kJ/mol
# Density = 1.941962 g / cm^3
# Si number density = 19.463922 Si / 1000 Ang^3
#
#
#
# Elastic Constant Matrix: (Units=GPa)
#
#
# Indices 1 2 3 4 5 6 
#
# 1 96.1868 23.8009 44.2739 0.0000 0.0000 0.0000
# 2 23.8009 96.1868 44.2739 0.0000 0.0000 0.0000
# 3 44.2739 44.2739 130.5848 0.0000 0.0000 0.0000
# 4 0.0000 0.0000 0.0000 28.9285 0.0000 0.0000
# 5 0.0000 0.0000 0.0000 0.0000 28.9285 0.0000
# 6 0.0000 0.0000 0.0000 0.0000 0.0000 36.1929
#
#
#
# Elastic Compliance Matrix: (Units=1/GPa)
#
#
# Indices 1 2 3 4 5 6 
#
# 1 0.012465 -0.001350 -0.003769 0.000000 0.000000 0.000000
# 2 -0.001350 0.012465 -0.003769 0.000000 0.000000 0.000000
# 3 -0.003769 -0.003769 0.010213 0.000000 0.000000 0.000000
# 4 0.000000 0.000000 0.000000 0.034568 0.000000 0.000000
# 5 0.000000 0.000000 0.000000 0.000000 0.034568 0.000000
# 6 0.000000 0.000000 0.000000 0.000000 0.000000 0.027630
#
#
# Mechanical properties :
#
#
# Convention : Reuss Voigt Hill
#
# Bulk Modulus (GPa) = 57.57191 60.85068 59.21129
# Shear Modulus (GPa) = 32.15997 32.85063 32.50530
#
# Velocity S-wave (km/s) = 4.06924 4.11271 4.09103
# Velocity P-wave (km/s) = 7.19175 7.34055 7.26653
#
# Compressibility (1/GPa) = 0.01736958
#
# Stress axis : x y z
#
# Youngs Moduli (GPa) = 80.22420 80.22420 97.91172
#
# Poissons Ratio (x) = 0.10828 0.36899
# Poissons Ratio (y) = 0.10828 0.36899
# Poissons Ratio (z) = 0.30233 0.30233
#
# Static dielectric constant tensor:
#      x y z
#    x 1.732510 0.000000 0.000000 
#    y 0.000000 1.732510 0.000000 
#    z 0.000000 0.000000 1.712050 
# 
# From -- ./inp_files/2100.got.cif
#   From: 2010.05.17/outbox.cif.g08.bks.cpg/sg177_2_cif.got.tgz:2100.got - 2010.05.20 11:28:44.
