data_PCOD9582046
_publ_section_title
;
Structure prediction by ZEFSAII (Michael W. Deem and Ramdas Pophale) SiO2 
 PCOD9582046
Probable space group: P 63/M
;
_chemical_formula_sum "Si O2"
_cell_formula_units_Z 70
_cell_length_a 14.149317
_cell_length_b 14.149317
_cell_length_c 18.998462
_cell_angle_alpha 90.000000
_cell_angle_beta 90.000000
_cell_angle_gamma 120.000000
_cell_volume 3293.972957
_symmetry_space_group_name_H-M "P 63/M"
_symmetry_group_IT_number 176
_symmetry_cell_setting 'hexagonal'
loop_
_space_group_symop_operation_xyz
x,y,z
x-y,x,1/2+z
-y,x-y,z
-x,-y,1/2+z
-x+y,-x,z
y,-x+y,1/2+z
-x,-y,-z
-x+y,-x,1/2-z
y,-x+y,-z
x,y,1/2-z
x-y,x,-z
-y,x-y,1/2-z
loop_
_atom_site_type_symbol
_atom_site_label
_atom_site_fract_x
_atom_site_fract_y
_atom_site_fract_z
Si Si1 0.332014 0.861976 0.616777
Si Si2 0.890801 0.669979 0.250000
Si Si3 0.140512 0.723655 0.250000
Si Si4 0.520630 0.112453 0.887979
Si Si5 0.738866 0.011849 0.750000
Si Si6 0.236706 0.398147 0.493909
Si Si7 0.666668 0.333334 0.334049
Si Si8 0.951444 0.653267 0.905890
O O1 0.252028 0.845808 0.681547
O O2 0.260447 0.824764 0.547350
O O3 0.384611 0.787851 0.635647
O O4 0.424505 0.986364 0.611128
O O5 0.853309 0.760997 0.250000
O O6 0.017324 0.703613 0.250000
O O7 0.158438 0.663953 0.317207
O O8 0.203611 0.854733 0.250000
O O9 0.500987 0.168035 0.954750
O O10 0.629313 0.106647 0.896835
O O11 0.692570 0.996970 0.829139
O O12 0.146261 0.326994 0.433887
O O13 0.290963 0.339474 0.537046
O O14 0.666667 0.333334 0.250000
#
# Coordination Sequence:
#
# PCOD9582046 Si02
#       8
#    12   6   6  12   6  12   4  12
#     4  11  23  38  62  92 132 171 219 275 339 401
#     4  10  22  40  66  94 130 177 224 278 340 402
#     4  10  23  45  70  99 133 181 237 290 333 421
#     4  11  24  45  64  94 135 177 224 281 342 411
#     4  12  23  45  72  97 131 190 227 276 355 419
#     4  12  24  42  65  96 132 178 220 282 346 409
#     4  12  24  36  57  96 129 163 218 277 327 405
#     4  12  26  44  70  98 138 181 232 283 354 423
#
# _framework density 21.250934000000001
#
# number of rings (size 3 to 8) (size 9 to 14) (size 15 to 20)
#    0.000    0.686    6.000    2.057    2.400    0.000 
#    1.543    0.000    0.000    0.343    0.000    0.000 
#    0.000    0.000    0.000    0.000    0.000    0.000 
#
# Total GULP energy -390316.009652 kJ/mol
# GULP energy per Si atom -5575.942995 kJ/mol
# Density = 2.120257 g / cm^3
# Si number density = 21.250934 Si / 1000 Ang^3
#
#
#
# Elastic Constant Matrix: (Units=GPa)
#
#
# Indices 1 2 3 4 5 6 
#
# 1 58.7179 19.0331 25.2212 0.0000 0.0000 0.0001
# 2 19.0331 58.7174 25.2211 0.0000 0.0000 0.0002
# 3 25.2212 25.2211 122.4493 0.0000 0.0000 0.0001
# 4 0.0000 0.0000 0.0000 20.3547 0.0001 0.0000
# 5 0.0000 0.0000 0.0000 0.0001 20.3548 0.0000
# 6 0.0001 0.0002 0.0001 0.0000 0.0000 19.8420
#
#
#
# Elastic Compliance Matrix: (Units=1/GPa)
#
#
# Indices 1 2 3 4 5 6 
#
# 1 0.020022 -0.005177 -0.003058 0.000000 0.000000 0.000000
# 2 -0.005177 0.020022 -0.003058 0.000000 0.000000 0.000000
# 3 -0.003058 -0.003058 0.009426 0.000000 0.000000 0.000000
# 4 0.000000 0.000000 0.000000 0.049129 0.000000 0.000000
# 5 0.000000 0.000000 0.000000 0.000000 0.049129 0.000000
# 6 0.000000 0.000000 0.000000 0.000000 0.000000 0.050398
#
#
# Mechanical properties :
#
#
# Convention : Reuss Voigt Hill
#
# Bulk Modulus (GPa) = 37.19397 42.09282 39.64340
# Shear Modulus (GPa) = 21.77020 23.47093 22.62056
#
# Velocity S-wave (km/s) = 3.20415 3.32696 3.26613
# Velocity P-wave (km/s) = 5.58830 5.88292 5.73750
#
# Compressibility (1/GPa) = 0.02688608
#
# Stress axis : x y z
#
# Youngs Moduli (GPa) = 49.94518 49.94475 106.08665
#
# Poissons Ratio (x) = 0.25855 0.32438
# Poissons Ratio (y) = 0.25855 0.32439
# Poissons Ratio (z) = 0.15272 0.15272
#
# Static dielectric constant tensor:
#      x y z
#    x 1.790370 0.000000 0.000000 
#    y 0.000000 1.790380 0.000000 
#    z 0.000000 0.000000 1.849010 
# 
# From -- ./inp_files/3419.got.cif
#   From: 2010.05.17/outbox.cif.g08.bks.cpg/sg176_2_cif.got.tgz:3419.got - 2010.06.03 11:36:45.
