data_PCOD9582659
_publ_section_title
;
Structure prediction by ZEFSAII (Michael W. Deem and Ramdas Pophale) SiO2 
 PCOD9582659
Probable space group: P 61 2 2
;
_chemical_formula_sum "Si O2"
_cell_formula_units_Z 54
_cell_length_a 10.666543
_cell_length_b 10.666543
_cell_length_c 24.749058
_cell_angle_alpha 90.000000
_cell_angle_beta 90.000000
_cell_angle_gamma 120.000000
_cell_volume 2438.578172
_symmetry_space_group_name_H-M "P 61 2 2"
_symmetry_group_IT_number 178
_symmetry_cell_setting 'hexagonal'
loop_
_space_group_symop_operation_xyz
x,y,z
x-y,x,1/6+z
-y,x-y,1/3+z
-x,-y,1/2+z
-x+y,-x,2/3+z
y,-x+y,5/6+z
x-y,-y,-z
-x,-x+y,2/3-z
y,x,1/3-z
-y,-x,5/6-z
-x+y,y,1/2-z
x,x-y,1/6-z
loop_
_atom_site_type_symbol
_atom_site_label
_atom_site_fract_x
_atom_site_fract_y
_atom_site_fract_z
Si Si1 0.602026 0.063245 0.122185
Si Si2 0.872966 0.611176 0.979421
Si Si3 0.222240 0.444480 0.750000
Si Si4 0.170859 0.608107 0.845924
Si Si5 0.137674 0.849537 0.027984
O O1 0.708047 0.169702 0.167752
O O2 0.614077 0.167755 0.072817
O O3 0.435336 0.953036 0.139053
O O4 0.645646 0.946020 0.100396
O O5 0.880699 0.681717 0.921471
O O6 0.970508 0.733993 0.022601
O O7 0.231170 0.545525 0.800427
O O8 0.217028 0.774689 0.837265
O O9 0.000000 0.531174 0.833334
O O10 0.177876 0.000000 0.000000
#
# Coordination Sequence:
#
# PCOD9582659 Si02
#       5
#    12  12   6  12  12
#     4  11  26  45  71 113 153 199 251 325 395 464
#     4  12  27  46  74 114 151 199 257 318 389 472
#     4  10  20  44  72 102 150 194 248 310 394 464
#     4   9  19  42  70  96 140 197 241 303 394 457
#     4  11  23  48  72 103 144 201 255 307 380 465
#
# _framework density 22.144051000000001
#
# number of rings (size 3 to 8) (size 9 to 14) (size 15 to 20)
#    0.000    1.333    6.667    0.667    6.222    0.889 
#    4.000    0.000    0.000    0.000    0.000    0.000 
#    0.000    0.000    0.000    0.000    0.000    0.000 
#
# Total GULP energy -301713.658542 kJ/mol
# GULP energy per Si atom -5587.289973 kJ/mol
# Density = 2.209365 g / cm^3
# Si number density = 22.144051 Si / 1000 Ang^3
#
#
#
# Elastic Constant Matrix: (Units=GPa)
#
#
# Indices 1 2 3 4 5 6 
#
# 1 101.1854 33.4270 30.6757 0.0000 0.0000 0.0000
# 2 33.4270 101.1854 30.6757 0.0000 0.0000 0.0000
# 3 30.6757 30.6757 56.6698 0.0000 0.0000 0.0000
# 4 0.0000 0.0000 0.0000 33.7714 0.0000 0.0000
# 5 0.0000 0.0000 0.0000 0.0000 33.7714 0.0000
# 6 0.0000 0.0000 0.0000 0.0000 0.0000 33.8792
#
#
#
# Elastic Compliance Matrix: (Units=1/GPa)
#
#
# Indices 1 2 3 4 5 6 
#
# 1 0.012310 -0.002448 -0.005338 0.000000 0.000000 0.000000
# 2 -0.002448 0.012310 -0.005338 0.000000 0.000000 0.000000
# 3 -0.005338 -0.005338 0.023425 0.000000 0.000000 0.000000
# 4 0.000000 0.000000 0.000000 0.029611 0.000000 0.000000
# 5 0.000000 0.000000 0.000000 0.000000 0.029611 0.000000
# 6 0.000000 0.000000 0.000000 0.000000 0.000000 0.029517
#
#
# Mechanical properties :
#
#
# Convention : Reuss Voigt Hill
#
# Bulk Modulus (GPa) = 45.88021 49.84415 47.86218
# Shear Modulus (GPa) = 29.36023 31.23520 30.29772
#
# Velocity S-wave (km/s) = 3.64521 3.75980 3.70295
# Velocity P-wave (km/s) = 6.20328 6.43475 6.32007
#
# Compressibility (1/GPa) = 0.02179589
#
# Stress axis : x y z
#
# Youngs Moduli (GPa) = 81.23474 81.23474 42.68893
#
# Poissons Ratio (x) = 0.19889 0.22788
# Poissons Ratio (y) = 0.19889 0.22788
# Poissons Ratio (z) = 0.43365 0.43365
#
# Static dielectric constant tensor:
#      x y z
#    x 1.852490 0.000000 0.000000 
#    y 0.000000 1.852490 0.000000 
#    z 0.000000 0.000000 1.844360 
# 
# From -- ./inp_files/8119.got.cif
#   From: 2010.05.17/outbox.cif.g08.bks.cpg/sg178_5_cif.got.tgz:8119.got - 2010.05.20 11:30:59.
