data_PCOD9582161
_publ_section_title
;
Structure prediction by ZEFSAII (Michael W. Deem and Ramdas Pophale) SiO2 
 PCOD9582161
Probable space group: P 6 2 2
;
_chemical_formula_sum "Si O2"
_cell_formula_units_Z 58
_cell_length_a 17.758998
_cell_length_b 17.758998
_cell_length_c 13.747415
_cell_angle_alpha 90.000000
_cell_angle_beta 90.000000
_cell_angle_gamma 120.000000
_cell_volume 3754.815409
_symmetry_space_group_name_H-M "P 6 2 2"
_symmetry_group_IT_number 177
_symmetry_cell_setting 'hexagonal'
loop_
_space_group_symop_operation_xyz
x,y,z
x-y,x,z
-y,x-y,z
-x,-y,z
-x+y,-x,z
y,-x+y,z
x-y,-y,-z
-x,-x+y,-z
y,x,-z
-y,-x,-z
-x+y,y,-z
x,x-y,-z
loop_
_atom_site_type_symbol
_atom_site_label
_atom_site_fract_x
_atom_site_fract_y
_atom_site_fract_z
Si Si1 0.965777 0.638565 0.390727
Si Si2 0.666667 0.333334 0.114869
Si Si3 0.500000 0.500000 0.722493
Si Si4 0.824143 0.823097 0.381430
Si Si5 0.377668 0.814878 0.743753
Si Si6 0.730251 0.499521 0.610341
O O1 0.998572 0.735171 0.349428
O O2 0.860856 0.587458 0.393535
O O3 0.000000 0.649697 0.500000
O O4 0.989918 0.571907 0.339239
O O5 0.588804 0.247916 0.164610
O O6 0.666668 0.333334 0.000000
O O7 0.534853 0.445373 0.778245
O O8 0.912790 0.824366 0.352253
O O9 0.821725 0.821725 0.500000
O O10 0.301089 0.808496 0.675943
O O11 0.428073 0.783327 0.668997
O O12 0.736571 0.473141 0.500000
#
# Coordination Sequence:
#
# PCOD9582161 Si02
#       6
#    12   4   6  12  12  12
#     4  10  20  27  41  61  87 127 161 198 231 268
#     4   9  18  36  55  71  85 111 150 186 229 287
#     4  10  19  32  41  64  98 118 146 188 234 278
#     4   9  18  29  41  55  75 109 160 213 246 267
#     4   9  19  31  46  67  90 120 151 189 230 270
#     4  10  18  27  43  61  92 128 161 190 219 268
#
# _framework density 15.446831
#
# number of rings (size 3 to 8) (size 9 to 14) (size 15 to 20)
#    0.000    2.483    0.000    2.793    8.690    4.138 
#    0.000    0.517    0.000    0.000    0.000    0.000 
#    0.000    0.000    0.000    0.000    0.000    0.000 
#
# Total GULP energy -322935.229630 kJ/mol
# GULP energy per Si atom -5567.848787 kJ/mol
# Density = 1.541167 g / cm^3
# Si number density = 15.446831 Si / 1000 Ang^3
#
#
#
# Elastic Constant Matrix: (Units=GPa)
#
#
# Indices 1 2 3 4 5 6 
#
# 1 83.0359 31.5010 15.5288 0.0000 -0.0001 0.0000
# 2 31.5010 83.0359 15.5287 0.0000 0.0000 0.0000
# 3 15.5288 15.5287 63.7053 0.0001 0.0000 0.0000
# 4 0.0000 0.0000 0.0001 4.6513 0.0000 0.0000
# 5 -0.0001 0.0000 0.0000 0.0000 4.6513 0.0000
# 6 0.0000 0.0000 0.0000 0.0000 0.0000 25.7675
#
#
#
# Elastic Compliance Matrix: (Units=1/GPa)
#
#
# Indices 1 2 3 4 5 6 
#
# 1 0.014377 -0.005028 -0.002279 0.000000 0.000000 0.000000
# 2 -0.005028 0.014377 -0.002279 0.000000 0.000000 0.000000
# 3 -0.002279 -0.002279 0.016808 0.000000 0.000000 0.000000
# 4 0.000000 0.000000 0.000000 0.214994 0.000001 0.000000
# 5 0.000000 0.000000 0.000000 0.000001 0.214993 0.000000
# 6 0.000000 0.000000 0.000000 0.000000 0.000000 0.038809
#
#
# Mechanical properties :
#
#
# Convention : Reuss Voigt Hill
#
# Bulk Modulus (GPa) = 37.89262 39.43269 38.66266
# Shear Modulus (GPa) = 9.21958 18.16192 13.69075
#
# Velocity S-wave (km/s) = 2.44572 3.43267 2.98033
# Velocity P-wave (km/s) = 5.70611 6.42607 6.07676
#
# Compressibility (1/GPa) = 0.02639036
#
# Stress axis : x y z
#
# Youngs Moduli (GPa) = 69.55775 69.55779 59.49460
#
# Poissons Ratio (x) = 0.34972 0.13558
# Poissons Ratio (y) = 0.34972 0.13558
# Poissons Ratio (z) = 0.15851 0.15851
#
# Static dielectric constant tensor:
#      x y z
#    x 1.572490 0.000000 0.000000 
#    y 0.000000 1.572490 0.000000 
#    z 0.000000 0.000000 1.450870 
# 
# From -- ./inp_files/2509.got.cif
#   From: 2010.05.17/outbox.cif.g08.bks.cpg/sg177_2_cif.got.tgz:2509.got - 2010.05.20 11:28:44.
