data_PCOD9582813
_publ_section_title
;
Structure prediction by ZEFSAII (Michael W. Deem and Ramdas Pophale) SiO2 
 PCOD9582813
Probable space group: P 61 2 2
;
_chemical_formula_sum "Si O2"
_cell_formula_units_Z 54
_cell_length_a 11.800974
_cell_length_b 11.800974
_cell_length_c 19.796151
_cell_angle_alpha 90.000000
_cell_angle_beta 90.000000
_cell_angle_gamma 120.000000
_cell_volume 2387.520430
_symmetry_space_group_name_H-M "P 61 2 2"
_symmetry_group_IT_number 178
_symmetry_cell_setting 'hexagonal'
loop_
_space_group_symop_operation_xyz
x,y,z
x-y,x,1/6+z
-y,x-y,1/3+z
-x,-y,1/2+z
-x+y,-x,2/3+z
y,-x+y,5/6+z
x-y,-y,-z
-x,-x+y,2/3-z
y,x,1/3-z
-y,-x,5/6-z
-x+y,y,1/2-z
x,x-y,1/6-z
loop_
_atom_site_type_symbol
_atom_site_label
_atom_site_fract_x
_atom_site_fract_y
_atom_site_fract_z
Si Si1 0.546408 0.106508 0.407959
Si Si2 0.265307 0.132654 0.583334
Si Si3 0.560365 0.382104 0.229511
Si Si4 0.900475 0.576881 0.612110
Si Si5 0.837654 0.670358 0.096261
O O1 0.596540 0.147809 0.483523
O O2 0.659136 0.128208 0.356590
O O3 0.457708 0.173007 0.396433
O O4 0.451471 0.950103 0.403823
O O5 0.341393 0.165578 0.511664
O O6 0.181135 0.206093 0.579810
O O7 0.691131 0.382261 0.250000
O O8 0.443188 0.237201 0.247814
O O9 0.924081 0.462041 0.583334
O O10 0.024947 0.714358 0.594776
#
# Coordination Sequence:
#
# PCOD9582813 Si02
#       5
#    12   6  12  12  12
#     4  11  25  41  71 104 143 196 242 312 387 459
#     4  10  22  44  70 102 134 196 250 320 370 430
#     4  10  24  44  69 102 143 188 248 311 381 461
#     4  11  26  42  68 104 146 190 243 310 385 459
#     4  11  25  42  73 105 148 187 262 314 376 461
#
# _framework density 22.617607
#
# number of rings (size 3 to 8) (size 9 to 14) (size 15 to 20)
#    0.000    1.333    0.000    4.667   18.667    0.000 
#    0.000    4.444    0.000    0.000    0.000    0.000 
#    0.000    0.000    0.000    0.000    0.000    0.000 
#
# Total GULP energy -301898.494349 kJ/mol
# GULP energy per Si atom -5590.712858 kJ/mol
# Density = 2.256613 g / cm^3
# Si number density = 22.617607 Si / 1000 Ang^3
#
#
#
# Elastic Constant Matrix: (Units=GPa)
#
#
# Indices 1 2 3 4 5 6 
#
# 1 127.6465 48.5566 17.6960 0.0000 0.0000 0.0000
# 2 48.5566 127.6465 17.6960 0.0000 0.0000 0.0000
# 3 17.6960 17.6960 96.7018 0.0000 0.0000 0.0000
# 4 0.0000 0.0000 0.0000 28.3533 0.0000 0.0000
# 5 0.0000 0.0000 0.0000 0.0000 28.3533 0.0000
# 6 0.0000 0.0000 0.0000 0.0000 0.0000 39.5449
#
#
#
# Elastic Compliance Matrix: (Units=1/GPa)
#
#
# Indices 1 2 3 4 5 6 
#
# 1 0.009268 -0.003376 -0.001078 0.000000 0.000000 0.000000
# 2 -0.003376 0.009268 -0.001078 0.000000 0.000000 0.000000
# 3 -0.001078 -0.001078 0.010736 0.000000 0.000000 0.000000
# 4 0.000000 0.000000 0.000000 0.035269 0.000000 0.000000
# 5 0.000000 0.000000 0.000000 0.000000 0.035269 0.000000
# 6 0.000000 0.000000 0.000000 0.000000 0.000000 0.025288
#
#
# Mechanical properties :
#
#
# Convention : Reuss Voigt Hill
#
# Bulk Modulus (GPa) = 54.92505 57.76575 56.34540
# Shear Modulus (GPa) = 35.15403 37.12004 36.13703
#
# Velocity S-wave (km/s) = 3.94671 4.05557 4.00151
# Velocity P-wave (km/s) = 6.71607 6.89390 6.80556
#
# Compressibility (1/GPa) = 0.01820663
#
# Stress axis : x y z
#
# Youngs Moduli (GPa) = 107.90003 107.90003 93.14741
#
# Poissons Ratio (x) = 0.36427 0.10043
# Poissons Ratio (y) = 0.36427 0.10043
# Poissons Ratio (z) = 0.11634 0.11634
#
# Static dielectric constant tensor:
#      x y z
#    x 1.874210 0.000000 0.000000 
#    y 0.000000 1.874210 0.000000 
#    z 0.000000 0.000000 1.715550 
# 
# From -- ./inp_files/7397.got.cif
#   From: 2010.05.17/outbox.cif.g08.bks.cpg/sg178_4_cif.got.tgz:7397.got - 2010.05.20 11:30:59.
