data_PCOD9582831
_publ_section_title
;
Structure prediction by ZEFSAII (Michael W. Deem and Ramdas Pophale) SiO2 
 PCOD9582831
Probable space group: P 61 2 2
;
_chemical_formula_sum "Si O2"
_cell_formula_units_Z 48
_cell_length_a 19.043389
_cell_length_b 19.043389
_cell_length_c 7.829011
_cell_angle_alpha 90.000000
_cell_angle_beta 90.000000
_cell_angle_gamma 120.000000
_cell_volume 2458.815899
_symmetry_space_group_name_H-M "P 61 2 2"
_symmetry_group_IT_number 178
_symmetry_cell_setting 'hexagonal'
loop_
_space_group_symop_operation_xyz
x,y,z
x-y,x,1/6+z
-y,x-y,1/3+z
-x,-y,1/2+z
-x+y,-x,2/3+z
y,-x+y,5/6+z
x-y,-y,-z
-x,-x+y,2/3-z
y,x,1/3-z
-y,-x,5/6-z
-x+y,y,1/2-z
x,x-y,1/6-z
loop_
_atom_site_type_symbol
_atom_site_label
_atom_site_fract_x
_atom_site_fract_y
_atom_site_fract_z
Si Si1 0.000000 0.398242 0.333334
Si Si2 0.673308 0.732481 0.939214
Si Si3 0.681948 0.808949 0.400133
Si Si4 0.702871 0.534662 0.132238
Si Si5 0.097844 0.548922 0.083334
O O1 0.941389 0.316996 0.229429
O O2 0.956911 0.424241 0.475612
O O3 0.747815 0.716134 0.958246
O O4 0.707204 0.826875 0.903495
O O5 0.604901 0.700311 0.086529
O O6 0.701908 0.850954 0.583334
O O7 0.585508 0.755391 0.364194
O O8 0.752698 0.505396 0.250000
O O9 0.617360 0.468807 0.057558
#
# Coordination Sequence:
#
# PCOD9582831 Si02
#       5
#     6  12  12  12   6
#     4  12  22  34  62  92 128 154 212 264 334 380
#     4  11  21  37  58  94 124 166 209 266 324 378
#     4  11  19  36  57  88 124 160 208 258 318 381
#     4  10  23  38  61  92 125 163 212 268 327 389
#     4  12  22  38  60  96 126 160 212 270 332 396
#
# _framework density 19.521591000000001
#
# number of rings (size 3 to 8) (size 9 to 14) (size 15 to 20)
#    0.000    1.000    5.000    2.250    0.000    0.000 
#    0.000    0.000    0.000    0.000   97.500   29.750 
#    0.000    0.000    0.000    0.000    0.000    0.000 
#
# Total GULP energy -267755.734117 kJ/mol
# GULP energy per Si atom -5578.244461 kJ/mol
# Density = 1.947716 g / cm^3
# Si number density = 19.521591 Si / 1000 Ang^3
#
#
#
# Elastic Constant Matrix: (Units=GPa)
#
#
# Indices 1 2 3 4 5 6 
#
# 1 102.5843 47.5259 43.1400 0.0000 0.0000 0.0000
# 2 47.5259 102.5843 43.1400 0.0000 0.0000 0.0000
# 3 43.1400 43.1400 115.7214 0.0000 0.0000 0.0000
# 4 0.0000 0.0000 0.0000 35.2204 0.0000 0.0000
# 5 0.0000 0.0000 0.0000 0.0000 35.2204 0.0000
# 6 0.0000 0.0000 0.0000 0.0000 0.0000 27.5292
#
#
#
# Elastic Compliance Matrix: (Units=1/GPa)
#
#
# Indices 1 2 3 4 5 6 
#
# 1 0.013321 -0.004842 -0.003161 0.000000 0.000000 0.000000
# 2 -0.004842 0.013321 -0.003161 0.000000 0.000000 0.000000
# 3 -0.003161 -0.003161 0.010998 0.000000 0.000000 0.000000
# 4 0.000000 0.000000 0.000000 0.028393 0.000000 0.000000
# 5 0.000000 0.000000 0.000000 0.000000 0.028393 0.000000
# 6 0.000000 0.000000 0.000000 0.000000 0.000000 0.036325
#
#
# Mechanical properties :
#
#
# Convention : Reuss Voigt Hill
#
# Bulk Modulus (GPa) = 65.30764 65.38907 65.34836
# Shear Modulus (GPa) = 31.60949 32.06627 31.83788
#
# Velocity S-wave (km/s) = 4.02830 4.05730 4.04283
# Velocity P-wave (km/s) = 7.42718 7.45100 7.43910
#
# Compressibility (1/GPa) = 0.01531214
#
# Stress axis : x y z
#
# Youngs Moduli (GPa) = 75.07217 75.07217 90.92550
#
# Poissons Ratio (x) = 0.36350 0.28739
# Poissons Ratio (y) = 0.36350 0.28739
# Poissons Ratio (z) = 0.23728 0.23728
#
# Static dielectric constant tensor:
#      x y z
#    x 1.714390 0.000000 0.000000 
#    y 0.000000 1.714390 0.000000 
#    z 0.000000 0.000000 1.765310 
# 
# From -- ./inp_files/2649.got.cif
#   From: 2010.05.17/outbox.cif.g08.bks.cpg/sg178_2_cif.got.tgz:2649.got - 2010.05.20 11:30:59.
