data_PCOD9582459
_publ_section_title
;
Structure prediction by ZEFSAII (Michael W. Deem and Ramdas Pophale) SiO2 
 PCOD9582459
Probable space group: P 61 2 2
;
_chemical_formula_sum "Si O2"
_cell_formula_units_Z 30
_cell_length_a 19.412294
_cell_length_b 19.412294
_cell_length_c 4.843732
_cell_angle_alpha 90.000000
_cell_angle_beta 90.000000
_cell_angle_gamma 120.000000
_cell_volume 1580.754613
_symmetry_space_group_name_H-M "P 61 2 2"
_symmetry_group_IT_number 178
_symmetry_cell_setting 'hexagonal'
loop_
_space_group_symop_operation_xyz
x,y,z
x-y,x,1/6+z
-y,x-y,1/3+z
-x,-y,1/2+z
-x+y,-x,2/3+z
y,-x+y,5/6+z
x-y,-y,-z
-x,-x+y,2/3-z
y,x,1/3-z
-y,-x,5/6-z
-x+y,y,1/2-z
x,x-y,1/6-z
loop_
_atom_site_type_symbol
_atom_site_label
_atom_site_fract_x
_atom_site_fract_y
_atom_site_fract_z
Si Si1 0.472068 0.944136 0.750000
Si Si2 0.447058 0.150035 0.004966
Si Si3 0.334053 0.093353 0.497419
O O1 0.503049 0.890263 0.605376
O O2 0.472435 0.000000 0.500000
O O3 0.486960 0.243480 0.083334
O O4 0.368192 0.111827 0.190989
O O5 0.412521 0.125770 0.696397
O O6 0.298495 0.149248 0.583334
O O7 0.275876 0.000000 0.500000
#
# Coordination Sequence:
#
# PCOD9582459 Si02
#       3
#     6  12  12
#     4  12  22  34  58  82 104 138 184 226 268 316
#     4  10  21  35  53  76 106 137 174 217 267 314
#     4  10  19  33  53  78 105 134 169 214 262 312
#
# _framework density 18.978278
#
# number of rings (size 3 to 8) (size 9 to 14) (size 15 to 20)
#    0.000    1.600    0.000    7.200    0.000    0.000 
#    0.000    0.000   17.600    0.000    0.000    8.400 
#    0.000    0.000    0.000    0.000    0.000    0.000 
#
# Total GULP energy -167332.414686 kJ/mol
# GULP energy per Si atom -5577.747156 kJ/mol
# Density = 1.893508 g / cm^3
# Si number density = 18.978278 Si / 1000 Ang^3
#
#
#
# Elastic Constant Matrix: (Units=GPa)
#
#
# Indices 1 2 3 4 5 6 
#
# 1 108.9047 37.8425 0.6225 0.0000 0.0000 0.0000
# 2 37.8425 108.9047 0.6225 0.0000 0.0000 0.0000
# 3 0.6225 0.6225 59.4228 0.0000 0.0000 0.0000
# 4 0.0000 0.0000 0.0000 22.9776 0.0000 0.0000
# 5 0.0000 0.0000 0.0000 0.0000 22.9776 0.0000
# 6 0.0000 0.0000 0.0000 0.0000 0.0000 35.5311
#
#
#
# Elastic Compliance Matrix: (Units=1/GPa)
#
#
# Indices 1 2 3 4 5 6 
#
# 1 0.010444 -0.003629 -0.000071 0.000000 0.000000 0.000000
# 2 -0.003629 0.010444 -0.000071 0.000000 0.000000 0.000000
# 3 -0.000071 -0.000071 0.016830 0.000000 0.000000 0.000000
# 4 0.000000 0.000000 0.000000 0.043521 0.000000 0.000000
# 5 0.000000 0.000000 0.000000 0.000000 0.043521 0.000000
# 6 0.000000 0.000000 0.000000 0.000000 0.000000 0.028144
#
#
# Mechanical properties :
#
#
# Convention : Reuss Voigt Hill
#
# Bulk Modulus (GPa) = 33.14050 39.48970 36.31510
# Shear Modulus (GPa) = 29.32486 32.17357 30.74921
#
# Velocity S-wave (km/s) = 3.93514 4.12185 4.02958
# Velocity P-wave (km/s) = 6.17636 6.59590 6.38957
#
# Compressibility (1/GPa) = 0.03017456
#
# Stress axis : x y z
#
# Youngs Moduli (GPa) = 95.75229 95.75229 59.41751
#
# Poissons Ratio (x) = 0.34744 0.00424
# Poissons Ratio (y) = 0.34744 0.00424
# Poissons Ratio (z) = 0.00684 0.00684
#
# Static dielectric constant tensor:
#      x y z
#    x 1.709050 0.000000 0.000000 
#    y 0.000000 1.709050 0.000000 
#    z 0.000000 0.000000 1.661310 
# 
# From -- ./inp_files/316.got.cif
#   From: 2010.05.17/outbox.cif.g08.bks.cpg/sg178_1_cif.got.tgz:316.got - 2010.05.20 11:30:59.
