data_PCOD9582524
_publ_section_title
;
Structure prediction by ZEFSAII (Michael W. Deem and Ramdas Pophale) SiO2 
 PCOD9582524
Probable space group: P 61 2 2
;
_chemical_formula_sum "Si O2"
_cell_formula_units_Z 78
_cell_length_a 24.441068
_cell_length_b 24.441068
_cell_length_c 8.479853
_cell_angle_alpha 90.000000
_cell_angle_beta 90.000000
_cell_angle_gamma 120.000000
_cell_volume 4386.915954
_symmetry_space_group_name_H-M "P 61 2 2"
_symmetry_group_IT_number 178
_symmetry_cell_setting 'hexagonal'
loop_
_space_group_symop_operation_xyz
x,y,z
x-y,x,1/6+z
-y,x-y,1/3+z
-x,-y,1/2+z
-x+y,-x,2/3+z
y,-x+y,5/6+z
x-y,-y,-z
-x,-x+y,2/3-z
y,x,1/3-z
-y,-x,5/6-z
-x+y,y,1/2-z
x,x-y,1/6-z
loop_
_atom_site_type_symbol
_atom_site_label
_atom_site_fract_x
_atom_site_fract_y
_atom_site_fract_z
Si Si1 0.073658 0.475439 0.147435
Si Si2 0.585002 0.922492 0.002608
Si Si3 0.200338 0.232405 0.380896
Si Si4 0.088400 0.773072 0.743372
Si Si5 0.066211 0.933790 0.916667
Si Si6 0.928896 0.364341 0.181757
Si Si7 0.804328 0.123317 0.057812
O O1 0.079480 0.539740 0.083334
O O2 0.100159 0.476815 0.324648
O O3 0.999838 0.422995 0.167870
O O4 0.096282 0.450964 0.998205
O O5 0.626085 0.888253 0.003055
O O6 0.545762 0.904388 0.167450
O O7 0.628786 0.000000 0.000000
O O8 0.218389 0.288775 0.253406
O O9 0.251525 0.211336 0.351257
O O10 0.128153 0.179380 0.351963
O O11 0.207218 0.264833 0.544900
O O12 0.071553 0.701425 0.712872
O O13 0.159204 0.822186 0.689654
O O14 0.000000 0.911153 0.833334
O O15 0.852551 0.147450 0.916667
#
# Coordination Sequence:
#
# PCOD9582524 Si02
#       7
#    12  12  12  12   6  12  12
#     4  10  21  33  54  78 105 154 196 224 260 322
#     4  10  21  36  51  75 116 149 187 236 277 332
#     4  11  20  37  59  79  98 136 191 245 296 380
#     4  11  20  38  59  80 107 146 194 242 300 360
#     4  12  22  40  62  74  94 128 182 250 326 394
#     4  10  20  33  50  80 111 145 183 229 269 319
#     4  12  22  32  52  82 112 149 183 233 298 355
#
# _framework density 17.780145000000001
#
# number of rings (size 3 to 8) (size 9 to 14) (size 15 to 20)
#    0.000    1.231    4.615    4.615    6.462    0.000 
#    0.000    0.000    6.769    0.000    0.000    0.000 
#    0.000    0.000    0.000    8.308    0.000    0.000 
#
# Total GULP energy -434479.596541 kJ/mol
# GULP energy per Si atom -5570.251238 kJ/mol
# Density = 1.773968 g / cm^3
# Si number density = 17.780145 Si / 1000 Ang^3
#
#
#
# Elastic Constant Matrix: (Units=GPa)
#
#
# Indices 1 2 3 4 5 6 
#
# 1 41.2945 8.5466 28.8428 0.0000 0.0000 0.0000
# 2 8.5466 41.2945 28.8428 0.0000 0.0000 0.0000
# 3 28.8428 28.8428 146.2836 0.0000 0.0000 0.0000
# 4 0.0000 0.0000 0.0000 22.7090 0.0000 0.0000
# 5 0.0000 0.0000 0.0000 0.0000 22.7090 0.0000
# 6 0.0000 0.0000 0.0000 0.0000 0.0000 16.3740
#
#
#
# Elastic Compliance Matrix: (Units=1/GPa)
#
#
# Indices 1 2 3 4 5 6 
#
# 1 0.028266 -0.002270 -0.005126 0.000000 0.000000 0.000000
# 2 -0.002270 0.028266 -0.005126 0.000000 0.000000 0.000000
# 3 -0.005126 -0.005126 0.008857 0.000000 0.000000 0.000000
# 4 0.000000 0.000000 0.000000 0.044036 0.000000 0.000000
# 5 0.000000 0.000000 0.000000 0.000000 0.044036 0.000000
# 6 0.000000 0.000000 0.000000 0.000000 0.000000 0.061073
#
#
# Mechanical properties :
#
#
# Convention : Reuss Voigt Hill
#
# Bulk Modulus (GPa) = 24.78500 40.14856 32.46678
# Shear Modulus (GPa) = 19.76087 23.20106 21.48096
#
# Velocity S-wave (km/s) = 3.33738 3.61624 3.47961
# Velocity P-wave (km/s) = 5.36850 6.32976 5.86884
#
# Compressibility (1/GPa) = 0.04034698
#
# Stress axis : x y z
#
# Youngs Moduli (GPa) = 35.37786 35.37786 112.90108
#
# Poissons Ratio (x) = 0.08031 0.57870
# Poissons Ratio (y) = 0.08031 0.57870
# Poissons Ratio (z) = 0.18134 0.18134
#
# Static dielectric constant tensor:
#      x y z
#    x 1.596040 0.000000 0.000000 
#    y 0.000000 1.596040 0.000000 
#    z 0.000000 0.000000 1.775980 
# 
# From -- ./inp_files/3548.got.cif
#   From: 2010.05.17/outbox.cif.g08.bks.cpg/sg178_2_cif.got.tgz:3548.got - 2010.05.20 11:30:59.
