data_PCOD9582501
_publ_section_title
;
Structure prediction by ZEFSAII (Michael W. Deem and Ramdas Pophale) SiO2 
 PCOD9582501
Probable space group: P 61 2 2
;
_chemical_formula_sum "Si O2"
_cell_formula_units_Z 72
_cell_length_a 14.736754
_cell_length_b 14.736754
_cell_length_c 17.113097
_cell_angle_alpha 90.000000
_cell_angle_beta 90.000000
_cell_angle_gamma 120.000000
_cell_volume 3218.569649
_symmetry_space_group_name_H-M "P 61 2 2"
_symmetry_group_IT_number 178
_symmetry_cell_setting 'hexagonal'
loop_
_space_group_symop_operation_xyz
x,y,z
x-y,x,1/6+z
-y,x-y,1/3+z
-x,-y,1/2+z
-x+y,-x,2/3+z
y,-x+y,5/6+z
x-y,-y,-z
-x,-x+y,2/3-z
y,x,1/3-z
-y,-x,5/6-z
-x+y,y,1/2-z
x,x-y,1/6-z
loop_
_atom_site_type_symbol
_atom_site_label
_atom_site_fract_x
_atom_site_fract_y
_atom_site_fract_z
Si Si1 0.511510 0.357527 0.594664
Si Si2 0.309754 0.207077 0.695307
Si Si3 0.304096 0.281296 0.867280
Si Si4 0.832724 0.345329 0.395751
Si Si5 0.682901 0.898777 0.453570
Si Si6 0.590622 0.564578 0.500105
O O1 0.554094 0.277047 0.583334
O O2 0.395664 0.281599 0.630719
O O3 0.565274 0.431421 0.667171
O O4 0.546066 0.442836 0.524616
O O5 0.205520 0.205520 0.666667
O O6 0.337308 0.257061 0.782724
O O7 0.293204 0.091573 0.694379
O O8 0.286008 0.183545 0.921349
O O9 0.384535 0.387235 0.913369
O O10 0.711181 0.288820 0.416667
O O11 0.845886 0.256930 0.349617
O O12 0.911252 0.396975 0.466064
O O13 0.632796 0.933409 0.382971
O O14 0.770971 0.000000 0.500000
#
# Coordination Sequence:
#
# PCOD9582501 Si02
#       6
#    12  12  12  12  12  12
#     4  11  25  47  69  95 141 195 248 307 375 433
#     4  12  27  48  69  96 147 200 245 292 362 447
#     4  12  23  44  77 107 140 199 246 296 369 454
#     4  10  19  37  69 105 144 177 224 309 384 442
#     4   9  19  38  69 108 148 181 230 301 376 440
#     4  10  21  42  76 105 139 186 245 307 384 440
#
# _framework density 22.370184999999999
#
# number of rings (size 3 to 8) (size 9 to 14) (size 15 to 20)
#    0.000    1.333    3.333    4.000    0.000    1.333 
#    0.000    9.167    0.000    0.000    0.000    0.000 
#    0.000    0.000    0.000    0.000    0.000    0.000 
#
# Total GULP energy -401598.253835 kJ/mol
# GULP energy per Si atom -5577.753525 kJ/mol
# Density = 2.231927 g / cm^3
# Si number density = 22.370185 Si / 1000 Ang^3
#
#
#
# Elastic Constant Matrix: (Units=GPa)
#
#
# Indices 1 2 3 4 5 6 
#
# 1 115.4930 60.1602 51.4066 0.0000 0.0000 0.0000
# 2 60.1602 115.4930 51.4066 0.0000 0.0000 0.0000
# 3 51.4066 51.4066 112.0921 0.0000 0.0000 0.0000
# 4 0.0000 0.0000 0.0000 21.0025 0.0000 0.0000
# 5 0.0000 0.0000 0.0000 0.0000 21.0025 0.0000
# 6 0.0000 0.0000 0.0000 0.0000 0.0000 27.6664
#
#
#
# Elastic Compliance Matrix: (Units=1/GPa)
#
#
# Indices 1 2 3 4 5 6 
#
# 1 0.012927 -0.005145 -0.003569 0.000000 0.000000 0.000000
# 2 -0.005145 0.012927 -0.003569 0.000000 0.000000 0.000000
# 3 -0.003569 -0.003569 0.012195 0.000000 0.000000 0.000000
# 4 0.000000 0.000000 0.000000 0.047613 0.000000 0.000000
# 5 0.000000 0.000000 0.000000 0.000000 0.047613 0.000000
# 6 0.000000 0.000000 0.000000 0.000000 0.000000 0.036145
#
#
# Mechanical properties :
#
#
# Convention : Reuss Voigt Hill
#
# Bulk Modulus (GPa) = 74.16708 74.33612 74.25160
# Shear Modulus (GPa) = 25.19130 25.94126 25.56628
#
# Velocity S-wave (km/s) = 3.35940 3.40904 3.38431
# Velocity P-wave (km/s) = 6.94794 6.98552 6.96675
#
# Compressibility (1/GPa) = 0.01348307
#
# Stress axis : x y z
#
# Youngs Moduli (GPa) = 77.35617 77.35617 82.00278
#
# Poissons Ratio (x) = 0.39802 0.29266
# Poissons Ratio (y) = 0.39802 0.29266
# Poissons Ratio (z) = 0.27608 0.27608
#
# Static dielectric constant tensor:
#      x y z
#    x 1.907000 0.000000 0.000000 
#    y 0.000000 1.907000 0.000000 
#    z 0.000000 0.000000 1.893050 
# 
# From -- ./inp_files/6773.got.cif
#   From: 2010.05.17/outbox.cif.g08.bks.cpg/sg178_4_cif.got.tgz:6773.got - 2010.05.20 11:30:59.
