data_PCOD9582484
_publ_section_title
;
Structure prediction by ZEFSAII (Michael W. Deem and Ramdas Pophale) SiO2 
 PCOD9582484
Probable space group: P 61 2 2
;
_chemical_formula_sum "Si O2"
_cell_formula_units_Z 90
_cell_length_a 17.202138
_cell_length_b 17.202138
_cell_length_c 16.958578
_cell_angle_alpha 90.000000
_cell_angle_beta 90.000000
_cell_angle_gamma 120.000000
_cell_volume 4345.951944
_symmetry_space_group_name_H-M "P 61 2 2"
_symmetry_group_IT_number 178
_symmetry_cell_setting 'hexagonal'
loop_
_space_group_symop_operation_xyz
x,y,z
x-y,x,1/6+z
-y,x-y,1/3+z
-x,-y,1/2+z
-x+y,-x,2/3+z
y,-x+y,5/6+z
x-y,-y,-z
-x,-x+y,2/3-z
y,x,1/3-z
-y,-x,5/6-z
-x+y,y,1/2-z
x,x-y,1/6-z
loop_
_atom_site_type_symbol
_atom_site_label
_atom_site_fract_x
_atom_site_fract_y
_atom_site_fract_z
Si Si1 0.096537 0.245459 0.418692
Si Si2 0.491517 0.811030 0.212791
Si Si3 0.182912 0.091456 0.083334
Si Si4 0.753839 0.467664 0.662228
Si Si5 0.386232 0.287026 0.901291
Si Si6 0.945202 0.608206 0.988785
Si Si7 0.858625 0.432220 0.274682
Si Si8 0.516531 0.368531 0.769517
O O1 0.102300 0.243731 0.324535
O O2 0.199856 0.289261 0.446865
O O3 0.065281 0.313455 0.448923
O O4 0.015207 0.144223 0.436937
O O5 0.398502 0.797003 0.250000
O O6 0.570920 0.885905 0.265447
O O7 0.490823 0.841863 0.123358
O O8 0.496168 0.722414 0.230115
O O9 0.751630 0.503260 0.750000
O O10 0.800254 0.545015 0.597302
O O11 0.651992 0.412533 0.631904
O O12 0.803418 0.410415 0.677210
O O13 0.432927 0.346500 0.824998
O O14 0.389639 0.345400 0.975915
O O15 0.915583 0.522925 0.933572
O O16 0.899585 0.472967 0.359537
#
# Coordination Sequence:
#
# PCOD9582484 Si02
#       8
#    12  12   6  12  12  12  12  12
#     4  11  21  41  62  96 133 163 207 257 333 420
#     4  10  19  35  58  84 120 171 230 277 323 368
#     4  10  24  36  70  96 126 166 208 258 330 430
#     4  10  22  35  55  85 119 173 224 273 319 383
#     4  12  23  38  61  87 133 172 214 271 346 411
#     4  11  23  39  60  87 127 171 212 273 337 402
#     4  10  21  38  59  84 124 172 228 276 317 375
#     4  11  22  36  58  88 124 174 231 273 324 385
#
# _framework density 20.708926000000002
#
# number of rings (size 3 to 8) (size 9 to 14) (size 15 to 20)
#    0.000    1.333    4.000    2.800    0.933    6.400 
#    0.000    3.333    0.000    0.000    0.000    0.000 
#   48.000    0.000    0.000    0.000    0.000    0.000 
#
# Total GULP energy -502417.214614 kJ/mol
# GULP energy per Si atom -5582.413496 kJ/mol
# Density = 2.066179 g / cm^3
# Si number density = 20.708926 Si / 1000 Ang^3
#
#
#
# Elastic Constant Matrix: (Units=GPa)
#
#
# Indices 1 2 3 4 5 6 
#
# 1 67.8252 18.0490 29.1316 0.0000 0.0000 0.0000
# 2 18.0490 67.8252 29.1316 0.0000 0.0000 0.0000
# 3 29.1316 29.1316 131.4308 0.0000 0.0000 0.0000
# 4 0.0000 0.0000 0.0000 28.9751 0.0000 0.0000
# 5 0.0000 0.0000 0.0000 0.0000 28.9751 0.0000
# 6 0.0000 0.0000 0.0000 0.0000 0.0000 24.8881
#
#
#
# Elastic Compliance Matrix: (Units=1/GPa)
#
#
# Indices 1 2 3 4 5 6 
#
# 1 0.016898 -0.003192 -0.003038 0.000000 0.000000 0.000000
# 2 -0.003192 0.016898 -0.003038 0.000000 0.000000 0.000000
# 3 -0.003038 -0.003038 0.008955 0.000000 0.000000 0.000000
# 4 0.000000 0.000000 0.000000 0.034512 0.000000 0.000000
# 5 0.000000 0.000000 0.000000 0.000000 0.034512 0.000000
# 6 0.000000 0.000000 0.000000 0.000000 0.000000 0.040180
#
#
# Mechanical properties :
#
#
# Convention : Reuss Voigt Hill
#
# Bulk Modulus (GPa) = 41.29558 46.63398 43.96478
# Shear Modulus (GPa) = 28.00125 29.28560 28.64343
#
# Velocity S-wave (km/s) = 3.68113 3.76460 3.72310
# Velocity P-wave (km/s) = 6.16862 6.43925 6.30539
#
# Compressibility (1/GPa) = 0.02421567
#
# Stress axis : x y z
#
# Youngs Moduli (GPa) = 59.17857 59.17857 111.66585
#
# Poissons Ratio (x) = 0.18889 0.33924
# Poissons Ratio (y) = 0.18889 0.33924
# Poissons Ratio (z) = 0.17978 0.17978
#
# Static dielectric constant tensor:
#      x y z
#    x 1.812920 0.000000 0.000000 
#    y 0.000000 1.812920 0.000000 
#    z 0.000000 0.000000 1.753840 
# 
# From -- ./inp_files/6988.got.cif
#   From: 2010.05.17/outbox.cif.g08.bks.cpg/sg178_4_cif.got.tgz:6988.got - 2010.05.20 11:30:59.
