data_PCOD9582940
_publ_section_title
;
Structure prediction by ZEFSAII (Michael W. Deem and Ramdas Pophale) SiO2 
 PCOD9582940
Probable space group: P 61 2 2
;
_chemical_formula_sum "Si O2"
_cell_formula_units_Z 48
_cell_length_a 19.256494
_cell_length_b 19.256494
_cell_length_c 6.841023
_cell_angle_alpha 90.000000
_cell_angle_beta 90.000000
_cell_angle_gamma 120.000000
_cell_volume 2196.878910
_symmetry_space_group_name_H-M "P 61 2 2"
_symmetry_group_IT_number 178
_symmetry_cell_setting 'hexagonal'
loop_
_space_group_symop_operation_xyz
x,y,z
x-y,x,1/6+z
-y,x-y,1/3+z
-x,-y,1/2+z
-x+y,-x,2/3+z
y,-x+y,5/6+z
x-y,-y,-z
-x,-x+y,2/3-z
y,x,1/3-z
-y,-x,5/6-z
-x+y,y,1/2-z
x,x-y,1/6-z
loop_
_atom_site_type_symbol
_atom_site_label
_atom_site_fract_x
_atom_site_fract_y
_atom_site_fract_z
Si Si1 0.197190 0.351226 0.479945
Si Si2 0.324552 0.516327 0.358841
Si Si3 0.283299 0.306128 0.935832
Si Si4 0.070120 0.473746 0.465874
O O1 0.173098 0.346195 0.250000
O O2 0.265345 0.445978 0.508356
O O3 0.240481 0.298297 0.504515
O O4 0.112045 0.319384 0.587564
O O5 0.411561 0.588440 0.416667
O O6 0.276590 0.553179 0.250000
O O7 0.339628 0.468480 0.187493
O O8 0.286834 0.286834 0.166667
O O9 0.360611 0.394244 0.905207
O O10 0.110743 0.555372 0.583334
O O11 0.000000 0.471096 0.333334
#
# Coordination Sequence:
#
# PCOD9582940 Si02
#       4
#    12  12  12  12
#     4   9  15  29  48  73  99 138 171 212 270 318
#     4  11  21  35  51  69 103 148 186 228 279 322
#     4   9  15  28  50  72 101 136 170 217 263 323
#     4  11  20  32  52  77 103 142 182 228 275 327
#
# _framework density 21.849177999999998
#
# number of rings (size 3 to 8) (size 9 to 14) (size 15 to 20)
#    0.000    2.000   10.000    0.750    0.000    1.000 
#    0.000    0.000    0.000    0.000    0.000    0.000 
#    0.000    0.000  119.000    0.000    0.000    0.000 
#
# Total GULP energy -267672.602249 kJ/mol
# GULP energy per Si atom -5576.512547 kJ/mol
# Density = 2.179945 g / cm^3
# Si number density = 21.849178 Si / 1000 Ang^3
#
#
#
# Elastic Constant Matrix: (Units=GPa)
#
#
# Indices 1 2 3 4 5 6 
#
# 1 152.3002 82.3214 30.7226 0.0000 0.0000 0.0000
# 2 82.3214 152.3002 30.7226 0.0000 0.0000 0.0000
# 3 30.7226 30.7226 47.6942 0.0000 0.0000 0.0000
# 4 0.0000 0.0000 0.0000 31.3267 0.0000 0.0000
# 5 0.0000 0.0000 0.0000 0.0000 31.3267 0.0000
# 6 0.0000 0.0000 0.0000 0.0000 0.0000 34.9894
#
#
#
# Elastic Compliance Matrix: (Units=1/GPa)
#
#
# Indices 1 2 3 4 5 6 
#
# 1 0.009709 -0.004581 -0.003303 0.000000 0.000000 0.000000
# 2 -0.004581 0.009709 -0.003303 0.000000 0.000000 0.000000
# 3 -0.003303 -0.003303 0.025222 0.000000 0.000000 0.000000
# 4 0.000000 0.000000 0.000000 0.031922 0.000000 0.000000
# 5 0.000000 0.000000 0.000000 0.000000 0.031922 0.000000
# 6 0.000000 0.000000 0.000000 0.000000 0.000000 0.028580
#
#
# Mechanical properties :
#
#
# Convention : Reuss Voigt Hill
#
# Bulk Modulus (GPa) = 44.91284 71.09195 58.00239
# Shear Modulus (GPa) = 29.96564 33.43043 31.69804
#
# Velocity S-wave (km/s) = 3.70736 3.91583 3.81302
# Velocity P-wave (km/s) = 6.23911 7.28377 6.78158
#
# Compressibility (1/GPa) = 0.02226535
#
# Stress axis : x y z
#
# Youngs Moduli (GPa) = 103.00162 103.00162 39.64823
#
# Poissons Ratio (x) = 0.47190 0.13095
# Poissons Ratio (y) = 0.47190 0.13095
# Poissons Ratio (z) = 0.34018 0.34018
#
# Static dielectric constant tensor:
#      x y z
#    x 1.821940 0.000000 0.000000 
#    y 0.000000 1.821940 0.000000 
#    z 0.000000 0.000000 1.960990 
# 
# From -- ./inp_files/2601.got.cif
#   From: 2010.05.17/outbox.cif.g08.bks.cpg/sg178_2_cif.got.tgz:2601.got - 2010.05.20 11:30:59.
