data_PCOD9582754
_publ_section_title
;
Structure prediction by ZEFSAII (Michael W. Deem and Ramdas Pophale) SiO2 
 PCOD9582754
Probable space group: P 61 2 2
;
_chemical_formula_sum "Si O2"
_cell_formula_units_Z 60
_cell_length_a 11.862599
_cell_length_b 11.862599
_cell_length_c 25.676402
_cell_angle_alpha 90.000000
_cell_angle_beta 90.000000
_cell_angle_gamma 120.000000
_cell_volume 3129.136425
_symmetry_space_group_name_H-M "P 61 2 2"
_symmetry_group_IT_number 178
_symmetry_cell_setting 'hexagonal'
loop_
_space_group_symop_operation_xyz
x,y,z
x-y,x,1/6+z
-y,x-y,1/3+z
-x,-y,1/2+z
-x+y,-x,2/3+z
y,-x+y,5/6+z
x-y,-y,-z
-x,-x+y,2/3-z
y,x,1/3-z
-y,-x,5/6-z
-x+y,y,1/2-z
x,x-y,1/6-z
loop_
_atom_site_type_symbol
_atom_site_label
_atom_site_fract_x
_atom_site_fract_y
_atom_site_fract_z
Si Si1 0.616429 0.760167 0.641358
Si Si2 0.859364 0.550970 0.110259
Si Si3 0.583427 0.408340 0.552008
Si Si4 0.598457 0.522869 0.116583
Si Si5 0.434084 0.138815 0.247534
O O1 0.711463 0.711463 0.666667
O O2 0.652389 0.826195 0.583334
O O3 0.476754 0.628276 0.633957
O O4 0.596138 0.839681 0.688001
O O5 0.854935 0.427468 0.083334
O O6 0.833996 0.500065 0.168906
O O7 0.737414 0.564498 0.092895
O O8 0.999727 0.676682 0.101538
O O9 0.591595 0.295798 0.583334
O O10 0.500922 0.464456 0.579053
O O11 0.732504 0.528017 0.551408
O O12 0.608513 0.608513 0.166667
O O13 0.564333 0.128666 0.250000
#
# Coordination Sequence:
#
# PCOD9582754 Si02
#       5
#    12  12  12  12  12
#     4  11  23  41  65  90 124 172 220 269 330 402
#     4  11  25  36  59  96 132 165 208 272 332 380
#     4  11  21  39  62  91 128 165 211 261 325 395
#     4  11  20  39  63  94 123 171 215 262 329 397
#     4  10  22  39  60  96 130 159 208 271 324 385
#
# _framework density 19.174620000000001
#
# number of rings (size 3 to 8) (size 9 to 14) (size 15 to 20)
#    0.000    1.200    6.000    1.800    8.400    0.000 
#    0.000    0.000    0.000    2.400    0.000    0.000 
#    0.000    0.000    0.000    0.000    0.000    0.000 
#
# Total GULP energy -334455.417820 kJ/mol
# GULP energy per Si atom -5574.256964 kJ/mol
# Density = 1.913098 g / cm^3
# Si number density = 19.174620 Si / 1000 Ang^3
#
#
#
# Elastic Constant Matrix: (Units=GPa)
#
#
# Indices 1 2 3 4 5 6 
#
# 1 105.5080 56.4194 25.6126 0.0000 0.0000 0.0000
# 2 56.4194 105.5080 25.6126 0.0000 0.0000 0.0000
# 3 25.6126 25.6126 62.5695 0.0000 0.0000 0.0000
# 4 0.0000 0.0000 0.0000 2.9871 0.0000 0.0000
# 5 0.0000 0.0000 0.0000 0.0000 2.9871 0.0000
# 6 0.0000 0.0000 0.0000 0.0000 0.0000 24.5443
#
#
#
# Elastic Compliance Matrix: (Units=1/GPa)
#
#
# Indices 1 2 3 4 5 6 
#
# 1 0.013733 -0.006639 -0.002904 0.000000 0.000000 0.000000
# 2 -0.006639 0.013733 -0.002904 0.000000 0.000000 0.000000
# 3 -0.002904 -0.002904 0.018360 0.000000 0.000000 0.000000
# 4 0.000000 0.000000 0.000000 0.334769 0.000000 0.000000
# 5 0.000000 0.000000 0.000000 0.000000 0.334769 0.000000
# 6 0.000000 0.000000 0.000000 0.000000 0.000000 0.040743
#
#
# Mechanical properties :
#
#
# Convention : Reuss Voigt Hill
#
# Bulk Modulus (GPa) = 47.77326 54.31943 51.04634
# Shear Modulus (GPa) = 6.34536 17.16644 11.75590
#
# Velocity S-wave (km/s) = 1.82111 2.99535 2.47877
# Velocity P-wave (km/s) = 5.42133 6.35241 5.90525
#
# Compressibility (1/GPa) = 0.02093221
#
# Stress axis : x y z
#
# Youngs Moduli (GPa) = 72.81834 72.81834 54.46702
#
# Poissons Ratio (x) = 0.48341 0.15817
# Poissons Ratio (y) = 0.48341 0.15817
# Poissons Ratio (z) = 0.21147 0.21147
#
# Static dielectric constant tensor:
#      x y z
#    x 1.721220 0.000000 0.000000 
#    y 0.000000 1.721220 0.000000 
#    z 0.000000 0.000000 1.587020 
# 
# From -- ./inp_files/8797.got.cif
#   From: 2010.05.17/outbox.cif.g08.bks.cpg/sg178_5_cif.got.tgz:8797.got - 2010.05.20 11:30:59.
