data_PCOD9582441
_publ_section_title
;
Structure prediction by ZEFSAII (Michael W. Deem and Ramdas Pophale) SiO2 
 PCOD9582441
Probable space group: P 61 2 2
;
_chemical_formula_sum "Si O2"
_cell_formula_units_Z 78
_cell_length_a 22.853612
_cell_length_b 22.853612
_cell_length_c 9.374649
_cell_angle_alpha 90.000000
_cell_angle_beta 90.000000
_cell_angle_gamma 120.000000
_cell_volume 4240.287928
_symmetry_space_group_name_H-M "P 61 2 2"
_symmetry_group_IT_number 178
_symmetry_cell_setting 'hexagonal'
loop_
_space_group_symop_operation_xyz
x,y,z
x-y,x,1/6+z
-y,x-y,1/3+z
-x,-y,1/2+z
-x+y,-x,2/3+z
y,-x+y,5/6+z
x-y,-y,-z
-x,-x+y,2/3-z
y,x,1/3-z
-y,-x,5/6-z
-x+y,y,1/2-z
x,x-y,1/6-z
loop_
_atom_site_type_symbol
_atom_site_label
_atom_site_fract_x
_atom_site_fract_y
_atom_site_fract_z
Si Si1 0.563660 0.718143 0.533603
Si Si2 0.477636 0.040936 0.127131
Si Si3 0.746288 0.851181 0.245660
Si Si4 0.611127 0.902208 0.925441
Si Si5 0.000000 0.119258 0.833334
Si Si6 0.693770 0.768545 0.723167
Si Si7 0.390879 0.343915 0.455002
O O1 0.535058 0.767529 0.583334
O O2 0.534545 0.638513 0.576156
O O3 0.565995 0.717185 0.361492
O O4 0.639956 0.755264 0.598146
O O5 0.532995 0.065990 0.250000
O O6 0.409924 0.977354 0.193152
O O7 0.489233 0.000000 0.000000
O O8 0.679700 0.779280 0.228349
O O9 0.817181 0.855029 0.274989
O O10 0.731247 0.890216 0.369092
O O11 0.756362 0.878181 0.083334
O O12 0.636037 0.975198 0.857737
O O13 0.579535 0.901333 0.079407
O O14 0.052839 0.105678 0.750000
O O15 0.744124 0.744124 0.666667
O O16 0.648434 0.718549 0.849852
#
# Coordination Sequence:
#
# PCOD9582441 Si02
#       7
#    12  12  12  12   6  12  12
#     4  11  21  36  55  84 127 157 191 248 301 353
#     4  11  23  38  59  89 127 168 205 248 308 378
#     4  11  22  35  57  78 101 145 197 246 307 370
#     4  10  19  30  53  82 107 146 193 222 294 372
#     4  10  24  42  54  64  96 140 200 264 300 356
#     4  12  20  35  54  84 118 149 183 246 319 370
#     4  10  19  34  54  76 121 152 182 239 289 366
#
# _framework density 18.394977000000001
#
# number of rings (size 3 to 8) (size 9 to 14) (size 15 to 20)
#    0.000    1.231    7.692    0.923    6.462    0.000 
#    1.385    0.000    0.000    0.000    0.000    1.077 
#    0.000    0.000    0.000    0.000    0.000    0.000 
#
# Total GULP energy -434248.572847 kJ/mol
# GULP energy per Si atom -5567.289395 kJ/mol
# Density = 1.835311 g / cm^3
# Si number density = 18.394977 Si / 1000 Ang^3
#
#
#
# Elastic Constant Matrix: (Units=GPa)
#
#
# Indices 1 2 3 4 5 6 
#
# 1 35.7873 22.1368 -3.0744 0.0000 0.0000 0.0000
# 2 22.1368 35.7873 -3.0744 0.0000 0.0000 0.0000
# 3 -3.0744 -3.0744 44.0351 0.0000 0.0000 0.0000
# 4 0.0000 0.0000 0.0000 23.5949 0.0000 0.0000
# 5 0.0000 0.0000 0.0000 0.0000 23.5949 0.0000
# 6 0.0000 0.0000 0.0000 0.0000 0.0000 6.8252
#
#
#
# Elastic Compliance Matrix: (Units=1/GPa)
#
#
# Indices 1 2 3 4 5 6 
#
# 1 0.045325 -0.027932 0.001214 0.000000 0.000000 0.000000
# 2 -0.027932 0.045325 0.001214 0.000000 0.000000 0.000000
# 3 0.001214 0.001214 0.022879 0.000000 0.000000 0.000000
# 4 0.000000 0.000000 0.000000 0.042382 0.000000 0.000000
# 5 0.000000 0.000000 0.000000 0.000000 0.042382 0.000000
# 6 0.000000 0.000000 0.000000 0.000000 0.000000 0.146515
#
#
# Mechanical properties :
#
#
# Convention : Reuss Voigt Hill
#
# Bulk Modulus (GPa) = 15.99442 16.39840 16.19641
# Shear Modulus (GPa) = 12.00028 17.44444 14.72236
#
# Velocity S-wave (km/s) = 2.55692 3.08283 2.83211
# Velocity P-wave (km/s) = 4.17504 4.64820 4.41796
#
# Compressibility (1/GPa) = 0.06252179
#
# Stress axis : x y z
#
# Youngs Moduli (GPa) = 22.06274 22.06274 43.70870
#
# Poissons Ratio (x) = 0.61627 -0.05308
# Poissons Ratio (y) = 0.61627 -0.05308
# Poissons Ratio (z) = -0.02679 -0.02679
#
# Static dielectric constant tensor:
#      x y z
#    x 1.671640 0.000000 0.000000 
#    y 0.000000 1.671640 0.000000 
#    z 0.000000 0.000000 1.544760 
# 
# From -- ./inp_files/3537.got.cif
#   From: 2010.05.17/outbox.cif.g08.bks.cpg/sg178_2_cif.got.tgz:3537.got - 2010.05.20 11:30:59.
