data_PCOD9582586
_publ_section_title
;
Structure prediction by ZEFSAII (Michael W. Deem and Ramdas Pophale) SiO2 
 PCOD9582586
Probable space group: P 61 2 2
;
_chemical_formula_sum "Si O2"
_cell_formula_units_Z 54
_cell_length_a 11.900226
_cell_length_b 11.900226
_cell_length_c 22.192314
_cell_angle_alpha 90.000000
_cell_angle_beta 90.000000
_cell_angle_gamma 120.000000
_cell_volume 2721.721217
_symmetry_space_group_name_H-M "P 61 2 2"
_symmetry_group_IT_number 178
_symmetry_cell_setting 'hexagonal'
loop_
_space_group_symop_operation_xyz
x,y,z
x-y,x,1/6+z
-y,x-y,1/3+z
-x,-y,1/2+z
-x+y,-x,2/3+z
y,-x+y,5/6+z
x-y,-y,-z
-x,-x+y,2/3-z
y,x,1/3-z
-y,-x,5/6-z
-x+y,y,1/2-z
x,x-y,1/6-z
loop_
_atom_site_type_symbol
_atom_site_label
_atom_site_fract_x
_atom_site_fract_y
_atom_site_fract_z
Si Si1 0.194501 0.934910 0.294601
Si Si2 0.064978 0.129956 0.750000
Si Si3 0.516513 0.692674 0.374100
Si Si4 0.510493 0.859207 0.927652
Si Si5 0.843660 0.439019 0.272622
O O1 0.132905 0.910680 0.360506
O O2 0.183765 0.800731 0.274212
O O3 0.089573 0.953669 0.256520
O O4 0.336875 0.057784 0.293088
O O5 0.429047 0.570954 0.416667
O O6 0.462075 0.658041 0.305777
O O7 0.501660 0.809224 0.403315
O O8 0.571940 0.014749 0.924161
O O9 0.423863 0.827726 0.988087
O O10 0.735411 0.470822 0.250000
#
# Coordination Sequence:
#
# PCOD9582586 Si02
#       5
#    12   6  12  12  12
#     4  11  22  40  66 101 129 172 227 287 333 403
#     4  10  20  36  68  94 128 166 226 280 340 388
#     4  11  26  42  65 102 139 174 225 279 349 407
#     4  11  23  40  70  92 134 179 225 282 329 408
#     4  10  23  42  66  99 132 175 224 274 344 400
#
# _framework density 19.840385000000001
#
# number of rings (size 3 to 8) (size 9 to 14) (size 15 to 20)
#    0.000    1.333    2.222    4.000    6.222    3.556 
#    0.000    4.444    0.000    0.000    0.000    0.000 
#    0.000    0.000    0.000    0.000    0.000    0.000 
#
# Total GULP energy -301406.961229 kJ/mol
# GULP energy per Si atom -5581.610393 kJ/mol
# Density = 1.979523 g / cm^3
# Si number density = 19.840385 Si / 1000 Ang^3
#
#
#
# Elastic Constant Matrix: (Units=GPa)
#
#
# Indices 1 2 3 4 5 6 
#
# 1 75.2499 45.0207 30.3237 0.0000 0.0000 0.0000
# 2 45.0207 75.2499 30.3237 0.0000 0.0000 0.0000
# 3 30.3237 30.3237 161.9759 0.0000 0.0000 0.0000
# 4 0.0000 0.0000 0.0000 31.7472 0.0000 0.0000
# 5 0.0000 0.0000 0.0000 0.0000 31.7472 0.0000
# 6 0.0000 0.0000 0.0000 0.0000 0.0000 15.1146
#
#
#
# Elastic Compliance Matrix: (Units=1/GPa)
#
#
# Indices 1 2 3 4 5 6 
#
# 1 0.021131 -0.011950 -0.001719 0.000000 0.000000 0.000000
# 2 -0.011950 0.021131 -0.001719 0.000000 0.000000 0.000000
# 3 -0.001719 -0.001719 0.006817 0.000000 0.000000 0.000000
# 4 0.000000 0.000000 0.000000 0.031499 0.000000 0.000000
# 5 0.000000 0.000000 0.000000 0.000000 0.031499 0.000000
# 6 0.000000 0.000000 0.000000 0.000000 0.000000 0.066161
#
#
# Mechanical properties :
#
#
# Convention : Reuss Voigt Hill
#
# Bulk Modulus (GPa) = 54.63107 58.20131 56.41619
# Shear Modulus (GPa) = 23.24349 29.50899 26.37624
#
# Velocity S-wave (km/s) = 3.42647 3.86076 3.65008
# Velocity P-wave (km/s) = 6.57642 7.01943 6.80153
#
# Compressibility (1/GPa) = 0.01830460
#
# Stress axis : x y z
#
# Youngs Moduli (GPa) = 47.32400 47.32400 146.68500
#
# Poissons Ratio (x) = 0.56550 0.25213
# Poissons Ratio (y) = 0.56550 0.25213
# Poissons Ratio (z) = 0.08134 0.08134
#
# Static dielectric constant tensor:
#      x y z
#    x 1.732920 0.000000 0.000000 
#    y 0.000000 1.732920 0.000000 
#    z 0.000000 0.000000 1.833810 
# 
# From -- ./inp_files/7395.got.cif
#   From: 2010.05.17/outbox.cif.g08.bks.cpg/sg178_4_cif.got.tgz:7395.got - 2010.05.20 11:30:59.
