data_PCOD9582300
_publ_section_title
;
Structure prediction by ZEFSAII (Michael W. Deem and Ramdas Pophale) SiO2 
 PCOD9582300
Probable space group: P 6 2 2
;
_chemical_formula_sum "Si O2"
_cell_formula_units_Z 66
_cell_length_a 20.433608
_cell_length_b 20.433608
_cell_length_c 9.231606
_cell_angle_alpha 90.000000
_cell_angle_beta 90.000000
_cell_angle_gamma 120.000000
_cell_volume 3338.089738
_symmetry_space_group_name_H-M "P 6 2 2"
_symmetry_group_IT_number 177
_symmetry_cell_setting 'hexagonal'
loop_
_space_group_symop_operation_xyz
x,y,z
x-y,x,z
-y,x-y,z
-x,-y,z
-x+y,-x,z
y,-x+y,z
x-y,-y,-z
-x,-x+y,-z
y,x,-z
-y,-x,-z
-x+y,y,-z
x,x-y,-z
loop_
_atom_site_type_symbol
_atom_site_label
_atom_site_fract_x
_atom_site_fract_y
_atom_site_fract_z
Si Si1 0.018644 0.401529 0.839316
Si Si2 0.391218 0.914611 0.560946
Si Si3 0.947531 0.828321 0.786599
Si Si4 0.862605 0.655547 0.854787
Si Si5 0.790210 0.000000 0.500000
Si Si6 0.372989 0.267035 0.356796
O O1 0.066868 0.471698 0.731226
O O2 0.076066 0.369967 0.852112
O O3 0.944449 0.334834 0.757746
O O4 0.000000 0.416773 0.000000
O O5 0.439300 0.878601 0.500000
O O6 0.307923 0.877699 0.491030
O O7 0.429741 0.000000 0.500000
O O8 0.890731 0.858187 0.822994
O O9 0.912233 0.746263 0.855471
O O10 0.956159 0.812229 0.616946
O O11 0.802442 0.627146 0.723915
O O12 0.814489 0.628977 0.000000
O O13 0.712811 0.945054 0.585648
#
# Coordination Sequence:
#
# PCOD9582300 Si02
#       6
#    12  12  12  12   6  12
#     4  11  20  35  57  87 120 154 196 240 297 365
#     4   9  19  37  59  84 119 151 176 219 285 369
#     4  12  25  37  51  69 101 151 225 295 351 383
#     4  12  23  36  58  80 113 157 205 263 322 377
#     4  12  20  36  54  74 100 144 206 274 338 390
#     4  11  20  36  57  81 115 154 199 250 308 379
#
# _framework density 19.771788000000001
#
# number of rings (size 3 to 8) (size 9 to 14) (size 15 to 20)
#    0.000    0.909    8.182    0.727    0.000    2.182 
#    0.000    8.182    0.000    1.091    0.000    0.000 
#    7.273    0.000    0.000    0.000    0.000    0.000 
#
# Total GULP energy -368476.776341 kJ/mol
# GULP energy per Si atom -5582.981460 kJ/mol
# Density = 1.972679 g / cm^3
# Si number density = 19.771788 Si / 1000 Ang^3
#
#
#
# Elastic Constant Matrix: (Units=GPa)
#
#
# Indices 1 2 3 4 5 6 
#
# 1 53.7352 33.9021 26.4963 0.0000 0.0000 0.0000
# 2 33.9021 53.7352 26.4963 0.0000 0.0000 0.0000
# 3 26.4963 26.4963 121.8500 0.0000 0.0000 0.0000
# 4 0.0000 0.0000 0.0000 14.5587 0.0000 0.0000
# 5 0.0000 0.0000 0.0000 0.0000 14.5587 0.0000
# 6 0.0000 0.0000 0.0000 0.0000 0.0000 9.9165
#
#
#
# Elastic Compliance Matrix: (Units=1/GPa)
#
#
# Indices 1 2 3 4 5 6 
#
# 1 0.031779 -0.018641 -0.002857 0.000000 0.000000 0.000000
# 2 -0.018641 0.031779 -0.002857 0.000000 0.000000 0.000000
# 3 -0.002857 -0.002857 0.009449 0.000000 0.000000 0.000000
# 4 0.000000 0.000000 0.000000 0.068688 0.000000 0.000000
# 5 0.000000 0.000000 0.000000 0.000000 0.068688 0.000000
# 6 0.000000 0.000000 0.000000 0.000000 0.000000 0.100842
#
#
# Mechanical properties :
#
#
# Convention : Reuss Voigt Hill
#
# Bulk Modulus (GPa) = 41.15559 44.78999 42.97279
# Shear Modulus (GPa) = 13.58568 17.30182 15.44375
#
# Velocity S-wave (km/s) = 2.62415 2.96138 2.79785
# Velocity P-wave (km/s) = 5.48106 5.86478 5.67617
#
# Compressibility (1/GPa) = 0.02429804
#
# Stress axis : x y z
#
# Youngs Moduli (GPa) = 31.46683 31.46683 105.82812
#
# Poissons Ratio (x) = 0.58658 0.30234
# Poissons Ratio (y) = 0.58658 0.30234
# Poissons Ratio (z) = 0.08990 0.08990
#
# Static dielectric constant tensor:
#      x y z
#    x 1.715420 0.000000 0.000000 
#    y 0.000000 1.715420 0.000000 
#    z 0.000000 0.000000 1.832690 
# 
# From -- ./inp_files/1427.got.cif
#   From: 2010.05.17/outbox.cif.g08.bks.cpg/sg177_1_cif.got.tgz:1427.got - 2010.05.20 11:28:44.
