data_PCOD9582597
_publ_section_title
;
Structure prediction by ZEFSAII (Michael W. Deem and Ramdas Pophale) SiO2 
 PCOD9582597
Probable space group: P 61 2 2
;
_chemical_formula_sum "Si O2"
_cell_formula_units_Z 60
_cell_length_a 15.093962
_cell_length_b 15.093962
_cell_length_c 14.450793
_cell_angle_alpha 90.000000
_cell_angle_beta 90.000000
_cell_angle_gamma 120.000000
_cell_volume 2851.207445
_symmetry_space_group_name_H-M "P 61 2 2"
_symmetry_group_IT_number 178
_symmetry_cell_setting 'hexagonal'
loop_
_space_group_symop_operation_xyz
x,y,z
x-y,x,1/6+z
-y,x-y,1/3+z
-x,-y,1/2+z
-x+y,-x,2/3+z
y,-x+y,5/6+z
x-y,-y,-z
-x,-x+y,2/3-z
y,x,1/3-z
-y,-x,5/6-z
-x+y,y,1/2-z
x,x-y,1/6-z
loop_
_atom_site_type_symbol
_atom_site_label
_atom_site_fract_x
_atom_site_fract_y
_atom_site_fract_z
Si Si1 0.626989 0.837365 0.839836
Si Si2 0.423274 0.522128 0.815642
Si Si3 0.583035 0.435875 0.020369
Si Si4 0.919574 0.684350 0.182751
Si Si5 0.122874 0.434997 0.342609
O O1 0.517661 0.817816 0.879793
O O2 0.615990 0.793061 0.735449
O O3 0.705435 0.958246 0.848179
O O4 0.669930 0.786074 0.909871
O O5 0.431282 0.568719 0.916667
O O6 0.494140 0.469967 0.818062
O O7 0.314826 0.430847 0.784799
O O8 0.474662 0.611858 0.743796
O O9 0.500743 0.340968 0.080879
O O10 0.594270 0.405731 0.916667
O O11 0.862638 0.725276 0.250000
O O12 0.000000 0.354119 0.333334
#
# Coordination Sequence:
#
# PCOD9582597 Si02
#       5
#    12  12  12  12  12
#     4  11  23  40  66  98 131 182 234 282 347 422
#     4   9  16  34  60  86 121 158 209 268 338 409
#     4   9  20  37  58  88 125 163 211 272 335 407
#     4  11  22  39  65  97 134 179 233 285 340 416
#     4  10  20  37  64  94 127 176 222 281 345 410
#
# _framework density 21.043717000000001
#
# number of rings (size 3 to 8) (size 9 to 14) (size 15 to 20)
#    0.000    2.000    2.000    1.800    2.800    4.000 
#    0.000    5.000    0.000    4.800    0.000    0.000 
#    0.000    0.000    0.000    0.000    0.000    0.000 
#
# Total GULP energy -334447.938870 kJ/mol
# GULP energy per Si atom -5574.132315 kJ/mol
# Density = 2.099582 g / cm^3
# Si number density = 21.043717 Si / 1000 Ang^3
#
#
#
# Elastic Constant Matrix: (Units=GPa)
#
#
# Indices 1 2 3 4 5 6 
#
# 1 78.8305 46.6599 21.9800 0.0000 0.0000 0.0000
# 2 46.6599 78.8305 21.9800 0.0000 0.0000 0.0000
# 3 21.9800 21.9800 97.7396 0.0000 0.0000 0.0000
# 4 0.0000 0.0000 0.0000 28.0833 0.0000 0.0000
# 5 0.0000 0.0000 0.0000 0.0000 28.0833 0.0000
# 6 0.0000 0.0000 0.0000 0.0000 0.0000 16.0853
#
#
#
# Elastic Compliance Matrix: (Units=1/GPa)
#
#
# Indices 1 2 3 4 5 6 
#
# 1 0.019867 -0.011217 -0.001945 0.000000 0.000000 0.000000
# 2 -0.011217 0.019867 -0.001945 0.000000 0.000000 0.000000
# 3 -0.001945 -0.001945 0.011106 0.000000 0.000000 0.000000
# 4 0.000000 0.000000 0.000000 0.035608 0.000000 0.000000
# 5 0.000000 0.000000 0.000000 0.000000 0.035608 0.000000
# 6 0.000000 0.000000 0.000000 0.000000 0.000000 0.062169
#
#
# Mechanical properties :
#
#
# Convention : Reuss Voigt Hill
#
# Bulk Modulus (GPa) = 48.48383 48.51559 48.49971
# Shear Modulus (GPa) = 22.59212 25.43578 24.01395
#
# Velocity S-wave (km/s) = 3.28011 3.48042 3.38175
# Velocity P-wave (km/s) = 6.11842 6.26545 6.19237
#
# Compressibility (1/GPa) = 0.02062543
#
# Stress axis : x y z
#
# Youngs Moduli (GPa) = 50.33417 50.33417 90.03987
#
# Poissons Ratio (x) = 0.56460 0.17515
# Poissons Ratio (y) = 0.56460 0.17515
# Poissons Ratio (z) = 0.09791 0.09791
#
# Static dielectric constant tensor:
#      x y z
#    x 1.781460 0.000000 0.000000 
#    y 0.000000 1.781460 0.000000 
#    z 0.000000 0.000000 1.976340 
# 
# From -- ./inp_files/5713.got.cif
#   From: 2010.05.17/outbox.cif.g08.bks.cpg/sg178_3_cif.got.tgz:5713.got - 2010.05.20 11:30:59.
