data_PCOD9582241
_publ_section_title
;
Structure prediction by ZEFSAII (Michael W. Deem and Ramdas Pophale) SiO2 
 PCOD9582241
Probable space group: P 6 2 2
;
_chemical_formula_sum "Si O2"
_cell_formula_units_Z 84
_cell_length_a 18.339449
_cell_length_b 18.339449
_cell_length_c 15.324830
_cell_angle_alpha 90.000000
_cell_angle_beta 90.000000
_cell_angle_gamma 120.000000
_cell_volume 4463.739730
_symmetry_space_group_name_H-M "P 6 2 2"
_symmetry_group_IT_number 177
_symmetry_cell_setting 'hexagonal'
loop_
_space_group_symop_operation_xyz
x,y,z
x-y,x,z
-y,x-y,z
-x,-y,z
-x+y,-x,z
y,-x+y,z
x-y,-y,-z
-x,-x+y,-z
y,x,-z
-y,-x,-z
-x+y,y,-z
x,x-y,-z
loop_
_atom_site_type_symbol
_atom_site_label
_atom_site_fract_x
_atom_site_fract_y
_atom_site_fract_z
Si Si1 0.660506 0.908970 0.547874
Si Si2 0.952805 0.134178 0.850215
Si Si3 0.947580 0.130426 0.643776
Si Si4 0.089592 0.754273 0.950885
Si Si5 0.906503 0.417981 0.591020
Si Si6 0.467540 0.658936 0.058266
Si Si7 0.369752 0.596627 0.743375
O O1 0.646182 0.823091 0.500000
O O2 0.720884 0.917711 0.627160
O O3 0.575039 0.906452 0.574376
O O4 0.714695 0.000000 0.500000
O O5 0.953851 0.122974 0.747073
O O6 0.930229 0.205886 0.868066
O O7 0.044427 0.161260 0.887314
O O8 0.039938 0.160202 0.606913
O O9 0.130221 0.696840 0.931612
O O10 0.163632 0.836369 0.000000
O O11 0.000000 0.702667 0.000000
O O12 0.873309 0.436655 0.500000
O O13 0.849526 0.402546 0.676364
O O14 0.000000 0.500000 0.602974
O O15 0.425229 0.634239 0.153972
O O16 0.424285 0.575716 0.000000
O O17 0.454144 0.727072 0.000000
O O18 0.423362 0.697388 0.726873
#
# Coordination Sequence:
#
# PCOD9582241 Si02
#       7
#    12  12  12  12  12  12  12
#     4  12  24  41  67  93 126 175 220 265 341 403
#     4  10  20  37  59  86 126 170 217 264 317 387
#     4  10  21  37  57  89 124 166 214 268 322 384
#     4  11  23  38  59  89 125 168 210 265 330 386
#     4  11  26  47  64  96 146 180 216 286 347 402
#     4  11  21  44  69  93 135 170 209 280 345 414
#     4  10  23  43  74 104 122 170 238 273 336 417
#
# _framework density 18.818301000000002
#
# number of rings (size 3 to 8) (size 9 to 14) (size 15 to 20)
#    0.286    1.000    5.714    0.429    4.000    1.429 
#    2.571    0.000    0.000    0.000    0.000    0.000 
#    0.000    0.000    0.000    0.000    0.000    0.000 
#
# Total GULP energy -467835.678851 kJ/mol
# GULP energy per Si atom -5569.472367 kJ/mol
# Density = 1.877547 g / cm^3
# Si number density = 18.818301 Si / 1000 Ang^3
#
#
#
# Elastic Constant Matrix: (Units=GPa)
#
#
# Indices 1 2 3 4 5 6 
#
# 1 123.4627 60.3701 45.4008 0.0000 0.0000 0.0000
# 2 60.3701 123.4627 45.4008 0.0000 0.0000 0.0000
# 3 45.4008 45.4008 93.0171 0.0000 0.0000 0.0000
# 4 0.0000 0.0000 0.0000 28.7352 0.0000 0.0000
# 5 0.0000 0.0000 0.0000 0.0000 28.7352 0.0000
# 6 0.0000 0.0000 0.0000 0.0000 0.0000 31.5463
#
#
#
# Elastic Compliance Matrix: (Units=1/GPa)
#
#
# Indices 1 2 3 4 5 6 
#
# 1 0.011509 -0.004341 -0.003499 0.000000 0.000000 0.000000
# 2 -0.004341 0.011509 -0.003499 0.000000 0.000000 0.000000
# 3 -0.003499 -0.003499 0.014166 0.000000 0.000000 0.000000
# 4 0.000000 0.000000 0.000000 0.034800 0.000000 0.000000
# 5 0.000000 0.000000 0.000000 0.000000 0.034800 0.000000
# 6 0.000000 0.000000 0.000000 0.000000 0.000000 0.031699
#
#
# Mechanical properties :
#
#
# Convention : Reuss Voigt Hill
#
# Bulk Modulus (GPa) = 68.93055 71.36509 70.14782
# Shear Modulus (GPa) = 30.12126 30.38806 30.25466
#
# Velocity S-wave (km/s) = 4.00514 4.02283 4.01400
# Velocity P-wave (km/s) = 7.62215 7.71901 7.67074
#
# Compressibility (1/GPa) = 0.01450735
#
# Stress axis : x y z
#
# Youngs Moduli (GPa) = 86.89038 86.89038 70.59204
#
# Poissons Ratio (x) = 0.37719 0.24697
# Poissons Ratio (y) = 0.37719 0.24697
# Poissons Ratio (z) = 0.30399 0.30399
#
# Static dielectric constant tensor:
#      x y z
#    x 1.661190 0.000000 0.000000 
#    y 0.000000 1.661190 0.000000 
#    z 0.000000 0.000000 1.661750 
# 
# From -- ./inp_files/2643.got.cif
#   From: 2010.05.17/outbox.cif.g08.bks.cpg/sg177_2_cif.got.tgz:2643.got - 2010.05.20 11:28:44.
