data_PCOD9582644
_publ_section_title
;
Structure prediction by ZEFSAII (Michael W. Deem and Ramdas Pophale) SiO2 
 PCOD9582644
Probable space group: P 61 2 2
;
_chemical_formula_sum "Si O2"
_cell_formula_units_Z 60
_cell_length_a 20.090013
_cell_length_b 20.090013
_cell_length_c 6.695722
_cell_angle_alpha 90.000000
_cell_angle_beta 90.000000
_cell_angle_gamma 120.000000
_cell_volume 2340.391333
_symmetry_space_group_name_H-M "P 61 2 2"
_symmetry_group_IT_number 178
_symmetry_cell_setting 'hexagonal'
loop_
_space_group_symop_operation_xyz
x,y,z
x-y,x,1/6+z
-y,x-y,1/3+z
-x,-y,1/2+z
-x+y,-x,2/3+z
y,-x+y,5/6+z
x-y,-y,-z
-x,-x+y,2/3-z
y,x,1/3-z
-y,-x,5/6-z
-x+y,y,1/2-z
x,x-y,1/6-z
loop_
_atom_site_type_symbol
_atom_site_label
_atom_site_fract_x
_atom_site_fract_y
_atom_site_fract_z
Si Si1 0.831337 0.905747 0.844137
Si Si2 0.910134 0.369723 0.279646
Si Si3 0.873146 0.494137 0.354378
Si Si4 0.000000 0.344014 0.833334
Si Si5 0.294588 0.589176 0.750000
Si Si6 0.077166 0.762605 0.706977
O O1 0.740765 0.852628 0.800897
O O2 0.863654 0.980836 0.701396
O O3 0.833008 0.916504 0.083334
O O4 0.878279 0.417635 0.393394
O O5 0.878853 0.279000 0.297142
O O6 0.000000 0.413054 0.333334
O O7 0.895957 0.380130 0.047036
O O8 0.936904 0.576293 0.442149
O O9 0.783972 0.466214 0.366671
O O10 0.046797 0.322405 0.677796
O O11 0.284255 0.642128 0.583334
O O12 0.000000 0.732708 0.833334
#
# Coordination Sequence:
#
# PCOD9582644 Si02
#       6
#    12  12  12   6   6  12
#     4  10  22  45  68  97 134 186 240 297 350 435
#     4   9  17  37  68  92 133 169 225 292 347 411
#     4  10  20  40  70  98 137 184 239 290 343 427
#     4  10  20  42  72 102 130 188 230 294 356 408
#     4  12  26  50  62  98 152 200 232 292 354 432
#     4  10  22  41  63 100 141 167 217 295 363 415
#
# _framework density 25.636737
#
# number of rings (size 3 to 8) (size 9 to 14) (size 15 to 20)
#    0.000    2.000    3.000    1.200    0.000    0.800 
#   36.000    0.000    0.000    0.000    0.000    0.000 
#    0.000    0.000    0.000    0.000    0.000    0.000 
#
# Total GULP energy -334756.809838 kJ/mol
# GULP energy per Si atom -5579.280164 kJ/mol
# Density = 2.557839 g / cm^3
# Si number density = 25.636737 Si / 1000 Ang^3
#
#
#
# Elastic Constant Matrix: (Units=GPa)
#
#
# Indices 1 2 3 4 5 6 
#
# 1 126.7960 71.0716 21.3866 0.0000 0.0000 0.0000
# 2 71.0716 126.7960 21.3866 0.0000 0.0000 0.0000
# 3 21.3866 21.3866 84.0457 0.0000 0.0000 0.0000
# 4 0.0000 0.0000 0.0000 34.4552 0.0000 0.0000
# 5 0.0000 0.0000 0.0000 0.0000 34.4552 0.0000
# 6 0.0000 0.0000 0.0000 0.0000 0.0000 27.8622
#
#
#
# Elastic Compliance Matrix: (Units=1/GPa)
#
#
# Indices 1 2 3 4 5 6 
#
# 1 0.011647 -0.006299 -0.001361 0.000000 0.000000 0.000000
# 2 -0.006299 0.011647 -0.001361 0.000000 0.000000 0.000000
# 3 -0.001361 -0.001361 0.012591 0.000000 0.000000 0.000000
# 4 0.000000 0.000000 0.000000 0.029023 0.000000 0.000000
# 5 0.000000 0.000000 0.000000 0.000000 0.029023 0.000000
# 6 0.000000 0.000000 0.000000 0.000000 0.000000 0.035891
#
#
# Mechanical properties :
#
#
# Convention : Reuss Voigt Hill
#
# Bulk Modulus (GPa) = 56.04294 62.81414 59.42854
# Shear Modulus (GPa) = 32.50755 34.27407 33.39081
#
# Velocity S-wave (km/s) = 3.56477 3.66035 3.61288
# Velocity P-wave (km/s) = 6.23308 6.51299 6.37457
#
# Compressibility (1/GPa) = 0.01784346
#
# Stress axis : x y z
#
# Youngs Moduli (GPa) = 85.86077 85.86077 79.42257
#
# Poissons Ratio (x) = 0.54081 0.10809
# Poissons Ratio (y) = 0.54081 0.10809
# Poissons Ratio (z) = 0.11685 0.11685
#
# Static dielectric constant tensor:
#      x y z
#    x 2.064800 0.000000 0.000000 
#    y 0.000000 2.064800 0.000000 
#    z 0.000000 0.000000 3.430250 
# 
# From -- ./inp_files/3162.got.cif
#   From: 2010.05.17/outbox.cif.g08.bks.cpg/sg178_2_cif.got.tgz:3162.got - 2010.05.20 11:30:59.
