data_PCOD9582827
_publ_section_title
;
Structure prediction by ZEFSAII (Michael W. Deem and Ramdas Pophale) SiO2 
 PCOD9582827
Probable space group: P 61 2 2
;
_chemical_formula_sum "Si O2"
_cell_formula_units_Z 72
_cell_length_a 24.886189
_cell_length_b 24.886189
_cell_length_c 8.835566
_cell_angle_alpha 90.000000
_cell_angle_beta 90.000000
_cell_angle_gamma 120.000000
_cell_volume 4738.946406
_symmetry_space_group_name_H-M "P 61 2 2"
_symmetry_group_IT_number 178
_symmetry_cell_setting 'hexagonal'
loop_
_space_group_symop_operation_xyz
x,y,z
x-y,x,1/6+z
-y,x-y,1/3+z
-x,-y,1/2+z
-x+y,-x,2/3+z
y,-x+y,5/6+z
x-y,-y,-z
-x,-x+y,2/3-z
y,x,1/3-z
-y,-x,5/6-z
-x+y,y,1/2-z
x,x-y,1/6-z
loop_
_atom_site_type_symbol
_atom_site_label
_atom_site_fract_x
_atom_site_fract_y
_atom_site_fract_z
Si Si1 0.540293 0.571933 0.329538
Si Si2 0.505624 0.346137 0.722883
Si Si3 0.141312 0.536606 0.438475
Si Si4 0.394764 0.344908 0.292938
Si Si5 0.510435 0.247157 0.904631
Si Si6 0.250470 0.409111 0.858737
O O1 0.545601 0.545601 0.166667
O O2 0.481131 0.518870 0.416667
O O3 0.537885 0.635116 0.314341
O O4 0.602036 0.589768 0.419260
O O5 0.561676 0.413589 0.682108
O O6 0.533160 0.310741 0.816702
O O7 0.464783 0.304135 0.579824
O O8 0.117948 0.558974 0.583334
O O9 0.097719 0.464530 0.395571
O O10 0.208962 0.544996 0.466749
O O11 0.351165 0.351165 0.166667
O O12 0.374328 0.282183 0.390368
O O13 0.442387 0.205688 0.830899
O O14 0.509440 0.254720 0.083334
O O15 0.189802 0.379603 0.750000
#
# Coordination Sequence:
#
# PCOD9582827 Si02
#       6
#    12  12  12  12  12  12
#     4  12  22  32  49  74  98 114 144 185 250 308
#     4  11  21  36  52  65  90 122 143 189 244 296
#     4  11  20  37  53  64  92 120 153 191 249 302
#     4  11  21  33  52  79  98 119 147 192 241 307
#     4  10  23  35  49  66  81 114 156 188 228 286
#     4   9  19  38  54  64  92 126 148 175 234 293
#
# _framework density 15.193250000000001
#
# number of rings (size 3 to 8) (size 9 to 14) (size 15 to 20)
#    0.000    1.333    5.000    3.000    7.000    0.000 
#    0.000    2.500    0.000    0.000    0.000    0.000 
#    0.000    0.000    0.000    0.000    0.000    0.000 
#
# Total GULP energy -401109.926015 kJ/mol
# GULP energy per Si atom -5570.971195 kJ/mol
# Density = 1.515867 g / cm^3
# Si number density = 15.193250 Si / 1000 Ang^3
#
#
#
# Elastic Constant Matrix: (Units=GPa)
#
#
# Indices 1 2 3 4 5 6 
#
# 1 52.1074 19.6932 16.7965 0.0000 0.0000 0.0000
# 2 19.6932 52.1074 16.7965 0.0000 0.0000 0.0000
# 3 16.7965 16.7965 73.1166 0.0000 0.0000 0.0000
# 4 0.0000 0.0000 0.0000 21.0678 0.0000 0.0000
# 5 0.0000 0.0000 0.0000 0.0000 21.0678 0.0000
# 6 0.0000 0.0000 0.0000 0.0000 0.0000 16.2071
#
#
#
# Elastic Compliance Matrix: (Units=1/GPa)
#
#
# Indices 1 2 3 4 5 6 
#
# 1 0.023228 -0.007623 -0.003585 0.000000 0.000000 0.000000
# 2 -0.007623 0.023228 -0.003585 0.000000 0.000000 0.000000
# 3 -0.003585 -0.003585 0.015324 0.000000 0.000000 0.000000
# 4 0.000000 0.000000 0.000000 0.047466 0.000000 0.000000
# 5 0.000000 0.000000 0.000000 0.000000 0.047466 0.000000
# 6 0.000000 0.000000 0.000000 0.000000 0.000000 0.061701
#
#
# Mechanical properties :
#
#
# Convention : Reuss Voigt Hill
#
# Bulk Modulus (GPa) = 31.06158 31.54486 31.30322
# Shear Modulus (GPa) = 19.32529 19.93823 19.63176
#
# Velocity S-wave (km/s) = 3.57033 3.62651 3.59853
# Velocity P-wave (km/s) = 6.12251 6.19217 6.15743
#
# Compressibility (1/GPa) = 0.03219411
#
# Stress axis : x y z
#
# Youngs Moduli (GPa) = 43.05213 43.05213 65.25808
#
# Poissons Ratio (x) = 0.32819 0.23393
# Poissons Ratio (y) = 0.32819 0.23393
# Poissons Ratio (z) = 0.15433 0.15433
#
# Static dielectric constant tensor:
#      x y z
#    x 1.535400 0.000000 0.000000 
#    y 0.000000 1.535400 0.000000 
#    z 0.000000 0.000000 1.588360 
# 
# From -- ./inp_files/3486.got.cif
#   From: 2010.05.17/outbox.cif.g08.bks.cpg/sg178_2_cif.got.tgz:3486.got - 2010.05.20 11:30:59.
