data_PCOD9582233
_publ_section_title
;
Structure prediction by ZEFSAII (Michael W. Deem and Ramdas Pophale) SiO2 
 PCOD9582233
Probable space group: P 6 2 2
;
_chemical_formula_sum "Si O2"
_cell_formula_units_Z 84
_cell_length_a 14.942305
_cell_length_b 14.942305
_cell_length_c 22.802653
_cell_angle_alpha 90.000000
_cell_angle_beta 90.000000
_cell_angle_gamma 120.000000
_cell_volume 4409.112742
_symmetry_space_group_name_H-M "P 6 2 2"
_symmetry_group_IT_number 177
_symmetry_cell_setting 'hexagonal'
loop_
_space_group_symop_operation_xyz
x,y,z
x-y,x,z
-y,x-y,z
-x,-y,z
-x+y,-x,z
y,-x+y,z
x-y,-y,-z
-x,-x+y,-z
y,x,-z
-y,-x,-z
-x+y,y,-z
x,x-y,-z
loop_
_atom_site_type_symbol
_atom_site_label
_atom_site_fract_x
_atom_site_fract_y
_atom_site_fract_z
Si Si1 0.429009 0.553083 0.238065
Si Si2 0.542417 0.122431 0.369923
Si Si3 0.153809 0.246193 0.640823
Si Si4 0.780403 0.791533 0.932044
Si Si5 0.208360 0.442721 0.430977
Si Si6 0.718435 0.629147 0.170455
Si Si7 0.747987 0.112297 0.239322
O O1 0.500000 0.500000 0.240155
O O2 0.383090 0.540541 0.302975
O O3 0.353782 0.493405 0.183609
O O4 0.512527 0.673727 0.235478
O O5 0.655104 0.176936 0.400795
O O6 0.466952 0.149643 0.404278
O O7 0.500000 0.000000 0.369626
O O8 0.191551 0.162208 0.640969
O O9 0.202916 0.326535 0.587146
O O10 0.198971 0.318787 0.698786
O O11 0.889777 0.795875 0.922633
O O12 0.683942 0.718030 0.889801
O O13 0.757372 0.757372 0.000000
O O14 0.228691 0.457382 0.500000
O O15 0.686322 0.679791 0.222596
O O16 0.834129 0.662261 0.187224
#
# Coordination Sequence:
#
# PCOD9582233 Si02
#       7
#    12  12  12  12  12  12  12
#     4   9  21  36  57  86 117 153 198 257 323 383
#     4  11  23  43  66  89 120 160 206 270 332 396
#     4  12  25  42  63  89 126 168 216 269 326 393
#     4  10  20  35  58  95 138 185 229 269 314 373
#     4  12  26  42  65  93 123 163 212 265 333 407
#     4  11  20  35  61  92 127 167 210 260 325 391
#     4  11  20  37  60  88 124 161 204 268 323 388
#
# _framework density 19.051452999999999
#
# number of rings (size 3 to 8) (size 9 to 14) (size 15 to 20)
#    0.000    1.143    4.286    2.714    2.000    3.429 
#    0.857    0.000    0.000    4.714    0.000    0.000 
#    0.000    0.000    0.000    0.000    0.000    0.000 
#
# Total GULP energy -468060.256925 kJ/mol
# GULP energy per Si atom -5572.145916 kJ/mol
# Density = 1.900809 g / cm^3
# Si number density = 19.051453 Si / 1000 Ang^3
#
#
#
# Elastic Constant Matrix: (Units=GPa)
#
#
# Indices 1 2 3 4 5 6 
#
# 1 72.8884 19.6161 23.6704 0.0000 0.0000 0.0000
# 2 19.6161 72.8884 23.6704 0.0000 0.0000 0.0000
# 3 23.6704 23.6704 101.4426 0.0000 0.0000 0.0000
# 4 0.0000 0.0000 0.0000 23.9635 0.0000 0.0000
# 5 0.0000 0.0000 0.0000 0.0000 23.9635 0.0000
# 6 0.0000 0.0000 0.0000 0.0000 0.0000 26.6362
#
#
#
# Elastic Compliance Matrix: (Units=1/GPa)
#
#
# Indices 1 2 3 4 5 6 
#
# 1 0.015524 -0.003248 -0.002865 0.000000 0.000000 0.000000
# 2 -0.003248 0.015524 -0.002865 0.000000 0.000000 0.000000
# 3 -0.002865 -0.002865 0.011195 0.000000 0.000000 0.000000
# 4 0.000000 0.000000 0.000000 0.041730 0.000000 0.000000
# 5 0.000000 0.000000 0.000000 0.000000 0.041730 0.000000
# 6 0.000000 0.000000 0.000000 0.000000 0.000000 0.037543
#
#
# Mechanical properties :
#
#
# Convention : Reuss Voigt Hill
#
# Bulk Modulus (GPa) = 41.17083 42.34812 41.75947
# Shear Modulus (GPa) = 26.41377 26.93013 26.67195
#
# Velocity S-wave (km/s) = 3.72754 3.76380 3.74571
# Velocity P-wave (km/s) = 6.33903 6.41598 6.37762
#
# Compressibility (1/GPa) = 0.02428904
#
# Stress axis : x y z
#
# Youngs Moduli (GPa) = 64.41695 64.41695 89.32888
#
# Poissons Ratio (x) = 0.20920 0.25588
# Poissons Ratio (y) = 0.20920 0.25588
# Poissons Ratio (z) = 0.18452 0.18452
#
# Static dielectric constant tensor:
#      x y z
#    x 1.705550 0.000000 0.000000 
#    y 0.000000 1.705550 0.000000 
#    z 0.000000 0.000000 1.660600 
# 
# From -- ./inp_files/3195.got.cif
#   From: 2010.05.17/outbox.cif.g08.bks.cpg/sg177_2_cif.got.tgz:3195.got - 2010.05.20 11:28:44.
