data_PCOD9582573
_publ_section_title
;
Structure prediction by ZEFSAII (Michael W. Deem and Ramdas Pophale) SiO2 
 PCOD9582573
Probable space group: P 61 2 2
;
_chemical_formula_sum "Si O2"
_cell_formula_units_Z 54
_cell_length_a 17.428938
_cell_length_b 17.428938
_cell_length_c 10.425496
_cell_angle_alpha 90.000000
_cell_angle_beta 90.000000
_cell_angle_gamma 120.000000
_cell_volume 2742.642539
_symmetry_space_group_name_H-M "P 61 2 2"
_symmetry_group_IT_number 178
_symmetry_cell_setting 'hexagonal'
loop_
_space_group_symop_operation_xyz
x,y,z
x-y,x,1/6+z
-y,x-y,1/3+z
-x,-y,1/2+z
-x+y,-x,2/3+z
y,-x+y,5/6+z
x-y,-y,-z
-x,-x+y,2/3-z
y,x,1/3-z
-y,-x,5/6-z
-x+y,y,1/2-z
x,x-y,1/6-z
loop_
_atom_site_type_symbol
_atom_site_label
_atom_site_fract_x
_atom_site_fract_y
_atom_site_fract_z
Si Si1 0.517721 0.309087 0.954811
Si Si2 0.900797 0.682469 0.567514
Si Si3 0.685193 0.473612 0.366099
Si Si4 0.675322 0.901794 0.179745
Si Si5 0.085396 0.914605 0.916667
O O1 0.589476 0.410525 0.916667
O O2 0.519175 0.258834 0.826567
O O3 0.540076 0.270038 0.083334
O O4 0.413975 0.280699 0.963887
O O5 0.930675 0.761624 0.667221
O O6 0.000000 0.889192 0.833334
O O7 0.993556 0.714964 0.496252
O O8 0.586271 0.413730 0.416667
O O9 0.716867 0.433734 0.250000
O O10 0.710072 0.570766 0.320533
O O11 0.680457 0.858581 0.315824
O O12 0.711858 0.855929 0.083334
#
# Coordination Sequence:
#
# PCOD9582573 Si02
#       5
#    12  12  12  12   6
#     4  11  22  36  60  93 126 169 218 264 316 379
#     4  11  22  40  64  87 122 167 204 260 330 389
#     4  10  20  36  58  85 122 166 210 262 317 373
#     4  10  22  39  61  87 120 161 204 257 326 389
#     4  12  24  46  68  94 128 160 214 274 332 406
#
# _framework density 19.689041
#
# number of rings (size 3 to 8) (size 9 to 14) (size 15 to 20)
#    0.000    1.333    3.333    3.333    0.000    0.889 
#    2.000    0.000    0.000    8.000    0.000    0.000 
#    0.000    0.000    0.000    0.000    0.000    0.000 
#
# Total GULP energy -300819.145909 kJ/mol
# GULP energy per Si atom -5570.724924 kJ/mol
# Density = 1.964423 g / cm^3
# Si number density = 19.689041 Si / 1000 Ang^3
#
#
#
# Elastic Constant Matrix: (Units=GPa)
#
#
# Indices 1 2 3 4 5 6 
#
# 1 90.3273 62.4369 18.5719 0.0000 0.0000 0.0000
# 2 62.4369 90.3273 18.5719 0.0000 0.0000 0.0000
# 3 18.5719 18.5719 89.9988 0.0000 0.0000 0.0000
# 4 0.0000 0.0000 0.0000 -24.8239 0.0000 0.0000
# 5 0.0000 0.0000 0.0000 0.0000 -24.8239 0.0000
# 6 0.0000 0.0000 0.0000 0.0000 0.0000 13.9452
#
#
#
# Elastic Compliance Matrix: (Units=1/GPa)
#
#
# Indices 1 2 3 4 5 6 
#
# 1 0.021373 -0.014481 -0.001422 0.000000 0.000000 0.000000
# 2 -0.014481 0.021373 -0.001422 0.000000 0.000000 0.000000
# 3 -0.001422 -0.001422 0.011698 0.000000 0.000000 0.000000
# 4 0.000000 0.000000 0.000000 -0.040284 0.000000 0.000000
# 5 0.000000 0.000000 0.000000 0.000000 -0.040284 0.000000
# 6 0.000000 0.000000 0.000000 0.000000 0.000000 0.071709
#
#
# Mechanical properties :
#
#
# Convention : Reuss Voigt Hill
#
# Bulk Modulus (GPa) = 50.52248 52.20163 51.36205
# Shear Modulus (GPa) = 57.58017 4.26434 30.92226
#
# Velocity S-wave (km/s) = 5.41371 1.47328 3.96729
# Velocity P-wave (km/s) = 8.04945 5.42814 6.86507
#
# Compressibility (1/GPa) = 0.01979317
#
# Stress axis : x y z
#
# Youngs Moduli (GPa) = 46.78754 46.78754 85.48315
#
# Poissons Ratio (x) = 0.67755 0.12157
# Poissons Ratio (y) = 0.67755 0.12157
# Poissons Ratio (z) = 0.06654 0.06654
#
# Static dielectric constant tensor:
#      x y z
#    x 1.913880 0.000000 0.000000 
#    y 0.000000 1.913880 0.000000 
#    z 0.000000 0.000000 1.751540 
# 
# From -- ./inp_files/3031.got.cif
#   From: 2010.05.17/outbox.cif.g08.bks.cpg/sg178_2_cif.got.tgz:3031.got - 2010.05.20 11:30:59.
