data_PCOD9582598
_publ_section_title
;
Structure prediction by ZEFSAII (Michael W. Deem and Ramdas Pophale) SiO2 
 PCOD9582598
Probable space group: P 61 2 2
;
_chemical_formula_sum "Si O2"
_cell_formula_units_Z 48
_cell_length_a 16.732021
_cell_length_b 16.732021
_cell_length_c 10.662222
_cell_angle_alpha 90.000000
_cell_angle_beta 90.000000
_cell_angle_gamma 120.000000
_cell_volume 2585.086945
_symmetry_space_group_name_H-M "P 61 2 2"
_symmetry_group_IT_number 178
_symmetry_cell_setting 'hexagonal'
loop_
_space_group_symop_operation_xyz
x,y,z
x-y,x,1/6+z
-y,x-y,1/3+z
-x,-y,1/2+z
-x+y,-x,2/3+z
y,-x+y,5/6+z
x-y,-y,-z
-x,-x+y,2/3-z
y,x,1/3-z
-y,-x,5/6-z
-x+y,y,1/2-z
x,x-y,1/6-z
loop_
_atom_site_type_symbol
_atom_site_label
_atom_site_fract_x
_atom_site_fract_y
_atom_site_fract_z
Si Si1 0.471518 0.471518 0.666667
Si Si2 0.145592 0.679769 0.879766
Si Si3 0.199754 0.324307 0.998742
Si Si4 0.681703 0.038106 0.199657
Si Si5 0.852727 0.000000 0.500000
O O1 0.572430 0.479935 0.673650
O O2 0.419991 0.409625 0.787562
O O3 0.254868 0.745133 0.916667
O O4 0.136845 0.731770 0.759078
O O5 0.085620 0.682708 0.998963
O O6 0.115396 0.340371 0.965770
O O7 0.165501 0.234124 0.083710
O O8 0.260534 0.315486 0.890612
O O9 0.875616 0.937808 0.583334
#
# Coordination Sequence:
#
# PCOD9582598 Si02
#       5
#     6  12  12  12   6
#     4  12  23  38  63  92 130 176 198 274 349 376
#     4  10  20  37  65  94 115 160 225 268 306 385
#     4  11  19  37  65  94 114 160 220 259 300 392
#     4  11  22  36  64  92 126 164 216 259 329 400
#     4  12  19  34  63  92 116 158 202 248 305 360
#
# _framework density 18.568041999999998
#
# number of rings (size 3 to 8) (size 9 to 14) (size 15 to 20)
#    0.000    1.000    7.500    1.500    0.000    1.000 
#    0.000    1.250   22.000    0.000    0.000    0.000 
#    0.000    0.000    0.000    0.000    0.000    0.000 
#
# Total GULP energy -267577.236948 kJ/mol
# GULP energy per Si atom -5574.525770 kJ/mol
# Density = 1.852578 g / cm^3
# Si number density = 18.568042 Si / 1000 Ang^3
#
#
#
# Elastic Constant Matrix: (Units=GPa)
#
#
# Indices 1 2 3 4 5 6 
#
# 1 132.5233 68.1101 34.5035 0.0000 0.0000 0.0000
# 2 68.1101 132.5233 34.5035 0.0000 0.0000 0.0000
# 3 34.5035 34.5035 25.2279 0.0000 0.0000 0.0000
# 4 0.0000 0.0000 0.0000 6.0716 0.0000 0.0000
# 5 0.0000 0.0000 0.0000 0.0000 6.0716 0.0000
# 6 0.0000 0.0000 0.0000 0.0000 0.0000 32.2066
#
#
#
# Elastic Compliance Matrix: (Units=1/GPa)
#
#
# Indices 1 2 3 4 5 6 
#
# 1 0.012468 -0.003057 -0.012872 0.000000 0.000000 0.000000
# 2 -0.003057 0.012468 -0.012872 0.000000 0.000000 0.000000
# 3 -0.012872 -0.012872 0.074847 0.000000 0.000000 0.000000
# 4 0.000000 0.000000 0.000000 0.164701 0.000000 0.000000
# 5 0.000000 0.000000 0.000000 0.000000 0.164701 0.000000
# 6 0.000000 0.000000 0.000000 0.000000 0.000000 0.031050
#
#
# Mechanical properties :
#
#
# Convention : Reuss Voigt Hill
#
# Bulk Modulus (GPa) = 23.70621 62.72316 43.21468
# Shear Modulus (GPa) = 9.40036 19.08047 14.24042
#
# Velocity S-wave (km/s) = 2.25248 3.20909 2.77236
# Velocity P-wave (km/s) = 4.42265 6.89815 5.79415
#
# Compressibility (1/GPa) = 0.04218304
#
# Stress axis : x y z
#
# Youngs Moduli (GPa) = 80.20496 80.20496 13.36064
#
# Poissons Ratio (x) = 0.24516 0.17197
# Poissons Ratio (y) = 0.24516 0.17197
# Poissons Ratio (z) = 1.03237 1.03237
#
# Static dielectric constant tensor:
#      x y z
#    x 1.706300 0.000000 0.000000 
#    y 0.000000 1.706300 0.000000 
#    z 0.000000 0.000000 1.765160 
# 
# From -- ./inp_files/2684.got.cif
#   From: 2010.05.17/outbox.cif.g08.bks.cpg/sg178_2_cif.got.tgz:2684.got - 2010.05.20 11:30:59.
