data_PCOD9582768
_publ_section_title
;
Structure prediction by ZEFSAII (Michael W. Deem and Ramdas Pophale) SiO2 
 PCOD9582768
Probable space group: P 61 2 2
;
_chemical_formula_sum "Si O2"
_cell_formula_units_Z 54
_cell_length_a 11.929454
_cell_length_b 11.929454
_cell_length_c 19.694062
_cell_angle_alpha 90.000000
_cell_angle_beta 90.000000
_cell_angle_gamma 120.000000
_cell_volume 2427.208399
_symmetry_space_group_name_H-M "P 61 2 2"
_symmetry_group_IT_number 178
_symmetry_cell_setting 'hexagonal'
loop_
_space_group_symop_operation_xyz
x,y,z
x-y,x,1/6+z
-y,x-y,1/3+z
-x,-y,1/2+z
-x+y,-x,2/3+z
y,-x+y,5/6+z
x-y,-y,-z
-x,-x+y,2/3-z
y,x,1/3-z
-y,-x,5/6-z
-x+y,y,1/2-z
x,x-y,1/6-z
loop_
_atom_site_type_symbol
_atom_site_label
_atom_site_fract_x
_atom_site_fract_y
_atom_site_fract_z
Si Si1 0.998091 0.705175 0.681977
Si Si2 0.000000 0.332341 0.833334
Si Si3 0.586611 0.081489 0.137037
Si Si4 0.103469 0.741904 0.540702
Si Si5 0.233844 0.000000 0.000000
Si Si6 0.364347 0.635654 0.916667
O O1 0.094976 0.773909 0.619202
O O2 0.956978 0.555398 0.670231
O O3 0.897285 0.758953 0.676404
O O4 0.027898 0.717096 0.762422
O O5 0.018469 0.422075 0.898688
O O6 0.126170 0.314988 0.833320
O O7 0.648184 0.233500 0.124340
O O8 0.666379 0.037126 0.185309
O O9 0.184204 0.667271 0.534571
#
# Coordination Sequence:
#
# PCOD9582768 Si02
#       6
#    12   6  12  12   6   6
#     4  11  23  45  72 104 150 195 251 319 380 467
#     4  10  25  42  71 108 158 196 261 323 388 458
#     4  11  22  42  68 109 145 198 254 318 387 457
#     4  11  23  44  71 108 150 202 252 314 386 468
#     4  10  25  42  69 106 144 196 249 313 380 456
#     4  10  22  40  66 102 144 186 256 300 382 440
#
# _framework density 22.247779999999999
#
# number of rings (size 3 to 8) (size 9 to 14) (size 15 to 20)
#    0.000    1.333    2.222    2.667    6.222    1.778 
#    0.000    8.889    0.000    0.000    0.000    0.000 
#    0.000    0.000    0.000    0.000    0.000    0.000 
#
# Total GULP energy -300603.366393 kJ/mol
# GULP energy per Si atom -5566.729007 kJ/mol
# Density = 2.219714 g / cm^3
# Si number density = 22.247780 Si / 1000 Ang^3
#
#
#
# Elastic Constant Matrix: (Units=GPa)
#
#
# Indices 1 2 3 4 5 6 
#
# 1 110.0671 61.4190 38.7204 0.0000 0.0000 0.0000
# 2 61.4190 110.0671 38.7204 0.0000 0.0000 0.0000
# 3 38.7204 38.7204 129.4861 0.0000 0.0000 0.0000
# 4 0.0000 0.0000 0.0000 32.3543 0.0000 0.0000
# 5 0.0000 0.0000 0.0000 0.0000 32.3543 0.0000
# 6 0.0000 0.0000 0.0000 0.0000 0.0000 24.3241
#
#
#
# Elastic Compliance Matrix: (Units=1/GPa)
#
#
# Indices 1 2 3 4 5 6 
#
# 1 0.013649 -0.006907 -0.002016 0.000000 0.000000 0.000000
# 2 -0.006907 0.013649 -0.002016 0.000000 0.000000 0.000000
# 3 -0.002016 -0.002016 0.008929 0.000000 0.000000 0.000000
# 4 0.000000 0.000000 0.000000 0.030908 0.000000 0.000000
# 5 0.000000 0.000000 0.000000 0.000000 0.030908 0.000000
# 6 0.000000 0.000000 0.000000 0.000000 0.000000 0.041112
#
#
# Mechanical properties :
#
#
# Convention : Reuss Voigt Hill
#
# Bulk Modulus (GPa) = 69.69573 69.70441 69.70007
# Shear Modulus (GPa) = 30.15431 31.85726 31.00579
#
# Velocity S-wave (km/s) = 3.68555 3.78819 3.73722
# Velocity P-wave (km/s) = 7.03606 7.10864 7.07244
#
# Compressibility (1/GPa) = 0.01434808
#
# Stress axis : x y z
#
# Youngs Moduli (GPa) = 73.26672 73.26672 112.00050
#
# Poissons Ratio (x) = 0.50605 0.22579
# Poissons Ratio (y) = 0.50605 0.22579
# Poissons Ratio (z) = 0.14771 0.14771
#
# Static dielectric constant tensor:
#      x y z
#    x 1.869460 0.000000 0.000000 
#    y 0.000000 1.869460 0.000000 
#    z 0.000000 0.000000 2.035110 
# 
# From -- ./inp_files/7455.got.cif
#   From: 2010.05.17/outbox.cif.g08.bks.cpg/sg178_4_cif.got.tgz:7455.got - 2010.05.20 11:30:59.
