data_PCOD9582003
_publ_section_title
;
Structure prediction by ZEFSAII (Michael W. Deem and Ramdas Pophale) SiO2 
 PCOD9582003
Probable space group: P 63/M
;
_chemical_formula_sum "Si O2"
_cell_formula_units_Z 60
_cell_length_a 15.179711
_cell_length_b 15.179711
_cell_length_c 15.849463
_cell_angle_alpha 90.000000
_cell_angle_beta 90.000000
_cell_angle_gamma 120.000000
_cell_volume 3162.803354
_symmetry_space_group_name_H-M "P 63/M"
_symmetry_group_IT_number 176
_symmetry_cell_setting 'hexagonal'
loop_
_space_group_symop_operation_xyz
x,y,z
x-y,x,1/2+z
-y,x-y,z
-x,-y,1/2+z
-x+y,-x,z
y,-x+y,1/2+z
-x,-y,-z
-x+y,-x,1/2-z
y,-x+y,-z
x,y,1/2-z
x-y,x,-z
-y,x-y,1/2-z
loop_
_atom_site_type_symbol
_atom_site_label
_atom_site_fract_x
_atom_site_fract_y
_atom_site_fract_z
Si Si1 0.218636 0.023154 0.500917
Si Si2 0.351519 0.785277 0.851066
Si Si3 0.653345 0.693878 0.155010
Si Si4 0.522619 0.518901 0.901799
Si Si5 0.257509 0.373789 0.347835
O O1 0.197285 0.115101 0.487177
O O2 0.285781 0.050322 0.585342
O O3 0.276567 0.010956 0.420079
O O4 0.247158 0.683174 0.876369
O O5 0.350949 0.789478 0.750000
O O6 0.381192 0.894916 0.883296
O O7 0.697530 0.711441 0.250000
O O8 0.565973 0.577563 0.146068
O O9 0.606880 0.769325 0.144726
O O10 0.631452 0.536408 0.873817
O O11 0.500000 0.500000 0.000000
O O12 0.261195 0.346781 0.250000
#
# Coordination Sequence:
#
# PCOD9582003 Si02
#       5
#    12  12  12  12  12
#     4  10  21  39  62  90 122 154 198 245 301 354
#     4   8  18  36  56  84 116 143 187 249 301 355
#     4  10  22  40  59  84 121 160 204 249 292 358
#     4  12  22  36  62  87 121 162 199 249 310 356
#     4  10  22  40  59  84 121 160 204 249 292 358
#
# _framework density 18.970514000000001
#
# number of rings (size 3 to 8) (size 9 to 14) (size 15 to 20)
#    0.400    1.600    2.000    2.000    0.000    4.000 
#    1.200    0.000    0.000    2.400    0.000    0.000 
#    0.000    0.000    0.000    0.000    0.000    0.000 
#
# Total GULP energy -334463.362849 kJ/mol
# GULP energy per Si atom -5574.389381 kJ/mol
# Density = 1.892734 g / cm^3
# Si number density = 18.970514 Si / 1000 Ang^3
#
#
#
# Elastic Constant Matrix: (Units=GPa)
#
#
# Indices 1 2 3 4 5 6 
#
# 1 48.7483 14.2314 14.6689 0.0000 0.0000 0.0000
# 2 14.2314 48.7483 14.6689 0.0000 0.0000 0.0000
# 3 14.6689 14.6689 105.5803 0.0000 0.0000 0.0000
# 4 0.0000 0.0000 0.0000 21.9943 0.0000 0.0000
# 5 0.0000 0.0000 0.0000 0.0000 21.9943 0.0000
# 6 0.0000 0.0000 0.0000 0.0000 0.0000 17.2584
#
#
#
# Elastic Compliance Matrix: (Units=1/GPa)
#
#
# Indices 1 2 3 4 5 6 
#
# 1 0.022974 -0.005997 -0.002359 0.000000 0.000000 0.000000
# 2 -0.005997 0.022974 -0.002359 0.000000 0.000000 0.000000
# 3 -0.002359 -0.002359 0.010127 0.000000 0.000000 0.000000
# 4 0.000000 0.000000 0.000000 0.045466 0.000000 0.000000
# 5 0.000000 0.000000 0.000000 0.000000 0.045466 0.000000
# 6 0.000000 0.000000 0.000000 0.000000 0.000000 0.057943
#
#
# Mechanical properties :
#
#
# Convention : Reuss Voigt Hill
#
# Bulk Modulus (GPa) = 28.86349 32.24615 30.55482
# Shear Modulus (GPa) = 21.01472 22.88324 21.94898
#
# Velocity S-wave (km/s) = 3.33191 3.47688 3.40517
# Velocity P-wave (km/s) = 5.48180 5.75788 5.62154
#
# Compressibility (1/GPa) = 0.03464584
#
# Stress axis : x y z
#
# Youngs Moduli (GPa) = 43.52721 43.52721 98.74705
#
# Poissons Ratio (x) = 0.26104 0.23291
# Poissons Ratio (y) = 0.26104 0.23291
# Poissons Ratio (z) = 0.10267 0.10267
#
# Static dielectric constant tensor:
#      x y z
#    x 1.661620 0.000000 0.000000 
#    y 0.000000 1.661620 0.000000 
#    z 0.000000 0.000000 1.656080 
# 
# From -- ./inp_files/2639.got.cif
#   From: 2010.05.17/outbox.cif.g08.bks.cpg/sg176_2_cif.got.tgz:2639.got - 2010.06.03 11:36:45.
