data_PCOD9582191
_publ_section_title
;
Structure prediction by ZEFSAII (Michael W. Deem and Ramdas Pophale) SiO2 
 PCOD9582191
Probable space group: P 6 2 2
;
_chemical_formula_sum "Si O2"
_cell_formula_units_Z 78
_cell_length_a 23.026746
_cell_length_b 23.026746
_cell_length_c 8.758745
_cell_angle_alpha 90.000000
_cell_angle_beta 90.000000
_cell_angle_gamma 120.000000
_cell_volume 4021.959149
_symmetry_space_group_name_H-M "P 6 2 2"
_symmetry_group_IT_number 177
_symmetry_cell_setting 'hexagonal'
loop_
_space_group_symop_operation_xyz
x,y,z
x-y,x,z
-y,x-y,z
-x,-y,z
-x+y,-x,z
y,-x+y,z
x-y,-y,-z
-x,-x+y,-z
y,x,-z
-y,-x,-z
-x+y,y,-z
x,x-y,-z
loop_
_atom_site_type_symbol
_atom_site_label
_atom_site_fract_x
_atom_site_fract_y
_atom_site_fract_z
Si Si1 0.785715 0.174088 0.668131
Si Si2 0.919200 0.079570 0.669472
Si Si3 0.535511 0.955553 0.142303
Si Si4 0.233170 0.116585 0.000000
Si Si5 0.521307 0.821216 0.075004
Si Si6 0.248892 0.908278 0.112738
Si Si7 0.318285 0.344824 0.329579
O O1 0.797602 0.202399 0.500000
O O2 0.734669 0.189559 0.760640
O O3 0.855160 0.206671 0.756024
O O4 0.751605 0.094565 0.670805
O O5 0.901490 0.098511 0.500000
O O6 0.999459 0.115145 0.668563
O O7 0.901301 0.097412 0.835998
O O8 0.495073 0.875454 0.095861
O O9 0.581387 0.958525 0.281613
O O10 0.500000 0.000000 0.177529
O O11 0.581483 0.000000 0.000000
O O12 0.281191 0.196594 0.007873
O O13 0.491222 0.745611 0.000000
O O14 0.590064 0.869607 0.981475
O O15 0.298316 0.974923 0.201531
O O16 0.328869 0.328869 0.500000
#
# Coordination Sequence:
#
# PCOD9582191 Si02
#       7
#    12  12  12   6  12  12  12
#     4  10  19  32  52  76 104 144 203 245 284 362
#     4  10  23  45  65  83 101 138 193 256 326 388
#     4  10  20  35  58  88 122 155 203 256 310 379
#     4  12  24  38  57  82 120 144 186 260 316 372
#     4   9  18  36  57  79 114 160 202 242 294 378
#     4  11  21  38  51  76 108 155 200 243 302 376
#     4  11  22  35  56  80 113 162 198 251 319 375
#
# _framework density 19.393533000000001
#
# number of rings (size 3 to 8) (size 9 to 14) (size 15 to 20)
#    0.000    1.692    5.385    0.615    0.000    4.000 
#    2.769    0.769    0.000    0.000    0.000    0.000 
#    6.154    0.000    0.000    0.923    0.000    0.923 
#
# Total GULP energy -434205.058703 kJ/mol
# GULP energy per Si atom -5566.731522 kJ/mol
# Density = 1.934939 g / cm^3
# Si number density = 19.393533 Si / 1000 Ang^3
#
#
#
# Elastic Constant Matrix: (Units=GPa)
#
#
# Indices 1 2 3 4 5 6 
#
# 1 76.6178 31.2128 28.8272 0.0000 0.0000 0.0000
# 2 31.2128 76.6178 28.8272 0.0000 0.0000 0.0000
# 3 28.8272 28.8272 140.2123 0.0000 0.0000 0.0000
# 4 0.0000 0.0000 0.0000 25.7558 0.0000 0.0000
# 5 0.0000 0.0000 0.0000 0.0000 25.7558 0.0000
# 6 0.0000 0.0000 0.0000 0.0000 0.0000 22.7025
#
#
#
# Elastic Compliance Matrix: (Units=1/GPa)
#
#
# Indices 1 2 3 4 5 6 
#
# 1 0.016222 -0.005802 -0.002142 0.000000 0.000000 0.000000
# 2 -0.005802 0.016222 -0.002142 0.000000 0.000000 0.000000
# 3 -0.002142 -0.002142 0.008013 0.000000 0.000000 0.000000
# 4 0.000000 0.000000 0.000000 0.038826 0.000000 0.000000
# 5 0.000000 0.000000 0.000000 0.000000 0.038826 0.000000
# 6 0.000000 0.000000 0.000000 0.000000 0.000000 0.044048
#
#
# Mechanical properties :
#
#
# Convention : Reuss Voigt Hill
#
# Bulk Modulus (GPa) = 49.30332 52.35360 50.82846
# Shear Modulus (GPa) = 26.44231 28.48152 27.46192
#
# Velocity S-wave (km/s) = 3.69651 3.83640 3.76711
# Velocity P-wave (km/s) = 6.61035 6.83213 6.72215
#
# Compressibility (1/GPa) = 0.02028261
#
# Stress axis : x y z
#
# Youngs Moduli (GPa) = 61.64626 61.64626 124.79913
#
# Poissons Ratio (x) = 0.35770 0.26734
# Poissons Ratio (y) = 0.35770 0.26734
# Poissons Ratio (z) = 0.13206 0.13206
#
# Static dielectric constant tensor:
#      x y z
#    x 1.727470 0.000000 0.000000 
#    y 0.000000 1.727470 0.000000 
#    z 0.000000 0.000000 1.577660 
# 
# From -- ./inp_files/1571.got.cif
#   From: 2010.05.17/outbox.cif.g08.bks.cpg/sg177_1_cif.got.tgz:1571.got - 2010.05.20 11:28:44.
