data_PCOD9582566
_publ_section_title
;
Structure prediction by ZEFSAII (Michael W. Deem and Ramdas Pophale) SiO2 
 PCOD9582566
Probable space group: P 61 2 2
;
_chemical_formula_sum "Si O2"
_cell_formula_units_Z 42
_cell_length_a 17.144346
_cell_length_b 17.144346
_cell_length_c 6.743003
_cell_angle_alpha 90.000000
_cell_angle_beta 90.000000
_cell_angle_gamma 120.000000
_cell_volume 1716.428948
_symmetry_space_group_name_H-M "P 61 2 2"
_symmetry_group_IT_number 178
_symmetry_cell_setting 'hexagonal'
loop_
_space_group_symop_operation_xyz
x,y,z
x-y,x,1/6+z
-y,x-y,1/3+z
-x,-y,1/2+z
-x+y,-x,2/3+z
y,-x+y,5/6+z
x-y,-y,-z
-x,-x+y,2/3-z
y,x,1/3-z
-y,-x,5/6-z
-x+y,y,1/2-z
x,x-y,1/6-z
loop_
_atom_site_type_symbol
_atom_site_label
_atom_site_fract_x
_atom_site_fract_y
_atom_site_fract_z
Si Si1 0.000000 0.827985 0.833334
Si Si2 0.493228 0.385207 0.175824
Si Si3 0.853759 0.200539 0.185220
Si Si4 0.659683 0.105156 0.056076
O O1 0.051258 0.798088 0.671811
O O2 0.921791 0.843582 0.750000
O O3 0.444546 0.444546 0.166667
O O4 0.433098 0.300995 0.317508
O O5 0.598159 0.455744 0.211452
O O6 0.478362 0.349061 0.951805
O O7 0.829890 0.170111 0.416667
O O8 0.765422 0.137051 0.057019
O O9 0.608259 0.000000 0.000000
#
# Coordination Sequence:
#
# PCOD9582566 Si02
#       4
#     6  12  12  12
#     4  10  20  36  56  80 114 156 216 254 312 388
#     4   9  16  31  56  82 110 154 192 240 305 379
#     4   9  17  32  57  83 109 159 201 244 309 391
#     4   9  18  31  52  91 116 144 204 259 297 363
#
# _framework density 24.469408000000001
#
# number of rings (size 3 to 8) (size 9 to 14) (size 15 to 20)
#    0.000    2.857    1.429    0.000    0.000    0.000 
#    2.571    1.429    0.000    0.000  141.143    0.000 
#    0.000    0.000    0.000    0.000    0.000    0.000 
#
# Total GULP energy -234015.522428 kJ/mol
# GULP energy per Si atom -5571.798153 kJ/mol
# Density = 2.441371 g / cm^3
# Si number density = 24.469408 Si / 1000 Ang^3
#
#
#
# Elastic Constant Matrix: (Units=GPa)
#
#
# Indices 1 2 3 4 5 6 
#
# 1 169.1298 90.6311 30.8512 0.0000 0.0000 0.0000
# 2 90.6311 169.1298 30.8512 0.0000 0.0000 0.0000
# 3 30.8512 30.8512 22.8991 0.0000 0.0000 0.0000
# 4 0.0000 0.0000 0.0000 44.4751 0.0000 0.0000
# 5 0.0000 0.0000 0.0000 0.0000 44.4751 0.0000
# 6 0.0000 0.0000 0.0000 0.0000 0.0000 39.2494
#
#
#
# Elastic Compliance Matrix: (Units=1/GPa)
#
#
# Indices 1 2 3 4 5 6 
#
# 1 0.009200 -0.003539 -0.007628 0.000000 0.000000 0.000000
# 2 -0.003539 0.009200 -0.007628 0.000000 0.000000 0.000000
# 3 -0.007628 -0.007628 0.064222 0.000000 0.000000 0.000000
# 4 0.000000 0.000000 0.000000 0.022484 0.000000 0.000000
# 5 0.000000 0.000000 0.000000 0.000000 0.022484 0.000000
# 6 0.000000 0.000000 0.000000 0.000000 0.000000 0.025478
#
#
# Mechanical properties :
#
#
# Convention : Reuss Voigt Hill
#
# Bulk Modulus (GPa) = 22.20483 73.98061 48.09272
# Shear Modulus (GPa) = 24.31085 39.56161 31.93623
#
# Velocity S-wave (km/s) = 3.15544 4.02528 3.61660
# Velocity P-wave (km/s) = 4.72969 7.20440 6.09399
#
# Compressibility (1/GPa) = 0.04503525
#
# Stress axis : x y z
#
# Youngs Moduli (GPa) = 108.69234 108.69234 15.57090
#
# Poissons Ratio (x) = 0.38464 0.11877
# Poissons Ratio (y) = 0.38464 0.11877
# Poissons Ratio (z) = 0.82905 0.82905
#
# Static dielectric constant tensor:
#      x y z
#    x 1.973560 0.000000 0.000000 
#    y 0.000000 1.973560 0.000000 
#    z 0.000000 0.000000 2.118030 
# 
# From -- ./inp_files/2401.got.cif
#   From: 2010.05.17/outbox.cif.g08.bks.cpg/sg178_2_cif.got.tgz:2401.got - 2010.05.20 11:30:59.
