data_PCOD9582105
_publ_section_title
;
Structure prediction by ZEFSAII (Michael W. Deem and Ramdas Pophale) SiO2 
 PCOD9582105
Probable space group: P 63/M
;
_chemical_formula_sum "Si O2"
_cell_formula_units_Z 46
_cell_length_a 13.977735
_cell_length_b 13.977735
_cell_length_c 14.150876
_cell_angle_alpha 90.000000
_cell_angle_beta 90.000000
_cell_angle_gamma 120.000000
_cell_volume 2394.349600
_symmetry_space_group_name_H-M "P 63/M"
_symmetry_group_IT_number 176
_symmetry_cell_setting 'hexagonal'
loop_
_space_group_symop_operation_xyz
x,y,z
x-y,x,1/2+z
-y,x-y,z
-x,-y,1/2+z
-x+y,-x,z
y,-x+y,1/2+z
-x,-y,-z
-x+y,-x,1/2-z
y,-x+y,-z
x,y,1/2-z
x-y,x,-z
-y,x-y,1/2-z
loop_
_atom_site_type_symbol
_atom_site_label
_atom_site_fract_x
_atom_site_fract_y
_atom_site_fract_z
Si Si1 0.584023 0.627732 0.750000
Si Si2 0.578903 0.799762 0.897616
Si Si3 0.679566 0.851868 0.250000
Si Si4 0.980580 0.364367 0.250000
Si Si5 0.876648 0.757355 0.542882
Si Si6 0.333333 0.666667 0.865146
O O1 0.587538 0.704560 0.838234
O O2 0.694348 0.618346 0.750000
O O3 0.473136 0.506781 0.750000
O O4 0.628550 0.913340 0.838181
O O5 0.450504 0.758725 0.901064
O O6 0.635176 0.818370 0.998284
O O7 0.612213 0.717868 0.250000
O O8 0.752342 0.885936 0.155037
O O9 0.817733 0.818292 0.496504
O O10 0.333334 0.666668 0.750000
#
# Coordination Sequence:
#
# PCOD9582105 Si02
#       6
#     6  12   6   6  12   4
#     4  11  21  41  72  99 134 175 226 288 334 401
#     4  11  20  39  69 104 129 167 234 283 338 391
#     4  12  26  46  66  94 142 178 222 284 344 414
#     4  11  21  41  72  99 134 175 226 288 334 401
#     4  12  26  44  67  99 134 185 232 277 344 401
#     4  12  18  36  72 109 128 166 234 300 330 388
#
# _framework density 19.211898000000001
#
# number of rings (size 3 to 8) (size 9 to 14) (size 15 to 20)
#    0.000    0.522   10.435    0.261    0.000    1.043 
#    5.478    3.913    0.000    0.000    0.000    0.000 
#    0.000    0.000    0.000    0.000    0.000    0.000 
#
# Total GULP energy -256740.504612 kJ/mol
# GULP energy per Si atom -5581.315318 kJ/mol
# Density = 1.916817 g / cm^3
# Si number density = 19.211898 Si / 1000 Ang^3
#
#
#
# Elastic Constant Matrix: (Units=GPa)
#
#
# Indices 1 2 3 4 5 6 
#
# 1 75.3422 50.9697 30.9845 0.0000 0.0000 0.0014
# 2 50.9697 75.3434 30.9853 0.0000 0.0000 0.0006
# 3 30.9845 30.9853 144.5971 0.0000 0.0000 0.0001
# 4 0.0000 0.0000 0.0000 -14.4207 -0.0001 0.0000
# 5 0.0000 0.0000 0.0000 -0.0001 -14.4212 0.0000
# 6 0.0014 0.0006 0.0001 0.0000 0.0000 12.1874
#
#
#
# Elastic Compliance Matrix: (Units=1/GPa)
#
#
# Indices 1 2 3 4 5 6 
#
# 1 0.024938 -0.016091 -0.001896 0.000000 0.000000 -0.000002
# 2 -0.016091 0.024938 -0.001896 0.000000 0.000000 0.000001
# 3 -0.001896 -0.001896 0.007728 0.000000 0.000000 0.000000
# 4 0.000000 0.000000 0.000000 -0.069345 0.000000 0.000000
# 5 0.000000 0.000000 0.000000 0.000000 -0.069342 0.000000
# 6 -0.000002 0.000001 0.000000 0.000000 0.000000 0.082052
#
#
# Mechanical properties :
#
#
# Convention : Reuss Voigt Hill
#
# Bulk Modulus (GPa) = 56.05671 57.90685 56.98178
# Shear Modulus (GPa) = 107.11179 8.82531 57.96855
#
# Velocity S-wave (km/s) = 7.47488 2.14561 5.49898
# Velocity P-wave (km/s) = 10.18528 6.02866 8.36913
#
# Compressibility (1/GPa) = 0.01783908
#
# Stress axis : x y z
#
# Youngs Moduli (GPa) = 40.09944 40.09996 129.39573
#
# Poissons Ratio (x) = 0.64524 0.24529
# Poissons Ratio (y) = 0.64524 0.24531
# Poissons Ratio (z) = 0.07602 0.07602
#
# Static dielectric constant tensor:
#      x y z
#    x 1.678400 0.000000 0.000000 
#    y 0.000000 1.678410 0.000000 
#    z 0.000000 0.000000 1.664320 
# 
# From -- ./inp_files/1732.got.cif
#   From: 2010.05.17/outbox.cif.g08.bks.cpg/sg176_1_cif.got.tgz:1732.got - 2010.06.03 11:36:45.
