data_PCOD9582534
_publ_section_title
;
Structure prediction by ZEFSAII (Michael W. Deem and Ramdas Pophale) SiO2 
 PCOD9582534
Probable space group: P 61 2 2
;
_chemical_formula_sum "Si O2"
_cell_formula_units_Z 66
_cell_length_a 22.551347
_cell_length_b 22.551347
_cell_length_c 8.332444
_cell_angle_alpha 90.000000
_cell_angle_beta 90.000000
_cell_angle_gamma 120.000000
_cell_volume 3669.847439
_symmetry_space_group_name_H-M "P 61 2 2"
_symmetry_group_IT_number 178
_symmetry_cell_setting 'hexagonal'
loop_
_space_group_symop_operation_xyz
x,y,z
x-y,x,1/6+z
-y,x-y,1/3+z
-x,-y,1/2+z
-x+y,-x,2/3+z
y,-x+y,5/6+z
x-y,-y,-z
-x,-x+y,2/3-z
y,x,1/3-z
-y,-x,5/6-z
-x+y,y,1/2-z
x,x-y,1/6-z
loop_
_atom_site_type_symbol
_atom_site_label
_atom_site_fract_x
_atom_site_fract_y
_atom_site_fract_z
Si Si1 0.369798 0.878244 0.280215
Si Si2 0.080915 0.376672 0.355447
Si Si3 0.113689 0.361895 0.997903
Si Si4 0.000000 0.876411 0.833334
Si Si5 0.459214 0.229607 0.583334
Si Si6 0.382827 0.000000 0.500000
Si Si7 0.848604 0.740535 0.564228
O O1 0.435970 0.871940 0.250000
O O2 0.308022 0.809432 0.358597
O O3 0.391832 0.945562 0.391951
O O4 0.336427 0.890091 0.120513
O O5 0.089039 0.318991 0.452018
O O6 0.000000 0.345532 0.333334
O O7 0.117935 0.382276 0.185430
O O8 0.180111 0.412650 0.894405
O O9 0.048120 0.364479 0.937717
O O10 0.107340 0.287689 0.976946
O O11 0.944410 0.888819 0.750000
O O12 0.958655 0.813828 0.958590
O O13 0.871958 0.743916 0.750000
#
# Coordination Sequence:
#
# PCOD9582534 Si02
#       7
#    12  12  12   6   6   6  12
#     4  11  24  39  62  87 126 164 199 248 310 374
#     4  11  19  35  61  91 120 150 203 248 302 383
#     4  10  20  36  59  86 119 152 194 251 318 361
#     4  10  20  34  50  72 110 148 198 248 288 350
#     4  10  22  42  60  86 126 158 198 262 308 352
#     4  10  22  36  54  90 122 150 186 262 322 352
#     4   9  18  32  56  82 102 143 199 251 296 348
#
# _framework density 17.984399
#
# number of rings (size 3 to 8) (size 9 to 14) (size 15 to 20)
#    0.000    1.818    4.545    0.000    1.273    0.000 
#    0.000    3.636    4.000    0.000    0.000    0.000 
#    0.000    0.000    0.000    0.000    0.000    0.000 
#
# Total GULP energy -367753.329786 kJ/mol
# GULP energy per Si atom -5572.020148 kJ/mol
# Density = 1.794347 g / cm^3
# Si number density = 17.984399 Si / 1000 Ang^3
#
#
#
# Elastic Constant Matrix: (Units=GPa)
#
#
# Indices 1 2 3 4 5 6 
#
# 1 147.2275 83.2429 44.2072 0.0000 0.0000 0.0000
# 2 83.2429 147.2275 44.2072 0.0000 0.0000 0.0000
# 3 44.2072 44.2072 63.3967 0.0000 0.0000 0.0000
# 4 0.0000 0.0000 0.0000 18.3604 0.0000 0.0000
# 5 0.0000 0.0000 0.0000 0.0000 18.3604 0.0000
# 6 0.0000 0.0000 0.0000 0.0000 0.0000 31.9923
#
#
#
# Elastic Compliance Matrix: (Units=1/GPa)
#
#
# Indices 1 2 3 4 5 6 
#
# 1 0.010776 -0.004853 -0.004131 0.000000 0.000000 0.000000
# 2 -0.004853 0.010776 -0.004131 0.000000 0.000000 0.000000
# 3 -0.004131 -0.004131 0.021534 0.000000 0.000000 0.000000
# 4 0.000000 0.000000 0.000000 0.054465 0.000000 0.000000
# 5 0.000000 0.000000 0.000000 0.000000 0.054465 0.000000
# 6 0.000000 0.000000 0.000000 0.000000 0.000000 0.031258
#
#
# Mechanical properties :
#
#
# Convention : Reuss Voigt Hill
#
# Bulk Modulus (GPa) = 59.31504 77.90735 68.61119
# Shear Modulus (GPa) = 23.24270 26.15557 24.69914
#
# Velocity S-wave (km/s) = 3.59887 3.81773 3.70991
# Velocity P-wave (km/s) = 7.09381 7.92760 7.52227
#
# Compressibility (1/GPa) = 0.01685913
#
# Stress axis : x y z
#
# Youngs Moduli (GPa) = 92.79752 92.79752 46.43769
#
# Poissons Ratio (x) = 0.45031 0.19181
# Poissons Ratio (y) = 0.45031 0.19181
# Poissons Ratio (z) = 0.38330 0.38330
#
# Static dielectric constant tensor:
#      x y z
#    x 1.626320 0.000000 0.000000 
#    y 0.000000 1.626320 0.000000 
#    z 0.000000 0.000000 1.699740 
# 
# From -- ./inp_files/3294.got.cif
#   From: 2010.05.17/outbox.cif.g08.bks.cpg/sg178_2_cif.got.tgz:3294.got - 2010.05.20 11:30:59.
