data_PCOD9582038
_publ_section_title
;
Structure prediction by ZEFSAII (Michael W. Deem and Ramdas Pophale) SiO2 
 PCOD9582038
Probable space group: P 63/M
;
_chemical_formula_sum "Si O2"
_cell_formula_units_Z 66
_cell_length_a 21.174193
_cell_length_b 21.174193
_cell_length_c 7.839249
_cell_angle_alpha 90.000000
_cell_angle_beta 90.000000
_cell_angle_gamma 120.000000
_cell_volume 3043.819013
_symmetry_space_group_name_H-M "P 63/M"
_symmetry_group_IT_number 176
_symmetry_cell_setting 'hexagonal'
loop_
_space_group_symop_operation_xyz
x,y,z
x-y,x,1/2+z
-y,x-y,z
-x,-y,1/2+z
-x+y,-x,z
y,-x+y,1/2+z
-x,-y,-z
-x+y,-x,1/2-z
y,-x+y,-z
x,y,1/2-z
x-y,x,-z
-y,x-y,1/2-z
loop_
_atom_site_type_symbol
_atom_site_label
_atom_site_fract_x
_atom_site_fract_y
_atom_site_fract_z
Si Si1 0.378450 0.430788 0.447528
Si Si2 0.482505 0.255493 0.559966
Si Si3 0.754821 0.713949 0.957324
Si Si4 0.734699 0.308021 0.250000
Si Si5 0.508493 0.413710 0.950968
Si Si6 0.316765 0.190514 0.451210
O O1 0.363397 0.437728 0.250000
O O2 0.303659 0.367456 0.522624
O O3 0.423689 0.512102 0.520514
O O4 0.435701 0.401630 0.458030
O O5 0.498807 0.240107 0.750000
O O6 0.522262 0.235552 0.415089
O O7 0.513872 0.341920 0.541958
O O8 0.395564 0.219832 0.538067
O O9 0.754532 0.713119 0.750000
O O10 0.725402 0.767815 0.011328
O O11 0.833060 0.729132 0.017928
O O12 0.742090 0.387310 0.250000
O O13 0.500188 0.426534 0.750000
O O14 0.331109 0.205299 0.250000
#
# Coordination Sequence:
#
# PCOD9582038 Si02
#       6
#    12  12  12   6  12  12
#     4   9  17  32  53  82 121 159 203 259 318 379
#     4  11  22  40  68  92 127 173 222 282 341 395
#     4  10  22  39  62  93 130 171 215 273 335 401
#     4  10  26  46  62  90 126 172 236 282 326 388
#     4   9  18  30  52  87 120 160 207 259 321 379
#     4  11  23  41  66  97 134 171 218 272 334 405
#
# _framework density 21.683288000000001
#
# number of rings (size 3 to 8) (size 9 to 14) (size 15 to 20)
#    0.182    1.818    2.727    0.545    1.273    4.364 
#    0.000    1.818    0.000    0.364    0.000    0.000 
#    0.000    0.000    0.000    0.000    0.000    0.000 
#
# Total GULP energy -368818.291799 kJ/mol
# GULP energy per Si atom -5588.155936 kJ/mol
# Density = 2.163394 g / cm^3
# Si number density = 21.683288 Si / 1000 Ang^3
#
#
#
# Elastic Constant Matrix: (Units=GPa)
#
#
# Indices 1 2 3 4 5 6 
#
# 1 88.8914 37.5045 23.6703 0.0000 0.0000 0.0000
# 2 37.5045 88.8914 23.6703 0.0000 0.0000 0.0000
# 3 23.6703 23.6703 77.9480 0.0000 0.0000 0.0000
# 4 0.0000 0.0000 0.0000 15.6674 0.0000 0.0000
# 5 0.0000 0.0000 0.0000 0.0000 15.6674 0.0000
# 6 0.0000 0.0000 0.0000 0.0000 0.0000 25.6934
#
#
#
# Elastic Compliance Matrix: (Units=1/GPa)
#
#
# Indices 1 2 3 4 5 6 
#
# 1 0.014194 -0.005267 -0.002711 0.000000 0.000000 0.000000
# 2 -0.005267 0.014194 -0.002711 0.000000 0.000000 0.000000
# 3 -0.002711 -0.002711 0.014475 0.000000 0.000000 0.000000
# 4 0.000000 0.000000 0.000000 0.063827 0.000000 0.000000
# 5 0.000000 0.000000 0.000000 0.000000 0.063827 0.000000
# 6 0.000000 0.000000 0.000000 0.000000 0.000000 0.038920
#
#
# Mechanical properties :
#
#
# Convention : Reuss Voigt Hill
#
# Bulk Modulus (GPa) = 46.54183 47.26901 46.90542
# Shear Modulus (GPa) = 21.01061 22.79804 21.90432
#
# Velocity S-wave (km/s) = 3.11622 3.24606 3.18180
# Velocity P-wave (km/s) = 5.87015 5.99135 5.93106
#
# Compressibility (1/GPa) = 0.02148605
#
# Stress axis : x y z
#
# Youngs Moduli (GPa) = 70.45432 70.45432 69.08250
#
# Poissons Ratio (x) = 0.37106 0.18727
# Poissons Ratio (y) = 0.37106 0.18727
# Poissons Ratio (z) = 0.19099 0.19099
#
# Static dielectric constant tensor:
#      x y z
#    x 1.787000 0.000000 0.000000 
#    y 0.000000 1.787000 0.000000 
#    z 0.000000 0.000000 1.806160 
# 
# From -- ./inp_files/988.got.cif
#   From: 2010.05.17/outbox.cif.g08.bks.cpg/sg176_1_cif.got.tgz:988.got - 2010.06.03 11:36:45.
