data_PCOD9582381
_publ_section_title
;
Structure prediction by ZEFSAII (Michael W. Deem and Ramdas Pophale) SiO2 
 PCOD9582381
Probable space group: P 61 2 2
;
_chemical_formula_sum "Si O2"
_cell_formula_units_Z 60
_cell_length_a 15.320051
_cell_length_b 15.320051
_cell_length_c 19.328170
_cell_angle_alpha 90.000000
_cell_angle_beta 90.000000
_cell_angle_gamma 120.000000
_cell_volume 3928.635987
_symmetry_space_group_name_H-M "P 61 2 2"
_symmetry_group_IT_number 178
_symmetry_cell_setting 'hexagonal'
loop_
_space_group_symop_operation_xyz
x,y,z
x-y,x,1/6+z
-y,x-y,1/3+z
-x,-y,1/2+z
-x+y,-x,2/3+z
y,-x+y,5/6+z
x-y,-y,-z
-x,-x+y,2/3-z
y,x,1/3-z
-y,-x,5/6-z
-x+y,y,1/2-z
x,x-y,1/6-z
loop_
_atom_site_type_symbol
_atom_site_label
_atom_site_fract_x
_atom_site_fract_y
_atom_site_fract_z
Si Si1 0.683052 0.185196 0.085666
Si Si2 0.456610 0.134354 0.110713
Si Si3 0.780980 0.489857 0.577093
Si Si4 0.418972 0.581029 0.916667
Si Si5 0.591876 0.000000 0.000000
Si Si6 0.078334 0.592006 0.730024
O O1 0.570561 0.171416 0.083232
O O2 0.700023 0.175169 0.167212
O O3 0.764487 0.299966 0.066194
O O4 0.681168 0.096091 0.040002
O O5 0.423911 0.211956 0.083334
O O6 0.461790 0.142285 0.193719
O O7 0.393011 0.017325 0.093054
O O8 0.741657 0.370829 0.583334
O O9 0.688257 0.508053 0.587411
O O10 0.476750 0.573623 0.849618
O O11 0.505460 0.947532 0.058246
#
# Coordination Sequence:
#
# PCOD9582381 Si02
#       6
#    12  12  12   6   6  12
#     4   9  18  30  43  63  88 123 164 198 239 286
#     4  10  18  30  47  64  92 125 164 203 242 291
#     4   9  18  30  47  61  94 130 159 200 249 288
#     4  10  20  32  46  66  94 124 168 214 242 290
#     4  10  20  28  44  64  90 118 166 208 236 290
#     4  10  21  28  46  69  89 124 172 201 242 295
#
# _framework density 15.272475999999999
#
# number of rings (size 3 to 8) (size 9 to 14) (size 15 to 20)
#    0.000    2.400    1.000    2.400   12.600    0.000 
#    0.000    0.000    0.000    0.000    0.000    0.000 
#    0.000    0.000    0.000   28.800    0.000    1.200 
#
# Total GULP energy -334210.297538 kJ/mol
# GULP energy per Si atom -5570.171626 kJ/mol
# Density = 1.523772 g / cm^3
# Si number density = 15.272476 Si / 1000 Ang^3
#
#
#
# Elastic Constant Matrix: (Units=GPa)
#
#
# Indices 1 2 3 4 5 6 
#
# 1 53.5767 26.7441 21.2482 0.0000 0.0000 0.0000
# 2 26.7441 53.5767 21.2482 0.0000 0.0000 0.0000
# 3 21.2482 21.2482 53.5549 0.0000 0.0000 0.0000
# 4 0.0000 0.0000 0.0000 20.5910 0.0000 0.0000
# 5 0.0000 0.0000 0.0000 0.0000 20.5910 0.0000
# 6 0.0000 0.0000 0.0000 0.0000 0.0000 13.4163
#
#
#
# Elastic Compliance Matrix: (Units=1/GPa)
#
#
# Indices 1 2 3 4 5 6 
#
# 1 0.026513 -0.010755 -0.006252 0.000000 0.000000 0.000000
# 2 -0.010755 0.026513 -0.006252 0.000000 0.000000 0.000000
# 3 -0.006252 -0.006252 0.023633 0.000000 0.000000 0.000000
# 4 0.000000 0.000000 0.000000 0.048565 0.000000 0.000000
# 5 0.000000 0.000000 0.000000 0.000000 0.048565 0.000000
# 6 0.000000 0.000000 0.000000 0.000000 0.000000 0.074536
#
#
# Mechanical properties :
#
#
# Convention : Reuss Voigt Hill
#
# Bulk Modulus (GPa) = 33.17725 33.24329 33.21027
# Shear Modulus (GPa) = 16.39929 17.01749 16.70839
#
# Velocity S-wave (km/s) = 3.28041 3.34167 3.31119
# Velocity P-wave (km/s) = 6.00990 6.05831 6.03415
#
# Compressibility (1/GPa) = 0.03014114
#
# Stress axis : x y z
#
# Youngs Moduli (GPa) = 37.71732 37.71732 42.31284
#
# Poissons Ratio (x) = 0.40565 0.26454
# Poissons Ratio (y) = 0.40565 0.26454
# Poissons Ratio (z) = 0.23581 0.23581
#
# Static dielectric constant tensor:
#      x y z
#    x 1.500860 0.000000 0.000000 
#    y 0.000000 1.500860 0.000000 
#    z 0.000000 0.000000 1.574950 
# 
# From -- ./inp_files/7600.got.cif
#   From: 2010.05.17/outbox.cif.g08.bks.cpg/sg178_4_cif.got.tgz:7600.got - 2010.05.20 11:30:59.
