data_PCOD9582658
_publ_section_title
;
Structure prediction by ZEFSAII (Michael W. Deem and Ramdas Pophale) SiO2 
 PCOD9582658
Probable space group: P 61 2 2
;
_chemical_formula_sum "Si O2"
_cell_formula_units_Z 54
_cell_length_a 13.036280
_cell_length_b 13.036280
_cell_length_c 15.109608
_cell_angle_alpha 90.000000
_cell_angle_beta 90.000000
_cell_angle_gamma 120.000000
_cell_volume 2223.776768
_symmetry_space_group_name_H-M "P 61 2 2"
_symmetry_group_IT_number 178
_symmetry_cell_setting 'hexagonal'
loop_
_space_group_symop_operation_xyz
x,y,z
x-y,x,1/6+z
-y,x-y,1/3+z
-x,-y,1/2+z
-x+y,-x,2/3+z
y,-x+y,5/6+z
x-y,-y,-z
-x,-x+y,2/3-z
y,x,1/3-z
-y,-x,5/6-z
-x+y,y,1/2-z
x,x-y,1/6-z
loop_
_atom_site_type_symbol
_atom_site_label
_atom_site_fract_x
_atom_site_fract_y
_atom_site_fract_z
Si Si1 0.015333 0.310665 0.937669
Si Si2 0.199939 0.633657 0.250376
Si Si3 0.938444 0.298707 0.427292
Si Si4 0.234146 0.468291 0.750000
Si Si5 0.162301 0.038508 0.828865
O O1 0.883953 0.269820 0.974294
O O2 0.000000 0.320656 0.833334
O O3 0.127638 0.437876 0.963318
O O4 0.042908 0.206632 0.949982
O O5 0.340776 0.681552 0.250000
O O6 0.129893 0.498420 0.216795
O O7 0.193618 0.651700 0.355840
O O8 0.836865 0.163136 0.416667
O O9 0.000000 0.347049 0.333334
O O10 0.021618 0.277374 0.493398
O O11 0.133282 0.070645 0.927581
#
# Coordination Sequence:
#
# PCOD9582658 Si02
#       5
#    12  12  12   6  12
#     4  10  22  45  70 104 140 188 252 319 378 452
#     4  10  23  41  70 100 138 195 247 310 380 449
#     4  11  22  43  62  95 138 184 233 295 373 438
#     4  10  20  44  70  98 132 192 246 306 384 448
#     4  12  26  47  70 105 149 191 248 310 388 469
#
# _framework density 24.283010999999998
#
# number of rings (size 3 to 8) (size 9 to 14) (size 15 to 20)
#    0.000    1.333    2.222    4.667    0.000    3.556 
#   14.000    0.000    0.000    0.000    0.000    0.000 
#    0.000    0.000    0.000    0.000    0.000    0.000 
#
# Total GULP energy -300663.016088 kJ/mol
# GULP energy per Si atom -5567.833631 kJ/mol
# Density = 2.422774 g / cm^3
# Si number density = 24.283011 Si / 1000 Ang^3
#
#
#
# Elastic Constant Matrix: (Units=GPa)
#
#
# Indices 1 2 3 4 5 6 
#
# 1 90.8072 18.8164 18.6481 0.0000 0.0000 0.0000
# 2 18.8164 90.8072 18.6481 0.0000 0.0000 0.0000
# 3 18.6481 18.6481 62.1438 0.0000 0.0000 0.0000
# 4 0.0000 0.0000 0.0000 29.7049 0.0000 0.0000
# 5 0.0000 0.0000 0.0000 0.0000 29.7049 0.0000
# 6 0.0000 0.0000 0.0000 0.0000 0.0000 35.9954
#
#
#
# Elastic Compliance Matrix: (Units=1/GPa)
#
#
# Indices 1 2 3 4 5 6 
#
# 1 0.012025 -0.001866 -0.003049 0.000000 0.000000 0.000000
# 2 -0.001866 0.012025 -0.003049 0.000000 0.000000 0.000000
# 3 -0.003049 -0.003049 0.017921 0.000000 0.000000 0.000000
# 4 0.000000 0.000000 0.000000 0.033664 0.000000 0.000000
# 5 0.000000 0.000000 0.000000 0.000000 0.033664 0.000000
# 6 0.000000 0.000000 0.000000 0.000000 0.000000 0.027781
#
#
# Mechanical properties :
#
#
# Convention : Reuss Voigt Hill
#
# Bulk Modulus (GPa) = 38.39422 39.55369 38.97395
# Shear Modulus (GPa) = 30.92353 31.59076 31.25714
#
# Velocity S-wave (km/s) = 3.57243 3.61077 3.59165
# Velocity P-wave (km/s) = 5.73252 5.80582 5.76929
#
# Compressibility (1/GPa) = 0.02604559
#
# Stress axis : x y z
#
# Youngs Moduli (GPa) = 83.16011 83.16011 55.79929
#
# Poissons Ratio (x) = 0.15515 0.17011
# Poissons Ratio (y) = 0.15515 0.17011
# Poissons Ratio (z) = 0.25352 0.25352
#
# Static dielectric constant tensor:
#      x y z
#    x 2.004990 0.000000 0.000000 
#    y 0.000000 2.004990 0.000000 
#    z 0.000000 0.000000 2.025050 
# 
# From -- ./inp_files/6606.got.cif
#   From: 2010.05.17/outbox.cif.g08.bks.cpg/sg178_4_cif.got.tgz:6606.got - 2010.05.20 11:30:59.
