data_PCOD9582026
_publ_section_title
;
Structure prediction by ZEFSAII (Michael W. Deem and Ramdas Pophale) SiO2 
 PCOD9582026
Probable space group: P 63/M
;
_chemical_formula_sum "Si O2"
_cell_formula_units_Z 58
_cell_length_a 16.776975
_cell_length_b 16.776975
_cell_length_c 13.733498
_cell_angle_alpha 90.000000
_cell_angle_beta 90.000000
_cell_angle_gamma 120.000000
_cell_volume 3347.642826
_symmetry_space_group_name_H-M "P 63/M"
_symmetry_group_IT_number 176
_symmetry_cell_setting 'hexagonal'
loop_
_space_group_symop_operation_xyz
x,y,z
x-y,x,1/2+z
-y,x-y,z
-x,-y,1/2+z
-x+y,-x,z
y,-x+y,1/2+z
-x,-y,-z
-x+y,-x,1/2-z
y,-x+y,-z
x,y,1/2-z
x-y,x,-z
-y,x-y,1/2-z
loop_
_atom_site_type_symbol
_atom_site_label
_atom_site_fract_x
_atom_site_fract_y
_atom_site_fract_z
Si Si1 0.371516 0.103509 0.531762
Si Si2 0.108114 0.709459 0.250000
Si Si3 0.851073 0.551556 0.750000
Si Si4 0.333335 0.666668 0.866505
Si Si5 0.876132 0.429195 0.440099
Si Si6 0.501717 0.001767 0.750000
Si Si7 0.906371 0.618076 0.965087
O O1 0.350839 0.096459 0.646620
O O2 0.473017 0.116286 0.511435
O O3 0.372116 0.194026 0.493252
O O4 0.302334 0.005932 0.485729
O O5 0.219020 0.743820 0.250000
O O6 0.027184 0.604766 0.250000
O O7 0.891379 0.605994 0.849671
O O8 0.895875 0.486836 0.750000
O O9 0.333334 0.666668 0.750000
O O10 0.389073 0.771160 0.904217
O O11 0.942811 0.450093 0.346433
O O12 0.900659 0.525264 0.491565
#
# Coordination Sequence:
#
# PCOD9582026 Si02
#       7
#    12   6   6   4  12   6  12
#     4  11  22  38  59  82 113 152 196 238 293 346
#     4  10  22  36  53  81 112 145 193 242 275 339
#     4  10  22  36  53  81 112 145 193 242 275 339
#     4  12  24  36  51  88 119 157 192 255 288 343
#     4  12  22  36  57  79 117 156 195 238 289 348
#     4  12  20  36  62  80 114 158 200 234 288 344
#     4  11  22  38  59  82 113 152 196 238 293 346
#
# _framework density 17.325623
#
# number of rings (size 3 to 8) (size 9 to 14) (size 15 to 20)
#    0.000    0.828    7.241    1.862    0.000    0.000 
#    0.621    3.103    0.000    0.414    0.000    0.000 
#    0.000    0.000    0.000    0.000    0.000    0.000 
#
# Total GULP energy -323147.890799 kJ/mol
# GULP energy per Si atom -5571.515359 kJ/mol
# Density = 1.728619 g / cm^3
# Si number density = 17.325623 Si / 1000 Ang^3
#
#
#
# Elastic Constant Matrix: (Units=GPa)
#
#
# Indices 1 2 3 4 5 6 
#
# 1 86.6445 34.7457 19.1382 0.0000 0.0000 -0.0001
# 2 34.7457 86.6457 19.1380 0.0000 0.0000 -0.0001
# 3 19.1382 19.1380 92.7326 0.0000 0.0000 0.0002
# 4 0.0000 0.0000 0.0000 7.9710 -0.0001 0.0000
# 5 0.0000 0.0000 0.0000 -0.0001 7.9707 0.0000
# 6 -0.0001 -0.0001 0.0002 0.0000 0.0000 25.9492
#
#
#
# Elastic Compliance Matrix: (Units=1/GPa)
#
#
# Indices 1 2 3 4 5 6 
#
# 1 0.014040 -0.005228 -0.001819 0.000000 0.000000 0.000000
# 2 -0.005228 0.014040 -0.001818 0.000000 0.000000 0.000000
# 3 -0.001819 -0.001818 0.011534 0.000000 0.000000 0.000000
# 4 0.000000 0.000000 0.000000 0.125454 0.000002 0.000000
# 5 0.000000 0.000000 0.000000 0.000002 0.125460 0.000000
# 6 0.000000 0.000000 0.000000 0.000000 0.000000 0.038537
#
#
# Mechanical properties :
#
#
# Convention : Reuss Voigt Hill
#
# Bulk Modulus (GPa) = 45.69771 45.78516 45.74143
# Shear Modulus (GPa) = 14.12070 21.24490 17.68280
#
# Velocity S-wave (km/s) = 2.85795 3.50553 3.19817
# Velocity P-wave (km/s) = 6.10930 6.54741 6.33215
#
# Compressibility (1/GPa) = 0.02188294
#
# Stress axis : x y z
#
# Youngs Moduli (GPa) = 71.22633 71.22744 86.69807
#
# Poissons Ratio (x) = 0.37241 0.15766
# Poissons Ratio (y) = 0.37240 0.15765
# Poissons Ratio (z) = 0.12953 0.12952
#
# Static dielectric constant tensor:
#      x y z
#    x 1.603620 0.000000 0.000000 
#    y 0.000000 1.603610 0.000000 
#    z 0.000000 0.000000 1.609780 
# 
# From -- ./inp_files/2718.got.cif
#   From: 2010.05.17/outbox.cif.g08.bks.cpg/sg176_2_cif.got.tgz:2718.got - 2010.06.03 11:36:45.
