data_PCOD9582889
_publ_section_title
;
Structure prediction by ZEFSAII (Michael W. Deem and Ramdas Pophale) SiO2 
 PCOD9582889
Probable space group: P 61 2 2
;
_chemical_formula_sum "Si O2"
_cell_formula_units_Z 54
_cell_length_a 12.551219
_cell_length_b 12.551219
_cell_length_c 18.383572
_cell_angle_alpha 90.000000
_cell_angle_beta 90.000000
_cell_angle_gamma 120.000000
_cell_volume 2508.027805
_symmetry_space_group_name_H-M "P 61 2 2"
_symmetry_group_IT_number 178
_symmetry_cell_setting 'hexagonal'
loop_
_space_group_symop_operation_xyz
x,y,z
x-y,x,1/6+z
-y,x-y,1/3+z
-x,-y,1/2+z
-x+y,-x,2/3+z
y,-x+y,5/6+z
x-y,-y,-z
-x,-x+y,2/3-z
y,x,1/3-z
-y,-x,5/6-z
-x+y,y,1/2-z
x,x-y,1/6-z
loop_
_atom_site_type_symbol
_atom_site_label
_atom_site_fract_x
_atom_site_fract_y
_atom_site_fract_z
Si Si1 0.032602 0.730855 0.097365
Si Si2 0.446383 0.553618 0.916667
Si Si3 0.703186 0.250193 0.995118
Si Si4 0.212554 0.918963 0.571737
Si Si5 0.147768 0.735190 0.838352
O O1 0.023837 0.726687 0.184954
O O2 0.978349 0.590309 0.073665
O O3 0.931367 0.767494 0.075805
O O4 0.163244 0.809592 0.059029
O O5 0.390014 0.594093 0.851076
O O6 0.754217 0.245784 0.916667
O O7 0.730118 0.166215 0.048699
O O8 0.560623 0.210346 0.995968
O O9 0.232130 0.000000 0.500000
O O10 0.195372 0.804629 0.916667
O O11 0.000000 0.649706 0.833334
#
# Coordination Sequence:
#
# PCOD9582889 Si02
#       5
#    12   6  12  12  12
#     4  11  26  42  73  99 147 183 246 296 362 430
#     4  10  24  42  70 106 136 182 236 302 370 418
#     4  11  25  42  71 106 143 179 239 300 377 434
#     4  11  23  47  71 104 134 186 243 309 353 427
#     4  12  28  45  68 103 150 197 237 290 366 447
#
# _framework density 21.530861000000002
#
# number of rings (size 3 to 8) (size 9 to 14) (size 15 to 20)
#    0.000    0.889    1.111    5.333   14.000    0.000 
#    0.000    6.667    0.000    0.000    0.000    0.000 
#    0.000    0.000    0.000    0.000    0.000    0.000 
#
# Total GULP energy -301562.590791 kJ/mol
# GULP energy per Si atom -5584.492422 kJ/mol
# Density = 2.148186 g / cm^3
# Si number density = 21.530861 Si / 1000 Ang^3
#
#
#
# Elastic Constant Matrix: (Units=GPa)
#
#
# Indices 1 2 3 4 5 6 
#
# 1 92.7467 43.0734 10.3376 0.0000 0.0000 0.0000
# 2 43.0734 92.7467 10.3376 0.0000 0.0000 0.0000
# 3 10.3376 10.3376 65.9033 0.0000 0.0000 0.0000
# 4 0.0000 0.0000 0.0000 35.9863 0.0000 0.0000
# 5 0.0000 0.0000 0.0000 0.0000 35.9863 0.0000
# 6 0.0000 0.0000 0.0000 0.0000 0.0000 24.8367
#
#
#
# Elastic Compliance Matrix: (Units=1/GPa)
#
#
# Indices 1 2 3 4 5 6 
#
# 1 0.013837 -0.006294 -0.001183 0.000000 0.000000 0.000000
# 2 -0.006294 0.013837 -0.001183 0.000000 0.000000 0.000000
# 3 -0.001183 -0.001183 0.015545 0.000000 0.000000 0.000000
# 4 0.000000 0.000000 0.000000 0.027788 0.000000 0.000000
# 5 0.000000 0.000000 0.000000 0.000000 0.027788 0.000000
# 6 0.000000 0.000000 0.000000 0.000000 0.000000 0.040263
#
#
# Mechanical properties :
#
#
# Convention : Reuss Voigt Hill
#
# Bulk Modulus (GPa) = 38.61324 42.09932 40.35628
# Shear Modulus (GPa) = 30.30064 31.87172 31.08618
#
# Velocity S-wave (km/s) = 3.75549 3.85162 3.80385
# Velocity P-wave (km/s) = 6.06446 6.27498 6.17062
#
# Compressibility (1/GPa) = 0.02589785
#
# Stress axis : x y z
#
# Youngs Moduli (GPa) = 72.26914 72.26914 64.32966
#
# Poissons Ratio (x) = 0.45489 0.07611
# Poissons Ratio (y) = 0.45489 0.07611
# Poissons Ratio (z) = 0.08551 0.08551
#
# Static dielectric constant tensor:
#      x y z
#    x 1.793620 0.000000 0.000000 
#    y 0.000000 1.793620 0.000000 
#    z 0.000000 0.000000 1.964950 
# 
# From -- ./inp_files/7404.got.cif
#   From: 2010.05.17/outbox.cif.g08.bks.cpg/sg178_4_cif.got.tgz:7404.got - 2010.05.20 11:30:59.
