data_PCOD9582906
_publ_section_title
;
Structure prediction by ZEFSAII (Michael W. Deem and Ramdas Pophale) SiO2 
 PCOD9582906
Probable space group: P 61 2 2
;
_chemical_formula_sum "Si O2"
_cell_formula_units_Z 48
_cell_length_a 15.055164
_cell_length_b 15.055164
_cell_length_c 10.733626
_cell_angle_alpha 90.000000
_cell_angle_beta 90.000000
_cell_angle_gamma 120.000000
_cell_volume 2106.920127
_symmetry_space_group_name_H-M "P 61 2 2"
_symmetry_group_IT_number 178
_symmetry_cell_setting 'hexagonal'
loop_
_space_group_symop_operation_xyz
x,y,z
x-y,x,1/6+z
-y,x-y,1/3+z
-x,-y,1/2+z
-x+y,-x,2/3+z
y,-x+y,5/6+z
x-y,-y,-z
-x,-x+y,2/3-z
y,x,1/3-z
-y,-x,5/6-z
-x+y,y,1/2-z
x,x-y,1/6-z
loop_
_atom_site_type_symbol
_atom_site_label
_atom_site_fract_x
_atom_site_fract_y
_atom_site_fract_z
Si Si1 0.924537 0.100074 0.589760
Si Si2 0.292086 0.402124 0.426872
Si Si3 0.519532 0.480468 0.416667
Si Si4 0.505547 0.664596 0.145645
Si Si5 0.720492 0.440983 0.750000
O O1 0.901610 0.192814 0.575729
O O2 0.042994 0.147017 0.554522
O O3 0.854697 0.000000 0.500000
O O4 0.401886 0.429760 0.368608
O O5 0.321030 0.421503 0.572474
O O6 0.269299 0.485833 0.365072
O O7 0.515672 0.413884 0.534459
O O8 0.548254 0.774127 0.083334
O O9 0.396116 0.628753 0.209608
#
# Coordination Sequence:
#
# PCOD9582906 Si02
#       5
#    12  12   6  12   6
#     4  10  24  50  78 112 150 199 269 335 410 474
#     4  12  26  46  76 115 154 213 263 325 401 478
#     4  12  27  50  74 114 166 204 266 327 384 494
#     4  12  26  47  73 110 161 207 257 321 398 480
#     4  12  23  44  72 106 154 212 256 309 392 468
#
# _framework density 22.782067000000001
#
# number of rings (size 3 to 8) (size 9 to 14) (size 15 to 20)
#    0.000    0.500    2.500    6.000    7.000    0.000 
#    0.000   12.500    0.000    0.000    0.000    0.000 
#    0.000    0.000    0.000    0.000    0.000    0.000 
#
# Total GULP energy -268367.641906 kJ/mol
# GULP energy per Si atom -5590.992540 kJ/mol
# Density = 2.273021 g / cm^3
# Si number density = 22.782067 Si / 1000 Ang^3
#
#
#
# Elastic Constant Matrix: (Units=GPa)
#
#
# Indices 1 2 3 4 5 6 
#
# 1 82.9395 15.0952 19.5367 0.0000 0.0000 0.0000
# 2 15.0952 82.9395 19.5367 0.0000 0.0000 0.0000
# 3 19.5367 19.5367 91.2021 0.0000 0.0000 0.0000
# 4 0.0000 0.0000 0.0000 33.0213 0.0000 0.0000
# 5 0.0000 0.0000 0.0000 0.0000 33.0213 0.0000
# 6 0.0000 0.0000 0.0000 0.0000 0.0000 33.9222
#
#
#
# Elastic Compliance Matrix: (Units=1/GPa)
#
#
# Indices 1 2 3 4 5 6 
#
# 1 0.012946 -0.001793 -0.002389 0.000000 0.000000 0.000000
# 2 -0.001793 0.012946 -0.002389 0.000000 0.000000 0.000000
# 3 -0.002389 -0.002389 0.011988 0.000000 0.000000 0.000000
# 4 0.000000 0.000000 0.000000 0.030283 0.000000 0.000000
# 5 0.000000 0.000000 0.000000 0.000000 0.030283 0.000000
# 6 0.000000 0.000000 0.000000 0.000000 0.000000 0.029479
#
#
# Mechanical properties :
#
#
# Convention : Reuss Voigt Hill
#
# Bulk Modulus (GPa) = 40.42476 40.60205 40.51341
# Shear Modulus (GPa) = 33.48612 33.52046 33.50329
#
# Velocity S-wave (km/s) = 3.83802 3.83998 3.83900
# Velocity P-wave (km/s) = 6.11744 6.12546 6.12145
#
# Compressibility (1/GPa) = 0.02473731
#
# Stress axis : x y z
#
# Youngs Moduli (GPa) = 77.24309 77.24309 83.41537
#
# Poissons Ratio (x) = 0.13853 0.19928
# Poissons Ratio (y) = 0.13853 0.19928
# Poissons Ratio (z) = 0.18454 0.18454
#
# Static dielectric constant tensor:
#      x y z
#    x 1.858820 0.000000 0.000000 
#    y 0.000000 1.858820 0.000000 
#    z 0.000000 0.000000 1.922970 
# 
# From -- ./inp_files/4175.got.cif
#   From: 2010.05.17/outbox.cif.g08.bks.cpg/sg178_3_cif.got.tgz:4175.got - 2010.05.20 11:30:59.
