data_PCOD9582302
_publ_section_title
;
Structure prediction by ZEFSAII (Michael W. Deem and Ramdas Pophale) SiO2 
 PCOD9582302
Probable space group: P 6 2 2
;
_chemical_formula_sum "Si O2"
_cell_formula_units_Z 48
_cell_length_a 17.129830
_cell_length_b 17.129830
_cell_length_c 8.734207
_cell_angle_alpha 90.000000
_cell_angle_beta 90.000000
_cell_angle_gamma 120.000000
_cell_volume 2219.525904
_symmetry_space_group_name_H-M "P 6 2 2"
_symmetry_group_IT_number 177
_symmetry_cell_setting 'hexagonal'
loop_
_space_group_symop_operation_xyz
x,y,z
x-y,x,z
-y,x-y,z
-x,-y,z
-x+y,-x,z
y,-x+y,z
x-y,-y,-z
-x,-x+y,-z
y,x,-z
-y,-x,-z
-x+y,y,-z
x,x-y,-z
loop_
_atom_site_type_symbol
_atom_site_label
_atom_site_fract_x
_atom_site_fract_y
_atom_site_fract_z
Si Si1 0.423101 0.902631 0.672950
Si Si2 0.943495 0.262678 0.340321
Si Si3 0.341602 0.810521 0.101090
Si Si4 0.678773 0.794434 0.156063
O O1 0.451999 0.903998 0.500000
O O2 0.331301 0.905405 0.680281
O O3 0.422054 0.815212 0.743742
O O4 0.500000 0.000000 0.737959
O O5 0.857934 0.166114 0.302473
O O6 0.000000 0.286927 0.500000
O O7 0.012575 0.275729 0.204371
O O8 0.279884 0.853741 0.132776
O O9 0.277418 0.722582 0.000000
O O10 0.432201 0.864401 0.000000
O O11 0.706640 0.853320 0.000000
#
# Coordination Sequence:
#
# PCOD9582302 Si02
#       4
#    12  12  12  12
#     4  11  20  39  64  90 132 178 232 277 338 413
#     4  12  23  42  66  96 129 175 227 283 340 411
#     4  11  23  40  60  93 134 178 228 280 342 418
#     4  11  24  41  63  96 129 172 219 282 344 404
#
# _framework density 21.626241
#
# number of rings (size 3 to 8) (size 9 to 14) (size 15 to 20)
#    0.000    0.750    5.000    4.750    0.000    0.500 
#    0.000    3.750    0.000    3.500    0.000    3.500 
#    0.000    0.000    0.000    0.000    0.000    0.000 
#
# Total GULP energy -267459.316952 kJ/mol
# GULP energy per Si atom -5572.069103 kJ/mol
# Density = 2.157702 g / cm^3
# Si number density = 21.626241 Si / 1000 Ang^3
#
#
#
# Elastic Constant Matrix: (Units=GPa)
#
#
# Indices 1 2 3 4 5 6 
#
# 1 87.1324 55.3005 35.5719 0.0000 0.0000 0.0000
# 2 55.3005 87.1324 35.5719 0.0000 0.0000 0.0000
# 3 35.5719 35.5719 98.1450 0.0000 0.0000 0.0000
# 4 0.0000 0.0000 0.0000 32.9958 0.0000 0.0000
# 5 0.0000 0.0000 0.0000 0.0000 32.9958 0.0000
# 6 0.0000 0.0000 0.0000 0.0000 0.0000 15.9159
#
#
#
# Elastic Compliance Matrix: (Units=1/GPa)
#
#
# Indices 1 2 3 4 5 6 
#
# 1 0.019994 -0.011421 -0.003107 0.000000 0.000000 0.000000
# 2 -0.011421 0.019994 -0.003107 0.000000 0.000000 0.000000
# 3 -0.003107 -0.003107 0.012441 0.000000 0.000000 0.000000
# 4 0.000000 0.000000 0.000000 0.030307 0.000000 0.000000
# 5 0.000000 0.000000 0.000000 0.000000 0.030307 0.000000
# 6 0.000000 0.000000 0.000000 0.000000 0.000000 0.062830
#
#
# Mechanical properties :
#
#
# Convention : Reuss Voigt Hill
#
# Bulk Modulus (GPa) = 58.28054 58.36648 58.32351
# Shear Modulus (GPa) = 23.05598 26.11254 24.58426
#
# Velocity S-wave (km/s) = 3.26868 3.47860 3.37527
# Velocity P-wave (km/s) = 6.42286 6.57127 6.49749
#
# Compressibility (1/GPa) = 0.01715839
#
# Stress axis : x y z
#
# Youngs Moduli (GPa) = 50.01512 50.01512 80.37718
#
# Poissons Ratio (x) = 0.57123 0.24974
# Poissons Ratio (y) = 0.57123 0.24974
# Poissons Ratio (z) = 0.15541 0.15541
#
# Static dielectric constant tensor:
#      x y z
#    x 1.790130 0.000000 0.000000 
#    y 0.000000 1.790130 0.000000 
#    z 0.000000 0.000000 1.920250 
# 
# From -- ./inp_files/1127.got.cif
#   From: 2010.05.17/outbox.cif.g08.bks.cpg/sg177_1_cif.got.tgz:1127.got - 2010.05.20 11:28:44.
