data_PCOD9582229
_publ_section_title
;
Structure prediction by ZEFSAII (Michael W. Deem and Ramdas Pophale) SiO2 
 PCOD9582229
Probable space group: P 6 2 2
;
_chemical_formula_sum "Si O2"
_cell_formula_units_Z 76
_cell_length_a 18.227062
_cell_length_b 18.227062
_cell_length_c 12.823140
_cell_angle_alpha 90.000000
_cell_angle_beta 90.000000
_cell_angle_gamma 120.000000
_cell_volume 3689.422205
_symmetry_space_group_name_H-M "P 6 2 2"
_symmetry_group_IT_number 177
_symmetry_cell_setting 'hexagonal'
loop_
_space_group_symop_operation_xyz
x,y,z
x-y,x,z
-y,x-y,z
-x,-y,z
-x+y,-x,z
y,-x+y,z
x-y,-y,-z
-x,-x+y,-z
y,x,-z
-y,-x,-z
-x+y,y,-z
x,x-y,-z
loop_
_atom_site_type_symbol
_atom_site_label
_atom_site_fract_x
_atom_site_fract_y
_atom_site_fract_z
Si Si1 0.799939 0.911813 0.622892
Si Si2 0.300767 0.957126 0.822562
Si Si3 0.580726 0.596117 0.380523
Si Si4 0.333334 0.666668 0.623209
Si Si5 0.138524 0.336567 0.204938
Si Si6 0.476459 0.902726 0.113623
Si Si7 0.188818 0.676503 0.728246
O O1 0.848779 0.860267 0.648423
O O2 0.783088 0.891544 0.500000
O O3 0.713809 0.885396 0.684951
O O4 0.201547 0.894546 0.838409
O O5 0.345960 0.915515 0.886006
O O6 0.344230 0.966706 0.705623
O O7 0.320715 0.051756 0.847182
O O8 0.500000 0.500000 0.370959
O O9 0.610148 0.610148 0.500000
O O10 0.538774 0.652427 0.353359
O O11 0.333334 0.666667 0.500000
O O12 0.273239 0.698783 0.669127
O O13 0.194179 0.438028 0.213174
O O14 0.405762 0.843700 0.197221
O O15 0.500000 0.000000 0.132696
O O16 0.437482 0.874964 0.000000
#
# Coordination Sequence:
#
# PCOD9582229 Si02
#       7
#    12  12  12   4  12  12  12
#     4  10  20  35  54  84 125 173 224 272 317 371
#     4  11  21  40  58  95 123 166 213 270 325 386
#     4  10  20  34  61  81 115 161 210 262 317 379
#     4  12  30  42  61  86 136 180 216 255 313 398
#     4  11  22  35  62  81 125 164 213 270 320 373
#     4  11  21  42  74  95 124 157 208 267 340 394
#     4  11  23  43  59  92 120 168 211 267 323 380
#
# _framework density 20.599430999999999
#
# number of rings (size 3 to 8) (size 9 to 14) (size 15 to 20)
#    0.000    1.263    6.316    1.105    2.211    3.789 
#    0.000    3.158    0.000    0.000    0.000    0.000 
#    0.000    0.000    0.000    0.000    4.737    0.000 
#
# Total GULP energy -423695.461173 kJ/mol
# GULP energy per Si atom -5574.940279 kJ/mol
# Density = 2.055255 g / cm^3
# Si number density = 20.599431 Si / 1000 Ang^3
#
#
#
# Elastic Constant Matrix: (Units=GPa)
#
#
# Indices 1 2 3 4 5 6 
#
# 1 9.1013 117.6477 14.0766 -0.0015 -0.0015 -0.0001
# 2 117.6477 9.1144 14.0785 0.0014 0.0015 -0.0006
# 3 14.0766 14.0785 58.2598 -0.0001 -0.0001 0.0016
# 4 -0.0015 0.0014 -0.0001 9.5122 -0.0001 -0.0015
# 5 -0.0015 0.0015 -0.0001 -0.0001 9.5127 0.0015
# 6 -0.0001 -0.0006 0.0016 -0.0015 0.0015 -54.3659
#
#
#
# Elastic Compliance Matrix: (Units=1/GPa)
#
#
# Indices 1 2 3 4 5 6 
#
# 1 -0.000439 0.008775 -0.002014 -0.000001 -0.000002 0.000000
# 2 0.008775 -0.000438 -0.002014 0.000001 0.000001 0.000000
# 3 -0.002014 -0.002014 0.018138 0.000000 0.000000 0.000001
# 4 -0.000001 0.000001 0.000000 0.105128 0.000001 -0.000003
# 5 -0.000002 0.000001 0.000000 0.000001 0.105123 0.000003
# 6 0.000000 0.000000 0.000001 -0.000003 0.000003 -0.018394
#
#
# Mechanical properties :
#
#
# Convention : Reuss Voigt Hill
#
# Bulk Modulus (GPa) = 37.37812 40.89790 39.13801
# Shear Modulus (GPa) = 23.97577 -11.69001 6.14288
#
# Velocity S-wave (km/s) = 3.41531 -2.38479 1.72874
# Velocity P-wave (km/s) = 5.80836 3.50913 4.79849
#
# Compressibility (1/GPa) = 0.02675362
#
# Stress axis : x y z
#
# Youngs Moduli (GPa) = -2279.20677 -2284.08830 55.13291
#
# Poissons Ratio (x) = 20.04270 0.11106
# Poissons Ratio (y) = 19.99986 0.11106
# Poissons Ratio (z) = -4.59134 -4.60102
#
# Static dielectric constant tensor:
#      x y z
#    x 1.814630 0.000000 0.000000 
#    y 0.000000 1.814630 0.000000 
#    z 0.000000 0.000000 1.767920 
# 
# From -- ./inp_files/2576.got.cif
#   From: 2010.05.17/outbox.cif.g08.bks.cpg/sg177_2_cif.got.tgz:2576.got - 2010.05.20 11:28:44.
