data_PCOD9582332
_publ_section_title
;
Structure prediction by ZEFSAII (Michael W. Deem and Ramdas Pophale) SiO2 
 PCOD9582332
Probable space group: P 61 2 2
;
_chemical_formula_sum "Si O2"
_cell_formula_units_Z 48
_cell_length_a 24.874246
_cell_length_b 24.874246
_cell_length_c 5.425886
_cell_angle_alpha 90.000000
_cell_angle_beta 90.000000
_cell_angle_gamma 120.000000
_cell_volume 2907.375636
_symmetry_space_group_name_H-M "P 61 2 2"
_symmetry_group_IT_number 178
_symmetry_cell_setting 'hexagonal'
loop_
_space_group_symop_operation_xyz
x,y,z
x-y,x,1/6+z
-y,x-y,1/3+z
-x,-y,1/2+z
-x+y,-x,2/3+z
y,-x+y,5/6+z
x-y,-y,-z
-x,-x+y,2/3-z
y,x,1/3-z
-y,-x,5/6-z
-x+y,y,1/2-z
x,x-y,1/6-z
loop_
_atom_site_type_symbol
_atom_site_label
_atom_site_fract_x
_atom_site_fract_y
_atom_site_fract_z
Si Si1 0.070149 0.140298 0.250000
Si Si2 0.959014 0.420819 0.581710
Si Si3 0.641647 0.926201 0.740464
Si Si4 0.242372 0.312153 0.902483
Si Si5 0.787633 0.893817 0.083334
O O1 0.099374 0.099374 0.166667
O O2 0.105063 0.177079 0.498763
O O3 0.926887 0.463443 0.583334
O O4 0.922774 0.346980 0.559435
O O5 0.000000 0.442169 0.333334
O O6 0.000000 0.437032 0.833334
O O7 0.657678 0.901131 0.497037
O O8 0.698555 0.998996 0.752138
O O9 0.645217 0.898409 0.999681
O O10 0.177045 0.252089 0.845083
#
# Coordination Sequence:
#
# PCOD9582332 Si02
#       5
#     6  12  12  12   6
#     4  12  30  49  68  78  94 110 144 196 296 356
#     4  10  16  25  41  68  96 130 166 188 212 245
#     4  10  17  31  49  69  99 130 150 200 230 273
#     4  10  20  31  50  70  99 115 157 186 246 275
#     4  12  26  41  62  86  94 120 154 210 244 340
#
# _framework density 16.509734999999999
#
# number of rings (size 3 to 8) (size 9 to 14) (size 15 to 20)
#    0.000    1.500    5.000    2.250   10.500    1.000 
#    0.000    0.000    0.000    0.000    0.000    0.000 
#    0.000    0.000    0.000    0.000    0.000    0.000 
#
# Total GULP energy -267235.760276 kJ/mol
# GULP energy per Si atom -5567.411672 kJ/mol
# Density = 1.647216 g / cm^3
# Si number density = 16.509735 Si / 1000 Ang^3
#
#
#
# Elastic Constant Matrix: (Units=GPa)
#
#
# Indices 1 2 3 4 5 6 
#
# 1 60.9786 39.1913 36.0200 0.0000 0.0000 0.0000
# 2 39.1913 60.9786 36.0200 0.0000 0.0000 0.0000
# 3 36.0200 36.0200 190.5403 0.0000 0.0000 0.0000
# 4 0.0000 0.0000 0.0000 23.2913 0.0000 0.0000
# 5 0.0000 0.0000 0.0000 0.0000 23.2913 0.0000
# 6 0.0000 0.0000 0.0000 0.0000 0.0000 10.8936
#
#
#
# Elastic Compliance Matrix: (Units=1/GPa)
#
#
# Indices 1 2 3 4 5 6 
#
# 1 0.028726 -0.017172 -0.002184 0.000000 0.000000 0.000000
# 2 -0.017172 0.028726 -0.002184 0.000000 0.000000 0.000000
# 3 -0.002184 -0.002184 0.006074 0.000000 0.000000 0.000000
# 4 0.000000 0.000000 0.000000 0.042934 0.000000 0.000000
# 5 0.000000 0.000000 0.000000 0.000000 0.042934 0.000000
# 6 0.000000 0.000000 0.000000 0.000000 0.000000 0.091797
#
#
# Mechanical properties :
#
#
# Convention : Reuss Voigt Hill
#
# Bulk Modulus (GPa) = 48.91153 59.44001 54.17577
# Shear Modulus (GPa) = 17.17694 24.91300 21.04497
#
# Velocity S-wave (km/s) = 3.22904 3.88878 3.57417
# Velocity P-wave (km/s) = 6.60246 7.49965 7.06531
#
# Compressibility (1/GPa) = 0.02044508
#
# Stress axis : x y z
#
# Youngs Moduli (GPa) = 34.81157 34.81157 164.63556
#
# Poissons Ratio (x) = 0.59779 0.35959
# Poissons Ratio (y) = 0.59779 0.35959
# Poissons Ratio (z) = 0.07603 0.07603
#
# Static dielectric constant tensor:
#      x y z
#    x 1.598380 0.000000 0.000000 
#    y 0.000000 1.598380 0.000000 
#    z 0.000000 0.000000 4.126540 
# 
# From -- ./inp_files/1103.got.cif
#   From: 2010.05.17/outbox.cif.g08.bks.cpg/sg178_1_cif.got.tgz:1103.got - 2010.05.20 11:30:59.
