data_PCOD9582061
_publ_section_title
;
Structure prediction by ZEFSAII (Michael W. Deem and Ramdas Pophale) SiO2 
 PCOD9582061
Probable space group: P 63/M
;
_chemical_formula_sum "Si O2"
_cell_formula_units_Z 70
_cell_length_a 15.029297
_cell_length_b 15.029297
_cell_length_c 18.752687
_cell_angle_alpha 90.000000
_cell_angle_beta 90.000000
_cell_angle_gamma 120.000000
_cell_volume 3668.355954
_symmetry_space_group_name_H-M "P 63/M"
_symmetry_group_IT_number 176
_symmetry_cell_setting 'hexagonal'
loop_
_space_group_symop_operation_xyz
x,y,z
x-y,x,1/2+z
-y,x-y,z
-x,-y,1/2+z
-x+y,-x,z
y,-x+y,1/2+z
-x,-y,-z
-x+y,-x,1/2-z
y,-x+y,-z
x,y,1/2-z
x-y,x,-z
-y,x-y,1/2-z
loop_
_atom_site_type_symbol
_atom_site_label
_atom_site_fract_x
_atom_site_fract_y
_atom_site_fract_z
Si Si1 0.000000 0.000000 0.838143
Si Si2 0.722580 0.008630 0.493732
Si Si3 0.803707 0.906090 0.902120
Si Si4 0.957629 0.653884 0.750000
Si Si5 0.118764 0.470284 0.104480
Si Si6 0.081020 0.759104 0.250000
Si Si7 0.851262 0.729592 0.250000
Si Si8 0.139998 0.688196 0.394604
O O1 0.906791 0.904281 0.879717
O O2 0.000000 0.000000 0.750000
O O3 0.794628 0.076395 0.429047
O O4 0.677197 0.063036 0.542732
O O5 0.796049 0.980827 0.540571
O O6 0.630285 0.908291 0.458313
O O7 0.782175 0.932250 0.823789
O O8 0.927569 0.585352 0.679402
O O9 0.878115 0.701034 0.750000
O O10 0.082410 0.729810 0.750000
O O11 0.109081 0.570628 0.096738
O O12 0.237446 0.499536 0.104891
O O13 0.098429 0.708869 0.320603
O O14 0.962645 0.736639 0.250000
#
# Coordination Sequence:
#
# PCOD9582061 Si02
#       8
#     4  12  12   6  12   6   6  12
#     4  12  27  37  62  94 135 187 230 250 297 379
#     4  12  23  41  62  90 130 164 212 267 327 386
#     4  12  25  40  60  93 131 177 216 260 303 386
#     4  10  23  39  61  90 125 168 208 259 314 386
#     4  11  23  41  64  91 123 162 213 270 331 390
#     4  10  23  39  61  90 125 168 208 259 314 386
#     4  12  22  38  62  84 132 172 216 248 300 388
#     4  11  23  41  64  91 123 162 213 270 331 390
#
# _framework density 19.082117
#
# number of rings (size 3 to 8) (size 9 to 14) (size 15 to 20)
#    0.000    0.686    6.000    2.400    2.400    0.686 
#    0.514    1.714    0.000    0.000    0.000    0.000 
#   12.000    0.000    0.000    0.000    0.000    0.000 
#
# Total GULP energy -389701.568002 kJ/mol
# GULP energy per Si atom -5567.165257 kJ/mol
# Density = 1.903869 g / cm^3
# Si number density = 19.082117 Si / 1000 Ang^3
#
#
#
# Elastic Constant Matrix: (Units=GPa)
#
#
# Indices 1 2 3 4 5 6 
#
# 1 80.4245 26.5154 41.0478 0.0000 0.0000 0.0000
# 2 26.5154 80.4245 41.0478 0.0000 0.0000 0.0000
# 3 41.0478 41.0478 124.1239 0.0000 0.0000 0.0000
# 4 0.0000 0.0000 0.0000 22.1010 0.0000 0.0000
# 5 0.0000 0.0000 0.0000 0.0000 22.1010 0.0000
# 6 0.0000 0.0000 0.0000 0.0000 0.0000 26.9546
#
#
#
# Elastic Compliance Matrix: (Units=1/GPa)
#
#
# Indices 1 2 3 4 5 6 
#
# 1 0.015541 -0.003008 -0.004145 0.000000 0.000000 0.000000
# 2 -0.003008 0.015541 -0.004145 0.000000 0.000000 0.000000
# 3 -0.004145 -0.004145 0.010798 0.000000 0.000000 0.000000
# 4 0.000000 0.000000 0.000000 0.045247 0.000000 0.000000
# 5 0.000000 0.000000 0.000000 0.000000 0.045247 0.000000
# 6 0.000000 0.000000 0.000000 0.000000 0.000000 0.037099
#
#
# Mechanical properties :
#
#
# Convention : Reuss Voigt Hill
#
# Bulk Modulus (GPa) = 51.85412 55.79943 53.82678
# Shear Modulus (GPa) = 25.18928 25.98876 25.58902
#
# Velocity S-wave (km/s) = 3.63719 3.69446 3.66593
# Velocity P-wave (km/s) = 6.69866 6.89231 6.79617
#
# Compressibility (1/GPa) = 0.01928487
#
# Stress axis : x y z
#
# Youngs Moduli (GPa) = 64.34491 64.34491 92.61243
#
# Poissons Ratio (x) = 0.19358 0.38384
# Poissons Ratio (y) = 0.19358 0.38384
# Poissons Ratio (z) = 0.26668 0.26668
#
# Static dielectric constant tensor:
#      x y z
#    x 1.779870 0.000000 0.000000 
#    y 0.000000 1.779870 0.000000 
#    z 0.000000 0.000000 1.670200 
# 
# From -- ./inp_files/3422.got.cif
#   From: 2010.05.17/outbox.cif.g08.bks.cpg/sg176_2_cif.got.tgz:3422.got - 2010.06.03 11:36:45.
