data_PCOD9582369
_publ_section_title
;
Structure prediction by ZEFSAII (Michael W. Deem and Ramdas Pophale) SiO2 
 PCOD9582369
Probable space group: P 61 2 2
;
_chemical_formula_sum "Si O2"
_cell_formula_units_Z 60
_cell_length_a 17.026490
_cell_length_b 17.026490
_cell_length_c 12.013374
_cell_angle_alpha 90.000000
_cell_angle_beta 90.000000
_cell_angle_gamma 120.000000
_cell_volume 3016.101029
_symmetry_space_group_name_H-M "P 61 2 2"
_symmetry_group_IT_number 178
_symmetry_cell_setting 'hexagonal'
loop_
_space_group_symop_operation_xyz
x,y,z
x-y,x,1/6+z
-y,x-y,1/3+z
-x,-y,1/2+z
-x+y,-x,2/3+z
y,-x+y,5/6+z
x-y,-y,-z
-x,-x+y,2/3-z
y,x,1/3-z
-y,-x,5/6-z
-x+y,y,1/2-z
x,x-y,1/6-z
loop_
_atom_site_type_symbol
_atom_site_label
_atom_site_fract_x
_atom_site_fract_y
_atom_site_fract_z
Si Si1 0.000000 0.143297 0.833334
Si Si2 0.338277 0.957180 0.830798
Si Si3 0.582399 0.291200 0.083334
Si Si4 0.170810 0.585405 0.083334
Si Si5 0.891315 0.721642 0.526613
Si Si6 0.570501 0.710025 0.729149
Si Si7 0.866765 0.866765 0.666667
O O1 0.061947 0.123893 0.750000
O O2 0.933362 0.161589 0.755191
O O3 0.374310 0.895286 0.775159
O O4 0.262583 0.962512 0.756258
O O5 0.420646 0.054632 0.868197
O O6 0.286630 0.905722 0.944270
O O7 0.626087 0.238367 0.143945
O O8 0.521878 0.299805 0.182272
O O9 0.799996 0.624830 0.531083
O O10 0.862364 0.783109 0.599367
O O11 0.946887 0.893774 0.750000
#
# Coordination Sequence:
#
# PCOD9582369 Si02
#       7
#     6  12   6   6  12  12   6
#     4  12  28  41  52  76 123 174 212 260 317 376
#     4  10  20  35  66  94 124 154 209 263 317 375
#     4  10  20  38  69  94 130 156 210 263 320 386
#     4  10  20  40  63  98 126 164 208 267 326 388
#     4  12  22  39  58  86 119 162 212 264 314 366
#     4  10  17  35  62  96 117 156 203 261 306 367
#     4  12  24  33  52  80 111 156 214 258 295 358
#
# _framework density 19.893232000000001
#
# number of rings (size 3 to 8) (size 9 to 14) (size 15 to 20)
#    0.000    1.200    4.000    6.000    0.000    4.000 
#    0.000    5.000    2.200    0.000    0.000    0.000 
#    0.000    0.000    0.000    0.000    0.000    0.000 
#
# Total GULP energy -334392.855682 kJ/mol
# GULP energy per Si atom -5573.214261 kJ/mol
# Density = 1.984795 g / cm^3
# Si number density = 19.893232 Si / 1000 Ang^3
#
#
#
# Elastic Constant Matrix: (Units=GPa)
#
#
# Indices 1 2 3 4 5 6 
#
# 1 90.8995 21.6047 53.1139 0.0000 0.0000 0.0000
# 2 21.6047 90.8995 53.1139 0.0000 0.0000 0.0000
# 3 53.1139 53.1139 113.3373 0.0000 0.0000 0.0000
# 4 0.0000 0.0000 0.0000 43.4043 0.0000 0.0000
# 5 0.0000 0.0000 0.0000 0.0000 43.4043 0.0000
# 6 0.0000 0.0000 0.0000 0.0000 0.0000 34.6474
#
#
#
# Elastic Compliance Matrix: (Units=1/GPa)
#
#
# Indices 1 2 3 4 5 6 
#
# 1 0.015187 0.000756 -0.007472 0.000000 0.000000 0.000000
# 2 0.000756 0.015187 -0.007472 0.000000 0.000000 0.000000
# 3 -0.007472 -0.007472 0.015826 0.000000 0.000000 0.000000
# 4 0.000000 0.000000 0.000000 0.023039 0.000000 0.000000
# 5 0.000000 0.000000 0.000000 0.000000 0.023039 0.000000
# 6 0.000000 0.000000 0.000000 0.000000 0.000000 0.028862
#
#
# Mechanical properties :
#
#
# Convention : Reuss Voigt Hill
#
# Bulk Modulus (GPa) = 56.09665 61.20013 58.64839
# Shear Modulus (GPa) = 32.16311 35.44477 33.80394
#
# Velocity S-wave (km/s) = 4.02529 4.22566 4.12669
# Velocity P-wave (km/s) = 7.06145 7.39184 7.22853
#
# Compressibility (1/GPa) = 0.01782638
#
# Stress axis : x y z
#
# Youngs Moduli (GPa) = 65.84480 65.84480 63.18659
#
# Poissons Ratio (x) = -0.04979 0.47211
# Poissons Ratio (y) = -0.04979 0.47211
# Poissons Ratio (z) = 0.49197 0.49197
#
# Static dielectric constant tensor:
#      x y z
#    x 1.763520 0.000000 0.000000 
#    y 0.000000 1.763520 0.000000 
#    z 0.000000 0.000000 1.737010 
# 
# From -- ./inp_files/4634.got.cif
#   From: 2010.05.17/outbox.cif.g08.bks.cpg/sg178_3_cif.got.tgz:4634.got - 2010.05.20 11:30:59.
