data_PCOD9582040
_publ_section_title
;
Structure prediction by ZEFSAII (Michael W. Deem and Ramdas Pophale) SiO2 
 PCOD9582040
Probable space group: P 63/M
;
_chemical_formula_sum "Si O2"
_cell_formula_units_Z 60
_cell_length_a 20.596819
_cell_length_b 20.596819
_cell_length_c 8.206667
_cell_angle_alpha 90.000000
_cell_angle_beta 90.000000
_cell_angle_gamma 120.000000
_cell_volume 3015.072422
_symmetry_space_group_name_H-M "P 63/M"
_symmetry_group_IT_number 176
_symmetry_cell_setting 'hexagonal'
loop_
_space_group_symop_operation_xyz
x,y,z
x-y,x,1/2+z
-y,x-y,z
-x,-y,1/2+z
-x+y,-x,z
y,-x+y,1/2+z
-x,-y,-z
-x+y,-x,1/2-z
y,-x+y,-z
x,y,1/2-z
x-y,x,-z
-y,x-y,1/2-z
loop_
_atom_site_type_symbol
_atom_site_label
_atom_site_fract_x
_atom_site_fract_y
_atom_site_fract_z
Si Si1 0.133291 0.307193 0.565663
Si Si2 0.834038 0.472697 0.750000
Si Si3 0.151708 0.116579 0.571080
Si Si4 0.428532 0.343946 0.056169
Si Si5 0.631160 0.923841 0.066875
Si Si6 0.496412 0.804611 0.250000
O O1 0.111624 0.282325 0.750000
O O2 0.073923 0.240269 0.455426
O O3 0.128184 0.381703 0.541333
O O4 0.217434 0.324599 0.534970
O O5 0.881861 0.508853 0.584216
O O6 0.764949 0.488606 0.750000
O O7 0.802875 0.384356 0.750000
O O8 0.131170 0.129619 0.750000
O O9 0.101498 0.133052 0.449773
O O10 0.450539 0.362123 0.250000
O O11 0.367492 0.369335 0.015403
O O12 0.665921 0.941373 0.250000
O O13 0.547495 0.854753 0.098415
#
# Coordination Sequence:
#
# PCOD9582040 Si02
#       6
#    12   6  12  12  12   6
#     4  11  21  36  62  92 124 166 215 264 328 388
#     4  12  23  44  70  93 130 172 214 254 326 381
#     4  12  25  40  58  83 122 170 225 280 336 397
#     4  10  22  39  63  94 131 166 211 264 317 381
#     4   9  19  39  58  90 129 160 205 267 315 370
#     4  10  23  42  68  95 128 168 214 256 318 383
#
# _framework density 19.900020000000001
#
# number of rings (size 3 to 8) (size 9 to 14) (size 15 to 20)
#    0.600    0.800    2.000    4.000    2.800    2.400 
#    0.000    2.000    0.000    0.000    0.000    0.000 
#    0.000    0.000    0.000    0.000    0.000    0.000 
#
# Total GULP energy -334828.061292 kJ/mol
# GULP energy per Si atom -5580.467688 kJ/mol
# Density = 1.985473 g / cm^3
# Si number density = 19.900020 Si / 1000 Ang^3
#
#
#
# Elastic Constant Matrix: (Units=GPa)
#
#
# Indices 1 2 3 4 5 6 
#
# 1 70.3749 6.8256 14.5249 0.0000 0.0000 0.0000
# 2 6.8256 70.3749 14.5249 0.0000 0.0000 0.0000
# 3 14.5249 14.5249 60.8338 0.0000 0.0000 0.0000
# 4 0.0000 0.0000 0.0000 13.9548 0.0000 0.0000
# 5 0.0000 0.0000 0.0000 0.0000 13.9548 0.0000
# 6 0.0000 0.0000 0.0000 0.0000 0.0000 31.7746
#
#
#
# Elastic Compliance Matrix: (Units=1/GPa)
#
#
# Indices 1 2 3 4 5 6 
#
# 1 0.014984 -0.000752 -0.003398 0.000000 0.000000 0.000000
# 2 -0.000752 0.014984 -0.003398 0.000000 0.000000 0.000000
# 3 -0.003398 -0.003398 0.018061 0.000000 0.000000 0.000000
# 4 0.000000 0.000000 0.000000 0.071660 0.000000 0.000000
# 5 0.000000 0.000000 0.000000 0.000000 0.071660 0.000000
# 6 0.000000 0.000000 0.000000 0.000000 0.000000 0.031472
#
#
# Mechanical properties :
#
#
# Convention : Reuss Voigt Hill
#
# Bulk Modulus (GPa) = 30.36514 30.37049 30.36782
# Shear Modulus (GPa) = 20.08893 22.98408 21.53650
#
# Velocity S-wave (km/s) = 3.18070 3.40218 3.29330
# Velocity P-wave (km/s) = 5.36480 5.54327 5.45476
#
# Compressibility (1/GPa) = 0.03293250
#
# Stress axis : x y z
#
# Youngs Moduli (GPa) = 66.73838 66.73838 55.36823
#
# Poissons Ratio (x) = 0.05018 0.18815
# Poissons Ratio (y) = 0.05018 0.18815
# Poissons Ratio (z) = 0.22678 0.22678
#
# Static dielectric constant tensor:
#      x y z
#    x 1.687980 0.000000 0.000000 
#    y 0.000000 1.687980 0.000000 
#    z 0.000000 0.000000 1.702280 
# 
# From -- ./inp_files/930.got.cif
#   From: 2010.05.17/outbox.cif.g08.bks.cpg/sg176_1_cif.got.tgz:930.got - 2010.06.03 11:36:45.
