data_PCOD9582539
_publ_section_title
;
Structure prediction by ZEFSAII (Michael W. Deem and Ramdas Pophale) SiO2 
 PCOD9582539
Probable space group: P 61 2 2
;
_chemical_formula_sum "Si O2"
_cell_formula_units_Z 72
_cell_length_a 14.380306
_cell_length_b 14.380306
_cell_length_c 22.602154
_cell_angle_alpha 90.000000
_cell_angle_beta 90.000000
_cell_angle_gamma 120.000000
_cell_volume 4047.778287
_symmetry_space_group_name_H-M "P 61 2 2"
_symmetry_group_IT_number 178
_symmetry_cell_setting 'hexagonal'
loop_
_space_group_symop_operation_xyz
x,y,z
x-y,x,1/6+z
-y,x-y,1/3+z
-x,-y,1/2+z
-x+y,-x,2/3+z
y,-x+y,5/6+z
x-y,-y,-z
-x,-x+y,2/3-z
y,x,1/3-z
-y,-x,5/6-z
-x+y,y,1/2-z
x,x-y,1/6-z
loop_
_atom_site_type_symbol
_atom_site_label
_atom_site_fract_x
_atom_site_fract_y
_atom_site_fract_z
Si Si1 0.566605 0.111122 0.338243
Si Si2 0.741650 0.858096 0.952176
Si Si3 0.182655 0.091328 0.583334
Si Si4 0.687679 0.349105 0.319939
Si Si5 0.987680 0.361674 0.586880
Si Si6 0.352004 0.453739 0.623641
Si Si7 0.825487 0.412744 0.083334
O O1 0.666909 0.231214 0.335080
O O2 0.470518 0.099709 0.294428
O O3 0.610507 0.036615 0.311563
O O4 0.510404 0.080680 0.401402
O O5 0.730610 0.747290 0.928626
O O6 0.639671 0.873078 0.936918
O O7 0.847164 0.963765 0.928312
O O8 0.748487 0.859721 0.023727
O O9 0.678939 0.357877 0.250000
O O10 0.796425 0.450339 0.343116
O O11 0.595728 0.350068 0.360646
O O12 0.098287 0.467248 0.605116
O O13 0.398366 0.398366 0.666667
#
# Coordination Sequence:
#
# PCOD9582539 Si02
#       7
#    12  12   6  12  12  12   6
#     4  10  21  40  53  86 125 158 206 245 295 373
#     4  11  21  38  59  92 121 164 189 269 308 382
#     4  10  22  36  58  89 127 140 204 248 336 352
#     4  12  22  36  57  85 123 163 195 250 310 359
#     4  10  21  36  59  82 119 160 211 238 299 373
#     4  12  24  35  58  89 125 156 197 251 319 361
#     4  10  20  34  52  81 115 158 188 248 288 368
#
# _framework density 17.787535999999999
#
# number of rings (size 3 to 8) (size 9 to 14) (size 15 to 20)
#    0.000    1.333    6.667    1.000    5.833    0.000 
#    0.000    0.000    0.000    0.000   21.667    0.000 
#    0.000    0.000    0.000    0.000    0.000    0.000 
#
# Total GULP energy -401083.135464 kJ/mol
# GULP energy per Si atom -5570.599104 kJ/mol
# Density = 1.774705 g / cm^3
# Si number density = 17.787536 Si / 1000 Ang^3
#
#
#
# Elastic Constant Matrix: (Units=GPa)
#
#
# Indices 1 2 3 4 5 6 
#
# 1 81.2041 25.6218 6.2235 0.0000 0.0000 0.0000
# 2 25.6218 81.2041 6.2235 0.0000 0.0000 0.0000
# 3 6.2235 6.2235 74.5269 0.0000 0.0000 0.0000
# 4 0.0000 0.0000 0.0000 23.2014 0.0000 0.0000
# 5 0.0000 0.0000 0.0000 0.0000 23.2014 0.0000
# 6 0.0000 0.0000 0.0000 0.0000 0.0000 27.7911
#
#
#
# Elastic Compliance Matrix: (Units=1/GPa)
#
#
# Indices 1 2 3 4 5 6 
#
# 1 0.013722 -0.004269 -0.000789 0.000000 0.000000 0.000000
# 2 -0.004269 0.013722 -0.000789 0.000000 0.000000 0.000000
# 3 -0.000789 -0.000789 0.013550 0.000000 0.000000 0.000000
# 4 0.000000 0.000000 0.000000 0.043101 0.000000 0.000000
# 5 0.000000 0.000000 0.000000 0.000000 0.043101 0.000000
# 6 0.000000 0.000000 0.000000 0.000000 0.000000 0.035983
#
#
# Mechanical properties :
#
#
# Convention : Reuss Voigt Hill
#
# Bulk Modulus (GPa) = 34.13173 34.78587 34.45880
# Shear Modulus (GPa) = 27.07966 28.09655 27.58811
#
# Velocity S-wave (km/s) = 3.90602 3.97868 3.94252
# Velocity P-wave (km/s) = 6.29070 6.38007 6.33554
#
# Compressibility (1/GPa) = 0.02929825
#
# Stress axis : x y z
#
# Youngs Moduli (GPa) = 72.87476 72.87476 73.80175
#
# Poissons Ratio (x) = 0.31111 0.05826
# Poissons Ratio (y) = 0.31111 0.05826
# Poissons Ratio (z) = 0.05753 0.05753
#
# Static dielectric constant tensor:
#      x y z
#    x 1.652550 0.000000 0.000000 
#    y 0.000000 1.652550 0.000000 
#    z 0.000000 0.000000 1.642240 
# 
# From -- ./inp_files/8282.got.cif
#   From: 2010.05.17/outbox.cif.g08.bks.cpg/sg178_5_cif.got.tgz:8282.got - 2010.05.20 11:30:59.
