data_PCOD9582966
_publ_section_title
;
Structure prediction by ZEFSAII (Michael W. Deem and Ramdas Pophale) SiO2 
 PCOD9582966
Probable space group: P 61 2 2
;
_chemical_formula_sum "Si O2"
_cell_formula_units_Z 24
_cell_length_a 16.140395
_cell_length_b 16.140395
_cell_length_c 4.836873
_cell_angle_alpha 90.000000
_cell_angle_beta 90.000000
_cell_angle_gamma 120.000000
_cell_volume 1091.248435
_symmetry_space_group_name_H-M "P 61 2 2"
_symmetry_group_IT_number 178
_symmetry_cell_setting 'hexagonal'
loop_
_space_group_symop_operation_xyz
x,y,z
x-y,x,1/6+z
-y,x-y,1/3+z
-x,-y,1/2+z
-x+y,-x,2/3+z
y,-x+y,5/6+z
x-y,-y,-z
-x,-x+y,2/3-z
y,x,1/3-z
-y,-x,5/6-z
-x+y,y,1/2-z
x,x-y,1/6-z
loop_
_atom_site_type_symbol
_atom_site_label
_atom_site_fract_x
_atom_site_fract_y
_atom_site_fract_z
Si Si1 0.937273 0.232798 0.086396
Si Si2 0.313126 0.507559 0.009620
O O1 0.885099 0.283828 0.236708
O O2 0.000000 0.223810 0.333334
O O3 0.862685 0.137316 0.916667
O O4 0.000000 0.298536 0.833334
O O5 0.273470 0.546940 0.250000
O O6 0.421100 0.578901 0.916667
O O7 0.249102 0.498203 0.750000
#
# Coordination Sequence:
#
# PCOD9582966 Si02
#       2
#    12  12
#     4  11  23  41  64  92 125 166 213 266 329 388
#     4  11  22  37  59  90 129 174 217 256 300 358
#
# _framework density 21.993161000000001
#
# number of rings (size 3 to 8) (size 9 to 14) (size 15 to 20)
#    0.000    1.000    0.000   10.500    0.000    2.000 
#    0.000    0.000    0.000    3.000    0.000    3.500 
#    0.000    0.000    0.000    0.000    0.000    0.000 
#
# Total GULP energy -133888.171733 kJ/mol
# GULP energy per Si atom -5578.673822 kJ/mol
# Density = 2.194310 g / cm^3
# Si number density = 21.993161 Si / 1000 Ang^3
#
#
#
# Elastic Constant Matrix: (Units=GPa)
#
#
# Indices 1 2 3 4 5 6 
#
# 1 75.7033 41.9078 27.0664 0.0000 0.0000 0.0000
# 2 41.9078 75.7033 27.0664 0.0000 0.0000 0.0000
# 3 27.0664 27.0664 122.7398 0.0000 0.0000 0.0000
# 4 0.0000 0.0000 0.0000 -9.6202 0.0000 0.0000
# 5 0.0000 0.0000 0.0000 0.0000 -9.6202 0.0000
# 6 0.0000 0.0000 0.0000 0.0000 0.0000 16.8977
#
#
#
# Elastic Compliance Matrix: (Units=1/GPa)
#
#
# Indices 1 2 3 4 5 6 
#
# 1 0.019526 -0.010063 -0.002087 0.000000 0.000000 0.000000
# 2 -0.010063 0.019526 -0.002087 0.000000 0.000000 0.000000
# 3 -0.002087 -0.002087 0.009068 0.000000 0.000000 0.000000
# 4 0.000000 0.000000 0.000000 -0.103948 0.000000 0.000000
# 5 0.000000 0.000000 0.000000 0.000000 -0.103948 0.000000
# 6 0.000000 0.000000 0.000000 0.000000 0.000000 0.059180
#
#
# Mechanical properties :
#
#
# Convention : Reuss Voigt Hill
#
# Bulk Modulus (GPa) = 50.89916 51.80307 51.35111
# Shear Modulus (GPa) = -76.24991 11.40519 -32.42236
#
# Velocity S-wave (km/s) = -5.89450 2.27970 -3.84370
# Velocity P-wave (km/s) = 4.80972 5.52582 1.92371
#
# Compressibility (1/GPa) = 0.01964669
#
# Stress axis : x y z
#
# Youngs Moduli (GPa) = 51.21264 51.21264 110.28189
#
# Poissons Ratio (x) = 0.51537 0.23014
# Poissons Ratio (y) = 0.51537 0.23014
# Poissons Ratio (z) = 0.10687 0.10687
#
# Static dielectric constant tensor:
#      x y z
#    x 1.926970 0.000000 0.000000 
#    y 0.000000 1.926970 0.000000 
#    z 0.000000 0.000000 1.807930 
# 
# From -- ./inp_files/108.got.cif
#   From: 2010.05.17/outbox.cif.g08.bks.cpg/sg178_1_cif.got.tgz:108.got - 2010.05.20 11:30:59.
