data_PCOD9582127
_publ_section_title
;
Structure prediction by ZEFSAII (Michael W. Deem and Ramdas Pophale) SiO2 
 PCOD9582127
Probable space group: P 63/M
;
_chemical_formula_sum "Si O2"
_cell_formula_units_Z 44
_cell_length_a 12.983863
_cell_length_b 12.983863
_cell_length_c 15.602995
_cell_angle_alpha 90.000000
_cell_angle_beta 90.000000
_cell_angle_gamma 120.000000
_cell_volume 2277.961867
_symmetry_space_group_name_H-M "P 63/M"
_symmetry_group_IT_number 176
_symmetry_cell_setting 'hexagonal'
loop_
_space_group_symop_operation_xyz
x,y,z
x-y,x,1/2+z
-y,x-y,z
-x,-y,1/2+z
-x+y,-x,z
y,-x+y,1/2+z
-x,-y,-z
-x+y,-x,1/2-z
y,-x+y,-z
x,y,1/2-z
x-y,x,-z
-y,x-y,1/2-z
loop_
_atom_site_type_symbol
_atom_site_label
_atom_site_fract_x
_atom_site_fract_y
_atom_site_fract_z
Si Si1 0.333335 0.666668 0.396887
Si Si2 0.557398 0.915843 0.151840
Si Si3 0.333335 0.666668 0.896882
Si Si4 0.964395 0.225128 0.500000
Si Si5 0.442601 0.084153 0.348159
O O1 0.327337 0.546535 0.364645
O O2 0.333334 0.666667 0.500003
O O3 0.599078 0.928414 0.250000
O O4 0.499997 0.999996 0.139838
O O5 0.660433 0.951531 0.083200
O O6 0.327346 0.546539 0.864640
O O7 0.951528 0.291096 0.416801
O O8 0.090737 0.233065 0.499999
O O9 0.400918 0.071580 0.250000
#
# Coordination Sequence:
#
# PCOD9582127 Si02
#       5
#     4  12   4  12  12
#     4  12  22  38  67  97 131 163 208 263 325 385
#     4  11  24  42  66  97 132 169 209 259 319 384
#     4  12  22  38  67  97 131 163 208 263 325 385
#     4  12  26  44  66  92 127 170 220 268 316 372
#     4  11  24  42  66  97 132 169 209 259 319 384
#
# _framework density 19.315512999999999
#
# number of rings (size 3 to 8) (size 9 to 14) (size 15 to 20)
#    0.000    0.545    2.727    6.000    0.000    6.545 
#    0.000    0.000    0.000    3.273    0.000    0.000 
#    0.000    0.000    0.000    0.000    0.000    0.000 
#
# Total GULP energy -246443.016403 kJ/mol
# GULP energy per Si atom -5600.977646 kJ/mol
# Density = 1.927155 g / cm^3
# Si number density = 19.315513 Si / 1000 Ang^3
#
#
#
# Elastic Constant Matrix: (Units=GPa)
#
#
# Indices 1 2 3 4 5 6 
#
# 1 119.6348 49.3194 106.0067 0.0000 0.0000 0.0007
# 2 49.3194 119.6345 106.0073 0.0000 0.0000 0.0003
# 3 106.0067 106.0073 204.2723 0.0000 0.0000 0.0004
# 4 0.0000 0.0000 0.0000 112.7239 -0.0142 0.0000
# 5 0.0000 0.0000 0.0000 -0.0142 112.7247 0.0000
# 6 0.0007 0.0003 0.0004 0.0000 0.0000 35.1563
#
#
#
# Elastic Compliance Matrix: (Units=1/GPa)
#
#
# Indices 1 2 3 4 5 6 
#
# 1 0.015595 0.001374 -0.008806 0.000000 0.000000 0.000000
# 2 0.001374 0.015596 -0.008806 0.000000 0.000000 0.000000
# 3 -0.008806 -0.008806 0.014035 0.000000 0.000000 0.000000
# 4 0.000000 0.000000 0.000000 0.008871 0.000001 0.000000
# 5 0.000000 0.000000 0.000000 0.000001 0.008871 0.000000
# 6 0.000000 0.000000 0.000000 0.000000 0.000000 0.028444
#
#
# Mechanical properties :
#
#
# Convention : Reuss Voigt Hill
#
# Bulk Modulus (GPa) = 78.43627 107.35649 92.89638
# Shear Modulus (GPa) = 39.01970 64.26820 51.64395
#
# Velocity S-wave (km/s) = 4.49945 5.77452 5.17640
# Velocity P-wave (km/s) = 8.22736 10.00806 9.16108
#
# Compressibility (1/GPa) = 0.01274920
#
# Stress axis : x y z
#
# Youngs Moduli (GPa) = 64.12134 64.12039 71.24815
#
# Poissons Ratio (x) = -0.08809 0.62742
# Poissons Ratio (y) = -0.08810 0.62744
# Poissons Ratio (z) = 0.56466 0.56467
#
# Static dielectric constant tensor:
#      x y z
#    x 1.642580 0.000000 0.000000 
#    y 0.000000 1.642570 0.000000 
#    z 0.000000 0.000000 1.660080 
# 
# From -- ./inp_files/3190.got.cif
#   From: 2010.05.17/outbox.cif.g08.bks.cpg/sg176_2_cif.got.tgz:3190.got - 2010.06.03 11:36:45.
