data_PCOD9582231
_publ_section_title
;
Structure prediction by ZEFSAII (Michael W. Deem and Ramdas Pophale) SiO2 
 PCOD9582231
Probable space group: P 6 2 2
;
_chemical_formula_sum "Si O2"
_cell_formula_units_Z 72
_cell_length_a 23.459846
_cell_length_b 23.459846
_cell_length_c 8.166889
_cell_angle_alpha 90.000000
_cell_angle_beta 90.000000
_cell_angle_gamma 120.000000
_cell_volume 3892.580462
_symmetry_space_group_name_H-M "P 6 2 2"
_symmetry_group_IT_number 177
_symmetry_cell_setting 'hexagonal'
loop_
_space_group_symop_operation_xyz
x,y,z
x-y,x,z
-y,x-y,z
-x,-y,z
-x+y,-x,z
y,-x+y,z
x-y,-y,-z
-x,-x+y,-z
y,x,-z
-y,-x,-z
-x+y,y,-z
x,x-y,-z
loop_
_atom_site_type_symbol
_atom_site_label
_atom_site_fract_x
_atom_site_fract_y
_atom_site_fract_z
Si Si1 0.629721 0.497714 0.304864
Si Si2 0.439926 0.221097 0.700537
Si Si3 0.858495 0.146077 0.695501
Si Si4 0.379928 0.381695 0.803557
Si Si5 0.002431 0.752182 0.195442
Si Si6 0.366764 0.861549 0.301081
O O1 0.703861 0.526673 0.243297
O O2 0.611460 0.553174 0.263836
O O3 0.574019 0.427006 0.240372
O O4 0.632341 0.491804 0.501214
O O5 0.438257 0.219129 0.500000
O O6 0.363908 0.178174 0.755710
O O7 0.484444 0.190676 0.755470
O O8 0.855215 0.144786 0.500000
O O9 0.934898 0.187144 0.745720
O O10 0.816162 0.070695 0.754123
O O11 0.316531 0.313595 0.743831
O O12 0.376108 0.444534 0.747435
O O13 0.380011 0.380011 0.000000
O O14 0.000000 0.749243 0.000000
#
# Coordination Sequence:
#
# PCOD9582231 Si02
#       6
#    12  12  12  12  12  12
#     4  10  20  35  54  76 106 144 186 231 283 337
#     4   9  18  33  53  79 108 142 187 240 288 333
#     4  11  21  37  63  88 116 153 195 237 282 342
#     4  11  22  34  53  80 111 143 181 228 283 339
#     4  11  23  38  58  88 123 154 187 234 291 344
#     4  10  20  35  54  76 106 144 186 231 283 337
#
# _framework density 18.496727
#
# number of rings (size 3 to 8) (size 9 to 14) (size 15 to 20)
#    0.000    1.667    3.333    2.000    0.000    4.000 
#    1.000    0.833    0.000    0.333    0.000    2.333 
#    0.000    0.000    0.000    0.000    0.000    0.000 
#
# Total GULP energy -402025.201170 kJ/mol
# GULP energy per Si atom -5583.683350 kJ/mol
# Density = 1.845463 g / cm^3
# Si number density = 18.496727 Si / 1000 Ang^3
#
#
#
# Elastic Constant Matrix: (Units=GPa)
#
#
# Indices 1 2 3 4 5 6 
#
# 1 80.5311 15.9348 0.8985 0.0000 0.0000 0.0000
# 2 15.9348 80.5311 0.8985 0.0000 0.0000 0.0000
# 3 0.8985 0.8985 19.0437 0.0000 0.0000 0.0000
# 4 0.0000 0.0000 0.0000 13.0619 0.0000 0.0000
# 5 0.0000 0.0000 0.0000 0.0000 13.0619 0.0000
# 6 0.0000 0.0000 0.0000 0.0000 0.0000 32.2981
#
#
#
# Elastic Compliance Matrix: (Units=1/GPa)
#
#
# Indices 1 2 3 4 5 6 
#
# 1 0.012928 -0.002553 -0.000490 0.000000 0.000000 0.000000
# 2 -0.002553 0.012928 -0.000490 0.000000 0.000000 0.000000
# 3 -0.000490 -0.000490 0.052557 0.000000 0.000000 0.000000
# 4 0.000000 0.000000 0.000000 0.076558 0.000000 0.000000
# 5 0.000000 0.000000 0.000000 0.000000 0.076558 0.000000
# 6 0.000000 0.000000 0.000000 0.000000 0.000000 0.030962
#
#
# Mechanical properties :
#
#
# Convention : Reuss Voigt Hill
#
# Bulk Modulus (GPa) = 14.01546 23.95218 18.98382
# Shear Modulus (GPa) = 17.04519 22.50935 19.77727
#
# Velocity S-wave (km/s) = 3.03896 3.49225 3.27346
# Velocity P-wave (km/s) = 4.46177 5.40727 4.95711
#
# Compressibility (1/GPa) = 0.07134977
#
# Stress axis : x y z
#
# Youngs Moduli (GPa) = 77.35077 77.35077 19.02699
#
# Poissons Ratio (x) = 0.19745 0.00931
# Poissons Ratio (y) = 0.19745 0.00931
# Poissons Ratio (z) = 0.03786 0.03786
#
# Static dielectric constant tensor:
#      x y z
#    x 1.624590 0.000000 0.000000 
#    y 0.000000 1.624590 0.000000 
#    z 0.000000 0.000000 1.817230 
# 
# From -- ./inp_files/1539.got.cif
#   From: 2010.05.17/outbox.cif.g08.bks.cpg/sg177_1_cif.got.tgz:1539.got - 2010.05.20 11:28:44.
