data_PCOD9582279
_publ_section_title
;
Structure prediction by ZEFSAII (Michael W. Deem and Ramdas Pophale) SiO2 
 PCOD9582279
Probable space group: P 6 2 2
;
_chemical_formula_sum "Si O2"
_cell_formula_units_Z 48
_cell_length_a 23.685010
_cell_length_b 23.685010
_cell_length_c 5.658001
_cell_angle_alpha 90.000000
_cell_angle_beta 90.000000
_cell_angle_gamma 120.000000
_cell_volume 2748.785153
_symmetry_space_group_name_H-M "P 6 2 2"
_symmetry_group_IT_number 177
_symmetry_cell_setting 'hexagonal'
loop_
_space_group_symop_operation_xyz
x,y,z
x-y,x,z
-y,x-y,z
-x,-y,z
-x+y,-x,z
y,-x+y,z
x-y,-y,-z
-x,-x+y,-z
y,x,-z
-y,-x,-z
-x+y,y,-z
x,x-y,-z
loop_
_atom_site_type_symbol
_atom_site_label
_atom_site_fract_x
_atom_site_fract_y
_atom_site_fract_z
Si Si1 0.895438 0.447719 0.500000
Si Si2 0.000000 0.406827 0.500000
Si Si3 0.760435 0.520870 0.500000
Si Si4 0.452598 0.800252 0.873813
Si Si5 0.655364 0.655364 0.000000
Si Si6 0.588756 0.855204 0.122120
O O1 0.940612 0.522592 0.564356
O O2 0.850837 0.406395 0.712804
O O3 0.985277 0.367762 0.746690
O O4 0.714433 0.473594 0.705467
O O5 0.737378 0.569325 0.393615
O O6 0.382365 0.764730 0.000000
O O7 0.518980 0.841459 0.022081
O O8 0.645194 0.716666 0.932411
O O9 0.602485 0.801243 0.000000
#
# Coordination Sequence:
#
# PCOD9582279 Si02
#       6
#     6   6   6  12   6  12
#     4  11  22  34  54  83 115 138 182 244 304 354
#     4  11  24  34  58  92 118 144 188 234 303 360
#     4  10  22  40  56  81 103 150 190 240 298 362
#     4  11  20  36  57  77 102 142 184 243 300 357
#     4  12  22  41  60  92 116 152 189 238 296 358
#     4  10  23  39  61  83 114 149 191 236 295 359
#
# _framework density 17.462257999999999
#
# number of rings (size 3 to 8) (size 9 to 14) (size 15 to 20)
#    0.000    1.250    2.500    4.500    3.500    1.000 
#    0.000    0.000    0.000   81.500    0.000    0.000 
#    0.000    0.000    0.000    0.375    0.000    0.000 
#
# Total GULP energy -267387.639261 kJ/mol
# GULP energy per Si atom -5570.575818 kJ/mol
# Density = 1.742251 g / cm^3
# Si number density = 17.462258 Si / 1000 Ang^3
#
#
#
# Elastic Constant Matrix: (Units=GPa)
#
#
# Indices 1 2 3 4 5 6 
#
# 1 91.6467 33.0260 20.2372 0.0000 0.0000 0.0000
# 2 33.0260 91.6467 20.2372 0.0000 0.0000 0.0000
# 3 20.2372 20.2372 69.0026 0.0000 0.0000 0.0000
# 4 0.0000 0.0000 0.0000 7.4128 0.0000 0.0000
# 5 0.0000 0.0000 0.0000 0.0000 7.4128 0.0000
# 6 0.0000 0.0000 0.0000 0.0000 0.0000 29.3104
#
#
#
# Elastic Compliance Matrix: (Units=1/GPa)
#
#
# Indices 1 2 3 4 5 6 
#
# 1 0.012962 -0.004097 -0.002600 0.000000 0.000000 0.000000
# 2 -0.004097 0.012962 -0.002600 0.000000 0.000000 0.000000
# 3 -0.002600 -0.002600 0.016017 0.000000 0.000000 0.000000
# 4 0.000000 0.000000 0.000000 0.134901 0.000000 0.000000
# 5 0.000000 0.000000 0.000000 0.000000 0.134901 0.000000
# 6 0.000000 0.000000 0.000000 0.000000 0.000000 0.034118
#
#
# Mechanical properties :
#
#
# Convention : Reuss Voigt Hill
#
# Bulk Modulus (GPa) = 42.83105 44.36629 43.59867
# Shear Modulus (GPa) = 13.43231 20.74691 17.08961
#
# Velocity S-wave (km/s) = 2.77649 3.45062 3.13175
# Velocity P-wave (km/s) = 5.90420 6.42945 6.17241
#
# Compressibility (1/GPa) = 0.02334755
#
# Stress axis : x y z
#
# Youngs Moduli (GPa) = 77.14891 77.14891 62.43264
#
# Poissons Ratio (x) = 0.31607 0.16232
# Poissons Ratio (y) = 0.31607 0.16232
# Poissons Ratio (z) = 0.20058 0.20058
#
# Static dielectric constant tensor:
#      x y z
#    x 1.625920 0.000000 0.000000 
#    y 0.000000 1.625920 0.000000 
#    z 0.000000 0.000000 1.691670 
# 
# From -- ./inp_files/476.got.cif
#   From: 2010.05.17/outbox.cif.g08.bks.cpg/sg177_1_cif.got.tgz:476.got - 2010.05.20 11:28:44.
