data_PCOD9582496
_publ_section_title
;
Structure prediction by ZEFSAII (Michael W. Deem and Ramdas Pophale) SiO2 
 PCOD9582496
Probable space group: P 61 2 2
;
_chemical_formula_sum "Si O2"
_cell_formula_units_Z 54
_cell_length_a 12.181213
_cell_length_b 12.181213
_cell_length_c 20.523373
_cell_angle_alpha 90.000000
_cell_angle_beta 90.000000
_cell_angle_gamma 120.000000
_cell_volume 2637.305525
_symmetry_space_group_name_H-M "P 61 2 2"
_symmetry_group_IT_number 178
_symmetry_cell_setting 'hexagonal'
loop_
_space_group_symop_operation_xyz
x,y,z
x-y,x,1/6+z
-y,x-y,1/3+z
-x,-y,1/2+z
-x+y,-x,2/3+z
y,-x+y,5/6+z
x-y,-y,-z
-x,-x+y,2/3-z
y,x,1/3-z
-y,-x,5/6-z
-x+y,y,1/2-z
x,x-y,1/6-z
loop_
_atom_site_type_symbol
_atom_site_label
_atom_site_fract_x
_atom_site_fract_y
_atom_site_fract_z
Si Si1 0.990402 0.283342 0.015603
Si Si2 0.115656 0.696628 0.285917
Si Si3 0.383566 0.276421 0.980750
Si Si4 0.785960 0.958011 0.403904
Si Si5 0.415923 0.707962 0.583334
O O1 0.840421 0.193269 0.020309
O O2 0.046213 0.382149 0.077290
O O3 0.054294 0.196376 0.027384
O O4 0.047020 0.357181 0.949109
O O5 0.222111 0.658008 0.274296
O O6 0.000000 0.606188 0.333334
O O7 0.295028 0.126729 0.964315
O O8 0.298945 0.303842 0.030534
O O9 0.502061 0.294237 0.021457
O O10 0.919352 0.080648 0.416667
#
# Coordination Sequence:
#
# PCOD9582496 Si02
#       5
#    12  12  12  12   6
#     4  10  23  49  68 107 142 186 238 297 378 424
#     4  12  28  49  73 104 146 196 244 300 360 446
#     4  10  22  39  70 102 141 177 233 296 358 427
#     4  10  19  36  73 109 138 170 226 304 373 427
#     4  12  30  46  70 106 146 198 254 278 360 436
#
# _framework density 20.475442999999999
#
# number of rings (size 3 to 8) (size 9 to 14) (size 15 to 20)
#    1.333    0.000    3.333    1.333    3.111    6.222 
#    8.000    0.000    0.000    0.000    0.000    0.000 
#    0.000    0.000    0.000    0.000    0.000    0.000 
#
# Total GULP energy -300846.471641 kJ/mol
# GULP energy per Si atom -5571.230956 kJ/mol
# Density = 2.042884 g / cm^3
# Si number density = 20.475443 Si / 1000 Ang^3
#
#
#
# Elastic Constant Matrix: (Units=GPa)
#
#
# Indices 1 2 3 4 5 6 
#
# 1 92.7654 56.5887 37.3794 0.0000 0.0000 0.0000
# 2 56.5887 92.7654 37.3794 0.0000 0.0000 0.0000
# 3 37.3794 37.3794 91.0111 0.0000 0.0000 0.0000
# 4 0.0000 0.0000 0.0000 7.3653 0.0000 0.0000
# 5 0.0000 0.0000 0.0000 0.0000 7.3653 0.0000
# 6 0.0000 0.0000 0.0000 0.0000 0.0000 18.0884
#
#
#
# Elastic Compliance Matrix: (Units=1/GPa)
#
#
# Indices 1 2 3 4 5 6 
#
# 1 0.018035 -0.009607 -0.003462 0.000000 0.000000 0.000000
# 2 -0.009607 0.018035 -0.003462 0.000000 0.000000 0.000000
# 3 -0.003462 -0.003462 0.013831 0.000000 0.000000 0.000000
# 4 0.000000 0.000000 0.000000 0.135772 0.000000 0.000000
# 5 0.000000 0.000000 0.000000 0.000000 0.135772 0.000000
# 6 0.000000 0.000000 0.000000 0.000000 0.000000 0.055284
#
#
# Mechanical properties :
#
#
# Convention : Reuss Voigt Hill
#
# Bulk Modulus (GPa) = 59.37818 59.91520 59.64669
# Shear Modulus (GPa) = 12.03648 16.24341 14.13995
#
# Velocity S-wave (km/s) = 2.42719 2.81963 2.63074
# Velocity P-wave (km/s) = 6.07599 6.31870 6.19853
#
# Compressibility (1/GPa) = 0.01684120
#
# Stress axis : x y z
#
# Youngs Moduli (GPa) = 55.44735 55.44735 72.30091
#
# Poissons Ratio (x) = 0.53268 0.25027
# Poissons Ratio (y) = 0.53268 0.25027
# Poissons Ratio (z) = 0.19193 0.19193
#
# Static dielectric constant tensor:
#      x y z
#    x 1.732670 0.000000 0.000000 
#    y 0.000000 1.732670 0.000000 
#    z 0.000000 0.000000 1.856440 
# 
# From -- ./inp_files/7420.got.cif
#   From: 2010.05.17/outbox.cif.g08.bks.cpg/sg178_4_cif.got.tgz:7420.got - 2010.05.20 11:30:59.
