data_PCOD9582068
_publ_section_title
;
Structure prediction by ZEFSAII (Michael W. Deem and Ramdas Pophale) SiO2 
 PCOD9582068
Probable space group: P 63/M
;
_chemical_formula_sum "Si O2"
_cell_formula_units_Z 70
_cell_length_a 15.377272
_cell_length_b 15.377272
_cell_length_c 18.411746
_cell_angle_alpha 90.000000
_cell_angle_beta 90.000000
_cell_angle_gamma 120.000000
_cell_volume 3770.371982
_symmetry_space_group_name_H-M "P 63/M"
_symmetry_group_IT_number 176
_symmetry_cell_setting 'hexagonal'
loop_
_space_group_symop_operation_xyz
x,y,z
x-y,x,1/2+z
-y,x-y,z
-x,-y,1/2+z
-x+y,-x,z
y,-x+y,1/2+z
-x,-y,-z
-x+y,-x,1/2-z
y,-x+y,-z
x,y,1/2-z
x-y,x,-z
-y,x-y,1/2-z
loop_
_atom_site_type_symbol
_atom_site_label
_atom_site_fract_x
_atom_site_fract_y
_atom_site_fract_z
Si Si1 0.997251 0.373544 0.250000
Si Si2 0.350602 0.469712 0.109522
Si Si3 0.122225 0.900083 0.605925
Si Si4 0.286184 0.295782 0.995021
Si Si5 0.000000 0.000000 0.838450
Si Si6 0.019708 0.431449 0.750000
Si Si7 0.151375 0.343416 0.750000
Si Si8 0.548563 0.685793 0.110350
O O1 0.734523 0.632645 0.250000
O O2 0.964975 0.457913 0.250000
O O3 0.067021 0.394491 0.179524
O O4 0.376095 0.422228 0.178866
O O5 0.445818 0.580684 0.099385
O O6 0.249529 0.473837 0.123034
O O7 0.329856 0.398486 0.040003
O O8 0.073887 0.792111 0.567521
O O9 0.177555 0.899133 0.678749
O O10 0.039395 0.928509 0.629896
O O11 0.203560 0.978448 0.550092
O O12 0.377951 0.290153 0.958151
O O13 0.000000 0.000000 0.750000
O O14 0.123534 0.430738 0.750000
#
# Coordination Sequence:
#
# PCOD9582068 Si02
#       8
#     6  12  12  12   4   6   6  12
#     4  10  23  41  66  95 127 167 215 273 324 394
#     4  11  23  41  65  94 127 166 214 269 330 393
#     4  12  25  42  66  95 131 177 219 272 319 388
#     4  12  23  41  64  94 130 170 212 269 331 390
#     4  12  27  43  62 100 135 175 236 274 315 385
#     4  10  23  41  66  95 127 167 215 273 324 394
#     4  12  22  44  70  92 130 176 226 260 324 400
#     4  11  23  41  65  94 127 166 214 269 330 393
#
# _framework density 18.565808000000001
#
# number of rings (size 3 to 8) (size 9 to 14) (size 15 to 20)
#    0.000    0.686    6.000    2.400    0.000    0.686 
#    3.600    1.714    0.000    0.000    0.000    0.000 
#    0.000    0.000    0.000    0.000    0.000    0.000 
#
# Total GULP energy -391187.141524 kJ/mol
# GULP energy per Si atom -5588.387736 kJ/mol
# Density = 1.852355 g / cm^3
# Si number density = 18.565808 Si / 1000 Ang^3
#
#
#
# Elastic Constant Matrix: (Units=GPa)
#
#
# Indices 1 2 3 4 5 6 
#
# 1 51.8339 6.4295 9.8451 0.0000 0.0000 0.0000
# 2 6.4295 51.8339 9.8451 0.0000 0.0000 0.0000
# 3 9.8451 9.8451 87.2061 0.0000 0.0000 0.0000
# 4 0.0000 0.0000 0.0000 21.7396 0.0000 0.0000
# 5 0.0000 0.0000 0.0000 0.0000 21.7396 0.0000
# 6 0.0000 0.0000 0.0000 0.0000 0.0000 22.7022
#
#
#
# Elastic Compliance Matrix: (Units=1/GPa)
#
#
# Indices 1 2 3 4 5 6 
#
# 1 0.019934 -0.002090 -0.002015 0.000000 0.000000 0.000000
# 2 -0.002090 0.019934 -0.002015 0.000000 0.000000 0.000000
# 3 -0.002015 -0.002015 0.011922 0.000000 0.000000 0.000000
# 4 0.000000 0.000000 0.000000 0.045999 0.000000 0.000000
# 5 0.000000 0.000000 0.000000 0.000000 0.045999 0.000000
# 6 0.000000 0.000000 0.000000 0.000000 0.000000 0.044049
#
#
# Mechanical properties :
#
#
# Convention : Reuss Voigt Hill
#
# Bulk Modulus (GPa) = 25.28295 27.01260 26.14778
# Shear Modulus (GPa) = 23.44564 24.21990 23.83277
#
# Velocity S-wave (km/s) = 3.55750 3.61576 3.58675
# Velocity P-wave (km/s) = 5.52467 5.65799 5.59173
#
# Compressibility (1/GPa) = 0.03955234
#
# Stress axis : x y z
#
# Youngs Moduli (GPa) = 50.16487 50.16487 83.87899
#
# Poissons Ratio (x) = 0.10485 0.16898
# Poissons Ratio (y) = 0.10485 0.16898
# Poissons Ratio (z) = 0.10106 0.10106
#
# Static dielectric constant tensor:
#      x y z
#    x 1.618790 0.000000 0.000000 
#    y 0.000000 1.618790 0.000000 
#    z 0.000000 0.000000 1.629090 
# 
# From -- ./inp_files/3440.got.cif
#   From: 2010.05.17/outbox.cif.g08.bks.cpg/sg176_2_cif.got.tgz:3440.got - 2010.06.03 11:36:45.
