data_PCOD9582876
_publ_section_title
;
Structure prediction by ZEFSAII (Michael W. Deem and Ramdas Pophale) SiO2 
 PCOD9582876
Probable space group: P 61 2 2
;
_chemical_formula_sum "Si O2"
_cell_formula_units_Z 60
_cell_length_a 11.043452
_cell_length_b 11.043452
_cell_length_c 26.855401
_cell_angle_alpha 90.000000
_cell_angle_beta 90.000000
_cell_angle_gamma 120.000000
_cell_volume 2836.429340
_symmetry_space_group_name_H-M "P 61 2 2"
_symmetry_group_IT_number 178
_symmetry_cell_setting 'hexagonal'
loop_
_space_group_symop_operation_xyz
x,y,z
x-y,x,1/6+z
-y,x-y,1/3+z
-x,-y,1/2+z
-x+y,-x,2/3+z
y,-x+y,5/6+z
x-y,-y,-z
-x,-x+y,2/3-z
y,x,1/3-z
-y,-x,5/6-z
-x+y,y,1/2-z
x,x-y,1/6-z
loop_
_atom_site_type_symbol
_atom_site_label
_atom_site_fract_x
_atom_site_fract_y
_atom_site_fract_z
Si Si1 0.146610 0.652839 0.146271
Si Si2 0.579940 0.000000 0.000000
Si Si3 0.725634 0.520013 0.627546
Si Si4 0.000377 0.999623 0.916667
Si Si5 0.172240 0.172240 0.166667
Si Si6 0.093825 0.546913 0.583334
Si Si7 0.793861 0.126799 0.090895
O O1 0.241256 0.584273 0.160105
O O2 0.221092 0.744117 0.096137
O O3 0.101455 0.725721 0.187595
O O4 0.005934 0.513907 0.130702
O O5 0.693176 0.058088 0.043866
O O6 0.438008 0.894634 0.029481
O O7 0.800855 0.680370 0.645352
O O8 0.074780 0.167653 0.922244
O O9 0.064063 0.954483 0.871837
O O10 0.162526 0.711214 0.585556
#
# Coordination Sequence:
#
# PCOD9582876 Si02
#       7
#    12   6  12   6   6   6  12
#     4  10  23  45  73  98 137 183 239 303 354 437
#     4  11  25  42  70 108 139 187 232 304 362 443
#     4   9  22  46  71 107 131 184 244 297 370 421
#     4  12  28  42  66 106 144 196 232 302 376 450
#     4  11  25  44  70  98 149 179 244 294 368 451
#     4  10  24  46  64 100 128 190 234 280 364 434
#     4  12  27  43  71 100 148 184 242 295 372 437
#
# _framework density 21.153355999999999
#
# number of rings (size 3 to 8) (size 9 to 14) (size 15 to 20)
#    0.000    1.600    0.000    4.200   11.200    4.800 
#    0.000    0.000    0.000    0.000    0.000    0.000 
#    0.000    0.000    0.000    0.000    0.000    0.000 
#
# Total GULP energy -334225.069756 kJ/mol
# GULP energy per Si atom -5570.417829 kJ/mol
# Density = 2.110521 g / cm^3
# Si number density = 21.153356 Si / 1000 Ang^3
#
#
#
# Elastic Constant Matrix: (Units=GPa)
#
#
# Indices 1 2 3 4 5 6 
#
# 1 128.2130 64.6101 43.3646 0.0000 0.0000 0.0000
# 2 64.6101 128.2130 43.3646 0.0000 0.0000 0.0000
# 3 43.3646 43.3646 91.3162 0.0000 0.0000 0.0000
# 4 0.0000 0.0000 0.0000 -102.9970 0.0000 0.0000
# 5 0.0000 0.0000 0.0000 0.0000 -102.9970 0.0000
# 6 0.0000 0.0000 0.0000 0.0000 0.0000 31.8015
#
#
#
# Elastic Compliance Matrix: (Units=1/GPa)
#
#
# Indices 1 2 3 4 5 6 
#
# 1 0.011159 -0.004564 -0.003132 0.000000 0.000000 0.000000
# 2 -0.004564 0.011159 -0.003132 0.000000 0.000000 0.000000
# 3 -0.003132 -0.003132 0.013925 0.000000 0.000000 0.000000
# 4 0.000000 0.000000 0.000000 -0.009709 0.000000 0.000000
# 5 0.000000 0.000000 0.000000 0.000000 -0.009709 0.000000
# 6 0.000000 0.000000 0.000000 0.000000 0.000000 0.031445
#
#
# Mechanical properties :
#
#
# Convention : Reuss Voigt Hill
#
# Bulk Modulus (GPa) = 68.54999 72.26899 70.40949
# Shear Modulus (GPa) = 66.85653 -21.74496 22.55579
#
# Velocity S-wave (km/s) = 5.62799 -3.20967 3.26896
# Velocity P-wave (km/s) = 8.64343 4.52797 6.89969
#
# Compressibility (1/GPa) = 0.01458789
#
# Stress axis : x y z
#
# Youngs Moduli (GPa) = 89.61677 89.61677 71.81143
#
# Poissons Ratio (x) = 0.40900 0.22489
# Poissons Ratio (y) = 0.40900 0.22489
# Poissons Ratio (z) = 0.28065 0.28065
#
# Static dielectric constant tensor:
#      x y z
#    x 1.602360 0.000000 0.000000 
#    y 0.000000 1.602360 0.000000 
#    z 0.000000 0.000000 1.664530 
# 
# From -- ./inp_files/8881.got.cif
#   From: 2010.05.17/outbox.cif.g08.bks.cpg/sg178_5_cif.got.tgz:8881.got - 2010.05.20 11:30:59.
