data_PCOD9582810
_publ_section_title
;
Structure prediction by ZEFSAII (Michael W. Deem and Ramdas Pophale) SiO2 
 PCOD9582810
Probable space group: P 61 2 2
;
_chemical_formula_sum "Si O2"
_cell_formula_units_Z 30
_cell_length_a 7.246087
_cell_length_b 7.246087
_cell_length_c 33.328468
_cell_angle_alpha 90.000000
_cell_angle_beta 90.000000
_cell_angle_gamma 120.000000
_cell_volume 1515.489986
_symmetry_space_group_name_H-M "P 61 2 2"
_symmetry_group_IT_number 178
_symmetry_cell_setting 'hexagonal'
loop_
_space_group_symop_operation_xyz
x,y,z
x-y,x,1/6+z
-y,x-y,1/3+z
-x,-y,1/2+z
-x+y,-x,2/3+z
y,-x+y,5/6+z
x-y,-y,-z
-x,-x+y,2/3-z
y,x,1/3-z
-y,-x,5/6-z
-x+y,y,1/2-z
x,x-y,1/6-z
loop_
_atom_site_type_symbol
_atom_site_label
_atom_site_fract_x
_atom_site_fract_y
_atom_site_fract_z
Si Si1 0.858992 0.766264 0.516327
Si Si2 0.550412 0.182033 0.705848
Si Si3 0.598100 0.799050 0.583334
O O1 0.704959 0.570300 0.487792
O O2 0.746052 0.732086 0.559486
O O3 0.072413 0.754389 0.520879
O O4 0.921460 0.000000 0.500000
O O5 0.543733 0.087466 0.750000
O O6 0.645333 0.431971 0.716004
#
# Coordination Sequence:
#
# PCOD9582810 Si02
#       3
#    12  12   6
#     4  12  23  43  66  94 129 169 218 264 327 390
#     4  10  22  44  61  94 130 166 216 263 324 386
#     4  10  24  42  66  96 128 172 210 274 318 384
#
# _framework density 19.795576000000001
#
# number of rings (size 3 to 8) (size 9 to 14) (size 15 to 20)
#    1.200    0.000    4.000    2.400    0.000    1.600 
#    7.200    0.000    0.000    0.000    0.000    0.000 
#    0.000    0.000    0.000    0.000    0.000    0.000 
#
# Total GULP energy -167127.255100 kJ/mol
# GULP energy per Si atom -5570.908503 kJ/mol
# Density = 1.975052 g / cm^3
# Si number density = 19.795576 Si / 1000 Ang^3
#
#
#
# Elastic Constant Matrix: (Units=GPa)
#
#
# Indices 1 2 3 4 5 6 
#
# 1 83.4975 46.4991 9.0894 0.0000 0.0000 0.0000
# 2 46.4991 83.4975 9.0894 0.0000 0.0000 0.0000
# 3 9.0894 9.0894 29.7874 0.0000 0.0000 0.0000
# 4 0.0000 0.0000 0.0000 25.5364 0.0000 0.0000
# 5 0.0000 0.0000 0.0000 0.0000 25.5364 0.0000
# 6 0.0000 0.0000 0.0000 0.0000 0.0000 18.4992
#
#
#
# Elastic Compliance Matrix: (Units=1/GPa)
#
#
# Indices 1 2 3 4 5 6 
#
# 1 0.017532 -0.009496 -0.002452 0.000000 0.000000 0.000000
# 2 -0.009496 0.017532 -0.002452 0.000000 0.000000 0.000000
# 3 -0.002452 -0.002452 0.035068 0.000000 0.000000 0.000000
# 4 0.000000 0.000000 0.000000 0.039160 0.000000 0.000000
# 5 0.000000 0.000000 0.000000 0.000000 0.039160 0.000000
# 6 0.000000 0.000000 0.000000 0.000000 0.000000 0.054056
#
#
# Mechanical properties :
#
#
# Convention : Reuss Voigt Hill
#
# Bulk Modulus (GPa) = 24.19512 36.23757 30.21635
# Shear Modulus (GPa) = 20.40110 22.72134 21.56122
#
# Velocity S-wave (km/s) = 3.21376 3.39159 3.30387
# Velocity P-wave (km/s) = 5.10098 5.80369 5.46365
#
# Compressibility (1/GPa) = 0.04133065
#
# Stress axis : x y z
#
# Youngs Moduli (GPa) = 57.03917 57.03917 28.51635
#
# Poissons Ratio (x) = 0.54167 0.06992
# Poissons Ratio (y) = 0.54167 0.06992
# Poissons Ratio (z) = 0.13986 0.13986
#
# Static dielectric constant tensor:
#      x y z
#    x 1.691530 0.000000 0.000000 
#    y 0.000000 1.691530 0.000000 
#    z 0.000000 0.000000 1.699830 
# 
# From -- ./inp_files/8449.got.cif
#   From: 2010.05.17/outbox.cif.g08.bks.cpg/sg178_5_cif.got.tgz:8449.got - 2010.05.20 11:30:59.
