data_PCOD9582851
_publ_section_title
;
Structure prediction by ZEFSAII (Michael W. Deem and Ramdas Pophale) SiO2 
 PCOD9582851
Probable space group: P 61 2 2
;
_chemical_formula_sum "Si O2"
_cell_formula_units_Z 66
_cell_length_a 14.355846
_cell_length_b 14.355846
_cell_length_c 18.400898
_cell_angle_alpha 90.000000
_cell_angle_beta 90.000000
_cell_angle_gamma 120.000000
_cell_volume 3284.182113
_symmetry_space_group_name_H-M "P 61 2 2"
_symmetry_group_IT_number 178
_symmetry_cell_setting 'hexagonal'
loop_
_space_group_symop_operation_xyz
x,y,z
x-y,x,1/6+z
-y,x-y,1/3+z
-x,-y,1/2+z
-x+y,-x,2/3+z
y,-x+y,5/6+z
x-y,-y,-z
-x,-x+y,2/3-z
y,x,1/3-z
-y,-x,5/6-z
-x+y,y,1/2-z
x,x-y,1/6-z
loop_
_atom_site_type_symbol
_atom_site_label
_atom_site_fract_x
_atom_site_fract_y
_atom_site_fract_z
Si Si1 0.320549 0.252771 0.463688
Si Si2 0.584451 0.168902 0.250000
Si Si3 0.791588 0.208413 0.416667
Si Si4 0.016977 0.622328 0.991549
Si Si5 0.474576 0.818639 0.442745
Si Si6 0.021512 0.203229 0.911090
Si Si7 0.236364 0.763637 0.416667
O O1 0.374737 0.337084 0.400338
O O2 0.227394 0.141945 0.428134
O O3 0.255719 0.276656 0.524485
O O4 0.401958 0.234943 0.514670
O O5 0.518933 0.094369 0.181883
O O6 0.711608 0.248363 0.237235
O O7 0.902594 0.258011 0.461022
O O8 0.812996 0.299238 0.356956
O O9 0.926195 0.555629 0.932975
O O10 0.358547 0.808259 0.441185
O O11 0.000000 0.239671 0.833334
O O12 0.921094 0.078907 0.916667
#
# Coordination Sequence:
#
# PCOD9582851 Si02
#       7
#    12   6   6  12  12  12   6
#     4  11  22  37  68  97 128 174 223 283 333 411
#     4   9  22  42  65  96 136 167 215 290 342 386
#     4  10  24  46  59  89 133 183 220 274 326 388
#     4  11  23  42  68  95 133 178 237 269 336 402
#     4  10  23  43  65  95 138 180 224 280 341 412
#     4   9  18  39  58  90 132 165 207 274 350 389
#     4  11  22  40  66 103 129 166 219 278 356 406
#
# _framework density 20.096329000000001
#
# number of rings (size 3 to 8) (size 9 to 14) (size 15 to 20)
#    0.000    1.818    2.727    1.636    5.091    4.364 
#    6.545    0.909   16.000    0.000    0.000    0.000 
#    0.000    0.000    0.000    0.000    0.000    0.000 
#
# Total GULP energy -367707.944650 kJ/mol
# GULP energy per Si atom -5571.332495 kJ/mol
# Density = 2.005059 g / cm^3
# Si number density = 20.096329 Si / 1000 Ang^3
#
#
#
# Elastic Constant Matrix: (Units=GPa)
#
#
# Indices 1 2 3 4 5 6 
#
# 1 63.0505 53.0779 41.9377 0.0000 0.0000 0.0000
# 2 53.0779 63.0505 41.9377 0.0000 0.0000 0.0000
# 3 41.9377 41.9377 115.7286 0.0000 0.0000 0.0000
# 4 0.0000 0.0000 0.0000 32.6847 0.0000 0.0000
# 5 0.0000 0.0000 0.0000 0.0000 32.6847 0.0000
# 6 0.0000 0.0000 0.0000 0.0000 0.0000 4.9863
#
#
#
# Elastic Compliance Matrix: (Units=1/GPa)
#
#
# Indices 1 2 3 4 5 6 
#
# 1 0.055970 -0.044305 -0.004227 0.000000 0.000000 0.000000
# 2 -0.044305 0.055970 -0.004227 0.000000 0.000000 0.000000
# 3 -0.004227 -0.004227 0.011704 0.000000 0.000000 0.000000
# 4 0.000000 0.000000 0.000000 0.030595 0.000000 0.000000
# 5 0.000000 0.000000 0.000000 0.000000 0.030595 0.000000
# 6 0.000000 0.000000 0.000000 0.000000 0.000000 0.200550
#
#
# Mechanical properties :
#
#
# Convention : Reuss Voigt Hill
#
# Bulk Modulus (GPa) = 55.17195 57.30403 56.23799
# Shear Modulus (GPa) = 10.06150 21.06288 15.56219
#
# Velocity S-wave (km/s) = 2.23998 3.24094 2.78579
# Velocity P-wave (km/s) = 5.84836 6.52545 6.19616
#
# Compressibility (1/GPa) = 0.01812515
#
# Stress axis : x y z
#
# Youngs Moduli (GPa) = 17.86687 17.86687 85.43844
#
# Poissons Ratio (x) = 0.79160 0.36113
# Poissons Ratio (y) = 0.79160 0.36113
# Poissons Ratio (z) = 0.07552 0.07552
#
# Static dielectric constant tensor:
#      x y z
#    x 1.743920 0.000000 0.000000 
#    y 0.000000 1.743920 0.000000 
#    z 0.000000 0.000000 1.723270 
# 
# From -- ./inp_files/6730.got.cif
#   From: 2010.05.17/outbox.cif.g08.bks.cpg/sg178_4_cif.got.tgz:6730.got - 2010.05.20 11:30:59.
