data_PCOD9582886
_publ_section_title
;
Structure prediction by ZEFSAII (Michael W. Deem and Ramdas Pophale) SiO2 
 PCOD9582886
Probable space group: P 61 2 2
;
_chemical_formula_sum "Si O2"
_cell_formula_units_Z 48
_cell_length_a 17.440020
_cell_length_b 17.440020
_cell_length_c 7.829218
_cell_angle_alpha 90.000000
_cell_angle_beta 90.000000
_cell_angle_gamma 120.000000
_cell_volume 2062.257895
_symmetry_space_group_name_H-M "P 61 2 2"
_symmetry_group_IT_number 178
_symmetry_cell_setting 'hexagonal'
loop_
_space_group_symop_operation_xyz
x,y,z
x-y,x,1/6+z
-y,x-y,1/3+z
-x,-y,1/2+z
-x+y,-x,2/3+z
y,-x+y,5/6+z
x-y,-y,-z
-x,-x+y,2/3-z
y,x,1/3-z
-y,-x,5/6-z
-x+y,y,1/2-z
x,x-y,1/6-z
loop_
_atom_site_type_symbol
_atom_site_label
_atom_site_fract_x
_atom_site_fract_y
_atom_site_fract_z
Si Si1 0.610243 0.049477 0.683253
Si Si2 0.000000 0.832527 0.833334
Si Si3 0.282688 0.251713 0.838331
Si Si4 0.440769 0.225785 0.882698
Si Si5 0.740259 0.370130 0.583334
O O1 0.520979 0.041957 0.750000
O O2 0.687576 0.151948 0.674257
O O3 0.592279 0.000000 0.500000
O O4 0.649420 0.005126 0.807600
O O5 0.923288 0.846576 0.750000
O O6 0.007454 0.778788 0.671661
O O7 0.227195 0.227195 0.666667
O O8 0.348670 0.212708 0.816849
O O9 0.527102 0.322491 0.861670
O O10 0.423860 0.211930 0.083334
O O11 0.682973 0.365945 0.750000
#
# Coordination Sequence:
#
# PCOD9582886 Si02
#       5
#    12   6  12  12   6
#     4  12  25  43  69 110 155 205 268 328 385 454
#     4  12  28  56  84 114 160 194 250 334 412 488
#     4  12  26  47  81 114 150 207 264 319 398 481
#     4  11  23  45  71 102 151 201 254 322 388 452
#     4  10  24  40  66  98 146 204 254 310 376 446
#
# _framework density 23.275459000000001
#
# number of rings (size 3 to 8) (size 9 to 14) (size 15 to 20)
#    0.000    0.500    3.750    3.750    1.750   10.000 
#    2.250    0.000    0.000    0.000    0.000    0.000 
#    0.000    0.000    0.000    0.000    0.000    0.000 
#
# Total GULP energy -268255.603428 kJ/mol
# GULP energy per Si atom -5588.658405 kJ/mol
# Density = 2.322248 g / cm^3
# Si number density = 23.275459 Si / 1000 Ang^3
#
#
#
# Elastic Constant Matrix: (Units=GPa)
#
#
# Indices 1 2 3 4 5 6 
#
# 1 119.5258 64.5805 35.8577 0.0000 0.0000 0.0000
# 2 64.5805 119.5258 35.8577 0.0000 0.0000 0.0000
# 3 35.8577 35.8577 150.3564 0.0000 0.0000 0.0000
# 4 0.0000 0.0000 0.0000 6.6936 0.0000 0.0000
# 5 0.0000 0.0000 0.0000 0.0000 6.6936 0.0000
# 6 0.0000 0.0000 0.0000 0.0000 0.0000 27.4727
#
#
#
# Elastic Compliance Matrix: (Units=1/GPa)
#
#
# Indices 1 2 3 4 5 6 
#
# 1 0.012094 -0.006106 -0.001428 0.000000 0.000000 0.000000
# 2 -0.006106 0.012094 -0.001428 0.000000 0.000000 0.000000
# 3 -0.001428 -0.001428 0.007332 0.000000 0.000000 0.000000
# 4 0.000000 0.000000 0.000000 0.149396 0.000000 0.000000
# 5 0.000000 0.000000 0.000000 0.000000 0.149396 0.000000
# 6 0.000000 0.000000 0.000000 0.000000 0.000000 0.036400
#
#
# Mechanical properties :
#
#
# Convention : Reuss Voigt Hill
#
# Bulk Modulus (GPa) = 73.55266 73.55555 73.55410
# Shear Modulus (GPa) = 12.84794 25.04612 18.94703
#
# Velocity S-wave (km/s) = 2.35201 3.28392 2.85622
# Velocity P-wave (km/s) = 6.24864 6.78599 6.52285
#
# Compressibility (1/GPa) = 0.01359570
#
# Stress axis : x y z
#
# Youngs Moduli (GPa) = 82.68626 82.68626 136.38865
#
# Poissons Ratio (x) = 0.50488 0.19477
# Poissons Ratio (y) = 0.50488 0.19477
# Poissons Ratio (z) = 0.11808 0.11808
#
# Static dielectric constant tensor:
#      x y z
#    x 1.979930 0.000000 0.000000 
#    y 0.000000 1.979930 0.000000 
#    z 0.000000 0.000000 1.878820 
# 
# From -- ./inp_files/2651.got.cif
#   From: 2010.05.17/outbox.cif.g08.bks.cpg/sg178_2_cif.got.tgz:2651.got - 2010.05.20 11:30:59.
