data_PCOD9582270
_publ_section_title
;
Structure prediction by ZEFSAII (Michael W. Deem and Ramdas Pophale) SiO2 
 PCOD9582270
Probable space group: P 6 2 2
;
_chemical_formula_sum "Si O2"
_cell_formula_units_Z 52
_cell_length_a 11.767336
_cell_length_b 11.767336
_cell_length_c 19.256553
_cell_angle_alpha 90.000000
_cell_angle_beta 90.000000
_cell_angle_gamma 120.000000
_cell_volume 2309.220954
_symmetry_space_group_name_H-M "P 6 2 2"
_symmetry_group_IT_number 177
_symmetry_cell_setting 'hexagonal'
loop_
_space_group_symop_operation_xyz
x,y,z
x-y,x,z
-y,x-y,z
-x,-y,z
-x+y,-x,z
y,-x+y,z
x-y,-y,-z
-x,-x+y,-z
y,x,-z
-y,-x,-z
-x+y,y,-z
x,x-y,-z
loop_
_atom_site_type_symbol
_atom_site_label
_atom_site_fract_x
_atom_site_fract_y
_atom_site_fract_z
Si Si1 0.808370 0.486204 0.694555
Si Si2 0.333335 0.666668 0.081316
Si Si3 0.693057 0.871973 0.418345
Si Si4 0.238036 0.278169 0.213670
Si Si5 0.410578 0.063344 0.077499
O O1 0.656342 0.449246 0.704007
O O2 0.840420 0.559559 0.620777
O O3 0.912534 0.584226 0.748937
O O4 0.298304 0.516645 0.093828
O O5 0.333334 0.666667 0.000000
O O6 0.765239 0.789883 0.399924
O O7 0.668459 0.834230 0.500000
O O8 0.252822 0.156679 0.234457
O O9 0.268229 0.296620 0.131703
O O10 0.500000 0.000000 0.095015
O O11 0.354896 0.000000 0.000000
#
# Coordination Sequence:
#
# PCOD9582270 Si02
#       5
#    12   4  12  12  12
#     4  10  26  45  66  99 140 179 237 294 358 425
#     4  12  21  39  63  96 132 165 220 287 334 417
#     4  10  21  40  69 103 141 189 241 295 352 423
#     4  12  28  46  71  97 136 179 229 285 359 429
#     4  11  25  41  67 100 135 175 228 287 354 427
#
# _framework density 22.518415999999998
#
# number of rings (size 3 to 8) (size 9 to 14) (size 15 to 20)
#    0.462    0.692    2.308    3.231    6.462    4.615 
#    0.000    4.615    0.000    1.385    0.000    0.000 
#    0.000    0.000    0.000    0.000    0.000    0.000 
#
# Total GULP energy -289700.796232 kJ/mol
# GULP energy per Si atom -5571.169158 kJ/mol
# Density = 2.246716 g / cm^3
# Si number density = 22.518416 Si / 1000 Ang^3
#
#
#
# Elastic Constant Matrix: (Units=GPa)
#
#
# Indices 1 2 3 4 5 6 
#
# 1 76.7905 -3.6594 15.7785 0.0000 -0.0001 0.0001
# 2 -3.6594 76.7905 15.7785 0.0001 0.0000 0.0002
# 3 15.7785 15.7785 82.5588 0.0000 0.0000 0.0000
# 4 0.0000 0.0001 0.0000 33.9021 0.0000 0.0000
# 5 -0.0001 0.0000 0.0000 0.0000 33.9018 0.0000
# 6 0.0001 0.0002 0.0000 0.0000 0.0000 40.2249
#
#
#
# Elastic Compliance Matrix: (Units=1/GPa)
#
#
# Indices 1 2 3 4 5 6 
#
# 1 0.013667 0.001237 -0.002848 0.000000 0.000000 0.000000
# 2 0.001237 0.013667 -0.002848 0.000000 0.000000 0.000000
# 3 -0.002848 -0.002848 0.013201 0.000000 0.000000 0.000000
# 4 0.000000 0.000000 0.000000 0.029497 0.000000 0.000000
# 5 0.000000 0.000000 0.000000 0.000000 0.029497 0.000000
# 6 0.000000 0.000000 0.000000 0.000000 0.000000 0.024860
#
#
# Mechanical properties :
#
#
# Convention : Reuss Voigt Hill
#
# Bulk Modulus (GPa) = 31.63104 32.43722 32.03413
# Shear Modulus (GPa) = 34.75926 35.48857 35.12391
#
# Velocity S-wave (km/s) = 3.93312 3.97417 3.95370
# Velocity P-wave (km/s) = 5.89094 5.95774 5.92443
#
# Compressibility (1/GPa) = 0.03161451
#
# Stress axis : x y z
#
# Youngs Moduli (GPa) = 73.17098 73.17099 75.75017
#
# Poissons Ratio (x) = -0.09048 0.21576
# Poissons Ratio (y) = -0.09048 0.21576
# Poissons Ratio (z) = 0.20841 0.20841
#
# Static dielectric constant tensor:
#      x y z
#    x 1.819830 0.000000 0.000000 
#    y 0.000000 1.819830 0.000000 
#    z 0.000000 0.000000 1.877300 
# 
# From -- ./inp_files/2999.got.cif
#   From: 2010.05.17/outbox.cif.g08.bks.cpg/sg177_2_cif.got.tgz:2999.got - 2010.05.20 11:28:44.
