data_PCOD9582153
_publ_section_title
;
Structure prediction by ZEFSAII (Michael W. Deem and Ramdas Pophale) SiO2 
 PCOD9582153
Probable space group: P 63/M
;
_chemical_formula_sum "Si O2"
_cell_formula_units_Z 66
_cell_length_a 12.000000
_cell_length_b 12.000000
_cell_length_c 30.000000
_cell_angle_alpha 90.000000
_cell_angle_beta 90.000000
_cell_angle_gamma 120.000000
_cell_volume 3741.229744
_symmetry_space_group_name_H-M "P 63/M"
_symmetry_group_IT_number 176
_symmetry_cell_setting 'hexagonal'
loop_
_space_group_symop_operation_xyz
x,y,z
x-y,x,1/2+z
-y,x-y,z
-x,-y,1/2+z
-x+y,-x,z
y,-x+y,1/2+z
-x,-y,-z
-x+y,-x,1/2-z
y,-x+y,-z
x,y,1/2-z
x-y,x,-z
-y,x-y,1/2-z
loop_
_atom_site_type_symbol
_atom_site_label
_atom_site_fract_x
_atom_site_fract_y
_atom_site_fract_z
Si Si1 0.808276 0.318297 0.750000
Si Si2 0.600049 0.660767 0.911760
Si Si3 0.403776 0.075621 0.101053
Si Si4 0.712886 0.954196 0.322122
Si Si5 0.007940 0.269142 0.493568
Si Si6 0.727133 0.958825 0.697058
O O1 0.791718 0.445805 0.750000
O O2 0.885290 0.304025 0.792242
O O3 0.576718 0.781889 0.906085
O O4 0.466274 0.531480 0.902572
O O5 0.705686 0.680194 0.873356
O O6 0.644667 0.661510 0.963024
O O7 0.352972 0.040503 0.152694
O O8 0.316566 0.999876 0.056929
O O9 0.774563 0.862832 0.313412
O O10 0.824234 0.096175 0.306565
O O11 0.133057 0.254020 0.498483
O O12 0.693846 0.966991 0.750000
#
# Coordination Sequence:
#
# PCOD9582153 Si02
#       6
#     6  12  12  12  12  12
#     4  10  24  38  58  88 126 174 196 250 320 370
#     4  10  22  38  60  85 119 155 203 246 308 373
#     4  10  22  37  59  82 115 157 195 247 300 370
#     4  11  22  39  61  91 121 163 209 262 310 367
#     4  10  20  38  61  89 115 148 191 250 310 364
#     4  11  21  37  61  88 118 157 209 257 308 354
#
# _framework density 17.641258000000001
#
# number of rings (size 3 to 8) (size 9 to 14) (size 15 to 20)
#    0.182    1.455    1.818    2.545    2.545    0.000 
#    0.000    3.636    0.000    2.909    0.000    0.000 
#    0.000    0.000    0.000    0.000    0.000    0.000 
#
# Total GULP energy -367413.636042 kJ/mol
# GULP energy per Si atom -5566.873273 kJ/mol
# Density = 1.760111 g / cm^3
# Si number density = 17.641258 Si / 1000 Ang^3
#
#
#
# Elastic Constant Matrix: (Units=GPa)
#
#
# Indices 1 2 3 4 5 6 
#
# 1 90.8762 35.3232 53.1224 0.0000 0.0000 0.0000
# 2 35.3232 90.8762 53.1224 0.0000 0.0000 0.0000
# 3 53.1224 53.1224 185.0458 0.0000 0.0000 0.0000
# 4 0.0000 0.0000 0.0000 32.2463 0.0000 0.0000
# 5 0.0000 0.0000 0.0000 0.0000 32.2463 0.0000
# 6 0.0000 0.0000 0.0000 0.0000 0.0000 27.7765
#
#
#
# Elastic Compliance Matrix: (Units=1/GPa)
#
#
# Indices 1 2 3 4 5 6 
#
# 1 0.014225 -0.003776 -0.003000 0.000000 0.000000 0.000000
# 2 -0.003776 0.014225 -0.003000 0.000000 0.000000 0.000000
# 3 -0.003000 -0.003000 0.007126 0.000000 0.000000 0.000000
# 4 0.000000 0.000000 0.000000 0.031011 0.000000 0.000000
# 5 0.000000 0.000000 0.000000 0.000000 0.031011 0.000000
# 6 0.000000 0.000000 0.000000 0.000000 0.000000 0.036002
#
#
# Mechanical properties :
#
#
# Convention : Reuss Voigt Hill
#
# Bulk Modulus (GPa) = 62.39816 72.21490 67.30653
# Shear Modulus (GPa) = 31.54703 33.46918 32.50810
#
# Velocity S-wave (km/s) = 4.23336 4.36042 4.29736
# Velocity P-wave (km/s) = 7.70341 8.14709 7.92836
#
# Compressibility (1/GPa) = 0.01602611
#
# Stress axis : x y z
#
# Youngs Moduli (GPa) = 70.29810 70.29810 140.32314
#
# Poissons Ratio (x) = 0.26542 0.42094
# Poissons Ratio (y) = 0.26542 0.42094
# Poissons Ratio (z) = 0.21088 0.21088
#
# Static dielectric constant tensor:
#      x y z
#    x 1.598850 0.000000 0.000000 
#    y 0.000000 1.598850 0.000000 
#    z 0.000000 0.000000 1.628650 
# 
# From -- ./inp_files/4464.got.cif
#   From: 2010.05.17/outbox.ucp.g08.bks.cvg/sg176_3_cif.got.tgz:4464.got - 2010.06.11 15:18:56.
