data_PCOD9582295
_publ_section_title
;
Structure prediction by ZEFSAII (Michael W. Deem and Ramdas Pophale) SiO2 
 PCOD9582295
Probable space group: P 6 2 2
;
_chemical_formula_sum "Si O2"
_cell_formula_units_Z 46
_cell_length_a 14.078064
_cell_length_b 14.078064
_cell_length_c 11.669744
_cell_angle_alpha 90.000000
_cell_angle_beta 90.000000
_cell_angle_gamma 120.000000
_cell_volume 2002.985619
_symmetry_space_group_name_H-M "P 6 2 2"
_symmetry_group_IT_number 177
_symmetry_cell_setting 'hexagonal'
loop_
_space_group_symop_operation_xyz
x,y,z
x-y,x,z
-y,x-y,z
-x,-y,z
-x+y,-x,z
y,-x+y,z
x-y,-y,-z
-x,-x+y,-z
y,x,-z
-y,-x,-z
-x+y,y,-z
x,x-y,-z
loop_
_atom_site_type_symbol
_atom_site_label
_atom_site_fract_x
_atom_site_fract_y
_atom_site_fract_z
Si Si1 0.176711 0.823290 0.500000
Si Si2 0.106244 0.489449 0.344357
Si Si3 0.253351 0.173337 0.740989
Si Si4 0.333333 0.666666 0.636485
Si Si5 0.618389 0.614253 0.131878
O O1 0.296198 0.865575 0.444842
O O2 0.185941 0.901083 0.605539
O O3 0.208978 0.608867 0.324701
O O4 0.000000 0.500000 0.366509
O O5 0.089238 0.419949 0.229502
O O6 0.159157 0.204341 0.766587
O O7 0.359669 0.266212 0.810578
O O8 0.333334 0.666667 0.500000
O O9 0.500000 0.500000 0.126529
O O10 0.646598 0.646598 0.000000
#
# Coordination Sequence:
#
# PCOD9582295 Si02
#       5
#     6  12  12   4  12
#     4  12  26  46  77 118 153 212 260 332 404 476
#     4  11  27  47  75 109 161 198 262 326 402 486
#     4  12  27  47  75 113 162 211 268 320 396 474
#     4  12  27  42  72 121 152 205 249 319 419 487
#     4  10  25  49  79 107 145 206 266 326 388 461
#
# _framework density 22.965717999999999
#
# number of rings (size 3 to 8) (size 9 to 14) (size 15 to 20)
#    0.000    0.783    3.913    1.043    7.304    4.696 
#    0.000    1.304    0.000    1.565    0.000    0.000 
#    0.000    0.000    0.000    0.000    0.000    0.000 
#
# Total GULP energy -256575.912454 kJ/mol
# GULP energy per Si atom -5577.737227 kJ/mol
# Density = 2.291345 g / cm^3
# Si number density = 22.965718 Si / 1000 Ang^3
#
#
#
# Elastic Constant Matrix: (Units=GPa)
#
#
# Indices 1 2 3 4 5 6 
#
# 1 168.6441 66.3643 35.8281 0.0000 0.0000 0.0001
# 2 66.3643 168.6440 35.8278 0.0000 0.0000 0.0000
# 3 35.8281 35.8278 128.2733 0.0001 0.0000 -0.0001
# 4 0.0000 0.0000 0.0001 14.2808 0.0000 0.0000
# 5 0.0000 0.0000 0.0000 0.0000 14.2810 0.0000
# 6 0.0001 0.0000 -0.0001 0.0000 0.0000 51.1398
#
#
#
# Elastic Compliance Matrix: (Units=1/GPa)
#
#
# Indices 1 2 3 4 5 6 
#
# 1 0.007214 -0.002563 -0.001299 0.000000 0.000000 0.000000
# 2 -0.002563 0.007214 -0.001299 0.000000 0.000000 0.000000
# 3 -0.001299 -0.001299 0.008522 0.000000 0.000000 0.000000
# 4 0.000000 0.000000 0.000000 0.070024 0.000000 0.000000
# 5 0.000000 0.000000 0.000000 0.000000 0.070023 0.000000
# 6 0.000000 0.000000 0.000000 0.000000 0.000000 0.019554
#
#
# Mechanical properties :
#
#
# Convention : Reuss Voigt Hill
#
# Bulk Modulus (GPa) = 79.19183 82.40020 80.79602
# Shear Modulus (GPa) = 25.36999 37.77639 31.57319
#
# Velocity S-wave (km/s) = 3.32729 4.06014 3.71185
# Velocity P-wave (km/s) = 7.02272 7.61165 7.32311
#
# Compressibility (1/GPa) = 0.01262756
#
# Stress axis : x y z
#
# Youngs Moduli (GPa) = 138.61549 138.61550 117.34905
#
# Poissons Ratio (x) = 0.35526 0.15246
# Poissons Ratio (y) = 0.35526 0.15245
# Poissons Ratio (z) = 0.18008 0.18008
#
# Static dielectric constant tensor:
#      x y z
#    x 1.949340 0.000000 0.000000 
#    y 0.000000 1.949340 0.000000 
#    z 0.000000 0.000000 1.879760 
# 
# From -- ./inp_files/1805.got.cif
#   From: 2010.05.17/outbox.cif.g08.bks.cpg/sg177_1_cif.got.tgz:1805.got - 2010.05.20 11:28:44.
