data_PCOD9582480
_publ_section_title
;
Structure prediction by ZEFSAII (Michael W. Deem and Ramdas Pophale) SiO2 
 PCOD9582480
Probable space group: P 61 2 2
;
_chemical_formula_sum "Si O2"
_cell_formula_units_Z 84
_cell_length_a 13.840815
_cell_length_b 13.840815
_cell_length_c 29.025743
_cell_angle_alpha 90.000000
_cell_angle_beta 90.000000
_cell_angle_gamma 120.000000
_cell_volume 4815.454735
_symmetry_space_group_name_H-M "P 61 2 2"
_symmetry_group_IT_number 178
_symmetry_cell_setting 'hexagonal'
loop_
_space_group_symop_operation_xyz
x,y,z
x-y,x,1/6+z
-y,x-y,1/3+z
-x,-y,1/2+z
-x+y,-x,2/3+z
y,-x+y,5/6+z
x-y,-y,-z
-x,-x+y,2/3-z
y,x,1/3-z
-y,-x,5/6-z
-x+y,y,1/2-z
x,x-y,1/6-z
loop_
_atom_site_type_symbol
_atom_site_label
_atom_site_fract_x
_atom_site_fract_y
_atom_site_fract_z
Si Si1 0.276361 0.933744 0.896348
Si Si2 0.504673 0.976170 0.945349
Si Si3 0.687869 0.267504 0.043551
Si Si4 0.595532 0.826470 0.394851
Si Si5 0.535017 0.406033 0.530115
Si Si6 0.522182 0.588728 0.373346
Si Si7 0.220285 0.500820 0.155336
O O1 0.160208 0.839793 0.916667
O O2 0.384066 0.952534 0.926048
O O3 0.285490 0.883629 0.847966
O O4 0.292670 0.055807 0.891886
O O5 0.503240 0.858251 0.937958
O O6 0.594865 0.083963 0.915438
O O7 0.516502 0.000000 0.000000
O O8 0.725535 0.362768 0.083334
O O9 0.773704 0.307031 0.000313
O O10 0.573765 0.255949 0.023531
O O11 0.503420 0.838512 0.365073
O O12 0.604269 0.718313 0.382814
O O13 0.547947 0.804014 0.446807
O O14 0.460560 0.443258 0.501419
O O15 0.493586 0.506414 0.416667
O O16 0.403588 0.580151 0.364028
#
# Coordination Sequence:
#
# PCOD9582480 Si02
#       7
#    12  12  12  12  12  12  12
#     4  11  20  33  51  76 112 150 188 222 271 333
#     4  11  22  35  51  78 114 147 192 234 273 336
#     4  12  20  34  54  79 108 153 185 227 287 335
#     4  10  22  31  52  77 110 152 183 225 278 329
#     4  11  22  34  52  79 107 147 194 226 275 346
#     4  10  19  35  50  75 114 147 181 225 274 332
#     4  11  18  33  53  77 112 150 180 223 276 334
#
# _framework density 17.443836000000001
#
# number of rings (size 3 to 8) (size 9 to 14) (size 15 to 20)
#    0.000    1.143    7.143    2.143    0.000    1.714 
#    0.000    0.000    0.000    0.000    0.000    0.000 
#    8.571    0.000    0.857    0.000    0.000    0.000 
#
# Total GULP energy -467869.116467 kJ/mol
# GULP energy per Si atom -5569.870434 kJ/mol
# Density = 1.740413 g / cm^3
# Si number density = 17.443836 Si / 1000 Ang^3
#
#
#
# Elastic Constant Matrix: (Units=GPa)
#
#
# Indices 1 2 3 4 5 6 
#
# 1 62.3191 35.3567 25.0759 0.0000 0.0000 0.0000
# 2 35.3567 62.3191 25.0759 0.0000 0.0000 0.0000
# 3 25.0759 25.0759 89.2578 0.0000 0.0000 0.0000
# 4 0.0000 0.0000 0.0000 32.7201 0.0000 0.0000
# 5 0.0000 0.0000 0.0000 0.0000 32.7201 0.0000
# 6 0.0000 0.0000 0.0000 0.0000 0.0000 13.4812
#
#
#
# Elastic Compliance Matrix: (Units=1/GPa)
#
#
# Indices 1 2 3 4 5 6 
#
# 1 0.024526 -0.012563 -0.003361 0.000000 0.000000 0.000000
# 2 -0.012563 0.024526 -0.003361 0.000000 0.000000 0.000000
# 3 -0.003361 -0.003361 0.013092 0.000000 0.000000 0.000000
# 4 0.000000 0.000000 0.000000 0.030562 0.000000 0.000000
# 5 0.000000 0.000000 0.000000 0.000000 0.030562 0.000000
# 6 0.000000 0.000000 0.000000 0.000000 0.000000 0.074177
#
#
# Mechanical properties :
#
#
# Convention : Reuss Voigt Hill
#
# Bulk Modulus (GPa) = 42.41755 42.76813 42.59284
# Shear Modulus (GPa) = 20.50240 24.34344 22.42292
#
# Velocity S-wave (km/s) = 3.43204 3.73974 3.58919
# Velocity P-wave (km/s) = 6.33045 6.57407 6.45341
#
# Compressibility (1/GPa) = 0.02357515
#
# Stress axis : x y z
#
# Youngs Moduli (GPa) = 40.77276 40.77276 76.38260
#
# Poissons Ratio (x) = 0.51221 0.25673
# Poissons Ratio (y) = 0.51221 0.25673
# Poissons Ratio (z) = 0.13704 0.13704
#
# Static dielectric constant tensor:
#      x y z
#    x 1.621440 0.000000 0.000000 
#    y 0.000000 1.621440 0.000000 
#    z 0.000000 0.000000 1.677290 
# 
# From -- ./inp_files/8976.got.cif
#   From: 2010.05.17/outbox.cif.g08.bks.cpg/sg178_5_cif.got.tgz:8976.got - 2010.05.20 11:30:59.
