data_PCOD9582578
_publ_section_title
;
Structure prediction by ZEFSAII (Michael W. Deem and Ramdas Pophale) SiO2 
 PCOD9582578
Probable space group: P 61 2 2
;
_chemical_formula_sum "Si O2"
_cell_formula_units_Z 66
_cell_length_a 22.539008
_cell_length_b 22.539008
_cell_length_c 7.498969
_cell_angle_alpha 90.000000
_cell_angle_beta 90.000000
_cell_angle_gamma 120.000000
_cell_volume 3299.147901
_symmetry_space_group_name_H-M "P 61 2 2"
_symmetry_group_IT_number 178
_symmetry_cell_setting 'hexagonal'
loop_
_space_group_symop_operation_xyz
x,y,z
x-y,x,1/6+z
-y,x-y,1/3+z
-x,-y,1/2+z
-x+y,-x,2/3+z
y,-x+y,5/6+z
x-y,-y,-z
-x,-x+y,2/3-z
y,x,1/3-z
-y,-x,5/6-z
-x+y,y,1/2-z
x,x-y,1/6-z
loop_
_atom_site_type_symbol
_atom_site_label
_atom_site_fract_x
_atom_site_fract_y
_atom_site_fract_z
Si Si1 0.925383 0.162947 0.760285
Si Si2 0.344945 0.000000 0.000000
Si Si3 0.076577 0.153154 0.250000
Si Si4 0.364941 0.871302 0.083855
Si Si5 0.627010 0.903795 0.802334
Si Si6 0.080940 0.591589 0.344278
Si Si7 0.767346 0.232655 0.416667
O O1 0.924147 0.125797 0.575460
O O2 0.892963 0.211784 0.745476
O O3 0.000000 0.211397 0.833334
O O4 0.890973 0.109028 0.916667
O O5 0.326761 0.029538 0.174733
O O6 0.352122 0.933958 0.038707
O O7 0.107107 0.107107 0.166667
O O8 0.429907 0.882518 0.965954
O O9 0.382137 0.886949 0.292750
O O10 0.300390 0.797082 0.039395
O O11 0.583126 0.833467 0.698417
O O12 0.569653 0.913740 0.904330
O O13 0.000000 0.536661 0.333334
#
# Coordination Sequence:
#
# PCOD9582578 Si02
#       7
#    12   6   6  12  12  12   6
#     4  12  27  45  71 102 138 184 229 275 347 424
#     4  10  20  36  62  94 134 170 214 270 340 406
#     4  12  27  50  76 104 142 178 236 296 336 402
#     4  10  22  38  62  96 135 171 226 274 345 402
#     4  11  25  40  65  97 141 175 219 278 346 417
#     4  11  21  39  70 102 128 169 225 291 337 400
#     4  10  25  40  58  92 138 188 220 276 344 410
#
# _framework density 20.005165999999999
#
# number of rings (size 3 to 8) (size 9 to 14) (size 15 to 20)
#    0.000    1.091    4.545    1.091    3.818    5.091 
#    0.000    0.000    0.000    8.727    0.000    0.000 
#    0.000    0.000    0.000    0.000    0.000    0.000 
#
# Total GULP energy -367690.267146 kJ/mol
# GULP energy per Si atom -5571.064654 kJ/mol
# Density = 1.995963 g / cm^3
# Si number density = 20.005166 Si / 1000 Ang^3
#
#
#
# Elastic Constant Matrix: (Units=GPa)
#
#
# Indices 1 2 3 4 5 6 
#
# 1 112.0285 11.6470 33.3077 0.0000 0.0000 0.0000
# 2 11.6470 112.0285 33.3077 0.0000 0.0000 0.0000
# 3 33.3077 33.3077 95.9551 0.0000 0.0000 0.0000
# 4 0.0000 0.0000 0.0000 3.9885 0.0000 0.0000
# 5 0.0000 0.0000 0.0000 0.0000 3.9885 0.0000
# 6 0.0000 0.0000 0.0000 0.0000 0.0000 50.1908
#
#
#
# Elastic Compliance Matrix: (Units=1/GPa)
#
#
# Indices 1 2 3 4 5 6 
#
# 1 0.009954 -0.000008 -0.003452 0.000000 0.000000 0.000000
# 2 -0.000008 0.009954 -0.003452 0.000000 0.000000 0.000000
# 3 -0.003452 -0.003452 0.012818 0.000000 0.000000 0.000000
# 4 0.000000 0.000000 0.000000 0.250722 0.000000 0.000000
# 5 0.000000 0.000000 0.000000 0.000000 0.250722 0.000000
# 6 0.000000 0.000000 0.000000 0.000000 0.000000 0.019924
#
#
# Mechanical properties :
#
#
# Convention : Reuss Voigt Hill
#
# Bulk Modulus (GPa) = 52.91049 52.94853 52.92951
# Shear Modulus (GPa) = 8.70749 27.75020 18.22885
#
# Velocity S-wave (km/s) = 2.08856 3.72849 3.02190
# Velocity P-wave (km/s) = 5.68524 6.71270 6.22022
#
# Compressibility (1/GPa) = 0.01889984
#
# Stress axis : x y z
#
# Youngs Moduli (GPa) = 100.46679 100.46679 78.01461
#
# Poissons Ratio (x) = 0.00085 0.26931
# Poissons Ratio (y) = 0.00085 0.26931
# Poissons Ratio (z) = 0.34682 0.34682
#
# Static dielectric constant tensor:
#      x y z
#    x 1.702910 0.000000 0.000000 
#    y 0.000000 1.702910 0.000000 
#    z 0.000000 0.000000 1.793150 
# 
# From -- ./inp_files/3315.got.cif
#   From: 2010.05.17/outbox.cif.g08.bks.cpg/sg178_2_cif.got.tgz:3315.got - 2010.05.20 11:30:59.
