data_PCOD9582310
_publ_section_title
;
Structure prediction by ZEFSAII (Michael W. Deem and Ramdas Pophale) SiO2 
 PCOD9582310
Probable space group: P 6 2 2
;
_chemical_formula_sum "Si O2"
_cell_formula_units_Z 84
_cell_length_a 14.768135
_cell_length_b 14.768135
_cell_length_c 21.221897
_cell_angle_alpha 90.000000
_cell_angle_beta 90.000000
_cell_angle_gamma 120.000000
_cell_volume 4008.354664
_symmetry_space_group_name_H-M "P 6 2 2"
_symmetry_group_IT_number 177
_symmetry_cell_setting 'hexagonal'
loop_
_space_group_symop_operation_xyz
x,y,z
x-y,x,z
-y,x-y,z
-x,-y,z
-x+y,-x,z
y,-x+y,z
x-y,-y,-z
-x,-x+y,-z
y,x,-z
-y,-x,-z
-x+y,y,-z
x,x-y,-z
loop_
_atom_site_type_symbol
_atom_site_label
_atom_site_fract_x
_atom_site_fract_y
_atom_site_fract_z
Si Si1 0.883905 0.404990 0.661627
Si Si2 0.230226 0.091380 0.844396
Si Si3 0.456083 0.121903 0.521413
Si Si4 0.142823 0.912756 0.695456
Si Si5 0.546783 0.424429 0.926511
Si Si6 0.763291 0.533769 0.857131
Si Si7 0.738098 0.203798 0.716546
O O1 0.877064 0.346873 0.596637
O O2 0.844016 0.314676 0.712783
O O3 0.808105 0.453691 0.671413
O O4 0.000000 0.500000 0.670441
O O5 0.188737 0.164714 0.871311
O O6 0.215789 0.108034 0.769548
O O7 0.351224 0.131321 0.851483
O O8 0.570593 0.141185 0.500000
O O9 0.438569 0.219285 0.500000
O O10 0.372295 0.000000 0.500000
O O11 0.230508 0.879778 0.693359
O O12 0.028378 0.837093 0.667268
O O13 0.500000 0.500000 0.915144
O O14 0.647874 0.456626 0.882684
O O15 0.463916 0.307482 0.908005
O O16 0.572375 0.427626 0.000000
O O17 0.800631 0.511232 0.789887
#
# Coordination Sequence:
#
# PCOD9582310 Si02
#       7
#    12  12  12  12  12  12  12
#     4  12  24  41  63  94 132 164 216 260 325 389
#     4   9  17  30  53  82 113 149 191 240 295 368
#     4  11  23  45  73 103 132 178 227 286 342 396
#     4   9  17  32  52  79 114 158 204 242 293 360
#     4  11  24  41  63  87 115 161 223 280 320 380
#     4  11  22  39  59  85 124 165 206 253 331 390
#     4  11  24  37  58  91 130 170 198 259 325 400
#
# _framework density 20.956230999999999
#
# number of rings (size 3 to 8) (size 9 to 14) (size 15 to 20)
#    0.000    1.429    1.429    4.857    0.000    5.714 
#    0.000    0.000    0.000    0.143    0.000    0.000 
#    0.000    6.857    0.000    0.000    0.000    0.000 
#
# Total GULP energy -468151.207237 kJ/mol
# GULP energy per Si atom -5573.228658 kJ/mol
# Density = 2.090853 g / cm^3
# Si number density = 20.956231 Si / 1000 Ang^3
#
#
#
# Elastic Constant Matrix: (Units=GPa)
#
#
# Indices 1 2 3 4 5 6 
#
# 1 56.8473 52.2550 22.9262 0.0000 0.0000 0.0000
# 2 52.2550 56.8473 22.9262 0.0000 0.0000 0.0000
# 3 22.9262 22.9262 50.2321 0.0000 0.0000 0.0000
# 4 0.0000 0.0000 0.0000 28.3055 0.0000 0.0000
# 5 0.0000 0.0000 0.0000 0.0000 28.3055 0.0000
# 6 0.0000 0.0000 0.0000 0.0000 0.0000 2.2962
#
#
#
# Elastic Compliance Matrix: (Units=1/GPa)
#
#
# Indices 1 2 3 4 5 6 
#
# 1 0.114548 -0.103207 -0.005176 0.000000 0.000000 0.000000
# 2 -0.103207 0.114548 -0.005176 0.000000 0.000000 0.000000
# 3 -0.005176 -0.005176 0.024632 0.000000 0.000000 0.000000
# 4 0.000000 0.000000 0.000000 0.035329 0.000000 0.000000
# 5 0.000000 0.000000 0.000000 0.000000 0.035329 0.000000
# 6 0.000000 0.000000 0.000000 0.000000 0.000000 0.435509
#
#
# Mechanical properties :
#
#
# Convention : Reuss Voigt Hill
#
# Bulk Modulus (GPa) = 37.57979 40.01574 38.79777
# Shear Modulus (GPa) = 5.02067 16.16938 10.59503
#
# Velocity S-wave (km/s) = 1.54951 2.78074 2.25095
# Velocity P-wave (km/s) = 4.60139 5.42646 5.03086
#
# Compressibility (1/GPa) = 0.02661005
#
# Stress axis : x y z
#
# Youngs Moduli (GPa) = 8.72998 8.72998 40.59692
#
# Poissons Ratio (x) = 0.90099 0.21013
# Poissons Ratio (y) = 0.90099 0.21013
# Poissons Ratio (z) = 0.04519 0.04519
#
# Static dielectric constant tensor:
#      x y z
#    x 1.778310 0.000000 0.000000 
#    y 0.000000 1.778310 0.000000 
#    z 0.000000 0.000000 1.869590 
# 
# From -- ./inp_files/3184.got.cif
#   From: 2010.05.17/outbox.cif.g08.bks.cpg/sg177_2_cif.got.tgz:3184.got - 2010.05.20 11:28:44.
