data_PCOD9582414
_publ_section_title
;
Structure prediction by ZEFSAII (Michael W. Deem and Ramdas Pophale) SiO2 
 PCOD9582414
Probable space group: P 61 2 2
;
_chemical_formula_sum "Si O2"
_cell_formula_units_Z 60
_cell_length_a 11.658631
_cell_length_b 11.658631
_cell_length_c 24.153117
_cell_angle_alpha 90.000000
_cell_angle_beta 90.000000
_cell_angle_gamma 120.000000
_cell_volume 2843.144486
_symmetry_space_group_name_H-M "P 61 2 2"
_symmetry_group_IT_number 178
_symmetry_cell_setting 'hexagonal'
loop_
_space_group_symop_operation_xyz
x,y,z
x-y,x,1/6+z
-y,x-y,1/3+z
-x,-y,1/2+z
-x+y,-x,2/3+z
y,-x+y,5/6+z
x-y,-y,-z
-x,-x+y,2/3-z
y,x,1/3-z
-y,-x,5/6-z
-x+y,y,1/2-z
x,x-y,1/6-z
loop_
_atom_site_type_symbol
_atom_site_label
_atom_site_fract_x
_atom_site_fract_y
_atom_site_fract_z
Si Si1 0.322475 0.661238 0.083334
Si Si2 0.464082 0.492365 0.730040
Si Si3 0.673811 0.201107 0.364584
Si Si4 0.082967 0.933769 0.688620
Si Si5 0.237313 0.040808 0.419253
Si Si6 0.720455 0.860228 0.583334
O O1 0.417317 0.819532 0.080136
O O2 0.238729 0.604313 0.140311
O O3 0.516624 0.516624 0.666667
O O4 0.568265 0.507515 0.776642
O O5 0.353661 0.337324 0.731202
O O6 0.698901 0.301100 0.416667
O O7 0.810707 0.194377 0.365537
O O8 0.973565 0.973565 0.666667
O O9 0.143290 0.890275 0.639690
O O10 0.202572 0.074018 0.707968
O O11 0.012449 0.822361 0.734814
O O12 0.101213 0.898788 0.416667
#
# Coordination Sequence:
#
# PCOD9582414 Si02
#       6
#     6  12  12  12  12   6
#     4  12  26  51  75 102 152 194 252 324 358 450
#     4  12  23  46  78  98 144 200 239 309 367 448
#     4  10  26  48  70 106 137 193 260 285 373 457
#     4  10  18  34  59  98 143 165 216 299 355 431
#     4  10  20  34  60 105 134 177 231 283 365 423
#     4  10  20  41  63  90 138 184 222 288 368 434
#
# _framework density 21.103394000000002
#
# number of rings (size 3 to 8) (size 9 to 14) (size 15 to 20)
#    0.600    0.800    6.000    1.800    0.000    4.000 
#    5.400    0.000    0.000    0.000    0.000    0.000 
#    0.000    0.000    0.000    0.000    0.000    0.000 
#
# Total GULP energy -334065.838850 kJ/mol
# GULP energy per Si atom -5567.763981 kJ/mol
# Density = 2.105536 g / cm^3
# Si number density = 21.103394 Si / 1000 Ang^3
#
#
#
# Elastic Constant Matrix: (Units=GPa)
#
#
# Indices 1 2 3 4 5 6 
#
# 1 76.4096 47.0842 67.1469 0.0000 0.0000 0.0000
# 2 47.0842 76.4096 67.1469 0.0000 0.0000 0.0000
# 3 67.1469 67.1469 151.2593 0.0000 0.0000 0.0000
# 4 0.0000 0.0000 0.0000 29.0460 0.0000 0.0000
# 5 0.0000 0.0000 0.0000 0.0000 29.0460 0.0000
# 6 0.0000 0.0000 0.0000 0.0000 0.0000 14.6627
#
#
#
# Elastic Compliance Matrix: (Units=1/GPa)
#
#
# Indices 1 2 3 4 5 6 
#
# 1 0.024878 -0.009223 -0.006949 0.000000 0.000000 0.000000
# 2 -0.009223 0.024878 -0.006949 0.000000 0.000000 0.000000
# 3 -0.006949 -0.006949 0.012781 0.000000 0.000000 0.000000
# 4 0.000000 0.000000 0.000000 0.034428 0.000000 0.000000
# 5 0.000000 0.000000 0.000000 0.000000 0.034428 0.000000
# 6 0.000000 0.000000 0.000000 0.000000 0.000000 0.068200
#
#
# Mechanical properties :
#
#
# Convention : Reuss Voigt Hill
#
# Bulk Modulus (GPa) = 61.37644 74.09275 67.73459
# Shear Modulus (GPa) = 19.89913 22.73094 21.31504
#
# Velocity S-wave (km/s) = 3.07406 3.28552 3.18154
# Velocity P-wave (km/s) = 6.46116 7.04120 6.75740
#
# Compressibility (1/GPa) = 0.01629290
#
# Stress axis : x y z
#
# Youngs Moduli (GPa) = 40.19695 40.19695 78.24010
#
# Poissons Ratio (x) = 0.37072 0.54373
# Poissons Ratio (y) = 0.37072 0.54373
# Poissons Ratio (z) = 0.27935 0.27935
#
# Static dielectric constant tensor:
#      x y z
#    x 1.815200 0.000000 0.000000 
#    y 0.000000 1.815200 0.000000 
#    z 0.000000 0.000000 1.769860 
# 
# From -- ./inp_files/8851.got.cif
#   From: 2010.05.17/outbox.cif.g08.bks.cpg/sg178_5_cif.got.tgz:8851.got - 2010.05.20 11:30:59.
