data_PCOD9582115
_publ_section_title
;
Structure prediction by ZEFSAII (Michael W. Deem and Ramdas Pophale) SiO2 
 PCOD9582115
Probable space group: P 63/M
;
_chemical_formula_sum "Si O2"
_cell_formula_units_Z 72
_cell_length_a 15.941803
_cell_length_b 15.941803
_cell_length_c 17.800654
_cell_angle_alpha 90.000000
_cell_angle_beta 90.000000
_cell_angle_gamma 120.000000
_cell_volume 3917.792825
_symmetry_space_group_name_H-M "P 63/M"
_symmetry_group_IT_number 176
_symmetry_cell_setting 'hexagonal'
loop_
_space_group_symop_operation_xyz
x,y,z
x-y,x,1/2+z
-y,x-y,z
-x,-y,1/2+z
-x+y,-x,z
y,-x+y,1/2+z
-x,-y,-z
-x+y,-x,1/2-z
y,-x+y,-z
x,y,1/2-z
x-y,x,-z
-y,x-y,1/2-z
loop_
_atom_site_type_symbol
_atom_site_label
_atom_site_fract_x
_atom_site_fract_y
_atom_site_fract_z
Si Si1 0.731640 0.455972 0.340982
Si Si2 0.339451 0.864015 0.337696
Si Si3 0.223714 0.271959 0.423969
Si Si4 0.729909 0.756746 0.092076
Si Si5 0.678055 0.828365 0.662704
Si Si6 0.142463 0.672309 0.337492
O O1 0.617250 0.388931 0.362197
O O2 0.733051 0.461019 0.250000
O O3 0.790702 0.566383 0.367427
O O4 0.339823 0.892168 0.250000
O O5 0.307757 0.923820 0.390680
O O6 0.256030 0.751763 0.343249
O O7 0.442763 0.876234 0.355197
O O8 0.240074 0.265950 0.511946
O O9 0.113909 0.246159 0.407193
O O10 0.257364 0.205037 0.382336
O O11 0.292046 0.379023 0.391207
O O12 0.784247 0.727442 0.152976
O O13 0.673983 0.802191 0.750000
O O14 0.114706 0.673662 0.250000
#
# Coordination Sequence:
#
# PCOD9582115 Si02
#       6
#    12  12  12  12  12  12
#     4   7  14  32  58  91 126 155 189 236 294 362
#     4   9  18  34  59  89 120 155 196 242 293 359
#     4  11  23  41  60  81 118 159 201 253 311 368
#     4  11  23  41  60  81 118 159 201 253 311 368
#     4  11  22  38  65  91 116 155 204 258 307 362
#     4   9  18  34  59  89 120 155 196 242 293 359
#
# _framework density 18.377694999999999
#
# number of rings (size 3 to 8) (size 9 to 14) (size 15 to 20)
#    0.333    2.000    1.667    1.333    0.000    5.333 
#    1.000    4.167    0.000    0.000    0.000    0.000 
#    0.000    0.000    0.000    0.000    0.000    0.000 
#
# Total GULP energy -401258.835230 kJ/mol
# GULP energy per Si atom -5573.039378 kJ/mol
# Density = 1.833587 g / cm^3
# Si number density = 18.377695 Si / 1000 Ang^3
#
#
#
# Elastic Constant Matrix: (Units=GPa)
#
#
# Indices 1 2 3 4 5 6 
#
# 1 78.0448 57.9585 14.2130 0.0000 0.0000 0.0000
# 2 57.9585 78.0448 14.2130 0.0000 0.0000 0.0000
# 3 14.2130 14.2130 23.2399 0.0000 0.0000 0.0000
# 4 0.0000 0.0000 0.0000 345.0232 0.0000 0.0000
# 5 0.0000 0.0000 0.0000 0.0000 345.0233 0.0000
# 6 0.0000 0.0000 0.0000 0.0000 0.0000 10.0432
#
#
#
# Elastic Compliance Matrix: (Units=1/GPa)
#
#
# Indices 1 2 3 4 5 6 
#
# 1 0.029108 -0.020677 -0.005156 0.000000 0.000000 0.000000
# 2 -0.020677 0.029108 -0.005156 0.000000 0.000000 0.000000
# 3 -0.005156 -0.005156 0.049336 0.000000 0.000000 0.000000
# 4 0.000000 0.000000 0.000000 0.002898 0.000000 0.000000
# 5 0.000000 0.000000 0.000000 0.000000 0.002898 0.000000
# 6 0.000000 0.000000 0.000000 0.000000 0.000000 0.099570
#
#
# Mechanical properties :
#
#
# Convention : Reuss Voigt Hill
#
# Bulk Modulus (GPa) = 21.94270 39.12206 30.53238
# Shear Modulus (GPa) = 17.23617 146.21427 81.72522
#
# Velocity S-wave (km/s) = 3.06581 8.92936 6.67580
# Velocity P-wave (km/s) = 4.94955 11.29802 8.72191
#
# Compressibility (1/GPa) = 0.04557324
#
# Stress axis : x y z
#
# Youngs Moduli (GPa) = 34.35510 34.35510 20.26922
#
# Poissons Ratio (x) = 0.71037 0.10451
# Poissons Ratio (y) = 0.71037 0.10451
# Poissons Ratio (z) = 0.17713 0.17713
#
# Static dielectric constant tensor:
#      x y z
#    x 1.630480 0.000000 0.000000 
#    y 0.000000 1.630480 0.000000 
#    z 0.000000 0.000000 1.628830 
# 
# From -- ./inp_files/3373.got.cif
#   From: 2010.05.17/outbox.cif.g08.bks.cpg/sg176_2_cif.got.tgz:3373.got - 2010.06.03 11:36:45.
