data_PCOD9582210
_publ_section_title
;
Structure prediction by ZEFSAII (Michael W. Deem and Ramdas Pophale) SiO2 
 PCOD9582210
Probable space group: P 6 2 2
;
_chemical_formula_sum "Si O2"
_cell_formula_units_Z 52
_cell_length_a 12.037805
_cell_length_b 12.037805
_cell_length_c 19.898168
_cell_angle_alpha 90.000000
_cell_angle_beta 90.000000
_cell_angle_gamma 120.000000
_cell_volume 2497.113789
_symmetry_space_group_name_H-M "P 6 2 2"
_symmetry_group_IT_number 177
_symmetry_cell_setting 'hexagonal'
loop_
_space_group_symop_operation_xyz
x,y,z
x-y,x,z
-y,x-y,z
-x,-y,z
-x+y,-x,z
y,-x+y,z
x-y,-y,-z
-x,-x+y,-z
y,x,-z
-y,-x,-z
-x+y,y,-z
x,x-y,-z
loop_
_atom_site_type_symbol
_atom_site_label
_atom_site_fract_x
_atom_site_fract_y
_atom_site_fract_z
Si Si1 0.005095 0.265026 0.572621
Si Si2 0.690049 0.859450 0.779207
Si Si3 0.306576 0.157236 0.071920
Si Si4 0.468968 0.368733 0.324881
Si Si5 0.333333 0.666667 0.416455
O O1 0.127478 0.248830 0.576815
O O2 0.000000 0.319568 0.500000
O O3 0.999523 0.347198 0.631729
O O4 0.771625 0.786111 0.771470
O O5 0.630832 0.824974 0.854555
O O6 0.577958 0.828110 0.725933
O O7 0.215606 0.219391 0.071669
O O8 0.379338 0.189669 0.000000
O O9 0.500000 0.500000 0.287498
O O10 0.564630 0.366141 0.381232
O O11 0.333334 0.666667 0.500000
#
# Coordination Sequence:
#
# PCOD9582210 Si02
#       5
#    12  12  12  12   4
#     4  10  21  36  59  84 113 143 181 236 299 362
#     4  10  19  34  57  87 122 157 191 236 291 357
#     4   8  13  22  42  77 118 155 185 217 266 331
#     4  12  26  42  59  83 110 148 199 246 301 349
#     4  12  30  45  66  84 106 143 193 246 303 354
#
# _framework density 20.824041000000001
#
# number of rings (size 3 to 8) (size 9 to 14) (size 15 to 20)
#    0.000    1.846    0.000    4.846    6.462    3.692 
#    0.000    2.308    0.000    0.000    0.000   27.462 
#    0.000    0.000    0.000    0.000    0.000    0.000 
#
# Total GULP energy -289672.604126 kJ/mol
# GULP energy per Si atom -5570.627002 kJ/mol
# Density = 2.077664 g / cm^3
# Si number density = 20.824041 Si / 1000 Ang^3
#
#
#
# Elastic Constant Matrix: (Units=GPa)
#
#
# Indices 1 2 3 4 5 6 
#
# 1 41.0343 7.9786 38.5729 0.0000 0.0000 0.0001
# 2 7.9786 41.0344 38.5730 0.0000 0.0000 0.0000
# 3 38.5729 38.5730 142.4490 0.0000 0.0000 0.0001
# 4 0.0000 0.0000 0.0000 16.0884 0.0000 0.0000
# 5 0.0000 0.0000 0.0000 0.0000 16.0883 0.0000
# 6 0.0001 0.0000 0.0001 0.0000 0.0000 16.5280
#
#
#
# Elastic Compliance Matrix: (Units=1/GPa)
#
#
# Indices 1 2 3 4 5 6 
#
# 1 0.032905 0.002653 -0.009629 0.000000 0.000000 0.000000
# 2 0.002653 0.032905 -0.009629 0.000000 0.000000 0.000000
# 3 -0.009629 -0.009629 0.012235 0.000000 0.000000 0.000000
# 4 0.000000 0.000000 0.000000 0.062157 0.000000 0.000000
# 5 0.000000 0.000000 0.000000 0.000000 0.062157 0.000000
# 6 0.000000 0.000000 0.000000 0.000000 0.000000 0.060504
#
#
# Mechanical properties :
#
#
# Convention : Reuss Voigt Hill
#
# Bulk Modulus (GPa) = 22.30332 43.86297 33.08314
# Shear Modulus (GPa) = 16.07639 19.03382 17.55510
#
# Velocity S-wave (km/s) = 2.78152 3.02657 2.90663
# Velocity P-wave (km/s) = 4.58797 5.77260 5.21404
#
# Compressibility (1/GPa) = 0.04483638
#
# Stress axis : x y z
#
# Youngs Moduli (GPa) = 30.39054 30.39062 81.73557
#
# Poissons Ratio (x) = -0.08063 0.78700
# Poissons Ratio (y) = -0.08063 0.78699
# Poissons Ratio (z) = 0.29262 0.29262
#
# Static dielectric constant tensor:
#      x y z
#    x 1.768230 0.000000 0.000000 
#    y 0.000000 1.768230 0.000000 
#    z 0.000000 0.000000 1.842890 
# 
# From -- ./inp_files/2994.got.cif
#   From: 2010.05.17/outbox.cif.g08.bks.cpg/sg177_2_cif.got.tgz:2994.got - 2010.05.20 11:28:44.
