data_PCOD9582682
_publ_section_title
;
Structure prediction by ZEFSAII (Michael W. Deem and Ramdas Pophale) SiO2 
 PCOD9582682
Probable space group: P 61 2 2
;
_chemical_formula_sum "Si O2"
_cell_formula_units_Z 42
_cell_length_a 20.430986
_cell_length_b 20.430986
_cell_length_c 5.475528
_cell_angle_alpha 90.000000
_cell_angle_beta 90.000000
_cell_angle_gamma 120.000000
_cell_volume 1979.407850
_symmetry_space_group_name_H-M "P 61 2 2"
_symmetry_group_IT_number 178
_symmetry_cell_setting 'hexagonal'
loop_
_space_group_symop_operation_xyz
x,y,z
x-y,x,1/6+z
-y,x-y,1/3+z
-x,-y,1/2+z
-x+y,-x,2/3+z
y,-x+y,5/6+z
x-y,-y,-z
-x,-x+y,2/3-z
y,x,1/3-z
-y,-x,5/6-z
-x+y,y,1/2-z
x,x-y,1/6-z
loop_
_atom_site_type_symbol
_atom_site_label
_atom_site_fract_x
_atom_site_fract_y
_atom_site_fract_z
Si Si1 0.852093 0.000000 0.000000
Si Si2 0.256098 0.296465 0.420174
Si Si3 0.817460 0.336397 0.142375
Si Si4 0.300072 0.840994 0.690290
O O1 0.861057 0.930529 0.083334
O O2 0.818213 0.033191 0.203267
O O3 0.302386 0.302386 0.666667
O O4 0.247444 0.369909 0.429810
O O5 0.293382 0.293382 0.166667
O O6 0.788295 0.394148 0.083334
O O7 0.751005 0.249632 0.166701
O O8 0.857929 0.352132 0.404994
O O9 0.865775 0.339841 0.905723
#
# Coordination Sequence:
#
# PCOD9582682 Si02
#       4
#     6  12  12  12
#     4  10  26  46  70 108 152 184 232 296 368 420
#     4  10  23  43  72 105 132 183 249 291 339 423
#     4  10  21  37  60  99 136 175 228 285 353 417
#     4  10  21  38  65  93 141 183 228 291 349 416
#
# _framework density 21.218465999999999
#
# number of rings (size 3 to 8) (size 9 to 14) (size 15 to 20)
#    0.857    1.143    0.000    2.571    4.000    3.429 
#   23.143    0.000    0.000   17.143    0.000    0.000 
#    0.000    0.000    0.000    0.000    0.000    0.000 
#
# Total GULP energy -233848.550514 kJ/mol
# GULP energy per Si atom -5567.822631 kJ/mol
# Density = 2.117017 g / cm^3
# Si number density = 21.218466 Si / 1000 Ang^3
#
#
#
# Elastic Constant Matrix: (Units=GPa)
#
#
# Indices 1 2 3 4 5 6 
#
# 1 -66.5961 257.5522 38.1338 0.0000 0.0000 0.0000
# 2 257.5522 -66.5961 38.1338 0.0000 0.0000 0.0000
# 3 38.1338 38.1338 220.7155 0.0000 0.0000 0.0000
# 4 0.0000 0.0000 0.0000 11.3247 0.0000 0.0000
# 5 0.0000 0.0000 0.0000 0.0000 11.3247 0.0000
# 6 0.0000 0.0000 0.0000 0.0000 0.0000 -162.0742
#
#
#
# Elastic Compliance Matrix: (Units=1/GPa)
#
#
# Indices 1 2 3 4 5 6 
#
# 1 0.001270 0.004355 -0.000972 0.000000 0.000000 0.000000
# 2 0.004355 0.001270 -0.000972 0.000000 0.000000 0.000000
# 3 -0.000972 -0.000972 0.004867 0.000000 0.000000 0.000000
# 4 0.000000 0.000000 0.000000 0.088302 0.000000 0.000000
# 5 0.000000 0.000000 0.000000 0.000000 0.088302 0.000000
# 6 0.000000 0.000000 0.000000 0.000000 0.000000 -0.006170
#
#
# Mechanical properties :
#
#
# Convention : Reuss Voigt Hill
#
# Bulk Modulus (GPa) = 81.77231 83.90698 82.83965
# Shear Modulus (GPa) = 28.23346 -44.30470 -8.03562
#
# Velocity S-wave (km/s) = 3.65171 -4.57445 -1.94816
# Velocity P-wave (km/s) = 7.51012 3.42482 5.83658
#
# Compressibility (1/GPa) = 0.01222908
#
# Stress axis : x y z
#
# Youngs Moduli (GPa) = 787.41709 787.41709 205.48493
#
# Poissons Ratio (x) = -3.42919 0.19970
# Poissons Ratio (y) = -3.42919 0.19970
# Poissons Ratio (z) = 0.76525 0.76525
#
# Static dielectric constant tensor:
#      x y z
#    x 1.731450 0.000000 0.000000 
#    y 0.000000 1.731450 0.000000 
#    z 0.000000 0.000000 1.848650 
# 
# From -- ./inp_files/699.got.cif
#   From: 2010.05.17/outbox.cif.g08.bks.cpg/sg178_1_cif.got.tgz:699.got - 2010.05.20 11:30:59.
