data_PCOD9582219
_publ_section_title
;
Structure prediction by ZEFSAII (Michael W. Deem and Ramdas Pophale) SiO2 
 PCOD9582219
Probable space group: P 6 2 2
;
_chemical_formula_sum "Si O2"
_cell_formula_units_Z 76
_cell_length_a 17.851503
_cell_length_b 17.851503
_cell_length_c 14.298658
_cell_angle_alpha 90.000000
_cell_angle_beta 90.000000
_cell_angle_gamma 120.000000
_cell_volume 3946.167222
_symmetry_space_group_name_H-M "P 6 2 2"
_symmetry_group_IT_number 177
_symmetry_cell_setting 'hexagonal'
loop_
_space_group_symop_operation_xyz
x,y,z
x-y,x,z
-y,x-y,z
-x,-y,z
-x+y,-x,z
y,-x+y,z
x-y,-y,-z
-x,-x+y,-z
y,x,-z
-y,-x,-z
-x+y,y,-z
x,x-y,-z
loop_
_atom_site_type_symbol
_atom_site_label
_atom_site_fract_x
_atom_site_fract_y
_atom_site_fract_z
Si Si1 0.123088 0.922992 0.154304
Si Si2 0.036098 0.601482 0.207206
Si Si3 0.471114 0.223406 0.161075
Si Si4 0.668645 0.846481 0.677257
Si Si5 0.718526 0.074382 0.076047
Si Si6 0.982506 0.655621 0.604121
Si Si7 0.333333 0.666667 0.884849
O O1 0.139503 0.890457 0.253431
O O2 0.185913 0.910570 0.084911
O O3 0.022323 0.867724 0.142277
O O4 0.127682 0.666551 0.157160
O O5 0.037487 0.619778 0.317840
O O6 0.000000 0.500000 0.187943
O O7 0.970926 0.631307 0.167166
O O8 0.415510 0.213863 0.254570
O O9 0.433595 0.261310 0.082091
O O10 0.571235 0.290219 0.156994
O O11 0.671568 0.771252 0.616357
O O12 0.670399 0.927248 0.626927
O O13 0.665502 0.000000 0.000000
O O14 0.000000 0.635132 0.500000
O O15 0.333334 0.666667 0.000000
#
# Coordination Sequence:
#
# PCOD9582219 Si02
#       7
#    12  12  12  12  12  12   4
#     4  11  20  36  59  86 124 166 212 255 305 368
#     4  11  23  41  64  90 125 163 210 264 323 385
#     4  10  23  41  62  90 125 170 204 257 329 391
#     4  10  19  38  61  89 124 167 211 256 326 380
#     4  11  23  40  65  89 123 163 212 261 314 384
#     4  11  21  37  63  94 126 163 211 265 321 389
#     4  12  27  42  63  96 133 158 214 267 318 399
#
# _framework density 19.259194000000001
#
# number of rings (size 3 to 8) (size 9 to 14) (size 15 to 20)
#    0.000    1.263    4.737    3.474    2.211    2.526 
#    0.000    0.000    0.000    0.947    0.000    2.211 
#    0.000    0.000    0.000    0.000    0.000    0.000 
#
# Total GULP energy -423404.901481 kJ/mol
# GULP energy per Si atom -5571.117125 kJ/mol
# Density = 1.921536 g / cm^3
# Si number density = 19.259194 Si / 1000 Ang^3
#
#
#
# Elastic Constant Matrix: (Units=GPa)
#
#
# Indices 1 2 3 4 5 6 
#
# 1 116.9153 41.0852 21.2321 0.0000 0.0000 0.0001
# 2 41.0852 116.9151 21.2320 0.0000 0.0001 0.0000
# 3 21.2321 21.2320 68.5714 0.0000 0.0000 0.0000
# 4 0.0000 0.0000 0.0000 30.9455 -0.0001 0.0000
# 5 0.0000 0.0001 0.0000 -0.0001 30.9453 0.0000
# 6 0.0001 0.0000 0.0000 0.0000 0.0000 37.9150
#
#
#
# Elastic Compliance Matrix: (Units=1/GPa)
#
#
# Indices 1 2 3 4 5 6 
#
# 1 0.010045 -0.003142 -0.002138 0.000000 0.000000 0.000000
# 2 -0.003142 0.010046 -0.002138 0.000000 0.000000 0.000000
# 3 -0.002138 -0.002138 0.015907 0.000000 0.000000 0.000000
# 4 0.000000 0.000000 0.000000 0.032315 0.000000 0.000000
# 5 0.000000 0.000000 0.000000 0.000000 0.032315 0.000000
# 6 0.000000 0.000000 0.000000 0.000000 0.000000 0.026375
#
#
# Mechanical properties :
#
#
# Convention : Reuss Voigt Hill
#
# Bulk Modulus (GPa) = 47.25023 52.16671 49.70847
# Shear Modulus (GPa) = 33.58147 34.55132 34.06639
#
# Velocity S-wave (km/s) = 4.18024 4.24018 4.21032
# Velocity P-wave (km/s) = 6.92000 7.14966 7.03577
#
# Compressibility (1/GPa) = 0.02116392
#
# Stress axis : x y z
#
# Youngs Moduli (GPa) = 99.54720 99.54703 62.86507
#
# Poissons Ratio (x) = 0.31277 0.13438
# Poissons Ratio (y) = 0.31277 0.13438
# Poissons Ratio (z) = 0.21279 0.21279
#
# Static dielectric constant tensor:
#      x y z
#    x 1.689270 0.000000 0.000000 
#    y 0.000000 1.689270 0.000000 
#    z 0.000000 0.000000 1.756690 
# 
# From -- ./inp_files/2571.got.cif
#   From: 2010.05.17/outbox.cif.g08.bks.cpg/sg177_2_cif.got.tgz:2571.got - 2010.05.20 11:28:44.
