data_PCOD9582055
_publ_section_title
;
Structure prediction by ZEFSAII (Michael W. Deem and Ramdas Pophale) SiO2 
 PCOD9582055
Probable space group: P 63/M
;
_chemical_formula_sum "Si O2"
_cell_formula_units_Z 72
_cell_length_a 12.949685
_cell_length_b 12.949685
_cell_length_c 19.232915
_cell_angle_alpha 90.000000
_cell_angle_beta 90.000000
_cell_angle_gamma 120.000000
_cell_volume 2793.149315
_symmetry_space_group_name_H-M "P 63/M"
_symmetry_group_IT_number 176
_symmetry_cell_setting 'hexagonal'
loop_
_space_group_symop_operation_xyz
x,y,z
x-y,x,1/2+z
-y,x-y,z
-x,-y,1/2+z
-x+y,-x,z
y,-x+y,1/2+z
-x,-y,-z
-x+y,-x,1/2-z
y,-x+y,-z
x,y,1/2-z
x-y,x,-z
-y,x-y,1/2-z
loop_
_atom_site_type_symbol
_atom_site_label
_atom_site_fract_x
_atom_site_fract_y
_atom_site_fract_z
Si Si1 0.442449 0.508297 0.325137
Si Si2 0.342715 0.871424 0.531370
Si Si3 0.578502 0.766843 0.377688
Si Si4 0.974504 0.189067 0.166387
Si Si5 0.141735 0.657187 0.608073
Si Si6 0.029142 0.205914 0.550025
O O1 0.391894 0.459483 0.250000
O O2 0.512987 0.651894 0.327755
O O3 0.327056 0.470924 0.370974
O O4 0.541846 0.470110 0.340904
O O5 0.293410 0.839463 0.453639
O O6 0.273736 0.755916 0.583460
O O7 0.479862 0.904325 0.538620
O O8 0.290540 0.953971 0.557741
O O9 0.717393 0.828407 0.355127
O O10 0.962920 0.170425 0.250000
O O11 0.910573 0.261730 0.137133
O O12 0.905851 0.070273 0.119134
O O13 0.123866 0.215340 0.491311
#
# Coordination Sequence:
#
# PCOD9582055 Si02
#       6
#    12  12  12  12  12  12
#     4  11  23  39  61  94 133 178 216 270 339 411
#     4  11  23  39  66  99 129 181 224 282 330 412
#     4  11  21  36  62  91 136 170 225 274 341 404
#     4  10  22  44  69  97 138 181 227 289 353 416
#     4  10  23  40  63  96 140 175 228 270 335 401
#     4  11  24  45  70 101 133 177 238 301 355 407
#
# _framework density 25.777353000000002
#
# number of rings (size 3 to 8) (size 9 to 14) (size 15 to 20)
#    0.000    1.333    1.667    4.833    2.333    3.333 
#    0.000    9.167    0.000    0.000    0.000    0.000 
#    0.000    0.000    0.000    0.000    0.000    0.000 
#
# Total GULP energy -401438.786093 kJ/mol
# GULP energy per Si atom -5575.538696 kJ/mol
# Density = 2.571868 g / cm^3
# Si number density = 25.777353 Si / 1000 Ang^3
#
#
#
# Elastic Constant Matrix: (Units=GPa)
#
#
# Indices 1 2 3 4 5 6 
#
# 1 89.1088 21.9221 41.7089 0.0000 0.0000 0.0000
# 2 21.9221 89.1088 41.7089 0.0000 0.0000 0.0000
# 3 41.7089 41.7089 128.1044 0.0000 0.0000 0.0000
# 4 0.0000 0.0000 0.0000 22.9032 0.0000 0.0000
# 5 0.0000 0.0000 0.0000 0.0000 22.9032 0.0000
# 6 0.0000 0.0000 0.0000 0.0000 0.0000 33.5933
#
#
#
# Elastic Compliance Matrix: (Units=1/GPa)
#
#
# Indices 1 2 3 4 5 6 
#
# 1 0.013403 -0.001480 -0.003882 0.000000 0.000000 0.000000
# 2 -0.001480 0.013403 -0.003882 0.000000 0.000000 0.000000
# 3 -0.003882 -0.003882 0.010334 0.000000 0.000000 0.000000
# 4 0.000000 0.000000 0.000000 0.043662 0.000000 0.000000
# 5 0.000000 0.000000 0.000000 0.000000 0.043662 0.000000
# 6 0.000000 0.000000 0.000000 0.000000 0.000000 0.029768
#
#
# Mechanical properties :
#
#
# Convention : Reuss Voigt Hill
#
# Bulk Modulus (GPa) = 53.61306 57.44463 55.52885
# Shear Modulus (GPa) = 27.94251 29.27876 28.61063
#
# Velocity S-wave (km/s) = 3.29598 3.37387 3.33515
# Velocity P-wave (km/s) = 5.94376 6.12459 6.03485
#
# Compressibility (1/GPa) = 0.01865217
#
# Stress axis : x y z
#
# Youngs Moduli (GPa) = 74.60753 74.60753 96.76834
#
# Poissons Ratio (x) = 0.11045 0.37565
# Poissons Ratio (y) = 0.11045 0.37565
# Poissons Ratio (z) = 0.28962 0.28962
#
# Static dielectric constant tensor:
#      x y z
#    x 2.113940 0.000000 0.000000 
#    y 0.000000 2.113940 0.000000 
#    z 0.000000 0.000000 2.067860 
# 
# From -- ./inp_files/3389.got.cif
#   From: 2010.05.17/outbox.cif.g08.bks.cpg/sg176_2_cif.got.tgz:3389.got - 2010.06.03 11:36:45.
