data_PCOD9582193
_publ_section_title
;
Structure prediction by ZEFSAII (Michael W. Deem and Ramdas Pophale) SiO2 
 PCOD9582193
Probable space group: P 6 2 2
;
_chemical_formula_sum "Si O2"
_cell_formula_units_Z 69
_cell_length_a 11.035769
_cell_length_b 11.035769
_cell_length_c 31.674676
_cell_angle_alpha 90.000000
_cell_angle_beta 90.000000
_cell_angle_gamma 120.000000
_cell_volume 3340.781065
_symmetry_space_group_name_H-M "P 6 2 2"
_symmetry_group_IT_number 177
_symmetry_cell_setting 'hexagonal'
loop_
_space_group_symop_operation_xyz
x,y,z
x-y,x,z
-y,x-y,z
-x,-y,z
-x+y,-x,z
y,-x+y,z
x-y,-y,-z
-x,-x+y,-z
y,x,-z
-y,-x,-z
-x+y,y,-z
x,x-y,-z
loop_
_atom_site_type_symbol
_atom_site_label
_atom_site_fract_x
_atom_site_fract_y
_atom_site_fract_z
Si Si1 0.667931 0.881231 0.818066
Si Si2 0.168538 0.337075 0.000000
Si Si3 0.312705 0.812746 0.266452
Si Si4 0.513316 0.342337 0.424611
Si Si5 0.500000 0.500000 0.500000
Si Si6 0.665490 0.856354 0.909884
Si Si7 0.249803 0.314718 0.652969
O O1 0.741054 0.785868 0.814835
O O2 0.562445 0.853812 0.780083
O O3 0.594386 0.839694 0.864367
O O4 0.239330 0.239330 0.000000
O O5 0.192331 0.414542 0.045158
O O6 0.194676 0.648581 0.271671
O O7 0.298364 0.904661 0.302394
O O8 0.532621 0.207317 0.422858
O O9 0.464081 0.370724 0.469003
O O10 0.422608 0.332042 0.384642
O O11 0.751852 0.774258 0.909889
O O12 0.269285 0.181874 0.649735
#
# Coordination Sequence:
#
# PCOD9582193 Si02
#       7
#    12   6  12  12   3  12  12
#     4  10  19  32  52  79 111 145 181 227 285 354
#     4   8  11  16  28  52  90 132 172 212 259 326
#     4  10  24  42  58  84 108 146 193 245 294 344
#     4  10  23  40  64 101 132 175 214 257 306 352
#     4  12  20  40  68 100 150 160 218 268 312 342
#     4   8  13  20  34  60  95 135 174 214 268 332
#     4  12  25  43  66  94 127 163 200 249 308 374
#
# _framework density 20.653852000000001
#
# number of rings (size 3 to 8) (size 9 to 14) (size 15 to 20)
#    0.696    1.391    0.000    4.261    0.000    6.957 
#    0.000    1.739    0.000    0.000    0.000    2.435 
#    0.000    6.957    0.000    0.000    0.000    0.000 
#
# Total GULP energy -384449.186875 kJ/mol
# GULP energy per Si atom -5571.727346 kJ/mol
# Density = 2.060684 g / cm^3
# Si number density = 20.653852 Si / 1000 Ang^3
#
#
#
# Elastic Constant Matrix: (Units=GPa)
#
#
# Indices 1 2 3 4 5 6 
#
# 1 54.5412 31.2523 50.1880 0.0000 0.0000 0.0000
# 2 31.2523 54.5412 50.1880 0.0000 0.0000 0.0000
# 3 50.1880 50.1880 202.5346 0.0000 0.0000 0.0000
# 4 0.0000 0.0000 0.0000 24.0048 0.0000 0.0000
# 5 0.0000 0.0000 0.0000 0.0000 24.0048 0.0000
# 6 0.0000 0.0000 0.0000 0.0000 0.0000 11.6445
#
#
#
# Elastic Compliance Matrix: (Units=1/GPa)
#
#
# Indices 1 2 3 4 5 6 
#
# 1 0.029677 -0.013262 -0.004068 0.000000 0.000000 0.000000
# 2 -0.013262 0.029677 -0.004068 0.000000 0.000000 0.000000
# 3 -0.004068 -0.004068 0.006953 0.000000 0.000000 0.000000
# 4 0.000000 0.000000 0.000000 0.041658 0.000000 0.000000
# 5 0.000000 0.000000 0.000000 0.000000 0.041658 0.000000
# 6 0.000000 0.000000 0.000000 0.000000 0.000000 0.085878
#
#
# Mechanical properties :
#
#
# Convention : Reuss Voigt Hill
#
# Bulk Modulus (GPa) = 42.53026 63.87484 53.20255
# Shear Modulus (GPa) = 17.47435 23.93005 20.70220
#
# Velocity S-wave (km/s) = 2.91186 3.40755 3.16941
# Velocity P-wave (km/s) = 5.65172 6.81728 6.26168
#
# Compressibility (1/GPa) = 0.02351267
#
# Stress axis : x y z
#
# Youngs Moduli (GPa) = 33.69627 33.69627 143.81609
#
# Poissons Ratio (x) = 0.44688 0.58499
# Poissons Ratio (y) = 0.44688 0.58499
# Poissons Ratio (z) = 0.13706 0.13706
#
# Static dielectric constant tensor:
#      x y z
#    x 1.739910 0.000000 0.000000 
#    y 0.000000 1.739910 0.000000 
#    z 0.000000 0.000000 1.789480 
# 
# From -- ./inp_files/3302.got.cif
#   From: 2010.05.17/outbox.cif.g08.bks.cpg/sg177_2_cif.got.tgz:3302.got - 2010.05.20 11:28:44.
