data_PCOD9582715
_publ_section_title
;
Structure prediction by ZEFSAII (Michael W. Deem and Ramdas Pophale) SiO2 
 PCOD9582715
Probable space group: P 61 2 2
;
_chemical_formula_sum "Si O2"
_cell_formula_units_Z 72
_cell_length_a 14.769507
_cell_length_b 14.769507
_cell_length_c 18.599888
_cell_angle_alpha 90.000000
_cell_angle_beta 90.000000
_cell_angle_gamma 120.000000
_cell_volume 3513.766992
_symmetry_space_group_name_H-M "P 61 2 2"
_symmetry_group_IT_number 178
_symmetry_cell_setting 'hexagonal'
loop_
_space_group_symop_operation_xyz
x,y,z
x-y,x,1/6+z
-y,x-y,1/3+z
-x,-y,1/2+z
-x+y,-x,2/3+z
y,-x+y,5/6+z
x-y,-y,-z
-x,-x+y,2/3-z
y,x,1/3-z
-y,-x,5/6-z
-x+y,y,1/2-z
x,x-y,1/6-z
loop_
_atom_site_type_symbol
_atom_site_label
_atom_site_fract_x
_atom_site_fract_y
_atom_site_fract_z
Si Si1 0.882118 0.745764 0.548976
Si Si2 0.809307 0.117079 0.775570
Si Si3 0.973409 0.026592 0.416667
Si Si4 0.539581 0.338246 0.482334
Si Si5 0.368066 0.123730 0.010972
Si Si6 0.330620 0.330620 0.666667
Si Si7 0.565778 0.156668 0.529592
O O1 0.813924 0.700512 0.477499
O O2 0.883007 0.849203 0.577316
O O3 0.836175 0.659810 0.611382
O O4 0.004419 0.788515 0.532569
O O5 0.719809 0.134548 0.809427
O O6 0.917524 0.221117 0.796690
O O7 0.000000 0.003091 0.333334
O O8 0.585456 0.414545 0.416667
O O9 0.565914 0.245047 0.479581
O O10 0.592578 0.398512 0.555310
O O11 0.361843 0.180922 0.083334
O O12 0.480304 0.130594 0.001935
O O13 0.289026 0.000000 0.000000
O O14 0.370135 0.442171 0.705747
#
# Coordination Sequence:
#
# PCOD9582715 Si02
#       7
#    12  12   6  12  12   6  12
#     4  12  25  40  61  99 136 189 237 293 364 448
#     4  11  24  39  65  96 137 176 236 293 365 450
#     4  12  26  44  66  94 144 196 256 302 362 452
#     4  10  21  40  68  94 128 166 215 296 366 431
#     4  12  26  43  68  96 139 188 243 299 360 451
#     4  10  22  42  66  94 130 176 232 294 364 430
#     4  10  21  43  68  95 124 175 231 284 366 434
#
# _framework density 20.490829000000002
#
# number of rings (size 3 to 8) (size 9 to 14) (size 15 to 20)
#    0.000    1.000    2.500    4.000    3.500    2.000 
#    0.000    0.000    7.333    0.000    0.000    0.000 
#    0.000    0.000    0.000    0.000    0.000    0.000 
#
# Total GULP energy -400931.245369 kJ/mol
# GULP energy per Si atom -5568.489519 kJ/mol
# Density = 2.044419 g / cm^3
# Si number density = 20.490829 Si / 1000 Ang^3
#
#
#
# Elastic Constant Matrix: (Units=GPa)
#
#
# Indices 1 2 3 4 5 6 
#
# 1 87.6711 41.9737 25.2623 0.0000 0.0000 0.0000
# 2 41.9737 87.6711 25.2623 0.0000 0.0000 0.0000
# 3 25.2623 25.2623 83.9407 0.0000 0.0000 0.0000
# 4 0.0000 0.0000 0.0000 28.8883 0.0000 0.0000
# 5 0.0000 0.0000 0.0000 0.0000 28.8883 0.0000
# 6 0.0000 0.0000 0.0000 0.0000 0.0000 22.8487
#
#
#
# Elastic Compliance Matrix: (Units=1/GPa)
#
#
# Indices 1 2 3 4 5 6 
#
# 1 0.015311 -0.006572 -0.002630 0.000000 0.000000 0.000000
# 2 -0.006572 0.015311 -0.002630 0.000000 0.000000 0.000000
# 3 -0.002630 -0.002630 0.013496 0.000000 0.000000 0.000000
# 4 0.000000 0.000000 0.000000 0.034616 0.000000 0.000000
# 5 0.000000 0.000000 0.000000 0.000000 0.034616 0.000000
# 6 0.000000 0.000000 0.000000 0.000000 0.000000 0.043766
#
#
# Mechanical properties :
#
#
# Convention : Reuss Voigt Hill
#
# Bulk Modulus (GPa) = 48.89177 49.36439 49.12808
# Shear Modulus (GPa) = 26.65279 27.24404 26.94842
#
# Velocity S-wave (km/s) = 3.61046 3.65029 3.63043
# Velocity P-wave (km/s) = 6.42594 6.47375 6.44989
#
# Compressibility (1/GPa) = 0.02045334
#
# Stress axis : x y z
#
# Youngs Moduli (GPa) = 65.31393 65.31393 74.09567
#
# Poissons Ratio (x) = 0.42927 0.19486
# Poissons Ratio (y) = 0.42927 0.19486
# Poissons Ratio (z) = 0.17176 0.17176
#
# Static dielectric constant tensor:
#      x y z
#    x 1.755500 0.000000 0.000000 
#    y 0.000000 1.755500 0.000000 
#    z 0.000000 0.000000 1.755210 
# 
# From -- ./inp_files/6833.got.cif
#   From: 2010.05.17/outbox.cif.g08.bks.cpg/sg178_4_cif.got.tgz:6833.got - 2010.05.20 11:30:59.
