data_PCOD9582642
_publ_section_title
;
Structure prediction by ZEFSAII (Michael W. Deem and Ramdas Pophale) SiO2 
 PCOD9582642
Probable space group: P 61 2 2
;
_chemical_formula_sum "Si O2"
_cell_formula_units_Z 42
_cell_length_a 21.967430
_cell_length_b 21.967430
_cell_length_c 5.098507
_cell_angle_alpha 90.000000
_cell_angle_beta 90.000000
_cell_angle_gamma 120.000000
_cell_volume 2130.748316
_symmetry_space_group_name_H-M "P 61 2 2"
_symmetry_group_IT_number 178
_symmetry_cell_setting 'hexagonal'
loop_
_space_group_symop_operation_xyz
x,y,z
x-y,x,1/6+z
-y,x-y,1/3+z
-x,-y,1/2+z
-x+y,-x,2/3+z
y,-x+y,5/6+z
x-y,-y,-z
-x,-x+y,2/3-z
y,x,1/3-z
-y,-x,5/6-z
-x+y,y,1/2-z
x,x-y,1/6-z
loop_
_atom_site_type_symbol
_atom_site_label
_atom_site_fract_x
_atom_site_fract_y
_atom_site_fract_z
Si Si1 0.253930 0.126965 0.083334
Si Si2 0.747397 0.373699 0.583334
Si Si3 0.289956 0.338704 0.412948
Si Si4 0.528795 0.807629 0.840644
Si Si5 0.080080 0.160159 0.750000
O O1 0.298916 0.091212 0.169193
O O2 0.207377 0.121341 0.334249
O O3 0.692891 0.385783 0.750000
O O4 0.792860 0.343547 0.717889
O O5 0.303986 0.303986 0.666667
O O6 0.307300 0.417399 0.475742
O O7 0.331544 0.331544 0.166667
O O8 0.532773 0.766387 0.583334
O O9 0.548512 0.774256 0.083334
O O10 0.113255 0.113255 0.666667
#
# Coordination Sequence:
#
# PCOD9582642 Si02
#       5
#     6   6  12  12   6
#     4  12  24  43  62  90 114 164 214 268 312 374
#     4  10  20  40  69 102 136 170 224 278 324 374
#     4  12  25  42  64  94 131 172 218 269 331 396
#     4  11  23  41  66 100 135 172 222 274 330 384
#     4  12  26  43  61  84 116 152 202 260 330 396
#
# _framework density 19.711385
#
# number of rings (size 3 to 8) (size 9 to 14) (size 15 to 20)
#    0.000    0.571    2.857    6.857    2.000    1.143 
#    0.000    1.429    0.000    0.000    0.000    0.000 
#    0.000    0.000    0.000    0.000    0.000    0.000 
#
# Total GULP energy -234829.503491 kJ/mol
# GULP energy per Si atom -5591.178655 kJ/mol
# Density = 1.966652 g / cm^3
# Si number density = 19.711385 Si / 1000 Ang^3
#
#
#
# Elastic Constant Matrix: (Units=GPa)
#
#
# Indices 1 2 3 4 5 6 
#
# 1 -38.1708 240.5127 43.0591 0.0000 0.0000 0.0000
# 2 240.5127 -38.1708 43.0591 0.0000 0.0000 0.0000
# 3 43.0591 43.0591 134.4151 0.0000 0.0000 0.0000
# 4 0.0000 0.0000 0.0000 21.9592 0.0000 0.0000
# 5 0.0000 0.0000 0.0000 0.0000 21.9592 0.0000
# 6 0.0000 0.0000 0.0000 0.0000 0.0000 -139.3417
#
#
#
# Elastic Compliance Matrix: (Units=1/GPa)
#
#
# Indices 1 2 3 4 5 6 
#
# 1 0.001067 0.004655 -0.001833 0.000000 0.000000 0.000000
# 2 0.004655 0.001067 -0.001833 0.000000 0.000000 0.000000
# 3 -0.001833 -0.001833 0.008614 0.000000 0.000000 0.000000
# 4 0.000000 0.000000 0.000000 0.045539 0.000000 0.000000
# 5 0.000000 0.000000 0.000000 0.000000 0.045539 0.000000
# 6 0.000000 0.000000 0.000000 0.000000 0.000000 -0.007177
#
#
# Mechanical properties :
#
#
# Convention : Reuss Voigt Hill
#
# Bulk Modulus (GPa) = 78.57755 79.03726 78.80740
# Shear Modulus (GPa) = 51.59244 -36.98848 7.30198
#
# Velocity S-wave (km/s) = 5.12160 -4.33656 1.92678
# Velocity P-wave (km/s) = 8.65592 3.88715 6.70950
#
# Compressibility (1/GPa) = 0.01272628
#
# Stress axis : x y z
#
# Youngs Moduli (GPa) = 937.20152 937.20152 116.08889
#
# Poissons Ratio (x) = -4.36296 0.21280
# Poissons Ratio (y) = -4.36296 0.21280
# Poissons Ratio (z) = 1.71799 1.71799
#
# Static dielectric constant tensor:
#      x y z
#    x 1.770430 0.000000 0.000000 
#    y 0.000000 1.770430 0.000000 
#    z 0.000000 0.000000 1.701080 
# 
# From -- ./inp_files/841.got.cif
#   From: 2010.05.17/outbox.cif.g08.bks.cpg/sg178_1_cif.got.tgz:841.got - 2010.05.20 11:30:59.
