data_PCOD9582431
_publ_section_title
;
Structure prediction by ZEFSAII (Michael W. Deem and Ramdas Pophale) SiO2 
 PCOD9582431
Probable space group: P 61 2 2
;
_chemical_formula_sum "Si O2"
_cell_formula_units_Z 84
_cell_length_a 20.997767
_cell_length_b 20.997767
_cell_length_c 11.580572
_cell_angle_alpha 90.000000
_cell_angle_beta 90.000000
_cell_angle_gamma 120.000000
_cell_volume 4421.879132
_symmetry_space_group_name_H-M "P 61 2 2"
_symmetry_group_IT_number 178
_symmetry_cell_setting 'hexagonal'
loop_
_space_group_symop_operation_xyz
x,y,z
x-y,x,1/6+z
-y,x-y,1/3+z
-x,-y,1/2+z
-x+y,-x,2/3+z
y,-x+y,5/6+z
x-y,-y,-z
-x,-x+y,2/3-z
y,x,1/3-z
-y,-x,5/6-z
-x+y,y,1/2-z
x,x-y,1/6-z
loop_
_atom_site_type_symbol
_atom_site_label
_atom_site_fract_x
_atom_site_fract_y
_atom_site_fract_z
Si Si1 0.370769 0.931292 0.924485
Si Si2 0.295996 0.080477 0.517288
Si Si3 0.705554 0.149065 0.865888
Si Si4 0.284258 0.688541 0.673988
Si Si5 0.898399 0.291389 0.631000
Si Si6 0.446405 0.266807 0.260982
Si Si7 0.537936 0.386967 0.728348
O O1 0.339104 0.948665 0.809155
O O2 0.410077 0.882239 0.905260
O O3 0.301246 0.886954 0.008156
O O4 0.427185 0.000000 0.000000
O O5 0.281757 0.140879 0.583334
O O6 0.363021 0.084225 0.593842
O O7 0.331232 0.094333 0.388381
O O8 0.226343 0.000000 0.500000
O O9 0.775970 0.224031 0.916667
O O10 0.713692 0.156602 0.728562
O O11 0.634781 0.144122 0.929083
O O12 0.336152 0.672304 0.750000
O O13 0.246686 0.623343 0.583334
O O14 0.228026 0.694541 0.757753
O O15 0.335269 0.765730 0.608241
O O16 0.818541 0.235887 0.577557
O O17 0.892593 0.352752 0.705631
#
# Coordination Sequence:
#
# PCOD9582431 Si02
#       7
#    12  12  12  12  12  12  12
#     4  12  27  38  51  83 117 160 199 243 314 383
#     4  10  20  37  67  96 118 148 190 237 291 339
#     4  10  18  37  60  82 105 147 199 250 297 354
#     4  11  22  31  53  78  98 137 189 252 317 359
#     4  10  21  42  61  76 111 157 202 254 297 356
#     4  11  22  38  58  75 110 147 196 248 303 359
#     4  10  21  38  53  72 108 143 196 259 314 363
#
# _framework density 18.996448000000001
#
# number of rings (size 3 to 8) (size 9 to 14) (size 15 to 20)
#    0.000    1.429    5.714    3.429    6.000    2.286 
#    2.571    0.000    0.000    0.000    0.000    0.000 
#    0.000    3.429    0.000    0.000    0.000    0.000 
#
# Total GULP energy -468124.125127 kJ/mol
# GULP energy per Si atom -5572.906252 kJ/mol
# Density = 1.895321 g / cm^3
# Si number density = 18.996448 Si / 1000 Ang^3
#
#
#
# Elastic Constant Matrix: (Units=GPa)
#
#
# Indices 1 2 3 4 5 6 
#
# 1 42.7989 19.4868 17.9984 0.0000 0.0000 0.0000
# 2 19.4868 42.7989 17.9984 0.0000 0.0000 0.0000
# 3 17.9984 17.9984 96.2401 0.0000 0.0000 0.0000
# 4 0.0000 0.0000 0.0000 19.7955 0.0000 0.0000
# 5 0.0000 0.0000 0.0000 0.0000 19.7955 0.0000
# 6 0.0000 0.0000 0.0000 0.0000 0.0000 11.6561
#
#
#
# Elastic Compliance Matrix: (Units=1/GPa)
#
#
# Indices 1 2 3 4 5 6 
#
# 1 0.030448 -0.012448 -0.003366 0.000000 0.000000 0.000000
# 2 -0.012448 0.030448 -0.003366 0.000000 0.000000 0.000000
# 3 -0.003366 -0.003366 0.011650 0.000000 0.000000 0.000000
# 4 0.000000 0.000000 0.000000 0.050517 0.000000 0.000000
# 5 0.000000 0.000000 0.000000 0.000000 0.050517 0.000000
# 6 0.000000 0.000000 0.000000 0.000000 0.000000 0.085792
#
#
# Mechanical properties :
#
#
# Convention : Reuss Voigt Hill
#
# Bulk Modulus (GPa) = 29.25221 32.53388 30.89304
# Shear Modulus (GPa) = 16.17453 18.67303 17.42378
#
# Velocity S-wave (km/s) = 2.92113 3.13864 3.03184
# Velocity P-wave (km/s) = 5.17779 5.50439 5.34358
#
# Compressibility (1/GPa) = 0.03418545
#
# Stress axis : x y z
#
# Youngs Moduli (GPa) = 32.84251 32.84251 85.83835
#
# Poissons Ratio (x) = 0.40882 0.28896
# Poissons Ratio (y) = 0.40882 0.28896
# Poissons Ratio (z) = 0.11056 0.11056
#
# Static dielectric constant tensor:
#      x y z
#    x 1.692700 0.000000 0.000000 
#    y 0.000000 1.692700 0.000000 
#    z 0.000000 0.000000 1.760630 
# 
# From -- ./inp_files/4798.got.cif
#   From: 2010.05.17/outbox.cif.g08.bks.cpg/sg178_3_cif.got.tgz:4798.got - 2010.05.20 11:30:59.
