data_PCOD9582801
_publ_section_title
;
Structure prediction by ZEFSAII (Michael W. Deem and Ramdas Pophale) SiO2 
 PCOD9582801
Probable space group: P 61 2 2
;
_chemical_formula_sum "Si O2"
_cell_formula_units_Z 42
_cell_length_a 7.404791
_cell_length_b 7.404791
_cell_length_c 34.837732
_cell_angle_alpha 90.000000
_cell_angle_beta 90.000000
_cell_angle_gamma 120.000000
_cell_volume 1654.268940
_symmetry_space_group_name_H-M "P 61 2 2"
_symmetry_group_IT_number 178
_symmetry_cell_setting 'hexagonal'
loop_
_space_group_symop_operation_xyz
x,y,z
x-y,x,1/6+z
-y,x-y,1/3+z
-x,-y,1/2+z
-x+y,-x,2/3+z
y,-x+y,5/6+z
x-y,-y,-z
-x,-x+y,2/3-z
y,x,1/3-z
-y,-x,5/6-z
-x+y,y,1/2-z
x,x-y,1/6-z
loop_
_atom_site_type_symbol
_atom_site_label
_atom_site_fract_x
_atom_site_fract_y
_atom_site_fract_z
Si Si1 0.485946 0.034096 0.177808
Si Si2 0.886052 0.815256 0.371389
Si Si3 0.224537 0.000000 0.000000
Si Si4 0.666666 0.519659 0.063366
O O1 0.680785 0.043418 0.199359
O O2 0.295344 0.851498 0.200754
O O3 0.435311 0.222758 0.175864
O O4 0.503475 0.985049 0.133196
O O5 0.931174 0.702056 0.405859
O O6 0.000000 0.796427 0.333334
O O7 0.953847 0.059427 0.368408
O O8 0.594718 0.297359 0.083334
#
# Coordination Sequence:
#
# PCOD9582801 Si02
#       4
#    12  12   6  12
#     4  11  21  44  67 102 141 186 252 302 378 455
#     4   9  21  44  72  98 142 196 241 315 386 447
#     4  10  22  42  72  96 142 190 244 310 376 462
#     4  10  22  44  69 101 146 187 252 312 372 469
#
# _framework density 25.388856000000001
#
# number of rings (size 3 to 8) (size 9 to 14) (size 15 to 20)
#    0.857    1.143    2.857    0.000    0.000    4.571 
#   15.429    2.857    0.000    0.000    0.000    0.000 
#    0.000    0.000    0.000    0.000    0.000    0.000 
#
# Total GULP energy -234349.470957 kJ/mol
# GULP energy per Si atom -5579.749309 kJ/mol
# Density = 2.533107 g / cm^3
# Si number density = 25.388856 Si / 1000 Ang^3
#
#
#
# Elastic Constant Matrix: (Units=GPa)
#
#
# Indices 1 2 3 4 5 6 
#
# 1 113.2079 41.3402 28.7153 0.0000 0.0000 0.0000
# 2 41.3402 113.2079 28.7153 0.0000 0.0000 0.0000
# 3 28.7153 28.7153 133.4334 0.0000 0.0000 0.0000
# 4 0.0000 0.0000 0.0000 48.9774 0.0000 0.0000
# 5 0.0000 0.0000 0.0000 0.0000 48.9774 0.0000
# 6 0.0000 0.0000 0.0000 0.0000 0.0000 35.9338
#
#
#
# Elastic Compliance Matrix: (Units=1/GPa)
#
#
# Indices 1 2 3 4 5 6 
#
# 1 0.010474 -0.003441 -0.001514 0.000000 0.000000 0.000000
# 2 -0.003441 0.010474 -0.001514 0.000000 0.000000 0.000000
# 3 -0.001514 -0.001514 0.008146 0.000000 0.000000 0.000000
# 4 0.000000 0.000000 0.000000 0.020418 0.000000 0.000000
# 5 0.000000 0.000000 0.000000 0.000000 0.020418 0.000000
# 6 0.000000 0.000000 0.000000 0.000000 0.000000 0.027829
#
#
# Mechanical properties :
#
#
# Convention : Reuss Voigt Hill
#
# Bulk Modulus (GPa) = 61.89044 61.93232 61.91138
# Shear Modulus (GPa) = 43.07423 44.18295 43.62859
#
# Velocity S-wave (km/s) = 4.12342 4.17616 4.14987
# Velocity P-wave (km/s) = 6.86295 6.90653 6.88478
#
# Compressibility (1/GPa) = 0.01615759
#
# Stress axis : x y z
#
# Youngs Moduli (GPa) = 95.47740 95.47740 122.76270
#
# Poissons Ratio (x) = 0.32852 0.18580
# Poissons Ratio (y) = 0.32852 0.18580
# Poissons Ratio (z) = 0.14451 0.14451
#
# Static dielectric constant tensor:
#      x y z
#    x 2.063360 0.000000 0.000000 
#    y 0.000000 2.063360 0.000000 
#    z 0.000000 0.000000 2.061990 
# 
# From -- ./inp_files/9255.got.cif
#   From: 2010.05.17/outbox.cif.g08.bks.cpg/sg178_5_cif.got.tgz:9255.got - 2010.05.20 11:30:59.
