data_PCOD9582259
_publ_section_title
;
Structure prediction by ZEFSAII (Michael W. Deem and Ramdas Pophale) SiO2 
 PCOD9582259
Probable space group: P 6 2 2
;
_chemical_formula_sum "Si O2"
_cell_formula_units_Z 69
_cell_length_a 11.380779
_cell_length_b 11.380779
_cell_length_c 30.858366
_cell_angle_alpha 90.000000
_cell_angle_beta 90.000000
_cell_angle_gamma 120.000000
_cell_volume 3461.366112
_symmetry_space_group_name_H-M "P 6 2 2"
_symmetry_group_IT_number 177
_symmetry_cell_setting 'hexagonal'
loop_
_space_group_symop_operation_xyz
x,y,z
x-y,x,z
-y,x-y,z
-x,-y,z
-x+y,-x,z
y,-x+y,z
x-y,-y,-z
-x,-x+y,-z
y,x,-z
-y,-x,-z
-x+y,y,-z
x,x-y,-z
loop_
_atom_site_type_symbol
_atom_site_label
_atom_site_fract_x
_atom_site_fract_y
_atom_site_fract_z
Si Si1 0.676049 0.873757 0.817408
Si Si2 0.246057 0.492114 0.000000
Si Si3 0.301525 0.801594 0.266798
Si Si4 0.515727 0.339858 0.424350
Si Si5 0.500000 0.500000 0.500000
Si Si6 0.679676 0.856620 0.913243
Si Si7 0.237623 0.309949 0.652502
O O1 0.751668 0.785624 0.812947
O O2 0.564658 0.838872 0.780611
O O3 0.612216 0.836933 0.865812
O O4 0.407255 0.592746 0.000000
O O5 0.216403 0.410679 0.955827
O O6 0.282544 0.892851 0.301998
O O7 0.195392 0.639614 0.272654
O O8 0.537876 0.210335 0.422209
O O9 0.467491 0.373088 0.469034
O O10 0.419165 0.322051 0.384805
O O11 0.764628 0.780442 0.914609
O O12 0.261581 0.183326 0.648965
#
# Coordination Sequence:
#
# PCOD9582259 Si02
#       7
#    12   6  12  12   3  12  12
#     4  10  21  38  62  91 122 157 198 250 308 373
#     4  10  24  40  54  80 120 158 200 246 302 374
#     4  10  24  42  60  91 125 162 208 255 310 370
#     4  10  23  40  64 101 132 175 214 261 319 377
#     4  12  20  40  68 100 150 160 218 268 320 374
#     4  10  21  38  62  89 116 151 199 254 310 361
#     4  12  25  43  66  94 128 170 216 271 329 389
#
# _framework density 19.934324
#
# number of rings (size 3 to 8) (size 9 to 14) (size 15 to 20)
#    0.870    0.696    0.000    4.696    0.000    8.348 
#    0.000    6.087    0.000    0.000    0.000    1.217 
#    0.000    0.000    0.000    0.000    0.000    0.000 
#
# Total GULP energy -384902.195189 kJ/mol
# GULP energy per Si atom -5578.292684 kJ/mol
# Density = 1.988895 g / cm^3
# Si number density = 19.934324 Si / 1000 Ang^3
#
#
#
# Elastic Constant Matrix: (Units=GPa)
#
#
# Indices 1 2 3 4 5 6 
#
# 1 81.9893 24.6265 58.3747 0.0000 0.0000 0.0000
# 2 24.6265 81.9893 58.3747 0.0000 0.0000 0.0000
# 3 58.3747 58.3747 175.4438 0.0000 0.0000 0.0000
# 4 0.0000 0.0000 0.0000 36.7767 0.0000 0.0000
# 5 0.0000 0.0000 0.0000 0.0000 36.7767 0.0000
# 6 0.0000 0.0000 0.0000 0.0000 0.0000 28.6814
#
#
#
# Elastic Compliance Matrix: (Units=1/GPa)
#
#
# Indices 1 2 3 4 5 6 
#
# 1 0.016094 -0.001339 -0.004910 0.000000 0.000000 0.000000
# 2 -0.001339 0.016094 -0.004910 0.000000 0.000000 0.000000
# 3 -0.004910 -0.004910 0.008967 0.000000 0.000000 0.000000
# 4 0.000000 0.000000 0.000000 0.027191 0.000000 0.000000
# 5 0.000000 0.000000 0.000000 0.000000 0.027191 0.000000
# 6 0.000000 0.000000 0.000000 0.000000 0.000000 0.034866
#
#
# Mechanical properties :
#
#
# Convention : Reuss Voigt Hill
#
# Bulk Modulus (GPa) = 53.07867 69.13046 61.10457
# Shear Modulus (GPa) = 31.44669 33.65006 32.54837
#
# Velocity S-wave (km/s) = 3.97610 4.11304 4.04515
# Velocity P-wave (km/s) = 6.91113 7.57037 7.24825
#
# Compressibility (1/GPa) = 0.01883996
#
# Stress axis : x y z
#
# Youngs Moduli (GPa) = 62.13371 62.13371 111.52073
#
# Poissons Ratio (x) = 0.08317 0.54752
# Poissons Ratio (y) = 0.08317 0.54752
# Poissons Ratio (z) = 0.30505 0.30505
#
# Static dielectric constant tensor:
#      x y z
#    x 1.707030 0.000000 0.000000 
#    y 0.000000 1.707030 0.000000 
#    z 0.000000 0.000000 1.715030 
# 
# From -- ./inp_files/3303.got.cif
#   From: 2010.05.17/outbox.cif.g08.bks.cpg/sg177_2_cif.got.tgz:3303.got - 2010.05.20 11:28:44.
