data_PCOD9582005
_publ_section_title
;
Structure prediction by ZEFSAII (Michael W. Deem and Ramdas Pophale) SiO2 
 PCOD9582005
Probable space group: P 63/M
;
_chemical_formula_sum "Si O2"
_cell_formula_units_Z 76
_cell_length_a 17.867607
_cell_length_b 17.867607
_cell_length_c 13.687525
_cell_angle_alpha 90.000000
_cell_angle_beta 90.000000
_cell_angle_gamma 120.000000
_cell_volume 3784.324246
_symmetry_space_group_name_H-M "P 63/M"
_symmetry_group_IT_number 176
_symmetry_cell_setting 'hexagonal'
loop_
_space_group_symop_operation_xyz
x,y,z
x-y,x,1/2+z
-y,x-y,z
-x,-y,1/2+z
-x+y,-x,z
y,-x+y,1/2+z
-x,-y,-z
-x+y,-x,1/2-z
y,-x+y,-z
x,y,1/2-z
x-y,x,-z
-y,x-y,1/2-z
loop_
_atom_site_type_symbol
_atom_site_label
_atom_site_fract_x
_atom_site_fract_y
_atom_site_fract_z
Si Si1 0.996202 0.568425 0.925370
Si Si2 0.635744 0.142088 0.750000
Si Si3 0.166623 0.696562 0.250000
Si Si4 0.181776 0.683635 0.862125
Si Si5 0.701430 0.666793 0.905038
Si Si6 0.148240 0.340662 0.859057
Si Si7 0.333334 0.666668 0.630366
Si Si8 0.067601 0.873447 0.001395
O O1 0.917166 0.532550 0.848709
O O2 0.084134 0.609421 0.864209
O O3 0.000000 0.500000 0.000000
O O4 0.011566 0.649256 0.992812
O O5 0.562949 0.171327 0.750000
O O6 0.735838 0.220434 0.750000
O O7 0.108031 0.695749 0.342605
O O8 0.210183 0.706545 0.750000
O O9 0.197816 0.772913 0.908206
O O10 0.242249 0.650854 0.906432
O O11 0.656930 0.716920 0.856105
O O12 0.801102 0.740397 0.922571
O O13 0.175629 0.334722 0.750000
O O14 0.133032 0.256875 0.915023
O O15 0.333334 0.666668 0.750000
O O16 0.972732 0.850204 0.966208
#
# Coordination Sequence:
#
# PCOD9582005 Si02
#       8
#    12   6   6  12  12  12   4  12
#     4  12  25  44  71 100 134 184 242 290 351 425
#     4  12  29  48  75 104 146 196 242 308 366 443
#     4  12  27  50  69 102 146 190 242 296 370 435
#     4  10  21  39  62  94 129 167 217 276 338 402
#     4  11  24  44  69  99 133 183 237 291 351 422
#     4  10  21  39  66  95 127 170 226 287 340 412
#     4   9  21  36  57  90 126 163 200 271 348 390
#     4  10  22  41  65  96 137 175 224 282 356 420
#
# _framework density 20.082844999999999
#
# number of rings (size 3 to 8) (size 9 to 14) (size 15 to 20)
#    0.000    1.263    4.737    0.316    6.632    0.000 
#    1.421    0.000    0.000    0.000    0.000    0.000 
#    0.000    0.000    0.000    0.000    0.000    0.000 
#
# Total GULP energy -423461.953951 kJ/mol
# GULP energy per Si atom -5571.867815 kJ/mol
# Density = 2.003714 g / cm^3
# Si number density = 20.082845 Si / 1000 Ang^3
#
#
#
# Elastic Constant Matrix: (Units=GPa)
#
#
# Indices 1 2 3 4 5 6 
#
# 1 124.5086 63.6724 27.9773 0.0000 0.0000 -0.0005
# 2 63.6724 124.5131 27.9778 0.0000 0.0000 0.0002
# 3 27.9773 27.9778 65.3123 0.0000 0.0000 -0.0001
# 4 0.0000 0.0000 0.0000 19.1320 -0.0001 0.0000
# 5 0.0000 0.0000 0.0000 -0.0001 19.1322 0.0000
# 6 -0.0005 0.0002 -0.0001 0.0000 0.0000 30.4195
#
#
#
# Elastic Compliance Matrix: (Units=1/GPa)
#
#
# Indices 1 2 3 4 5 6 
#
# 1 0.011263 -0.005174 -0.002609 0.000000 0.000000 0.000000
# 2 -0.005174 0.011263 -0.002609 0.000000 0.000000 0.000000
# 3 -0.002609 -0.002609 0.017546 0.000000 0.000000 0.000000
# 4 0.000000 0.000000 0.000000 0.052269 0.000000 0.000000
# 5 0.000000 0.000000 0.000000 0.000000 0.052268 0.000000
# 6 0.000000 0.000000 0.000000 0.000000 0.000000 0.032874
#
#
# Mechanical properties :
#
#
# Convention : Reuss Voigt Hill
#
# Bulk Modulus (GPa) = 51.83817 61.50990 56.67403
# Shear Modulus (GPa) = 24.42664 26.71717 25.57191
#
# Velocity S-wave (km/s) = 3.49132 3.65135 3.57223
# Velocity P-wave (km/s) = 6.49004 6.96212 6.73022
#
# Compressibility (1/GPa) = 0.01929081
#
# Stress axis : x y z
#
# Youngs Moduli (GPa) = 88.78239 88.78556 56.99329
#
# Poissons Ratio (x) = 0.45935 0.14867
# Poissons Ratio (y) = 0.45933 0.14867
# Poissons Ratio (z) = 0.23160 0.23160
#
# Static dielectric constant tensor:
#      x y z
#    x 1.743880 0.000000 0.000000 
#    y 0.000000 1.743880 0.000000 
#    z 0.000000 0.000000 1.768830 
# 
# From -- ./inp_files/2905.got.cif
#   From: 2010.05.17/outbox.cif.g08.bks.cpg/sg176_2_cif.got.tgz:2905.got - 2010.06.03 11:36:45.
