data_PCOD9582205
_publ_section_title
;
Structure prediction by ZEFSAII (Michael W. Deem and Ramdas Pophale) SiO2 
 PCOD9582205
Probable space group: P 6 2 2
;
_chemical_formula_sum "Si O2"
_cell_formula_units_Z 84
_cell_length_a 18.933221
_cell_length_b 18.933221
_cell_length_c 14.492522
_cell_angle_alpha 90.000000
_cell_angle_beta 90.000000
_cell_angle_gamma 120.000000
_cell_volume 4499.078891
_symmetry_space_group_name_H-M "P 6 2 2"
_symmetry_group_IT_number 177
_symmetry_cell_setting 'hexagonal'
loop_
_space_group_symop_operation_xyz
x,y,z
x-y,x,z
-y,x-y,z
-x,-y,z
-x+y,-x,z
y,-x+y,z
x-y,-y,-z
-x,-x+y,-z
y,x,-z
-y,-x,-z
-x+y,y,-z
x,x-y,-z
loop_
_atom_site_type_symbol
_atom_site_label
_atom_site_fract_x
_atom_site_fract_y
_atom_site_fract_z
Si Si1 0.277554 0.522497 0.897307
Si Si2 0.353379 0.258757 0.515500
Si Si3 0.086230 0.896742 0.890277
Si Si4 0.831744 0.192115 0.191600
Si Si5 0.869209 0.317001 0.668810
Si Si6 0.057053 0.402782 0.712837
Si Si7 0.582642 0.403462 0.779211
O O1 0.211307 0.427771 0.887655
O O2 0.249489 0.566169 0.820020
O O3 0.365544 0.538570 0.864781
O O4 0.275634 0.551268 0.000000
O O5 0.282213 0.282213 0.500000
O O6 0.326576 0.163288 0.500000
O O7 0.423021 0.302504 0.437620
O O8 0.391537 0.301480 0.613497
O O9 0.120715 0.846802 0.837741
O O10 0.991918 0.858122 0.867346
O O11 0.102634 0.897367 0.000000
O O12 0.768610 0.168743 0.276671
O O13 0.917690 0.270072 0.218653
O O14 0.817312 0.360798 0.693400
O O15 0.961768 0.371413 0.705711
O O16 0.106573 0.494374 0.751263
#
# Coordination Sequence:
#
# PCOD9582205 Si02
#       7
#    12  12  12  12  12  12  12
#     4  10  20  35  56  79 105 146 187 226 284 336
#     4  10  20  37  61  86 117 151 189 231 275 336
#     4  10  20  34  52  75 105 140 178 222 273 328
#     4  10  19  33  55  79 109 140 182 229 271 329
#     4  10  20  35  57  83 112 148 185 228 280 332
#     4  10  20  35  57  83 112 148 185 228 280 332
#     4  10  21  35  55  79 110 143 187 234 276 331
#
# _framework density 18.670489
#
# number of rings (size 3 to 8) (size 9 to 14) (size 15 to 20)
#    0.000    2.000    1.429    2.571    0.000    1.143 
#    0.000    2.143    0.000   32.714    0.000    0.000 
#    0.000    0.000    0.000    0.000    0.000    0.000 
#
# Total GULP energy -467625.537724 kJ/mol
# GULP energy per Si atom -5566.970687 kJ/mol
# Density = 1.862799 g / cm^3
# Si number density = 18.670489 Si / 1000 Ang^3
#
#
#
# Elastic Constant Matrix: (Units=GPa)
#
#
# Indices 1 2 3 4 5 6 
#
# 1 77.7517 37.0935 34.3041 0.0000 0.0000 0.0000
# 2 37.0935 77.7517 34.3041 0.0000 0.0000 0.0000
# 3 34.3041 34.3041 59.8582 0.0000 0.0000 0.0000
# 4 0.0000 0.0000 0.0000 17.3698 0.0000 0.0000
# 5 0.0000 0.0000 0.0000 0.0000 17.3698 0.0000
# 6 0.0000 0.0000 0.0000 0.0000 0.0000 20.3291
#
#
#
# Elastic Compliance Matrix: (Units=1/GPa)
#
#
# Indices 1 2 3 4 5 6 
#
# 1 0.018918 -0.005677 -0.007588 0.000000 0.000000 0.000000
# 2 -0.005677 0.018918 -0.007588 0.000000 0.000000 0.000000
# 3 -0.007588 -0.007588 0.025403 0.000000 0.000000 0.000000
# 4 0.000000 0.000000 0.000000 0.057571 0.000000 0.000000
# 5 0.000000 0.000000 0.000000 0.000000 0.057571 0.000000
# 6 0.000000 0.000000 0.000000 0.000000 0.000000 0.049191
#
#
# Mechanical properties :
#
#
# Convention : Reuss Voigt Hill
#
# Bulk Modulus (GPa) = 46.44176 47.41831 46.93004
# Shear Modulus (GPa) = 18.08609 18.32442 18.20526
#
# Velocity S-wave (km/s) = 3.11577 3.13623 3.12602
# Velocity P-wave (km/s) = 6.15406 6.21025 6.18222
#
# Compressibility (1/GPa) = 0.02153234
#
# Stress axis : x y z
#
# Youngs Moduli (GPa) = 52.86021 52.86021 39.36503
#
# Poissons Ratio (x) = 0.30011 0.29870
# Poissons Ratio (y) = 0.30011 0.29870
# Poissons Ratio (z) = 0.40110 0.40110
#
# Static dielectric constant tensor:
#      x y z
#    x 1.665330 0.000000 0.000000 
#    y 0.000000 1.665330 0.000000 
#    z 0.000000 0.000000 1.669870 
# 
# From -- ./inp_files/2639.got.cif
#   From: 2010.05.17/outbox.cif.g08.bks.cpg/sg177_2_cif.got.tgz:2639.got - 2010.05.20 11:28:44.
