data_PCOD9582110
_publ_section_title
;
Structure prediction by ZEFSAII (Michael W. Deem and Ramdas Pophale) SiO2 
 PCOD9582110
Probable space group: P 63/M
;
_chemical_formula_sum "Si O2"
_cell_formula_units_Z 52
_cell_length_a 11.457813
_cell_length_b 11.457813
_cell_length_c 29.325200
_cell_angle_alpha 90.000000
_cell_angle_beta 90.000000
_cell_angle_gamma 120.000000
_cell_volume 3334.072768
_symmetry_space_group_name_H-M "P 63/M"
_symmetry_group_IT_number 176
_symmetry_cell_setting 'hexagonal'
loop_
_space_group_symop_operation_xyz
x,y,z
x-y,x,1/2+z
-y,x-y,z
-x,-y,1/2+z
-x+y,-x,z
y,-x+y,1/2+z
-x,-y,-z
-x+y,-x,1/2-z
y,-x+y,-z
x,y,1/2-z
x-y,x,-z
-y,x-y,1/2-z
loop_
_atom_site_type_symbol
_atom_site_label
_atom_site_fract_x
_atom_site_fract_y
_atom_site_fract_z
Si Si1 0.704592 0.852296 0.101895
Si Si2 0.058138 0.392750 0.550475
Si Si3 0.334612 0.392750 0.949525
Si Si4 0.000000 0.000000 0.555219
Si Si5 0.088845 0.911156 0.198944
O O1 0.637907 0.699778 0.084873
O O2 0.726954 0.863476 0.155863
O O3 0.850082 0.925041 0.076035
O O4 0.637907 0.938130 0.084873
O O5 0.093530 0.546765 0.552915
O O6 0.189963 0.379926 0.558562
O O7 1.000000 0.338975 0.500000
O O8 0.000000 0.000000 0.500000
O O9 0.117831 0.882171 0.250000
O O10 0.927574 0.855147 0.195317
#
# Coordination Sequence:
#
# PCOD9582110 Si02
#       5
#    12  12  12   4  12
#     4  12  18  32  52  76  98 130 165 213 254 304
#     4  11  22  34  48  70 102 138 172 207 250 305
#     4  11  22  34  48  70 102 138 172 207 250 305
#     4  12  18  24  52  80 100 117 159 213 244 296
#     4   8  14  26  46  78 106 120 147 204 264 301
#
# _framework density 15.596541
#
# number of rings (size 3 to 8) (size 9 to 14) (size 15 to 20)
#    0.462    0.923    6.923    1.846    0.000    0.000 
#    1.385    0.000    0.000    1.385    0.000    0.000 
#    0.000    3.692    0.000    0.000    0.000    0.000 
#
# Total GULP energy -289822.157581 kJ/mol
# GULP energy per Si atom -5573.503030 kJ/mol
# Density = 1.556104 g / cm^3
# Si number density = 15.596541 Si / 1000 Ang^3
#
#
#
# Elastic Constant Matrix: (Units=GPa)
#
#
# Indices 1 2 3 4 5 6 
#
# 1 48.3835 24.2093 17.1658 0.0000 0.0000 0.0000
# 2 24.2093 48.3835 17.1658 0.0000 0.0000 0.0000
# 3 17.1658 17.1658 138.1168 0.0000 0.0000 0.0000
# 4 0.0000 0.0000 0.0000 6.9861 0.0000 0.0000
# 5 0.0000 0.0000 0.0000 0.0000 6.9861 0.0000
# 6 0.0000 0.0000 0.0000 0.0000 0.0000 12.0871
#
#
#
# Elastic Compliance Matrix: (Units=1/GPa)
#
#
# Indices 1 2 3 4 5 6 
#
# 1 0.028001 -0.013365 -0.001819 0.000000 0.000000 0.000000
# 2 -0.013365 0.028001 -0.001819 0.000000 0.000000 0.000000
# 3 -0.001819 -0.001819 0.007692 0.000000 0.000000 0.000000
# 4 0.000000 0.000000 0.000000 0.143140 0.000000 0.000000
# 5 0.000000 0.000000 0.000000 0.000000 0.143140 0.000000
# 6 0.000000 0.000000 0.000000 0.000000 0.000000 0.082733
#
#
# Mechanical properties :
#
#
# Convention : Reuss Voigt Hill
#
# Bulk Modulus (GPa) = 33.68379 39.10731 36.39555
# Shear Modulus (GPa) = 10.49075 16.96808 13.72941
#
# Velocity S-wave (km/s) = 2.59633 3.30197 2.97018
# Velocity P-wave (km/s) = 5.53460 6.29810 5.92865
#
# Compressibility (1/GPa) = 0.02968787
#
# Stress axis : x y z
#
# Youngs Moduli (GPa) = 35.71296 35.71296 129.99852
#
# Poissons Ratio (x) = 0.47731 0.23647
# Poissons Ratio (y) = 0.47731 0.23647
# Poissons Ratio (z) = 0.06496 0.06496
#
# Static dielectric constant tensor:
#      x y z
#    x 1.528330 0.000000 0.000000 
#    y 0.000000 1.528330 0.000000 
#    z 0.000000 0.000000 1.506730 
# 
# From -- ./inp_files/4444.got.cif
#   From: 2010.05.17/outbox.cif.g08.bks.cpg/sg176_3_cif.got.tgz:4444.got - 2010.06.03 11:36:45.
