data_PCOD9582593
_publ_section_title
;
Structure prediction by ZEFSAII (Michael W. Deem and Ramdas Pophale) SiO2 
 PCOD9582593
Probable space group: P 61 2 2
;
_chemical_formula_sum "Si O2"
_cell_formula_units_Z 36
_cell_length_a 17.006727
_cell_length_b 17.006727
_cell_length_c 7.447487
_cell_angle_alpha 90.000000
_cell_angle_beta 90.000000
_cell_angle_gamma 120.000000
_cell_volume 1865.442496
_symmetry_space_group_name_H-M "P 61 2 2"
_symmetry_group_IT_number 178
_symmetry_cell_setting 'hexagonal'
loop_
_space_group_symop_operation_xyz
x,y,z
x-y,x,1/6+z
-y,x-y,1/3+z
-x,-y,1/2+z
-x+y,-x,2/3+z
y,-x+y,5/6+z
x-y,-y,-z
-x,-x+y,2/3-z
y,x,1/3-z
-y,-x,5/6-z
-x+y,y,1/2-z
x,x-y,1/6-z
loop_
_atom_site_type_symbol
_atom_site_label
_atom_site_fract_x
_atom_site_fract_y
_atom_site_fract_z
Si Si1 0.593194 0.796597 0.083334
Si Si2 0.083677 0.467447 0.968515
Si Si3 0.289261 0.015078 0.797471
Si Si4 0.000000 0.833033 0.333334
O O1 0.538698 0.702595 0.196000
O O2 0.653114 0.882118 0.218186
O O3 0.114952 0.557476 0.083334
O O4 0.035951 0.381873 0.102897
O O5 0.000000 0.446723 0.833334
O O6 0.206218 0.966900 0.659207
O O7 0.255607 0.000000 0.000000
O O8 0.923458 0.846916 0.250000
#
# Coordination Sequence:
#
# PCOD9582593 Si02
#       4
#     6  12  12   6
#     4  10  20  40  62 102 134 164 230 276 318 410
#     4  10  20  37  63 105 133 169 223 278 325 397
#     4  11  21  40  69  96 128 176 223 277 322 390
#     4  12  24  44  56  90 136 170 224 268 328 400
#
# _framework density 19.298370999999999
#
# number of rings (size 3 to 8) (size 9 to 14) (size 15 to 20)
#    0.000    1.333    6.667    1.000    0.000    5.333 
#    3.000    0.000    0.000    0.000  195.000    0.000 
#    0.000    0.000    0.000    0.000    0.000    0.000 
#
# Total GULP energy -200735.088476 kJ/mol
# GULP energy per Si atom -5575.974680 kJ/mol
# Density = 1.925445 g / cm^3
# Si number density = 19.298371 Si / 1000 Ang^3
#
#
#
# Elastic Constant Matrix: (Units=GPa)
#
#
# Indices 1 2 3 4 5 6 
#
# 1 133.7069 58.7405 59.3218 0.0000 0.0000 0.0000
# 2 58.7405 133.7069 59.3218 0.0000 0.0000 0.0000
# 3 59.3218 59.3218 168.1125 0.0000 0.0000 0.0000
# 4 0.0000 0.0000 0.0000 28.7839 0.0000 0.0000
# 5 0.0000 0.0000 0.0000 0.0000 28.7839 0.0000
# 6 0.0000 0.0000 0.0000 0.0000 0.0000 37.4832
#
#
#
# Elastic Compliance Matrix: (Units=1/GPa)
#
#
# Indices 1 2 3 4 5 6 
#
# 1 0.009990 -0.003349 -0.002343 0.000000 0.000000 0.000000
# 2 -0.003349 0.009990 -0.002343 0.000000 0.000000 0.000000
# 3 -0.002343 -0.002343 0.007602 0.000000 0.000000 0.000000
# 4 0.000000 0.000000 0.000000 0.034742 0.000000 0.000000
# 5 0.000000 0.000000 0.000000 0.000000 0.034742 0.000000
# 6 0.000000 0.000000 0.000000 0.000000 0.000000 0.026679
#
#
# Mechanical properties :
#
#
# Convention : Reuss Voigt Hill
#
# Bulk Modulus (GPa) = 86.87694 87.81047 87.34371
# Shear Modulus (GPa) = 34.80608 36.21969 35.51288
#
# Velocity S-wave (km/s) = 4.25146 4.33693 4.29441
# Velocity P-wave (km/s) = 8.31958 8.40708 8.36344
#
# Compressibility (1/GPa) = 0.01151053
#
# Stress axis : x y z
#
# Youngs Moduli (GPa) = 100.09899 100.09899 131.54075
#
# Poissons Ratio (x) = 0.33525 0.30825
# Poissons Ratio (y) = 0.33525 0.30825
# Poissons Ratio (z) = 0.23457 0.23457
#
# Static dielectric constant tensor:
#      x y z
#    x 1.977170 0.000000 0.000000 
#    y 0.000000 1.977170 0.000000 
#    z 0.000000 0.000000 1.678860 
# 
# From -- ./inp_files/2316.got.cif
#   From: 2010.05.17/outbox.cif.g08.bks.cpg/sg178_2_cif.got.tgz:2316.got - 2010.05.20 11:30:59.
