data_PCOD9582829
_publ_section_title
;
Structure prediction by ZEFSAII (Michael W. Deem and Ramdas Pophale) SiO2 
 PCOD9582829
Probable space group: P 61 2 2
;
_chemical_formula_sum "Si O2"
_cell_formula_units_Z 48
_cell_length_a 14.164144
_cell_length_b 14.164144
_cell_length_c 13.753560
_cell_angle_alpha 90.000000
_cell_angle_beta 90.000000
_cell_angle_gamma 120.000000
_cell_volume 2389.606687
_symmetry_space_group_name_H-M "P 61 2 2"
_symmetry_group_IT_number 178
_symmetry_cell_setting 'hexagonal'
loop_
_space_group_symop_operation_xyz
x,y,z
x-y,x,1/6+z
-y,x-y,1/3+z
-x,-y,1/2+z
-x+y,-x,2/3+z
y,-x+y,5/6+z
x-y,-y,-z
-x,-x+y,2/3-z
y,x,1/3-z
-y,-x,5/6-z
-x+y,y,1/2-z
x,x-y,1/6-z
loop_
_atom_site_type_symbol
_atom_site_label
_atom_site_fract_x
_atom_site_fract_y
_atom_site_fract_z
Si Si1 0.649417 0.692871 0.267303
Si Si2 0.518870 0.956461 0.647540
Si Si3 0.577807 0.862782 0.244320
Si Si4 0.702336 0.404671 0.250000
Si Si5 0.527403 0.263702 0.083334
O O1 0.712773 0.712773 0.166667
O O2 0.538476 0.576253 0.257778
O O3 0.612449 0.780333 0.286533
O O4 0.715521 0.676251 0.352514
O O5 0.456781 0.913562 0.750000
O O6 0.540567 0.864856 0.604650
O O7 0.622916 0.072575 0.674315
O O8 0.485652 0.795144 0.161290
O O9 0.604208 0.327759 0.176591
#
# Coordination Sequence:
#
# PCOD9582829 Si02
#       5
#    12  12  12   6   6
#     4  11  20  39  61  94 126 177 223 277 333 402
#     4  10  23  37  60  94 142 171 227 273 345 416
#     4  11  23  39  61  98 130 176 230 281 334 417
#     4  12  24  38  73  94 149 178 236 284 342 430
#     4  12  22  42  63 104 135 194 224 294 354 420
#
# _framework density 20.086987000000001
#
# number of rings (size 3 to 8) (size 9 to 14) (size 15 to 20)
#    0.000    1.000    6.250    0.000    5.250    0.000 
#    9.000    0.000    0.000    0.000   13.000    0.000 
#    0.000    0.000    0.000    0.000    0.000    0.000 
#
# Total GULP energy -267752.018667 kJ/mol
# GULP energy per Si atom -5578.167056 kJ/mol
# Density = 2.004127 g / cm^3
# Si number density = 20.086987 Si / 1000 Ang^3
#
#
#
# Elastic Constant Matrix: (Units=GPa)
#
#
# Indices 1 2 3 4 5 6 
#
# 1 84.3186 82.7463 37.7105 0.0000 0.0000 0.0000
# 2 82.7463 84.3186 37.7105 0.0000 0.0000 0.0000
# 3 37.7105 37.7105 58.1733 0.0000 0.0000 0.0000
# 4 0.0000 0.0000 0.0000 29.4008 0.0000 0.0000
# 5 0.0000 0.0000 0.0000 0.0000 29.4008 0.0000
# 6 0.0000 0.0000 0.0000 0.0000 0.0000 0.7861
#
#
#
# Elastic Compliance Matrix: (Units=1/GPa)
#
#
# Indices 1 2 3 4 5 6 
#
# 1 0.322249 -0.313787 -0.005486 0.000000 0.000000 0.000000
# 2 -0.313787 0.322249 -0.005486 0.000000 0.000000 0.000000
# 3 -0.005486 -0.005486 0.024302 0.000000 0.000000 0.000000
# 4 0.000000 0.000000 0.000000 0.034013 0.000000 0.000000
# 5 0.000000 0.000000 0.000000 0.000000 0.034013 0.000000
# 6 0.000000 0.000000 0.000000 0.000000 0.000000 1.272074
#
#
# Mechanical properties :
#
#
# Convention : Reuss Voigt Hill
#
# Bulk Modulus (GPa) = 51.85619 60.34945 56.10282
# Shear Modulus (GPa) = 1.87628 16.49377 9.18502
#
# Velocity S-wave (km/s) = 0.96753 2.86862 2.14069
# Velocity P-wave (km/s) = 5.20769 6.40947 5.83957
#
# Compressibility (1/GPa) = 0.01928410
#
# Stress axis : x y z
#
# Youngs Moduli (GPa) = 3.10319 3.10319 41.14899
#
# Poissons Ratio (x) = 0.97374 0.22572
# Poissons Ratio (y) = 0.97374 0.22572
# Poissons Ratio (z) = 0.01702 0.01702
#
# Static dielectric constant tensor:
#      x y z
#    x 1.738930 0.000000 0.000000 
#    y 0.000000 1.738930 0.000000 
#    z 0.000000 0.000000 3.850620 
# 
# From -- ./inp_files/5515.got.cif
#   From: 2010.05.17/outbox.cif.g08.bks.cpg/sg178_3_cif.got.tgz:5515.got - 2010.05.20 11:30:59.
