data_PCOD9582261
_publ_section_title
;
Structure prediction by ZEFSAII (Michael W. Deem and Ramdas Pophale) SiO2 
 PCOD9582261
Probable space group: P 6 2 2
;
_chemical_formula_sum "Si O2"
_cell_formula_units_Z 72
_cell_length_a 14.099264
_cell_length_b 14.099264
_cell_length_c 18.004003
_cell_angle_alpha 90.000000
_cell_angle_beta 90.000000
_cell_angle_gamma 120.000000
_cell_volume 3099.506799
_symmetry_space_group_name_H-M "P 6 2 2"
_symmetry_group_IT_number 177
_symmetry_cell_setting 'hexagonal'
loop_
_space_group_symop_operation_xyz
x,y,z
x-y,x,z
-y,x-y,z
-x,-y,z
-x+y,-x,z
y,-x+y,z
x-y,-y,-z
-x,-x+y,-z
y,x,-z
-y,-x,-z
-x+y,y,-z
x,x-y,-z
loop_
_atom_site_type_symbol
_atom_site_label
_atom_site_fract_x
_atom_site_fract_y
_atom_site_fract_z
Si Si1 0.872107 0.455160 0.914919
Si Si2 0.937407 0.180332 0.590328
Si Si3 0.399548 0.524436 0.320213
Si Si4 0.245657 0.172692 0.230590
Si Si5 0.525393 0.762294 0.821227
Si Si6 0.259558 0.781504 0.419156
O O1 0.847378 0.548797 0.888091
O O2 0.799296 0.352796 0.860649
O O3 0.000000 0.500000 0.905413
O O4 0.842238 0.421119 0.000000
O O5 0.933946 0.180182 0.680326
O O6 0.893739 0.260298 0.566294
O O7 0.057623 0.209737 0.568457
O O8 0.500000 0.500000 0.308329
O O9 0.324948 0.509902 0.247527
O O10 0.305066 0.450308 0.379505
O O11 0.451109 0.642841 0.361186
O O12 0.159404 0.208601 0.206353
O O13 0.370157 0.244534 0.204808
O O14 0.263221 0.736780 0.500000
#
# Coordination Sequence:
#
# PCOD9582261 Si02
#       6
#    12  12  12  12  12  12
#     4  11  25  44  68 104 147 185 224 272 334 407
#     4  10  21  39  64  95 130 168 214 270 338 407
#     4  12  27  45  70  98 134 176 229 294 352 402
#     4  10  21  38  65  98 135 170 214 271 335 401
#     4  12  23  42  71 100 134 179 231 281 333 404
#     4  12  26  45  66  93 131 179 233 284 346 422
#
# _framework density 23.229503999999999
#
# number of rings (size 3 to 8) (size 9 to 14) (size 15 to 20)
#    0.000    0.833    1.667    5.500    2.333    4.667 
#    0.000    0.000    0.000    1.000    0.000    0.000 
#    0.000    8.000    0.000    0.000    0.000    0.000 
#
# Total GULP energy -402439.525239 kJ/mol
# GULP energy per Si atom -5589.437851 kJ/mol
# Density = 2.317663 g / cm^3
# Si number density = 23.229504 Si / 1000 Ang^3
#
#
#
# Elastic Constant Matrix: (Units=GPa)
#
#
# Indices 1 2 3 4 5 6 
#
# 1 100.6695 29.1647 43.6343 0.0000 0.0000 0.0000
# 2 29.1647 100.6695 43.6343 0.0000 0.0000 0.0000
# 3 43.6343 43.6343 126.6464 0.0000 0.0000 0.0000
# 4 0.0000 0.0000 0.0000 27.7449 0.0000 0.0000
# 5 0.0000 0.0000 0.0000 0.0000 27.7449 0.0000
# 6 0.0000 0.0000 0.0000 0.0000 0.0000 35.7524
#
#
#
# Elastic Compliance Matrix: (Units=1/GPa)
#
#
# Indices 1 2 3 4 5 6 
#
# 1 0.012004 -0.001981 -0.003453 0.000000 0.000000 0.000000
# 2 -0.001981 0.012004 -0.003453 0.000000 0.000000 0.000000
# 3 -0.003453 -0.003453 0.010276 0.000000 0.000000 0.000000
# 4 0.000000 0.000000 0.000000 0.036043 0.000000 0.000000
# 5 0.000000 0.000000 0.000000 0.000000 0.036043 0.000000
# 6 0.000000 0.000000 0.000000 0.000000 0.000000 0.027970
#
#
# Mechanical properties :
#
#
# Convention : Reuss Voigt Hill
#
# Bulk Modulus (GPa) = 60.57403 62.31687 61.44545
# Shear Modulus (GPa) = 31.72231 32.35192 32.03711
#
# Velocity S-wave (km/s) = 3.69942 3.73595 3.71773
# Velocity P-wave (km/s) = 6.66187 6.74497 6.70355
#
# Compressibility (1/GPa) = 0.01650872
#
# Stress axis : x y z
#
# Youngs Moduli (GPa) = 83.30405 83.30405 97.31750
#
# Poissons Ratio (x) = 0.16501 0.33608
# Poissons Ratio (y) = 0.16501 0.33608
# Poissons Ratio (z) = 0.28768 0.28768
#
# Static dielectric constant tensor:
#      x y z
#    x 1.918100 0.000000 0.000000 
#    y 0.000000 1.918100 0.000000 
#    z 0.000000 0.000000 1.904860 
# 
# From -- ./inp_files/2830.got.cif
#   From: 2010.05.17/outbox.cif.g08.bks.cpg/sg177_2_cif.got.tgz:2830.got - 2010.05.20 11:28:44.
