data_PCOD9582307
_publ_section_title
;
Structure prediction by ZEFSAII (Michael W. Deem and Ramdas Pophale) SiO2 
 PCOD9582307
Probable space group: P 6 2 2
;
_chemical_formula_sum "Si O2"
_cell_formula_units_Z 70
_cell_length_a 14.706012
_cell_length_b 14.706012
_cell_length_c 16.714091
_cell_angle_alpha 90.000000
_cell_angle_beta 90.000000
_cell_angle_gamma 120.000000
_cell_volume 3130.424444
_symmetry_space_group_name_H-M "P 6 2 2"
_symmetry_group_IT_number 177
_symmetry_cell_setting 'hexagonal'
loop_
_space_group_symop_operation_xyz
x,y,z
x-y,x,z
-y,x-y,z
-x,-y,z
-x+y,-x,z
y,-x+y,z
x-y,-y,-z
-x,-x+y,-z
y,x,-z
-y,-x,-z
-x+y,y,-z
x,x-y,-z
loop_
_atom_site_type_symbol
_atom_site_label
_atom_site_fract_x
_atom_site_fract_y
_atom_site_fract_z
Si Si1 0.540866 0.826918 0.801879
Si Si2 0.000000 0.500000 0.855480
Si Si3 0.550862 0.734689 0.631743
Si Si4 0.943288 0.768837 0.237723
Si Si5 0.498507 0.321414 0.944357
Si Si6 0.666668 0.333334 0.407509
Si Si7 0.038504 0.736333 0.587441
O O1 0.493338 0.904228 0.804348
O O2 0.547441 0.772265 0.721091
O O3 0.663855 0.910847 0.811112
O O4 0.486526 0.735096 0.866678
O O5 0.940486 0.544028 0.911711
O O6 0.430093 0.653059 0.617247
O O7 0.596777 0.844464 0.581093
O O8 0.625681 0.686044 0.616020
O O9 0.857886 0.800035 0.217873
O O10 0.944094 0.753728 0.335189
O O11 0.598097 0.401904 0.000000
O O12 0.436115 0.218058 0.000000
O O13 0.666668 0.333334 0.500000
O O14 0.000000 0.752765 0.500000
#
# Coordination Sequence:
#
# PCOD9582307 Si02
#       7
#    12   6  12  12  12   4  12
#     4  11  26  43  68 100 144 187 236 289 364 440
#     4  12  27  42  72 102 147 180 234 288 355 440
#     4  11  27  43  69 100 144 190 243 301 369 439
#     4  11  22  41  65  99 135 181 235 297 360 430
#     4  12  26  45  70 105 145 182 231 291 360 424
#     4  12  27  45  63  96 136 188 247 294 351 435
#     4  11  21  41  69 100 138 188 245 309 364 420
#
# _framework density 22.361184999999999
#
# number of rings (size 3 to 8) (size 9 to 14) (size 15 to 20)
#    0.000    0.686    5.143    3.171    4.800    0.686 
#    0.000    1.714    0.000    1.029    0.000    0.000 
#    0.000    1.371    0.000    0.000    0.000    0.000 
#
# Total GULP energy -389960.427521 kJ/mol
# GULP energy per Si atom -5570.863250 kJ/mol
# Density = 2.231029 g / cm^3
# Si number density = 22.361185 Si / 1000 Ang^3
#
#
#
# Elastic Constant Matrix: (Units=GPa)
#
#
# Indices 1 2 3 4 5 6 
#
# 1 91.8290 13.5714 17.4392 -0.0001 -0.0001 0.0001
# 2 13.5714 91.8270 17.4393 0.0000 -0.0001 -0.0002
# 3 17.4392 17.4393 86.9970 0.0000 0.0000 0.0000
# 4 -0.0001 0.0000 0.0000 24.7993 -0.0001 0.0000
# 5 -0.0001 -0.0001 0.0000 -0.0001 24.7995 0.0000
# 6 0.0001 -0.0002 0.0000 0.0000 0.0000 39.1280
#
#
#
# Elastic Compliance Matrix: (Units=1/GPa)
#
#
# Indices 1 2 3 4 5 6 
#
# 1 0.011470 -0.001308 -0.002037 0.000000 0.000000 0.000000
# 2 -0.001308 0.011470 -0.002037 0.000000 0.000000 0.000000
# 3 -0.002037 -0.002037 0.012311 0.000000 0.000000 0.000000
# 4 0.000000 0.000000 0.000000 0.040324 0.000000 0.000000
# 5 0.000000 0.000000 0.000000 0.000000 0.040323 0.000000
# 6 0.000000 0.000000 0.000000 0.000000 0.000000 0.025557
#
#
# Mechanical properties :
#
#
# Convention : Reuss Voigt Hill
#
# Bulk Modulus (GPa) = 40.83823 40.83921 40.83872
# Shear Modulus (GPa) = 31.17538 32.55889 31.86714
#
# Velocity S-wave (km/s) = 3.73791 3.81996 3.77916
# Velocity P-wave (km/s) = 6.07717 6.14485 6.11110
#
# Compressibility (1/GPa) = 0.02448686
#
# Stress axis : x y z
#
# Youngs Moduli (GPa) = 87.18388 87.18193 81.22603
#
# Poissons Ratio (x) = 0.11406 0.16546
# Poissons Ratio (y) = 0.11407 0.16546
# Poissons Ratio (z) = 0.17759 0.17759
#
# Static dielectric constant tensor:
#      x y z
#    x 1.832830 0.000000 0.000000 
#    y 0.000000 1.832830 0.000000 
#    z 0.000000 0.000000 1.960690 
# 
# From -- ./inp_files/2855.got.cif
#   From: 2010.05.17/outbox.cif.g08.bks.cpg/sg177_2_cif.got.tgz:2855.got - 2010.05.20 11:28:44.
