data_PCOD9582707
_publ_section_title
;
Structure prediction by ZEFSAII (Michael W. Deem and Ramdas Pophale) SiO2 
 PCOD9582707
Probable space group: P 61 2 2
;
_chemical_formula_sum "Si O2"
_cell_formula_units_Z 54
_cell_length_a 24.217424
_cell_length_b 24.217424
_cell_length_c 5.261389
_cell_angle_alpha 90.000000
_cell_angle_beta 90.000000
_cell_angle_gamma 120.000000
_cell_volume 2672.310605
_symmetry_space_group_name_H-M "P 61 2 2"
_symmetry_group_IT_number 178
_symmetry_cell_setting 'hexagonal'
loop_
_space_group_symop_operation_xyz
x,y,z
x-y,x,1/6+z
-y,x-y,1/3+z
-x,-y,1/2+z
-x+y,-x,2/3+z
y,-x+y,5/6+z
x-y,-y,-z
-x,-x+y,2/3-z
y,x,1/3-z
-y,-x,5/6-z
-x+y,y,1/2-z
x,x-y,1/6-z
loop_
_atom_site_type_symbol
_atom_site_label
_atom_site_fract_x
_atom_site_fract_y
_atom_site_fract_z
Si Si1 0.793883 0.206118 0.416667
Si Si2 0.146585 0.073293 0.083334
Si Si3 0.953635 0.476818 0.083334
Si Si4 0.669432 0.916368 0.926352
Si Si5 0.671179 0.112233 0.686815
Si Si6 0.231647 0.115824 0.583334
Si Si7 0.000000 0.676235 0.833334
O O1 0.850873 0.215262 0.598435
O O2 0.727440 0.179491 0.575036
O O3 0.103728 0.103728 0.166667
O O4 0.190201 0.084854 0.331373
O O5 0.905760 0.505525 0.081055
O O6 0.000000 0.501107 0.333334
O O7 0.701040 0.976836 0.737660
O O8 0.609728 0.909398 0.084670
O O9 0.721062 0.912372 0.102945
O O10 0.663870 0.059154 0.487718
#
# Coordination Sequence:
#
# PCOD9582707 Si02
#       7
#     6   6   6  12  12   6   6
#     4  10  21  40  62  94 132 192 240 274 356 426
#     4  12  31  53  74  98 128 175 234 292 350 417
#     4  12  26  44  66 104 147 188 246 296 360 432
#     4  11  22  40  62  97 141 180 225 283 355 430
#     4  11  22  40  63  96 139 190 236 287 352 432
#     4  12  26  45  70 106 131 169 224 284 346 431
#     4  10  22  34  60  92 134 188 224 274 352 420
#
# _framework density 20.207232000000001
#
# number of rings (size 3 to 8) (size 9 to 14) (size 15 to 20)
#    0.000    0.889    3.333    3.333    7.778    2.667 
#    0.000    0.000    0.000    0.000    0.000    7.778 
#    0.000    0.000    0.000    0.000    0.000    0.000 
#
# Total GULP energy -300941.439821 kJ/mol
# GULP energy per Si atom -5572.989626 kJ/mol
# Density = 2.016124 g / cm^3
# Si number density = 20.207232 Si / 1000 Ang^3
#
#
#
# Elastic Constant Matrix: (Units=GPa)
#
#
# Indices 1 2 3 4 5 6 
#
# 1 138.5410 95.1903 51.5203 0.0000 0.0000 0.0000
# 2 95.1903 138.5410 51.5203 0.0000 0.0000 0.0000
# 3 51.5203 51.5203 97.5010 0.0000 0.0000 0.0000
# 4 0.0000 0.0000 0.0000 23.5144 0.0000 0.0000
# 5 0.0000 0.0000 0.0000 0.0000 23.5144 0.0000
# 6 0.0000 0.0000 0.0000 0.0000 0.0000 21.6754
#
#
#
# Elastic Compliance Matrix: (Units=1/GPa)
#
#
# Indices 1 2 3 4 5 6 
#
# 1 0.014323 -0.008745 -0.002947 0.000000 0.000000 0.000000
# 2 -0.008745 0.014323 -0.002947 0.000000 0.000000 0.000000
# 3 -0.002947 -0.002947 0.013371 0.000000 0.000000 0.000000
# 4 0.000000 0.000000 0.000000 0.042527 0.000000 0.000000
# 5 0.000000 0.000000 0.000000 0.000000 0.042527 0.000000
# 6 0.000000 0.000000 0.000000 0.000000 0.000000 0.046135
#
#
# Mechanical properties :
#
#
# Convention : Reuss Voigt Hill
#
# Bulk Modulus (GPa) = 78.50971 85.67165 82.09068
# Shear Modulus (GPa) = 24.18599 25.49763 24.84181
#
# Velocity S-wave (km/s) = 3.46337 3.55605 3.51002
# Velocity P-wave (km/s) = 7.41147 7.70384 7.55907
#
# Compressibility (1/GPa) = 0.01273728
#
# Stress axis : x y z
#
# Youngs Moduli (GPa) = 69.81921 69.81921 74.78825
#
# Poissons Ratio (x) = 0.61057 0.22043
# Poissons Ratio (y) = 0.61057 0.22043
# Poissons Ratio (z) = 0.20578 0.20578
#
# Static dielectric constant tensor:
#      x y z
#    x 1.754030 0.000000 0.000000 
#    y 0.000000 1.754030 0.000000 
#    z 0.000000 0.000000 2.038890 
# 
# From -- ./inp_files/1260.got.cif
#   From: 2010.05.17/outbox.cif.g08.bks.cpg/sg178_1_cif.got.tgz:1260.got - 2010.05.20 11:30:59.
