data_PCOD9582934
_publ_section_title
;
Structure prediction by ZEFSAII (Michael W. Deem and Ramdas Pophale) SiO2 
 PCOD9582934
Probable space group: P 61 2 2
;
_chemical_formula_sum "Si O2"
_cell_formula_units_Z 96
_cell_length_a 16.892997
_cell_length_b 16.892997
_cell_length_c 21.886909
_cell_angle_alpha 90.000000
_cell_angle_beta 90.000000
_cell_angle_gamma 120.000000
_cell_volume 5409.143136
_symmetry_space_group_name_H-M "P 61 2 2"
_symmetry_group_IT_number 178
_symmetry_cell_setting 'hexagonal'
loop_
_space_group_symop_operation_xyz
x,y,z
x-y,x,1/6+z
-y,x-y,1/3+z
-x,-y,1/2+z
-x+y,-x,2/3+z
y,-x+y,5/6+z
x-y,-y,-z
-x,-x+y,2/3-z
y,x,1/3-z
-y,-x,5/6-z
-x+y,y,1/2-z
x,x-y,1/6-z
loop_
_atom_site_type_symbol
_atom_site_label
_atom_site_fract_x
_atom_site_fract_y
_atom_site_fract_z
Si Si1 0.354114 0.695438 0.153949
Si Si2 0.784449 0.951154 0.298032
Si Si3 0.382477 0.388703 0.594561
Si Si4 0.217325 0.695391 0.245375
Si Si5 0.408764 0.325276 0.404718
Si Si6 0.798694 0.014695 0.926827
Si Si7 0.026711 0.868800 0.766562
Si Si8 0.085876 0.534262 0.675344
O O1 0.340379 0.670190 0.083334
O O2 0.261122 0.665010 0.191172
O O3 0.418626 0.667805 0.192111
O O4 0.409661 0.805089 0.158933
O O5 0.697711 0.952193 0.268538
O O6 0.787071 0.861505 0.274951
O O7 0.782380 0.957722 0.372116
O O8 0.879396 0.037121 0.276577
O O9 0.381580 0.381580 0.666667
O O10 0.343844 0.454277 0.574934
O O11 0.314260 0.284887 0.572585
O O12 0.485554 0.434448 0.572242
O O13 0.265377 0.805826 0.242352
O O14 0.449327 0.394707 0.461709
O O15 0.450719 0.394267 0.347370
O O16 0.896382 0.103619 0.916667
O O17 0.791763 0.000000 0.000000
O O18 0.000000 0.819184 0.833334
O O19 0.943322 0.886644 0.750000
#
# Coordination Sequence:
#
# PCOD9582934 Si02
#       8
#    12  12  12  12  12  12  12  12
#     4   9  17  33  58  77 101 146 186 232 282 337
#     4  11  19  34  59  75 114 154 192 236 298 334
#     4  11  22  34  53  81 118 151 179 230 292 354
#     4   9  18  34  52  79 109 134 191 231 270 354
#     4   9  19  35  54  78 102 149 188 232 274 343
#     4  11  24  34  49  84 122 154 189 231 285 359
#     4   9  20  35  53  82 109 149 200 243 284 345
#     4   9  20  35  53  77 113 139 191 228 284 348
#
# _framework density 17.747727000000001
#
# number of rings (size 3 to 8) (size 9 to 14) (size 15 to 20)
#    0.000    2.250    1.250    3.375    3.500    2.500 
#    2.250    0.625    0.000    0.000    6.500    0.000 
#    0.000    0.000    0.000    0.000    0.000    0.000 
#
# Total GULP energy -534840.281648 kJ/mol
# GULP energy per Si atom -5571.252934 kJ/mol
# Density = 1.770733 g / cm^3
# Si number density = 17.747727 Si / 1000 Ang^3
#
#
#
# Elastic Constant Matrix: (Units=GPa)
#
#
# Indices 1 2 3 4 5 6 
#
# 1 62.1564 23.8998 15.4030 0.0000 0.0000 0.0000
# 2 23.8998 62.1564 15.4030 0.0000 0.0000 0.0000
# 3 15.4030 15.4030 83.0401 0.0000 0.0000 0.0000
# 4 0.0000 0.0000 0.0000 22.0812 0.0000 0.0000
# 5 0.0000 0.0000 0.0000 0.0000 22.0812 0.0000
# 6 0.0000 0.0000 0.0000 0.0000 0.0000 19.1283
#
#
#
# Elastic Compliance Matrix: (Units=1/GPa)
#
#
# Indices 1 2 3 4 5 6 
#
# 1 0.019293 -0.006846 -0.002309 0.000000 0.000000 0.000000
# 2 -0.006846 0.019293 -0.002309 0.000000 0.000000 0.000000
# 3 -0.002309 -0.002309 0.012899 0.000000 0.000000 0.000000
# 4 0.000000 0.000000 0.000000 0.045287 0.000000 0.000000
# 5 0.000000 0.000000 0.000000 0.000000 0.045287 0.000000
# 6 0.000000 0.000000 0.000000 0.000000 0.000000 0.052279
#
#
# Mechanical properties :
#
#
# Convention : Reuss Voigt Hill
#
# Bulk Modulus (GPa) = 35.01710 35.19606 35.10658
# Shear Modulus (GPa) = 22.04732 22.83461 22.44096
#
# Velocity S-wave (km/s) = 3.52840 3.59084 3.55976
# Velocity P-wave (km/s) = 6.03098 6.08823 6.05967
#
# Compressibility (1/GPa) = 0.02855748
#
# Stress axis : x y z
#
# Youngs Moduli (GPa) = 51.83218 51.83218 77.52620
#
# Poissons Ratio (x) = 0.35486 0.17899
# Poissons Ratio (y) = 0.35486 0.17899
# Poissons Ratio (z) = 0.11967 0.11967
#
# Static dielectric constant tensor:
#      x y z
#    x 1.594270 0.000000 0.000000 
#    y 0.000000 1.594270 0.000000 
#    z 0.000000 0.000000 1.651250 
# 
# From -- ./inp_files/7761.got.cif
#   From: 2010.05.17/outbox.cif.g08.bks.cpg/sg178_4_cif.got.tgz:7761.got - 2010.05.20 11:30:59.
