data_PCOD9582998
_publ_section_title
;
Structure prediction by ZEFSAII (Michael W. Deem and Ramdas Pophale) SiO2 
 PCOD9582998
Probable space group: P 61 2 2
;
_chemical_formula_sum "Si O2"
_cell_formula_units_Z 48
_cell_length_a 10.903180
_cell_length_b 10.903180
_cell_length_c 17.754613
_cell_angle_alpha 90.000000
_cell_angle_beta 90.000000
_cell_angle_gamma 120.000000
_cell_volume 1827.882209
_symmetry_space_group_name_H-M "P 61 2 2"
_symmetry_group_IT_number 178
_symmetry_cell_setting 'hexagonal'
loop_
_space_group_symop_operation_xyz
x,y,z
x-y,x,1/6+z
-y,x-y,1/3+z
-x,-y,1/2+z
-x+y,-x,2/3+z
y,-x+y,5/6+z
x-y,-y,-z
-x,-x+y,2/3-z
y,x,1/3-z
-y,-x,5/6-z
-x+y,y,1/2-z
x,x-y,1/6-z
loop_
_atom_site_type_symbol
_atom_site_label
_atom_site_fract_x
_atom_site_fract_y
_atom_site_fract_z
Si Si1 0.412746 0.043369 0.394056
Si Si2 0.679624 0.320377 0.416667
Si Si3 0.728159 0.982137 0.421226
Si Si4 0.447027 0.723514 0.083334
Si Si5 0.301734 0.042630 0.759183
O O1 0.577471 0.153716 0.406061
O O2 0.456381 0.109133 0.568663
O O3 0.373520 0.002701 0.306024
O O4 0.329945 0.128290 0.418252
O O5 0.661954 0.366846 0.330291
O O6 0.870365 0.129636 0.416667
O O7 0.644248 0.952332 0.343898
O O8 0.668682 0.000000 0.500000
O O9 0.772422 0.859902 0.425489
#
# Coordination Sequence:
#
# PCOD9582998 Si02
#       5
#    12   6  12   6  12
#     4  11  23  46  79 125 163 222 296 370 450 544
#     4  12  28  51  82 122 173 222 290 378 448 546
#     4   8  14  26  50 101 164 209 263 346 447 507
#     4  12  28  53  90 126 173 224 304 366 470 540
#     4   9  18  33  67 111 159 213 280 361 432 519
#
# _framework density 26.259898
#
# number of rings (size 3 to 8) (size 9 to 14) (size 15 to 20)
#    0.000    2.000    2.500    0.750    1.750    1.000 
#    0.000    0.000   13.750    3.000    0.000    0.000 
#    0.000    0.000    0.000    0.000    0.000    0.000 
#
# Total GULP energy -267891.919143 kJ/mol
# GULP energy per Si atom -5581.081649 kJ/mol
# Density = 2.620013 g / cm^3
# Si number density = 26.259898 Si / 1000 Ang^3
#
#
#
# Elastic Constant Matrix: (Units=GPa)
#
#
# Indices 1 2 3 4 5 6 
#
# 1 160.3323 79.2761 74.2745 0.0000 0.0000 0.0000
# 2 79.2761 160.3323 74.2745 0.0000 0.0000 0.0000
# 3 74.2745 74.2745 235.1128 0.0000 0.0000 0.0000
# 4 0.0000 0.0000 0.0000 34.9900 0.0000 0.0000
# 5 0.0000 0.0000 0.0000 0.0000 34.9900 0.0000
# 6 0.0000 0.0000 0.0000 0.0000 0.0000 40.5281
#
#
#
# Elastic Compliance Matrix: (Units=1/GPa)
#
#
# Indices 1 2 3 4 5 6 
#
# 1 0.008764 -0.003574 -0.001640 0.000000 0.000000 0.000000
# 2 -0.003574 0.008764 -0.001640 0.000000 0.000000 0.000000
# 3 -0.001640 -0.001640 0.005289 0.000000 0.000000 0.000000
# 4 0.000000 0.000000 0.000000 0.028580 0.000000 0.000000
# 5 0.000000 0.000000 0.000000 0.000000 0.028580 0.000000
# 6 0.000000 0.000000 0.000000 0.000000 0.000000 0.024674
#
#
# Mechanical properties :
#
#
# Convention : Reuss Voigt Hill
#
# Bulk Modulus (GPa) = 109.75926 112.38084 111.07005
# Shear Modulus (GPa) = 41.18887 43.96511 42.57699
#
# Velocity S-wave (km/s) = 3.96474 4.09617 4.03099
# Velocity P-wave (km/s) = 7.92760 8.07837 8.00334
#
# Compressibility (1/GPa) = 0.00911085
#
# Stress axis : x y z
#
# Youngs Moduli (GPa) = 114.10929 114.10929 189.06524
#
# Poissons Ratio (x) = 0.40778 0.30998
# Poissons Ratio (y) = 0.40778 0.30998
# Poissons Ratio (z) = 0.18709 0.18709
#
# Static dielectric constant tensor:
#      x y z
#    x 2.028980 0.000000 0.000000 
#    y 0.000000 2.028980 0.000000 
#    z 0.000000 0.000000 2.178980 
# 
# From -- ./inp_files/6529.got.cif
#   From: 2010.05.17/outbox.cif.g08.bks.cpg/sg178_4_cif.got.tgz:6529.got - 2010.05.20 11:30:59.
