data_PCOD9582777
_publ_section_title
;
Structure prediction by ZEFSAII (Michael W. Deem and Ramdas Pophale) SiO2 
 PCOD9582777
Probable space group: P 61 2 2
;
_chemical_formula_sum "Si O2"
_cell_formula_units_Z 72
_cell_length_a 15.208486
_cell_length_b 15.208486
_cell_length_c 17.444441
_cell_angle_alpha 90.000000
_cell_angle_beta 90.000000
_cell_angle_gamma 120.000000
_cell_volume 3494.295698
_symmetry_space_group_name_H-M "P 61 2 2"
_symmetry_group_IT_number 178
_symmetry_cell_setting 'hexagonal'
loop_
_space_group_symop_operation_xyz
x,y,z
x-y,x,1/6+z
-y,x-y,1/3+z
-x,-y,1/2+z
-x+y,-x,2/3+z
y,-x+y,5/6+z
x-y,-y,-z
-x,-x+y,2/3-z
y,x,1/3-z
-y,-x,5/6-z
-x+y,y,1/2-z
x,x-y,1/6-z
loop_
_atom_site_type_symbol
_atom_site_label
_atom_site_fract_x
_atom_site_fract_y
_atom_site_fract_z
Si Si1 0.619118 0.619118 0.666667
Si Si2 0.766127 0.835523 0.425543
Si Si3 0.000000 0.312680 0.833334
Si Si4 0.167820 0.832181 0.916667
Si Si5 0.264760 0.714381 0.541390
Si Si6 0.669504 0.823293 0.897885
Si Si7 0.592898 0.113904 0.923798
Si Si8 0.996886 0.993772 0.750000
O O1 0.625005 0.718009 0.623540
O O2 0.579440 0.526590 0.605378
O O3 0.721070 0.824365 0.509260
O O4 0.772791 0.735060 0.410162
O O5 0.703129 0.844164 0.355609
O O6 0.876298 0.937308 0.429133
O O7 0.084901 0.298988 0.875511
O O8 0.042849 0.400273 0.768381
O O9 0.313381 0.656690 0.583334
O O10 0.209687 0.758259 0.594451
O O11 0.350169 0.804050 0.491092
O O12 0.176663 0.631541 0.487015
O O13 0.043559 0.043559 0.666667
#
# Coordination Sequence:
#
# PCOD9582777 Si02
#       8
#     6  12   6   6  12  12  12   6
#     4  11  26  46  76  95 140 184 240 289 354 429
#     4  12  26  40  62  94 136 184 233 279 335 415
#     4   9  20  42  64  95 136 174 218 279 348 411
#     4  12  29  44  66  94 136 190 228 286 348 409
#     4  10  22  40  71  97 132 168 219 286 354 418
#     4  11  24  38  65  98 135 176 230 277 344 412
#     4   9  21  45  68  97 131 178 217 284 360 420
#     4  12  25  42  62  90 132 188 236 280 338 403
#
# _framework density 20.605011000000001
#
# number of rings (size 3 to 8) (size 9 to 14) (size 15 to 20)
#    0.000    1.333    1.667    2.500    8.167    2.000 
#    0.000    0.000    0.000    0.000    0.000    0.000 
#    0.000    0.000    0.000    0.000    0.000    0.000 
#
# Total GULP energy -401308.284856 kJ/mol
# GULP energy per Si atom -5573.726179 kJ/mol
# Density = 2.055811 g / cm^3
# Si number density = 20.605011 Si / 1000 Ang^3
#
#
#
# Elastic Constant Matrix: (Units=GPa)
#
#
# Indices 1 2 3 4 5 6 
#
# 1 81.0563 21.9255 14.3646 0.0000 0.0000 0.0000
# 2 21.9255 81.0563 14.3646 0.0000 0.0000 0.0000
# 3 14.3646 14.3646 73.2341 0.0000 0.0000 0.0000
# 4 0.0000 0.0000 0.0000 12.1244 0.0000 0.0000
# 5 0.0000 0.0000 0.0000 0.0000 12.1244 0.0000
# 6 0.0000 0.0000 0.0000 0.0000 0.0000 29.5654
#
#
#
# Elastic Compliance Matrix: (Units=1/GPa)
#
#
# Indices 1 2 3 4 5 6 
#
# 1 0.013592 -0.003320 -0.002015 0.000000 0.000000 0.000000
# 2 -0.003320 0.013592 -0.002015 0.000000 0.000000 0.000000
# 3 -0.002015 -0.002015 0.014445 0.000000 0.000000 0.000000
# 4 0.000000 0.000000 0.000000 0.082478 0.000000 0.000000
# 5 0.000000 0.000000 0.000000 0.000000 0.082478 0.000000
# 6 0.000000 0.000000 0.000000 0.000000 0.000000 0.033823
#
#
# Mechanical properties :
#
#
# Convention : Reuss Voigt Hill
#
# Bulk Modulus (GPa) = 37.13232 37.40622 37.26927
# Shear Modulus (GPa) = 18.93333 23.07566 21.00450
#
# Velocity S-wave (km/s) = 3.03458 3.35013 3.19625
# Velocity P-wave (km/s) = 5.50802 5.75828 5.63454
#
# Compressibility (1/GPa) = 0.02693072
#
# Stress axis : x y z
#
# Youngs Moduli (GPa) = 73.57209 73.57209 69.22679
#
# Poissons Ratio (x) = 0.24423 0.13949
# Poissons Ratio (y) = 0.24423 0.13949
# Poissons Ratio (z) = 0.14824 0.14824
#
# Static dielectric constant tensor:
#      x y z
#    x 1.766180 0.000000 0.000000 
#    y 0.000000 1.766180 0.000000 
#    z 0.000000 0.000000 1.761430 
# 
# From -- ./inp_files/6866.got.cif
#   From: 2010.05.17/outbox.cif.g08.bks.cpg/sg178_4_cif.got.tgz:6866.got - 2010.05.20 11:30:59.
