data_PCOD9582758
_publ_section_title
;
Structure prediction by ZEFSAII (Michael W. Deem and Ramdas Pophale) SiO2 
 PCOD9582758
Probable space group: P 61 2 2
;
_chemical_formula_sum "Si O2"
_cell_formula_units_Z 48
_cell_length_a 16.677076
_cell_length_b 16.677076
_cell_length_c 9.072182
_cell_angle_alpha 90.000000
_cell_angle_beta 90.000000
_cell_angle_gamma 120.000000
_cell_volume 2185.154765
_symmetry_space_group_name_H-M "P 61 2 2"
_symmetry_group_IT_number 178
_symmetry_cell_setting 'hexagonal'
loop_
_space_group_symop_operation_xyz
x,y,z
x-y,x,1/6+z
-y,x-y,1/3+z
-x,-y,1/2+z
-x+y,-x,2/3+z
y,-x+y,5/6+z
x-y,-y,-z
-x,-x+y,2/3-z
y,x,1/3-z
-y,-x,5/6-z
-x+y,y,1/2-z
x,x-y,1/6-z
loop_
_atom_site_type_symbol
_atom_site_label
_atom_site_fract_x
_atom_site_fract_y
_atom_site_fract_z
Si Si1 0.000000 0.298128 0.833334
Si Si2 0.571105 0.756277 0.336868
Si Si3 0.717454 0.434908 0.750000
Si Si4 0.826651 0.986395 0.226563
Si Si5 0.449321 0.724661 0.083334
Si Si6 0.291124 0.145562 0.083334
O O1 0.913997 0.297170 0.747718
O O2 0.045448 0.262262 0.710197
O O3 0.496193 0.700690 0.464240
O O4 0.517655 0.782604 0.215863
O O5 0.647765 0.839066 0.436883
O O6 0.622873 0.371971 0.660065
O O7 0.816690 0.042827 0.360086
O O8 0.911280 0.063087 0.128089
#
# Coordination Sequence:
#
# PCOD9582758 Si02
#       6
#     6  12   6  12   6   6
#     4  10  24  42  62  98 140 194 226 270 352 424
#     4  10  22  39  68 101 142 178 224 281 344 424
#     4  11  20  42  72 115 136 167 228 296 346 409
#     4  11  23  43  62  94 136 181 248 297 337 397
#     4  12  20  38  76 110 130 174 232 288 344 412
#     4   9  22  40  58  93 140 179 220 282 352 397
#
# _framework density 21.966405999999999
#
# number of rings (size 3 to 8) (size 9 to 14) (size 15 to 20)
#    0.000    1.500    2.500    1.500    7.000    0.000 
#   18.000    0.000    5.500    0.000    6.500    0.000 
#    0.000    0.000    0.000    0.000    0.000    0.000 
#
# Total GULP energy -267563.262193 kJ/mol
# GULP energy per Si atom -5574.234629 kJ/mol
# Density = 2.191641 g / cm^3
# Si number density = 21.966406 Si / 1000 Ang^3
#
#
#
# Elastic Constant Matrix: (Units=GPa)
#
#
# Indices 1 2 3 4 5 6 
#
# 1 99.3054 59.3852 76.8862 0.0000 0.0000 0.0000
# 2 59.3852 99.3054 76.8862 0.0000 0.0000 0.0000
# 3 76.8862 76.8862 202.5148 0.0000 0.0000 0.0000
# 4 0.0000 0.0000 0.0000 63.5145 0.0000 0.0000
# 5 0.0000 0.0000 0.0000 0.0000 63.5145 0.0000
# 6 0.0000 0.0000 0.0000 0.0000 0.0000 19.9601
#
#
#
# Elastic Compliance Matrix: (Units=1/GPa)
#
#
# Indices 1 2 3 4 5 6 
#
# 1 0.017510 -0.007540 -0.003785 0.000000 0.000000 0.000000
# 2 -0.007540 0.017510 -0.003785 0.000000 0.000000 0.000000
# 3 -0.003785 -0.003785 0.007812 0.000000 0.000000 0.000000
# 4 0.000000 0.000000 0.000000 0.015744 0.000000 0.000000
# 5 0.000000 0.000000 0.000000 0.000000 0.015744 0.000000
# 6 0.000000 0.000000 0.000000 0.000000 0.000000 0.050100
#
#
# Mechanical properties :
#
#
# Convention : Reuss Voigt Hill
#
# Bulk Modulus (GPa) = 79.29806 91.93784 85.61795
# Shear Modulus (GPa) = 31.47754 41.92904 36.70329
#
# Velocity S-wave (km/s) = 3.78959 4.37370 4.09208
# Velocity P-wave (km/s) = 7.43815 8.21282 7.83506
#
# Compressibility (1/GPa) = 0.01261065
#
# Stress axis : x y z
#
# Youngs Moduli (GPa) = 57.11174 57.11174 128.01153
#
# Poissons Ratio (x) = 0.43065 0.48450
# Poissons Ratio (y) = 0.43065 0.48450
# Poissons Ratio (z) = 0.21616 0.21616
#
# Static dielectric constant tensor:
#      x y z
#    x 1.858680 0.000000 0.000000 
#    y 0.000000 1.858680 0.000000 
#    z 0.000000 0.000000 1.883300 
# 
# From -- ./inp_files/2851.got.cif
#   From: 2010.05.17/outbox.cif.g08.bks.cpg/sg178_2_cif.got.tgz:2851.got - 2010.05.20 11:30:59.
