data_PCOD9582139
_publ_section_title
;
Structure prediction by ZEFSAII (Michael W. Deem and Ramdas Pophale) SiO2 
 PCOD9582139
Probable space group: P 63/M
;
_chemical_formula_sum "Si O2"
_cell_formula_units_Z 84
_cell_length_a 28.457184
_cell_length_b 28.457184
_cell_length_c 7.463921
_cell_angle_alpha 90.000000
_cell_angle_beta 90.000000
_cell_angle_gamma 120.000000
_cell_volume 5234.576001
_symmetry_space_group_name_H-M "P 63/M"
_symmetry_group_IT_number 176
_symmetry_cell_setting 'hexagonal'
loop_
_space_group_symop_operation_xyz
x,y,z
x-y,x,1/2+z
-y,x-y,z
-x,-y,1/2+z
-x+y,-x,z
y,-x+y,1/2+z
-x,-y,-z
-x+y,-x,1/2-z
y,-x+y,-z
x,y,1/2-z
x-y,x,-z
-y,x-y,1/2-z
loop_
_atom_site_type_symbol
_atom_site_label
_atom_site_fract_x
_atom_site_fract_y
_atom_site_fract_z
Si Si1 0.833691 0.564825 0.957794
Si Si2 0.429325 0.063676 0.534377
Si Si3 0.064423 0.532211 0.463397
Si Si4 0.063676 0.429325 0.034377
Si Si5 0.438501 0.772483 0.966080
Si Si6 0.772483 0.438501 0.466080
Si Si7 0.564825 0.833691 0.457794
O O1 0.839724 0.581398 0.750000
O O2 0.893814 0.587870 0.034526
O O3 0.788307 0.576615 0.039060
O O4 0.807190 0.499421 0.962699
O O5 0.433622 0.068940 0.750000
O O6 0.412130 0.106186 0.465474
O O7 0.490085 0.081643 0.464709
O O8 0.389906 0.000000 0.500000
O O9 0.073957 0.536978 0.250000
O O10 0.000000 0.500000 0.500000
O O11 0.081643 0.490085 0.535291
O O12 0.068940 0.433622 0.250000
O O13 0.441667 0.777180 0.750000
O O14 0.393874 0.787748 0.028580
O O15 0.419729 0.709865 0.009342
O O16 0.499421 0.807190 0.037301
O O17 0.777180 0.441667 0.250000
O O18 0.581398 0.839724 0.250000
#
# Coordination Sequence:
#
# PCOD9582139 Si02
#       7
#    12  12  12  12  12  12  12
#     4   9  18  30  42  57  76  96 116 142 179 219
#     4   9  17  28  42  57  74  94 117 146 178 214
#     4   8  14  24  36  52  70  90 112 140 174 206
#     4   9  17  28  42  57  74  94 117 146 178 214
#     4   9  17  28  40  53  69  91 118 147 178 214
#     4   9  17  28  40  53  69  91 118 147 178 214
#     4   9  18  30  42  57  76  96 116 142 179 219
#
# _framework density 16.047146000000001
#
# number of rings (size 3 to 8) (size 9 to 14) (size 15 to 20)
#    0.000    3.143    0.000    0.286    2.000    2.857 
#    0.000    0.000    0.000    1.714    0.000    0.000 
#    0.000    0.000    0.000    0.000    0.000    0.000 
#
# Total GULP energy -467959.350313 kJ/mol
# GULP energy per Si atom -5570.944647 kJ/mol
# Density = 1.601062 g / cm^3
# Si number density = 16.047146 Si / 1000 Ang^3
#
#
#
# Elastic Constant Matrix: (Units=GPa)
#
#
# Indices 1 2 3 4 5 6 
#
# 1 83.2618 36.3166 1.6220 0.0000 0.0000 0.0000
# 2 36.3166 83.2618 1.6220 0.0000 0.0000 0.0000
# 3 1.6220 1.6220 52.3610 0.0000 0.0000 0.0000
# 4 0.0000 0.0000 0.0000 8.2746 0.0000 0.0000
# 5 0.0000 0.0000 0.0000 0.0000 8.2746 0.0000
# 6 0.0000 0.0000 0.0000 0.0000 0.0000 23.4726
#
#
#
# Elastic Compliance Matrix: (Units=1/GPa)
#
#
# Indices 1 2 3 4 5 6 
#
# 1 0.014836 -0.006466 -0.000259 0.000000 0.000000 0.000000
# 2 -0.006466 0.014836 -0.000259 0.000000 0.000000 0.000000
# 3 -0.000259 -0.000259 0.019114 0.000000 0.000000 0.000000
# 4 0.000000 0.000000 0.000000 0.120852 0.000000 0.000000
# 5 0.000000 0.000000 0.000000 0.000000 0.120852 0.000000
# 6 0.000000 0.000000 0.000000 0.000000 0.000000 0.042603
#
#
# Mechanical properties :
#
#
# Convention : Reuss Voigt Hill
#
# Bulk Modulus (GPa) = 28.72188 33.11176 30.91682
# Shear Modulus (GPa) = 13.94049 19.95928 16.94989
#
# Velocity S-wave (km/s) = 2.95060 3.53057 3.25353
# Velocity P-wave (km/s) = 5.43557 6.10727 5.78118
#
# Compressibility (1/GPa) = 0.03481666
#
# Stress axis : x y z
#
# Youngs Moduli (GPa) = 67.40550 67.40550 52.31700
#
# Poissons Ratio (x) = 0.43583 0.01356
# Poissons Ratio (y) = 0.43583 0.01356
# Poissons Ratio (z) = 0.01748 0.01748
#
# Static dielectric constant tensor:
#      x y z
#    x 1.567380 0.000000 0.000000 
#    y 0.000000 1.567380 0.000000 
#    z 0.000000 0.000000 1.605470 
# 
# From -- ./inp_files/2134.got.cif
#   From: 2010.05.17/outbox.cif.g08.bks.cpg/sg176_2_cif.got.tgz:2134.got - 2010.06.03 11:36:45.
