data_PCOD9582457
_publ_section_title
;
Structure prediction by ZEFSAII (Michael W. Deem and Ramdas Pophale) SiO2 
 PCOD9582457
Probable space group: P 61 2 2
;
_chemical_formula_sum "Si O2"
_cell_formula_units_Z 84
_cell_length_a 21.172725
_cell_length_b 21.172725
_cell_length_c 12.166899
_cell_angle_alpha 90.000000
_cell_angle_beta 90.000000
_cell_angle_gamma 120.000000
_cell_volume 4723.501397
_symmetry_space_group_name_H-M "P 61 2 2"
_symmetry_group_IT_number 178
_symmetry_cell_setting 'hexagonal'
loop_
_space_group_symop_operation_xyz
x,y,z
x-y,x,1/6+z
-y,x-y,1/3+z
-x,-y,1/2+z
-x+y,-x,2/3+z
y,-x+y,5/6+z
x-y,-y,-z
-x,-x+y,2/3-z
y,x,1/3-z
-y,-x,5/6-z
-x+y,y,1/2-z
x,x-y,1/6-z
loop_
_atom_site_type_symbol
_atom_site_label
_atom_site_fract_x
_atom_site_fract_y
_atom_site_fract_z
Si Si1 0.395409 0.670715 0.800570
Si Si2 0.456717 0.225075 0.962062
Si Si3 0.577631 0.889820 0.858195
Si Si4 0.351759 0.923800 0.054576
Si Si5 0.596842 0.143478 0.981808
Si Si6 0.694399 0.916909 0.042291
Si Si7 0.354901 0.941429 0.314060
O O1 0.355607 0.711213 0.750000
O O2 0.481574 0.721425 0.794088
O O3 0.378066 0.602959 0.721784
O O4 0.363344 0.636657 0.916667
O O5 0.422464 0.272439 0.920176
O O6 0.406767 0.138316 0.966806
O O7 0.490882 0.245441 0.083334
O O8 0.599856 0.973174 0.841157
O O9 0.498503 0.855772 0.913919
O O10 0.634958 0.886104 0.942627
O O11 0.405856 0.896593 0.006508
O O12 0.361089 0.930333 0.185879
O O13 0.373657 0.000000 0.000000
O O14 0.615917 0.102138 0.886764
O O15 0.719706 0.859853 0.083334
O O16 0.646133 0.920651 0.143167
O O17 0.753566 0.000000 0.000000
#
# Coordination Sequence:
#
# PCOD9582457 Si02
#       7
#    12  12  12  12  12  12  12
#     4  11  22  36  50  67  92 127 171 215 257 308
#     4  11  23  37  51  71  97 129 167 209 260 313
#     4  10  20  35  53  74 102 133 166 211 263 314
#     4  11  21  34  50  71  98 131 170 212 257 308
#     4  10  20  33  51  74  96 127 168 214 265 309
#     4   9  18  32  53  80 108 136 167 205 253 308
#     4  10  19  33  52  75 101 129 166 208 254 310
#
# _framework density 17.783418000000001
#
# number of rings (size 3 to 8) (size 9 to 14) (size 15 to 20)
#    0.000    1.714    0.000    7.286    0.000    4.571 
#    0.000    4.286    0.000    0.000    0.000    0.000 
#    0.000   14.857    0.000    0.000    0.000    0.000 
#
# Total GULP energy -468670.385521 kJ/mol
# GULP energy per Si atom -5579.409351 kJ/mol
# Density = 1.774294 g / cm^3
# Si number density = 17.783418 Si / 1000 Ang^3
#
#
#
# Elastic Constant Matrix: (Units=GPa)
#
#
# Indices 1 2 3 4 5 6 
#
# 1 55.9742 18.7833 5.4789 0.0000 0.0000 0.0000
# 2 18.7833 55.9742 5.4789 0.0000 0.0000 0.0000
# 3 5.4789 5.4789 59.3255 0.0000 0.0000 0.0000
# 4 0.0000 0.0000 0.0000 23.7420 0.0000 0.0000
# 5 0.0000 0.0000 0.0000 0.0000 23.7420 0.0000
# 6 0.0000 0.0000 0.0000 0.0000 0.0000 18.5955
#
#
#
# Elastic Compliance Matrix: (Units=1/GPa)
#
#
# Indices 1 2 3 4 5 6 
#
# 1 0.020224 -0.006664 -0.001252 0.000000 0.000000 0.000000
# 2 -0.006664 0.020224 -0.001252 0.000000 0.000000 0.000000
# 3 -0.001252 -0.001252 0.017087 0.000000 0.000000 0.000000
# 4 0.000000 0.000000 0.000000 0.042119 0.000000 0.000000
# 5 0.000000 0.000000 0.000000 0.000000 0.042119 0.000000
# 6 0.000000 0.000000 0.000000 0.000000 0.000000 0.053777
#
#
# Mechanical properties :
#
#
# Convention : Reuss Voigt Hill
#
# Bulk Modulus (GPa) = 25.51121 25.63958 25.57539
# Shear Modulus (GPa) = 22.03080 22.65142 22.34111
#
# Velocity S-wave (km/s) = 3.52353 3.57282 3.54826
# Velocity P-wave (km/s) = 5.56151 5.60973 5.58567
#
# Compressibility (1/GPa) = 0.03919845
#
# Stress axis : x y z
#
# Youngs Moduli (GPa) = 49.44567 49.44567 58.52245
#
# Poissons Ratio (x) = 0.32951 0.07329
# Poissons Ratio (y) = 0.32951 0.07329
# Poissons Ratio (z) = 0.06192 0.06192
#
# Static dielectric constant tensor:
#      x y z
#    x 1.624670 0.000000 0.000000 
#    y 0.000000 1.624670 0.000000 
#    z 0.000000 0.000000 1.649550 
# 
# From -- ./inp_files/4808.got.cif
#   From: 2010.05.17/outbox.cif.g08.bks.cpg/sg178_3_cif.got.tgz:4808.got - 2010.05.20 11:30:59.
