data_PCOD9582759
_publ_section_title
;
Structure prediction by ZEFSAII (Michael W. Deem and Ramdas Pophale) SiO2 
 PCOD9582759
Probable space group: P 61 2 2
;
_chemical_formula_sum "Si O2"
_cell_formula_units_Z 72
_cell_length_a 14.799404
_cell_length_b 14.799404
_cell_length_c 17.144800
_cell_angle_alpha 90.000000
_cell_angle_beta 90.000000
_cell_angle_gamma 120.000000
_cell_volume 3252.007262
_symmetry_space_group_name_H-M "P 61 2 2"
_symmetry_group_IT_number 178
_symmetry_cell_setting 'hexagonal'
loop_
_space_group_symop_operation_xyz
x,y,z
x-y,x,1/6+z
-y,x-y,1/3+z
-x,-y,1/2+z
-x+y,-x,2/3+z
y,-x+y,5/6+z
x-y,-y,-z
-x,-x+y,2/3-z
y,x,1/3-z
-y,-x,5/6-z
-x+y,y,1/2-z
x,x-y,1/6-z
loop_
_atom_site_type_symbol
_atom_site_label
_atom_site_fract_x
_atom_site_fract_y
_atom_site_fract_z
Si Si1 0.617422 0.617422 0.666667
Si Si2 0.711646 0.795043 0.442752
Si Si3 0.000000 0.299594 0.833334
Si Si4 0.191514 0.808487 0.916667
Si Si5 0.272292 0.552672 0.622858
Si Si6 0.666578 0.821520 0.892492
Si Si7 0.596860 0.108688 0.916128
Si Si8 0.079018 0.079018 0.166667
O O1 0.638352 0.720248 0.622225
O O2 0.573636 0.524296 0.602841
O O3 0.609455 0.760515 0.494780
O O4 0.738421 0.703944 0.431854
O O5 0.705910 0.834275 0.357872
O O6 0.809472 0.893105 0.487902
O O7 0.906388 0.195653 0.796105
O O8 0.961386 0.348953 0.901504
O O9 0.328585 0.664293 0.583334
O O10 0.230254 0.457107 0.564044
O O11 0.170975 0.537964 0.669355
O O12 0.348773 0.544476 0.683425
O O13 0.018292 0.036584 0.250000
#
# Coordination Sequence:
#
# PCOD9582759 Si02
#       8
#     6  12   6   6  12  12  12   6
#     4  11  25  44  76  96 138 184 238 288 364 435
#     4  12  23  40  62  92 129 181 230 279 346 419
#     4   9  20  43  63  93 136 178 220 285 353 412
#     4  12  26  42  66  94 136 184 220 290 352 410
#     4  10  22  39  69  96 135 171 221 289 354 420
#     4  11  23  39  66  96 134 179 234 281 347 421
#     4   9  21  44  67  96 132 180 220 283 364 434
#     4  12  23  43  61  87 132 180 234 295 359 415
#
# _framework density 22.140170999999999
#
# number of rings (size 3 to 8) (size 9 to 14) (size 15 to 20)
#    0.000    1.333    2.500    2.500    5.833    2.667 
#    0.000    0.000    0.000    0.000    0.000    0.000 
#    0.000    0.000    0.000    0.000    0.000    0.000 
#
# Total GULP energy -400937.554164 kJ/mol
# GULP energy per Si atom -5568.577141 kJ/mol
# Density = 2.208978 g / cm^3
# Si number density = 22.140171 Si / 1000 Ang^3
#
#
#
# Elastic Constant Matrix: (Units=GPa)
#
#
# Indices 1 2 3 4 5 6 
#
# 1 45.7424 11.6778 10.5437 0.0000 0.0000 0.0000
# 2 11.6778 45.7424 10.5437 0.0000 0.0000 0.0000
# 3 10.5437 10.5437 80.1819 0.0000 0.0000 0.0000
# 4 0.0000 0.0000 0.0000 19.7749 0.0000 0.0000
# 5 0.0000 0.0000 0.0000 0.0000 19.7749 0.0000
# 6 0.0000 0.0000 0.0000 0.0000 0.0000 17.0323
#
#
#
# Elastic Compliance Matrix: (Units=1/GPa)
#
#
# Indices 1 2 3 4 5 6 
#
# 1 0.023828 -0.005528 -0.002406 0.000000 0.000000 0.000000
# 2 -0.005528 0.023828 -0.002406 0.000000 0.000000 0.000000
# 3 -0.002406 -0.002406 0.013104 0.000000 0.000000 0.000000
# 4 0.000000 0.000000 0.000000 0.050569 0.000000 0.000000
# 5 0.000000 0.000000 0.000000 0.000000 0.050569 0.000000
# 6 0.000000 0.000000 0.000000 0.000000 0.000000 0.058712
#
#
# Mechanical properties :
#
#
# Convention : Reuss Voigt Hill
#
# Bulk Modulus (GPa) = 24.95154 26.35523 25.65339
# Shear Modulus (GPa) = 19.63472 20.57653 20.10563
#
# Velocity S-wave (km/s) = 2.98121 3.05187 3.01675
# Velocity P-wave (km/s) = 4.81087 4.93439 4.87302
#
# Compressibility (1/GPa) = 0.04007768
#
# Stress axis : x y z
#
# Youngs Moduli (GPa) = 41.96820 41.96820 76.30972
#
# Poissons Ratio (x) = 0.23202 0.18362
# Poissons Ratio (y) = 0.23202 0.18362
# Poissons Ratio (z) = 0.10099 0.10099
#
# Static dielectric constant tensor:
#      x y z
#    x 1.852680 0.000000 0.000000 
#    y 0.000000 1.852680 0.000000 
#    z 0.000000 0.000000 1.800390 
# 
# From -- ./inp_files/6867.got.cif
#   From: 2010.05.17/outbox.cif.g08.bks.cpg/sg178_4_cif.got.tgz:6867.got - 2010.05.20 11:30:59.
