data_PCOD9582519
_publ_section_title
;
Structure prediction by ZEFSAII (Michael W. Deem and Ramdas Pophale) SiO2 
 PCOD9582519
Probable space group: P 61 2 2
;
_chemical_formula_sum "Si O2"
_cell_formula_units_Z 60
_cell_length_a 27.166089
_cell_length_b 27.166089
_cell_length_c 6.200427
_cell_angle_alpha 90.000000
_cell_angle_beta 90.000000
_cell_angle_gamma 120.000000
_cell_volume 3962.839368
_symmetry_space_group_name_H-M "P 61 2 2"
_symmetry_group_IT_number 178
_symmetry_cell_setting 'hexagonal'
loop_
_space_group_symop_operation_xyz
x,y,z
x-y,x,1/6+z
-y,x-y,1/3+z
-x,-y,1/2+z
-x+y,-x,2/3+z
y,-x+y,5/6+z
x-y,-y,-z
-x,-x+y,2/3-z
y,x,1/3-z
-y,-x,5/6-z
-x+y,y,1/2-z
x,x-y,1/6-z
loop_
_atom_site_type_symbol
_atom_site_label
_atom_site_fract_x
_atom_site_fract_y
_atom_site_fract_z
Si Si1 0.415352 0.000000 0.000000
Si Si2 0.051411 0.372727 0.959045
Si Si3 0.431024 0.273939 0.046579
Si Si4 0.695715 0.391429 0.250000
Si Si5 0.639262 0.181496 0.109012
Si Si6 0.103013 0.467472 0.589129
O O1 0.367282 0.974541 0.816988
O O2 0.468581 0.053871 0.889061
O O3 0.073216 0.421105 0.777106
O O4 0.000000 0.318773 0.833334
O O5 0.107046 0.378028 0.077720
O O6 0.426728 0.213364 0.083334
O O7 0.443034 0.308696 0.270478
O O8 0.486542 0.317019 0.908625
O O9 0.647130 0.352871 0.416667
O O10 0.752750 0.427396 0.382242
O O11 0.584497 0.168994 0.250000
O O12 0.623144 0.146221 0.886418
#
# Coordination Sequence:
#
# PCOD9582519 Si02
#       6
#     6  12  12   6  12  12
#     4   8  14  30  54  76  88 112 142 172 212 264
#     4   8  15  29  48  74  90 117 142 172 214 265
#     4  10  20  32  49  73  93 112 143 182 221 261
#     4  12  26  40  52  66  88 120 150 180 218 274
#     4  11  24  34  49  70  86 118 143 179 218 267
#     4   9  18  32  52  74  90 113 142 175 216 267
#
# _framework density 15.140658999999999
#
# number of rings (size 3 to 8) (size 9 to 14) (size 15 to 20)
#    0.000    2.400    1.000    1.200    5.600    2.400 
#    0.000    0.000    0.000    0.000  408.200    0.000 
#    0.000    0.000    0.000    0.000    0.000    0.000 
#
# Total GULP energy -334005.992451 kJ/mol
# GULP energy per Si atom -5566.766541 kJ/mol
# Density = 1.510620 g / cm^3
# Si number density = 15.140659 Si / 1000 Ang^3
#
#
#
# Elastic Constant Matrix: (Units=GPa)
#
#
# Indices 1 2 3 4 5 6 
#
# 1 64.9610 37.0456 35.2038 0.0000 0.0000 0.0000
# 2 37.0456 64.9610 35.2038 0.0000 0.0000 0.0000
# 3 35.2038 35.2038 100.4542 0.0000 0.0000 0.0000
# 4 0.0000 0.0000 0.0000 34.5233 0.0000 0.0000
# 5 0.0000 0.0000 0.0000 0.0000 34.5233 0.0000
# 6 0.0000 0.0000 0.0000 0.0000 0.0000 13.9577
#
#
#
# Elastic Compliance Matrix: (Units=1/GPa)
#
#
# Indices 1 2 3 4 5 6 
#
# 1 0.024377 -0.011446 -0.004532 0.000000 0.000000 0.000000
# 2 -0.011446 0.024377 -0.004532 0.000000 0.000000 0.000000
# 3 -0.004532 -0.004532 0.013131 0.000000 0.000000 0.000000
# 4 0.000000 0.000000 0.000000 0.028966 0.000000 0.000000
# 5 0.000000 0.000000 0.000000 0.000000 0.028966 0.000000
# 6 0.000000 0.000000 0.000000 0.000000 0.000000 0.071645
#
#
# Mechanical properties :
#
#
# Convention : Reuss Voigt Hill
#
# Bulk Modulus (GPa) = 47.92341 49.47584 48.69962
# Shear Modulus (GPa) = 20.88252 24.79576 22.83914
#
# Velocity S-wave (km/s) = 3.71783 4.05123 3.88811
# Velocity P-wave (km/s) = 7.08171 7.39133 7.23817
#
# Compressibility (1/GPa) = 0.02086663
#
# Stress axis : x y z
#
# Youngs Moduli (GPa) = 41.02264 41.02264 76.15563
#
# Poissons Ratio (x) = 0.46953 0.34511
# Poissons Ratio (y) = 0.46953 0.34511
# Poissons Ratio (z) = 0.18590 0.18590
#
# Static dielectric constant tensor:
#      x y z
#    x 1.505470 0.000000 0.000000 
#    y 0.000000 1.505470 0.000000 
#    z 0.000000 0.000000 1.626050 
# 
# From -- ./inp_files/1502.got.cif
#   From: 2010.05.17/outbox.cif.g08.bks.cpg/sg178_1_cif.got.tgz:1502.got - 2010.05.20 11:30:59.
