data_PCOD9582291
_publ_section_title
;
Structure prediction by ZEFSAII (Michael W. Deem and Ramdas Pophale) SiO2 
 PCOD9582291
Probable space group: P 6 2 2
;
_chemical_formula_sum "Si O2"
_cell_formula_units_Z 54
_cell_length_a 23.698377
_cell_length_b 23.698377
_cell_length_c 5.259276
_cell_angle_alpha 90.000000
_cell_angle_beta 90.000000
_cell_angle_gamma 120.000000
_cell_volume 2557.960315
_symmetry_space_group_name_H-M "P 6 2 2"
_symmetry_group_IT_number 177
_symmetry_cell_setting 'hexagonal'
loop_
_space_group_symop_operation_xyz
x,y,z
x-y,x,z
-y,x-y,z
-x,-y,z
-x+y,-x,z
y,-x+y,z
x-y,-y,-z
-x,-x+y,-z
y,x,-z
-y,-x,-z
-x+y,y,-z
x,x-y,-z
loop_
_atom_site_type_symbol
_atom_site_label
_atom_site_fract_x
_atom_site_fract_y
_atom_site_fract_z
Si Si1 0.845525 0.364069 0.423293
Si Si2 0.133907 0.000000 0.500000
Si Si3 0.429754 0.214877 0.500000
Si Si4 0.210133 0.210133 0.000000
Si Si5 0.616126 0.074858 0.060618
Si Si6 0.761906 0.115653 0.113163
O O1 0.810453 0.405227 0.500000
O O2 0.802992 0.286065 0.386762
O O3 0.882649 0.390865 0.159257
O O4 0.897475 0.380920 0.655662
O O5 0.169113 0.993630 0.749981
O O6 0.063780 0.936221 0.500000
O O7 0.377696 0.235742 0.396528
O O8 0.216441 0.280027 0.947439
O O9 0.688768 0.085958 0.019191
O O10 0.565534 0.000000 0.000000
O O11 0.813924 0.186077 0.000000
#
# Coordination Sequence:
#
# PCOD9582291 Si02
#       6
#    12   6   6   6  12  12
#     4  11  24  42  66  96 131 176 225 270 326 397
#     4  12  27  50  68  98 132 182 235 290 358 418
#     4  10  24  42  70  94 142 183 226 282 351 406
#     4  12  28  40  73 106 133 174 232 292 346 430
#     4  11  23  41  64  97 130 174 218 266 336 400
#     4  11  22  42  65  97 138 176 222 278 350 413
#
# _framework density 21.110571
#
# number of rings (size 3 to 8) (size 9 to 14) (size 15 to 20)
#    0.000    0.889    3.333    3.444    4.667    2.667 
#    0.667    1.111    0.000    0.000    0.000    0.000 
#    0.000    0.000    0.000    0.000    0.000    0.000 
#
# Total GULP energy -300778.735848 kJ/mol
# GULP energy per Si atom -5569.976590 kJ/mol
# Density = 2.106252 g / cm^3
# Si number density = 21.110571 Si / 1000 Ang^3
#
#
#
# Elastic Constant Matrix: (Units=GPa)
#
#
# Indices 1 2 3 4 5 6 
#
# 1 114.4814 61.5076 40.3096 0.0000 0.0000 0.0000
# 2 61.5076 114.4814 40.3096 0.0000 0.0000 0.0000
# 3 40.3096 40.3096 118.8830 0.0000 0.0000 0.0000
# 4 0.0000 0.0000 0.0000 0.1737 0.0000 0.0000
# 5 0.0000 0.0000 0.0000 0.0000 0.1737 0.0000
# 6 0.0000 0.0000 0.0000 0.0000 0.0000 26.4869
#
#
#
# Elastic Compliance Matrix: (Units=1/GPa)
#
#
# Indices 1 2 3 4 5 6 
#
# 1 0.012802 -0.006075 -0.002281 0.000000 0.000000 0.000000
# 2 -0.006075 0.012802 -0.002281 0.000000 0.000000 0.000000
# 3 -0.002281 -0.002281 0.009958 0.000000 0.000000 0.000000
# 4 0.000000 0.000000 0.000000 5.755762 -0.000002 0.000000
# 5 0.000000 0.000000 0.000000 -0.000002 5.755764 0.000000
# 6 0.000000 0.000000 0.000000 0.000000 0.000000 0.037755
#
#
# Mechanical properties :
#
#
# Convention : Reuss Voigt Hill
#
# Bulk Modulus (GPa) = 69.98498 70.23326 70.10912
# Shear Modulus (GPa) = 0.43063 19.08147 9.75605
#
# Velocity S-wave (km/s) = 0.45214 3.00973 2.15208
# Velocity P-wave (km/s) = 5.78759 6.73939 6.28154
#
# Compressibility (1/GPa) = 0.01428878
#
# Stress axis : x y z
#
# Youngs Moduli (GPa) = 78.11181 78.11181 100.41750
#
# Poissons Ratio (x) = 0.47454 0.22905
# Poissons Ratio (y) = 0.47454 0.22905
# Poissons Ratio (z) = 0.17817 0.17817
#
# Static dielectric constant tensor:
#      x y z
#    x 1.767870 0.000000 0.000000 
#    y 0.000000 1.767870 0.000000 
#    z 0.000000 0.000000 3.077390 
# 
# From -- ./inp_files/533.got.cif
#   From: 2010.05.17/outbox.cif.g08.bks.cpg/sg177_1_cif.got.tgz:533.got - 2010.05.20 11:28:44.
