data_PCOD9582987
_publ_section_title
;
Structure prediction by ZEFSAII (Michael W. Deem and Ramdas Pophale) SiO2 
 PCOD9582987
Probable space group: P 61 2 2
;
_chemical_formula_sum "Si O2"
_cell_formula_units_Z 66
_cell_length_a 14.512910
_cell_length_b 14.512910
_cell_length_c 18.858729
_cell_angle_alpha 90.000000
_cell_angle_beta 90.000000
_cell_angle_gamma 120.000000
_cell_volume 3439.949409
_symmetry_space_group_name_H-M "P 61 2 2"
_symmetry_group_IT_number 178
_symmetry_cell_setting 'hexagonal'
loop_
_space_group_symop_operation_xyz
x,y,z
x-y,x,1/6+z
-y,x-y,1/3+z
-x,-y,1/2+z
-x+y,-x,2/3+z
y,-x+y,5/6+z
x-y,-y,-z
-x,-x+y,2/3-z
y,x,1/3-z
-y,-x,5/6-z
-x+y,y,1/2-z
x,x-y,1/6-z
loop_
_atom_site_type_symbol
_atom_site_label
_atom_site_fract_x
_atom_site_fract_y
_atom_site_fract_z
Si Si1 0.766570 0.533140 0.250000
Si Si2 0.363741 0.076834 0.060863
Si Si3 0.166455 0.494577 0.031699
Si Si4 0.793742 0.387610 0.785287
Si Si5 0.546892 0.895454 0.340581
Si Si6 0.349688 0.414924 0.853721
O O1 0.684365 0.460379 0.187773
O O2 0.726960 0.605349 0.288589
O O3 0.344699 0.172350 0.083334
O O4 0.486529 0.133185 0.033579
O O5 0.352159 0.997131 0.124034
O O6 0.287382 0.000000 0.000000
O O7 0.169033 0.584517 0.083334
O O8 0.156839 0.519051 0.949487
O O9 0.270130 0.485188 0.045824
O O10 0.055053 0.387551 0.041328
O O11 0.683638 0.367276 0.750000
O O12 0.569733 0.873996 0.260565
O O13 0.451506 0.921301 0.332802
#
# Coordination Sequence:
#
# PCOD9582987 Si02
#       6
#     6  12  12  12  12  12
#     4  12  24  40  60  90 134 174 226 264 318 390
#     4  11  25  41  63  95 128 165 219 273 330 391
#     4  12  24  40  67  93 131 176 218 267 330 394
#     4  11  24  38  58  90 126 175 213 261 320 388
#     4  11  23  42  60  92 129 174 216 267 330 392
#     4  11  23  41  61  91 130 170 220 265 323 400
#
# _framework density 19.186330000000002
#
# number of rings (size 3 to 8) (size 9 to 14) (size 15 to 20)
#    0.000    0.727    5.455    2.182   12.727    0.000 
#    0.000    0.000    0.000    0.000    2.364    0.000 
#    0.000    0.000    0.000    0.000    0.000    0.000 
#
# Total GULP energy -368650.548946 kJ/mol
# GULP energy per Si atom -5585.614378 kJ/mol
# Density = 1.914266 g / cm^3
# Si number density = 19.186330 Si / 1000 Ang^3
#
#
#
# Elastic Constant Matrix: (Units=GPa)
#
#
# Indices 1 2 3 4 5 6 
#
# 1 74.7007 32.2182 36.9386 0.0000 0.0000 0.0000
# 2 32.2182 74.7007 36.9386 0.0000 0.0000 0.0000
# 3 36.9386 36.9386 124.2983 0.0000 0.0000 0.0000
# 4 0.0000 0.0000 0.0000 21.5796 0.0000 0.0000
# 5 0.0000 0.0000 0.0000 0.0000 21.5796 0.0000
# 6 0.0000 0.0000 0.0000 0.0000 0.0000 21.2413
#
#
#
# Elastic Compliance Matrix: (Units=1/GPa)
#
#
# Indices 1 2 3 4 5 6 
#
# 1 0.017654 -0.005885 -0.003498 0.000000 0.000000 0.000000
# 2 -0.005885 0.017654 -0.003498 0.000000 0.000000 0.000000
# 3 -0.003498 -0.003498 0.010124 0.000000 0.000000 0.000000
# 4 0.000000 0.000000 0.000000 0.046340 0.000000 0.000000
# 5 0.000000 0.000000 0.000000 0.000000 0.046340 0.000000
# 6 0.000000 0.000000 0.000000 0.000000 0.000000 0.047078
#
#
# Mechanical properties :
#
#
# Convention : Reuss Voigt Hill
#
# Bulk Modulus (GPa) = 50.83202 53.98782 52.40992
# Shear Modulus (GPa) = 22.98759 24.05372 23.52065
#
# Velocity S-wave (km/s) = 3.46515 3.54459 3.50509
# Velocity P-wave (km/s) = 6.52388 6.70462 6.61487
#
# Compressibility (1/GPa) = 0.01967264
#
# Stress axis : x y z
#
# Youngs Moduli (GPa) = 56.64324 56.64324 98.77503
#
# Poissons Ratio (x) = 0.33333 0.34548
# Poissons Ratio (y) = 0.33333 0.34548
# Poissons Ratio (z) = 0.19812 0.19812
#
# Static dielectric constant tensor:
#      x y z
#    x 1.747540 0.000000 0.000000 
#    y 0.000000 1.747540 0.000000 
#    z 0.000000 0.000000 1.883150 
# 
# From -- ./inp_files/6673.got.cif
#   From: 2010.05.17/outbox.cif.g08.bks.cpg/sg178_4_cif.got.tgz:6673.got - 2010.05.20 11:30:59.
