data_PCOD9582043
_publ_section_title
;
Structure prediction by ZEFSAII (Michael W. Deem and Ramdas Pophale) SiO2 
 PCOD9582043
Probable space group: P 63/M
;
_chemical_formula_sum "Si O2"
_cell_formula_units_Z 60
_cell_length_a 15.166883
_cell_length_b 15.166883
_cell_length_c 14.130602
_cell_angle_alpha 90.000000
_cell_angle_beta 90.000000
_cell_angle_gamma 120.000000
_cell_volume 2815.036103
_symmetry_space_group_name_H-M "P 63/M"
_symmetry_group_IT_number 176
_symmetry_cell_setting 'hexagonal'
loop_
_space_group_symop_operation_xyz
x,y,z
x-y,x,1/2+z
-y,x-y,z
-x,-y,1/2+z
-x+y,-x,z
y,-x+y,1/2+z
-x,-y,-z
-x+y,-x,1/2-z
y,-x+y,-z
x,y,1/2-z
x-y,x,-z
-y,x-y,1/2-z
loop_
_atom_site_type_symbol
_atom_site_label
_atom_site_fract_x
_atom_site_fract_y
_atom_site_fract_z
Si Si1 0.777485 0.955203 0.108068
Si Si2 0.829961 0.787082 0.119029
Si Si3 0.095687 0.658241 0.644506
Si Si4 0.877931 0.487782 0.640183
Si Si5 0.820947 0.273032 0.563381
O O1 0.817844 0.882388 0.147192
O O2 0.655224 0.902822 0.112360
O O3 0.853119 0.068062 0.145280
O O4 0.790870 0.960445 0.994718
O O5 0.732240 0.684044 0.150158
O O6 0.139876 0.660648 0.750000
O O7 0.160981 0.698032 0.548359
O O8 0.999714 0.546296 0.626109
O O9 0.860157 0.500917 0.750000
O O10 0.828261 0.369938 0.615250
O O11 0.825989 0.537234 0.577460
#
# Coordination Sequence:
#
# PCOD9582043 Si02
#       5
#    12  12  12  12  12
#     4   9  17  30  60  93 127 171 221 259 324 390
#     4   9  16  32  55  90 130 173 211 264 316 389
#     4  10  22  40  60  88 134 175 211 265 334 399
#     4  11  23  42  67  97 126 165 221 288 337 379
#     4  11  22  40  68  97 129 170 223 277 337 390
#
# _framework density 21.314114
#
# number of rings (size 3 to 8) (size 9 to 14) (size 15 to 20)
#    0.000    2.000    2.000    2.000    2.800    1.600 
#    0.000    4.000    0.000    0.000    0.000    0.000 
#    0.000    0.000    0.000    0.000    0.000    0.000 
#
# Total GULP energy -334658.406620 kJ/mol
# GULP energy per Si atom -5577.640110 kJ/mol
# Density = 2.126560 g / cm^3
# Si number density = 21.314114 Si / 1000 Ang^3
#
#
#
# Elastic Constant Matrix: (Units=GPa)
#
#
# Indices 1 2 3 4 5 6 
#
# 1 45.9249 -2.4737 6.8658 0.0000 0.0000 0.0000
# 2 -2.4737 45.9249 6.8658 0.0000 0.0000 0.0000
# 3 6.8658 6.8658 145.5800 0.0000 0.0000 0.0000
# 4 0.0000 0.0000 0.0000 27.8848 0.0000 0.0000
# 5 0.0000 0.0000 0.0000 0.0000 27.8848 0.0000
# 6 0.0000 0.0000 0.0000 0.0000 0.0000 24.1993
#
#
#
# Elastic Compliance Matrix: (Units=1/GPa)
#
#
# Indices 1 2 3 4 5 6 
#
# 1 0.022012 0.001350 -0.001102 0.000000 0.000000 0.000000
# 2 0.001350 0.022012 -0.001102 0.000000 0.000000 0.000000
# 3 -0.001102 -0.001102 0.006973 0.000000 0.000000 0.000000
# 4 0.000000 0.000000 0.000000 0.035862 0.000000 0.000000
# 5 0.000000 0.000000 0.000000 0.000000 0.035862 0.000000
# 6 0.000000 0.000000 0.000000 0.000000 0.000000 0.041324
#
#
# Mechanical properties :
#
#
# Convention : Reuss Voigt Hill
#
# Bulk Modulus (GPa) = 20.28777 28.88285 24.58531
# Shear Modulus (GPa) = 27.44522 31.07192 29.25857
#
# Velocity S-wave (km/s) = 3.59228 3.82227 3.70906
# Velocity P-wave (km/s) = 5.17157 5.74979 5.46833
#
# Compressibility (1/GPa) = 0.04929078
#
# Stress axis : x y z
#
# Youngs Moduli (GPa) = 45.42948 45.42948 143.41023
#
# Poissons Ratio (x) = -0.06135 0.15801
# Poissons Ratio (y) = -0.06135 0.15801
# Poissons Ratio (z) = 0.05005 0.05005
#
# Static dielectric constant tensor:
#      x y z
#    x 1.750450 0.000000 0.000000 
#    y 0.000000 1.750450 0.000000 
#    z 0.000000 0.000000 1.834150 
# 
# From -- ./inp_files/2636.got.cif
#   From: 2010.05.17/outbox.cif.g08.bks.cpg/sg176_2_cif.got.tgz:2636.got - 2010.06.03 11:36:45.
