data_PCOD9582821
_publ_section_title
;
Structure prediction by ZEFSAII (Michael W. Deem and Ramdas Pophale) SiO2 
 PCOD9582821
Probable space group: P 61 2 2
;
_chemical_formula_sum "Si O2"
_cell_formula_units_Z 30
_cell_length_a 17.233679
_cell_length_b 17.233679
_cell_length_c 4.896330
_cell_angle_alpha 90.000000
_cell_angle_beta 90.000000
_cell_angle_gamma 120.000000
_cell_volume 1259.381505
_symmetry_space_group_name_H-M "P 61 2 2"
_symmetry_group_IT_number 178
_symmetry_cell_setting 'hexagonal'
loop_
_space_group_symop_operation_xyz
x,y,z
x-y,x,1/6+z
-y,x-y,1/3+z
-x,-y,1/2+z
-x+y,-x,2/3+z
y,-x+y,5/6+z
x-y,-y,-z
-x,-x+y,2/3-z
y,x,1/3-z
-y,-x,5/6-z
-x+y,y,1/2-z
x,x-y,1/6-z
loop_
_atom_site_type_symbol
_atom_site_label
_atom_site_fract_x
_atom_site_fract_y
_atom_site_fract_z
Si Si1 0.834471 0.330064 0.005695
Si Si2 0.793049 0.896525 0.583334
Si Si3 0.908471 0.277936 0.505180
O O1 0.731180 0.268821 0.916667
O O2 0.895312 0.568162 0.405100
O O3 0.857750 0.428875 0.083334
O O4 0.845514 0.279666 0.264216
O O5 0.856700 0.856700 0.666667
O O6 0.717095 0.901177 0.771056
O O7 0.000000 0.326668 0.333334
#
# Coordination Sequence:
#
# PCOD9582821 Si02
#       3
#    12   6  12
#     4  12  25  45  71 105 145 194 257 317 390 456
#     4  10  22  46  78 116 162 204 256 310 376 464
#     4  11  24  46  74 107 149 199 249 313 384 452
#
# _framework density 23.821218999999999
#
# number of rings (size 3 to 8) (size 9 to 14) (size 15 to 20)
#    0.000    0.800    4.000    2.400    0.000    6.400 
#    0.000   10.000    0.000    0.000    0.000    0.000 
#    0.000    0.000    0.000    0.000    0.000    0.000 
#
# Total GULP energy -167248.698503 kJ/mol
# GULP energy per Si atom -5574.956617 kJ/mol
# Density = 2.376700 g / cm^3
# Si number density = 23.821219 Si / 1000 Ang^3
#
#
#
# Elastic Constant Matrix: (Units=GPa)
#
#
# Indices 1 2 3 4 5 6 
#
# 1 171.9212 94.3807 69.1930 0.0000 0.0000 0.0000
# 2 94.3807 171.9212 69.1930 0.0000 0.0000 0.0000
# 3 69.1930 69.1930 159.1508 0.0000 0.0000 0.0000
# 4 0.0000 0.0000 0.0000 33.9782 0.0000 0.0000
# 5 0.0000 0.0000 0.0000 0.0000 33.9782 0.0000
# 6 0.0000 0.0000 0.0000 0.0000 0.0000 38.7703
#
#
#
# Elastic Compliance Matrix: (Units=1/GPa)
#
#
# Indices 1 2 3 4 5 6 
#
# 1 0.008874 -0.004023 -0.002109 0.000000 0.000000 0.000000
# 2 -0.004023 0.008874 -0.002109 0.000000 0.000000 0.000000
# 3 -0.002109 -0.002109 0.008117 0.000000 0.000000 0.000000
# 4 0.000000 0.000000 0.000000 0.029431 0.000000 0.000000
# 5 0.000000 0.000000 0.000000 0.000000 0.029431 0.000000
# 6 0.000000 0.000000 0.000000 0.000000 0.000000 0.025793
#
#
# Mechanical properties :
#
#
# Convention : Reuss Voigt Hill
#
# Bulk Modulus (GPa) = 106.57394 107.61406 107.09400
# Shear Modulus (GPa) = 38.42353 39.36044 38.89199
#
# Velocity S-wave (km/s) = 4.02057 4.06929 4.04500
# Velocity P-wave (km/s) = 8.14798 8.20687 8.17747
#
# Compressibility (1/GPa) = 0.00938316
#
# Stress axis : x y z
#
# Youngs Moduli (GPa) = 112.69116 112.69116 123.19408
#
# Poissons Ratio (x) = 0.45332 0.25983
# Poissons Ratio (y) = 0.45332 0.25983
# Poissons Ratio (z) = 0.23768 0.23768
#
# Static dielectric constant tensor:
#      x y z
#    x 2.058670 0.000000 0.000000 
#    y 0.000000 2.058670 0.000000 
#    z 0.000000 0.000000 1.878660 
# 
# From -- ./inp_files/3771.got.cif
#   From: 2010.05.17/outbox.cif.g08.bks.cpg/sg178_2_cif.got.tgz:3771.got - 2010.05.20 11:30:59.
