data_PCOD9582911
_publ_section_title
;
Structure prediction by ZEFSAII (Michael W. Deem and Ramdas Pophale) SiO2 
 PCOD9582911
Probable space group: P 61 2 2
;
_chemical_formula_sum "Si O2"
_cell_formula_units_Z 72
_cell_length_a 13.982195
_cell_length_b 13.982195
_cell_length_c 18.267531
_cell_angle_alpha 90.000000
_cell_angle_beta 90.000000
_cell_angle_gamma 120.000000
_cell_volume 3092.866638
_symmetry_space_group_name_H-M "P 61 2 2"
_symmetry_group_IT_number 178
_symmetry_cell_setting 'hexagonal'
loop_
_space_group_symop_operation_xyz
x,y,z
x-y,x,1/6+z
-y,x-y,1/3+z
-x,-y,1/2+z
-x+y,-x,2/3+z
y,-x+y,5/6+z
x-y,-y,-z
-x,-x+y,2/3-z
y,x,1/3-z
-y,-x,5/6-z
-x+y,y,1/2-z
x,x-y,1/6-z
loop_
_atom_site_type_symbol
_atom_site_label
_atom_site_fract_x
_atom_site_fract_y
_atom_site_fract_z
Si Si1 0.210823 0.217783 0.786357
Si Si2 0.653931 0.864794 0.503207
Si Si3 0.735853 0.962225 0.283368
Si Si4 0.484765 0.210490 0.861824
Si Si5 0.362754 0.453258 0.579870
Si Si6 0.484818 0.640886 0.091706
O O1 0.103690 0.207379 0.750000
O O2 0.196918 0.099435 0.803118
O O3 0.239243 0.280897 0.863161
O O4 0.323528 0.273695 0.739849
O O5 0.621160 0.810580 0.583334
O O6 0.728063 0.814693 0.473992
O O7 0.554014 0.812158 0.446040
O O8 0.717515 0.000000 0.500000
O O9 0.615660 0.895391 0.320984
O O10 0.489931 0.314780 0.820792
O O11 0.602567 0.219800 0.869408
O O12 0.467657 0.438428 0.565874
O O13 0.376879 0.520611 0.653777
O O14 0.549229 0.774615 0.083334
#
# Coordination Sequence:
#
# PCOD9582911 Si02
#       6
#    12  12  12  12  12  12
#     4  11  23  38  68 109 149 198 253 310 375 457
#     4  12  23  41  68  95 146 199 241 300 364 449
#     4  11  22  42  65 103 152 193 252 305 376 452
#     4  11  26  49  71 110 141 191 252 303 386 456
#     4  10  25  46  78 106 146 193 245 311 391 441
#     4  11  27  50  78 109 149 189 251 319 379 461
#
# _framework density 23.279373
#
# number of rings (size 3 to 8) (size 9 to 14) (size 15 to 20)
#    0.000    1.000    5.000    1.000   16.333    2.667 
#    6.000    0.000    0.000    0.000    0.000    0.000 
#    0.000    0.000    0.000    0.000    0.000    0.000 
#
# Total GULP energy -401739.723345 kJ/mol
# GULP energy per Si atom -5579.718380 kJ/mol
# Density = 2.322639 g / cm^3
# Si number density = 23.279373 Si / 1000 Ang^3
#
#
#
# Elastic Constant Matrix: (Units=GPa)
#
#
# Indices 1 2 3 4 5 6 
#
# 1 62.2781 21.8141 29.1610 0.0000 0.0000 0.0000
# 2 21.8141 62.2781 29.1610 0.0000 0.0000 0.0000
# 3 29.1610 29.1610 138.3772 0.0000 0.0000 0.0000
# 4 0.0000 0.0000 0.0000 37.6381 0.0000 0.0000
# 5 0.0000 0.0000 0.0000 0.0000 37.6381 0.0000
# 6 0.0000 0.0000 0.0000 0.0000 0.0000 20.2320
#
#
#
# Elastic Compliance Matrix: (Units=1/GPa)
#
#
# Indices 1 2 3 4 5 6 
#
# 1 0.019320 -0.005393 -0.002935 0.000000 0.000000 0.000000
# 2 -0.005393 0.019320 -0.002935 0.000000 0.000000 0.000000
# 3 -0.002935 -0.002935 0.008464 0.000000 0.000000 0.000000
# 4 0.000000 0.000000 0.000000 0.026569 0.000000 0.000000
# 5 0.000000 0.000000 0.000000 0.000000 0.026569 0.000000
# 6 0.000000 0.000000 0.000000 0.000000 0.000000 0.049427
#
#
# Mechanical properties :
#
#
# Convention : Reuss Voigt Hill
#
# Bulk Modulus (GPa) = 40.68637 47.02287 43.85462
# Shear Modulus (GPa) = 27.71812 31.28811 29.50311
#
# Velocity S-wave (km/s) = 3.45436 3.67007 3.56385
# Velocity P-wave (km/s) = 5.78148 6.18082 5.98448
#
# Compressibility (1/GPa) = 0.02457825
#
# Stress axis : x y z
#
# Youngs Moduli (GPa) = 51.75898 51.75898 118.15258
#
# Poissons Ratio (x) = 0.27914 0.34677
# Poissons Ratio (y) = 0.27914 0.34677
# Poissons Ratio (z) = 0.15191 0.15191
#
# Static dielectric constant tensor:
#      x y z
#    x 1.971410 0.000000 0.000000 
#    y 0.000000 1.971410 0.000000 
#    z 0.000000 0.000000 1.946520 
# 
# From -- ./inp_files/6807.got.cif
#   From: 2010.05.17/outbox.cif.g08.bks.cpg/sg178_4_cif.got.tgz:6807.got - 2010.05.20 11:30:59.
