data_PCOD9582220
_publ_section_title
;
Structure prediction by ZEFSAII (Michael W. Deem and Ramdas Pophale) SiO2 
 PCOD9582220
Probable space group: P 6 2 2
;
_chemical_formula_sum "Si O2"
_cell_formula_units_Z 84
_cell_length_a 17.963024
_cell_length_b 17.963024
_cell_length_c 14.560811
_cell_angle_alpha 90.000000
_cell_angle_beta 90.000000
_cell_angle_gamma 120.000000
_cell_volume 4068.882014
_symmetry_space_group_name_H-M "P 6 2 2"
_symmetry_group_IT_number 177
_symmetry_cell_setting 'hexagonal'
loop_
_space_group_symop_operation_xyz
x,y,z
x-y,x,z
-y,x-y,z
-x,-y,z
-x+y,-x,z
y,-x+y,z
x-y,-y,-z
-x,-x+y,-z
y,x,-z
-y,-x,-z
-x+y,y,-z
x,x-y,-z
loop_
_atom_site_type_symbol
_atom_site_label
_atom_site_fract_x
_atom_site_fract_y
_atom_site_fract_z
Si Si1 0.540249 0.099653 0.891512
Si Si2 0.148773 0.674817 0.729272
Si Si3 0.347190 0.320015 0.670409
Si Si4 0.074669 0.793125 0.064490
Si Si5 0.840609 0.283951 0.181588
Si Si6 0.028199 0.839503 0.260308
Si Si7 0.575556 0.098809 0.599549
O O1 0.480915 0.126662 0.835739
O O2 0.637038 0.164229 0.858904
O O3 0.500000 0.000000 0.863738
O O4 0.550557 0.101113 0.000000
O O5 0.230864 0.767963 0.743223
O O6 0.151922 0.597051 0.675282
O O7 0.073050 0.681814 0.677549
O O8 0.394918 0.326559 0.766141
O O9 0.264293 0.226235 0.671792
O O10 0.426323 0.343223 0.601719
O O11 0.145526 0.770548 0.102628
O O12 0.035322 0.811006 0.155915
O O13 0.123548 0.876453 0.000000
O O14 0.000000 0.721159 0.000000
O O15 0.935834 0.830619 0.272645
O O16 0.564176 0.128351 0.500000
O O17 0.500000 0.000000 0.614497
#
# Coordination Sequence:
#
# PCOD9582220 Si02
#       7
#    12  12  12  12  12  12  12
#     4  11  23  38  58  82 114 161 219 261 310 374
#     4  11  21  40  60  88 126 156 205 267 323 390
#     4  10  19  38  61  91 120 162 209 264 324 391
#     4  11  23  35  53  81 120 167 235 295 340 387
#     4  11  24  35  58  84 119 168 207 268 330 386
#     4  11  22  37  56  88 133 183 231 286 348 404
#     4   9  18  37  69  97 123 156 198 258 334 396
#
# _framework density 20.644492
#
# number of rings (size 3 to 8) (size 9 to 14) (size 15 to 20)
#    0.000    1.429    4.286    2.286    6.000    0.000 
#    0.857    0.714    0.000    1.714    0.000    0.000 
#    0.000    0.000    0.000   33.143    0.000    0.000 
#
# Total GULP energy -467887.328048 kJ/mol
# GULP energy per Si atom -5570.087239 kJ/mol
# Density = 2.059750 g / cm^3
# Si number density = 20.644492 Si / 1000 Ang^3
#
#
#
# Elastic Constant Matrix: (Units=GPa)
#
#
# Indices 1 2 3 4 5 6 
#
# 1 86.1468 49.9219 31.0117 0.0000 0.0000 0.0000
# 2 49.9219 86.1468 31.0117 0.0000 0.0000 0.0000
# 3 31.0117 31.0117 65.1939 0.0000 0.0000 0.0000
# 4 0.0000 0.0000 0.0000 17.8634 0.0000 0.0000
# 5 0.0000 0.0000 0.0000 0.0000 17.8634 0.0000
# 6 0.0000 0.0000 0.0000 0.0000 0.0000 18.1124
#
#
#
# Elastic Compliance Matrix: (Units=1/GPa)
#
#
# Indices 1 2 3 4 5 6 
#
# 1 0.018495 -0.009111 -0.004464 0.000000 0.000000 0.000000
# 2 -0.009111 0.018495 -0.004464 0.000000 0.000000 0.000000
# 3 -0.004464 -0.004464 0.019586 0.000000 0.000000 0.000000
# 4 0.000000 0.000000 0.000000 0.055980 0.000000 0.000000
# 5 0.000000 0.000000 0.000000 0.000000 0.055980 0.000000
# 6 0.000000 0.000000 0.000000 0.000000 0.000000 0.055211
#
#
# Mechanical properties :
#
#
# Convention : Reuss Voigt Hill
#
# Bulk Modulus (GPa) = 48.78460 51.26425 50.02443
# Shear Modulus (GPa) = 18.75076 19.13731 18.94403
#
# Velocity S-wave (km/s) = 3.01702 3.04796 3.03253
# Velocity P-wave (km/s) = 5.98487 6.10513 6.04530
#
# Compressibility (1/GPa) = 0.02049827
#
# Stress axis : x y z
#
# Youngs Moduli (GPa) = 54.06973 54.06973 51.05798
#
# Poissons Ratio (x) = 0.49261 0.22791
# Poissons Ratio (y) = 0.49261 0.22791
# Poissons Ratio (z) = 0.24136 0.24136
#
# Static dielectric constant tensor:
#      x y z
#    x 1.792820 0.000000 0.000000 
#    y 0.000000 1.792820 0.000000 
#    z 0.000000 0.000000 1.772470 
# 
# From -- ./inp_files/2619.got.cif
#   From: 2010.05.17/outbox.cif.g08.bks.cpg/sg177_2_cif.got.tgz:2619.got - 2010.05.20 11:28:44.
