data_PCOD9582400
_publ_section_title
;
Structure prediction by ZEFSAII (Michael W. Deem and Ramdas Pophale) SiO2 
 PCOD9582400
Probable space group: P 61 2 2
;
_chemical_formula_sum "Si O2"
_cell_formula_units_Z 60
_cell_length_a 20.714864
_cell_length_b 20.714864
_cell_length_c 8.084465
_cell_angle_alpha 90.000000
_cell_angle_beta 90.000000
_cell_angle_gamma 120.000000
_cell_volume 3004.319313
_symmetry_space_group_name_H-M "P 61 2 2"
_symmetry_group_IT_number 178
_symmetry_cell_setting 'hexagonal'
loop_
_space_group_symop_operation_xyz
x,y,z
x-y,x,1/6+z
-y,x-y,1/3+z
-x,-y,1/2+z
-x+y,-x,2/3+z
y,-x+y,5/6+z
x-y,-y,-z
-x,-x+y,2/3-z
y,x,1/3-z
-y,-x,5/6-z
-x+y,y,1/2-z
x,x-y,1/6-z
loop_
_atom_site_type_symbol
_atom_site_label
_atom_site_fract_x
_atom_site_fract_y
_atom_site_fract_z
Si Si1 0.051355 0.663081 0.075673
Si Si2 0.425743 0.117474 0.885933
Si Si3 0.440473 0.559528 0.916667
Si Si4 0.148913 0.095589 0.829899
Si Si5 0.177278 0.319522 0.555683
Si Si6 0.536883 0.000000 0.000000
O O1 0.081920 0.738042 0.180667
O O2 0.044960 0.600726 0.200197
O O3 0.103050 0.676355 0.915795
O O4 0.965743 0.629181 0.018846
O O5 0.505053 0.153105 0.784206
O O6 0.381657 0.161549 0.855348
O O7 0.469427 0.532271 0.762325
O O8 0.105444 0.113741 0.966819
O O9 0.133601 0.133601 0.666667
O O10 0.236689 0.129271 0.851308
O O11 0.157555 0.315109 0.750000
#
# Coordination Sequence:
#
# PCOD9582400 Si02
#       6
#    12  12   6  12  12   6
#     4  10  21  35  54  82 121 153 198 238 301 362
#     4  10  22  36  55  84 122 154 191 245 301 368
#     4  10  18  34  56  84 118 146 182 226 282 362
#     4  10  20  35  59  76 106 160 222 277 332 393
#     4  12  21  34  58  85 119 157 203 259 319 377
#     4  10  18  32  58  82 110 150 182 230 278 360
#
# _framework density 19.971245
#
# number of rings (size 3 to 8) (size 9 to 14) (size 15 to 20)
#    0.000    1.600    2.000    6.600    1.400    0.000 
#    0.000    0.000   48.400    0.000    0.000    0.000 
#   90.000    0.000    0.000    0.000    0.000    0.000 
#
# Total GULP energy -334744.507251 kJ/mol
# GULP energy per Si atom -5579.075121 kJ/mol
# Density = 1.992579 g / cm^3
# Si number density = 19.971245 Si / 1000 Ang^3
#
#
#
# Elastic Constant Matrix: (Units=GPa)
#
#
# Indices 1 2 3 4 5 6 
#
# 1 75.8565 55.0547 14.5499 0.0000 0.0000 0.0000
# 2 55.0547 75.8565 14.5499 0.0000 0.0000 0.0000
# 3 14.5499 14.5499 62.0560 0.0000 0.0000 0.0000
# 4 0.0000 0.0000 0.0000 22.4252 0.0000 0.0000
# 5 0.0000 0.0000 0.0000 0.0000 22.4252 0.0000
# 6 0.0000 0.0000 0.0000 0.0000 0.0000 10.4009
#
#
#
# Elastic Compliance Matrix: (Units=1/GPa)
#
#
# Indices 1 2 3 4 5 6 
#
# 1 0.028066 -0.020007 -0.001889 0.000000 0.000000 0.000000
# 2 -0.020007 0.028066 -0.001889 0.000000 0.000000 0.000000
# 3 -0.001889 -0.001889 0.017001 0.000000 0.000000 0.000000
# 4 0.000000 0.000000 0.000000 0.044593 0.000000 0.000000
# 5 0.000000 0.000000 0.000000 0.000000 0.044593 0.000000
# 6 0.000000 0.000000 0.000000 0.000000 0.000000 0.096146
#
#
# Mechanical properties :
#
#
# Convention : Reuss Voigt Hill
#
# Bulk Modulus (GPa) = 39.12348 42.45310 40.78829
# Shear Modulus (GPa) = 15.89543 19.69121 17.79332
#
# Velocity S-wave (km/s) = 2.82426 3.14344 2.98811
# Velocity P-wave (km/s) = 5.50161 5.87181 5.68972
#
# Compressibility (1/GPa) = 0.02556010
#
# Stress axis : x y z
#
# Youngs Moduli (GPa) = 35.63048 35.63048 58.82174
#
# Poissons Ratio (x) = 0.71286 0.11114
# Poissons Ratio (y) = 0.71286 0.11114
# Poissons Ratio (z) = 0.06732 0.06732
#
# Static dielectric constant tensor:
#      x y z
#    x 1.744980 0.000000 0.000000 
#    y 0.000000 1.744980 0.000000 
#    z 0.000000 0.000000 1.812690 
# 
# From -- ./inp_files/3136.got.cif
#   From: 2010.05.17/outbox.cif.g08.bks.cpg/sg178_2_cif.got.tgz:3136.got - 2010.05.20 11:30:59.
