data_PCOD9582513
_publ_section_title
;
Structure prediction by ZEFSAII (Michael W. Deem and Ramdas Pophale) SiO2 
 PCOD9582513
Probable space group: P 61 2 2
;
_chemical_formula_sum "Si O2"
_cell_formula_units_Z 84
_cell_length_a 18.757734
_cell_length_b 18.757734
_cell_length_c 13.176325
_cell_angle_alpha 90.000000
_cell_angle_beta 90.000000
_cell_angle_gamma 120.000000
_cell_volume 4015.001167
_symmetry_space_group_name_H-M "P 61 2 2"
_symmetry_group_IT_number 178
_symmetry_cell_setting 'hexagonal'
loop_
_space_group_symop_operation_xyz
x,y,z
x-y,x,1/6+z
-y,x-y,1/3+z
-x,-y,1/2+z
-x+y,-x,2/3+z
y,-x+y,5/6+z
x-y,-y,-z
-x,-x+y,2/3-z
y,x,1/3-z
-y,-x,5/6-z
-x+y,y,1/2-z
x,x-y,1/6-z
loop_
_atom_site_type_symbol
_atom_site_label
_atom_site_fract_x
_atom_site_fract_y
_atom_site_fract_z
Si Si1 0.157312 0.726769 0.487335
Si Si2 0.119625 0.000000 0.000000
Si Si3 0.471393 0.236375 0.881778
Si Si4 0.992003 0.570310 0.714304
Si Si5 0.422750 0.592185 0.803832
Si Si6 0.863613 0.431807 0.583334
Si Si7 0.714011 0.847908 0.775176
Si Si8 0.008714 0.296271 0.588775
O O1 0.194696 0.805305 0.416667
O O2 0.202811 0.750478 0.597597
O O3 0.170153 0.657566 0.431950
O O4 0.060863 0.690825 0.501250
O O5 0.047297 0.952704 0.916667
O O6 0.208896 0.072747 0.960786
O O7 0.538516 0.214395 0.924498
O O8 0.517504 0.334649 0.890041
O O9 0.381138 0.178811 0.931805
O O10 0.078358 0.578555 0.680668
O O11 0.979078 0.640523 0.661818
O O12 0.000000 0.583571 0.833334
O O13 0.921005 0.482108 0.678066
O O14 0.396249 0.603752 0.916667
O O15 0.720316 0.796253 0.868157
O O16 0.721461 0.935167 0.799953
#
# Coordination Sequence:
#
# PCOD9582513 Si02
#       8
#    12   6  12  12  12   6  12  12
#     4  10  22  41  69  89 126 183 234 268 335 402
#     4  12  26  44  76 104 134 178 222 278 364 440
#     4  10  23  40  63  96 138 177 225 286 336 386
#     4  12  24  39  66  95 132 177 221 271 344 398
#     4  10  19  42  61  87 132 177 217 274 324 391
#     4  12  24  44  60 102 142 170 230 294 320 402
#     4  11  22  42  68  94 133 175 219 277 343 414
#     4  11  22  44  65  98 135 168 224 286 340 405
#
# _framework density 20.921538999999999
#
# number of rings (size 3 to 8) (size 9 to 14) (size 15 to 20)
#    0.000    1.143    7.857    0.000    4.000    0.000 
#    0.000    4.286    0.000    0.000    0.000    0.000 
#    0.000    0.000    0.000    0.000    0.000    0.000 
#
# Total GULP energy -468193.799794 kJ/mol
# GULP energy per Si atom -5573.735712 kJ/mol
# Density = 2.087392 g / cm^3
# Si number density = 20.921539 Si / 1000 Ang^3
#
#
#
# Elastic Constant Matrix: (Units=GPa)
#
#
# Indices 1 2 3 4 5 6 
#
# 1 124.1038 52.9714 20.2858 0.0000 0.0000 0.0000
# 2 52.9714 124.1038 20.2858 0.0000 0.0000 0.0000
# 3 20.2858 20.2858 30.1252 0.0000 0.0000 0.0000
# 4 0.0000 0.0000 0.0000 14.5234 0.0000 0.0000
# 5 0.0000 0.0000 0.0000 0.0000 14.5234 0.0000
# 6 0.0000 0.0000 0.0000 0.0000 0.0000 35.5662
#
#
#
# Elastic Compliance Matrix: (Units=1/GPa)
#
#
# Indices 1 2 3 4 5 6 
#
# 1 0.010368 -0.003690 -0.004497 0.000000 0.000000 0.000000
# 2 -0.003690 0.010368 -0.004497 0.000000 0.000000 0.000000
# 3 -0.004497 -0.004497 0.039251 0.000000 0.000000 0.000000
# 4 0.000000 0.000000 0.000000 0.068854 0.000000 0.000000
# 5 0.000000 0.000000 0.000000 0.000000 0.068854 0.000000
# 6 0.000000 0.000000 0.000000 0.000000 0.000000 0.028117
#
#
# Mechanical properties :
#
#
# Convention : Reuss Voigt Hill
#
# Bulk Modulus (GPa) = 28.88545 51.71320 40.29932
# Shear Modulus (GPa) = 19.03175 25.24191 22.13683
#
# Velocity S-wave (km/s) = 3.01935 3.47724 3.25636
# Velocity P-wave (km/s) = 5.09822 6.39476 5.78294
#
# Compressibility (1/GPa) = 0.03461951
#
# Stress axis : x y z
#
# Youngs Moduli (GPa) = 96.45119 96.45119 25.47726
#
# Poissons Ratio (x) = 0.35594 0.11456
# Poissons Ratio (y) = 0.35594 0.11456
# Poissons Ratio (z) = 0.43370 0.43370
#
# Static dielectric constant tensor:
#      x y z
#    x 1.797200 0.000000 0.000000 
#    y 0.000000 1.797200 0.000000 
#    z 0.000000 0.000000 1.777530 
# 
# From -- ./inp_files/6059.got.cif
#   From: 2010.05.17/outbox.cif.g08.bks.cpg/sg178_4_cif.got.tgz:6059.got - 2010.05.20 11:30:59.
