data_PCOD9582461
_publ_section_title
;
Structure prediction by ZEFSAII (Michael W. Deem and Ramdas Pophale) SiO2 
 PCOD9582461
Probable space group: P 61 2 2
;
_chemical_formula_sum "Si O2"
_cell_formula_units_Z 84
_cell_length_a 33.188797
_cell_length_b 33.188797
_cell_length_c 5.356258
_cell_angle_alpha 90.000000
_cell_angle_beta 90.000000
_cell_angle_gamma 120.000000
_cell_volume 5109.461618
_symmetry_space_group_name_H-M "P 61 2 2"
_symmetry_group_IT_number 178
_symmetry_cell_setting 'hexagonal'
loop_
_space_group_symop_operation_xyz
x,y,z
x-y,x,1/6+z
-y,x-y,1/3+z
-x,-y,1/2+z
-x+y,-x,2/3+z
y,-x+y,5/6+z
x-y,-y,-z
-x,-x+y,2/3-z
y,x,1/3-z
-y,-x,5/6-z
-x+y,y,1/2-z
x,x-y,1/6-z
loop_
_atom_site_type_symbol
_atom_site_label
_atom_site_fract_x
_atom_site_fract_y
_atom_site_fract_z
Si Si1 0.179280 0.650834 0.453409
Si Si2 0.628344 0.484015 0.796028
Si Si3 0.970758 0.613024 0.094784
Si Si4 0.484452 0.434993 0.286700
Si Si5 0.717849 0.583157 0.335392
Si Si6 0.319417 0.727516 0.656442
Si Si7 0.560918 0.823133 0.657648
O O1 0.175774 0.630035 0.727971
O O2 0.154834 0.681826 0.498729
O O3 0.229596 0.679999 0.324816
O O4 0.151419 0.613944 0.236686
O O5 0.598859 0.508563 0.731083
O O6 0.682905 0.523182 0.830225
O O7 0.920453 0.608334 0.125419
O O8 0.000000 0.640521 0.333334
O O9 0.960156 0.559804 0.117462
O O10 0.000000 0.632722 0.833334
O O11 0.469963 0.469963 0.166667
O O12 0.533199 0.466802 0.416667
O O13 0.747247 0.593319 0.585470
O O14 0.745847 0.588585 0.081844
O O15 0.306965 0.693036 0.416667
O O16 0.370502 0.741004 0.750000
O O17 0.289764 0.710237 0.916667
O O18 0.537806 0.768903 0.583334
#
# Coordination Sequence:
#
# PCOD9582461 Si02
#       7
#    12  12  12  12  12  12  12
#     4  10  22  37  57  80 101 122 150 181 232 270
#     4  10  22  39  57  80 107 132 157 200 228 277
#     4  11  22  36  58  77 105 136 168 196 232 281
#     4  11  24  38  57  80 106 138 175 198 241 288
#     4  10  20  36  54  81 104 132 161 198 234 276
#     4  12  26  45  66  84 100 122 152 191 239 296
#     4  10  19  33  54  78 100 130 162 198 241 281
#
# _framework density 16.440089
#
# number of rings (size 3 to 8) (size 9 to 14) (size 15 to 20)
#    0.000    1.429    2.857    3.429    6.000    9.143 
#    0.000    0.000    0.000    0.000    0.000    0.000 
#    0.000    0.000    0.000    0.000    0.000    0.000 
#
# Total GULP energy -468348.643790 kJ/mol
# GULP energy per Si atom -5575.579093 kJ/mol
# Density = 1.640267 g / cm^3
# Si number density = 16.440089 Si / 1000 Ang^3
#
#
#
# Elastic Constant Matrix: (Units=GPa)
#
#
# Indices 1 2 3 4 5 6 
#
# 1 50.3991 17.7543 15.5934 0.0000 0.0000 0.0000
# 2 17.7543 50.3991 15.5934 0.0000 0.0000 0.0000
# 3 15.5934 15.5934 133.0156 0.0000 0.0000 0.0000
# 4 0.0000 0.0000 0.0000 22.6669 0.0000 0.0000
# 5 0.0000 0.0000 0.0000 0.0000 22.6669 0.0000
# 6 0.0000 0.0000 0.0000 0.0000 0.0000 16.3224
#
#
#
# Elastic Compliance Matrix: (Units=1/GPa)
#
#
# Indices 1 2 3 4 5 6 
#
# 1 0.023069 -0.007564 -0.001818 0.000000 0.000000 0.000000
# 2 -0.007564 0.023069 -0.001818 0.000000 0.000000 0.000000
# 3 -0.001818 -0.001818 0.007944 0.000000 0.000000 0.000000
# 4 0.000000 0.000000 0.000000 0.044117 0.000000 0.000000
# 5 0.000000 0.000000 0.000000 0.000000 0.044117 0.000000
# 6 0.000000 0.000000 0.000000 0.000000 0.000000 0.061265
#
#
# Mechanical properties :
#
#
# Convention : Reuss Voigt Hill
#
# Bulk Modulus (GPa) = 31.56295 36.85512 34.20904
# Shear Modulus (GPa) = 21.13801 24.65608 22.89705
#
# Velocity S-wave (km/s) = 3.58964 3.87687 3.73601
# Velocity P-wave (km/s) = 6.03499 6.51971 6.28203
#
# Compressibility (1/GPa) = 0.03168271
#
# Stress axis : x y z
#
# Youngs Moduli (GPa) = 43.34895 43.34895 125.88004
#
# Poissons Ratio (x) = 0.32790 0.22880
# Poissons Ratio (y) = 0.32790 0.22880
# Poissons Ratio (z) = 0.07879 0.07879
#
# Static dielectric constant tensor:
#      x y z
#    x 1.535060 0.000000 0.000000 
#    y 0.000000 1.535060 0.000000 
#    z 0.000000 0.000000 1.693870 
# 
# From -- ./inp_files/1737.got.cif
#   From: 2010.05.17/outbox.cif.g08.bks.cpg/sg178_1_cif.got.tgz:1737.got - 2010.05.20 11:30:59.
