data_PCOD9582818
_publ_section_title
;
Structure prediction by ZEFSAII (Michael W. Deem and Ramdas Pophale) SiO2 
 PCOD9582818
Probable space group: P 61 2 2
;
_chemical_formula_sum "Si O2"
_cell_formula_units_Z 54
_cell_length_a 12.369809
_cell_length_b 12.369809
_cell_length_c 17.858804
_cell_angle_alpha 90.000000
_cell_angle_beta 90.000000
_cell_angle_gamma 120.000000
_cell_volume 2366.513522
_symmetry_space_group_name_H-M "P 61 2 2"
_symmetry_group_IT_number 178
_symmetry_cell_setting 'hexagonal'
loop_
_space_group_symop_operation_xyz
x,y,z
x-y,x,1/6+z
-y,x-y,1/3+z
-x,-y,1/2+z
-x+y,-x,2/3+z
y,-x+y,5/6+z
x-y,-y,-z
-x,-x+y,2/3-z
y,x,1/3-z
-y,-x,5/6-z
-x+y,y,1/2-z
x,x-y,1/6-z
loop_
_atom_site_type_symbol
_atom_site_label
_atom_site_fract_x
_atom_site_fract_y
_atom_site_fract_z
Si Si1 0.842356 0.157645 0.416667
Si Si2 0.274753 0.296983 0.837466
Si Si3 0.248894 0.497787 0.750000
Si Si4 0.628446 0.495740 0.639506
Si Si5 0.912600 0.255327 0.167445
Si Si6 0.933075 0.000000 0.000000
O O1 0.845176 0.252396 0.354050
O O2 0.979419 0.220599 0.454394
O O3 0.296124 0.408521 0.783964
O O4 0.332667 0.209889 0.818899
O O5 0.125720 0.199749 0.837355
O O6 0.315047 0.346256 0.921423
O O7 0.233838 0.585245 0.810407
O O8 0.518683 0.518683 0.666667
O O9 0.663160 0.542088 0.554401
O O10 0.992578 0.007423 0.916667
#
# Coordination Sequence:
#
# PCOD9582818 Si02
#       6
#     6  12   6  12  12   6
#     4  10  22  46  71 105 140 188 242 294 370 428
#     4  12  24  39  71 104 145 177 240 296 373 442
#     4  12  28  48  71 101 144 198 238 296 376 432
#     4  10  25  46  70  98 141 192 238 297 349 433
#     4  11  23  42  69 108 140 182 238 302 360 440
#     4  12  24  38  62 110 150 196 224 292 388 454
#
# _framework density 22.818377999999999
#
# number of rings (size 3 to 8) (size 9 to 14) (size 15 to 20)
#    0.000    0.889    5.556    0.000    6.222    2.667 
#    4.000    0.000    0.000    0.000    0.000    0.000 
#    0.000    0.000    0.000    0.000    0.000    0.000 
#
# Total GULP energy -301775.365915 kJ/mol
# GULP energy per Si atom -5588.432702 kJ/mol
# Density = 2.276644 g / cm^3
# Si number density = 22.818378 Si / 1000 Ang^3
#
#
#
# Elastic Constant Matrix: (Units=GPa)
#
#
# Indices 1 2 3 4 5 6 
#
# 1 65.6878 25.7276 13.7126 0.0000 0.0000 0.0000
# 2 25.7276 65.6878 13.7126 0.0000 0.0000 0.0000
# 3 13.7126 13.7126 106.9488 0.0000 0.0000 0.0000
# 4 0.0000 0.0000 0.0000 21.4594 0.0000 0.0000
# 5 0.0000 0.0000 0.0000 0.0000 21.4594 0.0000
# 6 0.0000 0.0000 0.0000 0.0000 0.0000 19.9801
#
#
#
# Elastic Compliance Matrix: (Units=1/GPa)
#
#
# Indices 1 2 3 4 5 6 
#
# 1 0.018201 -0.006824 -0.001459 0.000000 0.000000 0.000000
# 2 -0.006824 0.018201 -0.001459 0.000000 0.000000 0.000000
# 3 -0.001459 -0.001459 0.009724 0.000000 0.000000 0.000000
# 4 0.000000 0.000000 0.000000 0.046600 0.000000 0.000000
# 5 0.000000 0.000000 0.000000 0.000000 0.046600 0.000000
# 6 0.000000 0.000000 0.000000 0.000000 0.000000 0.050050
#
#
# Mechanical properties :
#
#
# Convention : Reuss Voigt Hill
#
# Bulk Modulus (GPa) = 37.53334 38.29223 37.91278
# Shear Modulus (GPa) = 22.96331 24.92457 23.94394
#
# Velocity S-wave (km/s) = 3.17575 3.30859 3.24285
# Velocity P-wave (km/s) = 5.47098 5.60476 5.53827
#
# Compressibility (1/GPa) = 0.02664298
#
# Stress axis : x y z
#
# Youngs Moduli (GPa) = 54.94267 54.94267 102.83492
#
# Poissons Ratio (x) = 0.37493 0.15000
# Poissons Ratio (y) = 0.37493 0.15000
# Poissons Ratio (z) = 0.08014 0.08014
#
# Static dielectric constant tensor:
#      x y z
#    x 1.880810 0.000000 0.000000 
#    y 0.000000 1.880810 0.000000 
#    z 0.000000 0.000000 1.903190 
# 
# From -- ./inp_files/7448.got.cif
#   From: 2010.05.17/outbox.cif.g08.bks.cpg/sg178_4_cif.got.tgz:7448.got - 2010.05.20 11:30:59.
