data_PCOD9582897
_publ_section_title
;
Structure prediction by ZEFSAII (Michael W. Deem and Ramdas Pophale) SiO2 
 PCOD9582897
Probable space group: P 61 2 2
;
_chemical_formula_sum "Si O2"
_cell_formula_units_Z 36
_cell_length_a 7.284003
_cell_length_b 7.284003
_cell_length_c 30.737200
_cell_angle_alpha 90.000000
_cell_angle_beta 90.000000
_cell_angle_gamma 120.000000
_cell_volume 1412.326691
_symmetry_space_group_name_H-M "P 61 2 2"
_symmetry_group_IT_number 178
_symmetry_cell_setting 'hexagonal'
loop_
_space_group_symop_operation_xyz
x,y,z
x-y,x,1/6+z
-y,x-y,1/3+z
-x,-y,1/2+z
-x+y,-x,2/3+z
y,-x+y,5/6+z
x-y,-y,-z
-x,-x+y,2/3-z
y,x,1/3-z
-y,-x,5/6-z
-x+y,y,1/2-z
x,x-y,1/6-z
loop_
_atom_site_type_symbol
_atom_site_label
_atom_site_fract_x
_atom_site_fract_y
_atom_site_fract_z
Si Si1 0.302781 0.151391 0.083334
Si Si2 0.986769 0.375272 0.946421
Si Si3 0.440500 0.423073 0.964163
Si Si4 0.220902 0.000000 0.000000
O O1 0.453925 0.402404 0.078177
O O2 0.154184 0.078001 0.041716
O O3 0.812923 0.187078 0.916667
O O4 0.204402 0.372302 0.952722
O O5 0.933980 0.403878 0.997030
O O6 0.542472 0.457529 0.916667
O O7 0.427923 0.214229 0.985716
#
# Coordination Sequence:
#
# PCOD9582897 Si02
#       4
#     6  12  12   6
#     4  10  24  46  70 106 150 204 254 318 404 476
#     4  11  27  46  77 108 154 206 264 334 402 482
#     4  11  27  47  73 113 153 205 269 332 404 490
#     4  10  26  44  74 104 152 200 256 324 404 468
#
# _framework density 25.489853
#
# number of rings (size 3 to 8) (size 9 to 14) (size 15 to 20)
#    0.000    1.333    1.667    0.000   21.000    1.333 
#    0.000    0.000    0.000    0.000    0.000    0.000 
#    0.000    0.000    0.000    0.000    0.000    0.000 
#
# Total GULP energy -200854.992321 kJ/mol
# GULP energy per Si atom -5579.305342 kJ/mol
# Density = 2.543184 g / cm^3
# Si number density = 25.489853 Si / 1000 Ang^3
#
#
#
# Elastic Constant Matrix: (Units=GPa)
#
#
# Indices 1 2 3 4 5 6 
#
# 1 92.4076 28.1511 47.2258 0.0000 0.0000 0.0000
# 2 28.1511 92.4076 47.2258 0.0000 0.0000 0.0000
# 3 47.2258 47.2258 246.7141 0.0000 0.0000 0.0000
# 4 0.0000 0.0000 0.0000 38.4956 0.0000 0.0000
# 5 0.0000 0.0000 0.0000 0.0000 38.4956 0.0000
# 6 0.0000 0.0000 0.0000 0.0000 0.0000 32.1283
#
#
#
# Elastic Compliance Matrix: (Units=1/GPa)
#
#
# Indices 1 2 3 4 5 6 
#
# 1 0.012660 -0.002902 -0.001868 0.000000 0.000000 0.000000
# 2 -0.002902 0.012660 -0.001868 0.000000 0.000000 0.000000
# 3 -0.001868 -0.001868 0.004768 0.000000 0.000000 0.000000
# 4 0.000000 0.000000 0.000000 0.025977 0.000000 0.000000
# 5 0.000000 0.000000 0.000000 0.000000 0.025977 0.000000
# 6 0.000000 0.000000 0.000000 0.000000 0.000000 0.031125
#
#
# Mechanical properties :
#
#
# Convention : Reuss Voigt Hill
#
# Bulk Modulus (GPa) = 59.47765 75.19275 67.33520
# Shear Modulus (GPa) = 37.86480 42.41900 40.14190
#
# Velocity S-wave (km/s) = 3.85838 4.08383 3.97270
# Velocity P-wave (km/s) = 6.57526 7.19722 6.89326
#
# Compressibility (1/GPa) = 0.01681304
#
# Stress axis : x y z
#
# Youngs Moduli (GPa) = 78.98669 78.98669 209.71514
#
# Poissons Ratio (x) = 0.22924 0.39172
# Poissons Ratio (y) = 0.22924 0.39172
# Poissons Ratio (z) = 0.14754 0.14754
#
# Static dielectric constant tensor:
#      x y z
#    x 2.062860 0.000000 0.000000 
#    y 0.000000 2.062860 0.000000 
#    z 0.000000 0.000000 2.148570 
# 
# From -- ./inp_files/9144.got.cif
#   From: 2010.05.17/outbox.cif.g08.bks.cpg/sg178_5_cif.got.tgz:9144.got - 2010.05.20 11:30:59.
