data_PCOD9582353
_publ_section_title
;
Structure prediction by ZEFSAII (Michael W. Deem and Ramdas Pophale) SiO2 
 PCOD9582353
Probable space group: P 61 2 2
;
_chemical_formula_sum "Si O2"
_cell_formula_units_Z 48
_cell_length_a 15.885773
_cell_length_b 15.885773
_cell_length_c 12.243311
_cell_angle_alpha 90.000000
_cell_angle_beta 90.000000
_cell_angle_gamma 120.000000
_cell_volume 2675.754213
_symmetry_space_group_name_H-M "P 61 2 2"
_symmetry_group_IT_number 178
_symmetry_cell_setting 'hexagonal'
loop_
_space_group_symop_operation_xyz
x,y,z
x-y,x,1/6+z
-y,x-y,1/3+z
-x,-y,1/2+z
-x+y,-x,2/3+z
y,-x+y,5/6+z
x-y,-y,-z
-x,-x+y,2/3-z
y,x,1/3-z
-y,-x,5/6-z
-x+y,y,1/2-z
x,x-y,1/6-z
loop_
_atom_site_type_symbol
_atom_site_label
_atom_site_fract_x
_atom_site_fract_y
_atom_site_fract_z
Si Si1 0.074917 0.907466 0.741009
Si Si2 0.419439 0.753055 0.869711
Si Si3 0.544355 0.646654 0.613301
Si Si4 0.612454 0.774196 0.409840
O O1 0.162380 0.887806 0.716567
O O2 0.010307 0.893060 0.635289
O O3 0.000000 0.832356 0.833334
O O4 0.355552 0.644449 0.916667
O O5 0.375133 0.750265 0.750000
O O6 0.396027 0.825229 0.938144
O O7 0.534218 0.799959 0.854024
O O8 0.574031 0.574031 0.666667
O O9 0.589548 0.685357 0.492609
O O10 0.586826 0.742077 0.687829
#
# Coordination Sequence:
#
# PCOD9582353 Si02
#       4
#    12  12  12  12
#     4  10  19  33  57  85 111 136 182 237 293 346
#     4  10  18  34  53  76 111 160 192 231 282 351
#     4  10  17  29  51  75 108 145 190 243 279 329
#     4  10  18  31  53  80 111 139 191 237 285 334
#
# _framework density 17.938866999999998
#
# number of rings (size 3 to 8) (size 9 to 14) (size 15 to 20)
#    0.000    2.000    5.000    5.250    0.000    0.000 
#    0.000    6.250    0.000    7.500    0.000    0.000 
#    0.000    0.000    0.000    0.000    0.000    0.000 
#
# Total GULP energy -267582.272887 kJ/mol
# GULP energy per Si atom -5574.630685 kJ/mol
# Density = 1.789804 g / cm^3
# Si number density = 17.938867 Si / 1000 Ang^3
#
#
#
# Elastic Constant Matrix: (Units=GPa)
#
#
# Indices 1 2 3 4 5 6 
#
# 1 106.0059 52.7367 41.6074 0.0000 0.0000 0.0000
# 2 52.7367 106.0059 41.6074 0.0000 0.0000 0.0000
# 3 41.6074 41.6074 42.3957 0.0000 0.0000 0.0000
# 4 0.0000 0.0000 0.0000 22.3178 0.0000 0.0000
# 5 0.0000 0.0000 0.0000 0.0000 22.3178 0.0000
# 6 0.0000 0.0000 0.0000 0.0000 0.0000 26.6346
#
#
#
# Elastic Compliance Matrix: (Units=1/GPa)
#
#
# Indices 1 2 3 4 5 6 
#
# 1 0.015873 -0.002899 -0.012733 0.000000 0.000000 0.000000
# 2 -0.002899 0.015873 -0.012733 0.000000 0.000000 0.000000
# 3 -0.012733 -0.012733 0.048580 0.000000 0.000000 0.000000
# 4 0.000000 0.000000 0.000000 0.044807 0.000000 0.000000
# 5 0.000000 0.000000 0.000000 0.000000 0.044807 0.000000
# 6 0.000000 0.000000 0.000000 0.000000 0.000000 0.037545
#
#
# Mechanical properties :
#
#
# Convention : Reuss Voigt Hill
#
# Bulk Modulus (GPa) = 42.37961 58.47892 50.42926
# Shear Modulus (GPa) = 18.37679 22.15111 20.26395
#
# Velocity S-wave (km/s) = 3.20412 3.51780 3.36462
# Velocity P-wave (km/s) = 6.11263 7.01211 6.57776
#
# Compressibility (1/GPa) = 0.02359625
#
# Stress axis : x y z
#
# Youngs Moduli (GPa) = 62.99828 62.99828 20.58467
#
# Poissons Ratio (x) = 0.18264 0.26211
# Poissons Ratio (y) = 0.18264 0.26211
# Poissons Ratio (z) = 0.80216 0.80216
#
# Static dielectric constant tensor:
#      x y z
#    x 1.635020 0.000000 0.000000 
#    y 0.000000 1.635020 0.000000 
#    z 0.000000 0.000000 1.629230 
# 
# From -- ./inp_files/5386.got.cif
#   From: 2010.05.17/outbox.cif.g08.bks.cpg/sg178_3_cif.got.tgz:5386.got - 2010.05.20 11:30:59.
