data_PCOD9582324
_publ_section_title
;
Structure prediction by ZEFSAII (Michael W. Deem and Ramdas Pophale) SiO2 
 PCOD9582324
Probable space group: P 6 2 2
;
_chemical_formula_sum "Si O2"
_cell_formula_units_Z 84
_cell_length_a 21.000000
_cell_length_b 21.000000
_cell_length_c 12.000000
_cell_angle_alpha 90.000000
_cell_angle_beta 90.000000
_cell_angle_gamma 120.000000
_cell_volume 4583.006437
_symmetry_space_group_name_H-M "P 6 2 2"
_symmetry_group_IT_number 177
_symmetry_cell_setting 'hexagonal'
loop_
_space_group_symop_operation_xyz
x,y,z
x-y,x,z
-y,x-y,z
-x,-y,z
-x+y,-x,z
y,-x+y,z
x-y,-y,-z
-x,-x+y,-z
y,x,-z
-y,-x,-z
-x+y,y,-z
x,x-y,-z
loop_
_atom_site_type_symbol
_atom_site_label
_atom_site_fract_x
_atom_site_fract_y
_atom_site_fract_z
Si Si1 0.809150 0.473867 0.147551
Si Si2 0.509367 0.176676 0.111711
Si Si3 0.310546 0.159577 0.880130
Si Si4 0.036884 0.354011 0.876504
Si Si5 0.728465 0.926984 0.570823
Si Si6 0.712314 0.608582 0.725237
Si Si7 0.118962 0.948328 0.213337
O O1 0.813994 0.400490 0.150646
O O2 0.734288 0.477307 0.143253
O O3 0.854165 0.523057 0.251867
O O4 0.837351 0.500827 0.021778
O O5 0.435002 0.104963 0.151033
O O6 0.301663 0.229585 0.858486
O O7 0.361695 0.151222 0.791231
O O8 0.233379 0.084008 0.881868
O O9 0.347958 0.173979 0.000000
O O10 0.972365 0.331328 0.790132
O O11 0.000000 0.341144 0.000000
O O12 0.719272 0.859636 0.500000
O O13 0.648815 0.911861 0.608717
O O14 0.780387 0.936196 0.676342
O O15 0.769017 0.000000 0.500000
O O16 0.031503 0.893906 0.210330
#
# Coordination Sequence:
#
# PCOD9582324 Si02
#       7
#    12  12  12  12  12  12  12
#     4  10  19  36  52  86 118 167 193 227 272 339
#     4  10  20  33  56  81 129 161 199 223 270 340
#     4  11  20  34  52  76 113 157 195 236 284 353
#     4  12  21  33  54  85 116 160 195 237 285 347
#     4  11  23  40  59  81 104 141 197 264 317 354
#     4  11  23  35  57  83 119 148 200 241 297 357
#     4  11  23  36  53  77 108 147 198 250 311 364
#
# _framework density 18.328579999999999
#
# number of rings (size 3 to 8) (size 9 to 14) (size 15 to 20)
#    0.000    1.143    5.714    2.143    2.000    1.714 
#    0.000    0.000    0.000    0.857    0.000    7.000 
#    0.000    0.000    0.000    0.000    0.000    0.000 
#
# Total GULP energy -467799.441700 kJ/mol
# GULP energy per Si atom -5569.040973 kJ/mol
# Density = 1.828686 g / cm^3
# Si number density = 18.328580 Si / 1000 Ang^3
#
#
#
# Elastic Constant Matrix: (Units=GPa)
#
#
# Indices 1 2 3 4 5 6 
#
# 1 100.1003 47.2025 20.3202 0.0000 0.0000 0.0000
# 2 47.2025 100.1003 20.3202 0.0000 0.0000 0.0000
# 3 20.3202 20.3202 36.9694 0.0000 0.0000 0.0000
# 4 0.0000 0.0000 0.0000 5.4561 0.0000 0.0000
# 5 0.0000 0.0000 0.0000 0.0000 5.4561 0.0000
# 6 0.0000 0.0000 0.0000 0.0000 0.0000 26.4489
#
#
#
# Elastic Compliance Matrix: (Units=1/GPa)
#
#
# Indices 1 2 3 4 5 6 
#
# 1 0.013453 -0.005451 -0.004398 0.000000 0.000000 0.000000
# 2 -0.005451 0.013453 -0.004398 0.000000 0.000000 0.000000
# 3 -0.004398 -0.004398 0.031885 0.000000 0.000000 0.000000
# 4 0.000000 0.000000 0.000000 0.183280 0.000000 0.000000
# 5 0.000000 0.000000 0.000000 0.000000 0.183280 0.000000
# 6 0.000000 0.000000 0.000000 0.000000 0.000000 0.037809
#
#
# Mechanical properties :
#
#
# Convention : Reuss Voigt Hill
#
# Bulk Modulus (GPa) = 33.00834 45.87287 39.44061
# Shear Modulus (GPa) = 9.96505 17.42738 13.69621
#
# Velocity S-wave (km/s) = 2.33424 3.08690 2.73657
# Velocity P-wave (km/s) = 5.03123 6.14717 5.61698
#
# Compressibility (1/GPa) = 0.03029537
#
# Stress axis : x y z
#
# Youngs Moduli (GPa) = 74.33113 74.33113 31.36305
#
# Poissons Ratio (x) = 0.40518 0.13795
# Poissons Ratio (y) = 0.40518 0.13795
# Poissons Ratio (z) = 0.32694 0.32694
#
# Static dielectric constant tensor:
#      x y z
#    x 1.765990 0.000000 0.000000 
#    y 0.000000 1.765990 0.000000 
#    z 0.000000 0.000000 1.604690 
# 
# From -- ./inp_files/2090.got.cif
#   From: 2010.05.17/outbox.ucp.g08.bks.cvg/sg177_2_cif.got.tgz:2090.got - 2010.06.11 15:19:11.
