data_PCOD9582819
_publ_section_title
;
Structure prediction by ZEFSAII (Michael W. Deem and Ramdas Pophale) SiO2 
 PCOD9582819
Probable space group: P 61 2 2
;
_chemical_formula_sum "Si O2"
_cell_formula_units_Z 72
_cell_length_a 15.189254
_cell_length_b 15.189254
_cell_length_c 15.114297
_cell_angle_alpha 90.000000
_cell_angle_beta 90.000000
_cell_angle_gamma 120.000000
_cell_volume 3019.892426
_symmetry_space_group_name_H-M "P 61 2 2"
_symmetry_group_IT_number 178
_symmetry_cell_setting 'hexagonal'
loop_
_space_group_symop_operation_xyz
x,y,z
x-y,x,1/6+z
-y,x-y,1/3+z
-x,-y,1/2+z
-x+y,-x,2/3+z
y,-x+y,5/6+z
x-y,-y,-z
-x,-x+y,2/3-z
y,x,1/3-z
-y,-x,5/6-z
-x+y,y,1/2-z
x,x-y,1/6-z
loop_
_atom_site_type_symbol
_atom_site_label
_atom_site_fract_x
_atom_site_fract_y
_atom_site_fract_z
Si Si1 0.283746 0.567492 0.250000
Si Si2 0.935622 0.871243 0.750000
Si Si3 0.588432 0.623442 0.066648
Si Si4 0.956337 0.554779 0.731765
Si Si5 0.202417 0.863412 0.637878
Si Si6 0.466488 0.702074 0.967639
Si Si7 0.984684 0.245692 0.534440
O O1 0.165834 0.495999 0.226445
O O2 0.278220 0.649606 0.317445
O O3 0.935729 0.935729 0.666667
O O4 0.824285 0.796072 0.785055
O O5 0.595696 0.595696 0.166667
O O6 0.526377 0.511167 0.026890
O O7 0.706073 0.683748 0.042708
O O8 0.528941 0.682350 0.043644
O O9 0.000000 0.586325 0.833334
O O10 0.005338 0.652345 0.669045
O O11 0.239901 0.788482 0.598607
O O12 0.093512 0.826031 0.593916
O O13 0.194482 0.880209 0.742707
O O14 0.405017 0.594983 0.916667
#
# Coordination Sequence:
#
# PCOD9582819 Si02
#       7
#     6   6  12  12  12  12  12
#     4  10  23  46  68 106 152 202 266 315 400 468
#     4  12  25  48  76 110 146 194 246 331 402 472
#     4  11  24  45  71 104 149 197 252 318 389 479
#     4  11  25  44  67 108 150 198 257 316 387 478
#     4  12  24  45  70 106 142 202 253 313 403 473
#     4  10  22  46  71 105 149 205 258 325 394 483
#     4  12  26  44  75 104 149 195 252 319 399 473
#
# _framework density 23.841908
#
# number of rings (size 3 to 8) (size 9 to 14) (size 15 to 20)
#    0.500    0.333    5.000    2.000    2.333    0.667 
#    0.000    4.167    0.000    0.000    0.000    0.000 
#    0.000    0.000    0.000    0.000    0.000    0.000 
#
# Total GULP energy -401080.708889 kJ/mol
# GULP energy per Si atom -5570.565401 kJ/mol
# Density = 2.378764 g / cm^3
# Si number density = 23.841908 Si / 1000 Ang^3
#
#
#
# Elastic Constant Matrix: (Units=GPa)
#
#
# Indices 1 2 3 4 5 6 
#
# 1 111.4549 50.4513 22.8259 0.0000 0.0000 0.0000
# 2 50.4513 111.4549 22.8259 0.0000 0.0000 0.0000
# 3 22.8259 22.8259 75.4466 0.0000 0.0000 0.0000
# 4 0.0000 0.0000 0.0000 34.7191 0.0000 0.0000
# 5 0.0000 0.0000 0.0000 0.0000 34.7191 0.0000
# 6 0.0000 0.0000 0.0000 0.0000 0.0000 30.5018
#
#
#
# Elastic Compliance Matrix: (Units=1/GPa)
#
#
# Indices 1 2 3 4 5 6 
#
# 1 0.011572 -0.004820 -0.002043 0.000000 0.000000 0.000000
# 2 -0.004820 0.011572 -0.002043 0.000000 0.000000 0.000000
# 3 -0.002043 -0.002043 0.014491 0.000000 0.000000 0.000000
# 4 0.000000 0.000000 0.000000 0.028803 0.000000 0.000000
# 5 0.000000 0.000000 0.000000 0.000000 0.028803 0.000000
# 6 0.000000 0.000000 0.000000 0.000000 0.000000 0.032785
#
#
# Mechanical properties :
#
#
# Convention : Reuss Voigt Hill
#
# Bulk Modulus (GPa) = 50.44440 54.50693 52.47567
# Shear Modulus (GPa) = 32.79869 33.47158 33.13514
#
# Velocity S-wave (km/s) = 3.71303 3.75093 3.73203
# Velocity P-wave (km/s) = 6.29174 6.45529 6.37404
#
# Compressibility (1/GPa) = 0.01982381
#
# Stress axis : x y z
#
# Youngs Moduli (GPa) = 86.41212 86.41212 69.01049
#
# Poissons Ratio (x) = 0.41651 0.14098
# Poissons Ratio (y) = 0.41651 0.14098
# Poissons Ratio (z) = 0.17653 0.17653
#
# Static dielectric constant tensor:
#      x y z
#    x 1.960880 0.000000 0.000000 
#    y 0.000000 1.960880 0.000000 
#    z 0.000000 0.000000 2.256480 
# 
# From -- ./inp_files/6815.got.cif
#   From: 2010.05.17/outbox.cif.g08.bks.cpg/sg178_4_cif.got.tgz:6815.got - 2010.05.20 11:30:59.
