data_PCOD9582177
_publ_section_title
;
Structure prediction by ZEFSAII (Michael W. Deem and Ramdas Pophale) SiO2 
 PCOD9582177
Probable space group: P 6 2 2
;
_chemical_formula_sum "Si O2"
_cell_formula_units_Z 48
_cell_length_a 26.424763
_cell_length_b 26.424763
_cell_length_c 5.231687
_cell_angle_alpha 90.000000
_cell_angle_beta 90.000000
_cell_angle_gamma 120.000000
_cell_volume 3163.694844
_symmetry_space_group_name_H-M "P 6 2 2"
_symmetry_group_IT_number 177
_symmetry_cell_setting 'hexagonal'
loop_
_space_group_symop_operation_xyz
x,y,z
x-y,x,z
-y,x-y,z
-x,-y,z
-x+y,-x,z
y,-x+y,z
x-y,-y,-z
-x,-x+y,-z
y,x,-z
-y,-x,-z
-x+y,y,-z
x,x-y,-z
loop_
_atom_site_type_symbol
_atom_site_label
_atom_site_fract_x
_atom_site_fract_y
_atom_site_fract_z
Si Si1 0.139738 0.623978 0.060827
Si Si2 0.516233 0.314201 0.438475
Si Si3 0.755931 0.625199 0.554027
Si Si4 0.068474 0.375537 0.946948
O O1 0.171068 0.639624 0.334951
O O2 0.096027 0.649927 0.049816
O O3 0.111233 0.555617 0.000000
O O4 0.188130 0.657179 0.840109
O O5 0.538985 0.269493 0.500000
O O6 0.445512 0.276068 0.445470
O O7 0.823685 0.647369 0.500000
O O8 0.725736 0.640661 0.324384
O O9 0.740206 0.640507 0.827712
O O10 0.000000 0.343776 0.000000
#
# Coordination Sequence:
#
# PCOD9582177 Si02
#       4
#    12  12  12  12
#     4  10  19  30  45  63  83 110 138 165 213 283
#     4   9  17  30  47  61  74  97 134 177 210 246
#     4   9  17  30  47  65  83 109 144 175 208 249
#     4  10  19  30  45  67  92 114 140 179 222 256
#
# _framework density 15.172135000000001
#
# number of rings (size 3 to 8) (size 9 to 14) (size 15 to 20)
#    0.000    2.500    0.000    3.000    0.000    6.500 
#    0.000    0.000    0.000   19.000    0.000    0.000 
#    0.000    0.000    0.000    0.000    0.000    0.000 
#
# Total GULP energy -267479.769432 kJ/mol
# GULP energy per Si atom -5572.495197 kJ/mol
# Density = 1.513760 g / cm^3
# Si number density = 15.172135 Si / 1000 Ang^3
#
#
#
# Elastic Constant Matrix: (Units=GPa)
#
#
# Indices 1 2 3 4 5 6 
#
# 1 27.8780 13.8283 -6.2261 0.0000 0.0000 0.0000
# 2 13.8283 27.8780 -6.2261 0.0000 0.0000 0.0000
# 3 -6.2261 -6.2261 65.6618 0.0000 0.0000 0.0000
# 4 0.0000 0.0000 0.0000 15.2656 0.0000 0.0000
# 5 0.0000 0.0000 0.0000 0.0000 15.2656 0.0000
# 6 0.0000 0.0000 0.0000 0.0000 0.0000 7.0249
#
#
#
# Elastic Compliance Matrix: (Units=1/GPa)
#
#
# Indices 1 2 3 4 5 6 
#
# 1 0.047926 -0.023250 0.002340 0.000000 0.000000 0.000000
# 2 -0.023250 0.047926 0.002340 0.000000 0.000000 0.000000
# 3 0.002340 0.002340 0.015673 0.000000 0.000000 0.000000
# 4 0.000000 0.000000 0.000000 0.065507 0.000000 0.000000
# 5 0.000000 0.000000 0.000000 0.000000 0.065507 0.000000
# 6 0.000000 0.000000 0.000000 0.000000 0.000000 0.142351
#
#
# Mechanical properties :
#
#
# Convention : Reuss Voigt Hill
#
# Bulk Modulus (GPa) = 13.44378 13.79668 13.62023
# Shear Modulus (GPa) = 11.19007 15.51402 13.35204
#
# Velocity S-wave (km/s) = 2.71872 3.20118 2.96976
# Velocity P-wave (km/s) = 4.32843 4.77248 4.55587
#
# Compressibility (1/GPa) = 0.07438384
#
# Stress axis : x y z
#
# Youngs Moduli (GPa) = 20.86562 20.86562 63.80292
#
# Poissons Ratio (x) = 0.48513 -0.14928
# Poissons Ratio (y) = 0.48513 -0.14928
# Poissons Ratio (z) = -0.04882 -0.04882
#
# Static dielectric constant tensor:
#      x y z
#    x 1.494420 0.000000 0.000000 
#    y 0.000000 1.494420 0.000000 
#    z 0.000000 0.000000 1.517510 
# 
# From -- ./inp_files/431.got.cif
#   From: 2010.05.17/outbox.cif.g08.bks.cpg/sg177_1_cif.got.tgz:431.got - 2010.05.20 11:28:44.
