data_PCOD9582168
_publ_section_title
;
Structure prediction by ZEFSAII (Michael W. Deem and Ramdas Pophale) SiO2 
 PCOD9582168
Probable space group: P 6 2 2
;
_chemical_formula_sum "Si O2"
_cell_formula_units_Z 78
_cell_length_a 17.762102
_cell_length_b 17.762102
_cell_length_c 17.461209
_cell_angle_alpha 90.000000
_cell_angle_beta 90.000000
_cell_angle_gamma 120.000000
_cell_volume 4770.826926
_symmetry_space_group_name_H-M "P 6 2 2"
_symmetry_group_IT_number 177
_symmetry_cell_setting 'hexagonal'
loop_
_space_group_symop_operation_xyz
x,y,z
x-y,x,z
-y,x-y,z
-x,-y,z
-x+y,-x,z
y,-x+y,z
x-y,-y,-z
-x,-x+y,-z
y,x,-z
-y,-x,-z
-x+y,y,-z
x,x-y,-z
loop_
_atom_site_type_symbol
_atom_site_label
_atom_site_fract_x
_atom_site_fract_y
_atom_site_fract_z
Si Si1 0.644352 0.008143 0.414291
Si Si2 0.174926 0.631796 0.577382
Si Si3 0.859463 0.201345 0.694194
Si Si4 0.103202 0.896799 0.000000
Si Si5 0.801474 0.911063 0.409057
Si Si6 0.813924 0.512885 0.640917
Si Si7 0.791614 0.882341 0.168287
O O1 0.572090 0.911955 0.389989
O O2 0.677800 0.000000 0.500000
O O3 0.609150 0.075450 0.425598
O O4 0.714951 0.059489 0.346488
O O5 0.194487 0.597244 0.500000
O O6 0.235311 0.734745 0.586254
O O7 0.193900 0.581497 0.645620
O O8 0.837554 0.129415 0.628193
O O9 0.769996 0.202553 0.706571
O O10 0.884941 0.166495 0.767970
O O11 0.118255 0.867465 0.917037
O O12 0.000000 0.854308 0.000000
O O13 0.848797 0.858587 0.383703
O O14 0.796390 0.898195 0.500000
O O15 0.857519 0.844659 0.176109
#
# Coordination Sequence:
#
# PCOD9582168 Si02
#       7
#    12  12  12   6  12  12  12
#     4  11  23  35  52  68  94 126 166 214 266 308
#     4  11  22  35  51  70  89 121 165 218 264 307
#     4  11  24  33  49  70  97 132 166 211 258 314
#     4   8  15  26  48  72 102 134 174 220 256 306
#     4  10  20  30  41  56  82 123 171 211 241 269
#     4  11  23  37  50  71  93 120 164 210 260 310
#     4  10  18  32  49  75 104 141 181 217 261 301
#
# _framework density 16.349366
#
# number of rings (size 3 to 8) (size 9 to 14) (size 15 to 20)
#    0.000    1.538    1.538    4.385    6.462    1.846 
#    0.000    1.538    0.000    0.000    0.000    0.000 
#    0.000    4.923    0.000   28.923    0.000    0.462 
#
# Total GULP energy -434341.209471 kJ/mol
# GULP energy per Si atom -5568.477044 kJ/mol
# Density = 1.631215 g / cm^3
# Si number density = 16.349366 Si / 1000 Ang^3
#
#
#
# Elastic Constant Matrix: (Units=GPa)
#
#
# Indices 1 2 3 4 5 6 
#
# 1 79.6735 22.9489 23.1067 0.0000 0.0000 0.0000
# 2 22.9489 79.6735 23.1067 0.0000 0.0000 0.0000
# 3 23.1067 23.1067 81.0512 0.0000 0.0000 0.0000
# 4 0.0000 0.0000 0.0000 13.6829 0.0000 0.0000
# 5 0.0000 0.0000 0.0000 0.0000 13.6829 0.0000
# 6 0.0000 0.0000 0.0000 0.0000 0.0000 28.3623
#
#
#
# Elastic Compliance Matrix: (Units=1/GPa)
#
#
# Indices 1 2 3 4 5 6 
#
# 1 0.014404 -0.003225 -0.003187 0.000000 0.000000 0.000000
# 2 -0.003225 0.014404 -0.003187 0.000000 0.000000 0.000000
# 3 -0.003187 -0.003187 0.014155 0.000000 0.000000 0.000000
# 4 0.000000 0.000000 0.000000 0.073084 0.000000 0.000000
# 5 0.000000 0.000000 0.000000 0.000000 0.073084 0.000000
# 6 0.000000 0.000000 0.000000 0.000000 0.000000 0.035258
#
#
# Mechanical properties :
#
#
# Convention : Reuss Voigt Hill
#
# Bulk Modulus (GPa) = 42.07726 42.08030 42.07878
# Shear Modulus (GPa) = 19.87996 22.56135 21.22065
#
# Velocity S-wave (km/s) = 3.49083 3.71880 3.60662
# Velocity P-wave (km/s) = 6.48383 6.65082 6.56785
#
# Compressibility (1/GPa) = 0.02376581
#
# Stress axis : x y z
#
# Youngs Moduli (GPa) = 69.42328 69.42328 70.64564
#
# Poissons Ratio (x) = 0.22387 0.22516
# Poissons Ratio (y) = 0.22387 0.22516
# Poissons Ratio (z) = 0.22127 0.22127
#
# Static dielectric constant tensor:
#      x y z
#    x 1.610800 0.000000 0.000000 
#    y 0.000000 1.610800 0.000000 
#    z 0.000000 0.000000 1.577030 
# 
# From -- ./inp_files/2927.got.cif
#   From: 2010.05.17/outbox.cif.g08.bks.cpg/sg177_2_cif.got.tgz:2927.got - 2010.05.20 11:28:44.
