data_PCOD9582673
_publ_section_title
;
Structure prediction by ZEFSAII (Michael W. Deem and Ramdas Pophale) SiO2 
 PCOD9582673
Probable space group: P 61 2 2
;
_chemical_formula_sum "Si O2"
_cell_formula_units_Z 60
_cell_length_a 15.051680
_cell_length_b 15.051680
_cell_length_c 15.125571
_cell_angle_alpha 90.000000
_cell_angle_beta 90.000000
_cell_angle_gamma 120.000000
_cell_volume 2967.647840
_symmetry_space_group_name_H-M "P 61 2 2"
_symmetry_group_IT_number 178
_symmetry_cell_setting 'hexagonal'
loop_
_space_group_symop_operation_xyz
x,y,z
x-y,x,1/6+z
-y,x-y,1/3+z
-x,-y,1/2+z
-x+y,-x,2/3+z
y,-x+y,5/6+z
x-y,-y,-z
-x,-x+y,2/3-z
y,x,1/3-z
-y,-x,5/6-z
-x+y,y,1/2-z
x,x-y,1/6-z
loop_
_atom_site_type_symbol
_atom_site_label
_atom_site_fract_x
_atom_site_fract_y
_atom_site_fract_z
Si Si1 0.273468 0.389063 0.189380
Si Si2 0.311724 0.068784 0.702652
Si Si3 0.161187 0.397444 0.021835
Si Si4 0.388943 0.589552 0.595689
Si Si5 0.240241 0.759760 0.416667
Si Si6 0.929293 0.070708 0.916667
O O1 0.308015 0.308015 0.166667
O O2 0.172995 0.345989 0.250000
O O3 0.241634 0.425008 0.100506
O O4 0.365742 0.489313 0.235918
O O5 0.328218 0.142969 0.786081
O O6 0.411205 0.142090 0.644637
O O7 0.218812 0.044834 0.635649
O O8 0.290587 0.955660 0.724306
O O9 0.176033 0.499260 0.973443
O O10 0.375495 0.687748 0.583334
O O11 0.337954 0.544241 0.689518
O O12 0.000000 0.079946 0.833334
#
# Coordination Sequence:
#
# PCOD9582673 Si02
#       6
#    12  12  12  12   6   6
#     4  11  25  44  67  94 132 179 221 279 343 418
#     4  10  21  35  64  94 127 174 213 279 323 398
#     4  11  22  41  64  94 130 171 224 267 341 407
#     4  10  22  39  63  92 131 168 209 276 331 406
#     4   9  20  34  60  98 128 162 222 266 329 384
#     4  11  20  38  62  96 140 168 226 282 347 394
#
# _framework density 20.218031
#
# number of rings (size 3 to 8) (size 9 to 14) (size 15 to 20)
#    0.000    1.600    2.000    2.400    2.800    2.400 
#    0.000    1.000    0.000    0.000    0.000    0.000 
#    0.000    0.000    0.000    0.000    0.000    0.000 
#
# Total GULP energy -334654.816257 kJ/mol
# GULP energy per Si atom -5577.580271 kJ/mol
# Density = 2.017201 g / cm^3
# Si number density = 20.218031 Si / 1000 Ang^3
#
#
#
# Elastic Constant Matrix: (Units=GPa)
#
#
# Indices 1 2 3 4 5 6 
#
# 1 88.9752 65.9492 32.5168 0.0000 0.0000 0.0000
# 2 65.9492 88.9752 32.5168 0.0000 0.0000 0.0000
# 3 32.5168 32.5168 88.4831 0.0000 0.0000 0.0000
# 4 0.0000 0.0000 0.0000 25.9246 0.0000 0.0000
# 5 0.0000 0.0000 0.0000 0.0000 25.9246 0.0000
# 6 0.0000 0.0000 0.0000 0.0000 0.0000 11.5130
#
#
#
# Elastic Compliance Matrix: (Units=1/GPa)
#
#
# Indices 1 2 3 4 5 6 
#
# 1 0.025531 -0.017899 -0.002805 0.000000 0.000000 0.000000
# 2 -0.017899 0.025531 -0.002805 0.000000 0.000000 0.000000
# 3 -0.002805 -0.002805 0.013363 0.000000 0.000000 0.000000
# 4 0.000000 0.000000 0.000000 0.038573 0.000000 0.000000
# 5 0.000000 0.000000 0.000000 0.000000 0.038573 0.000000
# 6 0.000000 0.000000 0.000000 0.000000 0.000000 0.086858
#
#
# Mechanical properties :
#
#
# Convention : Reuss Voigt Hill
#
# Bulk Modulus (GPa) = 57.44383 58.71101 58.07742
# Shear Modulus (GPa) = 17.77790 21.70249 19.74019
#
# Velocity S-wave (km/s) = 2.96853 3.27987 3.12808
# Velocity P-wave (km/s) = 6.34219 6.59131 6.46795
#
# Compressibility (1/GPa) = 0.01740831
#
# Stress axis : x y z
#
# Youngs Moduli (GPa) = 39.16863 39.16863 74.83326
#
# Poissons Ratio (x) = 0.70106 0.20989
# Poissons Ratio (y) = 0.70106 0.20989
# Poissons Ratio (z) = 0.10986 0.10986
#
# Static dielectric constant tensor:
#      x y z
#    x 1.716970 0.000000 0.000000 
#    y 0.000000 1.716970 0.000000 
#    z 0.000000 0.000000 2.524560 
# 
# From -- ./inp_files/5739.got.cif
#   From: 2010.05.17/outbox.cif.g08.bks.cpg/sg178_3_cif.got.tgz:5739.got - 2010.05.20 11:30:59.
