data_PCOD9582390
_publ_section_title
;
Structure prediction by ZEFSAII (Michael W. Deem and Ramdas Pophale) SiO2 
 PCOD9582390
Probable space group: P 61 2 2
;
_chemical_formula_sum "Si O2"
_cell_formula_units_Z 42
_cell_length_a 24.208998
_cell_length_b 24.208998
_cell_length_c 5.080417
_cell_angle_alpha 90.000000
_cell_angle_beta 90.000000
_cell_angle_gamma 120.000000
_cell_volume 2578.597881
_symmetry_space_group_name_H-M "P 61 2 2"
_symmetry_group_IT_number 178
_symmetry_cell_setting 'hexagonal'
loop_
_space_group_symop_operation_xyz
x,y,z
x-y,x,1/6+z
-y,x-y,1/3+z
-x,-y,1/2+z
-x+y,-x,2/3+z
y,-x+y,5/6+z
x-y,-y,-z
-x,-x+y,2/3-z
y,x,1/3-z
-y,-x,5/6-z
-x+y,y,1/2-z
x,x-y,1/6-z
loop_
_atom_site_type_symbol
_atom_site_label
_atom_site_fract_x
_atom_site_fract_y
_atom_site_fract_z
Si Si1 0.476838 0.523163 0.416667
Si Si2 0.597409 0.643887 0.415818
Si Si3 0.192957 0.040994 0.245447
Si Si4 0.132961 0.339944 0.995205
O O1 0.499155 0.499155 0.666667
O O2 0.520206 0.599553 0.430468
O O3 0.628797 0.628797 0.666667
O O4 0.622587 0.717772 0.372029
O O5 0.620368 0.620368 0.166667
O O6 0.263964 0.083249 0.360098
O O7 0.151735 0.000000 0.500000
O O8 0.172346 0.086173 0.083334
O O9 0.195701 0.000000 0.000000
O O10 0.173853 0.347705 0.250000
O O11 0.180306 0.360611 0.750000
#
# Coordination Sequence:
#
# PCOD9582390 Si02
#       4
#     6  12  12  12
#     4   8  16  28  46  70  94 124 160 190 220 274
#     4  10  18  31  49  70  99 132 161 195 236 281
#     4  11  21  35  52  72  95 124 159 197 245 300
#     4  11  21  32  47  72 102 131 161 195 237 293
#
# _framework density 16.28792
#
# number of rings (size 3 to 8) (size 9 to 14) (size 15 to 20)
#    0.000    1.714    0.000    7.714    0.000    0.000 
#    0.000    0.000    0.000    1.714    0.000    2.000 
#    4.286    0.000    0.000    0.000    0.000    0.000 
#
# Total GULP energy -233942.904663 kJ/mol
# GULP energy per Si atom -5570.069159 kJ/mol
# Density = 1.625085 g / cm^3
# Si number density = 16.287920 Si / 1000 Ang^3
#
#
#
# Elastic Constant Matrix: (Units=GPa)
#
#
# Indices 1 2 3 4 5 6 
#
# 1 100.0359 50.3450 34.7306 0.0000 0.0000 0.0000
# 2 50.3450 100.0359 34.7306 0.0000 0.0000 0.0000
# 3 34.7306 34.7306 120.0391 0.0000 0.0000 0.0000
# 4 0.0000 0.0000 0.0000 23.8816 0.0000 0.0000
# 5 0.0000 0.0000 0.0000 0.0000 23.8816 0.0000
# 6 0.0000 0.0000 0.0000 0.0000 0.0000 24.8455
#
#
#
# Elastic Compliance Matrix: (Units=1/GPa)
#
#
# Indices 1 2 3 4 5 6 
#
# 1 0.013900 -0.006224 -0.002221 0.000000 0.000000 0.000000
# 2 -0.006224 0.013900 -0.002221 0.000000 0.000000 0.000000
# 3 -0.002221 -0.002221 0.009616 0.000000 0.000000 0.000000
# 4 0.000000 0.000000 0.000000 0.041873 0.000000 0.000000
# 5 0.000000 0.000000 0.000000 0.000000 0.041873 0.000000
# 6 0.000000 0.000000 0.000000 0.000000 0.000000 0.040249
#
#
# Mechanical properties :
#
#
# Convention : Reuss Voigt Hill
#
# Bulk Modulus (GPa) = 62.17448 62.19150 62.18299
# Shear Modulus (GPa) = 26.58103 27.87538 27.22821
#
# Velocity S-wave (km/s) = 4.04412 4.14141 4.09306
# Velocity P-wave (km/s) = 7.74994 7.81882 7.78445
#
# Compressibility (1/GPa) = 0.01608377
#
# Stress axis : x y z
#
# Youngs Moduli (GPa) = 71.94258 71.94258 103.99701
#
# Poissons Ratio (x) = 0.44780 0.23095
# Poissons Ratio (y) = 0.44780 0.23095
# Poissons Ratio (z) = 0.15977 0.15977
#
# Static dielectric constant tensor:
#      x y z
#    x 1.590650 0.000000 0.000000 
#    y 0.000000 1.590650 0.000000 
#    z 0.000000 0.000000 1.545380 
# 
# From -- ./inp_files/972.got.cif
#   From: 2010.05.17/outbox.cif.g08.bks.cpg/sg178_1_cif.got.tgz:972.got - 2010.05.20 11:30:59.
