data_PCOD9582396
_publ_section_title
;
Structure prediction by ZEFSAII (Michael W. Deem and Ramdas Pophale) SiO2 
 PCOD9582396
Probable space group: P 61 2 2
;
_chemical_formula_sum "Si O2"
_cell_formula_units_Z 48
_cell_length_a 12.527916
_cell_length_b 12.527916
_cell_length_c 18.166314
_cell_angle_alpha 90.000000
_cell_angle_beta 90.000000
_cell_angle_gamma 120.000000
_cell_volume 2469.193436
_symmetry_space_group_name_H-M "P 61 2 2"
_symmetry_group_IT_number 178
_symmetry_cell_setting 'hexagonal'
loop_
_space_group_symop_operation_xyz
x,y,z
x-y,x,1/6+z
-y,x-y,1/3+z
-x,-y,1/2+z
-x+y,-x,2/3+z
y,-x+y,5/6+z
x-y,-y,-z
-x,-x+y,2/3-z
y,x,1/3-z
-y,-x,5/6-z
-x+y,y,1/2-z
x,x-y,1/6-z
loop_
_atom_site_type_symbol
_atom_site_label
_atom_site_fract_x
_atom_site_fract_y
_atom_site_fract_z
Si Si1 0.430436 0.343404 0.094904
Si Si2 0.550930 0.848302 0.888274
Si Si3 0.394753 0.875323 0.166697
Si Si4 0.630819 0.888513 0.145604
O O1 0.366311 0.366311 0.166667
O O2 0.414994 0.207497 0.083334
O O3 0.576577 0.447134 0.092590
O O4 0.381776 0.392315 0.027349
O O5 0.484993 0.734004 0.833559
O O6 0.658650 0.965696 0.847442
O O7 0.614236 0.806062 0.949809
O O8 0.448660 0.897319 0.250000
O O9 0.494486 0.859773 0.119945
O O10 0.689493 0.844747 0.083334
#
# Coordination Sequence:
#
# PCOD9582396 Si02
#       4
#    12  12  12  12
#     4  11  23  38  60  89 121 158 198 247 305 362
#     4  10  20  34  54  82 111 144 186 234 290 346
#     4   9  20  36  56  84 115 151 193 244 299 353
#     4  10  18  32  54  79 107 137 177 227 280 339
#
# _framework density 19.439547000000001
#
# number of rings (size 3 to 8) (size 9 to 14) (size 15 to 20)
#    0.000    2.000    0.000    6.000    0.000    6.000 
#    0.000    5.000    0.000    9.000    0.000    0.000 
#    0.000    0.000    0.000    0.000    0.000    0.000 
#
# Total GULP energy -267227.216964 kJ/mol
# GULP energy per Si atom -5567.233687 kJ/mol
# Density = 1.939530 g / cm^3
# Si number density = 19.439547 Si / 1000 Ang^3
#
#
#
# Elastic Constant Matrix: (Units=GPa)
#
#
# Indices 1 2 3 4 5 6 
#
# 1 100.8108 38.5549 26.8780 0.0000 0.0000 0.0000
# 2 38.5549 100.8108 26.8780 0.0000 0.0000 0.0000
# 3 26.8780 26.8780 29.9650 0.0000 0.0000 0.0000
# 4 0.0000 0.0000 0.0000 31.0188 0.0000 0.0000
# 5 0.0000 0.0000 0.0000 0.0000 31.0188 0.0000
# 6 0.0000 0.0000 0.0000 0.0000 0.0000 31.1280
#
#
#
# Elastic Compliance Matrix: (Units=1/GPa)
#
#
# Indices 1 2 3 4 5 6 
#
# 1 0.013517 -0.002546 -0.009841 0.000000 0.000000 0.000000
# 2 -0.002546 0.013517 -0.009841 0.000000 0.000000 0.000000
# 3 -0.009841 -0.009841 0.051026 0.000000 0.000000 0.000000
# 4 0.000000 0.000000 0.000000 0.032239 0.000000 0.000000
# 5 0.000000 0.000000 0.000000 0.000000 0.032239 0.000000
# 6 0.000000 0.000000 0.000000 0.000000 0.000000 0.032125
#
#
# Mechanical properties :
#
#
# Convention : Reuss Voigt Hill
#
# Bulk Modulus (GPa) = 29.75738 46.24537 38.00138
# Shear Modulus (GPa) = 21.70893 27.91815 24.81354
#
# Velocity S-wave (km/s) = 3.34539 3.79377 3.57662
# Velocity P-wave (km/s) = 5.50119 6.55982 6.05369
#
# Compressibility (1/GPa) = 0.03360511
#
# Stress axis : x y z
#
# Youngs Moduli (GPa) = 73.98109 73.98109 19.59768
#
# Poissons Ratio (x) = 0.18834 0.19286
# Poissons Ratio (y) = 0.18834 0.19286
# Poissons Ratio (z) = 0.72804 0.72804
#
# Static dielectric constant tensor:
#      x y z
#    x 1.730120 0.000000 0.000000 
#    y 0.000000 1.730120 0.000000 
#    z 0.000000 0.000000 1.747720 
# 
# From -- ./inp_files/7241.got.cif
#   From: 2010.05.17/outbox.cif.g08.bks.cpg/sg178_4_cif.got.tgz:7241.got - 2010.05.20 11:30:59.
