data_PCOD9582240
_publ_section_title
;
Structure prediction by ZEFSAII (Michael W. Deem and Ramdas Pophale) SiO2 
 PCOD9582240
Probable space group: P 6 2 2
;
_chemical_formula_sum "Si O2"
_cell_formula_units_Z 30
_cell_length_a 17.350925
_cell_length_b 17.350925
_cell_length_c 5.396029
_cell_angle_alpha 90.000000
_cell_angle_beta 90.000000
_cell_angle_gamma 120.000000
_cell_volume 1406.857700
_symmetry_space_group_name_H-M "P 6 2 2"
_symmetry_group_IT_number 177
_symmetry_cell_setting 'hexagonal'
loop_
_space_group_symop_operation_xyz
x,y,z
x-y,x,z
-y,x-y,z
-x,-y,z
-x+y,-x,z
y,-x+y,z
x-y,-y,-z
-x,-x+y,-z
y,x,-z
-y,-x,-z
-x+y,y,-z
x,x-y,-z
loop_
_atom_site_type_symbol
_atom_site_label
_atom_site_fract_x
_atom_site_fract_y
_atom_site_fract_z
Si Si1 0.224975 0.345890 0.253390
Si Si2 0.518440 0.416853 0.749117
Si Si3 0.000000 0.181830 0.000000
O O1 0.172983 0.345966 0.500000
O O2 0.324765 0.427019 0.256189
O O3 0.225880 0.253559 0.220358
O O4 0.176551 0.353101 0.000000
O O5 0.500000 0.500000 0.749384
O O6 0.572475 0.427526 0.500000
O O7 0.571944 0.428057 0.000000
O O8 0.084609 0.169218 0.000000
#
# Coordination Sequence:
#
# PCOD9582240 Si02
#       3
#    12  12   6
#     4  11  24  42  65  96 132 170 216 273 333 393
#     4  10  20  36  64  95 123 157 207 259 311 382
#     4  10  23  40  63  90 128 172 220 272 329 388
#
# _framework density 21.324117000000001
#
# number of rings (size 3 to 8) (size 9 to 14) (size 15 to 20)
#    0.000    1.600    0.000    5.000    0.000   16.000 
#    0.000    0.000    0.000   25.600    0.000    0.000 
#    0.000    0.000    0.000    0.000    0.000    0.000 
#
# Total GULP energy -167338.926985 kJ/mol
# GULP energy per Si atom -5577.964233 kJ/mol
# Density = 2.127558 g / cm^3
# Si number density = 21.324117 Si / 1000 Ang^3
#
#
#
# Elastic Constant Matrix: (Units=GPa)
#
#
# Indices 1 2 3 4 5 6 
#
# 1 148.9519 82.5500 66.4828 0.0000 0.0000 0.0000
# 2 82.5500 148.9519 66.4828 0.0000 0.0000 0.0000
# 3 66.4828 66.4828 220.7405 0.0000 0.0000 0.0000
# 4 0.0000 0.0000 0.0000 15.4280 0.0000 0.0000
# 5 0.0000 0.0000 0.0000 0.0000 15.4280 0.0000
# 6 0.0000 0.0000 0.0000 0.0000 0.0000 33.2010
#
#
#
# Elastic Compliance Matrix: (Units=1/GPa)
#
#
# Indices 1 2 3 4 5 6 
#
# 1 0.010141 -0.004918 -0.001573 0.000000 0.000000 0.000000
# 2 -0.004918 0.010141 -0.001573 0.000000 0.000000 0.000000
# 3 -0.001573 -0.001573 0.005478 0.000000 0.000000 0.000000
# 4 0.000000 0.000000 0.000000 0.064817 0.000000 0.000000
# 5 0.000000 0.000000 0.000000 0.000000 0.064817 0.000000
# 6 0.000000 0.000000 0.000000 0.000000 0.000000 0.030120
#
#
# Mechanical properties :
#
#
# Convention : Reuss Voigt Hill
#
# Bulk Modulus (GPa) = 103.82444 105.51949 104.67196
# Shear Modulus (GPa) = 24.40761 33.01999 28.71380
#
# Velocity S-wave (km/s) = 3.38687 3.93934 3.67351
# Velocity P-wave (km/s) = 8.00556 8.38345 8.19668
#
# Compressibility (1/GPa) = 0.00963164
#
# Stress axis : x y z
#
# Youngs Moduli (GPa) = 98.60495 98.60495 182.55546
#
# Poissons Ratio (x) = 0.48497 0.28718
# Poissons Ratio (y) = 0.48497 0.28718
# Poissons Ratio (z) = 0.15512 0.15512
#
# Static dielectric constant tensor:
#      x y z
#    x 1.766590 0.000000 0.000000 
#    y 0.000000 1.766590 0.000000 
#    z 0.000000 0.000000 1.825290 
# 
# From -- ./inp_files/166.got.cif
#   From: 2010.05.17/outbox.cif.g08.bks.cpg/sg177_1_cif.got.tgz:166.got - 2010.05.20 11:28:44.
