data_PCOD9582674
_publ_section_title
;
Structure prediction by ZEFSAII (Michael W. Deem and Ramdas Pophale) SiO2 
 PCOD9582674
Probable space group: P 61 2 2
;
_chemical_formula_sum "Si O2"
_cell_formula_units_Z 60
_cell_length_a 14.174126
_cell_length_b 14.174126
_cell_length_c 14.650965
_cell_angle_alpha 90.000000
_cell_angle_beta 90.000000
_cell_angle_gamma 120.000000
_cell_volume 2549.115071
_symmetry_space_group_name_H-M "P 61 2 2"
_symmetry_group_IT_number 178
_symmetry_cell_setting 'hexagonal'
loop_
_space_group_symop_operation_xyz
x,y,z
x-y,x,1/6+z
-y,x-y,1/3+z
-x,-y,1/2+z
-x+y,-x,2/3+z
y,-x+y,5/6+z
x-y,-y,-z
-x,-x+y,2/3-z
y,x,1/3-z
-y,-x,5/6-z
-x+y,y,1/2-z
x,x-y,1/6-z
loop_
_atom_site_type_symbol
_atom_site_label
_atom_site_fract_x
_atom_site_fract_y
_atom_site_fract_z
Si Si1 0.602356 0.180482 0.425693
Si Si2 0.388247 0.334627 0.953783
Si Si3 0.076588 0.714109 0.246755
Si Si4 0.728108 0.624698 0.612170
Si Si5 0.945861 0.084964 0.707321
O O1 0.695993 0.304008 0.416667
O O2 0.606616 0.111275 0.338930
O O3 0.485682 0.170910 0.430571
O O4 0.641010 0.132580 0.509230
O O5 0.371906 0.348510 0.847860
O O6 0.363108 0.208952 0.957612
O O7 0.312131 0.364462 0.013061
O O8 0.099307 0.835734 0.232226
O O9 0.000000 0.666963 0.333334
O O10 0.716562 0.716562 0.666667
O O11 0.972368 0.090779 0.598850
O O12 0.067301 0.134602 0.750000
#
# Coordination Sequence:
#
# PCOD9582674 Si02
#       5
#    12  12  12  12  12
#     4   9  20  41  67  93 137 182 231 292 350 406
#     4  10  21  35  64  95 133 175 234 287 352 416
#     4  12  23  37  70 100 135 186 230 285 354 422
#     4   9  18  38  65  92 123 177 229 292 348 419
#     4  10  22  45  74  99 143 185 224 288 361 428
#
# _framework density 23.537582
#
# number of rings (size 3 to 8) (size 9 to 14) (size 15 to 20)
#    0.000    2.000    2.000    4.200    2.800    0.000 
#    0.000    0.000   35.200    0.000    0.000    0.000 
#    0.000    0.000    0.000    0.000    0.000    0.000 
#
# Total GULP energy -334763.209487 kJ/mol
# GULP energy per Si atom -5579.386825 kJ/mol
# Density = 2.348401 g / cm^3
# Si number density = 23.537582 Si / 1000 Ang^3
#
#
#
# Elastic Constant Matrix: (Units=GPa)
#
#
# Indices 1 2 3 4 5 6 
#
# 1 113.4915 76.1517 42.5321 0.0000 0.0000 0.0000
# 2 76.1517 113.4915 42.5321 0.0000 0.0000 0.0000
# 3 42.5321 42.5321 167.4845 0.0000 0.0000 0.0000
# 4 0.0000 0.0000 0.0000 20.0935 0.0000 0.0000
# 5 0.0000 0.0000 0.0000 0.0000 20.0935 0.0000
# 6 0.0000 0.0000 0.0000 0.0000 0.0000 18.6699
#
#
#
# Elastic Compliance Matrix: (Units=1/GPa)
#
#
# Indices 1 2 3 4 5 6 
#
# 1 0.016366 -0.010415 -0.001511 0.000000 0.000000 0.000000
# 2 -0.010415 0.016366 -0.001511 0.000000 0.000000 0.000000
# 3 -0.001511 -0.001511 0.006738 0.000000 0.000000 0.000000
# 4 0.000000 0.000000 0.000000 0.049767 0.000000 0.000000
# 5 0.000000 0.000000 0.000000 0.000000 0.049767 0.000000
# 6 0.000000 0.000000 0.000000 0.000000 0.000000 0.053562
#
#
# Mechanical properties :
#
#
# Convention : Reuss Voigt Hill
#
# Bulk Modulus (GPa) = 79.39529 79.65550 79.52539
# Shear Modulus (GPa) = 22.35732 27.32149 24.83941
#
# Velocity S-wave (km/s) = 3.08532 3.41069 3.25208
# Velocity P-wave (km/s) = 6.81885 7.03034 6.92540
#
# Compressibility (1/GPa) = 0.01259521
#
# Stress axis : x y z
#
# Youngs Moduli (GPa) = 61.10226 61.10226 148.40674
#
# Poissons Ratio (x) = 0.63639 0.22427
# Poissons Ratio (y) = 0.63639 0.22427
# Poissons Ratio (z) = 0.09234 0.09234
#
# Static dielectric constant tensor:
#      x y z
#    x 1.903840 0.000000 0.000000 
#    y 0.000000 1.903840 0.000000 
#    z 0.000000 0.000000 1.998910 
# 
# From -- ./inp_files/5660.got.cif
#   From: 2010.05.17/outbox.cif.g08.bks.cpg/sg178_3_cif.got.tgz:5660.got - 2010.05.20 11:30:59.
