data_PCOD9582868
_publ_section_title
;
Structure prediction by ZEFSAII (Michael W. Deem and Ramdas Pophale) SiO2 
 PCOD9582868
Probable space group: P 61 2 2
;
_chemical_formula_sum "Si O2"
_cell_formula_units_Z 48
_cell_length_a 18.081155
_cell_length_b 18.081155
_cell_length_c 7.677720
_cell_angle_alpha 90.000000
_cell_angle_beta 90.000000
_cell_angle_gamma 120.000000
_cell_volume 2173.778254
_symmetry_space_group_name_H-M "P 61 2 2"
_symmetry_group_IT_number 178
_symmetry_cell_setting 'hexagonal'
loop_
_space_group_symop_operation_xyz
x,y,z
x-y,x,1/6+z
-y,x-y,1/3+z
-x,-y,1/2+z
-x+y,-x,2/3+z
y,-x+y,5/6+z
x-y,-y,-z
-x,-x+y,2/3-z
y,x,1/3-z
-y,-x,5/6-z
-x+y,y,1/2-z
x,x-y,1/6-z
loop_
_atom_site_type_symbol
_atom_site_label
_atom_site_fract_x
_atom_site_fract_y
_atom_site_fract_z
Si Si1 0.543140 0.160074 0.936601
Si Si2 0.364182 0.000000 0.000000
Si Si3 0.814485 0.907243 0.583334
Si Si4 0.793297 0.510778 0.436615
Si Si5 0.698125 0.749021 0.347295
O O1 0.568065 0.136129 0.750000
O O2 0.525982 0.237341 0.894807
O O3 0.620759 0.181547 0.064224
O O4 0.456851 0.082285 0.008302
O O5 0.309274 0.991833 0.170561
O O6 0.871109 0.871109 0.666667
O O7 0.755907 0.841659 0.432608
O O8 0.762897 0.525794 0.250000
O O9 0.871216 0.601823 0.490829
O O10 0.733444 0.733444 0.166667
#
# Coordination Sequence:
#
# PCOD9582868 Si02
#       5
#    12   6   6  12  12
#     4  10  23  44  69 103 155 201 267 324 390 470
#     4  12  26  48  74 116 150 202 276 318 390 480
#     4  12  30  54  84 124 156 200 264 328 416 504
#     4  10  23  45  70 108 152 210 259 316 398 459
#     4  12  27  50  82 112 156 206 261 332 402 483
#
# _framework density 22.081368999999999
#
# number of rings (size 3 to 8) (size 9 to 14) (size 15 to 20)
#    0.000    1.000    1.250    4.500    8.750    1.000 
#   27.000    0.000    0.000    0.000    0.000    0.000 
#    0.000    0.000    0.000    0.000    0.000    0.000 
#
# Total GULP energy -268943.056830 kJ/mol
# GULP energy per Si atom -5602.980351 kJ/mol
# Density = 2.203111 g / cm^3
# Si number density = 22.081369 Si / 1000 Ang^3
#
#
#
# Elastic Constant Matrix: (Units=GPa)
#
#
# Indices 1 2 3 4 5 6 
#
# 1 174.0603 95.0574 77.7118 0.0000 0.0000 0.0000
# 2 95.0574 174.0603 77.7118 0.0000 0.0000 0.0000
# 3 77.7118 77.7118 166.4339 0.0000 0.0000 0.0000
# 4 0.0000 0.0000 0.0000 29.1891 0.0000 0.0000
# 5 0.0000 0.0000 0.0000 0.0000 29.1891 0.0000
# 6 0.0000 0.0000 0.0000 0.0000 0.0000 39.5014
#
#
#
# Elastic Compliance Matrix: (Units=1/GPa)
#
#
# Indices 1 2 3 4 5 6 
#
# 1 0.008873 -0.003785 -0.002376 0.000000 0.000000 0.000000
# 2 -0.003785 0.008873 -0.002376 0.000000 0.000000 0.000000
# 3 -0.002376 -0.002376 0.008227 0.000000 0.000000 0.000000
# 4 0.000000 0.000000 0.000000 0.034259 0.000000 0.000000
# 5 0.000000 0.000000 0.000000 0.000000 0.034259 0.000000
# 6 0.000000 0.000000 0.000000 0.000000 0.000000 0.025316
#
#
# Mechanical properties :
#
#
# Convention : Reuss Voigt Hill
#
# Bulk Modulus (GPa) = 112.35921 112.83520 112.59720
# Shear Modulus (GPa) = 35.75364 37.18081 36.46722
#
# Velocity S-wave (km/s) = 4.02826 4.10788 4.06827
# Velocity P-wave (km/s) = 8.52235 8.58546 8.55397
#
# Compressibility (1/GPa) = 0.00890003
#
# Stress axis : x y z
#
# Youngs Moduli (GPa) = 112.70386 112.70386 121.55297
#
# Poissons Ratio (x) = 0.42658 0.28877
# Poissons Ratio (y) = 0.42658 0.28877
# Poissons Ratio (z) = 0.26774 0.26774
#
# Static dielectric constant tensor:
#      x y z
#    x 1.800330 0.000000 0.000000 
#    y 0.000000 1.800330 0.000000 
#    z 0.000000 0.000000 1.846890 
# 
# From -- ./inp_files/2781.got.cif
#   From: 2010.05.17/outbox.cif.g08.bks.cpg/sg178_2_cif.got.tgz:2781.got - 2010.05.20 11:30:59.
