data_PCOD9582804
_publ_section_title
;
Structure prediction by ZEFSAII (Michael W. Deem and Ramdas Pophale) SiO2 
 PCOD9582804
Probable space group: P 61 2 2
;
_chemical_formula_sum "Si O2"
_cell_formula_units_Z 42
_cell_length_a 11.191070
_cell_length_b 11.191070
_cell_length_c 16.139040
_cell_angle_alpha 90.000000
_cell_angle_beta 90.000000
_cell_angle_gamma 120.000000
_cell_volume 1750.457433
_symmetry_space_group_name_H-M "P 61 2 2"
_symmetry_group_IT_number 178
_symmetry_cell_setting 'hexagonal'
loop_
_space_group_symop_operation_xyz
x,y,z
x-y,x,1/6+z
-y,x-y,1/3+z
-x,-y,1/2+z
-x+y,-x,2/3+z
y,-x+y,5/6+z
x-y,-y,-z
-x,-x+y,2/3-z
y,x,1/3-z
-y,-x,5/6-z
-x+y,y,1/2-z
x,x-y,1/6-z
loop_
_atom_site_type_symbol
_atom_site_label
_atom_site_fract_x
_atom_site_fract_y
_atom_site_fract_z
Si Si1 0.083900 0.586685 0.997641
Si Si2 0.223412 0.848572 0.597556
Si Si3 0.252961 0.356096 0.101300
Si Si4 0.170980 0.829021 0.416667
O O1 0.014527 0.507264 0.083334
O O2 0.182294 0.747285 0.022083
O O3 0.168016 0.514815 0.967772
O O4 0.976546 0.562101 0.924575
O O5 0.115483 0.801639 0.673699
O O6 0.198414 0.785092 0.506197
O O7 0.260006 0.005585 0.584690
O O8 0.242911 0.242911 0.166667
#
# Coordination Sequence:
#
# PCOD9582804 Si02
#       4
#    12  12  12   6
#     4  10  23  44  71 104 145 186 243 306 365 444
#     4  10  22  45  71 106 139 193 239 313 370 441
#     4  11  23  44  73 100 152 188 239 308 365 445
#     4  10  22  42  78  94 150 180 244 304 362 456
#
# _framework density 23.993729999999999
#
# number of rings (size 3 to 8) (size 9 to 14) (size 15 to 20)
#    0.000    1.714    0.000    4.286    4.000    0.000 
#    7.714   17.143   81.714    0.000    0.000    0.000 
#    0.000    0.000    0.000    0.000    0.000    0.000 
#
# Total GULP energy -233958.276478 kJ/mol
# GULP energy per Si atom -5570.435154 kJ/mol
# Density = 2.393912 g / cm^3
# Si number density = 23.993730 Si / 1000 Ang^3
#
#
#
# Elastic Constant Matrix: (Units=GPa)
#
#
# Indices 1 2 3 4 5 6 
#
# 1 67.3081 40.0642 53.0157 0.0000 0.0000 0.0000
# 2 40.0642 67.3081 53.0157 0.0000 0.0000 0.0000
# 3 53.0157 53.0157 253.6504 0.0000 0.0000 0.0000
# 4 0.0000 0.0000 0.0000 36.7895 0.0000 0.0000
# 5 0.0000 0.0000 0.0000 0.0000 36.7895 0.0000
# 6 0.0000 0.0000 0.0000 0.0000 0.0000 13.6220
#
#
#
# Elastic Compliance Matrix: (Units=1/GPa)
#
#
# Indices 1 2 3 4 5 6 
#
# 1 0.024221 -0.012485 -0.002453 0.000000 0.000000 0.000000
# 2 -0.012485 0.024221 -0.002453 0.000000 0.000000 0.000000
# 3 -0.002453 -0.002453 0.004968 0.000000 0.000000 0.000000
# 4 0.000000 0.000000 0.000000 0.027182 0.000000 0.000000
# 5 0.000000 0.000000 0.000000 0.000000 0.027182 0.000000
# 6 0.000000 0.000000 0.000000 0.000000 0.000000 0.073411
#
#
# Mechanical properties :
#
#
# Convention : Reuss Voigt Hill
#
# Bulk Modulus (GPa) = 53.68393 75.60641 64.64517
# Shear Modulus (GPa) = 22.50494 33.58494 28.04494
#
# Velocity S-wave (km/s) = 3.06592 3.74537 3.42255
# Velocity P-wave (km/s) = 5.91235 7.09105 6.52836
#
# Compressibility (1/GPa) = 0.01862755
#
# Stress axis : x y z
#
# Youngs Moduli (GPa) = 41.28730 41.28730 201.29687
#
# Poissons Ratio (x) = 0.51547 0.49376
# Poissons Ratio (y) = 0.51547 0.49376
# Poissons Ratio (z) = 0.10127 0.10127
#
# Static dielectric constant tensor:
#      x y z
#    x 1.969230 0.000000 0.000000 
#    y 0.000000 1.969230 0.000000 
#    z 0.000000 0.000000 2.001980 
# 
# From -- ./inp_files/6393.got.cif
#   From: 2010.05.17/outbox.cif.g08.bks.cpg/sg178_4_cif.got.tgz:6393.got - 2010.05.20 11:30:59.
