data_PCOD9582706
_publ_section_title
;
Structure prediction by ZEFSAII (Michael W. Deem and Ramdas Pophale) SiO2 
 PCOD9582706
Probable space group: P 61 2 2
;
_chemical_formula_sum "Si O2"
_cell_formula_units_Z 48
_cell_length_a 19.967669
_cell_length_b 19.967669
_cell_length_c 7.506892
_cell_angle_alpha 90.000000
_cell_angle_beta 90.000000
_cell_angle_gamma 120.000000
_cell_volume 2592.062907
_symmetry_space_group_name_H-M "P 61 2 2"
_symmetry_group_IT_number 178
_symmetry_cell_setting 'hexagonal'
loop_
_space_group_symop_operation_xyz
x,y,z
x-y,x,1/6+z
-y,x-y,1/3+z
-x,-y,1/2+z
-x+y,-x,2/3+z
y,-x+y,5/6+z
x-y,-y,-z
-x,-x+y,2/3-z
y,x,1/3-z
-y,-x,5/6-z
-x+y,y,1/2-z
x,x-y,1/6-z
loop_
_atom_site_type_symbol
_atom_site_label
_atom_site_fract_x
_atom_site_fract_y
_atom_site_fract_z
Si Si1 0.695101 0.065323 0.621757
Si Si2 0.385056 0.221526 0.771041
Si Si3 0.000000 0.310468 0.833334
Si Si4 0.692998 0.385995 0.750000
Si Si5 0.130317 0.499092 0.176566
O O1 0.777582 0.143915 0.625947
O O2 0.696717 0.000000 0.500000
O O3 0.552720 0.914487 0.487675
O O4 0.668016 0.031684 0.821349
O O5 0.416707 0.208354 0.583334
O O6 0.312574 0.234131 0.728738
O O7 0.445220 0.299915 0.871908
O O8 0.662421 0.331211 0.583334
O O9 0.784415 0.438690 0.741045
O O10 0.095943 0.547972 0.083334
#
# Coordination Sequence:
#
# PCOD9582706 Si02
#       5
#    12  12   6   6  12
#     4  11  21  40  65  87 121 159 200 258 311 374
#     4  10  21  40  62  90 121 159 200 253 311 366
#     4  10  22  38  64  90 118 164 198 244 318 368
#     4  10  22  40  60  86 110 148 202 254 306 362
#     4  11  22  40  61  85 120 159 206 257 315 364
#
# _framework density 18.518069000000001
#
# number of rings (size 3 to 8) (size 9 to 14) (size 15 to 20)
#    0.000    1.500    5.000    0.000    0.000    4.000 
#    2.250    0.000    0.000    0.000    0.000    0.000 
#    0.000    0.000  344.250    1.500    0.000    0.000 
#
# Total GULP energy -267322.706766 kJ/mol
# GULP energy per Si atom -5569.223058 kJ/mol
# Density = 1.847592 g / cm^3
# Si number density = 18.518069 Si / 1000 Ang^3
#
#
#
# Elastic Constant Matrix: (Units=GPa)
#
#
# Indices 1 2 3 4 5 6 
#
# 1 81.7471 64.0843 45.8111 0.0000 0.0000 0.0000
# 2 64.0843 81.7471 45.8111 0.0000 0.0000 0.0000
# 3 45.8111 45.8111 127.4365 0.0000 0.0000 0.0000
# 4 0.0000 0.0000 0.0000 31.3168 0.0000 0.0000
# 5 0.0000 0.0000 0.0000 0.0000 31.3168 0.0000
# 6 0.0000 0.0000 0.0000 0.0000 0.0000 8.8314
#
#
#
# Elastic Compliance Matrix: (Units=1/GPa)
#
#
# Indices 1 2 3 4 5 6 
#
# 1 0.032737 -0.023879 -0.003184 0.000000 0.000000 0.000000
# 2 -0.023879 0.032737 -0.003184 0.000000 0.000000 0.000000
# 3 -0.003184 -0.003184 0.010136 0.000000 0.000000 0.000000
# 4 0.000000 0.000000 0.000000 0.031932 0.000000 0.000000
# 5 0.000000 0.000000 0.000000 0.000000 0.031932 0.000000
# 6 0.000000 0.000000 0.000000 0.000000 0.000000 0.113232
#
#
# Mechanical properties :
#
#
# Convention : Reuss Voigt Hill
#
# Bulk Modulus (GPa) = 66.15897 66.92708 66.54303
# Shear Modulus (GPa) = 15.71141 23.30793 19.50967
#
# Velocity S-wave (km/s) = 2.91595 3.55161 3.24936
# Velocity P-wave (km/s) = 6.86595 7.28275 7.07742
#
# Compressibility (1/GPa) = 0.01511511
#
# Stress axis : x y z
#
# Youngs Moduli (GPa) = 30.54646 30.54646 98.65448
#
# Poissons Ratio (x) = 0.72943 0.31414
# Poissons Ratio (y) = 0.72943 0.31414
# Poissons Ratio (z) = 0.09727 0.09727
#
# Static dielectric constant tensor:
#      x y z
#    x 1.658560 0.000000 0.000000 
#    y 0.000000 1.658560 0.000000 
#    z 0.000000 0.000000 1.722780 
# 
# From -- ./inp_files/2668.got.cif
#   From: 2010.05.17/outbox.cif.g08.bks.cpg/sg178_2_cif.got.tgz:2668.got - 2010.05.20 11:30:59.
