data_PCOD9582380
_publ_section_title
;
Structure prediction by ZEFSAII (Michael W. Deem and Ramdas Pophale) SiO2 
 PCOD9582380
Probable space group: P 61 2 2
;
_chemical_formula_sum "Si O2"
_cell_formula_units_Z 84
_cell_length_a 32.531118
_cell_length_b 32.531118
_cell_length_c 5.233923
_cell_angle_alpha 90.000000
_cell_angle_beta 90.000000
_cell_angle_gamma 120.000000
_cell_volume 4796.847799
_symmetry_space_group_name_H-M "P 61 2 2"
_symmetry_group_IT_number 178
_symmetry_cell_setting 'hexagonal'
loop_
_space_group_symop_operation_xyz
x,y,z
x-y,x,1/6+z
-y,x-y,1/3+z
-x,-y,1/2+z
-x+y,-x,2/3+z
y,-x+y,5/6+z
x-y,-y,-z
-x,-x+y,2/3-z
y,x,1/3-z
-y,-x,5/6-z
-x+y,y,1/2-z
x,x-y,1/6-z
loop_
_atom_site_type_symbol
_atom_site_label
_atom_site_fract_x
_atom_site_fract_y
_atom_site_fract_z
Si Si1 0.396221 0.380599 0.913611
Si Si2 0.255913 0.840288 0.919715
Si Si3 0.319547 0.735524 0.174150
Si Si4 0.229390 0.868522 0.418110
Si Si5 0.973997 0.691956 0.086479
Si Si6 0.350755 0.879038 0.686328
Si Si7 0.377360 0.528866 0.998852
O O1 0.412511 0.412511 0.666667
O O2 0.337757 0.352332 0.914137
O O3 0.421869 0.349900 0.892673
O O4 0.410445 0.410445 0.166667
O O5 0.211151 0.788850 0.916667
O O6 0.244864 0.871208 0.713561
O O7 0.299937 0.839884 0.794288
O O8 0.259125 0.855388 0.215206
O O9 0.284394 0.715607 0.416667
O O10 0.364527 0.729054 0.250000
O O11 0.340750 0.791911 0.140113
O O12 0.293497 0.706504 0.916667
O O13 0.174738 0.825262 0.416667
O O14 0.243619 0.919436 0.300117
O O15 0.000000 0.721477 0.333334
O O16 0.000000 0.720024 0.833334
O O17 0.360926 0.869922 0.400171
O O18 0.384111 0.875531 0.900489
O O19 0.426466 0.573535 0.916667
#
# Coordination Sequence:
#
# PCOD9582380 Si02
#       7
#    12  12  12  12  12  12  12
#     4  10  19  32  54  81 102 124 167 217 258 295
#     4  10  20  32  50  78 108 135 163 195 246 317
#     4  11  22  39  63  90 114 138 171 211 253 305
#     4  10  19  33  50  75 114 147 168 205 264 321
#     4  10  18  29  48  73 102 134 177 220 252 297
#     4  12  22  38  61  79 104 138 172 214 262 315
#     4  11  26  43  59  78 105 140 169 200 257 328
#
# _framework density 17.511499000000001
#
# number of rings (size 3 to 8) (size 9 to 14) (size 15 to 20)
#    0.000    1.429    0.000    8.143    0.000    4.000 
#    0.000    0.000    0.000    8.571    0.000    0.000 
#    0.000    0.000    0.000    0.000    0.000    0.000 
#
# Total GULP energy -467978.860059 kJ/mol
# GULP energy per Si atom -5571.176905 kJ/mol
# Density = 1.747164 g / cm^3
# Si number density = 17.511499 Si / 1000 Ang^3
#
#
#
# Elastic Constant Matrix: (Units=GPa)
#
#
# Indices 1 2 3 4 5 6 
#
# 1 57.9641 32.9382 22.9957 0.0000 0.0000 0.0000
# 2 32.9382 57.9641 22.9957 0.0000 0.0000 0.0000
# 3 22.9957 22.9957 115.0657 0.0000 0.0000 0.0000
# 4 0.0000 0.0000 0.0000 18.6130 0.0000 0.0000
# 5 0.0000 0.0000 0.0000 0.0000 18.6130 0.0000
# 6 0.0000 0.0000 0.0000 0.0000 0.0000 12.5130
#
#
#
# Elastic Compliance Matrix: (Units=1/GPa)
#
#
# Indices 1 2 3 4 5 6 
#
# 1 0.026098 -0.013860 -0.002446 0.000000 0.000000 0.000000
# 2 -0.013860 0.026098 -0.002446 0.000000 0.000000 0.000000
# 3 -0.002446 -0.002446 0.009668 0.000000 0.000000 0.000000
# 4 0.000000 0.000000 0.000000 0.053726 0.000000 0.000000
# 5 0.000000 0.000000 0.000000 0.000000 0.053726 0.000000
# 6 0.000000 0.000000 0.000000 0.000000 0.000000 0.079917
#
#
# Mechanical properties :
#
#
# Convention : Reuss Voigt Hill
#
# Bulk Modulus (GPa) = 41.04823 43.20592 42.12707
# Shear Modulus (GPa) = 16.95733 20.08543 18.52138
#
# Velocity S-wave (km/s) = 3.11521 3.39039 3.25571
# Velocity P-wave (km/s) = 6.03581 6.32873 6.18400
#
# Compressibility (1/GPa) = 0.02436159
#
# Stress axis : x y z
#
# Youngs Moduli (GPa) = 38.31652 38.31652 103.43113
#
# Poissons Ratio (x) = 0.53107 0.25297
# Poissons Ratio (y) = 0.53107 0.25297
# Poissons Ratio (z) = 0.09371 0.09371
#
# Static dielectric constant tensor:
#      x y z
#    x 1.654220 0.000000 0.000000 
#    y 0.000000 1.654220 0.000000 
#    z 0.000000 0.000000 1.747920 
# 
# From -- ./inp_files/1733.got.cif
#   From: 2010.05.17/outbox.cif.g08.bks.cpg/sg178_1_cif.got.tgz:1733.got - 2010.05.20 11:30:59.
