data_PCOD9582528
_publ_section_title
;
Structure prediction by ZEFSAII (Michael W. Deem and Ramdas Pophale) SiO2 
 PCOD9582528
Probable space group: P 61 2 2
;
_chemical_formula_sum "Si O2"
_cell_formula_units_Z 84
_cell_length_a 19.719022
_cell_length_b 19.719022
_cell_length_c 11.173805
_cell_angle_alpha 90.000000
_cell_angle_beta 90.000000
_cell_angle_gamma 120.000000
_cell_volume 3762.724860
_symmetry_space_group_name_H-M "P 61 2 2"
_symmetry_group_IT_number 178
_symmetry_cell_setting 'hexagonal'
loop_
_space_group_symop_operation_xyz
x,y,z
x-y,x,1/6+z
-y,x-y,1/3+z
-x,-y,1/2+z
-x+y,-x,2/3+z
y,-x+y,5/6+z
x-y,-y,-z
-x,-x+y,2/3-z
y,x,1/3-z
-y,-x,5/6-z
-x+y,y,1/2-z
x,x-y,1/6-z
loop_
_atom_site_type_symbol
_atom_site_label
_atom_site_fract_x
_atom_site_fract_y
_atom_site_fract_z
Si Si1 0.912081 0.491802 0.705072
Si Si2 0.725280 0.627017 0.089557
Si Si3 0.493277 0.588161 0.806389
Si Si4 0.971550 0.175999 0.455840
Si Si5 0.763056 0.870569 0.956872
Si Si6 0.693375 0.621606 0.345756
Si Si7 0.751776 0.617050 0.847519
O O1 0.879377 0.439689 0.583334
O O2 0.875156 0.464255 0.838314
O O3 0.908358 0.570984 0.692432
O O4 0.003966 0.519119 0.705810
O O5 0.799432 0.714444 0.105176
O O6 0.702901 0.586360 0.218776
O O7 0.656433 0.638457 0.032629
O O8 0.751184 0.589834 0.983863
O O9 0.433684 0.566317 0.916667
O O10 0.570120 0.660503 0.868274
O O11 0.911758 0.088243 0.416667
O O12 0.920896 0.209605 0.518728
O O13 0.000000 0.224584 0.333334
O O14 0.045923 0.183657 0.525128
O O15 0.804634 0.902317 0.083334
O O16 0.692971 0.780117 0.964356
O O17 0.800377 0.600754 0.750000
#
# Coordination Sequence:
#
# PCOD9582528 Si02
#       7
#    12  12  12  12  12  12  12
#     4  10  22  36  54  82 120 156 196 233 285 356
#     4  10  20  33  54  82 115 159 200 258 318 378
#     4  10  21  34  55  82 116 165 195 226 286 368
#     4  11  23  37  57  85 118 156 207 271 337 399
#     4  10  20  35  54  82 117 158 214 256 332 399
#     4  10  20  34  56  80 123 158 200 258 309 380
#     4  11  22  35  57  87 117 157 197 252 313 374
#
# _framework density 22.324247
#
# number of rings (size 3 to 8) (size 9 to 14) (size 15 to 20)
#    0.000    1.714    2.857    1.714    8.000    1.143 
#    0.000    0.000    0.000    0.857    0.000    1.000 
#    0.000    0.000    0.000    0.000    0.000    0.000 
#
# Total GULP energy -467875.802653 kJ/mol
# GULP energy per Si atom -5569.950032 kJ/mol
# Density = 2.227344 g / cm^3
# Si number density = 22.324247 Si / 1000 Ang^3
#
#
#
# Elastic Constant Matrix: (Units=GPa)
#
#
# Indices 1 2 3 4 5 6 
#
# 1 50.4703 14.9016 23.6479 0.0000 0.0000 0.0000
# 2 14.9016 50.4703 23.6479 0.0000 0.0000 0.0000
# 3 23.6479 23.6479 214.0178 0.0000 0.0000 0.0000
# 4 0.0000 0.0000 0.0000 23.6869 0.0000 0.0000
# 5 0.0000 0.0000 0.0000 0.0000 23.6869 0.0000
# 6 0.0000 0.0000 0.0000 0.0000 0.0000 17.7843
#
#
#
# Elastic Compliance Matrix: (Units=1/GPa)
#
#
# Indices 1 2 3 4 5 6 
#
# 1 0.022370 -0.005744 -0.001837 0.000000 0.000000 0.000000
# 2 -0.005744 0.022370 -0.001837 0.000000 0.000000 0.000000
# 3 -0.001837 -0.001837 0.005078 0.000000 0.000000 0.000000
# 4 0.000000 0.000000 0.000000 0.042217 0.000000 0.000000
# 5 0.000000 0.000000 0.000000 0.000000 0.042217 0.000000
# 6 0.000000 0.000000 0.000000 0.000000 0.000000 0.056229
#
#
# Mechanical properties :
#
#
# Convention : Reuss Voigt Hill
#
# Bulk Modulus (GPa) = 32.27631 48.81704 40.54667
# Shear Modulus (GPa) = 22.76371 29.88235 26.32303
#
# Velocity S-wave (km/s) = 3.19672 3.66260 3.43756
# Velocity P-wave (km/s) = 5.30233 6.30880 5.82733
#
# Compressibility (1/GPa) = 0.03098248
#
# Stress axis : x y z
#
# Youngs Moduli (GPa) = 44.70184 44.70184 196.90877
#
# Poissons Ratio (x) = 0.25678 0.36174
# Poissons Ratio (y) = 0.25678 0.36174
# Poissons Ratio (z) = 0.08212 0.08212
#
# Static dielectric constant tensor:
#      x y z
#    x 1.882820 0.000000 0.000000 
#    y 0.000000 1.882820 0.000000 
#    z 0.000000 0.000000 2.054170 
# 
# From -- ./inp_files/4779.got.cif
#   From: 2010.05.17/outbox.cif.g08.bks.cpg/sg178_3_cif.got.tgz:4779.got - 2010.05.20 11:30:59.
