data_PCOD9582756
_publ_section_title
;
Structure prediction by ZEFSAII (Michael W. Deem and Ramdas Pophale) SiO2 
 PCOD9582756
Probable space group: P 61 2 2
;
_chemical_formula_sum "Si O2"
_cell_formula_units_Z 54
_cell_length_a 12.037146
_cell_length_b 12.037146
_cell_length_c 21.181745
_cell_angle_alpha 90.000000
_cell_angle_beta 90.000000
_cell_angle_gamma 120.000000
_cell_volume 2657.904812
_symmetry_space_group_name_H-M "P 61 2 2"
_symmetry_group_IT_number 178
_symmetry_cell_setting 'hexagonal'
loop_
_space_group_symop_operation_xyz
x,y,z
x-y,x,1/6+z
-y,x-y,1/3+z
-x,-y,1/2+z
-x+y,-x,2/3+z
y,-x+y,5/6+z
x-y,-y,-z
-x,-x+y,2/3-z
y,x,1/3-z
-y,-x,5/6-z
-x+y,y,1/2-z
x,x-y,1/6-z
loop_
_atom_site_type_symbol
_atom_site_label
_atom_site_fract_x
_atom_site_fract_y
_atom_site_fract_z
Si Si1 0.468058 0.170806 0.269800
Si Si2 0.438190 0.150674 0.018202
Si Si3 0.780751 0.000000 0.000000
Si Si4 0.273206 0.308989 0.804608
Si Si5 0.586588 0.327680 0.486409
O O1 0.554911 0.109821 0.250000
O O2 0.409218 0.191328 0.206760
O O3 0.566112 0.307259 0.300947
O O4 0.368926 0.084221 0.321676
O O5 0.409041 0.204521 0.083334
O O6 0.593630 0.210946 0.017793
O O7 0.365628 0.000000 0.000000
O O8 0.709723 0.999599 0.064309
O O9 0.788248 0.871809 0.007225
O O10 0.291037 0.448078 0.820532
O O11 0.611917 0.388084 0.416667
#
# Coordination Sequence:
#
# PCOD9582756 Si02
#       5
#    12  12   6  12  12
#     4  10  23  41  62  96 134 176 216 274 340 408
#     4  10  24  43  67  99 136 177 230 282 353 418
#     4  10  26  38  64  98 122 176 218 286 338 400
#     4  11  23  43  65  96 134 170 229 280 346 409
#     4  10  22  39  65 104 135 173 218 282 350 417
#
# _framework density 20.316752999999999
#
# number of rings (size 3 to 8) (size 9 to 14) (size 15 to 20)
#    0.000    1.778    0.000    2.000   10.889    8.889 
#    0.000    0.000   17.111    0.000    0.000    0.000 
#    0.000    0.000    0.000    0.000    0.000    0.000 
#
# Total GULP energy -301666.595340 kJ/mol
# GULP energy per Si atom -5586.418432 kJ/mol
# Density = 2.027051 g / cm^3
# Si number density = 20.316753 Si / 1000 Ang^3
#
#
#
# Elastic Constant Matrix: (Units=GPa)
#
#
# Indices 1 2 3 4 5 6 
#
# 1 76.8778 66.2587 56.2234 0.0000 0.0000 0.0000
# 2 66.2587 76.8778 56.2234 0.0000 0.0000 0.0000
# 3 56.2234 56.2234 200.9564 0.0000 0.0000 0.0000
# 4 0.0000 0.0000 0.0000 26.8289 0.0000 0.0000
# 5 0.0000 0.0000 0.0000 0.0000 26.8289 0.0000
# 6 0.0000 0.0000 0.0000 0.0000 0.0000 5.3096
#
#
#
# Elastic Compliance Matrix: (Units=1/GPa)
#
#
# Indices 1 2 3 4 5 6 
#
# 1 0.051562 -0.042608 -0.002505 0.000000 0.000000 0.000000
# 2 -0.042608 0.051562 -0.002505 0.000000 0.000000 0.000000
# 3 -0.002505 -0.002505 0.006378 0.000000 0.000000 0.000000
# 4 0.000000 0.000000 0.000000 0.037273 0.000000 0.000000
# 5 0.000000 0.000000 0.000000 0.000000 0.037273 0.000000
# 6 0.000000 0.000000 0.000000 0.000000 0.000000 0.188340
#
#
# Mechanical properties :
#
#
# Convention : Reuss Voigt Hill
#
# Bulk Modulus (GPa) = 70.09730 79.12476 74.61103
# Shear Modulus (GPa) = 10.58469 23.52722 17.05596
#
# Velocity S-wave (km/s) = 2.28498 3.40666 2.90056
# Velocity P-wave (km/s) = 6.44505 7.38268 6.92974
#
# Compressibility (1/GPa) = 0.01426589
#
# Stress axis : x y z
#
# Youngs Moduli (GPa) = 19.39407 19.39407 156.78783
#
# Poissons Ratio (x) = 0.82634 0.39280
# Poissons Ratio (y) = 0.82634 0.39280
# Poissons Ratio (z) = 0.04859 0.04859
#
# Static dielectric constant tensor:
#      x y z
#    x 1.726300 0.000000 0.000000 
#    y 0.000000 1.726300 0.000000 
#    z 0.000000 0.000000 1.792560 
# 
# From -- ./inp_files/7423.got.cif
#   From: 2010.05.17/outbox.cif.g08.bks.cpg/sg178_4_cif.got.tgz:7423.got - 2010.05.20 11:30:59.
