data_PCOD9582226
_publ_section_title
;
Structure prediction by ZEFSAII (Michael W. Deem and Ramdas Pophale) SiO2 
 PCOD9582226
Probable space group: P 6 2 2
;
_chemical_formula_sum "Si O2"
_cell_formula_units_Z 84
_cell_length_a 21.729388
_cell_length_b 21.729388
_cell_length_c 12.860292
_cell_angle_alpha 90.000000
_cell_angle_beta 90.000000
_cell_angle_gamma 120.000000
_cell_volume 5258.676449
_symmetry_space_group_name_H-M "P 6 2 2"
_symmetry_group_IT_number 177
_symmetry_cell_setting 'hexagonal'
loop_
_space_group_symop_operation_xyz
x,y,z
x-y,x,z
-y,x-y,z
-x,-y,z
-x+y,-x,z
y,-x+y,z
x-y,-y,-z
-x,-x+y,-z
y,x,-z
-y,-x,-z
-x+y,y,-z
x,x-y,-z
loop_
_atom_site_type_symbol
_atom_site_label
_atom_site_fract_x
_atom_site_fract_y
_atom_site_fract_z
Si Si1 0.571983 0.859246 0.619727
Si Si2 0.000000 0.284021 0.373956
Si Si3 0.520864 0.187302 0.816198
Si Si4 0.479136 0.666438 0.816199
Si Si5 0.918824 0.384757 1.000000
Si Si6 0.140754 0.428017 0.619727
Si Si7 1.000000 0.857343 0.373145
O O1 0.643342 0.929544 0.654529
O O2 0.509361 0.840022 0.700909
O O3 0.585943 0.792972 0.620751
O O4 0.555499 0.868365 0.500000
O O5 0.000000 0.280916 0.500000
O O6 0.929543 0.286201 0.345470
O O7 0.000000 0.213486 0.337342
O O8 0.520152 0.260076 0.834999
O O9 0.600034 0.200067 0.826891
O O10 0.471639 0.127053 0.898866
O O11 0.509362 0.669340 0.700910
O O12 0.528361 0.655415 0.898868
O O13 0.922351 0.461176 0.000000
O O14 0.000000 0.402470 0.000000
O O15 0.928795 0.857589 0.341012
O O16 0.000000 0.856684 0.500000
#
# Coordination Sequence:
#
# PCOD9582226 Si02
#       7
#    12  12  12  12  12  12  12
#     4   9  18  31  46  68  97 128 165 204 241 288
#     4   9  16  27  43  60  85 126 167 201 238 284
#     4  10  20  34  53  74  98 127 162 203 247 295
#     4  10  20  34  53  74  98 127 162 203 247 295
#     4   9  19  34  52  74  98 123 152 192 241 289
#     4   9  18  31  46  68  97 128 165 204 241 288
#     4   9  15  22  35  57  85 117 155 200 246 289
#
# _framework density 15.973599999999999
#
# number of rings (size 3 to 8) (size 9 to 14) (size 15 to 20)
#    0.000    2.714    0.000    1.714    2.000    4.571 
#    0.000    1.429    0.000    4.286    0.000    0.000 
#    0.000    0.000    0.000    0.000    0.000    0.000 
#
# Total GULP energy -467933.282122 kJ/mol
# GULP energy per Si atom -5570.634311 kJ/mol
# Density = 1.593724 g / cm^3
# Si number density = 15.973600 Si / 1000 Ang^3
#
#
#
# Elastic Constant Matrix: (Units=GPa)
#
#
# Indices 1 2 3 4 5 6 
#
# 1 75.3679 52.6641 37.5418 0.0000 0.0000 0.0000
# 2 52.6641 75.3679 37.5418 0.0000 0.0000 0.0000
# 3 37.5418 37.5418 74.4510 0.0000 0.0000 0.0000
# 4 0.0000 0.0000 0.0000 15.1152 0.0000 0.0000
# 5 0.0000 0.0000 0.0000 0.0000 15.1152 0.0000
# 6 0.0000 0.0000 0.0000 0.0000 0.0000 11.3519
#
#
#
# Elastic Compliance Matrix: (Units=1/GPa)
#
#
# Indices 1 2 3 4 5 6 
#
# 1 0.027568 -0.016478 -0.005592 0.000000 0.000000 0.000000
# 2 -0.016478 0.027568 -0.005592 0.000000 0.000000 0.000000
# 3 -0.005592 -0.005592 0.019071 0.000000 0.000000 0.000000
# 4 0.000000 0.000000 0.000000 0.066158 0.000000 0.000000
# 5 0.000000 0.000000 0.000000 0.000000 0.066158 0.000000
# 6 0.000000 0.000000 0.000000 0.000000 0.000000 0.088091
#
#
# Mechanical properties :
#
#
# Convention : Reuss Voigt Hill
#
# Bulk Modulus (GPa) = 52.95816 53.40913 53.18365
# Shear Modulus (GPa) = 14.03575 14.81240 14.42408
#
# Velocity S-wave (km/s) = 2.96748 3.04847 3.00825
# Velocity P-wave (km/s) = 6.70573 6.77491 6.74041
#
# Compressibility (1/GPa) = 0.01888283
#
# Stress axis : x y z
#
# Youngs Moduli (GPa) = 36.27422 36.27422 52.43475
#
# Poissons Ratio (x) = 0.59772 0.29322
# Poissons Ratio (y) = 0.59772 0.29322
# Poissons Ratio (z) = 0.20285 0.20285
#
# Static dielectric constant tensor:
#      x y z
#    x 1.523880 0.000000 0.000000 
#    y 0.000000 1.523880 0.000000 
#    z 0.000000 0.000000 1.532850 
# 
# From -- ./inp_files/2092.got.cif
#   From: 2010.05.17/outbox.cif.g08.bks.cpg/sg177_2_cif.got.tgz:2092.got - 2010.05.20 11:28:44.
