data_PCOD9582354
_publ_section_title
;
Structure prediction by ZEFSAII (Michael W. Deem and Ramdas Pophale) SiO2 
 PCOD9582354
Probable space group: P 61 2 2
;
_chemical_formula_sum "Si O2"
_cell_formula_units_Z 48
_cell_length_a 18.260536
_cell_length_b 18.260536
_cell_length_c 7.551463
_cell_angle_alpha 90.000000
_cell_angle_beta 90.000000
_cell_angle_gamma 120.000000
_cell_volume 2180.664095
_symmetry_space_group_name_H-M "P 61 2 2"
_symmetry_group_IT_number 178
_symmetry_cell_setting 'hexagonal'
loop_
_space_group_symop_operation_xyz
x,y,z
x-y,x,1/6+z
-y,x-y,1/3+z
-x,-y,1/2+z
-x+y,-x,2/3+z
y,-x+y,5/6+z
x-y,-y,-z
-x,-x+y,2/3-z
y,x,1/3-z
-y,-x,5/6-z
-x+y,y,1/2-z
x,x-y,1/6-z
loop_
_atom_site_type_symbol
_atom_site_label
_atom_site_fract_x
_atom_site_fract_y
_atom_site_fract_z
Si Si1 0.379010 0.919692 0.274049
Si Si2 0.821578 0.632180 0.032840
Si Si3 0.886631 0.826378 0.994010
Si Si4 0.366310 0.889391 0.694619
O O1 0.440747 0.881493 0.250000
O O2 0.289720 0.879641 0.177224
O O3 0.366955 0.908777 0.485439
O O4 0.429708 0.017794 0.219347
O O5 0.818663 0.637326 0.250000
O O6 0.850597 0.726810 0.967883
O O7 0.732830 0.568855 0.940794
O O8 0.841112 0.841112 0.166667
O O9 0.986237 0.866297 0.023638
O O10 0.425468 0.850935 0.750000
#
# Coordination Sequence:
#
# PCOD9582354 Si02
#       4
#    12  12  12  12
#     4   9  18  32  51  75 102 139 177 221 271 331
#     4  10  17  29  51  78 105 132 186 230 270 339
#     4  10  18  28  48  85 111 147 186 244 291 330
#     4   9  18  31  50  76 101 137 169 224 280 319
#
# _framework density 22.011644
#
# number of rings (size 3 to 8) (size 9 to 14) (size 15 to 20)
#    0.000    2.500    2.500    1.500    3.500    0.000 
#    0.000    5.000    0.000    0.000  104.000    0.000 
#    0.000    0.000    0.000    0.000    0.000    0.000 
#
# Total GULP energy -267614.259584 kJ/mol
# GULP energy per Si atom -5575.297075 kJ/mol
# Density = 2.196154 g / cm^3
# Si number density = 22.011644 Si / 1000 Ang^3
#
#
#
# Elastic Constant Matrix: (Units=GPa)
#
#
# Indices 1 2 3 4 5 6 
#
# 1 170.7439 126.0243 14.7341 0.0000 0.0000 0.0000
# 2 126.0243 170.7439 14.7341 0.0000 0.0000 0.0000
# 3 14.7341 14.7341 59.7007 0.0000 0.0000 0.0000
# 4 0.0000 0.0000 0.0000 15.6120 0.0000 0.0000
# 5 0.0000 0.0000 0.0000 0.0000 15.6120 0.0000
# 6 0.0000 0.0000 0.0000 0.0000 0.0000 22.3598
#
#
#
# Elastic Compliance Matrix: (Units=1/GPa)
#
#
# Indices 1 2 3 4 5 6 
#
# 1 0.012908 -0.009454 -0.000853 0.000000 0.000000 0.000000
# 2 -0.009454 0.012908 -0.000853 0.000000 0.000000 0.000000
# 3 -0.000853 -0.000853 0.017171 0.000000 0.000000 0.000000
# 4 0.000000 0.000000 0.000000 0.064053 0.000000 0.000000
# 5 0.000000 0.000000 0.000000 0.000000 0.064053 0.000000
# 6 0.000000 0.000000 0.000000 0.000000 0.000000 0.044723
#
#
# Mechanical properties :
#
#
# Convention : Reuss Voigt Hill
#
# Bulk Modulus (GPa) = 48.38040 79.13039 63.75539
# Shear Modulus (GPa) = 20.40621 27.09652 23.75137
#
# Velocity S-wave (km/s) = 3.04808 3.51238 3.28843
# Velocity P-wave (km/s) = 5.86642 7.24406 6.59133
#
# Compressibility (1/GPa) = 0.02066953
#
# Stress axis : x y z
#
# Youngs Moduli (GPa) = 77.47191 77.47191 58.23768
#
# Poissons Ratio (x) = 0.73239 0.04965
# Poissons Ratio (y) = 0.73239 0.04965
# Poissons Ratio (z) = 0.06605 0.06605
#
# Static dielectric constant tensor:
#      x y z
#    x 1.796910 0.000000 0.000000 
#    y 0.000000 1.796910 0.000000 
#    z 0.000000 0.000000 2.034160 
# 
# From -- ./inp_files/2541.got.cif
#   From: 2010.05.17/outbox.cif.g08.bks.cpg/sg178_2_cif.got.tgz:2541.got - 2010.05.20 11:30:59.
