data_PCOD9582376
_publ_section_title
;
Structure prediction by ZEFSAII (Michael W. Deem and Ramdas Pophale) SiO2 
 PCOD9582376
Probable space group: P 61 2 2
;
_chemical_formula_sum "Si O2"
_cell_formula_units_Z 54
_cell_length_a 26.520597
_cell_length_b 26.520597
_cell_length_c 5.003356
_cell_angle_alpha 90.000000
_cell_angle_beta 90.000000
_cell_angle_gamma 120.000000
_cell_volume 3047.604660
_symmetry_space_group_name_H-M "P 61 2 2"
_symmetry_group_IT_number 178
_symmetry_cell_setting 'hexagonal'
loop_
_space_group_symop_operation_xyz
x,y,z
x-y,x,1/6+z
-y,x-y,1/3+z
-x,-y,1/2+z
-x+y,-x,2/3+z
y,-x+y,5/6+z
x-y,-y,-z
-x,-x+y,2/3-z
y,x,1/3-z
-y,-x,5/6-z
-x+y,y,1/2-z
x,x-y,1/6-z
loop_
_atom_site_type_symbol
_atom_site_label
_atom_site_fract_x
_atom_site_fract_y
_atom_site_fract_z
Si Si1 0.649171 0.715979 0.240613
Si Si2 0.772558 0.128166 0.571598
Si Si3 0.698057 0.503203 0.632818
Si Si4 0.639694 0.130166 0.028895
Si Si5 0.519672 0.480328 0.416667
O O1 0.680281 0.680281 0.166667
O O2 0.661913 0.736016 0.544322
O O3 0.579614 0.676809 0.210978
O O4 0.664251 0.768890 0.035218
O O5 0.832402 0.167599 0.416667
O O6 0.739177 0.165596 0.564884
O O7 0.741132 0.482263 0.750000
O O8 0.669682 0.485075 0.342066
O O9 0.646565 0.489698 0.843302
O O10 0.579299 0.081880 0.903845
O O11 0.520894 0.520894 0.666667
#
# Coordination Sequence:
#
# PCOD9582376 Si02
#       5
#    12  12  12  12   6
#     4  10  18  28  43  62  84 113 150 185 219 262
#     4   9  17  28  42  60  83 110 138 180 227 260
#     4   9  17  31  50  69  87 107 143 194 241 275
#     4  10  20  32  47  67  93 122 156 188 225 281
#     4  12  24  36  48  66 102 144 168 184 216 278
#
# _framework density 17.718833
#
# number of rings (size 3 to 8) (size 9 to 14) (size 15 to 20)
#    0.000    2.222    0.000    4.000    0.000    8.889 
#    0.000    0.000    0.000    0.000    0.000    0.000 
#   16.667    0.000    0.000    0.000    0.000    0.000 
#
# Total GULP energy -300894.835396 kJ/mol
# GULP energy per Si atom -5572.126581 kJ/mol
# Density = 1.767850 g / cm^3
# Si number density = 17.718833 Si / 1000 Ang^3
#
#
#
# Elastic Constant Matrix: (Units=GPa)
#
#
# Indices 1 2 3 4 5 6 
#
# 1 24.7868 1.9015 3.1010 0.0000 0.0000 0.0000
# 2 1.9015 24.7868 3.1010 0.0000 0.0000 0.0000
# 3 3.1010 3.1010 68.0881 0.0000 0.0000 0.0000
# 4 0.0000 0.0000 0.0000 19.0498 0.0000 0.0000
# 5 0.0000 0.0000 0.0000 0.0000 19.0498 0.0000
# 6 0.0000 0.0000 0.0000 0.0000 0.0000 11.4426
#
#
#
# Elastic Compliance Matrix: (Units=1/GPa)
#
#
# Indices 1 2 3 4 5 6 
#
# 1 0.040783 -0.002913 -0.001725 0.000000 0.000000 0.000000
# 2 -0.002913 0.040783 -0.001725 0.000000 0.000000 0.000000
# 3 -0.001725 -0.001725 0.014844 0.000000 0.000000 0.000000
# 4 0.000000 0.000000 0.000000 0.052494 0.000000 0.000000
# 5 0.000000 0.000000 0.000000 0.000000 0.052494 0.000000
# 6 0.000000 0.000000 0.000000 0.000000 0.000000 0.087392
#
#
# Mechanical properties :
#
#
# Convention : Reuss Voigt Hill
#
# Bulk Modulus (GPa) = 11.94945 14.87429 13.41187
# Shear Modulus (GPa) = 15.17861 17.21234 16.19547
#
# Velocity S-wave (km/s) = 2.93001 3.12013 3.02657
# Velocity P-wave (km/s) = 4.26675 4.62527 4.44963
#
# Compressibility (1/GPa) = 0.08368587
#
# Stress axis : x y z
#
# Youngs Moduli (GPa) = 24.51980 24.51980 67.36746
#
# Poissons Ratio (x) = 0.07142 0.11619
# Poissons Ratio (y) = 0.07142 0.11619
# Poissons Ratio (z) = 0.04229 0.04229
#
# Static dielectric constant tensor:
#      x y z
#    x 1.615880 0.000000 0.000000 
#    y 0.000000 1.615880 0.000000 
#    z 0.000000 0.000000 1.650610 
# 
# From -- ./inp_files/1175.got.cif
#   From: 2010.05.17/outbox.cif.g08.bks.cpg/sg178_1_cif.got.tgz:1175.got - 2010.05.20 11:30:59.
