data_PCOD9582476
_publ_section_title
;
Structure prediction by ZEFSAII (Michael W. Deem and Ramdas Pophale) SiO2 
 PCOD9582476
Probable space group: P 61 2 2
;
_chemical_formula_sum "Si O2"
_cell_formula_units_Z 66
_cell_length_a 20.311978
_cell_length_b 20.311978
_cell_length_c 7.531726
_cell_angle_alpha 90.000000
_cell_angle_beta 90.000000
_cell_angle_gamma 120.000000
_cell_volume 2691.098405
_symmetry_space_group_name_H-M "P 61 2 2"
_symmetry_group_IT_number 178
_symmetry_cell_setting 'hexagonal'
loop_
_space_group_symop_operation_xyz
x,y,z
x-y,x,1/6+z
-y,x-y,1/3+z
-x,-y,1/2+z
-x+y,-x,2/3+z
y,-x+y,5/6+z
x-y,-y,-z
-x,-x+y,2/3-z
y,x,1/3-z
-y,-x,5/6-z
-x+y,y,1/2-z
x,x-y,1/6-z
loop_
_atom_site_type_symbol
_atom_site_label
_atom_site_fract_x
_atom_site_fract_y
_atom_site_fract_z
Si Si1 0.087833 0.711157 0.768162
Si Si2 0.576071 0.911670 0.032159
Si Si3 0.852847 0.879247 0.370305
Si Si4 0.172703 0.872823 0.612432
Si Si5 0.250347 0.749654 0.916667
Si Si6 0.372476 0.586549 0.720096
O O1 0.096189 0.678698 0.577342
O O2 0.114948 0.797700 0.715912
O O3 0.158733 0.722950 0.889784
O O4 0.000000 0.661253 0.833334
O O5 0.491394 0.851500 0.971852
O O6 0.630953 0.886409 0.935291
O O7 0.605904 0.000000 0.000000
O O8 0.903663 0.867835 0.511476
O O9 0.868966 0.868966 0.166667
O O10 0.763802 0.820974 0.388264
O O11 0.136004 0.863997 0.416667
O O12 0.229875 0.660731 0.883427
O O13 0.290316 0.580631 0.750000
O O14 0.405440 0.594561 0.916667
#
# Coordination Sequence:
#
# PCOD9582476 Si02
#       6
#    12  12  12  12   6  12
#     4  11  27  47  74 116 159 206 272 340 414 485
#     4  11  26  47  79 112 158 212 275 341 411 511
#     4  10  19  34  57  85 123 178 245 314 388 469
#     4  10  21  41  69  97 140 197 262 323 401 491
#     4  12  28  50  78 108 170 208 254 344 414 484
#     4  12  25  49  77 114 151 207 266 325 412 503
#
# _framework density 24.525300999999999
#
# number of rings (size 3 to 8) (size 9 to 14) (size 15 to 20)
#    0.000    1.091    4.545    2.182    5.091    0.727 
#    0.000    4.545    0.000    0.000    0.000    0.000 
#    0.000    0.000    0.000    0.000    0.000    0.000 
#
# Total GULP energy -367592.113014 kJ/mol
# GULP energy per Si atom -5569.577470 kJ/mol
# Density = 2.446948 g / cm^3
# Si number density = 24.525301 Si / 1000 Ang^3
#
#
#
# Elastic Constant Matrix: (Units=GPa)
#
#
# Indices 1 2 3 4 5 6 
#
# 1 196.3684 101.5387 43.8948 0.0000 0.0000 0.0000
# 2 101.5387 196.3684 43.8948 0.0000 0.0000 0.0000
# 3 43.8948 43.8948 70.2850 0.0000 0.0000 0.0000
# 4 0.0000 0.0000 0.0000 28.1150 0.0000 0.0000
# 5 0.0000 0.0000 0.0000 0.0000 28.1150 0.0000
# 6 0.0000 0.0000 0.0000 0.0000 0.0000 47.4149
#
#
#
# Elastic Compliance Matrix: (Units=1/GPa)
#
#
# Indices 1 2 3 4 5 6 
#
# 1 0.007330 -0.003216 -0.002569 0.000000 0.000000 0.000000
# 2 -0.003216 0.007330 -0.002569 0.000000 0.000000 0.000000
# 3 -0.002569 -0.002569 0.017437 0.000000 0.000000 0.000000
# 4 0.000000 0.000000 0.000000 0.035568 0.000000 0.000000
# 5 0.000000 0.000000 0.000000 0.000000 0.035568 0.000000
# 6 0.000000 0.000000 0.000000 0.000000 0.000000 0.021090
#
#
# Mechanical properties :
#
#
# Convention : Reuss Voigt Hill
#
# Bulk Modulus (GPa) = 64.98679 93.51983 79.25331
# Shear Modulus (GPa) = 34.20903 38.97521 36.59212
#
# Velocity S-wave (km/s) = 3.73882 3.99078 3.86685
# Velocity P-wave (km/s) = 6.72263 7.71037 7.23338
#
# Compressibility (1/GPa) = 0.01538774
#
# Stress axis : x y z
#
# Youngs Moduli (GPa) = 136.43417 136.43417 57.34967
#
# Poissons Ratio (x) = 0.43873 0.14734
# Poissons Ratio (y) = 0.43873 0.14734
# Poissons Ratio (z) = 0.35053 0.35053
#
# Static dielectric constant tensor:
#      x y z
#    x 1.966950 0.000000 0.000000 
#    y 0.000000 1.966950 0.000000 
#    z 0.000000 0.000000 2.053080 
# 
# From -- ./inp_files/3254.got.cif
#   From: 2010.05.17/outbox.cif.g08.bks.cpg/sg178_2_cif.got.tgz:3254.got - 2010.05.20 11:30:59.
