data_PCOD9582551
_publ_section_title
;
Structure prediction by ZEFSAII (Michael W. Deem and Ramdas Pophale) SiO2 
 PCOD9582551
Probable space group: P 61 2 2
;
_chemical_formula_sum "Si O2"
_cell_formula_units_Z 42
_cell_length_a 13.698229
_cell_length_b 13.698229
_cell_length_c 12.019451
_cell_angle_alpha 90.000000
_cell_angle_beta 90.000000
_cell_angle_gamma 120.000000
_cell_volume 1953.188270
_symmetry_space_group_name_H-M "P 61 2 2"
_symmetry_group_IT_number 178
_symmetry_cell_setting 'hexagonal'
loop_
_space_group_symop_operation_xyz
x,y,z
x-y,x,1/6+z
-y,x-y,1/3+z
-x,-y,1/2+z
-x+y,-x,2/3+z
y,-x+y,5/6+z
x-y,-y,-z
-x,-x+y,2/3-z
y,x,1/3-z
-y,-x,5/6-z
-x+y,y,1/2-z
x,x-y,1/6-z
loop_
_atom_site_type_symbol
_atom_site_label
_atom_site_fract_x
_atom_site_fract_y
_atom_site_fract_z
Si Si1 0.743810 0.207942 0.692898
Si Si2 0.094743 0.189485 0.250000
Si Si3 0.955757 0.324248 0.527285
Si Si4 0.176109 0.561266 0.304338
O O1 0.858615 0.261700 0.619194
O O2 0.647422 0.183907 0.600200
O O3 0.779230 0.308589 0.779382
O O4 0.693255 0.082673 0.741124
O O5 0.108899 0.108899 0.166667
O O6 0.221120 0.272801 0.291221
O O7 0.928537 0.401514 0.441772
O O8 0.269599 0.539198 0.250000
#
# Coordination Sequence:
#
# PCOD9582551 Si02
#       4
#    12   6  12  12
#     4  11  22  37  61  94 130 161 214 263 320 381
#     4  12  20  36  66  98 114 152 204 266 312 354
#     4  11  19  36  61  92 119 151 212 266 299 371
#     4  10  20  35  54  87 123 161 201 258 309 371
#
# _framework density 21.503302000000001
#
# number of rings (size 3 to 8) (size 9 to 14) (size 15 to 20)
#    0.000    1.143    7.143    4.286    0.000    2.286 
#    0.000    5.714    0.000    3.429    0.000    0.000 
#    0.000    0.000    0.000    0.000    0.000    0.000 
#
# Total GULP energy -234016.939543 kJ/mol
# GULP energy per Si atom -5571.831894 kJ/mol
# Density = 2.145436 g / cm^3
# Si number density = 21.503302 Si / 1000 Ang^3
#
#
#
# Elastic Constant Matrix: (Units=GPa)
#
#
# Indices 1 2 3 4 5 6 
#
# 1 172.5311 -0.9938 31.0600 0.0000 0.0000 0.0000
# 2 -0.9938 172.5311 31.0600 0.0000 0.0000 0.0000
# 3 31.0600 31.0600 35.8276 0.0000 0.0000 0.0000
# 4 0.0000 0.0000 0.0000 42.9960 0.0000 0.0000
# 5 0.0000 0.0000 0.0000 0.0000 42.9960 0.0000
# 6 0.0000 0.0000 0.0000 0.0000 0.0000 86.7625
#
#
#
# Elastic Compliance Matrix: (Units=1/GPa)
#
#
# Indices 1 2 3 4 5 6 
#
# 1 0.007130 0.001367 -0.007367 0.000000 0.000000 0.000000
# 2 0.001367 0.007130 -0.007367 0.000000 0.000000 0.000000
# 3 -0.007367 -0.007367 0.040684 0.000000 0.000000 0.000000
# 4 0.000000 0.000000 0.000000 0.023258 0.000000 0.000000
# 5 0.000000 0.000000 0.000000 0.000000 0.023258 0.000000
# 6 0.000000 0.000000 0.000000 0.000000 0.000000 0.011526
#
#
# Mechanical properties :
#
#
# Convention : Reuss Voigt Hill
#
# Bulk Modulus (GPa) = 35.44539 55.90466 45.67503
# Shear Modulus (GPa) = 33.52956 55.86845 44.69900
#
# Velocity S-wave (km/s) = 3.95305 5.10272 4.56423
# Velocity P-wave (km/s) = 6.11187 7.79561 7.00452
#
# Compressibility (1/GPa) = 0.02821241
#
# Stress axis : x y z
#
# Youngs Moduli (GPa) = 140.25030 140.25030 24.57960
#
# Poissons Ratio (x) = -0.19176 0.18107
# Poissons Ratio (y) = -0.19176 0.18107
# Poissons Ratio (z) = 1.03317 1.03317
#
# Static dielectric constant tensor:
#      x y z
#    x 1.721920 0.000000 0.000000 
#    y 0.000000 1.721920 0.000000 
#    z 0.000000 0.000000 1.847890 
# 
# From -- ./inp_files/5294.got.cif
#   From: 2010.05.17/outbox.cif.g08.bks.cpg/sg178_3_cif.got.tgz:5294.got - 2010.05.20 11:30:59.
