data_PCOD9582977
_publ_section_title
;
Structure prediction by ZEFSAII (Michael W. Deem and Ramdas Pophale) SiO2 
 PCOD9582977
Probable space group: P 61 2 2
;
_chemical_formula_sum "Si O2"
_cell_formula_units_Z 30
_cell_length_a 15.695688
_cell_length_b 15.695688
_cell_length_c 7.610601
_cell_angle_alpha 90.000000
_cell_angle_beta 90.000000
_cell_angle_gamma 120.000000
_cell_volume 1623.716859
_symmetry_space_group_name_H-M "P 61 2 2"
_symmetry_group_IT_number 178
_symmetry_cell_setting 'hexagonal'
loop_
_space_group_symop_operation_xyz
x,y,z
x-y,x,1/6+z
-y,x-y,1/3+z
-x,-y,1/2+z
-x+y,-x,2/3+z
y,-x+y,5/6+z
x-y,-y,-z
-x,-x+y,2/3-z
y,x,1/3-z
-y,-x,5/6-z
-x+y,y,1/2-z
x,x-y,1/6-z
loop_
_atom_site_type_symbol
_atom_site_label
_atom_site_fract_x
_atom_site_fract_y
_atom_site_fract_z
Si Si1 0.114230 0.736700 0.775738
Si Si2 0.546286 0.432139 0.709177
Si Si3 0.421492 0.210746 0.583334
O O1 0.140808 0.649029 0.784370
O O2 0.141566 0.781148 0.580102
O O3 0.000000 0.686224 0.833334
O O4 0.181457 0.818544 0.916667
O O5 0.473600 0.473600 0.666667
O O6 0.492525 0.320416 0.651783
O O7 0.562872 0.437129 0.916667
#
# Coordination Sequence:
#
# PCOD9582977 Si02
#       3
#    12  12   6
#     4  11  24  42  63  93 126 165 214 264 316 386
#     4  11  22  41  61  87 129 165 206 258 308 375
#     4  12  24  38  66  88 126 172 208 256 322 368
#
# _framework density 18.476127000000002
#
# number of rings (size 3 to 8) (size 9 to 14) (size 15 to 20)
#    0.000    0.800    4.000    6.000    0.000    3.200 
#    3.600    0.000    0.000    0.000    5.200    0.000 
#    0.000    0.000    0.000    0.000    0.000    0.000 
#
# Total GULP energy -167747.565546 kJ/mol
# GULP energy per Si atom -5591.585518 kJ/mol
# Density = 1.843407 g / cm^3
# Si number density = 18.476127 Si / 1000 Ang^3
#
#
#
# Elastic Constant Matrix: (Units=GPa)
#
#
# Indices 1 2 3 4 5 6 
#
# 1 84.8877 38.7094 43.7192 0.0000 0.0000 0.0000
# 2 38.7094 84.8877 43.7192 0.0000 0.0000 0.0000
# 3 43.7192 43.7192 166.5400 0.0000 0.0000 0.0000
# 4 0.0000 0.0000 0.0000 31.5085 0.0000 0.0000
# 5 0.0000 0.0000 0.0000 0.0000 31.5085 0.0000
# 6 0.0000 0.0000 0.0000 0.0000 0.0000 23.0891
#
#
#
# Elastic Compliance Matrix: (Units=1/GPa)
#
#
# Indices 1 2 3 4 5 6 
#
# 1 0.015796 -0.005860 -0.002608 0.000000 0.000000 0.000000
# 2 -0.005860 0.015796 -0.002608 0.000000 0.000000 0.000000
# 3 -0.002608 -0.002608 0.007374 0.000000 0.000000 0.000000
# 4 0.000000 0.000000 0.000000 0.031737 0.000000 0.000000
# 5 0.000000 0.000000 0.000000 0.000000 0.031737 0.000000
# 6 0.000000 0.000000 0.000000 0.000000 0.000000 0.043310
#
#
# Mechanical properties :
#
#
# Convention : Reuss Voigt Hill
#
# Bulk Modulus (GPa) = 59.47875 65.40123 62.43999
# Shear Modulus (GPa) = 28.81721 31.23242 30.02482
#
# Velocity S-wave (km/s) = 3.95359 4.11593 4.03558
# Velocity P-wave (km/s) = 7.28720 7.61987 7.45539
#
# Compressibility (1/GPa) = 0.01681273
#
# Stress axis : x y z
#
# Youngs Moduli (GPa) = 63.30861 63.30861 135.61108
#
# Poissons Ratio (x) = 0.37096 0.35372
# Poissons Ratio (y) = 0.37096 0.35372
# Poissons Ratio (z) = 0.16513 0.16513
#
# Static dielectric constant tensor:
#      x y z
#    x 1.621700 0.000000 0.000000 
#    y 0.000000 1.621700 0.000000 
#    z 0.000000 0.000000 1.676130 
# 
# From -- ./inp_files/2015.got.cif
#   From: 2010.05.17/outbox.cif.g08.bks.cpg/sg178_2_cif.got.tgz:2015.got - 2010.05.20 11:30:59.
