data_PCOD9582649
_publ_section_title
;
Structure prediction by ZEFSAII (Michael W. Deem and Ramdas Pophale) SiO2 
 PCOD9582649
Probable space group: P 61 2 2
;
_chemical_formula_sum "Si O2"
_cell_formula_units_Z 48
_cell_length_a 16.017301
_cell_length_b 16.017301
_cell_length_c 10.040342
_cell_angle_alpha 90.000000
_cell_angle_beta 90.000000
_cell_angle_gamma 120.000000
_cell_volume 2230.785495
_symmetry_space_group_name_H-M "P 61 2 2"
_symmetry_group_IT_number 178
_symmetry_cell_setting 'hexagonal'
loop_
_space_group_symop_operation_xyz
x,y,z
x-y,x,1/6+z
-y,x-y,1/3+z
-x,-y,1/2+z
-x+y,-x,2/3+z
y,-x+y,5/6+z
x-y,-y,-z
-x,-x+y,2/3-z
y,x,1/3-z
-y,-x,5/6-z
-x+y,y,1/2-z
x,x-y,1/6-z
loop_
_atom_site_type_symbol
_atom_site_label
_atom_site_fract_x
_atom_site_fract_y
_atom_site_fract_z
Si Si1 0.016977 0.339625 0.622161
Si Si2 0.132141 0.188731 0.383677
Si Si3 0.860339 0.465319 0.445359
Si Si4 0.000000 0.400269 0.333334
Si Si5 0.227761 0.455521 0.750000
O O1 0.121817 0.391034 0.687240
O O2 0.964952 0.225060 0.634525
O O3 0.949631 0.378294 0.682192
O O4 0.023505 0.359388 0.464165
O O5 0.147345 0.106616 0.313680
O O6 0.119597 0.239193 0.250000
O O7 0.819898 0.409949 0.583334
O O8 0.908978 0.414093 0.364945
O O9 0.785380 0.480706 0.361389
#
# Coordination Sequence:
#
# PCOD9582649 Si02
#       5
#    12  12  12   6   6
#     4  11  22  39  69  97 129 173 228 273 322 401
#     4  10  21  39  56  89 131 174 219 264 320 374
#     4  10  22  40  66  97 128 172 218 270 345 403
#     4  10  20  42  68  90 132 180 208 266 338 418
#     4  12  22  40  68 102 130 164 228 288 322 402
#
# _framework density 21.517085000000002
#
# number of rings (size 3 to 8) (size 9 to 14) (size 15 to 20)
#    0.000    1.500    2.500    3.000    0.000    0.000 
#   11.250    3.750   11.000    0.000    0.000    0.000 
#    0.000    0.000    0.000    0.000    0.000    0.000 
#
# Total GULP energy -268570.140065 kJ/mol
# GULP energy per Si atom -5595.211251 kJ/mol
# Density = 2.146811 g / cm^3
# Si number density = 21.517085 Si / 1000 Ang^3
#
#
#
# Elastic Constant Matrix: (Units=GPa)
#
#
# Indices 1 2 3 4 5 6 
#
# 1 57.7767 28.6063 32.0716 0.0000 0.0000 0.0000
# 2 28.6063 57.7767 32.0716 0.0000 0.0000 0.0000
# 3 32.0716 32.0716 98.6103 0.0000 0.0000 0.0000
# 4 0.0000 0.0000 0.0000 9.1420 0.0000 0.0000
# 5 0.0000 0.0000 0.0000 0.0000 9.1420 0.0000
# 6 0.0000 0.0000 0.0000 0.0000 0.0000 14.5852
#
#
#
# Elastic Compliance Matrix: (Units=1/GPa)
#
#
# Indices 1 2 3 4 5 6 
#
# 1 0.024772 -0.009510 -0.004964 0.000000 0.000000 0.000000
# 2 -0.009510 0.024772 -0.004964 0.000000 0.000000 0.000000
# 3 -0.004964 -0.004964 0.013370 0.000000 0.000000 0.000000
# 4 0.000000 0.000000 0.000000 0.109385 0.000000 0.000000
# 5 0.000000 0.000000 0.000000 0.000000 0.109385 0.000000
# 6 0.000000 0.000000 0.000000 0.000000 0.000000 0.068563
#
#
# Mechanical properties :
#
#
# Convention : Reuss Voigt Hill
#
# Bulk Modulus (GPa) = 41.59923 44.40695 43.00309
# Shear Modulus (GPa) = 12.59023 14.66813 13.62918
#
# Velocity S-wave (km/s) = 2.42156 2.61377 2.51950
# Velocity P-wave (km/s) = 5.21476 5.45819 5.33786
#
# Compressibility (1/GPa) = 0.02403890
#
# Stress axis : x y z
#
# Youngs Moduli (GPa) = 40.36858 40.36858 74.79566
#
# Poissons Ratio (x) = 0.38389 0.37127
# Poissons Ratio (y) = 0.38389 0.37127
# Poissons Ratio (z) = 0.20038 0.20038
#
# Static dielectric constant tensor:
#      x y z
#    x 1.759800 0.000000 0.000000 
#    y 0.000000 1.759800 0.000000 
#    z 0.000000 0.000000 1.802890 
# 
# From -- ./inp_files/2667.got.cif
#   From: 2010.05.17/outbox.cif.g08.bks.cpg/sg178_2_cif.got.tgz:2667.got - 2010.05.20 11:30:59.
