data_PCOD9582134
_publ_section_title
;
Structure prediction by ZEFSAII (Michael W. Deem and Ramdas Pophale) SiO2 
 PCOD9582134
Probable space group: P 63/M
;
_chemical_formula_sum "Si O2"
_cell_formula_units_Z 40
_cell_length_a 11.422922
_cell_length_b 11.422922
_cell_length_c 17.152242
_cell_angle_alpha 90.000000
_cell_angle_beta 90.000000
_cell_angle_gamma 120.000000
_cell_volume 1938.232849
_symmetry_space_group_name_H-M "P 63/M"
_symmetry_group_IT_number 176
_symmetry_cell_setting 'hexagonal'
loop_
_space_group_symop_operation_xyz
x,y,z
x-y,x,1/2+z
-y,x-y,z
-x,-y,1/2+z
-x+y,-x,z
y,-x+y,1/2+z
-x,-y,-z
-x+y,-x,1/2-z
y,-x+y,-z
x,y,1/2-z
x-y,x,-z
-y,x-y,1/2-z
loop_
_atom_site_type_symbol
_atom_site_label
_atom_site_fract_x
_atom_site_fract_y
_atom_site_fract_z
Si Si1 0.609917 0.810751 0.916377
Si Si2 0.636774 0.574778 0.840132
Si Si3 0.591186 0.702115 0.088751
Si Si4 0.666668 0.333335 0.158261
O O1 0.653919 0.715227 0.871892
O O2 0.472936 0.783542 0.874809
O O3 0.705495 0.971380 0.912799
O O4 0.577347 0.756095 0.004464
O O5 0.592690 0.554849 0.750000
O O6 0.528617 0.448864 0.892051
O O7 0.780258 0.582369 0.849404
O O8 0.666667 0.333334 0.250000
#
# Coordination Sequence:
#
# PCOD9582134 Si02
#       4
#    12  12  12   4
#     4  12  24  45  71 101 138 183 236 282 341 418
#     4  12  26  44  71 107 142 180 230 290 356 408
#     4  12  25  47  73 100 140 185 233 287 341 416
#     4  12  24  39  69 105 136 173 229 291 345 402
#
# _framework density 20.637357000000002
#
# number of rings (size 3 to 8) (size 9 to 14) (size 15 to 20)
#    0.000    0.000    6.000    5.100    0.000    3.600 
#    1.800    1.500    0.000    0.000    0.000    0.000 
#    0.000    0.000    0.000    0.000    0.000    0.000 
#
# Total GULP energy -223798.222850 kJ/mol
# GULP energy per Si atom -5594.955571 kJ/mol
# Density = 2.059039 g / cm^3
# Si number density = 20.637357 Si / 1000 Ang^3
#
#
#
# Elastic Constant Matrix: (Units=GPa)
#
#
# Indices 1 2 3 4 5 6 
#
# 1 112.3074 38.2933 24.4466 0.0000 0.0000 0.0010
# 2 38.2933 112.3044 24.4485 0.0000 0.0000 -0.0010
# 3 24.4466 24.4485 79.7045 0.0000 0.0000 0.0001
# 4 0.0000 0.0000 0.0000 21.6541 -0.0001 0.0000
# 5 0.0000 0.0000 0.0000 -0.0001 21.6545 0.0000
# 6 0.0010 -0.0010 0.0001 0.0000 0.0000 37.0035
#
#
#
# Elastic Compliance Matrix: (Units=1/GPa)
#
#
# Indices 1 2 3 4 5 6 
#
# 1 0.010443 -0.003068 -0.002262 0.000000 0.000000 0.000000
# 2 -0.003068 0.010443 -0.002262 0.000000 0.000000 0.000000
# 3 -0.002262 -0.002262 0.013934 0.000000 0.000000 0.000000
# 4 0.000000 0.000000 0.000000 0.046181 0.000000 0.000000
# 5 0.000000 0.000000 0.000000 0.000000 0.046180 0.000000
# 6 0.000000 0.000000 0.000000 0.000000 0.000000 0.027024
#
#
# Mechanical properties :
#
#
# Convention : Reuss Voigt Hill
#
# Bulk Modulus (GPa) = 50.92908 53.18812 52.05860
# Shear Modulus (GPa) = 28.41970 30.53760 29.47865
#
# Velocity S-wave (km/s) = 3.71496 3.85089 3.78353
# Velocity P-wave (km/s) = 6.56756 6.75286 6.66086
#
# Compressibility (1/GPa) = 0.01963515
#
# Stress axis : x y z
#
# Youngs Moduli (GPa) = 95.76093 95.75710 71.76712
#
# Poissons Ratio (x) = 0.29382 0.16232
# Poissons Ratio (y) = 0.29383 0.16235
# Poissons Ratio (z) = 0.21659 0.21662
#
# Static dielectric constant tensor:
#      x y z
#    x 1.767010 0.000010 0.000000 
#    y 0.000010 1.767020 0.000000 
#    z 0.000000 0.000000 1.715560 
# 
# From -- ./inp_files/3112.got.cif
#   From: 2010.05.17/outbox.cif.g08.bks.cpg/sg176_2_cif.got.tgz:3112.got - 2010.06.03 11:36:45.
