data_PCOD9582394
_publ_section_title
;
Structure prediction by ZEFSAII (Michael W. Deem and Ramdas Pophale) SiO2 
 PCOD9582394
Probable space group: P 61 2 2
;
_chemical_formula_sum "Si O2"
_cell_formula_units_Z 54
_cell_length_a 19.265935
_cell_length_b 19.265935
_cell_length_c 8.916884
_cell_angle_alpha 90.000000
_cell_angle_beta 90.000000
_cell_angle_gamma 120.000000
_cell_volume 2866.315090
_symmetry_space_group_name_H-M "P 61 2 2"
_symmetry_group_IT_number 178
_symmetry_cell_setting 'hexagonal'
loop_
_space_group_symop_operation_xyz
x,y,z
x-y,x,1/6+z
-y,x-y,1/3+z
-x,-y,1/2+z
-x+y,-x,2/3+z
y,-x+y,5/6+z
x-y,-y,-z
-x,-x+y,2/3-z
y,x,1/3-z
-y,-x,5/6-z
-x+y,y,1/2-z
x,x-y,1/6-z
loop_
_atom_site_type_symbol
_atom_site_label
_atom_site_fract_x
_atom_site_fract_y
_atom_site_fract_z
Si Si1 0.084119 0.542060 0.583334
Si Si2 0.799720 0.345674 0.858124
Si Si3 0.731383 0.530894 0.904481
Si Si4 0.132057 0.375172 0.646257
Si Si5 0.630578 0.644173 0.490002
O O1 0.145476 0.570226 0.440340
O O2 0.025512 0.578023 0.598984
O O3 0.708997 0.291004 0.916667
O O4 0.794200 0.331839 0.681746
O O5 0.847685 0.300673 0.917625
O O6 0.750931 0.501862 0.750000
O O7 0.694714 0.587744 0.873075
O O8 0.813369 0.583346 0.999261
O O9 0.165162 0.330324 0.750000
O O10 0.040547 0.327145 0.598013
O O11 0.642515 0.642515 0.666667
#
# Coordination Sequence:
#
# PCOD9582394 Si02
#       5
#     6  12  12  12  12
#     4  10  22  34  52  80 108 132 192 248 284 338
#     4   8  18  35  53  67 100 141 174 226 298 348
#     4  10  18  32  52  74 106 141 172 215 291 355
#     4   8  17  33  49  70  98 141 173 209 276 351
#     4  11  21  31  51  80 110 136 182 237 287 340
#
# _framework density 18.83952
#
# number of rings (size 3 to 8) (size 9 to 14) (size 15 to 20)
#    0.000    3.111    2.222    0.000    3.111    7.111 
#    0.000    0.000    0.000    8.000    0.000    0.000 
#    0.000    0.000    0.000   10.000    0.000    0.444 
#
# Total GULP energy -300979.417001 kJ/mol
# GULP energy per Si atom -5573.692907 kJ/mol
# Density = 1.879664 g / cm^3
# Si number density = 18.839520 Si / 1000 Ang^3
#
#
#
# Elastic Constant Matrix: (Units=GPa)
#
#
# Indices 1 2 3 4 5 6 
#
# 1 36.0434 35.8531 30.6540 0.0000 0.0000 0.0000
# 2 35.8531 36.0434 30.6540 0.0000 0.0000 0.0000
# 3 30.6540 30.6540 129.9637 0.0000 0.0000 0.0000
# 4 0.0000 0.0000 0.0000 0.8873 0.0000 0.0000
# 5 0.0000 0.0000 0.0000 0.0000 0.8873 0.0000
# 6 0.0000 0.0000 0.0000 0.0000 0.0000 0.0952
#
#
#
# Elastic Compliance Matrix: (Units=1/GPa)
#
#
# Indices 1 2 3 4 5 6 
#
# 1 2.635920 -2.618510 -0.004107 0.000000 0.000000 0.000000
# 2 -2.618510 2.635920 -0.004107 0.000000 0.000000 0.000000
# 3 -0.004107 -0.004107 0.009632 0.000000 0.000000 0.000000
# 4 0.000000 0.000000 0.000000 1.126985 0.000000 0.000000
# 5 0.000000 0.000000 0.000000 0.000000 1.126985 0.000000
# 6 0.000000 0.000000 0.000000 0.000000 0.000000 10.508861
#
#
# Mechanical properties :
#
#
# Convention : Reuss Voigt Hill
#
# Bulk Modulus (GPa) = 35.68030 44.04140 39.86085
# Shear Modulus (GPa) = 0.21453 7.36660 3.79056
#
# Velocity S-wave (km/s) = 0.33781 1.97956 1.42000
# Velocity P-wave (km/s) = 4.37405 5.35283 4.88800
#
# Compressibility (1/GPa) = 0.02802667
#
# Stress axis : x y z
#
# Youngs Moduli (GPa) = 0.37937 0.37937 103.82434
#
# Poissons Ratio (x) = 0.99339 0.42636
# Poissons Ratio (y) = 0.99339 0.42636
# Poissons Ratio (z) = 0.00156 0.00156
#
# Static dielectric constant tensor:
#      x y z
#    x 1.717010 0.000000 0.000000 
#    y 0.000000 1.717010 0.000000 
#    z 0.000000 0.000000 1.743770 
# 
# From -- ./inp_files/3053.got.cif
#   From: 2010.05.17/outbox.cif.g08.bks.cpg/sg178_2_cif.got.tgz:3053.got - 2010.05.20 11:30:59.
