data_PCOD9582475
_publ_section_title
;
Structure prediction by ZEFSAII (Michael W. Deem and Ramdas Pophale) SiO2 
 PCOD9582475
Probable space group: P 61 2 2
;
_chemical_formula_sum "Si O2"
_cell_formula_units_Z 54
_cell_length_a 16.361716
_cell_length_b 16.361716
_cell_length_c 13.151870
_cell_angle_alpha 90.000000
_cell_angle_beta 90.000000
_cell_angle_gamma 120.000000
_cell_volume 3049.129286
_symmetry_space_group_name_H-M "P 61 2 2"
_symmetry_group_IT_number 178
_symmetry_cell_setting 'hexagonal'
loop_
_space_group_symop_operation_xyz
x,y,z
x-y,x,1/6+z
-y,x-y,1/3+z
-x,-y,1/2+z
-x+y,-x,2/3+z
y,-x+y,5/6+z
x-y,-y,-z
-x,-x+y,2/3-z
y,x,1/3-z
-y,-x,5/6-z
-x+y,y,1/2-z
x,x-y,1/6-z
loop_
_atom_site_type_symbol
_atom_site_label
_atom_site_fract_x
_atom_site_fract_y
_atom_site_fract_z
Si Si1 0.966196 0.705966 0.131778
Si Si2 0.898964 0.542451 0.295384
Si Si3 0.612203 0.827061 0.844487
Si Si4 0.074611 0.149221 0.750000
Si Si5 0.655948 0.244481 0.634057
O O1 0.921938 0.610323 0.198309
O O2 0.893989 0.683056 0.039855
O O3 0.960694 0.783661 0.201519
O O4 0.076166 0.741771 0.113786
O O5 0.856995 0.579682 0.384073
O O6 0.828284 0.436213 0.262869
O O7 0.000000 0.560575 0.333334
O O8 0.518383 0.740331 0.799293
O O9 0.086546 0.086546 0.666667
O O10 0.621700 0.243399 0.750000
O O11 0.690809 0.345405 0.583334
#
# Coordination Sequence:
#
# PCOD9582475 Si02
#       5
#    12  12  12   6  12
#     4  11  18  33  57  89 119 143 184 255 306 348
#     4  10  19  34  57  85 116 150 195 252 298 349
#     4  11  21  35  57  88 122 152 194 244 307 356
#     4  12  20  32  60  92 122 148 188 252 318 360
#     4  12  22  38  58  82 123 166 204 247 296 357
#
# _framework density 17.709973999999999
#
# number of rings (size 3 to 8) (size 9 to 14) (size 15 to 20)
#    0.000    0.889    8.889    0.667    0.000    0.000 
#    8.000    0.000    0.000    1.333    2.889    0.000 
#    0.000    0.000    0.000    0.000    0.000    0.000 
#
# Total GULP energy -301477.799500 kJ/mol
# GULP energy per Si atom -5582.922213 kJ/mol
# Density = 1.766967 g / cm^3
# Si number density = 17.709974 Si / 1000 Ang^3
#
#
#
# Elastic Constant Matrix: (Units=GPa)
#
#
# Indices 1 2 3 4 5 6 
#
# 1 104.5096 56.1156 21.3612 0.0000 0.0000 0.0000
# 2 56.1156 104.5096 21.3612 0.0000 0.0000 0.0000
# 3 21.3612 21.3612 19.5843 0.0000 0.0000 0.0000
# 4 0.0000 0.0000 0.0000 22.7753 0.0000 0.0000
# 5 0.0000 0.0000 0.0000 0.0000 22.7753 0.0000
# 6 0.0000 0.0000 0.0000 0.0000 0.0000 24.1970
#
#
#
# Elastic Compliance Matrix: (Units=1/GPa)
#
#
# Indices 1 2 3 4 5 6 
#
# 1 0.014717 -0.005947 -0.009566 0.000000 0.000000 0.000000
# 2 -0.005947 0.014717 -0.009566 0.000000 0.000000 0.000000
# 3 -0.009566 -0.009566 0.071928 0.000000 0.000000 0.000000
# 4 0.000000 0.000000 0.000000 0.043907 0.000000 0.000000
# 5 0.000000 0.000000 0.000000 0.000000 0.043907 0.000000
# 6 0.000000 0.000000 0.000000 0.000000 0.000000 0.041327
#
#
# Mechanical properties :
#
#
# Convention : Reuss Voigt Hill
#
# Bulk Modulus (GPa) = 19.52909 47.36441 33.44675
# Shear Modulus (GPa) = 16.79381 22.60054 19.69718
#
# Velocity S-wave (km/s) = 3.08274 3.57620 3.33860
# Velocity P-wave (km/s) = 4.87054 6.62229 5.81278
#
# Compressibility (1/GPa) = 0.05120567
#
# Stress axis : x y z
#
# Youngs Moduli (GPa) = 67.94949 67.94949 13.90273
#
# Poissons Ratio (x) = 0.40409 0.13299
# Poissons Ratio (y) = 0.40409 0.13299
# Poissons Ratio (z) = 0.64998 0.64998
#
# Static dielectric constant tensor:
#      x y z
#    x 1.606050 0.000000 0.000000 
#    y 0.000000 1.606050 0.000000 
#    z 0.000000 0.000000 1.606360 
# 
# From -- ./inp_files/5575.got.cif
#   From: 2010.05.17/outbox.cif.g08.bks.cpg/sg178_3_cif.got.tgz:5575.got - 2010.05.20 11:30:59.
