data_PCOD9582885
_publ_section_title
;
Structure prediction by ZEFSAII (Michael W. Deem and Ramdas Pophale) SiO2 
 PCOD9582885
Probable space group: P 61 2 2
;
_chemical_formula_sum "Si O2"
_cell_formula_units_Z 42
_cell_length_a 7.422311
_cell_length_b 7.422311
_cell_length_c 35.420390
_cell_angle_alpha 90.000000
_cell_angle_beta 90.000000
_cell_angle_gamma 120.000000
_cell_volume 1689.904902
_symmetry_space_group_name_H-M "P 61 2 2"
_symmetry_group_IT_number 178
_symmetry_cell_setting 'hexagonal'
loop_
_space_group_symop_operation_xyz
x,y,z
x-y,x,1/6+z
-y,x-y,1/3+z
-x,-y,1/2+z
-x+y,-x,2/3+z
y,-x+y,5/6+z
x-y,-y,-z
-x,-x+y,2/3-z
y,x,1/3-z
-y,-x,5/6-z
-x+y,y,1/2-z
x,x-y,1/6-z
loop_
_atom_site_type_symbol
_atom_site_label
_atom_site_fract_x
_atom_site_fract_y
_atom_site_fract_z
Si Si1 0.455762 0.640311 0.196241
Si Si2 0.587251 0.174501 0.250000
Si Si3 0.277816 0.119044 0.401169
Si Si4 0.109722 0.620921 0.161908
O O1 0.570938 0.570938 0.166667
O O2 0.546408 0.661051 0.238201
O O3 0.209631 0.511265 0.187351
O O4 0.506265 0.877106 0.188133
O O5 0.571734 0.259484 0.291109
O O6 0.343343 0.042385 0.239605
O O7 0.315814 0.094868 0.357588
O O8 0.061981 0.938020 0.416667
#
# Coordination Sequence:
#
# PCOD9582885 Si02
#       4
#    12   6  12  12
#     4  11  23  40  66 102 131 185 232 278 364 419
#     4  10  24  40  62 104 138 174 232 298 354 422
#     4  11  20  38  68  97 130 185 229 282 352 435
#     4  11  21  41  64  97 140 169 231 293 340 434
#
# _framework density 24.853469
#
# number of rings (size 3 to 8) (size 9 to 14) (size 15 to 20)
#    0.000    1.143    8.571    0.000    0.000    2.286 
#    0.000    7.143    0.000    0.000    0.000    0.000 
#    0.000    0.000    0.000    0.000    0.000    0.000 
#
# Total GULP energy -233886.667124 kJ/mol
# GULP energy per Si atom -5568.730170 kJ/mol
# Density = 2.479690 g / cm^3
# Si number density = 24.853469 Si / 1000 Ang^3
#
#
#
# Elastic Constant Matrix: (Units=GPa)
#
#
# Indices 1 2 3 4 5 6 
#
# 1 74.8771 20.2233 16.1128 0.0000 0.0000 0.0000
# 2 20.2233 74.8771 16.1128 0.0000 0.0000 0.0000
# 3 16.1128 16.1128 158.4560 0.0000 0.0000 0.0000
# 4 0.0000 0.0000 0.0000 38.1108 0.0000 0.0000
# 5 0.0000 0.0000 0.0000 0.0000 38.1108 0.0000
# 6 0.0000 0.0000 0.0000 0.0000 0.0000 27.3269
#
#
#
# Elastic Compliance Matrix: (Units=1/GPa)
#
#
# Indices 1 2 3 4 5 6 
#
# 1 0.014594 -0.003703 -0.001107 0.000000 0.000000 0.000000
# 2 -0.003703 0.014594 -0.001107 0.000000 0.000000 0.000000
# 3 -0.001107 -0.001107 0.006536 0.000000 0.000000 0.000000
# 4 0.000000 0.000000 0.000000 0.026239 0.000000 0.000000
# 5 0.000000 0.000000 0.000000 0.000000 0.026239 0.000000
# 6 0.000000 0.000000 0.000000 0.000000 0.000000 0.036594
#
#
# Mechanical properties :
#
#
# Convention : Reuss Voigt Hill
#
# Bulk Modulus (GPa) = 41.86306 45.90086 43.88196
# Shear Modulus (GPa) = 34.57940 37.76046 36.16993
#
# Velocity S-wave (km/s) = 3.73410 3.90208 3.81901
# Velocity P-wave (km/s) = 5.95583 6.22979 6.09435
#
# Compressibility (1/GPa) = 0.02388741
#
# Stress axis : x y z
#
# Youngs Moduli (GPa) = 68.52255 68.52255 152.99605
#
# Poissons Ratio (x) = 0.25376 0.16943
# Poissons Ratio (y) = 0.25376 0.16943
# Poissons Ratio (z) = 0.07588 0.07588
#
# Static dielectric constant tensor:
#      x y z
#    x 2.066070 0.000000 0.000000 
#    y 0.000000 2.066070 0.000000 
#    z 0.000000 0.000000 2.164150 
# 
# From -- ./inp_files/9311.got.cif
#   From: 2010.05.17/outbox.cif.g08.bks.cpg/sg178_5_cif.got.tgz:9311.got - 2010.05.20 11:30:59.
