data_PCOD9582156
_publ_section_title
;
Structure prediction by ZEFSAII (Michael W. Deem and Ramdas Pophale) SiO2 
 PCOD9582156
Probable space group: P 63/M
;
_chemical_formula_sum "Si O2"
_cell_formula_units_Z 72
_cell_length_a 12.000000
_cell_length_b 12.000000
_cell_length_c 30.000000
_cell_angle_alpha 90.000000
_cell_angle_beta 90.000000
_cell_angle_gamma 120.000000
_cell_volume 3741.229744
_symmetry_space_group_name_H-M "P 63/M"
_symmetry_group_IT_number 176
_symmetry_cell_setting 'hexagonal'
loop_
_space_group_symop_operation_xyz
x,y,z
x-y,x,1/2+z
-y,x-y,z
-x,-y,1/2+z
-x+y,-x,z
y,-x+y,1/2+z
-x,-y,-z
-x+y,-x,1/2-z
y,-x+y,-z
x,y,1/2-z
x-y,x,-z
-y,x-y,1/2-z
loop_
_atom_site_type_symbol
_atom_site_label
_atom_site_fract_x
_atom_site_fract_y
_atom_site_fract_z
Si Si1 0.300518 0.207138 0.645739
Si Si2 0.290960 0.196560 0.489181
Si Si3 0.710242 0.792740 0.250000
Si Si4 0.692879 0.203493 0.174438
Si Si5 0.085870 0.303028 0.750000
Si Si6 0.706012 0.209586 0.565283
Si Si7 0.913605 0.714629 0.383875
O O1 0.343802 0.246230 0.698091
O O2 0.415308 0.271503 0.608973
O O3 0.189670 0.242399 0.632316
O O4 0.240645 0.052547 0.638274
O O5 0.191600 0.236445 0.507935
O O6 0.418289 0.266369 0.520483
O O7 0.290198 0.218635 0.436574
O O8 0.823697 0.759339 0.250000
O O9 0.752940 0.941889 0.250000
O O10 0.796058 0.356009 0.179501
O O11 0.720920 0.121891 0.209382
O O12 0.712403 0.147307 0.129432
O O13 0.800002 0.365913 0.565906
#
# Coordination Sequence:
#
# PCOD9582156 Si02
#       7
#    12  12   6  12   6  12  12
#     4  12  23  45  66 104 136 167 223 288 341 382
#     4  12  23  43  71 107 130 169 216 279 349 404
#     4  12  23  38  72 100 124 179 220 270 348 396
#     4  10  24  42  62  96 132 181 218 275 324 389
#     4  12  21  44  62 100 136 163 224 286 346 376
#     4  10  26  48  64  94 140 182 218 274 326 391
#     4  12  23  41  74 101 131 174 219 279 347 398
#
# _framework density 19.245009
#
# number of rings (size 3 to 8) (size 9 to 14) (size 15 to 20)
#    0.667    0.000    6.667    1.167    0.000    3.333 
#    0.000    0.833    0.000    0.000    0.000    0.000 
#    0.000    0.000    0.000    0.000    0.000    0.000 
#
# Total GULP energy -401111.817169 kJ/mol
# GULP energy per Si atom -5570.997461 kJ/mol
# Density = 1.920121 g / cm^3
# Si number density = 19.245009 Si / 1000 Ang^3
#
#
#
# Elastic Constant Matrix: (Units=GPa)
#
#
# Indices 1 2 3 4 5 6 
#
# 1 50.8665 -46.6093 1.2712 0.0000 0.0000 0.0000
# 2 -46.6093 50.8665 1.2712 0.0000 0.0000 0.0000
# 3 1.2712 1.2712 98.9010 0.0000 0.0000 0.0000
# 4 0.0000 0.0000 0.0000 22.1235 0.0000 0.0000
# 5 0.0000 0.0000 0.0000 0.0000 22.1235 0.0000
# 6 0.0000 0.0000 0.0000 0.0000 0.0000 48.7379
#
#
#
# Elastic Compliance Matrix: (Units=1/GPa)
#
#
# Indices 1 2 3 4 5 6 
#
# 1 0.123487 0.113228 -0.003043 0.000000 0.000000 0.000000
# 2 0.113228 0.123487 -0.003043 0.000000 0.000000 0.000000
# 3 -0.003043 -0.003043 0.010189 0.000000 0.000000 0.000000
# 4 0.000000 0.000000 0.000000 0.045201 0.000000 0.000000
# 5 0.000000 0.000000 0.000000 0.000000 0.045201 0.000000
# 6 0.000000 0.000000 0.000000 0.000000 0.000000 0.020518
#
#
# Mechanical properties :
#
#
# Convention : Reuss Voigt Hill
#
# Bulk Modulus (GPa) = 2.12112 12.50002 7.31057
# Shear Modulus (GPa) = 16.07994 34.91040 25.49517
#
# Velocity S-wave (km/s) = 2.89370 4.26373 3.64368
# Velocity P-wave (km/s) = 3.50275 5.54513 4.63776
#
# Compressibility (1/GPa) = 0.47144888
#
# Stress axis : x y z
#
# Youngs Moduli (GPa) = 8.09802 8.09802 98.14186
#
# Poissons Ratio (x) = -0.91692 0.29860
# Poissons Ratio (y) = -0.91692 0.29860
# Poissons Ratio (z) = 0.02464 0.02464
#
# Static dielectric constant tensor:
#      x y z
#    x 1.661370 0.000000 0.000000 
#    y 0.000000 1.661370 0.000000 
#    z 0.000000 0.000000 1.872240 
# 
# From -- ./inp_files/4519.got.cif
#   From: 2010.05.17/outbox.ucp.g08.bks.cvg/sg176_3_cif.got.tgz:4519.got - 2010.06.11 15:18:56.
