data_PCOD9582283
_publ_section_title
;
Structure prediction by ZEFSAII (Michael W. Deem and Ramdas Pophale) SiO2 
 PCOD9582283
Probable space group: P 6 2 2
;
_chemical_formula_sum "Si O2"
_cell_formula_units_Z 84
_cell_length_a 16.964060
_cell_length_b 16.964060
_cell_length_c 13.262288
_cell_angle_alpha 90.000000
_cell_angle_beta 90.000000
_cell_angle_gamma 120.000000
_cell_volume 3305.283275
_symmetry_space_group_name_H-M "P 6 2 2"
_symmetry_group_IT_number 177
_symmetry_cell_setting 'hexagonal'
loop_
_space_group_symop_operation_xyz
x,y,z
x-y,x,z
-y,x-y,z
-x,-y,z
-x+y,-x,z
y,-x+y,z
x-y,-y,-z
-x,-x+y,-z
y,x,-z
-y,-x,-z
-x+y,y,-z
x,x-y,-z
loop_
_atom_site_type_symbol
_atom_site_label
_atom_site_fract_x
_atom_site_fract_y
_atom_site_fract_z
Si Si1 0.886375 0.096810 0.201040
Si Si2 0.631165 0.037084 0.343953
Si Si3 0.542458 0.642531 0.981631
Si Si4 0.426681 0.776081 0.623211
Si Si5 0.588448 0.840845 0.825394
Si Si6 0.502997 0.654697 0.749576
Si Si7 0.815937 0.744788 0.574964
O O1 0.830467 0.141013 0.155838
O O2 0.873641 0.098621 0.322866
O O3 0.991366 0.151575 0.173804
O O4 0.633013 0.123117 0.402493
O O5 0.667068 0.072836 0.231400
O O6 0.711784 0.026796 0.392108
O O7 0.545114 0.937492 0.322203
O O8 0.542805 0.708494 0.068282
O O9 0.628867 0.628867 0.000000
O O10 0.452795 0.547206 0.000000
O O11 0.534834 0.660123 0.864761
O O12 0.318647 0.742665 0.593549
O O13 0.402949 0.796668 0.738275
O O14 0.545271 0.763231 0.738074
O O15 0.822644 0.822644 0.500000
O O16 0.844437 0.688873 0.500000
#
# Coordination Sequence:
#
# PCOD9582283 Si02
#       7
#    12  12  12  12  12  12  12
#     4  11  23  40  67  98 138 183 233 285 350 424
#     4  11  23  40  68  99 132 176 230 273 343 430
#     4  11  24  38  62  96 140 176 226 289 349 402
#     4  10  22  41  67  97 131 175 229 280 346 407
#     4  11  21  41  60  99 133 181 228 278 343 414
#     4  12  23  40  69  97 133 183 232 285 348 416
#     4  11  23  40  66 103 140 173 215 287 356 422
#
# _framework density 25.413855999999999
#
# number of rings (size 3 to 8) (size 9 to 14) (size 15 to 20)
#    0.286    0.714    4.286    3.571    4.000    0.000 
#    0.000    0.000    0.000    6.000    0.000    0.000 
#    0.000    0.000    0.000    0.000    0.000    0.000 
#
# Total GULP energy -468182.281780 kJ/mol
# GULP energy per Si atom -5573.598593 kJ/mol
# Density = 2.535601 g / cm^3
# Si number density = 25.413856 Si / 1000 Ang^3
#
#
#
# Elastic Constant Matrix: (Units=GPa)
#
#
# Indices 1 2 3 4 5 6 
#
# 1 129.0983 42.2310 -9.5844 0.0000 0.0000 0.0000
# 2 42.2310 129.0983 -9.5844 0.0000 0.0000 0.0000
# 3 -9.5844 -9.5844 55.8483 0.0000 0.0000 0.0000
# 4 0.0000 0.0000 0.0000 10.3765 0.0000 0.0000
# 5 0.0000 0.0000 0.0000 0.0000 10.3765 0.0000
# 6 0.0000 0.0000 0.0000 0.0000 0.0000 43.4337
#
#
#
# Elastic Compliance Matrix: (Units=1/GPa)
#
#
# Indices 1 2 3 4 5 6 
#
# 1 0.008731 -0.002780 0.001021 0.000000 0.000000 0.000000
# 2 -0.002780 0.008731 0.001021 0.000000 0.000000 0.000000
# 3 0.001021 0.001021 0.018256 0.000000 0.000000 0.000000
# 4 0.000000 0.000000 0.000000 0.096372 0.000000 0.000000
# 5 0.000000 0.000000 0.000000 0.000000 0.096372 0.000000
# 6 0.000000 0.000000 0.000000 0.000000 0.000000 0.023024
#
#
# Mechanical properties :
#
#
# Convention : Reuss Voigt Hill
#
# Bulk Modulus (GPa) = 29.20282 40.01880 34.61081
# Shear Modulus (GPa) = 18.91246 32.23619 25.57433
#
# Velocity S-wave (km/s) = 2.73092 3.56539 3.17569
# Velocity P-wave (km/s) = 4.63247 5.72105 5.20529
#
# Compressibility (1/GPa) = 0.03424326
#
# Stress axis : x y z
#
# Youngs Moduli (GPa) = 114.52928 114.52928 54.77595
#
# Poissons Ratio (x) = 0.31844 -0.05594
# Poissons Ratio (y) = 0.31844 -0.05594
# Poissons Ratio (z) = -0.11697 -0.11697
#
# Static dielectric constant tensor:
#      x y z
#    x 2.234040 0.000000 0.000000 
#    y 0.000000 2.234040 0.000000 
#    z 0.000000 0.000000 2.071020 
# 
# From -- ./inp_files/2629.got.cif
#   From: 2010.05.17/outbox.cif.g08.bks.cpg/sg177_2_cif.got.tgz:2629.got - 2010.05.20 11:28:44.
