data_PCOD9582708
_publ_section_title
;
Structure prediction by ZEFSAII (Michael W. Deem and Ramdas Pophale) SiO2 
 PCOD9582708
Probable space group: P 61 2 2
;
_chemical_formula_sum "Si O2"
_cell_formula_units_Z 60
_cell_length_a 14.618277
_cell_length_b 14.618277
_cell_length_c 14.638533
_cell_angle_alpha 90.000000
_cell_angle_beta 90.000000
_cell_angle_gamma 120.000000
_cell_volume 2709.072089
_symmetry_space_group_name_H-M "P 61 2 2"
_symmetry_group_IT_number 178
_symmetry_cell_setting 'hexagonal'
loop_
_space_group_symop_operation_xyz
x,y,z
x-y,x,1/6+z
-y,x-y,1/3+z
-x,-y,1/2+z
-x+y,-x,2/3+z
y,-x+y,5/6+z
x-y,-y,-z
-x,-x+y,2/3-z
y,x,1/3-z
-y,-x,5/6-z
-x+y,y,1/2-z
x,x-y,1/6-z
loop_
_atom_site_type_symbol
_atom_site_label
_atom_site_fract_x
_atom_site_fract_y
_atom_site_fract_z
Si Si1 0.790867 0.134562 0.212076
Si Si2 0.732671 0.677313 0.257985
Si Si3 0.470940 0.521039 0.024471
Si Si4 0.712344 0.287650 0.168286
Si Si5 0.704566 0.020305 0.395354
O O1 0.722262 0.181953 0.163399
O O2 0.772950 0.113223 0.322109
O O3 0.910039 0.222059 0.187847
O O4 0.752370 0.019528 0.171023
O O5 0.736856 0.736856 0.166667
O O6 0.824930 0.649859 0.250000
O O7 0.620204 0.571464 0.267386
O O8 0.376360 0.546711 0.031285
O O9 0.426857 0.405570 0.065187
O O10 0.487397 0.512604 0.916667
O O11 0.634005 0.268010 0.250000
O O12 0.686722 0.343361 0.083334
O O13 0.725248 0.000000 0.500000
#
# Coordination Sequence:
#
# PCOD9582708 Si02
#       5
#    12  12  12  12  12
#     4  11  25  44  67 100 139 183 240 303 359 438
#     4  12  26  42  71  97 133 184 237 290 355 428
#     4  10  21  40  63  95 139 175 221 284 346 432
#     4  10  24  39  65  98 145 184 228 284 357 445
#     4  11  23  43  69 100 137 186 238 295 374 445
#
# _framework density 22.147805000000002
#
# number of rings (size 3 to 8) (size 9 to 14) (size 15 to 20)
#    0.000    1.200    2.000    3.000   11.200    3.200 
#    0.000    0.000    0.000   12.000    0.000    0.000 
#    0.000    0.000    0.000    0.000    0.000    0.000 
#
# Total GULP energy -334557.394820 kJ/mol
# GULP energy per Si atom -5575.956580 kJ/mol
# Density = 2.209740 g / cm^3
# Si number density = 22.147805 Si / 1000 Ang^3
#
#
#
# Elastic Constant Matrix: (Units=GPa)
#
#
# Indices 1 2 3 4 5 6 
#
# 1 73.0630 30.4350 16.1925 0.0000 0.0000 0.0000
# 2 30.4350 73.0630 16.1925 0.0000 0.0000 0.0000
# 3 16.1925 16.1925 82.2872 0.0000 0.0000 0.0000
# 4 0.0000 0.0000 0.0000 28.1241 0.0000 0.0000
# 5 0.0000 0.0000 0.0000 0.0000 28.1241 0.0000
# 6 0.0000 0.0000 0.0000 0.0000 0.0000 21.3140
#
#
#
# Elastic Compliance Matrix: (Units=1/GPa)
#
#
# Indices 1 2 3 4 5 6 
#
# 1 0.016877 -0.006581 -0.002026 0.000000 0.000000 0.000000
# 2 -0.006581 0.016877 -0.002026 0.000000 0.000000 0.000000
# 3 -0.002026 -0.002026 0.012950 0.000000 0.000000 0.000000
# 4 0.000000 0.000000 0.000000 0.035557 0.000000 0.000000
# 5 0.000000 0.000000 0.000000 0.000000 0.035557 0.000000
# 6 0.000000 0.000000 0.000000 0.000000 0.000000 0.046918
#
#
# Mechanical properties :
#
#
# Convention : Reuss Voigt Hill
#
# Bulk Modulus (GPa) = 39.31171 39.33924 39.32548
# Shear Modulus (GPa) = 25.70932 26.55196 26.13064
#
# Velocity S-wave (km/s) = 3.41076 3.46620 3.43859
# Velocity P-wave (km/s) = 5.77055 5.81551 5.79307
#
# Compressibility (1/GPa) = 0.02543771
#
# Stress axis : x y z
#
# Youngs Moduli (GPa) = 59.25087 59.25087 77.22044
#
# Poissons Ratio (x) = 0.38995 0.15645
# Poissons Ratio (y) = 0.38995 0.15645
# Poissons Ratio (z) = 0.12005 0.12005
#
# Static dielectric constant tensor:
#      x y z
#    x 1.965710 0.000000 0.000000 
#    y 0.000000 1.965710 0.000000 
#    z 0.000000 0.000000 1.858600 
# 
# From -- ./inp_files/5654.got.cif
#   From: 2010.05.17/outbox.cif.g08.bks.cpg/sg178_3_cif.got.tgz:5654.got - 2010.05.20 11:30:59.
