data_PCOD9582500
_publ_section_title
;
Structure prediction by ZEFSAII (Michael W. Deem and Ramdas Pophale) SiO2 
 PCOD9582500
Probable space group: P 61 2 2
;
_chemical_formula_sum "Si O2"
_cell_formula_units_Z 60
_cell_length_a 20.113618
_cell_length_b 20.113618
_cell_length_c 8.831490
_cell_angle_alpha 90.000000
_cell_angle_beta 90.000000
_cell_angle_gamma 120.000000
_cell_volume 3094.175967
_symmetry_space_group_name_H-M "P 61 2 2"
_symmetry_group_IT_number 178
_symmetry_cell_setting 'hexagonal'
loop_
_space_group_symop_operation_xyz
x,y,z
x-y,x,1/6+z
-y,x-y,1/3+z
-x,-y,1/2+z
-x+y,-x,2/3+z
y,-x+y,5/6+z
x-y,-y,-z
-x,-x+y,2/3-z
y,x,1/3-z
-y,-x,5/6-z
-x+y,y,1/2-z
x,x-y,1/6-z
loop_
_atom_site_type_symbol
_atom_site_label
_atom_site_fract_x
_atom_site_fract_y
_atom_site_fract_z
Si Si1 0.625058 0.876427 0.670534
Si Si2 0.637685 0.656567 0.989331
Si Si3 0.525583 0.365237 0.183186
Si Si4 0.045779 0.522890 0.583334
Si Si5 0.250075 0.801347 0.255955
Si Si6 0.681525 0.318476 0.416667
O O1 0.659349 0.829675 0.583334
O O2 0.557073 0.871418 0.563979
O O3 0.588818 0.826303 0.822176
O O4 0.675133 0.963385 0.723236
O O5 0.568270 0.571627 0.940506
O O6 0.607279 0.714973 0.951780
O O7 0.654304 0.654304 0.166667
O O8 0.538910 0.442642 0.262176
O O9 0.519139 0.313863 0.328831
O O10 0.585925 0.360745 0.075376
O O11 0.236490 0.763511 0.416667
O O12 0.655187 0.327594 0.583334
#
# Coordination Sequence:
#
# PCOD9582500 Si02
#       6
#    12  12  12   6  12   6
#     4  10  21  40  60  80 113 154 193 244 309 383
#     4  11  23  36  59  90 117 154 202 251 318 374
#     4  10  22  41  54  77 108 153 195 249 326 374
#     4  10  25  36  58  88 120 148 204 276 312 376
#     4  10  19  37  61  81 114 150 192 237 305 384
#     4  12  25  40  58  80 104 148 212 262 318 388
#
# _framework density 19.391269000000001
#
# number of rings (size 3 to 8) (size 9 to 14) (size 15 to 20)
#    0.000    1.600    5.000    0.600    2.800   12.000 
#    0.000    0.000    0.000    0.000    0.000    0.000 
#    0.000    0.000    0.000    9.000    0.000    0.600 
#
# Total GULP energy -334830.624319 kJ/mol
# GULP energy per Si atom -5580.510405 kJ/mol
# Density = 1.934713 g / cm^3
# Si number density = 19.391269 Si / 1000 Ang^3
#
#
#
# Elastic Constant Matrix: (Units=GPa)
#
#
# Indices 1 2 3 4 5 6 
#
# 1 64.3497 20.2787 28.4918 0.0000 0.0000 0.0000
# 2 20.2787 64.3497 28.4918 0.0000 0.0000 0.0000
# 3 28.4918 28.4918 131.6327 0.0000 0.0000 0.0000
# 4 0.0000 0.0000 0.0000 22.6999 0.0000 0.0000
# 5 0.0000 0.0000 0.0000 0.0000 22.6999 0.0000
# 6 0.0000 0.0000 0.0000 0.0000 0.0000 22.0355
#
#
#
# Elastic Compliance Matrix: (Units=1/GPa)
#
#
# Indices 1 2 3 4 5 6 
#
# 1 0.018261 -0.004429 -0.002994 0.000000 0.000000 0.000000
# 2 -0.004429 0.018261 -0.002994 0.000000 0.000000 0.000000
# 3 -0.002994 -0.002994 0.008893 0.000000 0.000000 0.000000
# 4 0.000000 0.000000 0.000000 0.044053 0.000000 0.000000
# 5 0.000000 0.000000 0.000000 0.000000 0.044053 0.000000
# 6 0.000000 0.000000 0.000000 0.000000 0.000000 0.045381
#
#
# Mechanical properties :
#
#
# Convention : Reuss Voigt Hill
#
# Bulk Modulus (GPa) = 40.68071 46.09518 43.38794
# Shear Modulus (GPa) = 24.04635 25.69170 24.86902
#
# Velocity S-wave (km/s) = 3.52527 3.64388 3.58507
# Velocity P-wave (km/s) = 6.13143 6.44411 6.28971
#
# Compressibility (1/GPa) = 0.02458168
#
# Stress axis : x y z
#
# Youngs Moduli (GPa) = 54.76002 54.76002 112.44807
#
# Poissons Ratio (x) = 0.24254 0.33667
# Poissons Ratio (y) = 0.24254 0.33667
# Poissons Ratio (z) = 0.16395 0.16395
#
# Static dielectric constant tensor:
#      x y z
#    x 1.703290 0.000000 0.000000 
#    y 0.000000 1.703290 0.000000 
#    z 0.000000 0.000000 1.727290 
# 
# From -- ./inp_files/3164.got.cif
#   From: 2010.05.17/outbox.cif.g08.bks.cpg/sg178_2_cif.got.tgz:3164.got - 2010.05.20 11:30:59.
