data_PCOD9582311
_publ_section_title
;
Structure prediction by ZEFSAII (Michael W. Deem and Ramdas Pophale) SiO2 
 PCOD9582311
Probable space group: P 6 2 2
;
_chemical_formula_sum "Si O2"
_cell_formula_units_Z 60
_cell_length_a 16.547291
_cell_length_b 16.547291
_cell_length_c 12.175447
_cell_angle_alpha 90.000000
_cell_angle_beta 90.000000
_cell_angle_gamma 120.000000
_cell_volume 2887.150048
_symmetry_space_group_name_H-M "P 6 2 2"
_symmetry_group_IT_number 177
_symmetry_cell_setting 'hexagonal'
loop_
_space_group_symop_operation_xyz
x,y,z
x-y,x,z
-y,x-y,z
-x,-y,z
-x+y,-x,z
y,-x+y,z
x-y,-y,-z
-x,-x+y,-z
y,x,-z
-y,-x,-z
-x+y,y,-z
x,x-y,-z
loop_
_atom_site_type_symbol
_atom_site_label
_atom_site_fract_x
_atom_site_fract_y
_atom_site_fract_z
Si Si1 0.782436 0.897124 0.785914
Si Si2 0.259785 0.411134 0.140445
Si Si3 0.685391 0.910335 0.576594
Si Si4 0.493228 0.347219 0.071613
Si Si5 0.988569 0.581292 0.275975
O O1 0.837590 0.843223 0.812251
O O2 0.682946 0.837828 0.843703
O O3 0.753950 0.896288 0.658569
O O4 0.233889 0.493036 0.129645
O O5 0.330507 0.416765 0.234641
O O6 0.303850 0.414264 0.022422
O O7 0.637751 0.818876 0.500000
O O8 0.741590 0.000000 0.500000
O O9 0.619149 0.933651 0.650988
O O10 0.467698 0.396580 0.166512
O O11 0.582558 0.417443 0.000000
O O12 0.000000 0.500000 0.332785
#
# Coordination Sequence:
#
# PCOD9582311 Si02
#       5
#    12  12  12  12  12
#     4  12  23  42  68 105 147 199 247 310 372 449
#     4  11  22  40  68 104 148 187 232 306 381 453
#     4  12  24  43  73 105 146 190 255 318 384 436
#     4  11  23  41  69 106 143 183 239 303 369 456
#     4  12  24  44  75 106 142 193 249 307 375 465
#
# _framework density 20.781739000000002
#
# number of rings (size 3 to 8) (size 9 to 14) (size 15 to 20)
#    0.000    0.400    8.000    0.800    0.000    2.000 
#    4.800    0.000    0.000    0.000    0.000    5.600 
#    0.000    0.000    0.000    0.000    0.000    0.000 
#
# Total GULP energy -334951.046179 kJ/mol
# GULP energy per Si atom -5582.517436 kJ/mol
# Density = 2.073444 g / cm^3
# Si number density = 20.781739 Si / 1000 Ang^3
#
#
#
# Elastic Constant Matrix: (Units=GPa)
#
#
# Indices 1 2 3 4 5 6 
#
# 1 130.3903 71.3106 45.9567 0.0000 0.0000 0.0000
# 2 71.3106 130.3903 45.9567 0.0000 0.0000 0.0000
# 3 45.9567 45.9567 68.2603 0.0000 0.0000 0.0000
# 4 0.0000 0.0000 0.0000 36.5332 0.0000 0.0000
# 5 0.0000 0.0000 0.0000 0.0000 36.5332 0.0000
# 6 0.0000 0.0000 0.0000 0.0000 0.0000 29.5399
#
#
#
# Elastic Compliance Matrix: (Units=1/GPa)
#
#
# Indices 1 2 3 4 5 6 
#
# 1 0.012039 -0.004887 -0.004815 0.000000 0.000000 0.000000
# 2 -0.004887 0.012039 -0.004815 0.000000 0.000000 0.000000
# 3 -0.004815 -0.004815 0.021134 0.000000 0.000000 0.000000
# 4 0.000000 0.000000 0.000000 0.027372 0.000000 0.000000
# 5 0.000000 0.000000 0.000000 0.000000 0.027372 0.000000
# 6 0.000000 0.000000 0.000000 0.000000 0.000000 0.033853
#
#
# Mechanical properties :
#
#
# Convention : Reuss Voigt Hill
#
# Bulk Modulus (GPa) = 61.81640 72.83209 67.32425
# Shear Modulus (GPa) = 29.72010 31.57572 30.64791
#
# Velocity S-wave (km/s) = 3.78578 3.90217 3.84442
# Velocity P-wave (km/s) = 6.99425 7.44479 7.22304
#
# Compressibility (1/GPa) = 0.01617694
#
# Stress axis : x y z
#
# Youngs Moduli (GPa) = 83.06220 83.06220 47.31822
#
# Poissons Ratio (x) = 0.40593 0.22785
# Poissons Ratio (y) = 0.40593 0.22785
# Poissons Ratio (z) = 0.39996 0.39996
#
# Static dielectric constant tensor:
#      x y z
#    x 1.790170 0.000000 0.000000 
#    y 0.000000 1.790170 0.000000 
#    z 0.000000 0.000000 1.769810 
# 
# From -- ./inp_files/1976.got.cif
#   From: 2010.05.17/outbox.cif.g08.bks.cpg/sg177_1_cif.got.tgz:1976.got - 2010.05.20 11:28:44.
