data_PCOD9582908
_publ_section_title
;
Structure prediction by ZEFSAII (Michael W. Deem and Ramdas Pophale) SiO2 
 PCOD9582908
Probable space group: P 61 2 2
;
_chemical_formula_sum "Si O2"
_cell_formula_units_Z 60
_cell_length_a 11.448579
_cell_length_b 11.448579
_cell_length_c 26.293830
_cell_angle_alpha 90.000000
_cell_angle_beta 90.000000
_cell_angle_gamma 120.000000
_cell_volume 2984.610435
_symmetry_space_group_name_H-M "P 61 2 2"
_symmetry_group_IT_number 178
_symmetry_cell_setting 'hexagonal'
loop_
_space_group_symop_operation_xyz
x,y,z
x-y,x,1/6+z
-y,x-y,1/3+z
-x,-y,1/2+z
-x+y,-x,2/3+z
y,-x+y,5/6+z
x-y,-y,-z
-x,-x+y,2/3-z
y,x,1/3-z
-y,-x,5/6-z
-x+y,y,1/2-z
x,x-y,1/6-z
loop_
_atom_site_type_symbol
_atom_site_label
_atom_site_fract_x
_atom_site_fract_y
_atom_site_fract_z
Si Si1 0.009395 0.494451 0.142107
Si Si2 0.436853 0.000000 0.000000
Si Si3 0.856151 0.659727 0.692023
Si Si4 0.903839 0.096161 0.916667
Si Si5 0.034152 0.034152 0.166667
Si Si6 0.246464 0.623232 0.583334
Si Si7 0.638177 0.057247 0.088679
O O1 0.063450 0.531725 0.083334
O O2 0.056560 0.399088 0.168302
O O3 0.040110 0.607648 0.184158
O O4 0.850117 0.415134 0.132330
O O5 0.285330 0.875746 0.003694
O O6 0.512384 0.992929 0.050136
O O7 0.810497 0.620994 0.750000
O O8 0.933202 0.821370 0.688783
O O9 0.982948 0.258953 0.909009
O O10 0.927079 0.016401 0.871490
O O11 0.311577 0.783859 0.579294
#
# Coordination Sequence:
#
# PCOD9582908 Si02
#       7
#    12   6  12   6   6   6  12
#     4  10  25  45  70 100 133 190 229 296 355 434
#     4  11  25  40  76 100 137 183 228 308 356 417
#     4  11  21  47  72 105 132 176 252 303 354 424
#     4  12  28  42  68 102 150 188 232 284 376 448
#     4  11  25  42  72 100 137 187 230 300 360 431
#     4  10  26  48  70 100 144 186 236 300 350 442
#     4  12  25  46  69 105 148 183 243 291 368 440
#
# _framework density 20.103124999999999
#
# number of rings (size 3 to 8) (size 9 to 14) (size 15 to 20)
#    0.600    0.400    3.000    3.000    5.600    1.600 
#    1.800    0.000    0.000    0.000    0.000    0.000 
#    0.000    0.000    0.000    0.000    0.000    0.000 
#
# Total GULP energy -334071.776616 kJ/mol
# GULP energy per Si atom -5567.862944 kJ/mol
# Density = 2.005737 g / cm^3
# Si number density = 20.103125 Si / 1000 Ang^3
#
#
#
# Elastic Constant Matrix: (Units=GPa)
#
#
# Indices 1 2 3 4 5 6 
#
# 1 125.7080 80.1934 43.7763 0.0000 0.0000 0.0000
# 2 80.1934 125.7080 43.7763 0.0000 0.0000 0.0000
# 3 43.7763 43.7763 107.3222 0.0000 0.0000 0.0000
# 4 0.0000 0.0000 0.0000 -52.8690 0.0000 0.0000
# 5 0.0000 0.0000 0.0000 0.0000 -52.8690 0.0000
# 6 0.0000 0.0000 0.0000 0.0000 0.0000 22.7573
#
#
#
# Elastic Compliance Matrix: (Units=1/GPa)
#
#
# Indices 1 2 3 4 5 6 
#
# 1 0.013923 -0.008048 -0.002397 0.000000 0.000000 0.000000
# 2 -0.008048 0.013923 -0.002397 0.000000 0.000000 0.000000
# 3 -0.002397 -0.002397 0.011273 0.000000 0.000000 0.000000
# 4 0.000000 0.000000 0.000000 -0.018915 0.000000 0.000000
# 5 0.000000 0.000000 0.000000 0.000000 -0.018915 0.000000
# 6 0.000000 0.000000 0.000000 0.000000 0.000000 0.043942
#
#
# Mechanical properties :
#
#
# Convention : Reuss Voigt Hill
#
# Bulk Modulus (GPa) = 74.41747 77.13671 75.77709
# Shear Modulus (GPa) = 66.31864 -3.86332 31.22766
#
# Velocity S-wave (km/s) = 5.74986 -1.38778 3.94556
# Velocity P-wave (km/s) = 9.00996 5.99048 7.65066
#
# Compressibility (1/GPa) = 0.01343771
#
# Stress axis : x y z
#
# Youngs Moduli (GPa) = 71.82159 71.82159 88.70777
#
# Poissons Ratio (x) = 0.57799 0.21261
# Poissons Ratio (y) = 0.57799 0.21261
# Poissons Ratio (z) = 0.17214 0.17214
#
# Static dielectric constant tensor:
#      x y z
#    x 1.999460 0.000000 0.000000 
#    y 0.000000 1.999460 0.000000 
#    z 0.000000 0.000000 1.741350 
# 
# From -- ./inp_files/8880.got.cif
#   From: 2010.05.17/outbox.cif.g08.bks.cpg/sg178_5_cif.got.tgz:8880.got - 2010.05.20 11:30:59.
