data_PCOD9582128
_publ_section_title
;
Structure prediction by ZEFSAII (Michael W. Deem and Ramdas Pophale) SiO2 
 PCOD9582128
Probable space group: P 63/M
;
_chemical_formula_sum "Si O2"
_cell_formula_units_Z 48
_cell_length_a 18.916050
_cell_length_b 18.916050
_cell_length_c 7.687376
_cell_angle_alpha 90.000000
_cell_angle_beta 90.000000
_cell_angle_gamma 120.000000
_cell_volume 2382.153055
_symmetry_space_group_name_H-M "P 63/M"
_symmetry_group_IT_number 176
_symmetry_cell_setting 'hexagonal'
loop_
_space_group_symop_operation_xyz
x,y,z
x-y,x,1/2+z
-y,x-y,z
-x,-y,1/2+z
-x+y,-x,z
y,-x+y,1/2+z
-x,-y,-z
-x+y,-x,1/2-z
y,-x+y,-z
x,y,1/2-z
x-y,x,-z
-y,x-y,1/2-z
loop_
_atom_site_type_symbol
_atom_site_label
_atom_site_fract_x
_atom_site_fract_y
_atom_site_fract_z
Si Si1 0.631187 0.162390 0.750000
Si Si2 0.596107 0.039853 0.455067
Si Si3 0.738296 0.638331 0.043149
Si Si4 0.196961 0.709570 0.250000
Si Si5 0.816990 0.933786 0.949555
O O1 0.638236 0.117559 0.579478
O O2 0.543533 0.155842 0.750000
O O3 0.706706 0.252555 0.750000
O O4 0.607950 0.057341 0.250000
O O5 0.500000 0.000000 0.500000
O O6 0.628901 0.978958 0.506306
O O7 0.744413 0.626181 0.250000
O O8 0.811242 0.728206 0.991890
O O9 0.738483 0.570431 0.919042
O O10 0.807176 0.906746 0.750000
O O11 0.851176 0.881346 0.042339
#
# Coordination Sequence:
#
# PCOD9582128 Si02
#       5
#     6  12  12   6  12
#     4  12  27  44  70 101 139 187 227 273 349 421
#     4  12  21  40  71 101 127 172 226 289 344 402
#     4  11  24  42  69 103 135 174 235 292 343 397
#     4  12  27  46  68  97 149 179 225 281 345 415
#     4  11  26  43  66  94 136 181 227 276 338 408
#
# _framework density 20.149839
#
# number of rings (size 3 to 8) (size 9 to 14) (size 15 to 20)
#    0.000    0.500    6.250    1.250    7.000    1.000 
#    0.000    0.000    0.000    3.000    0.000    0.000 
#    0.000    0.000    0.000    0.000    0.000    0.000 
#
# Total GULP energy -268313.425484 kJ/mol
# GULP energy per Si atom -5589.863031 kJ/mol
# Density = 2.010398 g / cm^3
# Si number density = 20.149839 Si / 1000 Ang^3
#
#
#
# Elastic Constant Matrix: (Units=GPa)
#
#
# Indices 1 2 3 4 5 6 
#
# 1 101.4064 29.3505 30.4997 0.0000 0.0000 0.0000
# 2 29.3505 101.4064 30.4997 0.0000 0.0000 0.0000
# 3 30.4997 30.4997 144.7665 0.0000 0.0000 0.0000
# 4 0.0000 0.0000 0.0000 20.0920 0.0000 0.0000
# 5 0.0000 0.0000 0.0000 0.0000 20.0920 0.0000
# 6 0.0000 0.0000 0.0000 0.0000 0.0000 36.0279
#
#
#
# Elastic Compliance Matrix: (Units=1/GPa)
#
#
# Indices 1 2 3 4 5 6 
#
# 1 0.011180 -0.002698 -0.001787 0.000000 0.000000 0.000000
# 2 -0.002698 0.011180 -0.001787 0.000000 0.000000 0.000000
# 3 -0.001787 -0.001787 0.007661 0.000000 0.000000 0.000000
# 4 0.000000 0.000000 0.000000 0.049771 0.000000 0.000000
# 5 0.000000 0.000000 0.000000 0.000000 0.049771 0.000000
# 6 0.000000 0.000000 0.000000 0.000000 0.000000 0.027756
#
#
# Mechanical properties :
#
#
# Convention : Reuss Voigt Hill
#
# Bulk Modulus (GPa) = 57.22183 58.69770 57.95977
# Shear Modulus (GPa) = 28.45958 32.39103 30.42531
#
# Velocity S-wave (km/s) = 3.76227 4.01372 3.89003
# Velocity P-wave (km/s) = 6.87987 7.11855 7.00023
#
# Compressibility (1/GPa) = 0.01747585
#
# Stress axis : x y z
#
# Youngs Moduli (GPa) = 89.44749 89.44749 130.53809
#
# Poissons Ratio (x) = 0.24136 0.23326
# Poissons Ratio (y) = 0.24136 0.23326
# Poissons Ratio (z) = 0.15983 0.15983
#
# Static dielectric constant tensor:
#      x y z
#    x 1.703900 0.000000 0.000000 
#    y 0.000000 1.703900 0.000000 
#    z 0.000000 0.000000 1.693160 
# 
# From -- ./inp_files/644.got.cif
#   From: 2010.05.17/outbox.cif.g08.bks.cpg/sg176_1_cif.got.tgz:644.got - 2010.06.03 11:36:45.
