data_PCOD9582877
_publ_section_title
;
Structure prediction by ZEFSAII (Michael W. Deem and Ramdas Pophale) SiO2 
 PCOD9582877
Probable space group: P 61 2 2
;
_chemical_formula_sum "Si O2"
_cell_formula_units_Z 48
_cell_length_a 13.579929
_cell_length_b 13.579929
_cell_length_c 12.199093
_cell_angle_alpha 90.000000
_cell_angle_beta 90.000000
_cell_angle_gamma 120.000000
_cell_volume 1948.288076
_symmetry_space_group_name_H-M "P 61 2 2"
_symmetry_group_IT_number 178
_symmetry_cell_setting 'hexagonal'
loop_
_space_group_symop_operation_xyz
x,y,z
x-y,x,1/6+z
-y,x-y,1/3+z
-x,-y,1/2+z
-x+y,-x,2/3+z
y,-x+y,5/6+z
x-y,-y,-z
-x,-x+y,2/3-z
y,x,1/3-z
-y,-x,5/6-z
-x+y,y,1/2-z
x,x-y,1/6-z
loop_
_atom_site_type_symbol
_atom_site_label
_atom_site_fract_x
_atom_site_fract_y
_atom_site_fract_z
Si Si1 0.514664 0.632842 0.681731
Si Si2 0.644780 0.068645 0.756963
Si Si3 0.305890 0.152945 0.083334
Si Si4 0.815450 0.980638 0.789003
Si Si5 0.439104 0.719552 0.083334
O O1 0.513805 0.513805 0.666667
O O2 0.565802 0.683427 0.801187
O O3 0.605168 0.713282 0.592319
O O4 0.394735 0.626104 0.679383
O O5 0.506264 0.012528 0.750000
O O6 0.711719 0.006772 0.800100
O O7 0.687322 0.176194 0.836392
O O8 0.230635 0.110847 0.190930
O O9 0.923762 0.088990 0.730517
#
# Coordination Sequence:
#
# PCOD9582877 Si02
#       5
#    12  12   6  12   6
#     4  11  22  43  71 104 146 193 243 306 387 456
#     4  10  23  46  69 106 149 195 246 318 392 464
#     4  12  22  44  73 106 141 194 250 314 360 458
#     4  12  25  48  78 107 153 204 266 324 378 453
#     4  10  26  44  69 112 149 184 250 310 386 480
#
# _framework density 24.637014000000001
#
# number of rings (size 3 to 8) (size 9 to 14) (size 15 to 20)
#    0.000    1.000    5.000    0.750    5.250    4.000 
#    2.250    6.250    0.000    0.000    0.000    0.000 
#    0.000    0.000    0.000    0.000    0.000    0.000 
#
# Total GULP energy -267983.432344 kJ/mol
# GULP energy per Si atom -5582.988174 kJ/mol
# Density = 2.458094 g / cm^3
# Si number density = 24.637014 Si / 1000 Ang^3
#
#
#
# Elastic Constant Matrix: (Units=GPa)
#
#
# Indices 1 2 3 4 5 6 
#
# 1 135.8451 83.4955 27.7448 0.0000 0.0000 0.0000
# 2 83.4955 135.8451 27.7448 0.0000 0.0000 0.0000
# 3 27.7448 27.7448 72.2719 0.0000 0.0000 0.0000
# 4 0.0000 0.0000 0.0000 38.4465 0.0000 0.0000
# 5 0.0000 0.0000 0.0000 0.0000 38.4465 0.0000
# 6 0.0000 0.0000 0.0000 0.0000 0.0000 26.1748
#
#
#
# Elastic Compliance Matrix: (Units=1/GPa)
#
#
# Indices 1 2 3 4 5 6 
#
# 1 0.012076 -0.007026 -0.001938 0.000000 0.000000 0.000000
# 2 -0.007026 0.012076 -0.001938 0.000000 0.000000 0.000000
# 3 -0.001938 -0.001938 0.015325 0.000000 0.000000 0.000000
# 4 0.000000 0.000000 0.000000 0.026010 0.000000 0.000000
# 5 0.000000 0.000000 0.000000 0.000000 0.026010 0.000000
# 6 0.000000 0.000000 0.000000 0.000000 0.000000 0.038205
#
#
# Mechanical properties :
#
#
# Convention : Reuss Voigt Hill
#
# Bulk Modulus (GPa) = 56.59280 69.10359 62.84820
# Shear Modulus (GPa) = 31.76648 34.27871 33.02260
#
# Velocity S-wave (km/s) = 3.59469 3.73413 3.66507
# Velocity P-wave (km/s) = 6.34425 6.83383 6.59359
#
# Compressibility (1/GPa) = 0.01767009
#
# Stress axis : x y z
#
# Youngs Moduli (GPa) = 82.80936 82.80936 65.25290
#
# Poissons Ratio (x) = 0.58185 0.12649
# Poissons Ratio (y) = 0.58185 0.12649
# Poissons Ratio (z) = 0.16052 0.16052
#
# Static dielectric constant tensor:
#      x y z
#    x 2.048390 0.000000 0.000000 
#    y 0.000000 2.048390 0.000000 
#    z 0.000000 0.000000 1.873630 
# 
# From -- ./inp_files/4178.got.cif
#   From: 2010.05.17/outbox.cif.g08.bks.cpg/sg178_3_cif.got.tgz:4178.got - 2010.05.20 11:30:59.
