data_PCOD9582823
_publ_section_title
;
Structure prediction by ZEFSAII (Michael W. Deem and Ramdas Pophale) SiO2 
 PCOD9582823
Probable space group: P 61 2 2
;
_chemical_formula_sum "Si O2"
_cell_formula_units_Z 72
_cell_length_a 11.654287
_cell_length_b 11.654287
_cell_length_c 26.459159
_cell_angle_alpha 90.000000
_cell_angle_beta 90.000000
_cell_angle_gamma 120.000000
_cell_volume 3112.275870
_symmetry_space_group_name_H-M "P 61 2 2"
_symmetry_group_IT_number 178
_symmetry_cell_setting 'hexagonal'
loop_
_space_group_symop_operation_xyz
x,y,z
x-y,x,1/6+z
-y,x-y,1/3+z
-x,-y,1/2+z
-x+y,-x,2/3+z
y,-x+y,5/6+z
x-y,-y,-z
-x,-x+y,2/3-z
y,x,1/3-z
-y,-x,5/6-z
-x+y,y,1/2-z
x,x-y,1/6-z
loop_
_atom_site_type_symbol
_atom_site_label
_atom_site_fract_x
_atom_site_fract_y
_atom_site_fract_z
Si Si1 0.202164 0.797837 0.916667
Si Si2 0.522083 0.006062 0.441475
Si Si3 0.756018 0.997369 0.278053
Si Si4 0.478625 0.143444 0.849663
Si Si5 0.997444 0.735140 0.424343
Si Si6 0.367879 0.940729 0.688627
Si Si7 0.201452 0.201452 0.166667
O O1 0.360870 0.867520 0.912238
O O2 0.114544 0.800609 0.869803
O O3 0.550802 0.000000 0.500000
O O4 0.509177 0.884211 0.408464
O O5 0.385893 0.005741 0.438275
O O6 0.671224 0.937131 0.329118
O O7 0.745115 0.875969 0.246112
O O8 0.684625 0.058613 0.244676
O O9 0.906856 0.092753 0.292727
O O10 0.518152 0.298290 0.843150
O O11 0.537458 0.058695 0.820761
O O12 0.129985 0.870016 0.416667
O O13 0.986549 0.692067 0.482446
#
# Coordination Sequence:
#
# PCOD9582823 Si02
#       7
#     6  12  12  12  12  12   6
#     4  12  24  46  72 110 154 188 248 320 396 462
#     4  11  24  46  72 107 149 196 253 318 382 470
#     4  11  24  43  71 108 148 196 251 324 396 470
#     4  10  22  47  67 107 151 198 260 313 396 482
#     4  10  26  46  67 103 148 200 260 308 384 472
#     4  10  23  44  74 104 152 200 260 318 399 482
#     4  12  26  42  76 112 152 190 248 322 400 470
#
# _framework density 23.134194999999998
#
# number of rings (size 3 to 8) (size 9 to 14) (size 15 to 20)
#    0.000    1.333    2.500    1.500    5.833    0.000 
#    9.000   10.000    0.000    0.000    0.000    0.000 
#    0.000    0.000    0.000    0.000    0.000    0.000 
#
# Total GULP energy -400850.103228 kJ/mol
# GULP energy per Si atom -5567.362545 kJ/mol
# Density = 2.308154 g / cm^3
# Si number density = 23.134195 Si / 1000 Ang^3
#
#
#
# Elastic Constant Matrix: (Units=GPa)
#
#
# Indices 1 2 3 4 5 6 
#
# 1 101.1259 66.2131 23.7622 0.0000 0.0000 0.0000
# 2 66.2131 101.1259 23.7622 0.0000 0.0000 0.0000
# 3 23.7622 23.7622 122.4380 0.0000 0.0000 0.0000
# 4 0.0000 0.0000 0.0000 19.6835 0.0000 0.0000
# 5 0.0000 0.0000 0.0000 0.0000 19.6835 0.0000
# 6 0.0000 0.0000 0.0000 0.0000 0.0000 17.4564
#
#
#
# Elastic Compliance Matrix: (Units=1/GPa)
#
#
# Indices 1 2 3 4 5 6 
#
# 1 0.017484 -0.011159 -0.001227 0.000000 0.000000 0.000000
# 2 -0.011159 0.017484 -0.001227 0.000000 0.000000 0.000000
# 3 -0.001227 -0.001227 0.008644 0.000000 0.000000 0.000000
# 4 0.000000 0.000000 0.000000 0.050804 0.000000 0.000000
# 5 0.000000 0.000000 0.000000 0.000000 0.050804 0.000000
# 6 0.000000 0.000000 0.000000 0.000000 0.000000 0.057286
#
#
# Mechanical properties :
#
#
# Convention : Reuss Voigt Hill
#
# Bulk Modulus (GPa) = 61.03858 61.35166 61.19512
# Shear Modulus (GPa) = 21.25908 25.42816 23.34362
#
# Velocity S-wave (km/s) = 3.03470 3.31895 3.18000
# Velocity P-wave (km/s) = 6.22262 6.42376 6.32399
#
# Compressibility (1/GPa) = 0.01638308
#
# Stress axis : x y z
#
# Youngs Moduli (GPa) = 57.19640 57.19640 115.68952
#
# Poissons Ratio (x) = 0.63826 0.14200
# Poissons Ratio (y) = 0.63826 0.14200
# Poissons Ratio (z) = 0.07020 0.07020
#
# Static dielectric constant tensor:
#      x y z
#    x 1.919770 0.000000 0.000000 
#    y 0.000000 1.919770 0.000000 
#    z 0.000000 0.000000 1.894460 
# 
# From -- ./inp_files/9613.got.cif
#   From: 2010.05.17/outbox.cif.g08.bks.cpg/sg178_5_cif.got.tgz:9613.got - 2010.05.20 11:30:59.
