data_PCOD9582531
_publ_section_title
;
Structure prediction by ZEFSAII (Michael W. Deem and Ramdas Pophale) SiO2 
 PCOD9582531
Probable space group: P 61 2 2
;
_chemical_formula_sum "Si O2"
_cell_formula_units_Z 84
_cell_length_a 15.924722
_cell_length_b 15.924722
_cell_length_c 23.688129
_cell_angle_alpha 90.000000
_cell_angle_beta 90.000000
_cell_angle_gamma 120.000000
_cell_volume 5202.416402
_symmetry_space_group_name_H-M "P 61 2 2"
_symmetry_group_IT_number 178
_symmetry_cell_setting 'hexagonal'
loop_
_space_group_symop_operation_xyz
x,y,z
x-y,x,1/6+z
-y,x-y,1/3+z
-x,-y,1/2+z
-x+y,-x,2/3+z
y,-x+y,5/6+z
x-y,-y,-z
-x,-x+y,2/3-z
y,x,1/3-z
-y,-x,5/6-z
-x+y,y,1/2-z
x,x-y,1/6-z
loop_
_atom_site_type_symbol
_atom_site_label
_atom_site_fract_x
_atom_site_fract_y
_atom_site_fract_z
Si Si1 0.558981 0.978301 0.625241
Si Si2 0.205801 0.583637 0.831644
Si Si3 0.430176 0.215088 0.583334
Si Si4 0.617450 0.985714 0.132499
Si Si5 0.796470 0.274232 0.728728
Si Si6 0.631995 0.569908 0.423478
Si Si7 0.210226 0.595271 0.145830
Si Si8 0.000000 0.428777 0.333334
O O1 0.489425 0.026625 0.621207
O O2 0.485149 0.868276 0.645596
O O3 0.625638 0.020986 0.680389
O O4 0.606549 0.990333 0.563346
O O5 0.212207 0.501443 0.796654
O O6 0.226941 0.564319 0.894728
O O7 0.284124 0.690184 0.811001
O O8 0.098186 0.566525 0.830286
O O9 0.376197 0.270218 0.557677
O O10 0.689857 0.089356 0.104609
O O11 0.627690 0.993864 0.200599
O O12 0.728966 0.164613 0.744768
O O13 0.770092 0.301262 0.668553
O O14 0.537487 0.462514 0.416667
O O15 0.167159 0.583580 0.083334
#
# Coordination Sequence:
#
# PCOD9582531 Si02
#       8
#    12  12   6  12  12  12  12   6
#     4  10  21  35  48  66  99 131 166 217 258 286
#     4  12  21  34  49  72 100 132 175 209 247 303
#     4  12  20  32  52  76 100 140 170 204 248 306
#     4  10  20  34  48  72 102 130 171 208 249 295
#     4  11  21  34  51  71  98 136 174 210 252 292
#     4  10  20  34  51  69  96 138 172 205 246 309
#     4  11  22  33  50  74  97 129 175 216 251 298
#     4  12  22  34  46  68 100 130 170 218 256 290
#
# _framework density 16.146343000000002
#
# number of rings (size 3 to 8) (size 9 to 14) (size 15 to 20)
#    0.000    1.143    6.429    3.429    4.000    0.000 
#    0.000    0.000    0.000    0.000    0.000    0.000 
#    0.000    0.000    4.857    0.429    0.000    0.000 
#
# Total GULP energy -467888.261110 kJ/mol
# GULP energy per Si atom -5570.098347 kJ/mol
# Density = 1.610959 g / cm^3
# Si number density = 16.146343 Si / 1000 Ang^3
#
#
#
# Elastic Constant Matrix: (Units=GPa)
#
#
# Indices 1 2 3 4 5 6 
#
# 1 36.2215 30.5026 5.8617 0.0000 0.0000 0.0000
# 2 30.5026 36.2215 5.8617 0.0000 0.0000 0.0000
# 3 5.8617 5.8617 115.8794 0.0000 0.0000 0.0000
# 4 0.0000 0.0000 0.0000 20.5132 0.0000 0.0000
# 5 0.0000 0.0000 0.0000 0.0000 20.5132 0.0000
# 6 0.0000 0.0000 0.0000 0.0000 0.0000 2.8594
#
#
#
# Elastic Compliance Matrix: (Units=1/GPa)
#
#
# Indices 1 2 3 4 5 6 
#
# 1 0.094991 -0.079869 -0.000765 0.000000 0.000000 0.000000
# 2 -0.079869 0.094991 -0.000765 0.000000 0.000000 0.000000
# 3 -0.000765 -0.000765 0.008707 0.000000 0.000000 0.000000
# 4 0.000000 0.000000 0.000000 0.048749 0.000000 0.000000
# 5 0.000000 0.000000 0.000000 0.000000 0.048749 0.000000
# 6 0.000000 0.000000 0.000000 0.000000 0.000000 0.349721
#
#
# Mechanical properties :
#
#
# Convention : Reuss Voigt Hill
#
# Bulk Modulus (GPa) = 27.86263 30.30826 29.08545
# Shear Modulus (GPa) = 6.09258 18.51691 12.30475
#
# Velocity S-wave (km/s) = 1.94462 3.39014 2.76357
# Velocity P-wave (km/s) = 4.72608 5.84259 5.31374
#
# Compressibility (1/GPa) = 0.03589037
#
# Stress axis : x y z
#
# Youngs Moduli (GPa) = 10.52732 10.52732 114.84947
#
# Poissons Ratio (x) = 0.84081 0.08785
# Poissons Ratio (y) = 0.84081 0.08785
# Poissons Ratio (z) = 0.00805 0.00805
#
# Static dielectric constant tensor:
#      x y z
#    x 1.536860 0.000000 0.000000 
#    y 0.000000 1.536860 0.000000 
#    z 0.000000 0.000000 1.746290 
# 
# From -- ./inp_files/8380.got.cif
#   From: 2010.05.17/outbox.cif.g08.bks.cpg/sg178_5_cif.got.tgz:8380.got - 2010.05.20 11:30:59.
