data_PCOD9582808
_publ_section_title
;
Structure prediction by ZEFSAII (Michael W. Deem and Ramdas Pophale) SiO2 
 PCOD9582808
Probable space group: P 61 2 2
;
_chemical_formula_sum "Si O2"
_cell_formula_units_Z 60
_cell_length_a 14.922851
_cell_length_b 14.922851
_cell_length_c 13.701759
_cell_angle_alpha 90.000000
_cell_angle_beta 90.000000
_cell_angle_gamma 120.000000
_cell_volume 2642.473019
_symmetry_space_group_name_H-M "P 61 2 2"
_symmetry_group_IT_number 178
_symmetry_cell_setting 'hexagonal'
loop_
_space_group_symop_operation_xyz
x,y,z
x-y,x,1/6+z
-y,x-y,1/3+z
-x,-y,1/2+z
-x+y,-x,2/3+z
y,-x+y,5/6+z
x-y,-y,-z
-x,-x+y,2/3-z
y,x,1/3-z
-y,-x,5/6-z
-x+y,y,1/2-z
x,x-y,1/6-z
loop_
_atom_site_type_symbol
_atom_site_label
_atom_site_fract_x
_atom_site_fract_y
_atom_site_fract_z
Si Si1 0.801980 0.144224 0.209570
Si Si2 0.734288 0.678495 0.269634
Si Si3 0.477689 0.534998 0.063876
Si Si4 0.724643 0.294898 0.176181
Si Si5 0.685976 0.020240 0.382302
O O1 0.739783 0.196101 0.158861
O O2 0.920274 0.225352 0.188110
O O3 0.767769 0.031819 0.168064
O O4 0.771447 0.120603 0.324334
O O5 0.699373 0.699373 0.166667
O O6 0.837636 0.675271 0.250000
O O7 0.641796 0.569877 0.310446
O O8 0.516981 0.516981 0.166667
O O9 0.378200 0.549945 0.066754
O O10 0.431299 0.423425 0.013680
O O11 0.631375 0.262749 0.250000
O O12 0.715246 0.357623 0.083334
O O13 0.672642 0.000000 0.500000
#
# Coordination Sequence:
#
# PCOD9582808 Si02
#       5
#    12  12  12  12  12
#     4  11  25  42  68 101 135 190 240 299 372 451
#     4  11  24  40  66  93 134 178 230 295 365 436
#     4   9  22  39  65  94 134 180 229 287 359 437
#     4  11  27  42  66 102 147 187 243 295 367 453
#     4  10  22  43  68  99 137 184 242 297 370 443
#
# _framework density 22.706004
#
# number of rings (size 3 to 8) (size 9 to 14) (size 15 to 20)
#    0.000    1.600    0.000    2.400   16.800    3.200 
#    0.000    0.000    0.000   12.000    0.000    0.000 
#    0.000    0.000    0.000    0.000    0.000    0.000 
#
# Total GULP energy -334667.987310 kJ/mol
# GULP energy per Si atom -5577.799788 kJ/mol
# Density = 2.265432 g / cm^3
# Si number density = 22.706004 Si / 1000 Ang^3
#
#
#
# Elastic Constant Matrix: (Units=GPa)
#
#
# Indices 1 2 3 4 5 6 
#
# 1 91.1813 47.0450 32.4728 0.0000 0.0000 0.0000
# 2 47.0450 91.1813 32.4728 0.0000 0.0000 0.0000
# 3 32.4728 32.4728 112.8482 0.0000 0.0000 0.0000
# 4 0.0000 0.0000 0.0000 29.3248 0.0000 0.0000
# 5 0.0000 0.0000 0.0000 0.0000 29.3248 0.0000
# 6 0.0000 0.0000 0.0000 0.0000 0.0000 22.0682
#
#
#
# Elastic Compliance Matrix: (Units=1/GPa)
#
#
# Indices 1 2 3 4 5 6 
#
# 1 0.015511 -0.007146 -0.002407 0.000000 0.000000 0.000000
# 2 -0.007146 0.015511 -0.002407 0.000000 0.000000 0.000000
# 3 -0.002407 -0.002407 0.010247 0.000000 0.000000 0.000000
# 4 0.000000 0.000000 0.000000 0.034101 0.000000 0.000000
# 5 0.000000 0.000000 0.000000 0.000000 0.034101 0.000000
# 6 0.000000 0.000000 0.000000 0.000000 0.000000 0.045314
#
#
# Mechanical properties :
#
#
# Convention : Reuss Voigt Hill
#
# Bulk Modulus (GPa) = 57.64022 57.68802 57.66412
# Shear Modulus (GPa) = 27.10192 28.35823 27.73007
#
# Velocity S-wave (km/s) = 3.45860 3.53786 3.49845
# Velocity P-wave (km/s) = 6.43349 6.49232 6.46297
#
# Compressibility (1/GPa) = 0.01734900
#
# Stress axis : x y z
#
# Youngs Moduli (GPa) = 64.46911 64.46911 97.59078
#
# Poissons Ratio (x) = 0.46068 0.23493
# Poissons Ratio (y) = 0.46068 0.23493
# Poissons Ratio (z) = 0.15519 0.15519
#
# Static dielectric constant tensor:
#      x y z
#    x 1.882550 0.000000 0.000000 
#    y 0.000000 1.882550 0.000000 
#    z 0.000000 0.000000 1.969410 
# 
# From -- ./inp_files/5655.got.cif
#   From: 2010.05.17/outbox.cif.g08.bks.cpg/sg178_3_cif.got.tgz:5655.got - 2010.05.20 11:30:59.
