data_PCOD9582969
_publ_section_title
;
Structure prediction by ZEFSAII (Michael W. Deem and Ramdas Pophale) SiO2 
 PCOD9582969
Probable space group: P 61 2 2
;
_chemical_formula_sum "Si O2"
_cell_formula_units_Z 48
_cell_length_a 16.720358
_cell_length_b 16.720358
_cell_length_c 10.007743
_cell_angle_alpha 90.000000
_cell_angle_beta 90.000000
_cell_angle_gamma 120.000000
_cell_volume 2423.025137
_symmetry_space_group_name_H-M "P 61 2 2"
_symmetry_group_IT_number 178
_symmetry_cell_setting 'hexagonal'
loop_
_space_group_symop_operation_xyz
x,y,z
x-y,x,1/6+z
-y,x-y,1/3+z
-x,-y,1/2+z
-x+y,-x,2/3+z
y,-x+y,5/6+z
x-y,-y,-z
-x,-x+y,2/3-z
y,x,1/3-z
-y,-x,5/6-z
-x+y,y,1/2-z
x,x-y,1/6-z
loop_
_atom_site_type_symbol
_atom_site_label
_atom_site_fract_x
_atom_site_fract_y
_atom_site_fract_z
Si Si1 0.761845 0.071623 0.114350
Si Si2 0.696021 0.946405 0.369118
Si Si3 0.686543 0.206058 0.048823
Si Si4 0.308450 0.501572 0.130791
O O1 0.865252 0.152191 0.148555
O O2 0.705604 0.121896 0.068505
O O3 0.718482 0.017017 0.249850
O O4 0.752213 0.000000 0.000000
O O5 0.587975 0.896115 0.408176
O O6 0.753331 0.000000 0.500000
O O7 0.732075 0.272307 0.177221
O O8 0.740598 0.259403 0.916667
O O9 0.581154 0.177601 0.024605
O O10 0.234351 0.468702 0.250000
#
# Coordination Sequence:
#
# PCOD9582969 Si02
#       4
#    12  12  12  12
#     4  11  23  42  65  90 120 157 201 251 309 366
#     4  11  23  42  65  90 120 157 201 251 309 366
#     4  11  22  38  61  91 128 168 207 243 285 342
#     4  11  22  38  61  91 128 168 207 243 285 342
#
# _framework density 19.809947999999999
#
# number of rings (size 3 to 8) (size 9 to 14) (size 15 to 20)
#    0.000    1.000    0.000   10.500    0.000    1.000 
#    0.000    7.500    0.000    7.500    0.000    0.000 
#    0.000    0.000    0.000    0.000    0.000    0.000 
#
# Total GULP energy -268545.614519 kJ/mol
# GULP energy per Si atom -5594.700302 kJ/mol
# Density = 1.976486 g / cm^3
# Si number density = 19.809948 Si / 1000 Ang^3
#
#
#
# Elastic Constant Matrix: (Units=GPa)
#
#
# Indices 1 2 3 4 5 6 
#
# 1 54.7796 43.8275 -1.7778 0.0000 0.0000 0.0000
# 2 43.8275 54.7796 -1.7778 0.0000 0.0000 0.0000
# 3 -1.7778 -1.7778 80.3643 0.0000 0.0000 0.0000
# 4 0.0000 0.0000 0.0000 40.0777 0.0000 0.0000
# 5 0.0000 0.0000 0.0000 0.0000 40.0777 0.0000
# 6 0.0000 0.0000 0.0000 0.0000 0.0000 5.4760
#
#
#
# Elastic Compliance Matrix: (Units=1/GPa)
#
#
# Indices 1 2 3 4 5 6 
#
# 1 0.050728 -0.040579 0.000225 0.000000 0.000000 0.000000
# 2 -0.040579 0.050728 0.000225 0.000000 0.000000 0.000000
# 3 0.000225 0.000225 0.012453 0.000000 0.000000 0.000000
# 4 0.000000 0.000000 0.000000 0.024952 0.000000 0.000000
# 5 0.000000 0.000000 0.000000 0.000000 0.024952 0.000000
# 6 0.000000 0.000000 0.000000 0.000000 0.000000 0.182614
#
#
# Mechanical properties :
#
#
# Convention : Reuss Voigt Hill
#
# Bulk Modulus (GPa) = 29.71763 30.05193 29.88478
# Shear Modulus (GPa) = 11.41807 27.10307 19.26057
#
# Velocity S-wave (km/s) = 2.40340 3.70287 3.12150
# Velocity P-wave (km/s) = 4.76820 5.78660 5.30191
#
# Compressibility (1/GPa) = 0.03365005
#
# Stress axis : x y z
#
# Youngs Moduli (GPa) = 19.71293 19.71293 80.30021
#
# Poissons Ratio (x) = 0.79993 -0.01803
# Poissons Ratio (y) = 0.79993 -0.01803
# Poissons Ratio (z) = -0.00443 -0.00443
#
# Static dielectric constant tensor:
#      x y z
#    x 1.705560 0.000000 0.000000 
#    y 0.000000 1.705560 0.000000 
#    z 0.000000 0.000000 1.695790 
# 
# From -- ./inp_files/2581.got.cif
#   From: 2010.05.17/outbox.cif.g08.bks.cpg/sg178_2_cif.got.tgz:2581.got - 2010.05.20 11:30:59.
