data_PCOD9582793
_publ_section_title
;
Structure prediction by ZEFSAII (Michael W. Deem and Ramdas Pophale) SiO2 
 PCOD9582793
Probable space group: P 61 2 2
;
_chemical_formula_sum "Si O2"
_cell_formula_units_Z 72
_cell_length_a 15.142393
_cell_length_b 15.142393
_cell_length_c 17.349714
_cell_angle_alpha 90.000000
_cell_angle_beta 90.000000
_cell_angle_gamma 120.000000
_cell_volume 3445.180487
_symmetry_space_group_name_H-M "P 61 2 2"
_symmetry_group_IT_number 178
_symmetry_cell_setting 'hexagonal'
loop_
_space_group_symop_operation_xyz
x,y,z
x-y,x,1/6+z
-y,x-y,1/3+z
-x,-y,1/2+z
-x+y,-x,2/3+z
y,-x+y,5/6+z
x-y,-y,-z
-x,-x+y,2/3-z
y,x,1/3-z
-y,-x,5/6-z
-x+y,y,1/2-z
x,x-y,1/6-z
loop_
_atom_site_type_symbol
_atom_site_label
_atom_site_fract_x
_atom_site_fract_y
_atom_site_fract_z
Si Si1 0.391526 0.196474 0.914848
Si Si2 0.353589 0.353589 0.166667
Si Si3 0.974722 0.025279 0.916667
Si Si4 0.731793 0.457406 0.041360
Si Si5 0.787332 0.173779 0.836756
Si Si6 0.652627 0.501871 0.788272
Si Si7 0.740583 0.953112 0.889773
O O1 0.497428 0.217375 0.874232
O O2 0.315055 0.189998 0.847756
O O3 0.342645 0.091042 0.961505
O O4 0.428622 0.294732 0.969821
O O5 0.383622 0.439706 0.231286
O O6 0.000000 0.995912 0.833334
O O7 0.026576 0.147600 0.921660
O O8 0.715054 0.357527 0.083334
O O9 0.810626 0.539055 0.101669
O O10 0.615362 0.435801 0.033313
O O11 0.899480 0.226184 0.798600
O O12 0.754575 0.059510 0.860563
O O13 0.778373 0.221628 0.916667
O O14 0.750135 0.500270 0.750000
#
# Coordination Sequence:
#
# PCOD9582793 Si02
#       7
#    12   6   6  12  12  12  12
#     4  10  23  41  66  94 135 173 216 282 332 401
#     4  10  22  42  66  96 128 176 228 268 330 406
#     4  12  22  40  64  90 132 174 224 282 336 410
#     4  10  23  43  66  95 128 173 214 271 336 398
#     4  11  22  40  62  92 129 170 211 268 327 399
#     4   9  20  41  64  90 130 168 212 269 329 389
#     4  11  22  39  63  91 131 174 214 270 342 386
#
# _framework density 20.898759999999999
#
# number of rings (size 3 to 8) (size 9 to 14) (size 15 to 20)
#    0.000    1.667    2.500    1.000    4.667    4.000 
#   13.500    0.000    0.000    0.000    0.000    0.000 
#    0.000    0.000    0.000    0.000    0.000    0.000 
#
# Total GULP energy -400944.235319 kJ/mol
# GULP energy per Si atom -5568.669935 kJ/mol
# Density = 2.085119 g / cm^3
# Si number density = 20.898760 Si / 1000 Ang^3
#
#
#
# Elastic Constant Matrix: (Units=GPa)
#
#
# Indices 1 2 3 4 5 6 
#
# 1 44.9265 12.4685 31.4098 0.0000 0.0000 0.0000
# 2 12.4685 44.9265 31.4098 0.0000 0.0000 0.0000
# 3 31.4098 31.4098 138.4960 0.0000 0.0000 0.0000
# 4 0.0000 0.0000 0.0000 27.2191 0.0000 0.0000
# 5 0.0000 0.0000 0.0000 0.0000 27.2191 0.0000
# 6 0.0000 0.0000 0.0000 0.0000 0.0000 16.2290
#
#
#
# Elastic Compliance Matrix: (Units=1/GPa)
#
#
# Indices 1 2 3 4 5 6 
#
# 1 0.026993 -0.003816 -0.005256 0.000000 0.000000 0.000000
# 2 -0.003816 0.026993 -0.005256 0.000000 0.000000 0.000000
# 3 -0.005256 -0.005256 0.009605 0.000000 0.000000 0.000000
# 4 0.000000 0.000000 0.000000 0.036739 0.000000 0.000000
# 5 0.000000 0.000000 0.000000 0.000000 0.036739 0.000000
# 6 0.000000 0.000000 0.000000 0.000000 0.000000 0.061618
#
#
# Mechanical properties :
#
#
# Convention : Reuss Voigt Hill
#
# Bulk Modulus (GPa) = 28.62703 42.10280 35.36491
# Shear Modulus (GPa) = 20.92164 24.33751 22.62958
#
# Velocity S-wave (km/s) = 3.16744 3.41624 3.29419
# Velocity P-wave (km/s) = 5.20621 5.97919 5.60604
#
# Compressibility (1/GPa) = 0.03493202
#
# Stress axis : x y z
#
# Youngs Moduli (GPa) = 37.04731 37.04731 104.11761
#
# Poissons Ratio (x) = 0.14139 0.54726
# Poissons Ratio (y) = 0.14139 0.54726
# Poissons Ratio (z) = 0.19473 0.19473
#
# Static dielectric constant tensor:
#      x y z
#    x 1.784600 0.000000 0.000000 
#    y 0.000000 1.784600 0.000000 
#    z 0.000000 0.000000 1.841680 
# 
# From -- ./inp_files/6853.got.cif
#   From: 2010.05.17/outbox.cif.g08.bks.cpg/sg178_4_cif.got.tgz:6853.got - 2010.05.20 11:30:59.
