data_PCOD9582346
_publ_section_title
;
Structure prediction by ZEFSAII (Michael W. Deem and Ramdas Pophale) SiO2 
 PCOD9582346
Probable space group: P 61 2 2
;
_chemical_formula_sum "Si O2"
_cell_formula_units_Z 78
_cell_length_a 18.377207
_cell_length_b 18.377207
_cell_length_c 13.490238
_cell_angle_alpha 90.000000
_cell_angle_beta 90.000000
_cell_angle_gamma 120.000000
_cell_volume 3945.565504
_symmetry_space_group_name_H-M "P 61 2 2"
_symmetry_group_IT_number 178
_symmetry_cell_setting 'hexagonal'
loop_
_space_group_symop_operation_xyz
x,y,z
x-y,x,1/6+z
-y,x-y,1/3+z
-x,-y,1/2+z
-x+y,-x,2/3+z
y,-x+y,5/6+z
x-y,-y,-z
-x,-x+y,2/3-z
y,x,1/3-z
-y,-x,5/6-z
-x+y,y,1/2-z
x,x-y,1/6-z
loop_
_atom_site_type_symbol
_atom_site_label
_atom_site_fract_x
_atom_site_fract_y
_atom_site_fract_z
Si Si1 0.295311 0.569702 0.555259
Si Si2 0.121324 0.338876 0.147307
Si Si3 0.510667 0.627286 0.801415
Si Si4 0.557694 0.933641 0.133578
Si Si5 0.543598 0.771799 0.083334
Si Si6 0.697613 0.749592 0.761753
Si Si7 0.477586 0.375299 0.871737
O O1 0.330457 0.665229 0.583334
O O2 0.217611 0.540224 0.478651
O O3 0.257659 0.514898 0.653620
O O4 0.361012 0.546614 0.513829
O O5 0.173127 0.346254 0.250000
O O6 0.166024 0.307923 0.067818
O O7 0.127225 0.425937 0.114082
O O8 0.020605 0.277333 0.156516
O O9 0.446010 0.534748 0.761571
O O10 0.599710 0.677774 0.746956
O O11 0.540217 0.627195 0.914992
O O12 0.588221 0.872343 0.089818
O O13 0.620642 0.032613 0.129648
O O14 0.749622 0.749622 0.666667
O O15 0.532011 0.467990 0.916667
#
# Coordination Sequence:
#
# PCOD9582346 Si02
#       7
#    12  12  12  12   6  12  12
#     4  11  23  38  56  80 113 160 201 250 293 346
#     4  10  21  36  58  89 124 152 198 248 303 366
#     4  10  16  36  57  72 109 154 188 236 295 338
#     4  10  19  36  57  76 108 151 196 245 298 344
#     4  10  22  40  58  78 110 152 208 248 294 352
#     4  10  19  34  56  87 120 148 192 241 299 357
#     4  12  23  37  58  86 119 161 204 249 304 353
#
# _framework density 19.769027999999999
#
# number of rings (size 3 to 8) (size 9 to 14) (size 15 to 20)
#    0.000    1.538    7.692    0.000    1.077    1.231 
#    8.308    0.000    0.000    0.000    0.000    0.000 
#   20.769    0.000    0.000    0.000    0.000    0.000 
#
# Total GULP energy -434755.644749 kJ/mol
# GULP energy per Si atom -5573.790317 kJ/mol
# Density = 1.972403 g / cm^3
# Si number density = 19.769028 Si / 1000 Ang^3
#
#
#
# Elastic Constant Matrix: (Units=GPa)
#
#
# Indices 1 2 3 4 5 6 
#
# 1 115.0174 59.1676 16.9038 0.0000 0.0000 0.0000
# 2 59.1676 115.0174 16.9038 0.0000 0.0000 0.0000
# 3 16.9038 16.9038 17.8148 0.0000 0.0000 0.0000
# 4 0.0000 0.0000 0.0000 22.1824 0.0000 0.0000
# 5 0.0000 0.0000 0.0000 0.0000 22.1824 0.0000
# 6 0.0000 0.0000 0.0000 0.0000 0.0000 27.9249
#
#
#
# Elastic Compliance Matrix: (Units=1/GPa)
#
#
# Indices 1 2 3 4 5 6 
#
# 1 0.012471 -0.005434 -0.006677 0.000000 0.000000 0.000000
# 2 -0.005434 0.012471 -0.006677 0.000000 0.000000 0.000000
# 3 -0.006677 -0.006677 0.068805 0.000000 0.000000 0.000000
# 4 0.000000 0.000000 0.000000 0.045081 0.000000 0.000000
# 5 0.000000 0.000000 0.000000 0.000000 0.045081 0.000000
# 6 0.000000 0.000000 0.000000 0.000000 0.000000 0.035810
#
#
# Mechanical properties :
#
#
# Convention : Reuss Voigt Hill
#
# Bulk Modulus (GPa) = 17.80309 48.19999 33.00154
# Shear Modulus (GPa) = 18.11471 24.78290 21.44880
#
# Velocity S-wave (km/s) = 3.03036 3.54449 3.29746
# Velocity P-wave (km/s) = 4.61185 6.41761 5.58815
#
# Compressibility (1/GPa) = 0.05617002
#
# Stress axis : x y z
#
# Youngs Moduli (GPa) = 80.18553 80.18553 14.53391
#
# Poissons Ratio (x) = 0.43574 0.09704
# Poissons Ratio (y) = 0.43574 0.09704
# Poissons Ratio (z) = 0.53541 0.53541
#
# Static dielectric constant tensor:
#      x y z
#    x 1.742760 0.000000 0.000000 
#    y 0.000000 1.742760 0.000000 
#    z 0.000000 0.000000 1.805500 
# 
# From -- ./inp_files/6947.got.cif
#   From: 2010.05.17/outbox.cif.g08.bks.cpg/sg178_4_cif.got.tgz:6947.got - 2010.05.20 11:30:59.
