data_PCOD9582195
_publ_section_title
;
Structure prediction by ZEFSAII (Michael W. Deem and Ramdas Pophale) SiO2 
 PCOD9582195
Probable space group: P 6 2 2
;
_chemical_formula_sum "Si O2"
_cell_formula_units_Z 48
_cell_length_a 16.800406
_cell_length_b 16.800406
_cell_length_c 8.833127
_cell_angle_alpha 90.000000
_cell_angle_beta 90.000000
_cell_angle_gamma 120.000000
_cell_volume 2159.159177
_symmetry_space_group_name_H-M "P 6 2 2"
_symmetry_group_IT_number 177
_symmetry_cell_setting 'hexagonal'
loop_
_space_group_symop_operation_xyz
x,y,z
x-y,x,z
-y,x-y,z
-x,-y,z
-x+y,-x,z
y,-x+y,z
x-y,-y,-z
-x,-x+y,-z
y,x,-z
-y,-x,-z
-x+y,y,-z
x,x-y,-z
loop_
_atom_site_type_symbol
_atom_site_label
_atom_site_fract_x
_atom_site_fract_y
_atom_site_fract_z
Si Si1 0.470802 0.113899 0.081842
Si Si2 0.891033 0.106563 0.815886
Si Si3 0.605537 0.578977 0.658864
Si Si4 0.574723 0.813561 0.789225
O O1 0.402291 0.029309 0.187291
O O2 0.494708 0.199874 0.192049
O O3 0.553479 0.106958 0.000000
O O4 0.421790 0.136384 0.947628
O O5 0.839898 0.160457 0.756320
O O6 0.998973 0.160453 0.771125
O O7 0.890348 0.109653 0.000000
O O8 0.500000 0.500000 0.649792
O O9 0.631560 0.631560 0.500000
O O10 0.676310 0.542761 0.677568
#
# Coordination Sequence:
#
# PCOD9582195 Si02
#       4
#    12  12  12  12
#     4  11  22  40  64  93 125 163 216 270 326 382
#     4  10  19  32  54  89 129 161 198 255 330 391
#     4  11  24  41  64  91 127 171 211 264 331 398
#     4  11  22  38  65  95 123 167 216 279 320 390
#
# _framework density 22.230874
#
# number of rings (size 3 to 8) (size 9 to 14) (size 15 to 20)
#    0.000    1.250    5.000    2.500    3.500    2.000 
#    6.000    0.000    0.000    0.000    0.000    0.000 
#    0.000    2.000    0.000    0.000    0.000    0.000 
#
# Total GULP energy -267247.260631 kJ/mol
# GULP energy per Si atom -5567.651263 kJ/mol
# Density = 2.218028 g / cm^3
# Si number density = 22.230874 Si / 1000 Ang^3
#
#
#
# Elastic Constant Matrix: (Units=GPa)
#
#
# Indices 1 2 3 4 5 6 
#
# 1 114.8345 57.8214 11.9961 0.0000 0.0000 0.0000
# 2 57.8214 114.8345 11.9961 0.0000 0.0000 0.0000
# 3 11.9961 11.9961 26.9757 0.0000 0.0000 0.0000
# 4 0.0000 0.0000 0.0000 12.1143 0.0000 0.0000
# 5 0.0000 0.0000 0.0000 0.0000 12.1143 0.0000
# 6 0.0000 0.0000 0.0000 0.0000 0.0000 28.5066
#
#
#
# Elastic Compliance Matrix: (Units=1/GPa)
#
#
# Indices 1 2 3 4 5 6 
#
# 1 0.011857 -0.005683 -0.002745 0.000000 0.000000 0.000000
# 2 -0.005683 0.011857 -0.002745 0.000000 0.000000 0.000000
# 3 -0.002745 -0.002745 0.039512 0.000000 0.000000 0.000000
# 4 0.000000 0.000000 0.000000 0.082547 0.000000 0.000000
# 5 0.000000 0.000000 0.000000 0.000000 0.082547 0.000000
# 6 0.000000 0.000000 0.000000 0.000000 0.000000 0.035080
#
#
# Mechanical properties :
#
#
# Convention : Reuss Voigt Hill
#
# Bulk Modulus (GPa) = 24.46327 46.69689 35.58008
# Shear Modulus (GPa) = 16.70159 22.20244 19.45202
#
# Velocity S-wave (km/s) = 2.74392 3.16368 2.96125
# Velocity P-wave (km/s) = 4.58987 5.86483 5.26607
#
# Compressibility (1/GPa) = 0.04087762
#
# Stress axis : x y z
#
# Youngs Moduli (GPa) = 84.34131 84.34131 25.30869
#
# Poissons Ratio (x) = 0.47933 0.06948
# Poissons Ratio (y) = 0.47933 0.06948
# Poissons Ratio (z) = 0.23154 0.23154
#
# Static dielectric constant tensor:
#      x y z
#    x 1.879850 0.000000 0.000000 
#    y 0.000000 1.879850 0.000000 
#    z 0.000000 0.000000 1.940750 
# 
# From -- ./inp_files/1130.got.cif
#   From: 2010.05.17/outbox.cif.g08.bks.cpg/sg177_1_cif.got.tgz:1130.got - 2010.05.20 11:28:44.
