data_PCOD9582607
_publ_section_title
;
Structure prediction by ZEFSAII (Michael W. Deem and Ramdas Pophale) SiO2 
 PCOD9582607
Probable space group: P 61 2 2
;
_chemical_formula_sum "Si O2"
_cell_formula_units_Z 72
_cell_length_a 14.420278
_cell_length_b 14.420278
_cell_length_c 21.518468
_cell_angle_alpha 90.000000
_cell_angle_beta 90.000000
_cell_angle_gamma 120.000000
_cell_volume 3875.156499
_symmetry_space_group_name_H-M "P 61 2 2"
_symmetry_group_IT_number 178
_symmetry_cell_setting 'hexagonal'
loop_
_space_group_symop_operation_xyz
x,y,z
x-y,x,1/6+z
-y,x-y,1/3+z
-x,-y,1/2+z
-x+y,-x,2/3+z
y,-x+y,5/6+z
x-y,-y,-z
-x,-x+y,2/3-z
y,x,1/3-z
-y,-x,5/6-z
-x+y,y,1/2-z
x,x-y,1/6-z
loop_
_atom_site_type_symbol
_atom_site_label
_atom_site_fract_x
_atom_site_fract_y
_atom_site_fract_z
Si Si1 0.359756 0.603971 0.307931
Si Si2 0.691833 0.594195 0.970417
Si Si3 0.153609 0.218917 0.040654
Si Si4 0.693869 0.306132 0.916667
Si Si5 0.346169 0.396514 0.326435
Si Si6 0.473995 0.583647 0.989796
Si Si7 0.000000 0.097493 0.333334
O O1 0.323714 0.647427 0.250000
O O2 0.485420 0.671728 0.328494
O O3 0.292079 0.602721 0.367827
O O4 0.337816 0.487104 0.288847
O O5 0.812913 0.692455 0.974452
O O6 0.663764 0.573429 0.897441
O O7 0.599827 0.619794 0.992624
O O8 0.146272 0.184307 0.111933
O O9 0.274824 0.262640 0.019285
O O10 0.083369 0.102380 0.010531
O O11 0.657212 0.207214 0.869065
O O12 0.463276 0.412287 0.316932
O O13 0.435572 0.564429 0.916667
#
# Coordination Sequence:
#
# PCOD9582607 Si02
#       7
#    12  12  12   6  12  12   6
#     4  11  23  37  60  94 128 165 210 252 312 388
#     4  10  20  43  64  87 122 172 213 256 314 393
#     4  11  21  39  61  87 122 160 202 273 320 378
#     4  12  20  38  60  92 130 160 210 264 306 378
#     4  10  20  38  62  88 121 164 208 258 316 378
#     4   9  21  38  62  92 123 166 213 248 310 387
#     4  10  24  36  56  96 114 150 216 262 334 372
#
# _framework density 18.579893999999999
#
# number of rings (size 3 to 8) (size 9 to 14) (size 15 to 20)
#    0.000    1.667    3.333    2.500    2.333    1.333 
#    0.000    4.167    0.000    0.000    0.000    0.000 
#    0.000    0.000    0.000    0.000    0.000    0.000 
#
# Total GULP energy -400854.813554 kJ/mol
# GULP energy per Si atom -5567.427966 kJ/mol
# Density = 1.853761 g / cm^3
# Si number density = 18.579894 Si / 1000 Ang^3
#
#
#
# Elastic Constant Matrix: (Units=GPa)
#
#
# Indices 1 2 3 4 5 6 
#
# 1 168.7869 17.6152 37.4649 0.0000 0.0000 0.0000
# 2 17.6152 168.7869 37.4649 0.0000 0.0000 0.0000
# 3 37.4649 37.4649 90.9392 0.0000 0.0000 0.0000
# 4 0.0000 0.0000 0.0000 25.8829 0.0000 0.0000
# 5 0.0000 0.0000 0.0000 0.0000 25.8829 0.0000
# 6 0.0000 0.0000 0.0000 0.0000 0.0000 75.5859
#
#
#
# Elastic Compliance Matrix: (Units=1/GPa)
#
#
# Indices 1 2 3 4 5 6 
#
# 1 0.006522 -0.000093 -0.002649 0.000000 0.000000 0.000000
# 2 -0.000093 0.006522 -0.002649 0.000000 0.000000 0.000000
# 3 -0.002649 -0.002649 0.013179 0.000000 0.000000 0.000000
# 4 0.000000 0.000000 0.000000 0.038635 0.000000 0.000000
# 5 0.000000 0.000000 0.000000 0.000000 0.038635 0.000000
# 6 0.000000 0.000000 0.000000 0.000000 0.000000 0.013230
#
#
# Mechanical properties :
#
#
# Convention : Reuss Voigt Hill
#
# Bulk Modulus (GPa) = 64.75579 68.17810 66.46695
# Shear Modulus (GPa) = 37.69243 47.86823 42.78033
#
# Velocity S-wave (km/s) = 4.50896 5.08128 4.80365
# Velocity P-wave (km/s) = 7.87629 8.43801 8.16198
#
# Compressibility (1/GPa) = 0.01544264
#
# Stress axis : x y z
#
# Youngs Moduli (GPa) = 153.32125 153.32125 75.87904
#
# Poissons Ratio (x) = 0.01422 0.20099
# Poissons Ratio (y) = 0.01422 0.20099
# Poissons Ratio (z) = 0.40612 0.40612
#
# Static dielectric constant tensor:
#      x y z
#    x 1.688490 0.000000 0.000000 
#    y 0.000000 1.688490 0.000000 
#    z 0.000000 0.000000 1.677840 
# 
# From -- ./inp_files/7708.got.cif
#   From: 2010.05.17/outbox.cif.g08.bks.cpg/sg178_4_cif.got.tgz:7708.got - 2010.05.20 11:30:59.
