data_PCOD9582200
_publ_section_title
;
Structure prediction by ZEFSAII (Michael W. Deem and Ramdas Pophale) SiO2 
 PCOD9582200
Probable space group: P 6 2 2
;
_chemical_formula_sum "Si O2"
_cell_formula_units_Z 84
_cell_length_a 18.048798
_cell_length_b 18.048798
_cell_length_c 13.563320
_cell_angle_alpha 90.000000
_cell_angle_beta 90.000000
_cell_angle_gamma 120.000000
_cell_volume 3826.425029
_symmetry_space_group_name_H-M "P 6 2 2"
_symmetry_group_IT_number 177
_symmetry_cell_setting 'hexagonal'
loop_
_space_group_symop_operation_xyz
x,y,z
x-y,x,z
-y,x-y,z
-x,-y,z
-x+y,-x,z
y,-x+y,z
x-y,-y,-z
-x,-x+y,-z
y,x,-z
-y,-x,-z
-x+y,y,-z
x,x-y,-z
loop_
_atom_site_type_symbol
_atom_site_label
_atom_site_fract_x
_atom_site_fract_y
_atom_site_fract_z
Si Si1 0.509693 0.705981 0.627737
Si Si2 0.857324 0.369042 0.863683
Si Si3 0.172215 0.155357 0.115076
Si Si4 0.485589 0.623704 0.375506
Si Si5 0.987490 0.656711 0.604798
Si Si6 0.327658 0.330108 0.160816
Si Si7 0.700591 0.187106 0.862231
O O1 0.443916 0.610165 0.593798
O O2 0.503074 0.786410 0.592590
O O3 0.599696 0.713710 0.609472
O O4 0.496383 0.702614 0.745501
O O5 0.861031 0.376959 0.744018
O O6 0.946342 0.370288 0.881506
O O7 0.780471 0.276437 0.898353
O O8 0.838708 0.443830 0.897511
O O9 0.098032 0.170291 0.159664
O O10 0.265774 0.236443 0.120775
O O11 0.148164 0.148164 0.000000
O O12 0.565220 0.612231 0.406776
O O13 0.009041 0.685432 0.719713
O O14 0.000000 0.704793 0.500000
O O15 0.292486 0.394043 0.133071
#
# Coordination Sequence:
#
# PCOD9582200 Si02
#       7
#    12  12  12  12  12  12  12
#     4   9  17  29  45  65  91 128 177 230 278 320
#     4   9  16  27  45  70 102 141 184 229 275 321
#     4  10  21  39  65  95 121 140 161 200 260 323
#     4   9  17  29  45  65  91 128 177 230 278 320
#     4  10  21  34  47  67 102 144 180 216 259 307
#     4  10  19  33  54  80 108 140 181 224 266 317
#     4   9  16  27  45  70 102 141 184 229 275 321
#
# _framework density 21.952604999999998
#
# number of rings (size 3 to 8) (size 9 to 14) (size 15 to 20)
#    0.000    2.571    0.000    2.429    0.000    9.143 
#    0.000    0.000    0.000    3.429    0.000    0.000 
#    0.000    3.429    0.000    0.000    0.000    0.000 
#
# Total GULP energy -468127.723295 kJ/mol
# GULP energy per Si atom -5572.949087 kJ/mol
# Density = 2.190264 g / cm^3
# Si number density = 21.952605 Si / 1000 Ang^3
#
#
#
# Elastic Constant Matrix: (Units=GPa)
#
#
# Indices 1 2 3 4 5 6 
#
# 1 95.2305 -29.6386 -22.2228 0.0000 0.0000 0.0000
# 2 -29.6386 95.2305 -22.2228 0.0000 0.0000 0.0000
# 3 -22.2228 -22.2228 61.5706 0.0000 0.0000 0.0000
# 4 0.0000 0.0000 0.0000 13.9300 0.0000 0.0000
# 5 0.0000 0.0000 0.0000 0.0000 13.9300 0.0000
# 6 0.0000 0.0000 0.0000 0.0000 0.0000 62.4346
#
#
#
# Elastic Compliance Matrix: (Units=1/GPa)
#
#
# Indices 1 2 3 4 5 6 
#
# 1 0.014095 0.006087 0.007284 0.000000 0.000000 0.000000
# 2 0.006087 0.014095 0.007284 0.000000 0.000000 0.000000
# 3 0.007284 0.007284 0.021500 0.000000 0.000000 0.000000
# 4 0.000000 0.000000 0.000000 0.071787 0.000000 0.000000
# 5 0.000000 0.000000 0.000000 0.000000 0.071787 0.000000
# 6 0.000000 0.000000 0.000000 0.000000 0.000000 0.016017
#
#
# Mechanical properties :
#
#
# Convention : Reuss Voigt Hill
#
# Bulk Modulus (GPa) = 10.98908 11.54039 11.26473
# Shear Modulus (GPa) = 25.21374 39.79997 32.50685
#
# Velocity S-wave (km/s) = 3.39271 4.26255 3.85226
# Velocity P-wave (km/s) = 4.51265 5.43085 4.99290
#
# Compressibility (1/GPa) = 0.09099944
#
# Stress axis : x y z
#
# Youngs Moduli (GPa) = 70.94727 70.94727 46.51234
#
# Poissons Ratio (x) = -0.43183 -0.33880
# Poissons Ratio (y) = -0.43183 -0.33880
# Poissons Ratio (z) = -0.51679 -0.51679
#
# Static dielectric constant tensor:
#      x y z
#    x 1.782600 0.000000 0.000000 
#    y 0.000000 1.782600 0.000000 
#    z 0.000000 0.000000 1.991470 
# 
# From -- ./inp_files/2620.got.cif
#   From: 2010.05.17/outbox.cif.g08.bks.cpg/sg177_2_cif.got.tgz:2620.got - 2010.05.20 11:28:44.
