data_PCOD9582852
_publ_section_title
;
Structure prediction by ZEFSAII (Michael W. Deem and Ramdas Pophale) SiO2 
 PCOD9582852
Probable space group: P 61 2 2
;
_chemical_formula_sum "Si O2"
_cell_formula_units_Z 42
_cell_length_a 14.382397
_cell_length_b 14.382397
_cell_length_c 10.457486
_cell_angle_alpha 90.000000
_cell_angle_beta 90.000000
_cell_angle_gamma 120.000000
_cell_volume 1873.356660
_symmetry_space_group_name_H-M "P 61 2 2"
_symmetry_group_IT_number 178
_symmetry_cell_setting 'hexagonal'
loop_
_space_group_symop_operation_xyz
x,y,z
x-y,x,1/6+z
-y,x-y,1/3+z
-x,-y,1/2+z
-x+y,-x,2/3+z
y,-x+y,5/6+z
x-y,-y,-z
-x,-x+y,2/3-z
y,x,1/3-z
-y,-x,5/6-z
-x+y,y,1/2-z
x,x-y,1/6-z
loop_
_atom_site_type_symbol
_atom_site_label
_atom_site_fract_x
_atom_site_fract_y
_atom_site_fract_z
Si Si1 0.006843 0.823099 0.130607
Si Si2 0.574617 0.711387 0.988235
Si Si3 0.411114 0.239108 0.947309
Si Si4 0.983431 0.491716 0.583334
O O1 0.095187 0.813071 0.046751
O O2 0.940060 0.701599 0.186127
O O3 0.078567 0.920174 0.224632
O O4 0.568672 0.751064 0.843072
O O5 0.515254 0.584246 0.010592
O O6 0.529163 0.764582 0.083334
O O7 0.460425 0.366472 0.938791
O O8 0.451807 0.225904 0.083334
#
# Coordination Sequence:
#
# PCOD9582852 Si02
#       4
#    12  12  12   6
#     4   9  20  39  62  90 130 168 213 259 319 387
#     4  10  23  43  66  98 130 171 223 272 331 410
#     4  10  23  43  66  98 130 171 223 272 331 410
#     4  10  24  46  74  94 138 186 214 294 360 374
#
# _framework density 22.419650000000001
#
# number of rings (size 3 to 8) (size 9 to 14) (size 15 to 20)
#    0.000    2.286    0.000    0.000    0.000   25.143 
#    5.143   12.857    0.000    0.000    0.000    0.000 
#    0.000    0.000    0.000    0.000    0.000    0.000 
#
# Total GULP energy -234025.186065 kJ/mol
# GULP energy per Si atom -5572.028240 kJ/mol
# Density = 2.236862 g / cm^3
# Si number density = 22.419650 Si / 1000 Ang^3
#
#
#
# Elastic Constant Matrix: (Units=GPa)
#
#
# Indices 1 2 3 4 5 6 
#
# 1 91.8068 50.8842 24.0713 0.0000 0.0000 0.0000
# 2 50.8842 91.8068 24.0713 0.0000 0.0000 0.0000
# 3 24.0713 24.0713 74.6172 0.0000 0.0000 0.0000
# 4 0.0000 0.0000 0.0000 5.7145 0.0000 0.0000
# 5 0.0000 0.0000 0.0000 0.0000 5.7145 0.0000
# 6 0.0000 0.0000 0.0000 0.0000 0.0000 20.4613
#
#
#
# Elastic Compliance Matrix: (Units=1/GPa)
#
#
# Indices 1 2 3 4 5 6 
#
# 1 0.016150 -0.008286 -0.002537 0.000000 0.000000 0.000000
# 2 -0.008286 0.016150 -0.002537 0.000000 0.000000 0.000000
# 3 -0.002537 -0.002537 0.015039 0.000000 0.000000 0.000000
# 4 0.000000 0.000000 0.000000 0.174995 0.000000 0.000000
# 5 0.000000 0.000000 0.000000 0.000000 0.174995 0.000000
# 6 0.000000 0.000000 0.000000 0.000000 0.000000 0.048873
#
#
# Mechanical properties :
#
#
# Convention : Reuss Voigt Hill
#
# Bulk Modulus (GPa) = 48.49897 50.69826 49.59862
# Shear Modulus (GPa) = 10.42115 16.99166 13.70640
#
# Velocity S-wave (km/s) = 2.15831 2.75597 2.47525
# Velocity P-wave (km/s) = 5.28114 5.72622 5.50817
#
# Compressibility (1/GPa) = 0.02061900
#
# Stress axis : x y z
#
# Youngs Moduli (GPa) = 61.91867 61.91867 66.49578
#
# Poissons Ratio (x) = 0.51307 0.16870
# Poissons Ratio (y) = 0.51307 0.16870
# Poissons Ratio (z) = 0.15708 0.15708
#
# Static dielectric constant tensor:
#      x y z
#    x 1.872570 0.000000 0.000000 
#    y 0.000000 1.872570 0.000000 
#    z 0.000000 0.000000 1.924650 
# 
# From -- ./inp_files/3960.got.cif
#   From: 2010.05.17/outbox.cif.g08.bks.cpg/sg178_2_cif.got.tgz:3960.got - 2010.05.20 11:30:59.
