data_PCOD9582260
_publ_section_title
;
Structure prediction by ZEFSAII (Michael W. Deem and Ramdas Pophale) SiO2 
 PCOD9582260
Probable space group: P 6 2 2
;
_chemical_formula_sum "Si O2"
_cell_formula_units_Z 54
_cell_length_a 11.767270
_cell_length_b 11.767270
_cell_length_c 22.285859
_cell_angle_alpha 90.000000
_cell_angle_beta 90.000000
_cell_angle_gamma 120.000000
_cell_volume 2672.461436
_symmetry_space_group_name_H-M "P 6 2 2"
_symmetry_group_IT_number 177
_symmetry_cell_setting 'hexagonal'
loop_
_space_group_symop_operation_xyz
x,y,z
x-y,x,z
-y,x-y,z
-x,-y,z
-x+y,-x,z
y,-x+y,z
x-y,-y,-z
-x,-x+y,-z
y,x,-z
-y,-x,-z
-x+y,y,-z
x,x-y,-z
loop_
_atom_site_type_symbol
_atom_site_label
_atom_site_fract_x
_atom_site_fract_y
_atom_site_fract_z
Si Si1 0.689152 0.798390 0.250857
Si Si2 0.969698 0.724449 0.071142
Si Si3 0.514340 0.187000 0.853633
Si Si4 0.866224 0.175244 0.612428
Si Si5 0.751402 0.502804 0.500000
O O1 0.798647 0.754532 0.241516
O O2 0.568375 0.706830 0.207511
O O3 0.639301 0.782016 0.319711
O O4 0.850092 0.746289 0.091731
O O5 0.913748 0.579081 0.096243
O O6 0.000000 0.732095 0.000000
O O7 0.660619 0.208757 0.858316
O O8 0.807287 0.221029 0.559774
O O9 0.019524 0.229618 0.606099
O O10 0.595433 0.404567 0.500000
#
# Coordination Sequence:
#
# PCOD9582260 Si02
#       5
#    12  12  12  12   6
#     4  10  21  38  64  96 126 159 205 265 324 373
#     4  10  21  40  66  93 118 151 195 251 305 355
#     4  10  24  42  60  90 131 169 208 243 294 371
#     4  10  21  38  62  91 121 157 207 269 330 378
#     4  10  24  40  54  80 124 170 220 260 308 382
#
# _framework density 20.206091000000001
#
# number of rings (size 3 to 8) (size 9 to 14) (size 15 to 20)
#    0.667    1.333    0.000    2.667    0.000    9.778 
#    0.000   15.556    0.000    0.000    0.000    0.000 
#    0.000    0.000    0.000    0.000    0.000    0.000 
#
# Total GULP energy -300816.148559 kJ/mol
# GULP energy per Si atom -5570.669418 kJ/mol
# Density = 2.016010 g / cm^3
# Si number density = 20.206091 Si / 1000 Ang^3
#
#
#
# Elastic Constant Matrix: (Units=GPa)
#
#
# Indices 1 2 3 4 5 6 
#
# 1 96.9926 18.3359 49.7618 0.0000 0.0000 0.0000
# 2 18.3359 96.9926 49.7618 0.0000 0.0000 0.0000
# 3 49.7618 49.7618 98.4003 0.0000 0.0000 0.0000
# 4 0.0000 0.0000 0.0000 416.9910 0.0000 0.0000
# 5 0.0000 0.0000 0.0000 0.0000 416.9911 0.0000
# 6 0.0000 0.0000 0.0000 0.0000 0.0000 39.3284
#
#
#
# Elastic Compliance Matrix: (Units=1/GPa)
#
#
# Indices 1 2 3 4 5 6 
#
# 1 0.014049 0.001336 -0.007780 0.000000 0.000000 0.000000
# 2 0.001336 0.014049 -0.007780 0.000000 0.000000 0.000000
# 3 -0.007780 -0.007780 0.018032 0.000000 0.000000 0.000000
# 4 0.000000 0.000000 0.000000 0.002398 0.000000 0.000000
# 5 0.000000 0.000000 0.000000 0.000000 0.002398 0.000000
# 6 0.000000 0.000000 0.000000 0.000000 0.000000 0.025427
#
#
# Mechanical properties :
#
#
# Convention : Reuss Voigt Hill
#
# Bulk Modulus (GPa) = 56.55976 58.67827 57.61901
# Shear Modulus (GPa) = 45.16858 186.29716 115.73287
#
# Velocity S-wave (km/s) = 4.73313 9.61242 7.57632
# Velocity P-wave (km/s) = 7.61066 12.34104 10.25240
#
# Compressibility (1/GPa) = 0.01768041
#
# Stress axis : x y z
#
# Youngs Moduli (GPa) = 71.17842 71.17842 55.45798
#
# Poissons Ratio (x) = -0.09508 0.43148
# Poissons Ratio (y) = -0.09508 0.43148
# Poissons Ratio (z) = 0.55379 0.55379
#
# Static dielectric constant tensor:
#      x y z
#    x 1.713500 0.000000 0.000000 
#    y 0.000000 1.713500 0.000000 
#    z 0.000000 0.000000 1.749710 
# 
# From -- ./inp_files/3149.got.cif
#   From: 2010.05.17/outbox.cif.g08.bks.cpg/sg177_2_cif.got.tgz:3149.got - 2010.05.20 11:28:44.
