data_PCOD9582769
_publ_section_title
;
Structure prediction by ZEFSAII (Michael W. Deem and Ramdas Pophale) SiO2 
 PCOD9582769
Probable space group: P 61 2 2
;
_chemical_formula_sum "Si O2"
_cell_formula_units_Z 42
_cell_length_a 11.234440
_cell_length_b 11.234440
_cell_length_c 16.465698
_cell_angle_alpha 90.000000
_cell_angle_beta 90.000000
_cell_angle_gamma 120.000000
_cell_volume 1799.756023
_symmetry_space_group_name_H-M "P 61 2 2"
_symmetry_group_IT_number 178
_symmetry_cell_setting 'hexagonal'
loop_
_space_group_symop_operation_xyz
x,y,z
x-y,x,1/6+z
-y,x-y,1/3+z
-x,-y,1/2+z
-x+y,-x,2/3+z
y,-x+y,5/6+z
x-y,-y,-z
-x,-x+y,2/3-z
y,x,1/3-z
-y,-x,5/6-z
-x+y,y,1/2-z
x,x-y,1/6-z
loop_
_atom_site_type_symbol
_atom_site_label
_atom_site_fract_x
_atom_site_fract_y
_atom_site_fract_z
Si Si1 0.873901 0.436951 0.583334
Si Si2 0.690092 0.970419 0.333146
Si Si3 0.772962 0.290058 0.741881
Si Si4 0.050960 0.050960 0.166667
Si Si5 0.550508 0.000000 0.500000
O O1 0.788703 0.381792 0.664101
O O2 0.955299 0.597541 0.602027
O O3 0.631616 0.821683 0.291167
O O4 0.617340 0.968083 0.420134
O O5 0.854397 0.046893 0.339963
O O6 0.608249 0.216498 0.750000
O O7 0.873010 0.399310 0.808553
O O8 0.986761 0.973521 0.250000
#
# Coordination Sequence:
#
# PCOD9582769 Si02
#       5
#     6  12  12   6   6
#     4  10  22  40  66 102 146 186 260 322 390 468
#     4  11  23  46  69 110 152 209 262 335 403 492
#     4  11  22  42  70 102 144 201 260 333 395 466
#     4  12  27  45  74 108 162 215 265 326 416 514
#     4  10  25  43  74 114 150 207 273 334 408 490
#
# _framework density 23.336497000000001
#
# number of rings (size 3 to 8) (size 9 to 14) (size 15 to 20)
#    0.000    1.143    1.429    4.286    0.000    8.000 
#    0.000    0.000    0.000    0.000    0.000    0.000 
#    0.000    0.000    0.000    0.000    0.000    0.000 
#
# Total GULP energy -233978.928272 kJ/mol
# GULP energy per Si atom -5570.926864 kJ/mol
# Density = 2.328338 g / cm^3
# Si number density = 23.336497 Si / 1000 Ang^3
#
#
#
# Elastic Constant Matrix: (Units=GPa)
#
#
# Indices 1 2 3 4 5 6 
#
# 1 126.8880 57.5397 32.3409 0.0000 0.0000 0.0000
# 2 57.5397 126.8880 32.3409 0.0000 0.0000 0.0000
# 3 32.3409 32.3409 119.3686 0.0000 0.0000 0.0000
# 4 0.0000 0.0000 0.0000 21.6739 0.0000 0.0000
# 5 0.0000 0.0000 0.0000 0.0000 21.6739 0.0000
# 6 0.0000 0.0000 0.0000 0.0000 0.0000 34.6741
#
#
#
# Elastic Compliance Matrix: (Units=1/GPa)
#
#
# Indices 1 2 3 4 5 6 
#
# 1 0.010206 -0.004214 -0.001623 0.000000 0.000000 0.000000
# 2 -0.004214 0.010206 -0.001623 0.000000 0.000000 0.000000
# 3 -0.001623 -0.001623 0.009257 0.000000 0.000000 0.000000
# 4 0.000000 0.000000 0.000000 0.046139 0.000000 0.000000
# 5 0.000000 0.000000 0.000000 0.000000 0.046139 0.000000
# 6 0.000000 0.000000 0.000000 0.000000 0.000000 0.028840
#
#
# Mechanical properties :
#
#
# Convention : Reuss Voigt Hill
#
# Bulk Modulus (GPa) = 67.81118 68.62085 68.21602
# Shear Modulus (GPa) = 29.30441 32.33256 30.81849
#
# Velocity S-wave (km/s) = 3.54748 3.72626 3.63797
# Velocity P-wave (km/s) = 6.77499 6.92691 6.85137
#
# Compressibility (1/GPa) = 0.01474683
#
# Stress axis : x y z
#
# Youngs Moduli (GPa) = 97.98412 97.98412 108.02614
#
# Poissons Ratio (x) = 0.41293 0.17536
# Poissons Ratio (y) = 0.41293 0.17536
# Poissons Ratio (z) = 0.15906 0.15906
#
# Static dielectric constant tensor:
#      x y z
#    x 2.014890 0.000000 0.000000 
#    y 0.000000 2.014890 0.000000 
#    z 0.000000 0.000000 1.922710 
# 
# From -- ./inp_files/6503.got.cif
#   From: 2010.05.17/outbox.cif.g08.bks.cpg/sg178_4_cif.got.tgz:6503.got - 2010.05.20 11:30:59.
