data_PCOD9582806
_publ_section_title
;
Structure prediction by ZEFSAII (Michael W. Deem and Ramdas Pophale) SiO2 
 PCOD9582806
Probable space group: P 61 2 2
;
_chemical_formula_sum "Si O2"
_cell_formula_units_Z 30
_cell_length_a 17.171818
_cell_length_b 17.171818
_cell_length_c 5.364789
_cell_angle_alpha 90.000000
_cell_angle_beta 90.000000
_cell_angle_gamma 120.000000
_cell_volume 1369.985060
_symmetry_space_group_name_H-M "P 61 2 2"
_symmetry_group_IT_number 178
_symmetry_cell_setting 'hexagonal'
loop_
_space_group_symop_operation_xyz
x,y,z
x-y,x,1/6+z
-y,x-y,1/3+z
-x,-y,1/2+z
-x+y,-x,2/3+z
y,-x+y,5/6+z
x-y,-y,-z
-x,-x+y,2/3-z
y,x,1/3-z
-y,-x,5/6-z
-x+y,y,1/2-z
x,x-y,1/6-z
loop_
_atom_site_type_symbol
_atom_site_label
_atom_site_fract_x
_atom_site_fract_y
_atom_site_fract_z
Si Si1 0.573635 0.147270 0.750000
Si Si2 0.474734 0.737367 0.583334
Si Si3 0.000000 0.613045 0.333334
Si Si4 0.653092 0.863633 0.825942
O O1 0.637425 0.212538 0.528672
O O2 0.476053 0.076967 0.633074
O O3 0.546577 0.791016 0.801007
O O4 0.045090 0.695544 0.142380
O O5 0.697229 0.848615 0.583334
O O6 0.685761 0.842881 0.083334
#
# Coordination Sequence:
#
# PCOD9582806 Si02
#       4
#     6   6   6  12
#     4  12  24  42  71  98 132 202 250 304 380 446
#     4  10  24  44  57  96 134 170 244 320 350 406
#     4  12  22  44  72  96 126 200 256 286 382 476
#     4  10  22  43  63  92 130 160 232 315 353 409
#
# _framework density 21.898049
#
# number of rings (size 3 to 8) (size 9 to 14) (size 15 to 20)
#    1.200    0.000    4.000    2.400    0.000    4.800 
#    3.600    4.000    0.000    0.000    0.000    0.000 
#    0.000    0.000    0.000    3.600   10.400    0.400 
#
# Total GULP energy -167198.948114 kJ/mol
# GULP energy per Si atom -5573.298270 kJ/mol
# Density = 2.184821 g / cm^3
# Si number density = 21.898049 Si / 1000 Ang^3
#
#
#
# Elastic Constant Matrix: (Units=GPa)
#
#
# Indices 1 2 3 4 5 6 
#
# 1 63.9811 40.6205 36.0761 0.0000 0.0000 0.0000
# 2 40.6205 63.9811 36.0761 0.0000 0.0000 0.0000
# 3 36.0761 36.0761 158.5476 0.0000 0.0000 0.0000
# 4 0.0000 0.0000 0.0000 18.4310 0.0000 0.0000
# 5 0.0000 0.0000 0.0000 0.0000 18.4310 0.0000
# 6 0.0000 0.0000 0.0000 0.0000 0.0000 11.6803
#
#
#
# Elastic Compliance Matrix: (Units=1/GPa)
#
#
# Indices 1 2 3 4 5 6 
#
# 1 0.027073 -0.015734 -0.002580 0.000000 0.000000 0.000000
# 2 -0.015734 0.027073 -0.002580 0.000000 0.000000 0.000000
# 3 -0.002580 -0.002580 0.007482 0.000000 0.000000 0.000000
# 4 0.000000 0.000000 0.000000 0.054256 0.000000 0.000000
# 5 0.000000 0.000000 0.000000 0.000000 0.054256 0.000000
# 6 0.000000 0.000000 0.000000 0.000000 0.000000 0.085614
#
#
# Mechanical properties :
#
#
# Convention : Reuss Voigt Hill
#
# Bulk Modulus (GPa) = 50.40285 56.89505 53.64895
# Shear Modulus (GPa) = 16.43888 21.29094 18.86491
#
# Velocity S-wave (km/s) = 2.74286 3.12152 2.93830
# Velocity P-wave (km/s) = 5.75309 6.24740 6.00534
#
# Compressibility (1/GPa) = 0.01984015
#
# Stress axis : x y z
#
# Youngs Moduli (GPa) = 36.93651 36.93651 133.66298
#
# Poissons Ratio (x) = 0.58114 0.34489
# Poissons Ratio (y) = 0.58114 0.34489
# Poissons Ratio (z) = 0.09531 0.09531
#
# Static dielectric constant tensor:
#      x y z
#    x 1.893750 0.000000 0.000000 
#    y 0.000000 1.893750 0.000000 
#    z 0.000000 0.000000 1.884930 
# 
# From -- ./inp_files/382.got.cif
#   From: 2010.05.17/outbox.cif.g08.bks.cpg/sg178_1_cif.got.tgz:382.got - 2010.05.20 11:30:59.
