data_PCOD9582523
_publ_section_title
;
Structure prediction by ZEFSAII (Michael W. Deem and Ramdas Pophale) SiO2 
 PCOD9582523
Probable space group: P 61 2 2
;
_chemical_formula_sum "Si O2"
_cell_formula_units_Z 78
_cell_length_a 18.899923
_cell_length_b 18.899923
_cell_length_c 13.414875
_cell_angle_alpha 90.000000
_cell_angle_beta 90.000000
_cell_angle_gamma 120.000000
_cell_volume 4149.897133
_symmetry_space_group_name_H-M "P 61 2 2"
_symmetry_group_IT_number 178
_symmetry_cell_setting 'hexagonal'
loop_
_space_group_symop_operation_xyz
x,y,z
x-y,x,1/6+z
-y,x-y,1/3+z
-x,-y,1/2+z
-x+y,-x,2/3+z
y,-x+y,5/6+z
x-y,-y,-z
-x,-x+y,2/3-z
y,x,1/3-z
-y,-x,5/6-z
-x+y,y,1/2-z
x,x-y,1/6-z
loop_
_atom_site_type_symbol
_atom_site_label
_atom_site_fract_x
_atom_site_fract_y
_atom_site_fract_z
Si Si1 0.724043 0.197559 0.783175
Si Si2 0.798323 0.596646 0.750000
Si Si3 0.344882 0.000000 0.500000
Si Si4 0.286132 0.989178 0.894443
Si Si5 0.869035 0.337877 0.261265
Si Si6 0.859173 0.929587 0.083334
Si Si7 0.148580 0.515180 0.825898
Si Si8 0.221906 0.931366 0.313775
O O1 0.672657 0.164267 0.683466
O O2 0.666241 0.165734 0.878995
O O3 0.773623 0.295647 0.783621
O O4 0.783327 0.157295 0.796987
O O5 0.755451 0.647805 0.785017
O O6 0.742392 0.548858 0.656524
O O7 0.359801 0.927165 0.531976
O O8 0.285852 0.972760 0.404567
O O9 0.384303 0.044996 0.914150
O O10 0.274448 0.025656 0.793100
O O11 0.250460 0.000000 0.000000
O O12 0.871607 0.412596 0.320213
O O13 0.909515 0.909515 0.166667
O O14 0.793737 0.939620 0.150693
#
# Coordination Sequence:
#
# PCOD9582523 Si02
#       8
#    12   6   6  12  12   6  12  12
#     4   9  20  38  60  87 117 160 207 262 316 380
#     4  10  22  38  59  88 118 162 216 248 319 370
#     4  10  20  32  64  98 118 150 214 272 320 368
#     4   9  21  39  65  89 122 169 213 262 321 378
#     4  10  21  39  60  81 128 165 204 266 315 383
#     4  12  26  42  65  98 138 174 202 262 339 402
#     4  10  20  35  59  88 121 159 208 255 324 378
#     4  10  20  40  67  96 120 158 214 275 319 371
#
# _framework density 18.795646999999999
#
# number of rings (size 3 to 8) (size 9 to 14) (size 15 to 20)
#    0.000    2.154    0.769    2.308    5.385    2.462 
#    5.538    1.538    0.000    0.000    0.000    0.000 
#    0.000    0.000    0.000    0.000    0.000    0.000 
#
# Total GULP energy -434205.012847 kJ/mol
# GULP energy per Si atom -5566.730934 kJ/mol
# Density = 1.875287 g / cm^3
# Si number density = 18.795647 Si / 1000 Ang^3
#
#
#
# Elastic Constant Matrix: (Units=GPa)
#
#
# Indices 1 2 3 4 5 6 
#
# 1 91.8634 43.5469 28.3430 0.0000 0.0000 0.0000
# 2 43.5469 91.8634 28.3430 0.0000 0.0000 0.0000
# 3 28.3430 28.3430 93.8780 0.0000 0.0000 0.0000
# 4 0.0000 0.0000 0.0000 23.9817 0.0000 0.0000
# 5 0.0000 0.0000 0.0000 0.0000 23.9817 0.0000
# 6 0.0000 0.0000 0.0000 0.0000 0.0000 24.1582
#
#
#
# Elastic Compliance Matrix: (Units=1/GPa)
#
#
# Indices 1 2 3 4 5 6 
#
# 1 0.014575 -0.006122 -0.002552 0.000000 0.000000 0.000000
# 2 -0.006122 0.014575 -0.002552 0.000000 0.000000 0.000000
# 3 -0.002552 -0.002552 0.012193 0.000000 0.000000 0.000000
# 4 0.000000 0.000000 0.000000 0.041699 0.000000 0.000000
# 5 0.000000 0.000000 0.000000 0.000000 0.041699 0.000000
# 6 0.000000 0.000000 0.000000 0.000000 0.000000 0.041394
#
#
# Mechanical properties :
#
#
# Convention : Reuss Voigt Hill
#
# Bulk Modulus (GPa) = 52.93472 53.11898 53.02685
# Shear Modulus (GPa) = 25.65635 26.24910 25.95272
#
# Velocity S-wave (km/s) = 3.69862 3.74110 3.71992
# Velocity P-wave (km/s) = 6.81646 6.85447 6.83549
#
# Compressibility (1/GPa) = 0.01889119
#
# Stress axis : x y z
#
# Youngs Moduli (GPa) = 68.61004 68.61004 82.01294
#
# Poissons Ratio (x) = 0.42001 0.20931
# Poissons Ratio (y) = 0.42001 0.20931
# Poissons Ratio (z) = 0.17511 0.17511
#
# Static dielectric constant tensor:
#      x y z
#    x 1.685730 0.000000 0.000000 
#    y 0.000000 1.685730 0.000000 
#    z 0.000000 0.000000 1.639570 
# 
# From -- ./inp_files/6006.got.cif
#   From: 2010.05.17/outbox.cif.g08.bks.cpg/sg178_4_cif.got.tgz:6006.got - 2010.05.20 11:30:59.
