data_PCOD9582959
_publ_section_title
;
Structure prediction by ZEFSAII (Michael W. Deem and Ramdas Pophale) SiO2 
 PCOD9582959
Probable space group: P 61 2 2
;
_chemical_formula_sum "Si O2"
_cell_formula_units_Z 48
_cell_length_a 11.948732
_cell_length_b 11.948732
_cell_length_c 18.882982
_cell_angle_alpha 90.000000
_cell_angle_beta 90.000000
_cell_angle_gamma 120.000000
_cell_volume 2334.774017
_symmetry_space_group_name_H-M "P 61 2 2"
_symmetry_group_IT_number 178
_symmetry_cell_setting 'hexagonal'
loop_
_space_group_symop_operation_xyz
x,y,z
x-y,x,1/6+z
-y,x-y,1/3+z
-x,-y,1/2+z
-x+y,-x,2/3+z
y,-x+y,5/6+z
x-y,-y,-z
-x,-x+y,2/3-z
y,x,1/3-z
-y,-x,5/6-z
-x+y,y,1/2-z
x,x-y,1/6-z
loop_
_atom_site_type_symbol
_atom_site_label
_atom_site_fract_x
_atom_site_fract_y
_atom_site_fract_z
Si Si1 0.101636 0.719721 0.110239
Si Si2 0.435790 0.611230 0.263680
Si Si3 0.160614 0.722280 0.492134
Si Si4 0.577028 0.949458 0.364371
O O1 0.157290 0.642257 0.155298
O O2 0.227747 0.860241 0.107905
O O3 0.975861 0.688566 0.157379
O O4 0.035883 0.372865 0.131776
O O5 0.298189 0.596378 0.250000
O O6 0.536052 0.732389 0.217394
O O7 0.428010 0.476446 0.246977
O O8 0.217130 0.782870 0.416667
O O9 0.132991 0.573789 0.493864
#
# Coordination Sequence:
#
# PCOD9582959 Si02
#       4
#    12  12  12  12
#     4  11  22  45  64 101 148 196 233 309 382 438
#     4  11  21  39  66 105 141 181 243 296 383 437
#     4  11  23  39  67 106 147 187 240 307 380 450
#     4  11  25  42  72 101 152 189 244 312 379 450
#
# _framework density 20.558734000000001
#
# number of rings (size 3 to 8) (size 9 to 14) (size 15 to 20)
#    0.000    1.000    5.000    3.000    3.500    4.000 
#    0.000    0.000    0.000    4.500    0.000    0.000 
#    0.000    0.000    0.000    0.000    0.000    0.000 
#
# Total GULP energy -267845.557945 kJ/mol
# GULP energy per Si atom -5580.115791 kJ/mol
# Density = 2.051194 g / cm^3
# Si number density = 20.558734 Si / 1000 Ang^3
#
#
#
# Elastic Constant Matrix: (Units=GPa)
#
#
# Indices 1 2 3 4 5 6 
#
# 1 147.9058 51.8104 37.7410 0.0000 0.0000 0.0000
# 2 51.8104 147.9058 37.7410 0.0000 0.0000 0.0000
# 3 37.7410 37.7410 57.4868 0.0000 0.0000 0.0000
# 4 0.0000 0.0000 0.0000 35.6619 0.0000 0.0000
# 5 0.0000 0.0000 0.0000 0.0000 35.6619 0.0000
# 6 0.0000 0.0000 0.0000 0.0000 0.0000 48.0477
#
#
#
# Elastic Compliance Matrix: (Units=1/GPa)
#
#
# Indices 1 2 3 4 5 6 
#
# 1 0.008533 -0.001873 -0.004372 0.000000 0.000000 0.000000
# 2 -0.001873 0.008533 -0.004372 0.000000 0.000000 0.000000
# 3 -0.004372 -0.004372 0.023136 0.000000 0.000000 0.000000
# 4 0.000000 0.000000 0.000000 0.028041 0.000000 0.000000
# 5 0.000000 0.000000 0.000000 0.000000 0.028041 0.000000
# 6 0.000000 0.000000 0.000000 0.000000 0.000000 0.020813
#
#
# Mechanical properties :
#
#
# Convention : Reuss Voigt Hill
#
# Bulk Modulus (GPa) = 52.72396 67.54255 60.13325
# Shear Modulus (GPa) = 34.56521 38.94136 36.75328
#
# Velocity S-wave (km/s) = 4.10480 4.35691 4.23273
# Velocity P-wave (km/s) = 6.94025 7.63118 7.29390
#
# Compressibility (1/GPa) = 0.01896671
#
# Stress axis : x y z
#
# Youngs Moduli (GPa) = 117.19316 117.19316 43.22273
#
# Poissons Ratio (x) = 0.21955 0.18897
# Poissons Ratio (y) = 0.21955 0.18897
# Poissons Ratio (z) = 0.51238 0.51238
#
# Static dielectric constant tensor:
#      x y z
#    x 1.780500 0.000000 0.000000 
#    y 0.000000 1.780500 0.000000 
#    z 0.000000 0.000000 1.814170 
# 
# From -- ./inp_files/7293.got.cif
#   From: 2010.05.17/outbox.cif.g08.bks.cpg/sg178_4_cif.got.tgz:7293.got - 2010.05.20 11:30:59.
