data_PCOD9582042
_publ_section_title
;
Structure prediction by ZEFSAII (Michael W. Deem and Ramdas Pophale) SiO2 
 PCOD9582042
Probable space group: P 63/M
;
_chemical_formula_sum "Si O2"
_cell_formula_units_Z 78
_cell_length_a 25.305081
_cell_length_b 25.305081
_cell_length_c 7.647500
_cell_angle_alpha 90.000000
_cell_angle_beta 90.000000
_cell_angle_gamma 120.000000
_cell_volume 4240.973717
_symmetry_space_group_name_H-M "P 63/M"
_symmetry_group_IT_number 176
_symmetry_cell_setting 'hexagonal'
loop_
_space_group_symop_operation_xyz
x,y,z
x-y,x,1/2+z
-y,x-y,z
-x,-y,1/2+z
-x+y,-x,z
y,-x+y,1/2+z
-x,-y,-z
-x+y,-x,1/2-z
y,-x+y,-z
x,y,1/2-z
x-y,x,-z
-y,x-y,1/2-z
loop_
_atom_site_type_symbol
_atom_site_label
_atom_site_fract_x
_atom_site_fract_y
_atom_site_fract_z
Si Si1 0.358605 0.116698 0.037095
Si Si2 0.874880 0.634623 0.048513
Si Si3 0.122310 0.997983 0.545046
Si Si4 0.095552 0.545693 0.750000
Si Si5 0.552689 0.623697 0.051032
Si Si6 0.006091 0.246288 0.049558
Si Si7 0.621509 0.551516 0.952879
O O1 0.358276 0.116914 0.250000
O O2 0.362822 0.179397 0.978080
O O3 0.295848 0.057093 0.979424
O O4 0.414076 0.108325 0.973672
O O5 0.862128 0.614606 0.250000
O O6 0.892196 0.588946 0.955368
O O7 0.933950 0.701933 0.043314
O O8 0.133133 0.997898 0.750000
O O9 0.120051 0.058501 0.499435
O O10 0.178536 0.996777 0.454678
O O11 0.094650 0.499426 0.594863
O O12 0.090674 0.588999 0.594703
O O13 0.531178 0.602772 0.250000
O O14 0.599113 0.599635 0.999794
O O15 0.011965 0.267395 0.250000
O O16 0.604344 0.532596 0.750000
#
# Coordination Sequence:
#
# PCOD9582042 Si02
#       7
#    12  12  12   6  12  12  12
#     4  10  22  40  60  86 128 173 211 263 317 374
#     4  11  22  39  61  89 129 175 212 264 318 376
#     4  12  25  42  61  82 109 144 197 267 332 394
#     4  12  24  40  60  92 126 174 196 258 300 384
#     4  12  23  38  60  91 129 167 209 253 307 376
#     4  11  22  38  60  89 119 160 213 258 313 389
#     4  12  23  37  61  91 127 166 210 253 307 374
#
# _framework density 18.392002999999999
#
# number of rings (size 3 to 8) (size 9 to 14) (size 15 to 20)
#    0.000    0.615    4.615    4.308    0.000    3.077 
#    0.000    0.000    0.000    0.000    0.000    0.000 
#    6.154    0.000    1.846    0.000    0.000    0.000 
#
# Total GULP energy -434417.429690 kJ/mol
# GULP energy per Si atom -5569.454227 kJ/mol
# Density = 1.835014 g / cm^3
# Si number density = 18.392003 Si / 1000 Ang^3
#
#
#
# Elastic Constant Matrix: (Units=GPa)
#
#
# Indices 1 2 3 4 5 6 
#
# 1 102.2412 86.3126 29.9439 0.0000 0.0000 0.0000
# 2 86.3126 102.2412 29.9439 0.0000 0.0000 0.0000
# 3 29.9439 29.9439 136.9772 0.0000 0.0000 0.0000
# 4 0.0000 0.0000 0.0000 21.3181 0.0000 0.0000
# 5 0.0000 0.0000 0.0000 0.0000 21.3181 0.0000
# 6 0.0000 0.0000 0.0000 0.0000 0.0000 7.9643
#
#
#
# Elastic Compliance Matrix: (Units=1/GPa)
#
#
# Indices 1 2 3 4 5 6 
#
# 1 0.034240 -0.028540 -0.001246 0.000000 0.000000 0.000000
# 2 -0.028540 0.034240 -0.001246 0.000000 0.000000 0.000000
# 3 -0.001246 -0.001246 0.007845 0.000000 0.000000 0.000000
# 4 0.000000 0.000000 0.000000 0.046909 0.000000 0.000000
# 5 0.000000 0.000000 0.000000 0.000000 0.046909 0.000000
# 6 0.000000 0.000000 0.000000 0.000000 0.000000 0.125560
#
#
# Mechanical properties :
#
#
# Convention : Reuss Voigt Hill
#
# Bulk Modulus (GPa) = 70.12550 70.42893 70.27721
# Shear Modulus (GPa) = 13.79240 23.13739 18.46489
#
# Velocity S-wave (km/s) = 2.74142 3.55070 3.17198
# Velocity P-wave (km/s) = 6.94490 7.42875 7.19089
#
# Compressibility (1/GPa) = 0.01426015
#
# Stress axis : x y z
#
# Youngs Moduli (GPa) = 29.20600 29.20600 127.46654
#
# Poissons Ratio (x) = 0.83355 0.15881
# Poissons Ratio (y) = 0.83355 0.15881
# Poissons Ratio (z) = 0.03639 0.03639
#
# Static dielectric constant tensor:
#      x y z
#    x 1.605110 0.000000 0.000000 
#    y 0.000000 1.605110 0.000000 
#    z 0.000000 0.000000 1.698970 
# 
# From -- ./inp_files/1314.got.cif
#   From: 2010.05.17/outbox.cif.g08.bks.cpg/sg176_1_cif.got.tgz:1314.got - 2010.06.03 11:36:45.
