data_PCOD9582656
_publ_section_title
;
Structure prediction by ZEFSAII (Michael W. Deem and Ramdas Pophale) SiO2 
 PCOD9582656
Probable space group: P 61 2 2
;
_chemical_formula_sum "Si O2"
_cell_formula_units_Z 60
_cell_length_a 20.681455
_cell_length_b 20.681455
_cell_length_c 7.795362
_cell_angle_alpha 90.000000
_cell_angle_beta 90.000000
_cell_angle_gamma 120.000000
_cell_volume 2887.547241
_symmetry_space_group_name_H-M "P 61 2 2"
_symmetry_group_IT_number 178
_symmetry_cell_setting 'hexagonal'
loop_
_space_group_symop_operation_xyz
x,y,z
x-y,x,1/6+z
-y,x-y,1/3+z
-x,-y,1/2+z
-x+y,-x,2/3+z
y,-x+y,5/6+z
x-y,-y,-z
-x,-x+y,2/3-z
y,x,1/3-z
-y,-x,5/6-z
-x+y,y,1/2-z
x,x-y,1/6-z
loop_
_atom_site_type_symbol
_atom_site_label
_atom_site_fract_x
_atom_site_fract_y
_atom_site_fract_z
Si Si1 0.226784 0.000000 0.500000
Si Si2 0.374069 0.141135 0.422302
Si Si3 0.387330 0.472950 0.714586
Si Si4 0.133062 0.149992 0.984038
Si Si5 0.625944 0.088463 0.543284
Si Si6 0.211002 0.422003 0.250000
O O1 0.241617 0.939102 0.583251
O O2 0.206030 0.037097 0.658548
O O3 0.370336 0.185168 0.583334
O O4 0.448421 0.135635 0.441964
O O5 0.373551 0.180778 0.251364
O O6 0.417196 0.417196 0.666667
O O7 0.456125 0.554306 0.672839
O O8 0.366424 0.462492 0.916229
O O9 0.130412 0.078196 0.891161
O O10 0.177010 0.177010 0.166667
O O11 0.698863 0.156605 0.451124
O O12 0.598644 0.000000 0.500000
#
# Coordination Sequence:
#
# PCOD9582656 Si02
#       6
#     6  12  12  12  12   6
#     4  12  26  42  62  90 134 174 222 282 350 412
#     4  12  25  42  66  97 135 180 226 281 347 412
#     4  10  20  43  71 101 138 184 236 287 338 418
#     4  10  22  44  65  90 121 167 224 284 352 427
#     4  10  22  41  73 106 139 184 237 288 348 413
#     4  12  26  42  70 106 142 184 230 290 344 412
#
# _framework density 20.778881999999999
#
# number of rings (size 3 to 8) (size 9 to 14) (size 15 to 20)
#    0.000    1.200    3.000    3.000    0.000    5.600 
#   12.600    0.000    4.400    0.000    0.000    0.000 
#    0.000    0.000    0.000    0.000    0.000    0.000 
#
# Total GULP energy -334324.037767 kJ/mol
# GULP energy per Si atom -5572.067296 kJ/mol
# Density = 2.073159 g / cm^3
# Si number density = 20.778882 Si / 1000 Ang^3
#
#
#
# Elastic Constant Matrix: (Units=GPa)
#
#
# Indices 1 2 3 4 5 6 
#
# 1 77.1762 44.8901 36.8734 0.0000 0.0000 0.0000
# 2 44.8901 77.1762 36.8734 0.0000 0.0000 0.0000
# 3 36.8734 36.8734 144.9430 0.0000 0.0000 0.0000
# 4 0.0000 0.0000 0.0000 33.4826 0.0000 0.0000
# 5 0.0000 0.0000 0.0000 0.0000 33.4826 0.0000
# 6 0.0000 0.0000 0.0000 0.0000 0.0000 16.1430
#
#
#
# Elastic Compliance Matrix: (Units=1/GPa)
#
#
# Indices 1 2 3 4 5 6 
#
# 1 0.020327 -0.010647 -0.002463 0.000000 0.000000 0.000000
# 2 -0.010647 0.020327 -0.002463 0.000000 0.000000 0.000000
# 3 -0.002463 -0.002463 0.008152 0.000000 0.000000 0.000000
# 4 0.000000 0.000000 0.000000 0.029866 0.000000 0.000000
# 5 0.000000 0.000000 0.000000 0.000000 0.029866 0.000000
# 6 0.000000 0.000000 0.000000 0.000000 0.000000 0.061946
#
#
# Mechanical properties :
#
#
# Convention : Reuss Voigt Hill
#
# Bulk Modulus (GPa) = 56.61891 59.61882 58.11887
# Shear Modulus (GPa) = 24.09465 28.66554 26.38009
#
# Velocity S-wave (km/s) = 3.40895 3.71826 3.56696
# Velocity P-wave (km/s) = 6.54232 6.86937 6.70784
#
# Compressibility (1/GPa) = 0.01766194
#
# Stress axis : x y z
#
# Youngs Moduli (GPa) = 49.19663 49.19663 122.66577
#
# Poissons Ratio (x) = 0.52377 0.30208
# Poissons Ratio (y) = 0.52377 0.30208
# Poissons Ratio (z) = 0.12115 0.12115
#
# Static dielectric constant tensor:
#      x y z
#    x 1.775610 0.000000 0.000000 
#    y 0.000000 1.775610 0.000000 
#    z 0.000000 0.000000 1.761660 
# 
# From -- ./inp_files/3180.got.cif
#   From: 2010.05.17/outbox.cif.g08.bks.cpg/sg178_2_cif.got.tgz:3180.got - 2010.05.20 11:30:59.
