data_PCOD9582183
_publ_section_title
;
Structure prediction by ZEFSAII (Michael W. Deem and Ramdas Pophale) SiO2 
 PCOD9582183
Probable space group: P 6 2 2
;
_chemical_formula_sum "Si O2"
_cell_formula_units_Z 96
_cell_length_a 14.287615
_cell_length_b 14.287615
_cell_length_c 26.879497
_cell_angle_alpha 90.000000
_cell_angle_beta 90.000000
_cell_angle_gamma 120.000000
_cell_volume 4751.943269
_symmetry_space_group_name_H-M "P 6 2 2"
_symmetry_group_IT_number 177
_symmetry_cell_setting 'hexagonal'
loop_
_space_group_symop_operation_xyz
x,y,z
x-y,x,z
-y,x-y,z
-x,-y,z
-x+y,-x,z
y,-x+y,z
x-y,-y,-z
-x,-x+y,-z
y,x,-z
-y,-x,-z
-x+y,y,-z
x,x-y,-z
loop_
_atom_site_type_symbol
_atom_site_label
_atom_site_fract_x
_atom_site_fract_y
_atom_site_fract_z
Si Si1 0.229913 0.013639 0.447219
Si Si2 0.800594 0.755374 0.338256
Si Si3 0.831184 0.577838 0.742461
Si Si4 0.595336 0.123046 0.116295
Si Si5 0.122631 0.597582 0.767068
Si Si6 0.757042 0.931769 0.182423
Si Si7 0.179093 0.937872 0.937178
Si Si8 0.525986 0.784649 0.054276
O O1 0.210044 0.114752 0.447328
O O2 0.284845 0.032165 0.393336
O O3 0.277068 0.000000 0.500000
O O4 0.790224 0.862599 0.332404
O O5 0.746187 0.656186 0.299962
O O6 0.814410 0.458678 0.744126
O O7 0.710137 0.559124 0.741697
O O8 0.890199 0.640862 0.793255
O O9 0.621567 0.148926 0.174278
O O10 0.550967 0.193415 0.089326
O O11 0.702282 0.151629 0.085119
O O12 0.500000 0.000000 0.112593
O O13 0.000000 0.500000 0.763023
O O14 0.794061 0.846317 0.198274
O O15 0.751913 0.935212 0.123128
O O16 0.257168 0.894884 0.955056
O O17 0.056967 0.849932 0.951391
O O18 0.480579 0.740290 0.000000
#
# Coordination Sequence:
#
# PCOD9582183 Si02
#       8
#    12  12  12  12  12  12  12  12
#     4   8  13  22  39  67 108 154 191 217 244 291
#     4  10  19  31  50  80 120 158 186 218 265 324
#     4  12  23  36  53  76 106 141 185 232 279 326
#     4  11  24  42  62  81 102 131 169 216 273 333
#     4  11  23  39  58  77 100 136 182 228 272 327
#     4  10  19  33  54  80 109 140 175 215 261 326
#     4  10  21  37  57  81 110 144 178 209 248 308
#     4  12  25  40  60  84 107 130 163 214 278 341
#
# _framework density 20.202259999999999
#
# number of rings (size 3 to 8) (size 9 to 14) (size 15 to 20)
#    0.000    1.500    0.000    6.625    0.000    9.000 
#    0.000    1.250    0.000    0.750    0.000    0.000 
#    0.000   34.500    0.000    0.000    0.000    0.000 
#
# Total GULP energy -536179.301235 kJ/mol
# GULP energy per Si atom -5585.201055 kJ/mol
# Density = 2.015628 g / cm^3
# Si number density = 20.202260 Si / 1000 Ang^3
#
#
#
# Elastic Constant Matrix: (Units=GPa)
#
#
# Indices 1 2 3 4 5 6 
#
# 1 74.3251 10.8268 28.6193 0.0000 0.0000 0.0000
# 2 10.8268 74.3251 28.6193 0.0000 0.0000 0.0000
# 3 28.6193 28.6193 111.8471 0.0000 0.0000 0.0000
# 4 0.0000 0.0000 0.0000 13.3115 0.0000 0.0000
# 5 0.0000 0.0000 0.0000 0.0000 13.3115 0.0000
# 6 0.0000 0.0000 0.0000 0.0000 0.0000 31.7492
#
#
#
# Elastic Compliance Matrix: (Units=1/GPa)
#
#
# Indices 1 2 3 4 5 6 
#
# 1 0.014966 -0.000783 -0.003629 0.000000 0.000000 0.000000
# 2 -0.000783 0.014966 -0.003629 0.000000 0.000000 0.000000
# 3 -0.003629 -0.003629 0.010798 0.000000 0.000000 0.000000
# 4 0.000000 0.000000 0.000000 0.075123 0.000000 0.000000
# 5 0.000000 0.000000 0.000000 0.000000 0.075123 0.000000
# 6 0.000000 0.000000 0.000000 0.000000 0.000000 0.031497
#
#
# Mechanical properties :
#
#
# Convention : Reuss Voigt Hill
#
# Bulk Modulus (GPa) = 40.57166 44.06981 42.32073
# Shear Modulus (GPa) = 20.26171 24.50321 22.38246
#
# Velocity S-wave (km/s) = 3.17036 3.48644 3.33215
# Velocity P-wave (km/s) = 5.79033 6.16998 5.98317
#
# Compressibility (1/GPa) = 0.02464775
#
# Stress axis : x y z
#
# Youngs Moduli (GPa) = 66.81883 66.81883 92.60931
#
# Poissons Ratio (x) = 0.05229 0.33610
# Poissons Ratio (y) = 0.05229 0.33610
# Poissons Ratio (z) = 0.24250 0.24250
#
# Static dielectric constant tensor:
#      x y z
#    x 1.749910 0.000000 0.000000 
#    y 0.000000 1.749910 0.000000 
#    z 0.000000 0.000000 1.777720 
# 
# From -- ./inp_files/3267.got.cif
#   From: 2010.05.17/outbox.cif.g08.bks.cpg/sg177_2_cif.got.tgz:3267.got - 2010.05.20 11:28:44.
