data_PCOD9582002
_publ_section_title
;
Structure prediction by ZEFSAII (Michael W. Deem and Ramdas Pophale) SiO2 
 PCOD9582002
Probable space group: P 63/M
;
_chemical_formula_sum "Si O2"
_cell_formula_units_Z 48
_cell_length_a 17.656197
_cell_length_b 17.656197
_cell_length_c 8.528022
_cell_angle_alpha 90.000000
_cell_angle_beta 90.000000
_cell_angle_gamma 120.000000
_cell_volume 2302.360233
_symmetry_space_group_name_H-M "P 63/M"
_symmetry_group_IT_number 176
_symmetry_cell_setting 'hexagonal'
loop_
_space_group_symop_operation_xyz
x,y,z
x-y,x,1/2+z
-y,x-y,z
-x,-y,1/2+z
-x+y,-x,z
y,-x+y,1/2+z
-x,-y,-z
-x+y,-x,1/2-z
y,-x+y,-z
x,y,1/2-z
x-y,x,-z
-y,x-y,1/2-z
loop_
_atom_site_type_symbol
_atom_site_label
_atom_site_fract_x
_atom_site_fract_y
_atom_site_fract_z
Si Si1 0.492222 0.120190 0.432050
Si Si2 0.561517 0.631021 0.564732
Si Si3 0.944386 0.135023 0.435921
Si Si4 0.181739 0.807020 0.433324
O O1 0.488636 0.140960 0.250000
O O2 0.585715 0.128473 0.464809
O O3 0.459784 0.173123 0.536104
O O4 0.423218 0.018308 0.465388
O O5 0.572851 0.620021 0.750000
O O6 0.611316 0.731574 0.518447
O O7 0.958944 0.144729 0.250000
O O8 0.901992 0.192081 0.494866
O O9 0.035133 0.161297 0.520880
O O10 0.186440 0.826223 0.250000
#
# Coordination Sequence:
#
# PCOD9582002 Si02
#       4
#    12  12  12  12
#     4  10  21  39  62  87 117 154 195 242 297 355
#     4  10  21  39  62  87 117 154 195 242 297 355
#     4  12  25  43  64  90 125 164 208 253 305 360
#     4  12  24  39  61  90 122 158 202 249 298 356
#
# _framework density 20.848171000000001
#
# number of rings (size 3 to 8) (size 9 to 14) (size 15 to 20)
#    0.000    1.000    0.000    7.750    0.000    3.000 
#    1.500    0.000    0.000    0.000    0.000    0.000 
#    0.000    0.000    0.000    0.000    0.000    0.000 
#
# Total GULP energy -268614.080505 kJ/mol
# GULP energy per Si atom -5596.126677 kJ/mol
# Density = 2.080072 g / cm^3
# Si number density = 20.848171 Si / 1000 Ang^3
#
#
#
# Elastic Constant Matrix: (Units=GPa)
#
#
# Indices 1 2 3 4 5 6 
#
# 1 47.6064 -3.3246 2.3638 0.0000 0.0000 0.0000
# 2 -3.3246 47.6064 2.3638 0.0000 0.0000 0.0000
# 3 2.3638 2.3638 63.8005 0.0000 0.0000 0.0000
# 4 0.0000 0.0000 0.0000 29.6260 0.0000 0.0000
# 5 0.0000 0.0000 0.0000 0.0000 29.6260 0.0000
# 6 0.0000 0.0000 0.0000 0.0000 0.0000 25.4655
#
#
#
# Elastic Compliance Matrix: (Units=1/GPa)
#
#
# Indices 1 2 3 4 5 6 
#
# 1 0.021153 0.001519 -0.000840 0.000000 0.000000 0.000000
# 2 0.001519 0.021153 -0.000840 0.000000 0.000000 0.000000
# 3 -0.000840 -0.000840 0.015736 0.000000 0.000000 0.000000
# 4 0.000000 0.000000 0.000000 0.033754 0.000000 0.000000
# 5 0.000000 0.000000 0.000000 0.000000 0.033754 0.000000
# 6 0.000000 0.000000 0.000000 0.000000 0.000000 0.039269
#
#
# Mechanical properties :
#
#
# Convention : Reuss Voigt Hill
#
# Bulk Modulus (GPa) = 17.32482 17.97994 17.65238
# Shear Modulus (GPa) = 27.11757 27.45085 27.28421
#
# Velocity S-wave (km/s) = 3.61046 3.63258 3.62153
# Velocity P-wave (km/s) = 5.07036 5.12222 5.09636
#
# Compressibility (1/GPa) = 0.05772066
#
# Stress axis : x y z
#
# Youngs Moduli (GPa) = 47.27384 47.27384 63.54813
#
# Poissons Ratio (x) = -0.07181 0.05338
# Poissons Ratio (y) = -0.07181 0.05338
# Poissons Ratio (z) = 0.03971 0.03971
#
# Static dielectric constant tensor:
#      x y z
#    x 1.737800 0.000000 0.000000 
#    y 0.000000 1.737800 0.000000 
#    z 0.000000 0.000000 1.687140 
# 
# From -- ./inp_files/565.got.cif
#   From: 2010.05.17/outbox.cif.g08.bks.cpg/sg176_1_cif.got.tgz:565.got - 2010.06.03 11:36:45.
