data_PCOD9582362
_publ_section_title
;
Structure prediction by ZEFSAII (Michael W. Deem and Ramdas Pophale) SiO2 
 PCOD9582362
Probable space group: P 61 2 2
;
_chemical_formula_sum "Si O2"
_cell_formula_units_Z 60
_cell_length_a 16.284781
_cell_length_b 16.284781
_cell_length_c 14.568555
_cell_angle_alpha 90.000000
_cell_angle_beta 90.000000
_cell_angle_gamma 120.000000
_cell_volume 3345.884573
_symmetry_space_group_name_H-M "P 61 2 2"
_symmetry_group_IT_number 178
_symmetry_cell_setting 'hexagonal'
loop_
_space_group_symop_operation_xyz
x,y,z
x-y,x,1/6+z
-y,x-y,1/3+z
-x,-y,1/2+z
-x+y,-x,2/3+z
y,-x+y,5/6+z
x-y,-y,-z
-x,-x+y,2/3-z
y,x,1/3-z
-y,-x,5/6-z
-x+y,y,1/2-z
x,x-y,1/6-z
loop_
_atom_site_type_symbol
_atom_site_label
_atom_site_fract_x
_atom_site_fract_y
_atom_site_fract_z
Si Si1 0.675610 0.581174 0.607638
Si Si2 0.379236 0.421138 0.907801
Si Si3 0.581736 0.348466 0.776003
Si Si4 0.827339 0.533703 0.619481
Si Si5 0.380125 0.898504 0.453943
O O1 0.646220 0.646220 0.666667
O O2 0.683815 0.600806 0.498496
O O3 0.770691 0.586654 0.645446
O O4 0.584126 0.475504 0.610614
O O5 0.480531 0.519470 0.916667
O O6 0.407078 0.338864 0.910883
O O7 0.340068 0.436949 0.812125
O O8 0.662961 0.325922 0.750000
O O9 0.533234 0.297573 0.869610
O O10 0.635569 0.461284 0.803291
O O11 0.507291 0.323557 0.694481
O O12 0.413659 0.000000 0.500000
#
# Coordination Sequence:
#
# PCOD9582362 Si02
#       5
#    12  12  12  12  12
#     4  10  21  32  50  70  95 128 176 226 272 328
#     4  10  19  32  51  70  94 136 175 217 273 332
#     4  11  20  31  49  71  98 132 175 234 277 307
#     4  11  20  34  48  73  99 131 185 228 267 324
#     4  10  17  32  50  65  92 135 171 215 276 323
#
# _framework density 17.932478
#
# number of rings (size 3 to 8) (size 9 to 14) (size 15 to 20)
#    0.000    1.600    6.000    2.400    0.000    2.400 
#    0.000    0.000    0.000    0.000    0.000    0.000 
#    0.000    0.000    0.000    0.000   38.000    0.000 
#
# Total GULP energy -334739.386330 kJ/mol
# GULP energy per Si atom -5578.989772 kJ/mol
# Density = 1.789166 g / cm^3
# Si number density = 17.932478 Si / 1000 Ang^3
#
#
#
# Elastic Constant Matrix: (Units=GPa)
#
#
# Indices 1 2 3 4 5 6 
#
# 1 50.8576 20.5155 27.8253 0.0000 0.0000 0.0000
# 2 20.5155 50.8576 27.8253 0.0000 0.0000 0.0000
# 3 27.8253 27.8253 143.9092 0.0000 0.0000 0.0000
# 4 0.0000 0.0000 0.0000 18.5479 0.0000 0.0000
# 5 0.0000 0.0000 0.0000 0.0000 18.5479 0.0000
# 6 0.0000 0.0000 0.0000 0.0000 0.0000 15.1710
#
#
#
# Elastic Compliance Matrix: (Units=1/GPa)
#
#
# Indices 1 2 3 4 5 6 
#
# 1 0.024728 -0.008230 -0.003190 0.000000 0.000000 0.000000
# 2 -0.008230 0.024728 -0.003190 0.000000 0.000000 0.000000
# 3 -0.003190 -0.003190 0.008182 0.000000 0.000000 0.000000
# 4 0.000000 0.000000 0.000000 0.053914 0.000000 0.000000
# 5 0.000000 0.000000 0.000000 0.000000 0.053914 0.000000
# 6 0.000000 0.000000 0.000000 0.000000 0.000000 0.065915
#
#
# Mechanical properties :
#
#
# Convention : Reuss Voigt Hill
#
# Bulk Modulus (GPa) = 35.18791 44.21736 39.70264
# Shear Modulus (GPa) = 18.51345 21.75061 20.13203
#
# Velocity S-wave (km/s) = 3.21658 3.48647 3.35424
# Velocity P-wave (km/s) = 5.78448 6.39676 6.09831
#
# Compressibility (1/GPa) = 0.02841885
#
# Stress axis : x y z
#
# Youngs Moduli (GPa) = 40.44026 40.44026 122.21346
#
# Poissons Ratio (x) = 0.33281 0.38986
# Poissons Ratio (y) = 0.33281 0.38986
# Poissons Ratio (z) = 0.12900 0.12900
#
# Static dielectric constant tensor:
#      x y z
#    x 1.642700 0.000000 0.000000 
#    y 0.000000 1.642700 0.000000 
#    z 0.000000 0.000000 1.729820 
# 
# From -- ./inp_files/5846.got.cif
#   From: 2010.05.17/outbox.cif.g08.bks.cpg/sg178_3_cif.got.tgz:5846.got - 2010.05.20 11:30:59.
