data_PCOD9582892
_publ_section_title
;
Structure prediction by ZEFSAII (Michael W. Deem and Ramdas Pophale) SiO2 
 PCOD9582892
Probable space group: P 61 2 2
;
_chemical_formula_sum "Si O2"
_cell_formula_units_Z 48
_cell_length_a 16.422982
_cell_length_b 16.422982
_cell_length_c 9.378888
_cell_angle_alpha 90.000000
_cell_angle_beta 90.000000
_cell_angle_gamma 120.000000
_cell_volume 2190.715672
_symmetry_space_group_name_H-M "P 61 2 2"
_symmetry_group_IT_number 178
_symmetry_cell_setting 'hexagonal'
loop_
_space_group_symop_operation_xyz
x,y,z
x-y,x,1/6+z
-y,x-y,1/3+z
-x,-y,1/2+z
-x+y,-x,2/3+z
y,-x+y,5/6+z
x-y,-y,-z
-x,-x+y,2/3-z
y,x,1/3-z
-y,-x,5/6-z
-x+y,y,1/2-z
x,x-y,1/6-z
loop_
_atom_site_type_symbol
_atom_site_label
_atom_site_fract_x
_atom_site_fract_y
_atom_site_fract_z
Si Si1 0.525466 0.289353 0.422830
Si Si2 0.182519 0.115489 0.803420
Si Si3 0.143389 0.764446 0.067330
Si Si4 0.570014 0.588218 0.833453
O O1 0.636832 0.363168 0.416667
O O2 0.502375 0.251188 0.583334
O O3 0.478145 0.202824 0.314620
O O4 0.475090 0.348083 0.375021
O O5 0.128695 0.134924 0.930222
O O6 0.167203 0.167203 0.666667
O O7 0.291550 0.158961 0.840966
O O8 0.039751 0.677985 0.043637
O O9 0.191351 0.808650 0.916667
O O10 0.566392 0.566392 0.666667
O O11 0.508565 0.491436 0.916667
#
# Coordination Sequence:
#
# PCOD9582892 Si02
#       4
#    12  12  12  12
#     4  11  28  48  73 108 148 194 250 311 382 457
#     4  10  24  45  69 105 149 199 249 305 368 443
#     4  12  26  45  75 104 148 192 248 308 377 459
#     4  11  26  47  72 107 143 190 248 311 382 456
#
# _framework density 21.910647999999998
#
# number of rings (size 3 to 8) (size 9 to 14) (size 15 to 20)
#    0.000    1.000    2.500    1.500   14.000    2.000 
#   13.500    0.000    0.000    0.000    0.000    0.000 
#    0.000    0.000    0.000    0.000    0.000    0.000 
#
# Total GULP energy -268497.045573 kJ/mol
# GULP energy per Si atom -5593.688449 kJ/mol
# Density = 2.186078 g / cm^3
# Si number density = 21.910648 Si / 1000 Ang^3
#
#
#
# Elastic Constant Matrix: (Units=GPa)
#
#
# Indices 1 2 3 4 5 6 
#
# 1 59.0829 4.5969 33.0684 0.0000 0.0000 0.0000
# 2 4.5969 59.0829 33.0684 0.0000 0.0000 0.0000
# 3 33.0684 33.0684 100.4981 0.0000 0.0000 0.0000
# 4 0.0000 0.0000 0.0000 56.7442 0.0000 0.0000
# 5 0.0000 0.0000 0.0000 0.0000 56.7442 0.0000
# 6 0.0000 0.0000 0.0000 0.0000 0.0000 27.2430
#
#
#
# Elastic Compliance Matrix: (Units=1/GPa)
#
#
# Indices 1 2 3 4 5 6 
#
# 1 0.021105 0.002751 -0.007850 0.000000 0.000000 0.000000
# 2 0.002751 0.021105 -0.007850 0.000000 0.000000 0.000000
# 3 -0.007850 -0.007850 0.015116 0.000000 0.000000 0.000000
# 4 0.000000 0.000000 0.000000 0.017623 0.000000 0.000000
# 5 0.000000 0.000000 0.000000 0.000000 0.017623 0.000000
# 6 0.000000 0.000000 0.000000 0.000000 0.000000 0.036707
#
#
# Mechanical properties :
#
#
# Convention : Reuss Voigt Hill
#
# Bulk Modulus (GPa) = 31.81706 40.01456 35.91581
# Shear Modulus (GPa) = 30.18391 38.00831 34.09611
#
# Velocity S-wave (km/s) = 3.71562 4.16949 3.94908
# Velocity P-wave (km/s) = 5.74113 6.44063 6.10091
#
# Compressibility (1/GPa) = 0.03142968
#
# Stress axis : x y z
#
# Youngs Moduli (GPa) = 47.38261 47.38261 66.15379
#
# Poissons Ratio (x) = -0.13037 0.51929
# Poissons Ratio (y) = -0.13037 0.51929
# Poissons Ratio (z) = 0.37194 0.37194
#
# Static dielectric constant tensor:
#      x y z
#    x 1.795250 0.000000 0.000000 
#    y 0.000000 1.795250 0.000000 
#    z 0.000000 0.000000 1.753200 
# 
# From -- ./inp_files/2569.got.cif
#   From: 2010.05.17/outbox.cif.g08.bks.cpg/sg178_2_cif.got.tgz:2569.got - 2010.05.20 11:30:59.
