data_PCOD9582091
_publ_section_title
;
Structure prediction by ZEFSAII (Michael W. Deem and Ramdas Pophale) SiO2 
 PCOD9582091
Probable space group: P 63/M
;
_chemical_formula_sum "Si O2"
_cell_formula_units_Z 34
_cell_length_a 11.709627
_cell_length_b 11.709627
_cell_length_c 12.986176
_cell_angle_alpha 90.000000
_cell_angle_beta 90.000000
_cell_angle_gamma 120.000000
_cell_volume 1542.048519
_symmetry_space_group_name_H-M "P 63/M"
_symmetry_group_IT_number 176
_symmetry_cell_setting 'hexagonal'
loop_
_space_group_symop_operation_xyz
x,y,z
x-y,x,1/2+z
-y,x-y,z
-x,-y,1/2+z
-x+y,-x,z
y,-x+y,1/2+z
-x,-y,-z
-x+y,-x,1/2-z
y,-x+y,-z
x,y,1/2-z
x-y,x,-z
-y,x-y,1/2-z
loop_
_atom_site_type_symbol
_atom_site_label
_atom_site_fract_x
_atom_site_fract_y
_atom_site_fract_z
Si Si1 0.000000 0.000000 0.619856
Si Si2 0.382494 0.373375 0.445278
Si Si3 0.680835 0.191392 0.250000
Si Si4 0.812321 0.117384 0.637890
O O1 0.928109 0.081485 0.647874
O O2 0.000000 0.000000 0.500000
O O3 0.500000 0.500000 0.500000
O O4 0.436252 0.318341 0.354177
O O5 0.313819 0.274140 0.540226
O O6 0.271154 0.393923 0.390592
O O7 0.795253 0.344286 0.250000
O O8 0.744902 0.088454 0.750000
#
# Coordination Sequence:
#
# PCOD9582091 Si02
#       4
#     4  12   6  12
#     4  12  22  44  73 112 140 173 233 316 379 416
#     4  12  25  45  71 103 140 189 237 287 354 421
#     4  10  24  46  68  98 140 190 234 282 342 426
#     4  12  25  44  73 107 143 181 236 302 363 425
#
# _framework density 22.048591999999999
#
# number of rings (size 3 to 8) (size 9 to 14) (size 15 to 20)
#    0.353    0.000    5.294    3.176    2.471    0.000 
#    5.294    0.000    0.000    0.000    0.000    0.000 
#    0.000    0.000    0.000    0.000    0.000    0.000 
#
# Total GULP energy -189948.856251 kJ/mol
# GULP energy per Si atom -5586.731066 kJ/mol
# Density = 2.199841 g / cm^3
# Si number density = 22.048592 Si / 1000 Ang^3
#
#
#
# Elastic Constant Matrix: (Units=GPa)
#
#
# Indices 1 2 3 4 5 6 
#
# 1 59.9030 -4.7006 19.7054 0.0000 0.0000 0.0000
# 2 -4.7006 59.9030 19.7054 0.0000 0.0000 0.0000
# 3 19.7054 19.7054 224.2420 0.0000 0.0000 0.0000
# 4 0.0000 0.0000 0.0000 -0.6846 0.0000 0.0000
# 5 0.0000 0.0000 0.0000 0.0000 -0.6846 0.0000
# 6 0.0000 0.0000 0.0000 0.0000 0.0000 32.3018
#
#
#
# Elastic Compliance Matrix: (Units=1/GPa)
#
#
# Indices 1 2 3 4 5 6 
#
# 1 0.017403 0.001924 -0.001698 0.000000 0.000000 0.000000
# 2 0.001924 0.017403 -0.001698 0.000000 0.000000 0.000000
# 3 -0.001698 -0.001698 0.004758 0.000000 0.000000 0.000000
# 4 0.000000 0.000000 0.000000 -1.460760 0.000000 0.000000
# 5 0.000000 0.000000 0.000000 0.000000 -1.460760 0.000000
# 6 0.000000 0.000000 0.000000 0.000000 0.000000 0.030958
#
#
# Mechanical properties :
#
#
# Convention : Reuss Voigt Hill
#
# Bulk Modulus (GPa) = 27.30772 45.94093 36.62433
# Shear Modulus (GPa) = -1.76314 26.80905 12.52295
#
# Velocity S-wave (km/s) = -0.89521 3.49077 2.38580
# Velocity P-wave (km/s) = 3.36803 6.09334 4.92302
#
# Compressibility (1/GPa) = 0.03661968
#
# Stress axis : x y z
#
# Youngs Moduli (GPa) = 57.46013 57.46013 210.17370
#
# Poissons Ratio (x) = -0.11057 0.35697
# Poissons Ratio (y) = -0.11057 0.35697
# Poissons Ratio (z) = 0.09759 0.09759
#
# Static dielectric constant tensor:
#      x y z
#    x 1.818920 0.000000 0.000000 
#    y 0.000000 1.818920 0.000000 
#    z 0.000000 0.000000 1.793380 
# 
# From -- ./inp_files/2339.got.cif
#   From: 2010.05.17/outbox.cif.g08.bks.cpg/sg176_2_cif.got.tgz:2339.got - 2010.06.03 11:36:45.
