data_PCOD9582424
_publ_section_title
;
Structure prediction by ZEFSAII (Michael W. Deem and Ramdas Pophale) SiO2 
 PCOD9582424
Probable space group: P 61 2 2
;
_chemical_formula_sum "Si O2"
_cell_formula_units_Z 72
_cell_length_a 14.737096
_cell_length_b 14.737096
_cell_length_c 20.515898
_cell_angle_alpha 90.000000
_cell_angle_beta 90.000000
_cell_angle_gamma 120.000000
_cell_volume 3858.735300
_symmetry_space_group_name_H-M "P 61 2 2"
_symmetry_group_IT_number 178
_symmetry_cell_setting 'hexagonal'
loop_
_space_group_symop_operation_xyz
x,y,z
x-y,x,1/6+z
-y,x-y,1/3+z
-x,-y,1/2+z
-x+y,-x,2/3+z
y,-x+y,5/6+z
x-y,-y,-z
-x,-x+y,2/3-z
y,x,1/3-z
-y,-x,5/6-z
-x+y,y,1/2-z
x,x-y,1/6-z
loop_
_atom_site_type_symbol
_atom_site_label
_atom_site_fract_x
_atom_site_fract_y
_atom_site_fract_z
Si Si1 0.877035 0.724724 0.894991
Si Si2 0.493074 0.809674 0.144956
Si Si3 0.325103 0.674898 0.916667
Si Si4 0.007305 0.655045 0.560263
Si Si5 0.106020 0.893981 0.916667
Si Si6 0.669193 0.547704 0.526310
Si Si7 0.548797 0.184722 0.317751
O O1 0.772358 0.709240 0.929901
O O2 0.862341 0.723500 0.817324
O O3 0.899001 0.632692 0.918414
O O4 0.979860 0.833636 0.914035
O O5 0.510157 0.755079 0.083334
O O6 0.414217 0.723544 0.197444
O O7 0.599098 0.890278 0.182053
O O8 0.432043 0.870379 0.121959
O O9 0.368574 0.781950 0.876008
O O10 0.044883 0.644149 0.632048
O O11 0.932311 0.541634 0.528408
O O12 0.751549 0.511757 0.502901
O O13 0.611591 0.223181 0.250000
#
# Coordination Sequence:
#
# PCOD9582424 Si02
#       7
#    12  12   6  12   6  12  12
#     4  10  21  36  69  93 127 163 210 264 325 383
#     4  11  21  37  64  86 121 169 212 256 310 386
#     4  10  18  36  57  84 118 156 196 263 312 362
#     4  11  20  38  64  88 119 174 212 250 317 397
#     4  10  20  40  63 100 126 158 210 273 332 366
#     4  10  18  36  60  89 117 161 206 252 311 384
#     4  10  20  33  59  88 115 160 212 245 309 386
#
# _framework density 18.658961999999999
#
# number of rings (size 3 to 8) (size 9 to 14) (size 15 to 20)
#    0.000    1.667    5.000    3.000    0.000    0.000 
#    0.000    8.333   18.333    0.000    0.000    0.000 
#    0.000    0.000    0.000    0.000    0.000    0.000 
#
# Total GULP energy -401295.236440 kJ/mol
# GULP energy per Si atom -5573.544951 kJ/mol
# Density = 1.861649 g / cm^3
# Si number density = 18.658962 Si / 1000 Ang^3
#
#
#
# Elastic Constant Matrix: (Units=GPa)
#
#
# Indices 1 2 3 4 5 6 
#
# 1 82.1879 41.8530 54.2900 0.0000 0.0000 0.0000
# 2 41.8530 82.1879 54.2900 0.0000 0.0000 0.0000
# 3 54.2900 54.2900 146.5766 0.0000 0.0000 0.0000
# 4 0.0000 0.0000 0.0000 33.1202 0.0000 0.0000
# 5 0.0000 0.0000 0.0000 0.0000 33.1202 0.0000
# 6 0.0000 0.0000 0.0000 0.0000 0.0000 20.1674
#
#
#
# Elastic Compliance Matrix: (Units=1/GPa)
#
#
# Indices 1 2 3 4 5 6 
#
# 1 0.018361 -0.006431 -0.004419 0.000000 0.000000 0.000000
# 2 -0.006431 0.018361 -0.004419 0.000000 0.000000 0.000000
# 3 -0.004419 -0.004419 0.010096 0.000000 0.000000 0.000000
# 4 0.000000 0.000000 0.000000 0.030193 0.000000 0.000000
# 5 0.000000 0.000000 0.000000 0.000000 0.030193 0.000000
# 6 0.000000 0.000000 0.000000 0.000000 0.000000 0.049585
#
#
# Mechanical properties :
#
#
# Convention : Reuss Voigt Hill
#
# Bulk Modulus (GPa) = 61.42296 67.97982 64.70139
# Shear Modulus (GPa) = 25.93998 27.98286 26.96142
#
# Velocity S-wave (km/s) = 3.73260 3.87680 3.80538
# Velocity P-wave (km/s) = 7.18099 7.52006 7.35248
#
# Compressibility (1/GPa) = 0.01628056
#
# Stress axis : x y z
#
# Youngs Moduli (GPa) = 54.46306 54.46306 99.05352
#
# Poissons Ratio (x) = 0.35027 0.43768
# Poissons Ratio (y) = 0.35027 0.43768
# Poissons Ratio (z) = 0.24065 0.24065
#
# Static dielectric constant tensor:
#      x y z
#    x 1.680430 0.000000 0.000000 
#    y 0.000000 1.680430 0.000000 
#    z 0.000000 0.000000 1.656320 
# 
# From -- ./inp_files/6822.got.cif
#   From: 2010.05.17/outbox.cif.g08.bks.cpg/sg178_4_cif.got.tgz:6822.got - 2010.05.20 11:30:59.
