data_PCOD9582919
_publ_section_title
;
Structure prediction by ZEFSAII (Michael W. Deem and Ramdas Pophale) SiO2 
 PCOD9582919
Probable space group: P 61 2 2
;
_chemical_formula_sum "Si O2"
_cell_formula_units_Z 36
_cell_length_a 13.722103
_cell_length_b 13.722103
_cell_length_c 8.858162
_cell_angle_alpha 90.000000
_cell_angle_beta 90.000000
_cell_angle_gamma 120.000000
_cell_volume 1444.493527
_symmetry_space_group_name_H-M "P 61 2 2"
_symmetry_group_IT_number 178
_symmetry_cell_setting 'hexagonal'
loop_
_space_group_symop_operation_xyz
x,y,z
x-y,x,1/6+z
-y,x-y,1/3+z
-x,-y,1/2+z
-x+y,-x,2/3+z
y,-x+y,5/6+z
x-y,-y,-z
-x,-x+y,2/3-z
y,x,1/3-z
-y,-x,5/6-z
-x+y,y,1/2-z
x,x-y,1/6-z
loop_
_atom_site_type_symbol
_atom_site_label
_atom_site_fract_x
_atom_site_fract_y
_atom_site_fract_z
Si Si1 0.113524 0.537023 0.412240
Si Si2 0.778875 0.949426 0.831340
Si Si3 0.519177 0.693871 0.348501
O O1 0.083374 0.541687 0.583334
O O2 0.215960 0.513746 0.426094
O O3 0.154426 0.655268 0.326838
O O4 0.000000 0.443255 0.333334
O O5 0.815712 0.857388 0.874243
O O6 0.650149 0.899317 0.782284
O O7 0.787848 0.000000 0.000000
O O8 0.423357 0.576644 0.416667
#
# Coordination Sequence:
#
# PCOD9582919 Si02
#       3
#    12  12  12
#     4  12  28  47  78 115 166 221 275 344 428 527
#     4  10  25  50  84 116 160 222 286 352 426 501
#     4  12  27  50  80 124 166 221 280 351 438 525
#
# _framework density 24.922229999999999
#
# number of rings (size 3 to 8) (size 9 to 14) (size 15 to 20)
#    0.000    0.667    0.000    6.000   18.667    0.000 
#    0.000    8.333    0.000    0.000    0.000    0.000 
#    0.000    0.000    0.000    0.000    0.000    0.000 
#
# Total GULP energy -201444.658269 kJ/mol
# GULP energy per Si atom -5595.684952 kJ/mol
# Density = 2.486551 g / cm^3
# Si number density = 24.922230 Si / 1000 Ang^3
#
#
#
# Elastic Constant Matrix: (Units=GPa)
#
#
# Indices 1 2 3 4 5 6 
#
# 1 227.1227 121.8045 59.3032 0.0000 0.0000 0.0000
# 2 121.8045 227.1227 59.3032 0.0000 0.0000 0.0000
# 3 59.3032 59.3032 119.9527 0.0000 0.0000 0.0000
# 4 0.0000 0.0000 0.0000 45.3909 0.0000 0.0000
# 5 0.0000 0.0000 0.0000 0.0000 45.3909 0.0000
# 6 0.0000 0.0000 0.0000 0.0000 0.0000 52.6591
#
#
#
# Elastic Compliance Matrix: (Units=1/GPa)
#
#
# Indices 1 2 3 4 5 6 
#
# 1 0.006470 -0.003025 -0.001703 0.000000 0.000000 0.000000
# 2 -0.003025 0.006470 -0.001703 0.000000 0.000000 0.000000
# 3 -0.001703 -0.001703 0.010021 0.000000 0.000000 0.000000
# 4 0.000000 0.000000 0.000000 0.022031 0.000000 0.000000
# 5 0.000000 0.000000 0.000000 0.000000 0.022031 0.000000
# 6 0.000000 0.000000 0.000000 0.000000 0.000000 0.018990
#
#
# Mechanical properties :
#
#
# Convention : Reuss Voigt Hill
#
# Bulk Modulus (GPa) = 99.03031 117.22442 108.12736
# Shear Modulus (GPa) = 48.90418 50.94066 49.92242
#
# Velocity S-wave (km/s) = 4.43456 4.52595 4.48049
# Velocity P-wave (km/s) = 8.12665 8.62847 8.38132
#
# Compressibility (1/GPa) = 0.01009792
#
# Stress axis : x y z
#
# Youngs Moduli (GPa) = 154.56099 154.56099 99.79453
#
# Poissons Ratio (x) = 0.46756 0.16996
# Poissons Ratio (y) = 0.46756 0.16996
# Poissons Ratio (z) = 0.26323 0.26323
#
# Static dielectric constant tensor:
#      x y z
#    x 1.942240 0.000000 0.000000 
#    y 0.000000 1.942240 0.000000 
#    z 0.000000 0.000000 2.211360 
# 
# From -- ./inp_files/2142.got.cif
#   From: 2010.05.17/outbox.cif.g08.bks.cpg/sg178_2_cif.got.tgz:2142.got - 2010.05.20 11:30:59.
