data_PCOD9582839
_publ_section_title
;
Structure prediction by ZEFSAII (Michael W. Deem and Ramdas Pophale) SiO2 
 PCOD9582839
Probable space group: P 61 2 2
;
_chemical_formula_sum "Si O2"
_cell_formula_units_Z 60
_cell_length_a 11.748776
_cell_length_b 11.748776
_cell_length_c 26.751576
_cell_angle_alpha 90.000000
_cell_angle_beta 90.000000
_cell_angle_gamma 120.000000
_cell_volume 3197.902743
_symmetry_space_group_name_H-M "P 61 2 2"
_symmetry_group_IT_number 178
_symmetry_cell_setting 'hexagonal'
loop_
_space_group_symop_operation_xyz
x,y,z
x-y,x,1/6+z
-y,x-y,1/3+z
-x,-y,1/2+z
-x+y,-x,2/3+z
y,-x+y,5/6+z
x-y,-y,-z
-x,-x+y,2/3-z
y,x,1/3-z
-y,-x,5/6-z
-x+y,y,1/2-z
x,x-y,1/6-z
loop_
_atom_site_type_symbol
_atom_site_label
_atom_site_fract_x
_atom_site_fract_y
_atom_site_fract_z
Si Si1 0.137138 0.788998 0.362164
Si Si2 0.460549 0.791411 0.893002
Si Si3 0.215110 0.727105 0.110675
Si Si4 0.921823 0.589990 0.108476
Si Si5 0.553167 0.507123 0.613016
O O1 0.148760 0.851241 0.416667
O O2 0.274203 0.876708 0.331476
O O3 0.123913 0.646696 0.371622
O O4 0.000000 0.752144 0.333334
O O5 0.328818 0.671183 0.916667
O O6 0.468620 0.773245 0.834666
O O7 0.586350 0.784951 0.912978
O O8 0.468489 0.922538 0.912894
O O9 0.226418 0.613209 0.083334
O O10 0.323073 0.863095 0.087613
O O11 0.069606 0.704120 0.102432
O O12 0.923945 0.461973 0.083334
O O13 0.580263 0.580263 0.666667
#
# Coordination Sequence:
#
# PCOD9582839 Si02
#       5
#    12  12  12  12  12
#     4  11  22  39  63  92 123 166 217 270 323 387
#     4  11  23  39  61  95 129 165 212 259 328 390
#     4  11  25  37  63  93 129 164 207 270 328 386
#     4  10  23  40  57  93 128 162 204 262 333 380
#     4  11  22  41  62  95 125 170 215 267 326 386
#
# _framework density 18.762297
#
# number of rings (size 3 to 8) (size 9 to 14) (size 15 to 20)
#    0.000    1.200    4.000    3.000   16.800    0.000 
#    0.000    0.000    0.000    2.400    0.000    0.000 
#    0.000    0.000    0.000    0.000    0.000    0.000 
#
# Total GULP energy -334233.996858 kJ/mol
# GULP energy per Si atom -5570.566614 kJ/mol
# Density = 1.871959 g / cm^3
# Si number density = 18.762297 Si / 1000 Ang^3
#
#
#
# Elastic Constant Matrix: (Units=GPa)
#
#
# Indices 1 2 3 4 5 6 
#
# 1 121.4031 58.5591 61.8196 0.0000 0.0000 0.0000
# 2 58.5591 121.4031 61.8196 0.0000 0.0000 0.0000
# 3 61.8196 61.8196 180.1867 0.0000 0.0000 0.0000
# 4 0.0000 0.0000 0.0000 26.1230 0.0000 0.0000
# 5 0.0000 0.0000 0.0000 0.0000 26.1230 0.0000
# 6 0.0000 0.0000 0.0000 0.0000 0.0000 31.4220
#
#
#
# Elastic Compliance Matrix: (Units=1/GPa)
#
#
# Indices 1 2 3 4 5 6 
#
# 1 0.011591 -0.004321 -0.002494 0.000000 0.000000 0.000000
# 2 -0.004321 0.011591 -0.002494 0.000000 0.000000 0.000000
# 3 -0.002494 -0.002494 0.007261 0.000000 0.000000 0.000000
# 4 0.000000 0.000000 0.000000 0.038280 0.000000 0.000000
# 5 0.000000 0.000000 0.000000 0.000000 0.038280 0.000000
# 6 0.000000 0.000000 0.000000 0.000000 0.000000 0.031825
#
#
# Mechanical properties :
#
#
# Convention : Reuss Voigt Hill
#
# Bulk Modulus (GPa) = 84.56871 87.48772 86.02822
# Shear Modulus (GPa) = 30.98065 32.78658 31.88361
#
# Velocity S-wave (km/s) = 4.06793 4.18481 4.12678
# Velocity P-wave (km/s) = 8.19973 8.37144 8.28603
#
# Compressibility (1/GPa) = 0.01182470
#
# Stress axis : x y z
#
# Youngs Moduli (GPa) = 86.27072 86.27072 137.71489
#
# Poissons Ratio (x) = 0.37277 0.34351
# Poissons Ratio (y) = 0.37277 0.34351
# Poissons Ratio (z) = 0.21519 0.21519
#
# Static dielectric constant tensor:
#      x y z
#    x 1.667530 0.000000 0.000000 
#    y 0.000000 1.667530 0.000000 
#    z 0.000000 0.000000 1.724670 
# 
# From -- ./inp_files/8801.got.cif
#   From: 2010.05.17/outbox.cif.g08.bks.cpg/sg178_5_cif.got.tgz:8801.got - 2010.05.20 11:30:59.
