data_PCOD9582272
_publ_section_title
;
Structure prediction by ZEFSAII (Michael W. Deem and Ramdas Pophale) SiO2 
 PCOD9582272
Probable space group: P 6 2 2
;
_chemical_formula_sum "Si O2"
_cell_formula_units_Z 60
_cell_length_a 14.059264
_cell_length_b 14.059264
_cell_length_c 13.677584
_cell_angle_alpha 90.000000
_cell_angle_beta 90.000000
_cell_angle_gamma 120.000000
_cell_volume 2341.343826
_symmetry_space_group_name_H-M "P 6 2 2"
_symmetry_group_IT_number 177
_symmetry_cell_setting 'hexagonal'
loop_
_space_group_symop_operation_xyz
x,y,z
x-y,x,z
-y,x-y,z
-x,-y,z
-x+y,-x,z
y,-x+y,z
x-y,-y,-z
-x,-x+y,-z
y,x,-z
-y,-x,-z
-x+y,y,-z
x,x-y,-z
loop_
_atom_site_type_symbol
_atom_site_label
_atom_site_fract_x
_atom_site_fract_y
_atom_site_fract_z
Si Si1 0.763806 0.813800 0.855832
Si Si2 0.500519 0.843424 0.431444
Si Si3 0.257985 0.467225 0.111786
Si Si4 0.538377 0.129306 0.769105
Si Si5 0.245794 0.057379 0.379537
O O1 0.855954 0.788571 0.890691
O O2 0.641215 0.730658 0.886236
O O3 0.763555 0.815040 0.738033
O O4 0.448003 0.896005 0.500000
O O5 0.485549 0.742775 0.500000
O O6 0.431319 0.824050 0.331361
O O7 0.630025 0.911046 0.406490
O O8 0.372716 0.563586 0.147621
O O9 0.165837 0.451217 0.194995
O O10 0.241224 0.482448 0.000000
O O11 0.500000 0.000000 0.766727
O O12 0.220301 0.154048 0.410343
#
# Coordination Sequence:
#
# PCOD9582272 Si02
#       5
#    12  12  12  12  12
#     4  10  21  41  72 110 153 199 249 308 377 454
#     4  12  28  49  75 112 156 206 264 333 404 489
#     4  12  26  47  74 109 151 198 262 325 384 467
#     4  12  28  49  76 106 149 202 256 319 397 477
#     4  10  23  46  79 114 158 205 262 321 390 475
#
# _framework density 25.626307000000001
#
# number of rings (size 3 to 8) (size 9 to 14) (size 15 to 20)
#    0.000    0.800    2.000    4.000    2.800    8.400 
#    0.000    1.000    0.000    2.400    0.000    0.000 
#    0.000    0.000    0.000    0.000    0.000    0.000 
#
# Total GULP energy -335798.694391 kJ/mol
# GULP energy per Si atom -5596.644907 kJ/mol
# Density = 2.556798 g / cm^3
# Si number density = 25.626307 Si / 1000 Ang^3
#
#
#
# Elastic Constant Matrix: (Units=GPa)
#
#
# Indices 1 2 3 4 5 6 
#
# 1 110.5671 43.4511 33.3417 0.0000 0.0000 0.0000
# 2 43.4511 110.5671 33.3417 0.0000 0.0000 0.0000
# 3 33.3417 33.3417 148.9727 0.0000 0.0000 0.0000
# 4 0.0000 0.0000 0.0000 151.9926 0.0000 0.0000
# 5 0.0000 0.0000 0.0000 0.0000 151.9926 0.0000
# 6 0.0000 0.0000 0.0000 0.0000 0.0000 33.5580
#
#
#
# Elastic Compliance Matrix: (Units=1/GPa)
#
#
# Indices 1 2 3 4 5 6 
#
# 1 0.011044 -0.003855 -0.001609 0.000000 0.000000 0.000000
# 2 -0.003855 0.011044 -0.001609 0.000000 0.000000 0.000000
# 3 -0.001609 -0.001609 0.007433 0.000000 0.000000 0.000000
# 4 0.000000 0.000000 0.000000 0.006579 0.000000 0.000000
# 5 0.000000 0.000000 0.000000 0.000000 0.006579 0.000000
# 6 0.000000 0.000000 0.000000 0.000000 0.000000 0.029799
#
#
# Mechanical properties :
#
#
# Convention : Reuss Voigt Hill
#
# Bulk Modulus (GPa) = 65.03884 65.59731 65.31807
# Shear Modulus (GPa) = 54.49525 84.84013 69.66769
#
# Velocity S-wave (km/s) = 4.61644 5.76008 5.21968
# Velocity P-wave (km/s) = 7.33827 8.36010 7.86579
#
# Compressibility (1/GPa) = 0.01537543
#
# Stress axis : x y z
#
# Youngs Moduli (GPa) = 90.54295 90.54295 134.53714
#
# Poissons Ratio (x) = 0.34905 0.21648
# Poissons Ratio (y) = 0.34905 0.21648
# Poissons Ratio (z) = 0.14569 0.14569
#
# Static dielectric constant tensor:
#      x y z
#    x 1.907620 0.000000 0.000000 
#    y 0.000000 1.907620 0.000000 
#    z 0.000000 0.000000 6.323620 
# 
# From -- ./inp_files/2417.got.cif
#   From: 2010.05.17/outbox.cif.g08.bks.cpg/sg177_2_cif.got.tgz:2417.got - 2010.05.20 11:28:44.
