data_PCOD9582391
_publ_section_title
;
Structure prediction by ZEFSAII (Michael W. Deem and Ramdas Pophale) SiO2 
 PCOD9582391
Probable space group: P 61 2 2
;
_chemical_formula_sum "Si O2"
_cell_formula_units_Z 96
_cell_length_a 23.763479
_cell_length_b 23.763479
_cell_length_c 11.591998
_cell_angle_alpha 90.000000
_cell_angle_beta 90.000000
_cell_angle_gamma 120.000000
_cell_volume 5669.032850
_symmetry_space_group_name_H-M "P 61 2 2"
_symmetry_group_IT_number 178
_symmetry_cell_setting 'hexagonal'
loop_
_space_group_symop_operation_xyz
x,y,z
x-y,x,1/6+z
-y,x-y,1/3+z
-x,-y,1/2+z
-x+y,-x,2/3+z
y,-x+y,5/6+z
x-y,-y,-z
-x,-x+y,2/3-z
y,x,1/3-z
-y,-x,5/6-z
-x+y,y,1/2-z
x,x-y,1/6-z
loop_
_atom_site_type_symbol
_atom_site_label
_atom_site_fract_x
_atom_site_fract_y
_atom_site_fract_z
Si Si1 0.400032 0.932001 0.249575
Si Si2 0.309627 0.095363 0.543118
Si Si3 0.941695 0.624897 0.906190
Si Si4 0.570480 0.924974 0.009662
Si Si5 0.144548 0.399336 0.195146
Si Si6 0.833766 0.729303 0.954877
Si Si7 0.521400 0.910672 0.767288
Si Si8 0.216963 0.965673 0.210879
O O1 0.460243 0.920485 0.250000
O O2 0.349533 0.908183 0.144560
O O3 0.362363 0.901248 0.367033
O O4 0.431203 0.010989 0.251130
O O5 0.340098 0.170049 0.583334
O O6 0.363702 0.077119 0.513316
O O7 0.272990 0.086544 0.422592
O O8 0.268365 0.057266 0.655500
O O9 0.899538 0.633154 0.807894
O O10 0.000000 0.627364 0.833334
O O11 0.966993 0.685693 0.993470
O O12 0.528939 0.892166 0.897555
O O13 0.589151 0.000000 0.000000
O O14 0.215861 0.431721 0.250000
O O15 0.132969 0.342853 0.102533
O O16 0.124294 0.449582 0.144942
O O17 0.810788 0.772896 0.883849
O O18 0.910148 0.752255 0.968348
O O19 0.448595 0.897189 0.750000
#
# Coordination Sequence:
#
# PCOD9582391 Si02
#       8
#    12  12  12  12  12  12  12  12
#     4  10  21  32  50  78 109 148 175 210 262 327
#     4  10  20  32  52  76 105 143 187 226 278 335
#     4  12  21  32  52  76 115 150 181 221 273 332
#     4  10  18  31  51  72 102 142 180 214 257 317
#     4  12  23  35  53  80 112 147 187 225 273 333
#     4  11  21  35  53  80 112 150 188 237 287 347
#     4  10  21  35  53  77 108 144 180 219 263 320
#     4  11  21  35  53  78 112 153 189 232 290 345
#
# _framework density 16.934104999999999
#
# number of rings (size 3 to 8) (size 9 to 14) (size 15 to 20)
#    0.000    1.250    6.250    1.125    1.750    0.500 
#    0.000    0.000    0.000    0.000    0.000    1.750 
#    0.000   35.000    0.000    0.000    0.000    0.000 
#
# Total GULP energy -534609.717737 kJ/mol
# GULP energy per Si atom -5568.851226 kJ/mol
# Density = 1.689556 g / cm^3
# Si number density = 16.934105 Si / 1000 Ang^3
#
#
#
# Elastic Constant Matrix: (Units=GPa)
#
#
# Indices 1 2 3 4 5 6 
#
# 1 68.7800 27.6759 23.9043 0.0000 0.0000 0.0000
# 2 27.6759 68.7800 23.9043 0.0000 0.0000 0.0000
# 3 23.9043 23.9043 88.5229 0.0000 0.0000 0.0000
# 4 0.0000 0.0000 0.0000 -473.4593 -0.0001 0.0000
# 5 0.0000 0.0000 0.0000 -0.0001 -473.4592 0.0000
# 6 0.0000 0.0000 0.0000 0.0000 0.0000 20.5521
#
#
#
# Elastic Compliance Matrix: (Units=1/GPa)
#
#
# Indices 1 2 3 4 5 6 
#
# 1 0.018149 -0.006179 -0.003232 0.000000 0.000000 0.000000
# 2 -0.006179 0.018149 -0.003232 0.000000 0.000000 0.000000
# 3 -0.003232 -0.003232 0.013042 0.000000 0.000000 0.000000
# 4 0.000000 0.000000 0.000000 -0.002112 0.000000 0.000000
# 5 0.000000 0.000000 0.000000 0.000000 -0.002112 0.000000
# 6 0.000000 0.000000 0.000000 0.000000 0.000000 0.048657
#
#
# Mechanical properties :
#
#
# Convention : Reuss Voigt Hill
#
# Bulk Modulus (GPa) = 41.57598 41.89464 41.73531
# Shear Modulus (GPa) = 39.34597 -175.23340 -67.94372
#
# Velocity S-wave (km/s) = 4.82547 -10.18353 -6.34110
# Velocity P-wave (km/s) = 7.46002 10.65264 5.37712
#
# Compressibility (1/GPa) = 0.02405235
#
# Stress axis : x y z
#
# Youngs Moduli (GPa) = 55.09958 55.09958 76.67466
#
# Poissons Ratio (x) = 0.34049 0.24783
# Poissons Ratio (y) = 0.34049 0.24783
# Poissons Ratio (z) = 0.17809 0.17809
#
# Static dielectric constant tensor:
#      x y z
#    x 1.709480 0.000000 0.000000 
#    y 0.000000 1.709480 0.000000 
#    z 0.000000 0.000000 1.617540 
# 
# From -- ./inp_files/4922.got.cif
#   From: 2010.05.17/outbox.cif.g08.bks.cpg/sg178_3_cif.got.tgz:4922.got - 2010.05.20 11:30:59.
