data_PCOD9582591
_publ_section_title
;
Structure prediction by ZEFSAII (Michael W. Deem and Ramdas Pophale) SiO2 
 PCOD9582591
Probable space group: P 61 2 2
;
_chemical_formula_sum "Si O2"
_cell_formula_units_Z 48
_cell_length_a 15.655408
_cell_length_b 15.655408
_cell_length_c 10.508232
_cell_angle_alpha 90.000000
_cell_angle_beta 90.000000
_cell_angle_gamma 120.000000
_cell_volume 2230.432399
_symmetry_space_group_name_H-M "P 61 2 2"
_symmetry_group_IT_number 178
_symmetry_cell_setting 'hexagonal'
loop_
_space_group_symop_operation_xyz
x,y,z
x-y,x,1/6+z
-y,x-y,1/3+z
-x,-y,1/2+z
-x+y,-x,2/3+z
y,-x+y,5/6+z
x-y,-y,-z
-x,-x+y,2/3-z
y,x,1/3-z
-y,-x,5/6-z
-x+y,y,1/2-z
x,x-y,1/6-z
loop_
_atom_site_type_symbol
_atom_site_label
_atom_site_fract_x
_atom_site_fract_y
_atom_site_fract_z
Si Si1 0.106895 0.326077 0.371085
Si Si2 0.872380 0.812189 0.048879
Si Si3 0.473974 0.619006 0.798137
Si Si4 0.220385 0.586976 0.949020
O O1 0.177514 0.355028 0.250000
O O2 0.149283 0.288149 0.482661
O O3 0.093127 0.415573 0.415536
O O4 0.000000 0.235951 0.333334
O O5 0.802078 0.802078 0.166667
O O6 0.980687 0.862191 0.111522
O O7 0.457327 0.707910 0.854478
O O8 0.400365 0.559595 0.681039
O O9 0.452165 0.547836 0.916667
O O10 0.298736 0.701265 0.916667
O O11 0.169903 0.584952 0.083334
#
# Coordination Sequence:
#
# PCOD9582591 Si02
#       4
#    12  12  12  12
#     4  12  24  41  65  93 135 175 217 273 349 412
#     4  10  22  41  66  98 134 173 224 274 336 419
#     4  10  20  37  60  91 118 165 216 273 322 388
#     4   8  14  30  56  83 112 145 208 261 310 368
#
# _framework density 21.520491
#
# number of rings (size 3 to 8) (size 9 to 14) (size 15 to 20)
#    0.000    2.000    2.500    4.500    0.000    5.000 
#    9.000    3.750    0.000    0.000    0.000    0.000 
#    0.000    0.000    0.000    0.000    0.000    0.000 
#
# Total GULP energy -267659.891214 kJ/mol
# GULP energy per Si atom -5576.247734 kJ/mol
# Density = 2.147151 g / cm^3
# Si number density = 21.520491 Si / 1000 Ang^3
#
#
#
# Elastic Constant Matrix: (Units=GPa)
#
#
# Indices 1 2 3 4 5 6 
#
# 1 49.1369 11.2668 40.6947 0.0000 0.0000 0.0000
# 2 11.2668 49.1369 40.6947 0.0000 0.0000 0.0000
# 3 40.6947 40.6947 161.7972 0.0000 0.0000 0.0000
# 4 0.0000 0.0000 0.0000 15.2840 0.0000 0.0000
# 5 0.0000 0.0000 0.0000 0.0000 15.2840 0.0000
# 6 0.0000 0.0000 0.0000 0.0000 0.0000 18.9351
#
#
#
# Elastic Compliance Matrix: (Units=1/GPa)
#
#
# Indices 1 2 3 4 5 6 
#
# 1 0.025724 -0.000682 -0.006298 0.000000 0.000000 0.000000
# 2 -0.000682 0.025724 -0.006298 0.000000 0.000000 0.000000
# 3 -0.006298 -0.006298 0.009349 0.000000 0.000000 0.000000
# 4 0.000000 0.000000 0.000000 0.065428 0.000000 0.000000
# 5 0.000000 0.000000 0.000000 0.000000 0.065428 0.000000
# 6 0.000000 0.000000 0.000000 0.000000 0.000000 0.052812
#
#
# Mechanical properties :
#
#
# Convention : Reuss Voigt Hill
#
# Bulk Modulus (GPa) = 29.20645 49.48703 39.34674
# Shear Modulus (GPa) = 17.70313 21.06160 19.38236
#
# Velocity S-wave (km/s) = 2.87124 3.13177 3.00433
# Velocity P-wave (km/s) = 4.95913 6.01021 5.50979
#
# Compressibility (1/GPa) = 0.03423901
#
# Stress axis : x y z
#
# Youngs Moduli (GPa) = 38.87419 38.87419 106.96421
#
# Poissons Ratio (x) = 0.02651 0.67371
# Poissons Ratio (y) = 0.02651 0.67371
# Poissons Ratio (z) = 0.24485 0.24485
#
# Static dielectric constant tensor:
#      x y z
#    x 1.782970 0.000000 0.000000 
#    y 0.000000 1.782970 0.000000 
#    z 0.000000 0.000000 1.841640 
# 
# From -- ./inp_files/2612.got.cif
#   From: 2010.05.17/outbox.cif.g08.bks.cpg/sg178_2_cif.got.tgz:2612.got - 2010.05.20 11:30:59.
