data_PCOD9582752
_publ_section_title
;
Structure prediction by ZEFSAII (Michael W. Deem and Ramdas Pophale) SiO2 
 PCOD9582752
Probable space group: P 61 2 2
;
_chemical_formula_sum "Si O2"
_cell_formula_units_Z 60
_cell_length_a 27.413784
_cell_length_b 27.413784
_cell_length_c 5.209601
_cell_angle_alpha 90.000000
_cell_angle_beta 90.000000
_cell_angle_gamma 120.000000
_cell_volume 3390.572748
_symmetry_space_group_name_H-M "P 61 2 2"
_symmetry_group_IT_number 178
_symmetry_cell_setting 'hexagonal'
loop_
_space_group_symop_operation_xyz
x,y,z
x-y,x,1/6+z
-y,x-y,1/3+z
-x,-y,1/2+z
-x+y,-x,2/3+z
y,-x+y,5/6+z
x-y,-y,-z
-x,-x+y,2/3-z
y,x,1/3-z
-y,-x,5/6-z
-x+y,y,1/2-z
x,x-y,1/6-z
loop_
_atom_site_type_symbol
_atom_site_label
_atom_site_fract_x
_atom_site_fract_y
_atom_site_fract_z
Si Si1 0.745419 0.144020 0.962923
Si Si2 0.540924 0.643368 0.750057
Si Si3 0.269999 0.635000 0.083334
Si Si4 0.961316 0.480658 0.083334
Si Si5 0.357559 0.321028 0.924603
Si Si6 0.484933 0.692693 0.424600
O O1 0.733974 0.093630 0.158433
O O2 0.719870 0.180558 0.082431
O O3 0.811006 0.188995 0.916667
O O4 0.702157 0.116461 0.723684
O O5 0.511326 0.587401 0.917590
O O6 0.579164 0.638126 0.528313
O O7 0.493276 0.652582 0.621326
O O8 0.312574 0.625148 0.250000
O O9 0.231752 0.574807 0.950580
O O10 0.000000 0.499074 0.333334
O O11 0.344253 0.344253 0.666667
O O12 0.319085 0.319085 0.166667
O O13 0.487838 0.743919 0.583334
#
# Coordination Sequence:
#
# PCOD9582752 Si02
#       6
#    12  12   6   6  12  12
#     4  11  23  39  65  87 116 147 192 242 295 369
#     4  11  25  41  61  81 116 147 192 240 305 360
#     4  10  24  37  54  72  98 140 180 234 298 366
#     4  12  32  43  62  88 118 152 200 240 298 380
#     4  11  23  41  66  88 118 153 187 232 296 363
#     4  10  22  39  56  80 106 138 188 237 299 364
#
# _framework density 17.696126
#
# number of rings (size 3 to 8) (size 9 to 14) (size 15 to 20)
#    0.000    1.200    4.000    0.600   12.600    0.000 
#    1.800    0.000    0.000    0.000    0.000    0.000 
#    0.000    0.000    0.000    0.000    0.000    0.000 
#
# Total GULP energy -334711.441806 kJ/mol
# GULP energy per Si atom -5578.524030 kJ/mol
# Density = 1.765585 g / cm^3
# Si number density = 17.696126 Si / 1000 Ang^3
#
#
#
# Elastic Constant Matrix: (Units=GPa)
#
#
# Indices 1 2 3 4 5 6 
#
# 1 88.9257 44.5109 36.7361 0.0000 0.0000 0.0000
# 2 44.5109 88.9257 36.7361 0.0000 0.0000 0.0000
# 3 36.7361 36.7361 89.1832 0.0000 0.0000 0.0000
# 4 0.0000 0.0000 0.0000 11.7803 0.0000 0.0000
# 5 0.0000 0.0000 0.0000 0.0000 11.7803 0.0000
# 6 0.0000 0.0000 0.0000 0.0000 0.0000 22.2074
#
#
#
# Elastic Compliance Matrix: (Units=1/GPa)
#
#
# Indices 1 2 3 4 5 6 
#
# 1 0.016104 -0.006411 -0.003993 0.000000 0.000000 0.000000
# 2 -0.006411 0.016104 -0.003993 0.000000 0.000000 0.000000
# 3 -0.003993 -0.003993 0.014502 0.000000 0.000000 0.000000
# 4 0.000000 0.000000 0.000000 0.084888 0.000000 0.000000
# 5 0.000000 0.000000 0.000000 0.000000 0.084888 0.000000
# 6 0.000000 0.000000 0.000000 0.000000 0.000000 0.045030
#
#
# Mechanical properties :
#
#
# Convention : Reuss Voigt Hill
#
# Bulk Modulus (GPa) = 55.81280 55.88898 55.85089
# Shear Modulus (GPa) = 16.87595 19.09037 17.98316
#
# Velocity S-wave (km/s) = 3.09148 3.28805 3.19128
# Velocity P-wave (km/s) = 6.65965 6.78721 6.72374
#
# Compressibility (1/GPa) = 0.01791704
#
# Stress axis : x y z
#
# Youngs Moduli (GPa) = 62.09727 62.09727 68.95572
#
# Poissons Ratio (x) = 0.39812 0.27531
# Poissons Ratio (y) = 0.39812 0.27531
# Poissons Ratio (z) = 0.24793 0.24793
#
# Static dielectric constant tensor:
#      x y z
#    x 1.705180 0.000000 0.000000 
#    y 0.000000 1.705180 0.000000 
#    z 0.000000 0.000000 1.717090 
# 
# From -- ./inp_files/1527.got.cif
#   From: 2010.05.17/outbox.cif.g08.bks.cpg/sg178_1_cif.got.tgz:1527.got - 2010.05.20 11:30:59.
