data_PCOD9582126
_publ_section_title
;
Structure prediction by ZEFSAII (Michael W. Deem and Ramdas Pophale) SiO2 
 PCOD9582126
Probable space group: P 63/M
;
_chemical_formula_sum "Si O2"
_cell_formula_units_Z 30
_cell_length_a 14.306735
_cell_length_b 14.306735
_cell_length_c 9.107150
_cell_angle_alpha 90.000000
_cell_angle_beta 90.000000
_cell_angle_gamma 120.000000
_cell_volume 1614.336950
_symmetry_space_group_name_H-M "P 63/M"
_symmetry_group_IT_number 176
_symmetry_cell_setting 'hexagonal'
loop_
_space_group_symop_operation_xyz
x,y,z
x-y,x,1/2+z
-y,x-y,z
-x,-y,1/2+z
-x+y,-x,z
y,-x+y,1/2+z
-x,-y,-z
-x+y,-x,1/2-z
y,-x+y,-z
x,y,1/2-z
x-y,x,-z
-y,x-y,1/2-z
loop_
_atom_site_type_symbol
_atom_site_label
_atom_site_fract_x
_atom_site_fract_y
_atom_site_fract_z
Si Si1 0.925194 0.859153 0.250000
Si Si2 0.646991 0.835041 0.916567
Si Si3 0.400330 0.398637 0.074617
O O1 0.881908 0.776405 0.386310
O O2 0.883870 0.945492 0.250000
O O3 0.604159 0.831784 0.750000
O O4 0.605728 0.713894 0.967090
O O5 0.613781 0.901826 0.020582
O O6 0.408137 0.407390 0.250000
O O7 0.500000 0.500000 0.000000
#
# Coordination Sequence:
#
# PCOD9582126 Si02
#       3
#     6  12  12
#     4   8  18  36  64 102 140 172 194 240 322 412
#     4   9  22  38  64  94 129 167 212 257 320 390
#     4  11  24  42  65  91 126 170 219 274 320 381
#
# _framework density 18.583480000000002
#
# number of rings (size 3 to 8) (size 9 to 14) (size 15 to 20)
#    1.600    0.800    0.000    1.200    5.600    3.200 
#    2.400    2.000    0.000    0.000    0.000    0.000 
#    0.000    0.000    0.000    0.000    0.000    0.000 
#
# Total GULP energy -167222.194702 kJ/mol
# GULP energy per Si atom -5574.073157 kJ/mol
# Density = 1.854118 g / cm^3
# Si number density = 18.583480 Si / 1000 Ang^3
#
#
#
# Elastic Constant Matrix: (Units=GPa)
#
#
# Indices 1 2 3 4 5 6 
#
# 1 149.4150 97.5007 59.1823 0.0000 0.0000 0.0000
# 2 97.5007 149.4150 59.1823 0.0000 0.0000 0.0000
# 3 59.1823 59.1823 51.7561 0.0000 0.0000 0.0000
# 4 0.0000 0.0000 0.0000 36.2866 0.0000 0.0000
# 5 0.0000 0.0000 0.0000 0.0000 36.2866 0.0000
# 6 0.0000 0.0000 0.0000 0.0000 0.0000 25.9571
#
#
#
# Elastic Compliance Matrix: (Units=1/GPa)
#
#
# Indices 1 2 3 4 5 6 
#
# 1 0.014113 -0.005150 -0.010249 0.000000 0.000000 0.000000
# 2 -0.005150 0.014113 -0.010249 0.000000 0.000000 0.000000
# 3 -0.010249 -0.010249 0.042761 0.000000 0.000000 0.000000
# 4 0.000000 0.000000 0.000000 0.027558 0.000000 0.000000
# 5 0.000000 0.000000 0.000000 0.000000 0.027558 0.000000
# 6 0.000000 0.000000 0.000000 0.000000 0.000000 0.038525
#
#
# Mechanical properties :
#
#
# Convention : Reuss Voigt Hill
#
# Bulk Modulus (GPa) = 50.78600 86.92405 68.85502
# Shear Modulus (GPa) = 22.47308 28.68745 25.58026
#
# Velocity S-wave (km/s) = 3.48128 3.93327 3.71415
# Velocity P-wave (km/s) = 6.59901 8.21607 7.45154
#
# Compressibility (1/GPa) = 0.01969047
#
# Stress axis : x y z
#
# Youngs Moduli (GPa) = 70.85742 70.85742 23.38574
#
# Poissons Ratio (x) = 0.36489 0.23969
# Poissons Ratio (y) = 0.36489 0.23969
# Poissons Ratio (z) = 0.72623 0.72623
#
# Static dielectric constant tensor:
#      x y z
#    x 1.629100 0.000000 0.000000 
#    y 0.000000 1.629100 0.000000 
#    z 0.000000 0.000000 0.427710 
# 
# From -- ./inp_files/325.got.cif
#   From: 2010.05.17/outbox.cif.g08.bks.cpg/sg176_1_cif.got.tgz:325.got - 2010.06.03 11:36:45.
