data_PCOD9582024
_publ_section_title
;
Structure prediction by ZEFSAII (Michael W. Deem and Ramdas Pophale) SiO2 
 PCOD9582024
Probable space group: P 63/M
;
_chemical_formula_sum "Si O2"
_cell_formula_units_Z 70
_cell_length_a 15.107766
_cell_length_b 15.107766
_cell_length_c 18.173456
_cell_angle_alpha 90.000000
_cell_angle_beta 90.000000
_cell_angle_gamma 120.000000
_cell_volume 3592.267380
_symmetry_space_group_name_H-M "P 63/M"
_symmetry_group_IT_number 176
_symmetry_cell_setting 'hexagonal'
loop_
_space_group_symop_operation_xyz
x,y,z
x-y,x,1/2+z
-y,x-y,z
-x,-y,1/2+z
-x+y,-x,z
y,-x+y,1/2+z
-x,-y,-z
-x+y,-x,1/2-z
y,-x+y,-z
x,y,1/2-z
x-y,x,-z
-y,x-y,1/2-z
loop_
_atom_site_type_symbol
_atom_site_label
_atom_site_fract_x
_atom_site_fract_y
_atom_site_fract_z
Si Si1 0.743625 0.461397 0.088717
Si Si2 0.289819 0.969604 0.750000
Si Si3 0.435855 0.894467 0.105554
Si Si4 0.733686 0.104135 0.986374
Si Si5 0.495269 0.025379 0.250000
Si Si6 0.074749 0.737010 0.406719
Si Si7 0.219210 0.753856 0.750000
Si Si8 0.333333 0.666667 0.339276
O O1 0.623121 0.399537 0.070068
O O2 0.757839 0.480901 0.175108
O O3 0.807238 0.564786 0.045886
O O4 0.389485 0.955053 0.750000
O O5 0.201260 0.850917 0.750000
O O6 0.297335 0.029706 0.824995
O O7 0.376375 0.922586 0.045801
O O8 0.546824 0.907897 0.088635
O O9 0.363845 0.776805 0.128842
O O10 0.447759 0.961162 0.176860
O O11 0.820975 0.159036 0.924939
O O12 0.725499 0.009035 0.030633
O O13 0.477250 0.120115 0.250000
O O14 0.333334 0.666668 0.250000
#
# Coordination Sequence:
#
# PCOD9582024 Si02
#       8
#    12   6  12  12   6  12   6   4
#     4  10  22  32  55  83 118 166 206 246 314 373
#     4  10  22  43  58  89 124 176 214 263 315 386
#     4  11  23  38  58  88 128 171 217 254 311 388
#     4  12  24  39  60  89 123 163 205 272 321 378
#     4  10  24  35  58  89 118 172 220 257 302 373
#     4  11  25  41  64  88 127 164 217 262 328 383
#     4  12  20  38  56  84 122 168 218 266 309 373
#     4  12  21  39  60  87 129 184 224 253 315 378
#
# _framework density 19.486298999999999
#
# number of rings (size 3 to 8) (size 9 to 14) (size 15 to 20)
#    0.343    0.686    4.286    3.086    4.800    0.686 
#    0.514    0.000    0.000    0.343    0.000    0.000 
#    0.000    0.000    0.000    0.000    0.000    0.000 
#
# Total GULP energy -390994.334138 kJ/mol
# GULP energy per Si atom -5585.633345 kJ/mol
# Density = 1.944195 g / cm^3
# Si number density = 19.486299 Si / 1000 Ang^3
#
#
#
# Elastic Constant Matrix: (Units=GPa)
#
#
# Indices 1 2 3 4 5 6 
#
# 1 47.3177 6.6521 16.4217 0.0000 0.0000 0.0000
# 2 6.6521 47.3176 16.4216 0.0000 0.0000 -0.0002
# 3 16.4217 16.4216 75.8566 0.0000 0.0000 0.0001
# 4 0.0000 0.0000 0.0000 17.5689 0.0000 0.0000
# 5 0.0000 0.0000 0.0000 0.0000 17.5688 0.0000
# 6 0.0000 -0.0002 0.0001 0.0000 0.0000 20.3325
#
#
#
# Elastic Compliance Matrix: (Units=1/GPa)
#
#
# Indices 1 2 3 4 5 6 
#
# 1 0.022966 -0.001625 -0.004620 0.000000 0.000000 0.000000
# 2 -0.001625 0.022966 -0.004620 0.000000 0.000000 0.000000
# 3 -0.004620 -0.004620 0.015183 0.000000 0.000000 0.000000
# 4 0.000000 0.000000 0.000000 0.056919 0.000000 0.000000
# 5 0.000000 0.000000 0.000000 0.000000 0.056919 0.000000
# 6 0.000000 0.000000 0.000000 0.000000 0.000000 0.049182
#
#
# Mechanical properties :
#
#
# Convention : Reuss Voigt Hill
#
# Bulk Modulus (GPa) = 25.39082 27.72032 26.55557
# Shear Modulus (GPa) = 19.30560 19.82713 19.56637
#
# Velocity S-wave (km/s) = 3.15100 3.19327 3.17221
# Velocity P-wave (km/s) = 5.12804 5.27754 5.20332
#
# Compressibility (1/GPa) = 0.03938431
#
# Stress axis : x y z
#
# Youngs Moduli (GPa) = 43.54345 43.54343 65.86314
#
# Poissons Ratio (x) = 0.07077 0.30428
# Poissons Ratio (y) = 0.07077 0.30427
# Poissons Ratio (z) = 0.20116 0.20116
#
# Static dielectric constant tensor:
#      x y z
#    x 1.710590 0.000000 0.000000 
#    y 0.000000 1.710590 0.000000 
#    z 0.000000 0.000000 1.708130 
# 
# From -- ./inp_files/3428.got.cif
#   From: 2010.05.17/outbox.cif.g08.bks.cpg/sg176_2_cif.got.tgz:3428.got - 2010.06.03 11:36:45.
