data_PCOD9582816
_publ_section_title
;
Structure prediction by ZEFSAII (Michael W. Deem and Ramdas Pophale) SiO2 
 PCOD9582816
Probable space group: P 61 2 2
;
_chemical_formula_sum "Si O2"
_cell_formula_units_Z 60
_cell_length_a 14.546780
_cell_length_b 14.546780
_cell_length_c 15.937423
_cell_angle_alpha 90.000000
_cell_angle_beta 90.000000
_cell_angle_gamma 120.000000
_cell_volume 2920.669886
_symmetry_space_group_name_H-M "P 61 2 2"
_symmetry_group_IT_number 178
_symmetry_cell_setting 'hexagonal'
loop_
_space_group_symop_operation_xyz
x,y,z
x-y,x,1/6+z
-y,x-y,1/3+z
-x,-y,1/2+z
-x+y,-x,2/3+z
y,-x+y,5/6+z
x-y,-y,-z
-x,-x+y,2/3-z
y,x,1/3-z
-y,-x,5/6-z
-x+y,y,1/2-z
x,x-y,1/6-z
loop_
_atom_site_type_symbol
_atom_site_label
_atom_site_fract_x
_atom_site_fract_y
_atom_site_fract_z
Si Si1 0.451055 0.019386 0.172777
Si Si2 0.893278 0.893278 0.666667
Si Si3 0.726748 0.214619 0.666430
Si Si4 0.609528 0.304764 0.583334
Si Si5 0.525580 0.890944 0.963254
Si Si6 0.849160 0.656066 0.655310
O O1 0.532213 0.064425 0.250000
O O2 0.524373 0.064953 0.089974
O O3 0.361840 0.051823 0.182782
O O4 0.381154 0.893748 0.183451
O O5 0.931703 0.965852 0.583334
O O6 0.875676 0.776576 0.645717
O O7 0.686869 0.297705 0.650874
O O8 0.820808 0.266451 0.734461
O O9 0.769602 0.189684 0.581333
O O10 0.539478 0.191599 0.537685
O O11 0.622508 0.000000 0.000000
O O12 0.810814 0.621628 0.750000
#
# Coordination Sequence:
#
# PCOD9582816 Si02
#       6
#    12   6  12   6  12  12
#     4  12  24  46  68 101 147 187 240 298 354 438
#     4  10  22  44  74 106 136 178 236 312 372 426
#     4  12  24  42  70 100 145 192 242 299 368 449
#     4  12  24  42  68 100 142 196 256 292 374 442
#     4  12  26  45  66 104 149 199 241 305 365 447
#     4  11  23  41  72 107 136 177 235 301 362 423
#
# _framework density 20.543233000000001
#
# number of rings (size 3 to 8) (size 9 to 14) (size 15 to 20)
#    0.000    0.400    4.000    6.600    0.000    0.000 
#    0.000    0.000    8.800    0.000    0.000    0.000 
#    0.000    0.000    0.000    0.000    0.000    0.000 
#
# Total GULP energy -334998.859571 kJ/mol
# GULP energy per Si atom -5583.314326 kJ/mol
# Density = 2.049648 g / cm^3
# Si number density = 20.543233 Si / 1000 Ang^3
#
#
#
# Elastic Constant Matrix: (Units=GPa)
#
#
# Indices 1 2 3 4 5 6 
#
# 1 103.7135 38.4106 52.5660 0.0000 0.0000 0.0000
# 2 38.4106 103.7135 52.5660 0.0000 0.0000 0.0000
# 3 52.5660 52.5660 136.3466 0.0000 0.0000 0.0000
# 4 0.0000 0.0000 0.0000 26.3867 0.0000 0.0000
# 5 0.0000 0.0000 0.0000 0.0000 26.3867 0.0000
# 6 0.0000 0.0000 0.0000 0.0000 0.0000 32.6515
#
#
#
# Elastic Compliance Matrix: (Units=1/GPa)
#
#
# Indices 1 2 3 4 5 6 
#
# 1 0.012578 -0.002735 -0.003795 0.000000 0.000000 0.000000
# 2 -0.002735 0.012578 -0.003795 0.000000 0.000000 0.000000
# 3 -0.003795 -0.003795 0.010260 0.000000 0.000000 0.000000
# 4 0.000000 0.000000 0.000000 0.037898 0.000000 0.000000
# 5 0.000000 0.000000 0.000000 0.000000 0.037898 0.000000
# 6 0.000000 0.000000 0.000000 0.000000 0.000000 0.030626
#
#
# Mechanical properties :
#
#
# Convention : Reuss Voigt Hill
#
# Bulk Modulus (GPa) = 67.71718 70.09544 68.90631
# Shear Modulus (GPa) = 29.86659 30.43371 30.15015
#
# Velocity S-wave (km/s) = 3.81706 3.85313 3.83514
# Velocity P-wave (km/s) = 7.24303 7.34782 7.29561
#
# Compressibility (1/GPa) = 0.01476730
#
# Stress axis : x y z
#
# Youngs Moduli (GPa) = 79.50227 79.50227 97.46245
#
# Poissons Ratio (x) = 0.21744 0.36986
# Poissons Ratio (y) = 0.21744 0.36986
# Poissons Ratio (z) = 0.30170 0.30170
#
# Static dielectric constant tensor:
#      x y z
#    x 1.818140 0.000000 0.000000 
#    y 0.000000 1.818140 0.000000 
#    z 0.000000 0.000000 1.785000 
# 
# From -- ./inp_files/5719.got.cif
#   From: 2010.05.17/outbox.cif.g08.bks.cpg/sg178_3_cif.got.tgz:5719.got - 2010.05.20 11:30:59.
