data_PCOD9582663
_publ_section_title
;
Structure prediction by ZEFSAII (Michael W. Deem and Ramdas Pophale) SiO2 
 PCOD9582663
Probable space group: P 61 2 2
;
_chemical_formula_sum "Si O2"
_cell_formula_units_Z 72
_cell_length_a 16.020609
_cell_length_b 16.020609
_cell_length_c 18.962585
_cell_angle_alpha 90.000000
_cell_angle_beta 90.000000
_cell_angle_gamma 120.000000
_cell_volume 4214.889705
_symmetry_space_group_name_H-M "P 61 2 2"
_symmetry_group_IT_number 178
_symmetry_cell_setting 'hexagonal'
loop_
_space_group_symop_operation_xyz
x,y,z
x-y,x,1/6+z
-y,x-y,1/3+z
-x,-y,1/2+z
-x+y,-x,2/3+z
y,-x+y,5/6+z
x-y,-y,-z
-x,-x+y,2/3-z
y,x,1/3-z
-y,-x,5/6-z
-x+y,y,1/2-z
x,x-y,1/6-z
loop_
_atom_site_type_symbol
_atom_site_label
_atom_site_fract_x
_atom_site_fract_y
_atom_site_fract_z
Si Si1 0.750191 0.499254 0.447600
Si Si2 0.464002 0.595088 0.497048
Si Si3 0.667606 0.886217 0.654732
Si Si4 0.890349 0.238689 0.218262
Si Si5 0.450366 0.500896 0.092368
Si Si6 0.343602 0.780769 0.360109
O O1 0.806023 0.440089 0.459304
O O2 0.788818 0.598602 0.490470
O O3 0.646784 0.430727 0.483606
O O4 0.732721 0.504001 0.364760
O O5 0.431860 0.568141 0.416667
O O6 0.552366 0.704103 0.504048
O O7 0.510221 0.534897 0.528670
O O8 0.681420 0.840710 0.583334
O O9 0.695194 0.844971 0.722998
O O10 0.726073 0.002734 0.645996
O O11 0.902346 0.334429 0.258087
O O12 0.487242 0.487242 0.166667
O O13 0.484903 0.610509 0.075020
O O14 0.304399 0.695602 0.416667
#
# Coordination Sequence:
#
# PCOD9582663 Si02
#       6
#    12  12  12  12  12  12
#     4  10  21  33  51  74 105 142 191 226 276 325
#     4  11  21  33  53  76 107 151 186 223 270 341
#     4  11  22  35  57  79 115 147 190 234 294 343
#     4  10  21  36  53  79 110 147 181 234 285 348
#     4  10  21  34  51  72 105 141 188 229 280 324
#     4  10  21  32  49  70 101 136 185 235 263 311
#
# _framework density 17.082297000000001
#
# number of rings (size 3 to 8) (size 9 to 14) (size 15 to 20)
#    0.000    1.667    1.667    4.000   11.667    0.000 
#    0.000    0.000    0.000    0.000    0.000    0.000 
#    0.000   26.667    0.000    0.000    0.000    0.000 
#
# Total GULP energy -401204.557700 kJ/mol
# GULP energy per Si atom -5572.285524 kJ/mol
# Density = 1.704342 g / cm^3
# Si number density = 17.082297 Si / 1000 Ang^3
#
#
#
# Elastic Constant Matrix: (Units=GPa)
#
#
# Indices 1 2 3 4 5 6 
#
# 1 64.9046 20.8682 29.1009 0.0000 0.0000 0.0000
# 2 20.8682 64.9046 29.1009 0.0000 0.0000 0.0000
# 3 29.1009 29.1009 89.8618 0.0000 0.0000 0.0000
# 4 0.0000 0.0000 0.0000 173.9345 0.0000 0.0000
# 5 0.0000 0.0000 0.0000 0.0000 173.9345 0.0000
# 6 0.0000 0.0000 0.0000 0.0000 0.0000 22.0182
#
#
#
# Elastic Compliance Matrix: (Units=1/GPa)
#
#
# Indices 1 2 3 4 5 6 
#
# 1 0.018825 -0.003883 -0.004839 0.000000 0.000000 0.000000
# 2 -0.003883 0.018825 -0.004839 0.000000 0.000000 0.000000
# 3 -0.004839 -0.004839 0.014262 0.000000 0.000000 0.000000
# 4 0.000000 0.000000 0.000000 0.005749 0.000000 0.000000
# 5 0.000000 0.000000 0.000000 0.000000 0.005749 0.000000
# 6 0.000000 0.000000 0.000000 0.000000 0.000000 0.045417
#
#
# Mechanical properties :
#
#
# Convention : Reuss Voigt Hill
#
# Bulk Modulus (GPa) = 40.33713 41.97901 41.15807
# Shear Modulus (GPa) = 34.67068 83.35083 59.01075
#
# Velocity S-wave (km/s) = 4.51003 6.99283 5.88387
# Velocity P-wave (km/s) = 7.12637 9.47773 8.38488
#
# Compressibility (1/GPa) = 0.02479106
#
# Stress axis : x y z
#
# Youngs Moduli (GPa) = 53.11990 53.11990 70.11516
#
# Poissons Ratio (x) = 0.20627 0.33928
# Poissons Ratio (y) = 0.20627 0.33928
# Poissons Ratio (z) = 0.25704 0.25704
#
# Static dielectric constant tensor:
#      x y z
#    x 1.546130 0.000000 0.000000 
#    y 0.000000 1.546130 0.000000 
#    z 0.000000 0.000000 1.589980 
# 
# From -- ./inp_files/6888.got.cif
#   From: 2010.05.17/outbox.cif.g08.bks.cpg/sg178_4_cif.got.tgz:6888.got - 2010.05.20 11:30:59.
