data_PCOD9582025
_publ_section_title
;
Structure prediction by ZEFSAII (Michael W. Deem and Ramdas Pophale) SiO2 
 PCOD9582025
Probable space group: P 63/M
;
_chemical_formula_sum "Si O2"
_cell_formula_units_Z 34
_cell_length_a 10.099689
_cell_length_b 10.099689
_cell_length_c 19.137645
_cell_angle_alpha 90.000000
_cell_angle_beta 90.000000
_cell_angle_gamma 120.000000
_cell_volume 1690.577667
_symmetry_space_group_name_H-M "P 63/M"
_symmetry_group_IT_number 176
_symmetry_cell_setting 'hexagonal'
loop_
_space_group_symop_operation_xyz
x,y,z
x-y,x,1/2+z
-y,x-y,z
-x,-y,1/2+z
-x+y,-x,z
y,-x+y,1/2+z
-x,-y,-z
-x+y,-x,1/2-z
y,-x+y,-z
x,y,1/2-z
x-y,x,-z
-y,x-y,1/2-z
loop_
_atom_site_type_symbol
_atom_site_label
_atom_site_fract_x
_atom_site_fract_y
_atom_site_fract_z
Si Si1 0.313529 0.828218 0.750000
Si Si2 0.000000 0.000000 0.915368
Si Si3 0.775380 0.105054 0.104478
Si Si4 0.186624 0.704869 0.475917
O O1 0.181686 0.649153 0.750000
O O2 0.295973 0.898488 0.678788
O O3 0.103370 0.171269 0.889095
O O4 0.000000 0.000000 0.000000
O O5 0.810745 0.251988 0.057420
O O6 0.661666 0.949551 0.062046
O O7 0.176985 0.543287 0.458789
#
# Coordination Sequence:
#
# PCOD9582025 Si02
#       4
#     6   4  12  12
#     4  10  26  46  68  94 136 184 212 268 352 414
#     4  12  24  40  68 103 126 175 221 289 333 382
#     4  12  21  44  64  98 139 172 229 279 331 409
#     4  10  22  35  65  97 127 175 227 282 330 378
#
# _framework density 20.111469
#
# number of rings (size 3 to 8) (size 9 to 14) (size 15 to 20)
#    1.059    0.000    3.529    3.176    0.000    4.235 
#    0.000    1.765    0.000    0.000    0.000    0.000 
#    0.000    0.000    0.000    0.000    0.000    0.000 
#
# Total GULP energy -189494.282311 kJ/mol
# GULP energy per Si atom -5573.361244 kJ/mol
# Density = 2.006569 g / cm^3
# Si number density = 20.111469 Si / 1000 Ang^3
#
#
#
# Elastic Constant Matrix: (Units=GPa)
#
#
# Indices 1 2 3 4 5 6 
#
# 1 70.7790 6.1223 21.1573 0.0000 0.0000 0.0000
# 2 6.1223 70.7790 21.1573 0.0000 0.0000 0.0000
# 3 21.1573 21.1573 106.2438 0.0000 0.0000 0.0000
# 4 0.0000 0.0000 0.0000 15.7059 0.0000 0.0000
# 5 0.0000 0.0000 0.0000 0.0000 15.7059 0.0000
# 6 0.0000 0.0000 0.0000 0.0000 0.0000 32.3283
#
#
#
# Elastic Compliance Matrix: (Units=1/GPa)
#
#
# Indices 1 2 3 4 5 6 
#
# 1 0.015035 -0.000431 -0.002908 0.000000 0.000000 0.000000
# 2 -0.000431 0.015035 -0.002908 0.000000 0.000000 0.000000
# 3 -0.002908 -0.002908 0.010571 0.000000 0.000000 0.000000
# 4 0.000000 0.000000 0.000000 0.063671 0.000000 0.000000
# 5 0.000000 0.000000 0.000000 0.000000 0.063671 0.000000
# 6 0.000000 0.000000 0.000000 0.000000 0.000000 0.030933
#
#
# Mechanical properties :
#
#
# Convention : Reuss Voigt Hill
#
# Bulk Modulus (GPa) = 35.52957 38.29728 36.91343
# Shear Modulus (GPa) = 22.64580 26.03901 24.34241
#
# Velocity S-wave (km/s) = 3.35925 3.60215 3.48282
# Velocity P-wave (km/s) = 5.72283 6.03195 5.87942
#
# Compressibility (1/GPa) = 0.02814557
#
# Stress axis : x y z
#
# Youngs Moduli (GPa) = 66.51103 66.51103 94.60219
#
# Poissons Ratio (x) = 0.02868 0.27512
# Poissons Ratio (y) = 0.02868 0.27512
# Poissons Ratio (z) = 0.19343 0.19343
#
# Static dielectric constant tensor:
#      x y z
#    x 1.754520 0.000000 0.000000 
#    y 0.000000 1.754520 0.000000 
#    z 0.000000 0.000000 1.688140 
# 
# From -- ./inp_files/4165.got.cif
#   From: 2010.05.17/outbox.cif.g08.bks.cpg/sg176_3_cif.got.tgz:4165.got - 2010.06.03 11:36:45.
