data_PCOD9582136
_publ_section_title
;
Structure prediction by ZEFSAII (Michael W. Deem and Ramdas Pophale) SiO2 
 PCOD9582136
Probable space group: P 63/M
;
_chemical_formula_sum "Si O2"
_cell_formula_units_Z 24
_cell_length_a 11.569795
_cell_length_b 11.569795
_cell_length_c 8.554826
_cell_angle_alpha 90.000000
_cell_angle_beta 90.000000
_cell_angle_gamma 120.000000
_cell_volume 991.729291
_symmetry_space_group_name_H-M "P 63/M"
_symmetry_group_IT_number 176
_symmetry_cell_setting 'hexagonal'
loop_
_space_group_symop_operation_xyz
x,y,z
x-y,x,1/2+z
-y,x-y,z
-x,-y,1/2+z
-x+y,-x,z
y,-x+y,1/2+z
-x,-y,-z
-x+y,-x,1/2-z
y,-x+y,-z
x,y,1/2-z
x-y,x,-z
-y,x-y,1/2-z
loop_
_atom_site_type_symbol
_atom_site_label
_atom_site_fract_x
_atom_site_fract_y
_atom_site_fract_z
Si Si1 0.241887 0.985253 0.570725
Si Si2 0.469484 0.641760 0.066295
O O1 0.254239 0.028573 0.750000
O O2 0.348844 0.937802 0.533368
O O3 0.099673 0.852775 0.538595
O O4 0.464504 0.778996 0.037180
O O5 0.495800 0.637288 0.250000
#
# Coordination Sequence:
#
# PCOD9582136 Si02
#       2
#    12  12
#     4  12  25  41  62  87 120 158 201 246 296 354
#     4   8  18  39  64  91 122 154 195 244 293 348
#
# _framework density 24.200153
#
# number of rings (size 3 to 8) (size 9 to 14) (size 15 to 20)
#    1.000    1.000    0.000    5.000    0.000    4.000 
#    0.000    0.000    0.000    0.000    0.000    0.000 
#    0.000    0.000    0.000    0.000    0.000    0.000 
#
# Total GULP energy -134190.675461 kJ/mol
# GULP energy per Si atom -5591.278144 kJ/mol
# Density = 2.414507 g / cm^3
# Si number density = 24.200153 Si / 1000 Ang^3
#
#
#
# Elastic Constant Matrix: (Units=GPa)
#
#
# Indices 1 2 3 4 5 6 
#
# 1 68.5460 -8.2638 8.5319 0.0000 0.0000 0.0000
# 2 -8.2638 68.5460 8.5319 0.0000 0.0000 0.0000
# 3 8.5319 8.5319 37.4962 0.0000 0.0000 0.0000
# 4 0.0000 0.0000 0.0000 35.4259 0.0000 0.0000
# 5 0.0000 0.0000 0.0000 0.0000 35.4259 0.0000
# 6 0.0000 0.0000 0.0000 0.0000 0.0000 38.4049
#
#
#
# Elastic Compliance Matrix: (Units=1/GPa)
#
#
# Indices 1 2 3 4 5 6 
#
# 1 0.015375 0.002356 -0.004034 0.000000 0.000000 0.000000
# 2 0.002356 0.015375 -0.004034 0.000000 0.000000 0.000000
# 3 -0.004034 -0.004034 0.028505 0.000000 0.000000 0.000000
# 4 0.000000 0.000000 0.000000 0.028228 0.000000 0.000000
# 5 0.000000 0.000000 0.000000 0.000000 0.028228 0.000000
# 6 0.000000 0.000000 0.000000 0.000000 0.000000 0.026038
#
#
# Mechanical properties :
#
#
# Convention : Reuss Voigt Hill
#
# Bulk Modulus (GPa) = 20.90783 21.35422 21.13102
# Shear Modulus (GPa) = 29.56507 32.90392 31.23450
#
# Velocity S-wave (km/s) = 3.49906 3.69135 3.59649
# Velocity P-wave (km/s) = 4.99829 5.19724 5.09873
#
# Compressibility (1/GPa) = 0.04782897
#
# Stress axis : x y z
#
# Youngs Moduli (GPa) = 65.04105 65.04105 35.08113
#
# Poissons Ratio (x) = -0.15322 0.14153
# Poissons Ratio (y) = -0.15322 0.14153
# Poissons Ratio (z) = 0.26240 0.26240
#
# Static dielectric constant tensor:
#      x y z
#    x 2.011690 0.000000 0.000000 
#    y 0.000000 2.011690 0.000000 
#    z 0.000000 0.000000 1.781120 
# 
# From -- ./inp_files/245.got.cif
#   From: 2010.05.17/outbox.cif.g08.bks.cpg/sg176_1_cif.got.tgz:245.got - 2010.06.03 11:36:45.
