data_PCOD9582497
_publ_section_title
;
Structure prediction by ZEFSAII (Michael W. Deem and Ramdas Pophale) SiO2 
 PCOD9582497
Probable space group: P 61 2 2
;
_chemical_formula_sum "Si O2"
_cell_formula_units_Z 48
_cell_length_a 15.158128
_cell_length_b 15.158128
_cell_length_c 14.044073
_cell_angle_alpha 90.000000
_cell_angle_beta 90.000000
_cell_angle_gamma 120.000000
_cell_volume 2794.569083
_symmetry_space_group_name_H-M "P 61 2 2"
_symmetry_group_IT_number 178
_symmetry_cell_setting 'hexagonal'
loop_
_space_group_symop_operation_xyz
x,y,z
x-y,x,1/6+z
-y,x-y,1/3+z
-x,-y,1/2+z
-x+y,-x,2/3+z
y,-x+y,5/6+z
x-y,-y,-z
-x,-x+y,2/3-z
y,x,1/3-z
-y,-x,5/6-z
-x+y,y,1/2-z
x,x-y,1/6-z
loop_
_atom_site_type_symbol
_atom_site_label
_atom_site_fract_x
_atom_site_fract_y
_atom_site_fract_z
Si Si1 0.609694 0.729521 0.155446
Si Si2 0.400687 0.530259 0.089621
Si Si3 0.525429 0.905770 0.633580
Si Si4 0.482307 0.193890 0.315444
O O1 0.684883 0.684883 0.166667
O O2 0.644089 0.822045 0.083334
O O3 0.502912 0.635415 0.114318
O O4 0.589717 0.758474 0.260394
O O5 0.351875 0.472076 0.189723
O O6 0.432011 0.458608 0.031182
O O7 0.313874 0.541821 0.037611
O O8 0.569028 0.866554 0.717390
O O9 0.404692 0.847145 0.654538
#
# Coordination Sequence:
#
# PCOD9582497 Si02
#       4
#    12  12  12  12
#     4  11  24  40  54  84 120 153 204 247 298 361
#     4  10  19  37  55  79 120 161 190 257 285 354
#     4   9  19  35  51  81 118 142 210 240 289 359
#     4  10  20  32  56  74 108 161 195 240 299 344
#
# _framework density 17.176172000000001
#
# number of rings (size 3 to 8) (size 9 to 14) (size 15 to 20)
#    0.000    2.000    5.000    0.750    7.000    1.000 
#    0.000    0.000    0.000    0.000    0.000    0.000 
#    7.500    0.000    0.000    0.000    0.000    0.000 
#
# Total GULP energy -267479.974150 kJ/mol
# GULP energy per Si atom -5572.499461 kJ/mol
# Density = 1.713708 g / cm^3
# Si number density = 17.176172 Si / 1000 Ang^3
#
#
#
# Elastic Constant Matrix: (Units=GPa)
#
#
# Indices 1 2 3 4 5 6 
#
# 1 79.5421 31.6189 47.3199 0.0000 0.0000 0.0000
# 2 31.6189 79.5421 47.3199 0.0000 0.0000 0.0000
# 3 47.3199 47.3199 85.6002 0.0000 0.0000 0.0000
# 4 0.0000 0.0000 0.0000 24.3266 0.0000 0.0000
# 5 0.0000 0.0000 0.0000 0.0000 24.3266 0.0000
# 6 0.0000 0.0000 0.0000 0.0000 0.0000 23.9616
#
#
#
# Elastic Compliance Matrix: (Units=1/GPa)
#
#
# Indices 1 2 3 4 5 6 
#
# 1 0.018930 -0.001936 -0.009394 0.000000 0.000000 0.000000
# 2 -0.001936 0.018930 -0.009394 0.000000 0.000000 0.000000
# 3 -0.009394 -0.009394 0.022069 0.000000 0.000000 0.000000
# 4 0.000000 0.000000 0.000000 0.041107 0.000000 0.000000
# 5 0.000000 0.000000 0.000000 0.000000 0.041107 0.000000
# 6 0.000000 0.000000 0.000000 0.000000 0.000000 0.041733
#
#
# Mechanical properties :
#
#
# Convention : Reuss Voigt Hill
#
# Bulk Modulus (GPa) = 54.11432 55.24465 54.67949
# Shear Modulus (GPa) = 21.59946 22.41801 22.00874
#
# Velocity S-wave (km/s) = 3.55001 3.61665 3.58348
# Velocity P-wave (km/s) = 6.95538 7.04795 7.00181
#
# Compressibility (1/GPa) = 0.01847940
#
# Stress axis : x y z
#
# Youngs Moduli (GPa) = 52.82507 52.82507 45.31315
#
# Poissons Ratio (x) = 0.10229 0.42569
# Poissons Ratio (y) = 0.10229 0.42569
# Poissons Ratio (z) = 0.49626 0.49626
#
# Static dielectric constant tensor:
#      x y z
#    x 1.610620 0.000000 0.000000 
#    y 0.000000 1.610620 0.000000 
#    z 0.000000 0.000000 1.690550 
# 
# From -- ./inp_files/5400.got.cif
#   From: 2010.05.17/outbox.cif.g08.bks.cpg/sg178_3_cif.got.tgz:5400.got - 2010.05.20 11:30:59.
