data_PCOD9582971
_publ_section_title
;
Structure prediction by ZEFSAII (Michael W. Deem and Ramdas Pophale) SiO2 
 PCOD9582971
Probable space group: P 61 2 2
;
_chemical_formula_sum "Si O2"
_cell_formula_units_Z 48
_cell_length_a 14.644546
_cell_length_b 14.644546
_cell_length_c 13.945268
_cell_angle_alpha 90.000000
_cell_angle_beta 90.000000
_cell_angle_gamma 120.000000
_cell_volume 2590.056999
_symmetry_space_group_name_H-M "P 61 2 2"
_symmetry_group_IT_number 178
_symmetry_cell_setting 'hexagonal'
loop_
_space_group_symop_operation_xyz
x,y,z
x-y,x,1/6+z
-y,x-y,1/3+z
-x,-y,1/2+z
-x+y,-x,2/3+z
y,-x+y,5/6+z
x-y,-y,-z
-x,-x+y,2/3-z
y,x,1/3-z
-y,-x,5/6-z
-x+y,y,1/2-z
x,x-y,1/6-z
loop_
_atom_site_type_symbol
_atom_site_label
_atom_site_fract_x
_atom_site_fract_y
_atom_site_fract_z
Si Si1 0.374187 0.048301 0.212203
Si Si2 0.760689 0.363183 0.327163
Si Si3 0.489776 0.422470 0.763073
Si Si4 0.106162 0.366106 0.398148
O O1 0.476223 0.067066 0.147267
O O2 0.406168 0.038427 0.319923
O O3 0.352422 0.146205 0.207071
O O4 0.276681 0.942556 0.170645
O O5 0.713694 0.286307 0.416667
O O6 0.676223 0.352446 0.250000
O O7 0.817785 0.472669 0.384682
O O8 0.844493 0.336784 0.279186
O O9 0.453087 0.453087 0.666667
O O10 0.000000 0.300843 0.333334
#
# Coordination Sequence:
#
# PCOD9582971 Si02
#       4
#    12  12  12  12
#     4  11  23  39  63  88 127 170 214 275 328 381
#     4  12  22  34  54  88 128 170 215 261 314 391
#     4  11  22  39  57  87 129 169 213 261 321 399
#     4  12  21  40  63  89 126 171 221 274 322 381
#
# _framework density 18.532409000000001
#
# number of rings (size 3 to 8) (size 9 to 14) (size 15 to 20)
#    0.000    0.500    7.500    2.250    0.000    4.000 
#    0.000    0.000    0.000    0.000    0.000    8.750 
#    0.000    0.000    0.000    0.000    0.000    0.000 
#
# Total GULP energy -267259.559676 kJ/mol
# GULP energy per Si atom -5567.907493 kJ/mol
# Density = 1.849023 g / cm^3
# Si number density = 18.532409 Si / 1000 Ang^3
#
#
#
# Elastic Constant Matrix: (Units=GPa)
#
#
# Indices 1 2 3 4 5 6 
#
# 1 84.2875 40.7484 63.3202 0.0000 0.0000 0.0000
# 2 40.7484 84.2875 63.3202 0.0000 0.0000 0.0000
# 3 63.3202 63.3202 143.6456 0.0000 0.0000 0.0000
# 4 0.0000 0.0000 0.0000 23.6063 0.0000 0.0000
# 5 0.0000 0.0000 0.0000 0.0000 23.6063 0.0000
# 6 0.0000 0.0000 0.0000 0.0000 0.0000 21.7696
#
#
#
# Elastic Compliance Matrix: (Units=1/GPa)
#
#
# Indices 1 2 3 4 5 6 
#
# 1 0.018708 -0.004260 -0.006369 0.000000 0.000000 0.000000
# 2 -0.004260 0.018708 -0.006369 0.000000 0.000000 0.000000
# 3 -0.006369 -0.006369 0.012577 0.000000 0.000000 0.000000
# 4 0.000000 0.000000 0.000000 0.042362 0.000000 0.000000
# 5 0.000000 0.000000 0.000000 0.000000 0.042362 0.000000
# 6 0.000000 0.000000 0.000000 0.000000 0.000000 0.045936
#
#
# Mechanical properties :
#
#
# Convention : Reuss Voigt Hill
#
# Bulk Modulus (GPa) = 62.50982 71.88868 67.19925
# Shear Modulus (GPa) = 22.72939 23.45189 23.09064
#
# Velocity S-wave (km/s) = 3.50589 3.56118 3.53365
# Velocity P-wave (km/s) = 7.08460 7.46889 7.27928
#
# Compressibility (1/GPa) = 0.01599749
#
# Stress axis : x y z
#
# Youngs Moduli (GPa) = 53.45266 53.45266 79.51286
#
# Poissons Ratio (x) = 0.22769 0.50642
# Poissons Ratio (y) = 0.22769 0.50642
# Poissons Ratio (z) = 0.34044 0.34044
#
# Static dielectric constant tensor:
#      x y z
#    x 1.700110 0.000000 0.000000 
#    y 0.000000 1.700110 0.000000 
#    z 0.000000 0.000000 1.682750 
# 
# From -- ./inp_files/5451.got.cif
#   From: 2010.05.17/outbox.cif.g08.bks.cpg/sg178_3_cif.got.tgz:5451.got - 2010.05.20 11:30:59.
