data_PCOD9582550
_publ_section_title
;
Structure prediction by ZEFSAII (Michael W. Deem and Ramdas Pophale) SiO2 
 PCOD9582550
Probable space group: P 61 2 2
;
_chemical_formula_sum "Si O2"
_cell_formula_units_Z 60
_cell_length_a 17.958561
_cell_length_b 17.958561
_cell_length_c 10.648977
_cell_angle_alpha 90.000000
_cell_angle_beta 90.000000
_cell_angle_gamma 120.000000
_cell_volume 2974.278208
_symmetry_space_group_name_H-M "P 61 2 2"
_symmetry_group_IT_number 178
_symmetry_cell_setting 'hexagonal'
loop_
_space_group_symop_operation_xyz
x,y,z
x-y,x,1/6+z
-y,x-y,1/3+z
-x,-y,1/2+z
-x+y,-x,2/3+z
y,-x+y,5/6+z
x-y,-y,-z
-x,-x+y,2/3-z
y,x,1/3-z
-y,-x,5/6-z
-x+y,y,1/2-z
x,x-y,1/6-z
loop_
_atom_site_type_symbol
_atom_site_label
_atom_site_fract_x
_atom_site_fract_y
_atom_site_fract_z
Si Si1 0.470764 0.610542 0.791613
Si Si2 0.460906 0.696058 0.454861
Si Si3 0.651371 0.720965 0.866114
Si Si4 0.561297 0.659235 0.135648
Si Si5 0.121363 0.355687 0.051843
O O1 0.458863 0.693332 0.805732
O O2 0.573256 0.651533 0.777705
O O3 0.397468 0.542033 0.699688
O O4 0.445749 0.554252 0.916667
O O5 0.400967 0.599034 0.416667
O O6 0.427643 0.713822 0.583334
O O7 0.559652 0.724035 0.471611
O O8 0.729198 0.703682 0.896245
O O9 0.679779 0.813242 0.803773
O O10 0.603235 0.705710 0.002906
O O11 0.589647 0.589647 0.166667
O O12 0.603902 0.725238 0.249088
#
# Coordination Sequence:
#
# PCOD9582550 Si02
#       5
#    12  12  12  12  12
#     4   9  18  31  46  68  99 139 179 215 256 305
#     4  11  22  33  48  72 103 143 184 223 262 307
#     4   9  19  33  52  76 105 137 178 225 275 326
#     4   9  17  30  51  75 103 140 175 217 266 319
#     4  10  20  35  52  75 106 141 182 226 274 327
#
# _framework density 20.172961000000001
#
# number of rings (size 3 to 8) (size 9 to 14) (size 15 to 20)
#    0.000    2.400    0.000    2.400    0.000    8.800 
#    0.000    3.000    0.000    0.000    0.000    0.000 
#    0.000   28.800    0.000    0.000    0.000    0.000 
#
# Total GULP energy -334177.007566 kJ/mol
# GULP energy per Si atom -5569.616793 kJ/mol
# Density = 2.012705 g / cm^3
# Si number density = 20.172961 Si / 1000 Ang^3
#
#
#
# Elastic Constant Matrix: (Units=GPa)
#
#
# Indices 1 2 3 4 5 6 
#
# 1 116.0807 76.1291 12.8687 0.0000 0.0000 0.0000
# 2 76.1291 116.0807 12.8687 0.0000 0.0000 0.0000
# 3 12.8687 12.8687 29.1065 0.0000 0.0000 0.0000
# 4 0.0000 0.0000 0.0000 15.0166 0.0000 0.0000
# 5 0.0000 0.0000 0.0000 0.0000 15.0166 0.0000
# 6 0.0000 0.0000 0.0000 0.0000 0.0000 19.9758
#
#
#
# Elastic Compliance Matrix: (Units=1/GPa)
#
#
# Indices 1 2 3 4 5 6 
#
# 1 0.015280 -0.009750 -0.002445 0.000000 0.000000 0.000000
# 2 -0.009750 0.015280 -0.002445 0.000000 0.000000 0.000000
# 3 -0.002445 -0.002445 0.036519 0.000000 0.000000 0.000000
# 4 0.000000 0.000000 0.000000 0.066593 0.000000 0.000000
# 5 0.000000 0.000000 0.000000 0.000000 0.066593 0.000000
# 6 0.000000 0.000000 0.000000 0.000000 0.000000 0.050061
#
#
# Mechanical properties :
#
#
# Convention : Reuss Voigt Hill
#
# Bulk Modulus (GPa) = 26.45589 51.66677 39.06133
# Shear Modulus (GPa) = 17.11126 20.62855 18.86990
#
# Velocity S-wave (km/s) = 2.91559 3.20126 3.06176
# Velocity P-wave (km/s) = 4.94745 6.27149 5.64840
#
# Compressibility (1/GPa) = 0.03779876
#
# Stress axis : x y z
#
# Youngs Moduli (GPa) = 65.44430 65.44430 27.38334
#
# Poissons Ratio (x) = 0.63809 0.06695
# Poissons Ratio (y) = 0.63809 0.06695
# Poissons Ratio (z) = 0.16001 0.16001
#
# Static dielectric constant tensor:
#      x y z
#    x 1.723040 0.000000 0.000000 
#    y 0.000000 1.723040 0.000000 
#    z 0.000000 0.000000 1.817630 
# 
# From -- ./inp_files/4508.got.cif
#   From: 2010.05.17/outbox.cif.g08.bks.cpg/sg178_3_cif.got.tgz:4508.got - 2010.05.20 11:30:59.
