data_PCOD9582837
_publ_section_title
;
Structure prediction by ZEFSAII (Michael W. Deem and Ramdas Pophale) SiO2 
 PCOD9582837
Probable space group: P 61 2 2
;
_chemical_formula_sum "Si O2"
_cell_formula_units_Z 54
_cell_length_a 15.197500
_cell_length_b 15.197500
_cell_length_c 13.861395
_cell_angle_alpha 90.000000
_cell_angle_beta 90.000000
_cell_angle_gamma 120.000000
_cell_volume 2772.565886
_symmetry_space_group_name_H-M "P 61 2 2"
_symmetry_group_IT_number 178
_symmetry_cell_setting 'hexagonal'
loop_
_space_group_symop_operation_xyz
x,y,z
x-y,x,1/6+z
-y,x-y,1/3+z
-x,-y,1/2+z
-x+y,-x,2/3+z
y,-x+y,5/6+z
x-y,-y,-z
-x,-x+y,2/3-z
y,x,1/3-z
-y,-x,5/6-z
-x+y,y,1/2-z
x,x-y,1/6-z
loop_
_atom_site_type_symbol
_atom_site_label
_atom_site_fract_x
_atom_site_fract_y
_atom_site_fract_z
Si Si1 0.461286 0.530733 0.761245
Si Si2 0.557121 0.273728 0.973860
Si Si3 0.859368 0.000000 0.500000
Si Si4 0.622608 0.945566 0.256133
Si Si5 0.664363 0.818896 0.398809
O O1 0.484477 0.484477 0.666667
O O2 0.425474 0.610155 0.732263
O O3 0.375991 0.449199 0.831641
O O4 0.565579 0.596023 0.823056
O O5 0.622537 0.377464 0.916667
O O6 0.437675 0.229514 0.962093
O O7 0.589423 0.294712 0.083334
O O8 0.887105 0.943553 0.583334
O O9 0.755697 0.916751 0.449102
O O10 0.636270 0.854290 0.298950
O O11 0.731781 0.038273 0.228259
#
# Coordination Sequence:
#
# PCOD9582837 Si02
#       5
#    12  12   6  12  12
#     4  10  23  41  63  95 138 178 224 276 337 413
#     4  11  26  38  65  97 135 177 225 272 337 410
#     4  12  24  44  76 106 134 178 230 304 350 400
#     4  10  23  39  66  95 132 172 222 279 341 409
#     4  11  23  41  68 100 134 169 227 282 346 399
#
# _framework density 19.476544000000001
#
# number of rings (size 3 to 8) (size 9 to 14) (size 15 to 20)
#    0.000    1.333    2.222    2.000   18.667    0.000 
#    0.000    0.000    2.444    0.000    0.000    0.000 
#    0.000    0.000    0.000    0.000    0.000    0.000 
#
# Total GULP energy -301694.380853 kJ/mol
# GULP energy per Si atom -5586.932979 kJ/mol
# Density = 1.943221 g / cm^3
# Si number density = 19.476544 Si / 1000 Ang^3
#
#
#
# Elastic Constant Matrix: (Units=GPa)
#
#
# Indices 1 2 3 4 5 6 
#
# 1 276.0489 -143.9489 36.6796 0.0000 0.0000 0.0000
# 2 -143.9489 276.0489 36.6796 0.0000 0.0000 0.0000
# 3 36.6796 36.6796 103.8600 0.0000 0.0000 0.0000
# 4 0.0000 0.0000 0.0000 24.6819 0.0000 0.0000
# 5 0.0000 0.0000 0.0000 0.0000 24.6819 0.0000
# 6 0.0000 0.0000 0.0000 0.0000 0.0000 209.9989
#
#
#
# Elastic Compliance Matrix: (Units=1/GPa)
#
#
# Indices 1 2 3 4 5 6 
#
# 1 0.005899 0.003518 -0.003326 0.000000 0.000000 0.000000
# 2 0.003518 0.005899 -0.003326 0.000000 0.000000 0.000000
# 3 -0.003326 -0.003326 0.011977 0.000000 0.000000 0.000000
# 4 0.000000 0.000000 0.000000 0.040516 0.000000 0.000000
# 5 0.000000 0.000000 0.000000 0.000000 0.040516 0.000000
# 6 0.000000 0.000000 0.000000 0.000000 0.000000 0.004762
#
#
# Mechanical properties :
#
#
# Convention : Reuss Voigt Hill
#
# Bulk Modulus (GPa) = 57.11564 57.19761 57.15663
# Shear Modulus (GPa) = 41.09434 100.30904 70.70169
#
# Velocity S-wave (km/s) = 4.59839 7.18431 6.03156
# Velocity P-wave (km/s) = 7.58832 9.91213 8.82703
#
# Compressibility (1/GPa) = 0.01750834
#
# Stress axis : x y z
#
# Youngs Moduli (GPa) = 169.52253 169.52253 83.49078
#
# Poissons Ratio (x) = -0.59637 0.27767
# Poissons Ratio (y) = -0.59637 0.27767
# Poissons Ratio (z) = 0.56378 0.56378
#
# Static dielectric constant tensor:
#      x y z
#    x 1.635000 0.000000 0.000000 
#    y 0.000000 1.635000 0.000000 
#    z 0.000000 0.000000 1.694360 
# 
# From -- ./inp_files/5565.got.cif
#   From: 2010.05.17/outbox.cif.g08.bks.cpg/sg178_3_cif.got.tgz:5565.got - 2010.05.20 11:30:59.
