data_PCOD9582249
_publ_section_title
;
Structure prediction by ZEFSAII (Michael W. Deem and Ramdas Pophale) SiO2 
 PCOD9582249
Probable space group: P 6 2 2
;
_chemical_formula_sum "Si O2"
_cell_formula_units_Z 84
_cell_length_a 18.339396
_cell_length_b 18.339396
_cell_length_c 16.456758
_cell_angle_alpha 90.000000
_cell_angle_beta 90.000000
_cell_angle_gamma 120.000000
_cell_volume 4793.414343
_symmetry_space_group_name_H-M "P 6 2 2"
_symmetry_group_IT_number 177
_symmetry_cell_setting 'hexagonal'
loop_
_space_group_symop_operation_xyz
x,y,z
x-y,x,z
-y,x-y,z
-x,-y,z
-x+y,-x,z
y,-x+y,z
x-y,-y,-z
-x,-x+y,-z
y,x,-z
-y,-x,-z
-x+y,y,-z
x,x-y,-z
loop_
_atom_site_type_symbol
_atom_site_label
_atom_site_fract_x
_atom_site_fract_y
_atom_site_fract_z
Si Si1 0.501597 0.666123 0.631433
Si Si2 0.838447 0.333436 0.824936
Si Si3 0.168518 0.168518 0.098915
Si Si4 0.501597 0.666123 0.368567
Si Si5 0.093736 0.737113 0.500000
Si Si6 0.337946 0.337946 0.097484
Si Si7 0.666564 0.161553 0.824936
O O1 0.424400 0.575600 0.608330
O O2 0.476807 0.738404 0.617589
O O3 0.583453 0.693205 0.577683
O O4 0.517382 0.665576 0.727497
O O5 0.851806 0.334424 0.727497
O O6 0.917044 0.336286 0.869446
O O7 0.751696 0.248304 0.844550
O O8 0.831587 0.415793 0.844542
O O9 0.084402 0.168804 0.125459
O O10 0.253030 0.253030 0.123584
O O11 0.167519 0.167519 0.000000
O O12 0.583453 0.693205 0.422317
O O13 0.166120 0.833881 0.500000
O O14 0.000000 0.719572 0.500000
O O15 0.336286 0.419243 0.130554
O O16 0.340054 0.340054 0.000000
#
# Coordination Sequence:
#
# PCOD9582249 Si02
#       7
#    12  12  12  12  12  12  12
#     4   9  18  32  52  79 111 145 177 210 251 304
#     4  10  21  37  56  77 105 142 184 225 268 321
#     4   9  17  31  53  79 104 129 159 200 256 324
#     4   9  18  32  52  79 111 145 177 210 251 304
#     4  10  21  35  53  80 111 143 178 216 261 309
#     4  11  23  37  53  76 105 137 175 227 285 332
#     4  10  21  37  56  77 105 142 184 225 268 321
#
# _framework density 17.524042999999999
#
# number of rings (size 3 to 8) (size 9 to 14) (size 15 to 20)
#    0.000    2.286    0.000    2.429    2.000    6.857 
#    0.000    1.429    0.000    1.857    0.000    0.000 
#    0.000    0.000    0.000    0.000    0.000    0.000 
#
# Total GULP energy -468927.033645 kJ/mol
# GULP energy per Si atom -5582.464686 kJ/mol
# Density = 1.748416 g / cm^3
# Si number density = 17.524043 Si / 1000 Ang^3
#
#
#
# Elastic Constant Matrix: (Units=GPa)
#
#
# Indices 1 2 3 4 5 6 
#
# 1 157.9289 104.9162 49.8734 0.0000 0.0000 0.0000
# 2 104.9162 157.9289 49.8734 0.0000 0.0000 0.0000
# 3 49.8734 49.8734 35.1396 0.0000 0.0000 0.0000
# 4 0.0000 0.0000 0.0000 19.0385 0.0000 0.0000
# 5 0.0000 0.0000 0.0000 0.0000 19.0385 0.0000
# 6 0.0000 0.0000 0.0000 0.0000 0.0000 26.5063
#
#
#
# Elastic Compliance Matrix: (Units=1/GPa)
#
#
# Indices 1 2 3 4 5 6 
#
# 1 0.013555 -0.005309 -0.011703 0.000000 0.000000 0.000000
# 2 -0.005309 0.013555 -0.011703 0.000000 0.000000 0.000000
# 3 -0.011703 -0.011703 0.061678 0.000000 0.000000 0.000000
# 4 0.000000 0.000000 0.000000 0.052525 0.000000 0.000000
# 5 0.000000 0.000000 0.000000 0.000000 0.052525 0.000000
# 6 0.000000 0.000000 0.000000 0.000000 0.000000 0.037727
#
#
# Mechanical properties :
#
#
# Convention : Reuss Voigt Hill
#
# Bulk Modulus (GPa) = 31.89054 84.48035 58.18545
# Shear Modulus (GPa) = 16.69744 22.67228 19.68486
#
# Velocity S-wave (km/s) = 3.09014 3.60082 3.35521
# Velocity P-wave (km/s) = 5.56504 8.09943 6.94876
#
# Compressibility (1/GPa) = 0.03135726
#
# Stress axis : x y z
#
# Youngs Moduli (GPa) = 73.77589 73.77589 16.21318
#
# Poissons Ratio (x) = 0.39166 0.18974
# Poissons Ratio (y) = 0.39166 0.18974
# Poissons Ratio (z) = 0.86341 0.86341
#
# Static dielectric constant tensor:
#      x y z
#    x 1.575420 0.000000 0.000000 
#    y 0.000000 1.575420 0.000000 
#    z 0.000000 0.000000 1.596140 
# 
# From -- ./inp_files/2621.got.cif
#   From: 2010.05.17/outbox.cif.g08.bks.cpg/sg177_2_cif.got.tgz:2621.got - 2010.05.20 11:28:44.
