data_PCOD9582721
_publ_section_title
;
Structure prediction by ZEFSAII (Michael W. Deem and Ramdas Pophale) SiO2 
 PCOD9582721
Probable space group: P 61 2 2
;
_chemical_formula_sum "Si O2"
_cell_formula_units_Z 84
_cell_length_a 20.938919
_cell_length_b 20.938919
_cell_length_c 11.403156
_cell_angle_alpha 90.000000
_cell_angle_beta 90.000000
_cell_angle_gamma 120.000000
_cell_volume 4329.763860
_symmetry_space_group_name_H-M "P 61 2 2"
_symmetry_group_IT_number 178
_symmetry_cell_setting 'hexagonal'
loop_
_space_group_symop_operation_xyz
x,y,z
x-y,x,1/6+z
-y,x-y,1/3+z
-x,-y,1/2+z
-x+y,-x,2/3+z
y,-x+y,5/6+z
x-y,-y,-z
-x,-x+y,2/3-z
y,x,1/3-z
-y,-x,5/6-z
-x+y,y,1/2-z
x,x-y,1/6-z
loop_
_atom_site_type_symbol
_atom_site_label
_atom_site_fract_x
_atom_site_fract_y
_atom_site_fract_z
Si Si1 0.712710 0.287291 0.916667
Si Si2 0.549647 0.220574 0.983963
Si Si3 0.779776 0.083705 0.468953
Si Si4 0.351739 0.901651 0.845084
Si Si5 0.946827 0.538046 0.092017
Si Si6 0.748083 0.592318 0.486082
Si Si7 0.414927 0.000000 0.500000
Si Si8 0.156359 0.456454 0.917371
O O1 0.623900 0.252805 0.906977
O O2 0.771868 0.293675 0.816678
O O3 0.481125 0.201462 0.899661
O O4 0.561030 0.280515 0.083334
O O5 0.516131 0.144422 0.061407
O O6 0.860272 0.139729 0.416667
O O7 0.720263 0.094193 0.388799
O O8 0.769648 0.111622 0.593817
O O9 0.756543 0.000000 0.500000
O O10 0.334294 0.861898 0.716931
O O11 0.414516 0.986711 0.830833
O O12 0.899845 0.449923 0.083334
O O13 0.988040 0.544241 0.212436
O O14 0.896068 0.574070 0.091356
O O15 0.820057 0.604990 0.422190
O O16 0.342698 0.921150 0.518400
#
# Coordination Sequence:
#
# PCOD9582721 Si02
#       8
#     6  12  12  12  12  12   6  12
#     4  12  30  38  60  84 124 162 230 270 328 398
#     4  11  25  42  58  86 118 166 214 268 328 397
#     4  11  20  39  66 103 130 163 210 266 320 402
#     4  10  21  42  64  86 123 170 215 266 337 382
#     4  11  25  38  63  88 120 164 211 273 326 398
#     4  11  22  40  66  90 124 164 210 264 340 383
#     4  10  26  44  60  86 116 158 218 260 340 394
#     4  11  23  44  61  86 122 165 207 277 332 394
#
# _framework density 19.400596
#
# number of rings (size 3 to 8) (size 9 to 14) (size 15 to 20)
#    0.000    1.143    4.286    1.714   10.000    1.143 
#    0.000    0.000    0.000    0.000    0.000    0.000 
#    2.143    0.000    0.000    0.000    0.000    0.000 
#
# Total GULP energy -467619.646132 kJ/mol
# GULP energy per Si atom -5566.900549 kJ/mol
# Density = 1.935644 g / cm^3
# Si number density = 19.400596 Si / 1000 Ang^3
#
#
#
# Elastic Constant Matrix: (Units=GPa)
#
#
# Indices 1 2 3 4 5 6 
#
# 1 48.5462 69.4423 6.7064 0.0000 0.0000 0.0000
# 2 69.4423 48.5462 6.7064 0.0000 0.0000 0.0000
# 3 6.7064 6.7064 17.9069 0.0000 0.0000 0.0000
# 4 0.0000 0.0000 0.0000 13.1321 0.0000 0.0000
# 5 0.0000 0.0000 0.0000 0.0000 13.1321 0.0000
# 6 0.0000 0.0000 0.0000 0.0000 0.0000 -10.4480
#
#
#
# Elastic Compliance Matrix: (Units=1/GPa)
#
#
# Indices 1 2 3 4 5 6 
#
# 1 -0.019502 0.028354 -0.003315 0.000000 0.000000 0.000000
# 2 0.028354 -0.019502 -0.003315 0.000000 0.000000 0.000000
# 3 -0.003315 -0.003315 0.058328 0.000000 0.000000 0.000000
# 4 0.000000 0.000000 0.000000 0.076149 0.000000 0.000000
# 5 0.000000 0.000000 0.000000 0.000000 0.076149 0.000000
# 6 0.000000 0.000000 0.000000 0.000000 0.000000 -0.095712
#
#
# Mechanical properties :
#
#
# Convention : Reuss Voigt Hill
#
# Bulk Modulus (GPa) = 15.93096 31.18999 23.56047
# Shear Modulus (GPa) = 93.65471 5.30618 49.48044
#
# Velocity S-wave (km/s) = 6.95550 1.65560 5.05569
# Velocity P-wave (km/s) = 8.52846 4.44594 6.80077
#
# Compressibility (1/GPa) = 0.06277086
#
# Stress axis : x y z
#
# Youngs Moduli (GPa) = -51.27739 -51.27739 17.14454
#
# Poissons Ratio (x) = 1.45392 0.05684
# Poissons Ratio (y) = 1.45392 0.05684
# Poissons Ratio (z) = -0.17000 -0.17000
#
# Static dielectric constant tensor:
#      x y z
#    x 1.749580 0.000000 0.000000 
#    y 0.000000 1.749580 0.000000 
#    z 0.000000 0.000000 1.772560 
# 
# From -- ./inp_files/4821.got.cif
#   From: 2010.05.17/outbox.cif.g08.bks.cpg/sg178_3_cif.got.tgz:4821.got - 2010.05.20 11:30:59.
