data_PCOD9582844
_publ_section_title
;
Structure prediction by ZEFSAII (Michael W. Deem and Ramdas Pophale) SiO2 
 PCOD9582844
Probable space group: P 61 2 2
;
_chemical_formula_sum "Si O2"
_cell_formula_units_Z 42
_cell_length_a 7.941674
_cell_length_b 7.941674
_cell_length_c 32.848314
_cell_angle_alpha 90.000000
_cell_angle_beta 90.000000
_cell_angle_gamma 120.000000
_cell_volume 1794.187499
_symmetry_space_group_name_H-M "P 61 2 2"
_symmetry_group_IT_number 178
_symmetry_cell_setting 'hexagonal'
loop_
_space_group_symop_operation_xyz
x,y,z
x-y,x,1/6+z
-y,x-y,1/3+z
-x,-y,1/2+z
-x+y,-x,2/3+z
y,-x+y,5/6+z
x-y,-y,-z
-x,-x+y,2/3-z
y,x,1/3-z
-y,-x,5/6-z
-x+y,y,1/2-z
x,x-y,1/6-z
loop_
_atom_site_type_symbol
_atom_site_label
_atom_site_fract_x
_atom_site_fract_y
_atom_site_fract_z
Si Si1 0.855910 0.427955 0.083334
Si Si2 0.408868 0.841802 0.970102
Si Si3 0.967142 0.114212 0.459518
Si Si4 0.672105 0.221312 0.207942
O O1 0.707489 0.495665 0.098347
O O2 0.011517 0.535466 0.047690
O O3 0.243786 0.895630 0.958919
O O4 0.305329 0.655811 0.999425
O O5 0.563412 0.000000 0.000000
O O6 0.142550 0.335480 0.459357
O O7 0.963667 0.000000 0.500000
O O8 0.977536 0.022465 0.416667
O O9 0.663555 0.327110 0.250000
#
# Coordination Sequence:
#
# PCOD9582844 Si02
#       4
#     6  12  12  12
#     4  10  24  38  66  94 130 162 216 276 340 400
#     4  11  22  41  68  92 127 175 223 278 340 411
#     4  11  23  41  70  97 132 183 228 276 350 418
#     4  10  23  41  63  95 132 168 223 278 338 407
#
# _framework density 23.408925
#
# number of rings (size 3 to 8) (size 9 to 14) (size 15 to 20)
#    0.857    0.571    1.429    5.143    4.000    1.143 
#    0.000    0.000    0.000    0.000    0.000    0.000 
#    0.000    0.000    0.000    0.000    0.000    0.000 
#
# Total GULP energy -234249.798551 kJ/mol
# GULP energy per Si atom -5577.376156 kJ/mol
# Density = 2.335565 g / cm^3
# Si number density = 23.408925 Si / 1000 Ang^3
#
#
#
# Elastic Constant Matrix: (Units=GPa)
#
#
# Indices 1 2 3 4 5 6 
#
# 1 58.6369 9.9265 27.5220 0.0000 0.0000 0.0000
# 2 9.9265 58.6369 27.5220 0.0000 0.0000 0.0000
# 3 27.5220 27.5220 121.3077 0.0000 0.0000 0.0000
# 4 0.0000 0.0000 0.0000 29.5456 0.0000 0.0000
# 5 0.0000 0.0000 0.0000 0.0000 29.5456 0.0000
# 6 0.0000 0.0000 0.0000 0.0000 0.0000 24.3552
#
#
#
# Elastic Compliance Matrix: (Units=1/GPa)
#
#
# Indices 1 2 3 4 5 6 
#
# 1 0.019181 -0.001348 -0.004046 0.000000 0.000000 0.000000
# 2 -0.001348 0.019181 -0.004046 0.000000 0.000000 0.000000
# 3 -0.004046 -0.004046 0.010079 0.000000 0.000000 0.000000
# 4 0.000000 0.000000 0.000000 0.033846 0.000000 0.000000
# 5 0.000000 0.000000 0.000000 0.000000 0.033846 0.000000
# 6 0.000000 0.000000 0.000000 0.000000 0.000000 0.041059
#
#
# Mechanical properties :
#
#
# Convention : Reuss Voigt Hill
#
# Bulk Modulus (GPa) = 33.82725 40.94693 37.38709
# Shear Modulus (GPa) = 26.89226 28.26335 27.57780
#
# Velocity S-wave (km/s) = 3.39308 3.47850 3.43605
# Velocity P-wave (km/s) = 5.46192 5.80201 5.63453
#
# Compressibility (1/GPa) = 0.02956197
#
# Stress axis : x y z
#
# Youngs Moduli (GPa) = 52.13396 52.13396 99.21262
#
# Poissons Ratio (x) = 0.07029 0.40141
# Poissons Ratio (y) = 0.07029 0.40141
# Poissons Ratio (z) = 0.21093 0.21093
#
# Static dielectric constant tensor:
#      x y z
#    x 1.917600 0.000000 0.000000 
#    y 0.000000 1.917600 0.000000 
#    z 0.000000 0.000000 1.996920 
# 
# From -- ./inp_files/9260.got.cif
#   From: 2010.05.17/outbox.cif.g08.bks.cpg/sg178_5_cif.got.tgz:9260.got - 2010.05.20 11:30:59.
