data_PCOD9582204
_publ_section_title
;
Structure prediction by ZEFSAII (Michael W. Deem and Ramdas Pophale) SiO2 
 PCOD9582204
Probable space group: P 6 2 2
;
_chemical_formula_sum "Si O2"
_cell_formula_units_Z 59
_cell_length_a 14.742987
_cell_length_b 14.742987
_cell_length_c 16.399209
_cell_angle_alpha 90.000000
_cell_angle_beta 90.000000
_cell_angle_gamma 120.000000
_cell_volume 3086.913767
_symmetry_space_group_name_H-M "P 6 2 2"
_symmetry_group_IT_number 177
_symmetry_cell_setting 'hexagonal'
loop_
_space_group_symop_operation_xyz
x,y,z
x-y,x,z
-y,x-y,z
-x,-y,z
-x+y,-x,z
y,-x+y,z
x-y,-y,-z
-x,-x+y,-z
y,x,-z
-y,-x,-z
-x+y,y,-z
x,x-y,-z
loop_
_atom_site_type_symbol
_atom_site_label
_atom_site_fract_x
_atom_site_fract_y
_atom_site_fract_z
Si Si1 0.241002 0.758999 0.500000
Si Si2 0.924576 0.169044 0.838238
Si Si3 0.000000 0.328111 0.500000
Si Si4 0.812605 0.767639 0.656007
Si Si5 0.000000 0.500000 0.000000
Si Si6 0.666668 0.333335 0.184607
Si Si7 0.531969 0.825322 0.919178
Si Si8 0.666668 0.333334 0.620007
O O1 0.307259 0.883655 0.524042
O O2 0.255651 0.700826 0.578215
O O3 0.931297 0.213125 0.745927
O O4 0.874681 0.222627 0.892353
O O5 0.044421 0.196664 0.849917
O O6 0.042192 0.296701 0.420260
O O7 0.802159 0.869462 0.649980
O O8 0.076249 0.479920 0.056529
O O9 0.694482 0.247843 0.147864
O O10 0.666668 0.333334 0.282732
O O11 0.510856 0.755428 0.000000
#
# Coordination Sequence:
#
# PCOD9582204 Si02
#       8
#     6  12   6  12   3   4  12   4
#     4  10  24  46  66  96 134 176 220 284 338 410
#     4  10  23  40  65  98 141 181 222 270 330 410
#     4  12  20  35  67  92 132 172 218 279 336 395
#     4  10  19  33  54  93 133 177 220 264 323 395
#     4  12  24  44  68 100 134 174 216 272 358 396
#     4  12  26  47  75  97 131 172 231 296 341 408
#     4  12  24  46  71 102 135 176 222 287 345 412
#     4  10  28  49  67  91 125 178 238 277 343 400
#
# _framework density 19.112940999999999
#
# number of rings (size 3 to 8) (size 9 to 14) (size 15 to 20)
#    0.000    1.220    4.068    1.627    2.847    3.254 
#    0.000    1.017    0.000    1.220    0.000    0.000 
#    0.000    0.000    0.000    0.000    0.000    0.000 
#
# Total GULP energy -328459.537332 kJ/mol
# GULP energy per Si atom -5567.110802 kJ/mol
# Density = 1.906944 g / cm^3
# Si number density = 19.112941 Si / 1000 Ang^3
#
#
#
# Elastic Constant Matrix: (Units=GPa)
#
#
# Indices 1 2 3 4 5 6 
#
# 1 75.0501 29.7408 42.2813 -0.0001 -0.0001 -0.0001
# 2 29.7408 75.0500 42.2811 -0.0002 -0.0001 -0.0001
# 3 42.2813 42.2811 119.5507 -0.0002 0.0000 -0.0001
# 4 -0.0001 -0.0002 -0.0002 35.1407 0.0001 0.0000
# 5 -0.0001 -0.0001 0.0000 0.0001 35.1405 0.0000
# 6 -0.0001 -0.0001 -0.0001 0.0000 0.0000 22.6545
#
#
#
# Elastic Compliance Matrix: (Units=1/GPa)
#
#
# Indices 1 2 3 4 5 6 
#
# 1 0.017712 -0.004358 -0.004723 0.000000 0.000000 0.000000
# 2 -0.004358 0.017712 -0.004723 0.000000 0.000000 0.000000
# 3 -0.004723 -0.004723 0.011705 0.000000 0.000000 0.000000
# 4 0.000000 0.000000 0.000000 0.028457 0.000000 0.000000
# 5 0.000000 0.000000 0.000000 0.000000 0.028457 0.000000
# 6 0.000000 0.000000 0.000000 0.000000 0.000000 0.044141
#
#
# Mechanical properties :
#
#
# Convention : Reuss Voigt Hill
#
# Bulk Modulus (GPa) = 51.22474 55.36190 53.29332
# Shear Modulus (GPa) = 27.42721 28.94366 28.18543
#
# Velocity S-wave (km/s) = 3.79226 3.89568 3.84432
# Velocity P-wave (km/s) = 6.78485 7.01881 6.90282
#
# Compressibility (1/GPa) = 0.01952182
#
# Stress axis : x y z
#
# Youngs Moduli (GPa) = 56.45802 56.45805 85.43128
#
# Poissons Ratio (x) = 0.24606 0.40348
# Poissons Ratio (y) = 0.24606 0.40348
# Poissons Ratio (z) = 0.26665 0.26664
#
# Static dielectric constant tensor:
#      x y z
#    x 1.697590 0.000000 0.000000 
#    y 0.000000 1.697590 0.000000 
#    z 0.000000 0.000000 1.697130 
# 
# From -- ./inp_files/2480.got.cif
#   From: 2010.05.17/outbox.cif.g08.bks.cpg/sg177_2_cif.got.tgz:2480.got - 2010.05.20 11:28:44.
