data_PCOD9582538
_publ_section_title
;
Structure prediction by ZEFSAII (Michael W. Deem and Ramdas Pophale) SiO2 
 PCOD9582538
Probable space group: P 61 2 2
;
_chemical_formula_sum "Si O2"
_cell_formula_units_Z 42
_cell_length_a 24.141676
_cell_length_b 24.141676
_cell_length_c 5.104943
_cell_angle_alpha 90.000000
_cell_angle_beta 90.000000
_cell_angle_gamma 120.000000
_cell_volume 2576.655536
_symmetry_space_group_name_H-M "P 61 2 2"
_symmetry_group_IT_number 178
_symmetry_cell_setting 'hexagonal'
loop_
_space_group_symop_operation_xyz
x,y,z
x-y,x,1/6+z
-y,x-y,1/3+z
-x,-y,1/2+z
-x+y,-x,2/3+z
y,-x+y,5/6+z
x-y,-y,-z
-x,-x+y,2/3-z
y,x,1/3-z
-y,-x,5/6-z
-x+y,y,1/2-z
x,x-y,1/6-z
loop_
_atom_site_type_symbol
_atom_site_label
_atom_site_fract_x
_atom_site_fract_y
_atom_site_fract_z
Si Si1 0.042801 0.521401 0.083334
Si Si2 0.351184 0.576769 0.676878
Si Si3 0.723540 0.149438 0.935601
Si Si4 0.342966 0.416550 0.252579
O O1 0.079207 0.484953 0.177910
O O2 0.000000 0.517613 0.333334
O O3 0.387484 0.612517 0.416667
O O4 0.297412 0.594824 0.750000
O O5 0.312416 0.500613 0.649034
O O6 0.400730 0.599271 0.916667
O O7 0.798330 0.201670 0.916667
O O8 0.695705 0.118009 0.656058
O O9 0.701902 0.095602 0.158732
O O10 0.371887 0.371887 0.166667
#
# Coordination Sequence:
#
# PCOD9582538 Si02
#       4
#     6  12  12  12
#     4  10  20  34  52  80 104 124 162 210 258 306
#     4  11  22  35  50  66  87 121 160 200 244 302
#     4  11  24  38  53  75 103 127 160 200 260 311
#     4  11  22  38  57  76 100 127 164 206 256 305
#
# _framework density 16.3002
#
# number of rings (size 3 to 8) (size 9 to 14) (size 15 to 20)
#    0.000    1.143    0.000    8.571    6.000    4.571 
#    0.000    0.000    0.000    0.000    0.000    0.000 
#    0.000    0.000    0.000    0.000    0.000    0.000 
#
# Total GULP energy -234898.267021 kJ/mol
# GULP energy per Si atom -5592.815881 kJ/mol
# Density = 1.626310 g / cm^3
# Si number density = 16.300200 Si / 1000 Ang^3
#
#
#
# Elastic Constant Matrix: (Units=GPa)
#
#
# Indices 1 2 3 4 5 6 
#
# 1 57.3209 28.5687 27.4863 0.0000 0.0000 0.0000
# 2 28.5687 57.3209 27.4863 0.0000 0.0000 0.0000
# 3 27.4863 27.4863 127.8196 0.0000 0.0000 0.0000
# 4 0.0000 0.0000 0.0000 26.4456 0.0000 0.0000
# 5 0.0000 0.0000 0.0000 0.0000 26.4456 0.0000
# 6 0.0000 0.0000 0.0000 0.0000 0.0000 14.3761
#
#
#
# Elastic Compliance Matrix: (Units=1/GPa)
#
#
# Indices 1 2 3 4 5 6 
#
# 1 0.024140 -0.010639 -0.002903 0.000000 0.000000 0.000000
# 2 -0.010639 0.024140 -0.002903 0.000000 0.000000 0.000000
# 3 -0.002903 -0.002903 0.009072 0.000000 0.000000 0.000000
# 4 0.000000 0.000000 0.000000 0.037814 0.000000 0.000000
# 5 0.000000 0.000000 0.000000 0.000000 0.037814 0.000000
# 6 0.000000 0.000000 0.000000 0.000000 0.000000 0.069560
#
#
# Mechanical properties :
#
#
# Convention : Reuss Voigt Hill
#
# Bulk Modulus (GPa) = 40.88107 45.50491 43.19299
# Shear Modulus (GPa) = 20.52666 24.04813 22.28740
#
# Velocity S-wave (km/s) = 3.55250 3.84517 3.70172
# Velocity P-wave (km/s) = 6.47777 6.90588 6.69525
#
# Compressibility (1/GPa) = 0.02446120
#
# Stress axis : x y z
#
# Youngs Moduli (GPa) = 41.42419 41.42419 110.22734
#
# Poissons Ratio (x) = 0.44073 0.32002
# Poissons Ratio (y) = 0.44073 0.32002
# Poissons Ratio (z) = 0.12027 0.12027
#
# Static dielectric constant tensor:
#      x y z
#    x 1.561830 0.000000 0.000000 
#    y 0.000000 1.561830 0.000000 
#    z 0.000000 0.000000 1.579390 
# 
# From -- ./inp_files/739.got.cif
#   From: 2010.05.17/outbox.cif.g08.bks.cpg/sg178_1_cif.got.tgz:739.got - 2010.05.20 11:30:59.
