data_PCOD9582451
_publ_section_title
;
Structure prediction by ZEFSAII (Michael W. Deem and Ramdas Pophale) SiO2 
 PCOD9582451
Probable space group: P 61 2 2
;
_chemical_formula_sum "Si O2"
_cell_formula_units_Z 48
_cell_length_a 18.035960
_cell_length_b 18.035960
_cell_length_c 7.778360
_cell_angle_alpha 90.000000
_cell_angle_beta 90.000000
_cell_angle_gamma 120.000000
_cell_volume 2191.276585
_symmetry_space_group_name_H-M "P 61 2 2"
_symmetry_group_IT_number 178
_symmetry_cell_setting 'hexagonal'
loop_
_space_group_symop_operation_xyz
x,y,z
x-y,x,1/6+z
-y,x-y,1/3+z
-x,-y,1/2+z
-x+y,-x,2/3+z
y,-x+y,5/6+z
x-y,-y,-z
-x,-x+y,2/3-z
y,x,1/3-z
-y,-x,5/6-z
-x+y,y,1/2-z
x,x-y,1/6-z
loop_
_atom_site_type_symbol
_atom_site_label
_atom_site_fract_x
_atom_site_fract_y
_atom_site_fract_z
Si Si1 0.408072 0.204036 0.583334
Si Si2 0.356991 0.485784 0.352329
Si Si3 0.090313 0.909688 0.916667
Si Si4 0.781810 0.468685 0.009292
Si Si5 0.936217 0.694124 0.498445
O O1 0.470061 0.297288 0.506311
O O2 0.349045 0.193740 0.740421
O O3 0.452810 0.547191 0.416667
O O4 0.296415 0.517169 0.449321
O O5 0.348819 0.503832 0.152410
O O6 0.318509 0.385838 0.399006
O O7 0.171256 0.933172 0.792186
O O8 0.000000 0.879951 0.833334
O O9 0.749669 0.374835 0.083334
O O10 0.000000 0.727556 0.333334
#
# Coordination Sequence:
#
# PCOD9582451 Si02
#       5
#     6  12   6  12  12
#     4  10  20  36  59  90 122 170 224 272 335 412
#     4  10  22  36  58  95 140 187 245 292 338 412
#     4  12  28  50  79 112 138 168 222 298 381 462
#     4  10  19  32  55  88 132 174 236 303 346 371
#     4  11  23  44  69  98 136 181 220 274 360 446
#
# _framework density 21.905041000000001
#
# number of rings (size 3 to 8) (size 9 to 14) (size 15 to 20)
#    0.000    1.500    0.000    7.500    5.250    1.000 
#    0.000    5.000    0.000    0.000    0.000    0.000 
#    0.000    0.000    0.000    0.000    0.000    0.000 
#
# Total GULP energy -267718.394038 kJ/mol
# GULP energy per Si atom -5577.466542 kJ/mol
# Density = 2.185518 g / cm^3
# Si number density = 21.905041 Si / 1000 Ang^3
#
#
#
# Elastic Constant Matrix: (Units=GPa)
#
#
# Indices 1 2 3 4 5 6 
#
# 1 107.0079 71.0011 58.5963 0.0000 0.0000 0.0000
# 2 71.0011 107.0079 58.5963 0.0000 0.0000 0.0000
# 3 58.5963 58.5963 152.4901 0.0000 0.0000 0.0000
# 4 0.0000 0.0000 0.0000 33.5602 0.0000 0.0000
# 5 0.0000 0.0000 0.0000 0.0000 33.5602 0.0000
# 6 0.0000 0.0000 0.0000 0.0000 0.0000 18.0034
#
#
#
# Elastic Compliance Matrix: (Units=1/GPa)
#
#
# Indices 1 2 3 4 5 6 
#
# 1 0.017646 -0.010126 -0.002890 0.000000 0.000000 0.000000
# 2 -0.010126 0.017646 -0.002890 0.000000 0.000000 0.000000
# 3 -0.002890 -0.002890 0.008779 0.000000 0.000000 0.000000
# 4 0.000000 0.000000 0.000000 0.029797 0.000000 0.000000
# 5 0.000000 0.000000 0.000000 0.000000 0.029797 0.000000
# 6 0.000000 0.000000 0.000000 0.000000 0.000000 0.055545
#
#
# Mechanical properties :
#
#
# Convention : Reuss Voigt Hill
#
# Bulk Modulus (GPa) = 81.56568 82.54369 82.05468
# Shear Modulus (GPa) = 25.62676 28.91225 27.26950
#
# Velocity S-wave (km/s) = 3.42409 3.63697 3.53214
# Velocity P-wave (km/s) = 7.27664 7.44319 7.36038
#
# Compressibility (1/GPa) = 0.01226006
#
# Stress axis : x y z
#
# Youngs Moduli (GPa) = 56.66901 56.66901 113.91308
#
# Poissons Ratio (x) = 0.57384 0.32918
# Poissons Ratio (y) = 0.57384 0.32918
# Poissons Ratio (z) = 0.16376 0.16376
#
# Static dielectric constant tensor:
#      x y z
#    x 1.874240 0.000000 0.000000 
#    y 0.000000 1.874240 0.000000 
#    z 0.000000 0.000000 1.735920 
# 
# From -- ./inp_files/2691.got.cif
#   From: 2010.05.17/outbox.cif.g08.bks.cpg/sg178_2_cif.got.tgz:2691.got - 2010.05.20 11:30:59.
