data_PCOD9582159
_publ_section_title
;
Structure prediction by ZEFSAII (Michael W. Deem and Ramdas Pophale) SiO2 
 PCOD9582159
Probable space group: P 6 2 2
;
_chemical_formula_sum "Si O2"
_cell_formula_units_Z 66
_cell_length_a 21.138547
_cell_length_b 21.138547
_cell_length_c 7.993998
_cell_angle_alpha 90.000000
_cell_angle_beta 90.000000
_cell_angle_gamma 120.000000
_cell_volume 3093.463035
_symmetry_space_group_name_H-M "P 6 2 2"
_symmetry_group_IT_number 177
_symmetry_cell_setting 'hexagonal'
loop_
_space_group_symop_operation_xyz
x,y,z
x-y,x,z
-y,x-y,z
-x,-y,z
-x+y,-x,z
y,-x+y,z
x-y,-y,-z
-x,-x+y,-z
y,x,-z
-y,-x,-z
-x+y,y,-z
x,x-y,-z
loop_
_atom_site_type_symbol
_atom_site_label
_atom_site_fract_x
_atom_site_fract_y
_atom_site_fract_z
Si Si1 0.142725 0.143838 0.297873
Si Si2 0.265996 0.298376 0.183556
Si Si3 0.627201 0.491433 0.409483
Si Si4 0.192447 0.784459 0.302093
Si Si5 0.000000 0.500000 0.206436
Si Si6 0.921607 0.580254 0.252615
O O1 0.070720 0.143394 0.238482
O O2 0.142458 0.142458 0.500000
O O3 0.211518 0.216784 0.238218
O O4 0.228785 0.347291 0.213502
O O5 0.340064 0.329117 0.285320
O O6 0.294138 0.294138 0.000000
O O7 0.587982 0.412019 0.500000
O O8 0.703914 0.519267 0.315045
O O9 0.567924 0.501767 0.304264
O O10 0.642713 0.541971 0.569362
O O11 0.193503 0.806498 0.500000
O O12 0.264276 0.848319 0.209284
O O13 0.048748 0.463886 0.139393
#
# Coordination Sequence:
#
# PCOD9582159 Si02
#       6
#    12  12  12  12   6  12
#     4  10  23  40  63  85 115 156 208 256 309 379
#     4  12  26  40  57  92 132 167 208 273 335 386
#     4   9  17  31  59  90 120 161 207 268 323 394
#     4  10  22  34  60  95 124 164 221 266 329 403
#     4  10  17  32  63  88 119 168 217 266 341 394
#     4  10  20  34  58  86 123 166 210 260 330 394
#
# _framework density 21.335311999999998
#
# number of rings (size 3 to 8) (size 9 to 14) (size 15 to 20)
#    0.000    1.818    1.818    3.727   10.182    3.636 
#    0.000    0.455    0.000   41.091    0.000    0.000 
#    0.000    0.000    2.182    0.000    0.000    0.000 
#
# Total GULP energy -367776.896158 kJ/mol
# GULP energy per Si atom -5572.377215 kJ/mol
# Density = 2.128675 g / cm^3
# Si number density = 21.335312 Si / 1000 Ang^3
#
#
#
# Elastic Constant Matrix: (Units=GPa)
#
#
# Indices 1 2 3 4 5 6 
#
# 1 174.2793 21.3459 19.4866 0.0000 0.0000 0.0000
# 2 21.3459 174.2793 19.4866 0.0000 0.0000 0.0000
# 3 19.4866 19.4866 33.3047 0.0000 0.0000 0.0000
# 4 0.0000 0.0000 0.0000 -172.8734 0.0000 0.0000
# 5 0.0000 0.0000 0.0000 0.0000 -172.8734 0.0000
# 6 0.0000 0.0000 0.0000 0.0000 0.0000 76.4667
#
#
#
# Elastic Compliance Matrix: (Units=1/GPa)
#
#
# Indices 1 2 3 4 5 6 
#
# 1 0.006163 -0.000376 -0.003386 0.000000 0.000000 0.000000
# 2 -0.000376 0.006163 -0.003386 0.000000 0.000000 0.000000
# 3 -0.003386 -0.003386 0.033988 0.000000 0.000000 0.000000
# 4 0.000000 0.000000 0.000000 -0.005785 0.000000 0.000000
# 5 0.000000 0.000000 0.000000 0.000000 -0.005785 0.000000
# 6 0.000000 0.000000 0.000000 0.000000 0.000000 0.013078
#
#
# Mechanical properties :
#
#
# Convention : Reuss Voigt Hill
#
# Bulk Modulus (GPa) = 31.23250 55.83348 43.53299
# Shear Modulus (GPa) = 68.69221 -32.41971 18.13625
#
# Velocity S-wave (km/s) = 5.68035 -3.90235 2.91874
# Velocity P-wave (km/s) = 7.59556 2.43350 5.63979
#
# Compressibility (1/GPa) = 0.03201793
#
# Stress axis : x y z
#
# Youngs Moduli (GPa) = 162.27059 162.27059 29.42252
#
# Poissons Ratio (x) = 0.06105 0.09961
# Poissons Ratio (y) = 0.06105 0.09961
# Poissons Ratio (z) = 0.54938 0.54938
#
# Static dielectric constant tensor:
#      x y z
#    x 1.813610 0.000000 0.000000 
#    y 0.000000 1.813610 0.000000 
#    z 0.000000 0.000000 1.651050 
# 
# From -- ./inp_files/1408.got.cif
#   From: 2010.05.17/outbox.cif.g08.bks.cpg/sg177_1_cif.got.tgz:1408.got - 2010.05.20 11:28:44.
