data_PCOD9582304
_publ_section_title
;
Structure prediction by ZEFSAII (Michael W. Deem and Ramdas Pophale) SiO2 
 PCOD9582304
Probable space group: P 6 2 2
;
_chemical_formula_sum "Si O2"
_cell_formula_units_Z 54
_cell_length_a 16.046464
_cell_length_b 16.046464
_cell_length_c 11.455857
_cell_angle_alpha 90.000000
_cell_angle_beta 90.000000
_cell_angle_gamma 120.000000
_cell_volume 2554.564707
_symmetry_space_group_name_H-M "P 6 2 2"
_symmetry_group_IT_number 177
_symmetry_cell_setting 'hexagonal'
loop_
_space_group_symop_operation_xyz
x,y,z
x-y,x,z
-y,x-y,z
-x,-y,z
-x+y,-x,z
y,-x+y,z
x-y,-y,-z
-x,-x+y,-z
y,x,-z
-y,-x,-z
-x+y,y,-z
x,x-y,-z
loop_
_atom_site_type_symbol
_atom_site_label
_atom_site_fract_x
_atom_site_fract_y
_atom_site_fract_z
Si Si1 0.327732 0.503264 0.926975
Si Si2 0.726739 0.509305 0.295305
Si Si3 0.411050 0.012013 0.202591
Si Si4 0.581693 0.163386 0.500000
Si Si5 0.712426 0.631419 0.587122
O O1 0.304945 0.526641 0.796614
O O2 0.371255 0.433854 0.904532
O O3 0.404180 0.595821 0.000000
O O4 0.229674 0.459348 0.000000
O O5 0.670134 0.544488 0.210899
O O6 0.654022 0.435589 0.392055
O O7 0.809273 0.599662 0.372136
O O8 0.500000 0.000000 0.246049
O O9 0.323005 0.972747 0.290815
O O10 0.472932 0.101134 0.543553
O O11 0.710105 0.710105 0.500000
#
# Coordination Sequence:
#
# PCOD9582304 Si02
#       5
#    12  12  12   6  12
#     4  11  26  44  60  84 123 169 238 299 344 407
#     4  11  25  39  64  94 121 175 233 287 349 420
#     4  11  21  40  61  83 119 168 221 279 352 403
#     4  12  21  40  60  90 128 168 222 276 350 420
#     4  11  21  38  58  88 128 166 215 277 347 410
#
# _framework density 21.138632000000001
#
# number of rings (size 3 to 8) (size 9 to 14) (size 15 to 20)
#    0.000    0.889    4.444    2.556    3.111    3.111 
#    5.333    0.000    0.000    0.000    0.000    0.000 
#    0.000    0.000    0.000   42.667  234.667  252.444 
#
# Total GULP energy -300893.951201 kJ/mol
# GULP energy per Si atom -5572.110207 kJ/mol
# Density = 2.109052 g / cm^3
# Si number density = 21.138632 Si / 1000 Ang^3
#
#
#
# Elastic Constant Matrix: (Units=GPa)
#
#
# Indices 1 2 3 4 5 6 
#
# 1 98.2642 41.9447 51.5803 0.0000 0.0000 0.0000
# 2 41.9447 98.2642 51.5803 0.0000 0.0000 0.0000
# 3 51.5803 51.5803 136.2109 0.0000 0.0000 0.0000
# 4 0.0000 0.0000 0.0000 44.6398 0.0000 0.0000
# 5 0.0000 0.0000 0.0000 0.0000 44.6398 0.0000
# 6 0.0000 0.0000 0.0000 0.0000 0.0000 28.1598
#
#
#
# Elastic Compliance Matrix: (Units=1/GPa)
#
#
# Indices 1 2 3 4 5 6 
#
# 1 0.013821 -0.003934 -0.003744 0.000000 0.000000 0.000000
# 2 -0.003934 0.013821 -0.003744 0.000000 0.000000 0.000000
# 3 -0.003744 -0.003744 0.010177 0.000000 0.000000 0.000000
# 4 0.000000 0.000000 0.000000 0.022402 0.000000 0.000000
# 5 0.000000 0.000000 0.000000 0.000000 0.022402 0.000000
# 6 0.000000 0.000000 0.000000 0.000000 0.000000 0.035512
#
#
# Mechanical properties :
#
#
# Convention : Reuss Voigt Hill
#
# Bulk Modulus (GPa) = 66.77796 69.21665 67.99730
# Shear Modulus (GPa) = 34.25339 35.99682 35.12510
#
# Velocity S-wave (km/s) = 4.02981 4.13109 4.08076
# Velocity P-wave (km/s) = 7.30147 7.45451 7.37839
#
# Compressibility (1/GPa) = 0.01497500
#
# Stress axis : x y z
#
# Youngs Moduli (GPa) = 72.35181 72.35181 98.25998
#
# Poissons Ratio (x) = 0.28467 0.36788
# Poissons Ratio (y) = 0.28467 0.36788
# Poissons Ratio (z) = 0.27088 0.27088
#
# Static dielectric constant tensor:
#      x y z
#    x 1.842880 0.000000 0.000000 
#    y 0.000000 1.842880 0.000000 
#    z 0.000000 0.000000 1.882620 
# 
# From -- ./inp_files/1905.got.cif
#   From: 2010.05.17/outbox.cif.g08.bks.cpg/sg177_1_cif.got.tgz:1905.got - 2010.05.20 11:28:44.
