data_PCOD9582041
_publ_section_title
;
Structure prediction by ZEFSAII (Michael W. Deem and Ramdas Pophale) SiO2 
 PCOD9582041
Probable space group: P 63/M
;
_chemical_formula_sum "Si O2"
_cell_formula_units_Z 72
_cell_length_a 15.236976
_cell_length_b 15.236976
_cell_length_c 18.730760
_cell_angle_alpha 90.000000
_cell_angle_beta 90.000000
_cell_angle_gamma 120.000000
_cell_volume 3766.028462
_symmetry_space_group_name_H-M "P 63/M"
_symmetry_group_IT_number 176
_symmetry_cell_setting 'hexagonal'
loop_
_space_group_symop_operation_xyz
x,y,z
x-y,x,1/2+z
-y,x-y,z
-x,-y,1/2+z
-x+y,-x,z
y,-x+y,1/2+z
-x,-y,-z
-x+y,-x,1/2-z
y,-x+y,-z
x,y,1/2-z
x-y,x,-z
-y,x-y,1/2-z
loop_
_atom_site_type_symbol
_atom_site_label
_atom_site_fract_x
_atom_site_fract_y
_atom_site_fract_z
Si Si1 0.127804 0.814100 0.169969
Si Si2 0.047506 0.401680 0.120460
Si Si3 0.851490 0.293584 0.450059
Si Si4 0.880115 0.509830 0.036307
Si Si5 0.774768 0.934056 0.474696
Si Si6 0.582518 0.550086 0.669484
O O1 0.100655 0.826425 0.250000
O O2 0.243591 0.895105 0.153042
O O3 0.059773 0.826036 0.110256
O O4 0.112159 0.701384 0.163770
O O5 0.925659 0.329381 0.118758
O O6 0.075133 0.506095 0.159112
O O7 0.078438 0.427743 0.037012
O O8 0.732106 0.220455 0.441728
O O9 0.865663 0.399267 0.479750
O O10 0.891154 0.230750 0.496171
O O11 0.955087 0.555408 0.103654
O O12 0.809217 0.852747 0.493821
O O13 0.566458 0.578399 0.750000
#
# Coordination Sequence:
#
# PCOD9582041 Si02
#       6
#    12  12  12  12  12  12
#     4  11  22  39  62  91 126 163 208 268 329 386
#     4  11  21  36  62  86 123 167 209 255 318 392
#     4  11  20  38  60  95 124 158 218 269 308 381
#     4  11  22  35  64  91 122 166 213 258 316 377
#     4  12  23  42  67  94 124 172 223 270 324 388
#     4  10  22  40  57  85 126 162 202 258 320 379
#
# _framework density 19.118283000000002
#
# number of rings (size 3 to 8) (size 9 to 14) (size 15 to 20)
#    0.000    1.000    3.333    6.000    0.000    0.000 
#    1.000    5.000    0.000    0.000    0.000    0.000 
#    0.000    0.000    0.000    0.000    0.000    0.000 
#
# Total GULP energy -401882.819767 kJ/mol
# GULP energy per Si atom -5581.705830 kJ/mol
# Density = 1.907477 g / cm^3
# Si number density = 19.118283 Si / 1000 Ang^3
#
#
#
# Elastic Constant Matrix: (Units=GPa)
#
#
# Indices 1 2 3 4 5 6 
#
# 1 94.7534 31.4401 21.4655 0.0000 0.0000 0.0000
# 2 31.4401 94.7534 21.4655 0.0000 0.0000 0.0000
# 3 21.4655 21.4655 100.7604 0.0000 0.0000 0.0000
# 4 0.0000 0.0000 0.0000 20.0098 0.0000 0.0000
# 5 0.0000 0.0000 0.0000 0.0000 20.0098 0.0000
# 6 0.0000 0.0000 0.0000 0.0000 0.0000 31.6566
#
#
#
# Elastic Compliance Matrix: (Units=1/GPa)
#
#
# Indices 1 2 3 4 5 6 
#
# 1 0.012169 -0.003625 -0.001820 0.000000 0.000000 0.000000
# 2 -0.003625 0.012169 -0.001820 0.000000 0.000000 0.000000
# 3 -0.001820 -0.001820 0.010700 0.000000 0.000000 0.000000
# 4 0.000000 0.000000 0.000000 0.049975 0.000000 0.000000
# 5 0.000000 0.000000 0.000000 0.000000 0.049975 0.000000
# 6 0.000000 0.000000 0.000000 0.000000 0.000000 0.031589
#
#
# Mechanical properties :
#
#
# Convention : Reuss Voigt Hill
#
# Bulk Modulus (GPa) = 48.76440 48.77886 48.77163
# Shear Modulus (GPa) = 26.60358 28.72834 27.66596
#
# Velocity S-wave (km/s) = 3.73436 3.88063 3.80820
# Velocity P-wave (km/s) = 6.64500 6.75638 6.70092
#
# Compressibility (1/GPa) = 0.02050676
#
# Stress axis : x y z
#
# Youngs Moduli (GPa) = 82.17605 82.17605 93.45786
#
# Poissons Ratio (x) = 0.29793 0.17010
# Poissons Ratio (y) = 0.29793 0.17010
# Poissons Ratio (z) = 0.14957 0.14957
#
# Static dielectric constant tensor:
#      x y z
#    x 1.679710 0.000000 0.000000 
#    y 0.000000 1.679710 0.000000 
#    z 0.000000 0.000000 1.685190 
# 
# From -- ./inp_files/3362.got.cif
#   From: 2010.05.17/outbox.cif.g08.bks.cpg/sg176_2_cif.got.tgz:3362.got - 2010.06.03 11:36:45.
