data_PCOD9582631
_publ_section_title
;
Structure prediction by ZEFSAII (Michael W. Deem and Ramdas Pophale) SiO2 
 PCOD9582631
Probable space group: P 61 2 2
;
_chemical_formula_sum "Si O2"
_cell_formula_units_Z 54
_cell_length_a 15.317965
_cell_length_b 15.317965
_cell_length_c 13.342712
_cell_angle_alpha 90.000000
_cell_angle_beta 90.000000
_cell_angle_gamma 120.000000
_cell_volume 2711.295726
_symmetry_space_group_name_H-M "P 61 2 2"
_symmetry_group_IT_number 178
_symmetry_cell_setting 'hexagonal'
loop_
_space_group_symop_operation_xyz
x,y,z
x-y,x,1/6+z
-y,x-y,1/3+z
-x,-y,1/2+z
-x+y,-x,2/3+z
y,-x+y,5/6+z
x-y,-y,-z
-x,-x+y,2/3-z
y,x,1/3-z
-y,-x,5/6-z
-x+y,y,1/2-z
x,x-y,1/6-z
loop_
_atom_site_type_symbol
_atom_site_label
_atom_site_fract_x
_atom_site_fract_y
_atom_site_fract_z
Si Si1 0.725812 0.659081 0.264084
Si Si2 0.605919 0.605919 0.666667
Si Si3 0.151970 0.319605 0.356366
Si Si4 0.963056 0.389227 0.556415
Si Si5 0.953395 0.844336 0.498305
O O1 0.660286 0.660286 0.166667
O O2 0.813380 0.626760 0.250000
O O3 0.650164 0.607079 0.359621
O O4 0.791714 0.778371 0.287838
O O5 0.614621 0.714914 0.671351
O O6 0.566809 0.569743 0.778298
O O7 0.131108 0.262216 0.250000
O O8 0.269973 0.383192 0.379649
O O9 0.099858 0.244526 0.447663
O O10 0.913611 0.456806 0.583334
O O11 0.918191 0.892848 0.415543
#
# Coordination Sequence:
#
# PCOD9582631 Si02
#       5
#    12   6  12  12  12
#     4  11  22  38  62  88 120 162 206 257 307 373
#     4  10  20  40  62  88 120 158 206 254 300 382
#     4   9  18  36  61  84 115 158 210 258 309 370
#     4  10  23  38  62  91 118 158 205 256 316 378
#     4  11  21  35  52  80 125 170 215 258 303 353
#
# _framework density 19.916678000000001
#
# number of rings (size 3 to 8) (size 9 to 14) (size 15 to 20)
#    0.000    1.778    2.222    4.000    4.667    0.000 
#    0.000   16.667    0.000    5.333    0.000    0.000 
#    0.000    0.000    0.000    0.000    0.000    0.000 
#
# Total GULP energy -300606.381321 kJ/mol
# GULP energy per Si atom -5566.784839 kJ/mol
# Density = 1.987135 g / cm^3
# Si number density = 19.916678 Si / 1000 Ang^3
#
#
#
# Elastic Constant Matrix: (Units=GPa)
#
#
# Indices 1 2 3 4 5 6 
#
# 1 45.2398 37.4130 29.3699 0.0000 0.0000 0.0000
# 2 37.4130 45.2398 29.3699 0.0000 0.0000 0.0000
# 3 29.3699 29.3699 141.3344 0.0000 0.0000 0.0000
# 4 0.0000 0.0000 0.0000 12.2452 0.0000 0.0000
# 5 0.0000 0.0000 0.0000 0.0000 12.2452 0.0000
# 6 0.0000 0.0000 0.0000 0.0000 0.0000 3.9134
#
#
#
# Elastic Compliance Matrix: (Units=1/GPa)
#
#
# Indices 1 2 3 4 5 6 
#
# 1 0.070981 -0.056786 -0.002950 0.000000 0.000000 0.000000
# 2 -0.056786 0.070981 -0.002950 0.000000 0.000000 0.000000
# 3 -0.002950 -0.002950 0.008301 0.000000 0.000000 0.000000
# 4 0.000000 0.000000 0.000000 0.081664 0.000000 0.000000
# 5 0.000000 0.000000 0.000000 0.000000 0.081664 0.000000
# 6 0.000000 0.000000 0.000000 0.000000 0.000000 0.255534
#
#
# Mechanical properties :
#
#
# Convention : Reuss Voigt Hill
#
# Bulk Modulus (GPa) = 40.17280 47.12443 43.64861
# Shear Modulus (GPa) = 7.11445 14.72484 10.91964
#
# Velocity S-wave (km/s) = 1.89205 2.72200 2.34405
# Velocity P-wave (km/s) = 4.99874 5.79579 5.41196
#
# Compressibility (1/GPa) = 0.02489247
#
# Stress axis : x y z
#
# Youngs Moduli (GPa) = 14.08825 14.08825 120.46175
#
# Poissons Ratio (x) = 0.80001 0.35534
# Poissons Ratio (y) = 0.80001 0.35534
# Poissons Ratio (z) = 0.04156 0.04156
#
# Static dielectric constant tensor:
#      x y z
#    x 1.700740 0.000000 0.000000 
#    y 0.000000 1.700740 0.000000 
#    z 0.000000 0.000000 1.856300 
# 
# From -- ./inp_files/4401.got.cif
#   From: 2010.05.17/outbox.cif.g08.bks.cpg/sg178_3_cif.got.tgz:4401.got - 2010.05.20 11:30:59.
