data_PCOD9582672
_publ_section_title
;
Structure prediction by ZEFSAII (Michael W. Deem and Ramdas Pophale) SiO2 
 PCOD9582672
Probable space group: P 61 2 2
;
_chemical_formula_sum "Si O2"
_cell_formula_units_Z 84
_cell_length_a 15.121518
_cell_length_b 15.121518
_cell_length_c 21.590716
_cell_angle_alpha 90.000000
_cell_angle_beta 90.000000
_cell_angle_gamma 120.000000
_cell_volume 4275.515232
_symmetry_space_group_name_H-M "P 61 2 2"
_symmetry_group_IT_number 178
_symmetry_cell_setting 'hexagonal'
loop_
_space_group_symop_operation_xyz
x,y,z
x-y,x,1/6+z
-y,x-y,1/3+z
-x,-y,1/2+z
-x+y,-x,2/3+z
y,-x+y,5/6+z
x-y,-y,-z
-x,-x+y,2/3-z
y,x,1/3-z
-y,-x,5/6-z
-x+y,y,1/2-z
x,x-y,1/6-z
loop_
_atom_site_type_symbol
_atom_site_label
_atom_site_fract_x
_atom_site_fract_y
_atom_site_fract_z
Si Si1 0.214769 0.753992 0.671687
Si Si2 0.008336 0.416962 0.194229
Si Si3 0.325668 0.000000 0.500000
Si Si4 0.785382 0.182395 0.842925
Si Si5 0.303773 0.628495 0.825242
Si Si6 0.000000 0.642323 0.833334
Si Si7 0.779156 0.222602 0.514074
Si Si8 0.603068 0.627573 0.300967
O O1 0.093688 0.676491 0.664395
O O2 0.272279 0.692572 0.652944
O O3 0.231540 0.777858 0.745138
O O4 0.272981 0.865217 0.641313
O O5 0.992337 0.406409 0.268720
O O6 0.111707 0.417660 0.177896
O O7 0.023835 0.526682 0.175645
O O8 0.318699 0.100717 0.489163
O O9 0.380323 0.992837 0.438194
O O10 0.799148 0.200853 0.916667
O O11 0.749989 0.261418 0.819859
O O12 0.700397 0.066637 0.831541
O O13 0.312855 0.625709 0.750000
O O14 0.244901 0.689284 0.841558
O O15 0.107276 0.747119 0.836585
#
# Coordination Sequence:
#
# PCOD9582672 Si02
#       8
#    12  12   6  12  12   6  12  12
#     4  10  21  36  54  80 113 152 186 229 282 339
#     4  11  21  36  57  83 114 149 187 232 282 340
#     4  10  23  36  54  83 112 152 192 235 278 343
#     4   9  19  34  55  75 110 150 186 228 280 327
#     4   9  16  30  50  78 109 149 181 219 273 330
#     4  10  23  36  54  85 114 150 188 233 280 335
#     4  10  21  35  58  77 114 151 191 227 277 335
#     4  11  21  36  56  82 114 150 189 233 287 338
#
# _framework density 19.646754000000001
#
# number of rings (size 3 to 8) (size 9 to 14) (size 15 to 20)
#    0.000    2.000    2.857    0.857    8.000    1.143 
#    0.000    0.714    0.000    0.857    0.000    4.000 
#    0.000    0.000    0.000    0.000    0.000    0.000 
#
# Total GULP energy -468874.685298 kJ/mol
# GULP energy per Si atom -5581.841492 kJ/mol
# Density = 1.960204 g / cm^3
# Si number density = 19.646754 Si / 1000 Ang^3
#
#
#
# Elastic Constant Matrix: (Units=GPa)
#
#
# Indices 1 2 3 4 5 6 
#
# 1 143.5309 92.0392 11.8666 0.0000 0.0000 0.0000
# 2 92.0392 143.5309 11.8666 0.0000 0.0000 0.0000
# 3 11.8666 11.8666 46.7963 0.0000 0.0000 0.0000
# 4 0.0000 0.0000 0.0000 18.2826 0.0000 0.0000
# 5 0.0000 0.0000 0.0000 0.0000 18.2826 0.0000
# 6 0.0000 0.0000 0.0000 0.0000 0.0000 25.7459
#
#
#
# Elastic Compliance Matrix: (Units=1/GPa)
#
#
# Indices 1 2 3 4 5 6 
#
# 1 0.011888 -0.007532 -0.001105 0.000000 0.000000 0.000000
# 2 -0.007532 0.011888 -0.001105 0.000000 0.000000 0.000000
# 3 -0.001105 -0.001105 0.021929 0.000000 0.000000 0.000000
# 4 0.000000 0.000000 0.000000 0.054697 0.000000 0.000000
# 5 0.000000 0.000000 0.000000 0.000000 0.054697 0.000000
# 6 0.000000 0.000000 0.000000 0.000000 0.000000 0.038841
#
#
# Mechanical properties :
#
#
# Convention : Reuss Voigt Hill
#
# Bulk Modulus (GPa) = 38.13392 62.82255 50.47823
# Shear Modulus (GPa) = 22.50576 27.00127 24.75352
#
# Velocity S-wave (km/s) = 3.38823 3.71123 3.55340
# Velocity P-wave (km/s) = 5.89565 7.09998 6.52566
#
# Compressibility (1/GPa) = 0.02622338
#
# Stress axis : x y z
#
# Youngs Moduli (GPa) = 84.11529 84.11529 45.60082
#
# Poissons Ratio (x) = 0.63357 0.05037
# Poissons Ratio (y) = 0.63357 0.05037
# Poissons Ratio (z) = 0.09292 0.09292
#
# Static dielectric constant tensor:
#      x y z
#    x 1.680230 0.000000 0.000000 
#    y 0.000000 1.680230 0.000000 
#    z 0.000000 0.000000 1.797570 
# 
# From -- ./inp_files/8367.got.cif
#   From: 2010.05.17/outbox.cif.g08.bks.cpg/sg178_5_cif.got.tgz:8367.got - 2010.05.20 11:30:59.
