data_PCOD9582370
_publ_section_title
;
Structure prediction by ZEFSAII (Michael W. Deem and Ramdas Pophale) SiO2 
 PCOD9582370
Probable space group: P 61 2 2
;
_chemical_formula_sum "Si O2"
_cell_formula_units_Z 60
_cell_length_a 18.325757
_cell_length_b 18.325757
_cell_length_c 10.513339
_cell_angle_alpha 90.000000
_cell_angle_beta 90.000000
_cell_angle_gamma 120.000000
_cell_volume 3057.701928
_symmetry_space_group_name_H-M "P 61 2 2"
_symmetry_group_IT_number 178
_symmetry_cell_setting 'hexagonal'
loop_
_space_group_symop_operation_xyz
x,y,z
x-y,x,1/6+z
-y,x-y,1/3+z
-x,-y,1/2+z
-x+y,-x,2/3+z
y,-x+y,5/6+z
x-y,-y,-z
-x,-x+y,2/3-z
y,x,1/3-z
-y,-x,5/6-z
-x+y,y,1/2-z
x,x-y,1/6-z
loop_
_atom_site_type_symbol
_atom_site_label
_atom_site_fract_x
_atom_site_fract_y
_atom_site_fract_z
Si Si1 0.546304 0.683008 0.897174
Si Si2 0.777871 0.054489 0.874994
Si Si3 0.425195 0.681641 0.224043
Si Si4 0.961480 0.119449 0.536776
Si Si5 0.453590 0.546169 0.712621
O O1 0.495661 0.732895 0.867438
O O2 0.533466 0.629247 0.770132
O O3 0.637220 0.738326 0.960382
O O4 0.496672 0.612726 0.005842
O O5 0.871157 0.128843 0.916667
O O6 0.786499 0.990610 0.780477
O O7 0.727232 0.000000 0.000000
O O8 0.330944 0.661888 0.250000
O O9 0.433680 0.599210 0.223516
O O10 0.442027 0.721014 0.083334
O O11 0.899360 0.100641 0.416667
O O12 0.043242 0.125361 0.469556
O O13 0.482683 0.482683 0.666667
#
# Coordination Sequence:
#
# PCOD9582370 Si02
#       5
#    12  12  12  12  12
#     4  10  21  38  60  89 120 163 209 266 322 384
#     4  12  23  38  61  90 122 164 217 262 318 395
#     4  10  17  37  65  88 116 159 214 265 311 377
#     4  10  22  40  63  90 123 162 210 269 316 372
#     4  10  20  39  60  88 125 159 205 270 332 389
#
# _framework density 19.622579000000002
#
# number of rings (size 3 to 8) (size 9 to 14) (size 15 to 20)
#    0.000    1.600    6.000    2.400    0.000    4.000 
#    7.200    2.000    0.000    0.000    0.000    0.000 
#    0.000    0.000    0.000    0.000    0.000    0.000 
#
# Total GULP energy -334224.001017 kJ/mol
# GULP energy per Si atom -5570.400017 kJ/mol
# Density = 1.957792 g / cm^3
# Si number density = 19.622579 Si / 1000 Ang^3
#
#
#
# Elastic Constant Matrix: (Units=GPa)
#
#
# Indices 1 2 3 4 5 6 
#
# 1 -2156.4184 2315.1788 39.0125 0.0000 0.0000 -0.0002
# 2 2315.1788-2156.4184 39.0125 0.0000 0.0000 0.0002
# 3 39.0125 39.0125 51.6371 0.0000 0.0000 0.0000
# 4 0.0000 0.0000 0.0000 23.1653 0.0000 0.0000
# 5 0.0000 0.0000 0.0000 0.0000 23.1653 0.0000
# 6 -0.0002 0.0002 0.0000 0.0000 0.0000-2235.7984
#
#
#
# Elastic Compliance Matrix: (Units=1/GPa)
#
#
# Indices 1 2 3 4 5 6 
#
# 1 0.004898 0.005121 -0.007569 0.000000 0.000000 0.000000
# 2 0.005121 0.004898 -0.007569 0.000000 0.000000 0.000000
# 3 -0.007569 -0.007569 0.030803 0.000000 0.000000 0.000000
# 4 0.000000 0.000000 0.000000 0.043168 0.000000 0.000000
# 5 0.000000 0.000000 0.000000 0.000000 0.043168 0.000000
# 6 0.000000 0.000000 0.000000 0.000000 0.000000 -0.000447
#
#
# Mechanical properties :
#
#
# Convention : Reuss Voigt Hill
#
# Bulk Modulus (GPa) = 48.62950 58.35643 53.49297
# Shear Modulus (GPa) = 32.59936 -881.52048 -424.46056
#
# Velocity S-wave (km/s) = 4.08035 -21.21823 -14.72352
# Velocity P-wave (km/s) = 6.85822 23.88473 16.17784
#
# Compressibility (1/GPa) = 0.02056365
#
# Stress axis : x y z
#
# Youngs Moduli (GPa) = 204.18044 204.18044 32.46387
#
# Poissons Ratio (x) = -1.04566 0.24573
# Poissons Ratio (y) = -1.04566 0.24573
# Poissons Ratio (z) = 1.54552 1.54552
#
# Static dielectric constant tensor:
#      x y z
#    x 1.618620 0.000000 0.000000 
#    y 0.000000 1.618620 0.000000 
#    z 0.000000 0.000000 1.736000 
# 
# From -- ./inp_files/4540.got.cif
#   From: 2010.05.17/outbox.cif.g08.bks.cpg/sg178_3_cif.got.tgz:4540.got - 2010.05.20 11:30:59.
