data_PCOD9582011
_publ_section_title
;
Structure prediction by ZEFSAII (Michael W. Deem and Ramdas Pophale) SiO2 
 PCOD9582011
Probable space group: P 63/M
;
_chemical_formula_sum "Si O2"
_cell_formula_units_Z 48
_cell_length_a 19.691854
_cell_length_b 19.691854
_cell_length_c 7.988085
_cell_angle_alpha 90.000000
_cell_angle_beta 90.000000
_cell_angle_gamma 120.000000
_cell_volume 2682.541958
_symmetry_space_group_name_H-M "P 63/M"
_symmetry_group_IT_number 176
_symmetry_cell_setting 'hexagonal'
loop_
_space_group_symop_operation_xyz
x,y,z
x-y,x,1/2+z
-y,x-y,z
-x,-y,1/2+z
-x+y,-x,z
y,-x+y,1/2+z
-x,-y,-z
-x+y,-x,1/2-z
y,-x+y,-z
x,y,1/2-z
x-y,x,-z
-y,x-y,1/2-z
loop_
_atom_site_type_symbol
_atom_site_label
_atom_site_fract_x
_atom_site_fract_y
_atom_site_fract_z
Si Si1 0.021263 0.712950 0.553622
Si Si2 0.451612 0.832055 0.750000
Si Si3 0.204766 0.482351 0.750000
Si Si4 0.183497 0.857147 0.939252
Si Si5 0.587884 0.530007 0.940937
O O1 0.034856 0.704579 0.750000
O O2 0.099398 0.791143 0.493150
O O3 0.016021 0.639762 0.454820
O O4 0.938677 0.709272 0.534853
O O5 0.455726 0.752956 0.750000
O O6 0.370614 0.833471 0.750000
O O7 0.496599 0.874981 0.580505
O O8 0.180103 0.420389 0.905136
O O9 0.169176 0.876236 0.750000
O O10 0.083492 0.589125 0.250000
O O11 0.500000 0.500000 0.000000
#
# Coordination Sequence:
#
# PCOD9582011 Si02
#       5
#    12   6   6  12  12
#     4  11  20  38  59  87 125 154 204 256 309 369
#     4  12  21  42  60  85 121 163 199 247 313 362
#     4  10  21  40  60  83 125 155 201 257 299 366
#     4   9  20  37  56  86 123 154 200 254 299 368
#     4  12  22  36  60  87 118 156 203 255 300 360
#
# _framework density 17.893477000000001
#
# number of rings (size 3 to 8) (size 9 to 14) (size 15 to 20)
#    0.750    0.500    5.000    2.500    0.000    2.000 
#    0.000    1.250    0.000    0.500    0.000    0.000 
#    0.000    0.000    0.000    0.000    0.000    0.000 
#
# Total GULP energy -267397.642326 kJ/mol
# GULP energy per Si atom -5570.784215 kJ/mol
# Density = 1.785275 g / cm^3
# Si number density = 17.893477 Si / 1000 Ang^3
#
#
#
# Elastic Constant Matrix: (Units=GPa)
#
#
# Indices 1 2 3 4 5 6 
#
# 1 105.0575 41.8472 17.7449 0.0000 0.0000 0.0000
# 2 41.8472 105.0575 17.7449 0.0000 0.0000 0.0000
# 3 17.7449 17.7449 90.9018 0.0000 0.0000 0.0000
# 4 0.0000 0.0000 0.0000 21.5792 0.0000 0.0000
# 5 0.0000 0.0000 0.0000 0.0000 21.5792 0.0000
# 6 0.0000 0.0000 0.0000 0.0000 0.0000 31.6051
#
#
#
# Elastic Compliance Matrix: (Units=1/GPa)
#
#
# Indices 1 2 3 4 5 6 
#
# 1 0.011482 -0.004338 -0.001395 0.000000 0.000000 0.000000
# 2 -0.004338 0.011482 -0.001395 0.000000 0.000000 0.000000
# 3 -0.001395 -0.001395 0.011545 0.000000 0.000000 0.000000
# 4 0.000000 0.000000 0.000000 0.046341 0.000000 0.000000
# 5 0.000000 0.000000 0.000000 0.000000 0.046341 0.000000
# 6 0.000000 0.000000 0.000000 0.000000 0.000000 0.031640
#
#
# Mechanical properties :
#
#
# Convention : Reuss Voigt Hill
#
# Bulk Modulus (GPa) = 49.37028 50.63231 50.00129
# Shear Modulus (GPa) = 27.80280 29.86470 28.83375
#
# Velocity S-wave (km/s) = 3.94610 4.08980 4.01859
# Velocity P-wave (km/s) = 6.95797 7.11758 7.03823
#
# Compressibility (1/GPa) = 0.02025510
#
# Stress axis : x y z
#
# Youngs Moduli (GPa) = 87.09185 87.09185 86.61489
#
# Poissons Ratio (x) = 0.37781 0.12079
# Poissons Ratio (y) = 0.37781 0.12079
# Poissons Ratio (z) = 0.12146 0.12146
#
# Static dielectric constant tensor:
#      x y z
#    x 1.632970 0.000000 0.000000 
#    y 0.000000 1.632970 0.000000 
#    z 0.000000 0.000000 1.651180 
# 
# From -- ./inp_files/1765.got.cif
#   From: 2010.05.17/outbox.cif.g08.bks.cpg/sg176_1_cif.got.tgz:1765.got - 2010.06.03 11:36:45.
