data_PCOD9582130
_publ_section_title
;
Structure prediction by ZEFSAII (Michael W. Deem and Ramdas Pophale) SiO2 
 PCOD9582130
Probable space group: P 63/M
;
_chemical_formula_sum "Si O2"
_cell_formula_units_Z 30
_cell_length_a 12.887172
_cell_length_b 12.887172
_cell_length_c 9.861108
_cell_angle_alpha 90.000000
_cell_angle_beta 90.000000
_cell_angle_gamma 120.000000
_cell_volume 1418.311410
_symmetry_space_group_name_H-M "P 63/M"
_symmetry_group_IT_number 176
_symmetry_cell_setting 'hexagonal'
loop_
_space_group_symop_operation_xyz
x,y,z
x-y,x,1/2+z
-y,x-y,z
-x,-y,1/2+z
-x+y,-x,z
y,-x+y,1/2+z
-x,-y,-z
-x+y,-x,1/2-z
y,-x+y,-z
x,y,1/2-z
x-y,x,-z
-y,x-y,1/2-z
loop_
_atom_site_type_symbol
_atom_site_label
_atom_site_fract_x
_atom_site_fract_y
_atom_site_fract_z
Si Si1 0.981996 0.753986 0.250000
Si Si2 0.758538 0.006527 0.750000
Si Si3 0.477723 0.785445 0.250000
Si Si4 0.363221 0.395616 0.018370
O O1 0.954011 0.666383 0.122052
O O2 0.892859 0.804735 0.250000
O O3 0.120314 0.863427 0.250000
O O4 0.671984 0.978004 0.620706
O O5 0.353869 0.789013 0.250000
O O6 0.540914 0.845589 0.108679
O O7 0.500000 0.500000 0.000000
#
# Coordination Sequence:
#
# PCOD9582130 Si02
#       4
#     6   6   6  12
#     4  11  26  43  73  99 145 185 229 295 351 423
#     4  12  25  45  72 104 144 181 244 284 357 419
#     4   9  23  42  69  89 135 176 231 277 356 402
#     4  11  25  42  69  97 139 181 234 281 355 410
#
# _framework density 21.151913
#
# number of rings (size 3 to 8) (size 9 to 14) (size 15 to 20)
#    0.400    0.800    0.000    5.200   16.800    0.000 
#    0.000    4.000    0.000    0.000    0.000    0.000 
#    0.000    0.000    0.000    0.000    0.000    0.000 
#
# Total GULP energy -167149.226166 kJ/mol
# GULP energy per Si atom -5571.640872 kJ/mol
# Density = 2.110377 g / cm^3
# Si number density = 21.151913 Si / 1000 Ang^3
#
#
#
# Elastic Constant Matrix: (Units=GPa)
#
#
# Indices 1 2 3 4 5 6 
#
# 1 144.8545 43.9949 62.9340 0.0000 0.0000 0.0000
# 2 43.9949 144.8545 62.9340 0.0000 0.0000 0.0000
# 3 62.9340 62.9340 218.2972 0.0000 0.0000 0.0000
# 4 0.0000 0.0000 0.0000 13.8795 0.0000 0.0000
# 5 0.0000 0.0000 0.0000 0.0000 13.8795 0.0000
# 6 0.0000 0.0000 0.0000 0.0000 0.0000 50.4298
#
#
#
# Elastic Compliance Matrix: (Units=1/GPa)
#
#
# Indices 1 2 3 4 5 6 
#
# 1 0.008235 -0.001680 -0.001890 0.000000 0.000000 0.000000
# 2 -0.001680 0.008235 -0.001890 0.000000 0.000000 0.000000
# 3 -0.001890 -0.001890 0.005670 0.000000 0.000000 0.000000
# 4 0.000000 0.000000 0.000000 0.072049 0.000000 0.000000
# 5 0.000000 0.000000 0.000000 0.000000 0.072049 0.000000
# 6 0.000000 0.000000 0.000000 0.000000 0.000000 0.019830
#
#
# Mechanical properties :
#
#
# Convention : Reuss Voigt Hill
#
# Bulk Modulus (GPa) = 89.11754 94.19245 91.65500
# Shear Modulus (GPa) = 24.90954 38.18063 31.54509
#
# Velocity S-wave (km/s) = 3.43541 4.25322 3.86600
# Velocity P-wave (km/s) = 7.61313 8.29144 7.95951
#
# Compressibility (1/GPa) = 0.01122114
#
# Stress axis : x y z
#
# Youngs Moduli (GPa) = 121.43676 121.43676 176.35165
#
# Poissons Ratio (x) = 0.20402 0.33325
# Poissons Ratio (y) = 0.20402 0.33325
# Poissons Ratio (z) = 0.22948 0.22948
#
# Static dielectric constant tensor:
#      x y z
#    x 1.830170 0.000000 0.000000 
#    y 0.000000 1.830170 0.000000 
#    z 0.000000 0.000000 1.815470 
# 
# From -- ./inp_files/395.got.cif
#   From: 2010.05.17/outbox.cif.g08.bks.cpg/sg176_1_cif.got.tgz:395.got - 2010.06.03 11:36:45.
