data_PCOD9582278
_publ_section_title
;
Structure prediction by ZEFSAII (Michael W. Deem and Ramdas Pophale) SiO2 
 PCOD9582278
Probable space group: P 6 2 2
;
_chemical_formula_sum "Si O2"
_cell_formula_units_Z 84
_cell_length_a 16.972678
_cell_length_b 16.972678
_cell_length_c 15.820397
_cell_angle_alpha 90.000000
_cell_angle_beta 90.000000
_cell_angle_gamma 120.000000
_cell_volume 3946.833023
_symmetry_space_group_name_H-M "P 6 2 2"
_symmetry_group_IT_number 177
_symmetry_cell_setting 'hexagonal'
loop_
_space_group_symop_operation_xyz
x,y,z
x-y,x,z
-y,x-y,z
-x,-y,z
-x+y,-x,z
y,-x+y,z
x-y,-y,-z
-x,-x+y,-z
y,x,-z
-y,-x,-z
-x+y,y,-z
x,x-y,-z
loop_
_atom_site_type_symbol
_atom_site_label
_atom_site_fract_x
_atom_site_fract_y
_atom_site_fract_z
Si Si1 0.583150 0.104553 0.911150
Si Si2 0.146266 0.644147 0.751625
Si Si3 0.353706 0.323666 0.686715
Si Si4 0.906306 0.792861 0.101355
Si Si5 0.836858 0.230066 0.166171
Si Si6 0.990128 0.814114 0.398197
Si Si7 0.576115 0.108159 0.593602
O O1 0.563966 0.143650 0.826485
O O2 0.685462 0.124056 0.899154
O O3 0.500000 0.000000 0.911299
O O4 0.572060 0.144119 0.000000
O O5 0.209452 0.744680 0.786972
O O6 0.164186 0.608880 0.663379
O O7 0.046111 0.630736 0.732386
O O8 0.347539 0.258197 0.760754
O O9 0.261164 0.278056 0.634621
O O10 0.437265 0.339571 0.625825
O O11 0.848196 0.838630 0.132749
O O12 0.859932 0.687153 0.124349
O O13 0.899407 0.798814 0.000000
O O14 0.902628 0.819560 0.369848
O O15 0.000000 0.817977 0.500000
O O16 0.570235 0.140469 0.500000
O O17 0.500000 0.000000 0.594617
#
# Coordination Sequence:
#
# PCOD9582278 Si02
#       7
#    12  12  12  12  12  12  12
#     4  11  24  43  69  93 129 174 221 279 339 403
#     4  11  22  41  64  94 137 167 217 278 341 402
#     4  11  21  40  64  97 129 170 225 280 333 399
#     4  10  23  41  66  99 140 185 235 292 349 411
#     4  12  24  40  67  99 136 178 226 282 340 414
#     4  10  22  39  61  94 138 185 231 281 337 402
#     4   9  19  37  65  93 126 169 215 277 341 393
#
# _framework density 21.282886999999999
#
# number of rings (size 3 to 8) (size 9 to 14) (size 15 to 20)
#    0.000    1.429    2.857    2.429    6.000    2.286 
#    0.857    0.000    0.000    1.714    0.000    0.000 
#    0.000    0.000    0.000    0.000    0.000    0.000 
#
# Total GULP energy -468891.849905 kJ/mol
# GULP energy per Si atom -5582.045832 kJ/mol
# Density = 2.123445 g / cm^3
# Si number density = 21.282887 Si / 1000 Ang^3
#
#
#
# Elastic Constant Matrix: (Units=GPa)
#
#
# Indices 1 2 3 4 5 6 
#
# 1 66.3396 25.2389 25.1542 0.0000 0.0000 0.0000
# 2 25.2389 66.3396 25.1542 0.0000 0.0000 0.0000
# 3 25.1542 25.1542 112.2858 0.0000 0.0000 0.0000
# 4 0.0000 0.0000 0.0000 10.8299 0.0000 0.0000
# 5 0.0000 0.0000 0.0000 0.0000 10.8299 0.0000
# 6 0.0000 0.0000 0.0000 0.0000 0.0000 20.5503
#
#
#
# Elastic Compliance Matrix: (Units=1/GPa)
#
#
# Indices 1 2 3 4 5 6 
#
# 1 0.018391 -0.005939 -0.002789 0.000000 0.000000 0.000000
# 2 -0.005939 0.018391 -0.002789 0.000000 0.000000 0.000000
# 3 -0.002789 -0.002789 0.010156 0.000000 0.000000 0.000000
# 4 0.000000 0.000000 0.000000 0.092337 0.000000 0.000000
# 5 0.000000 0.000000 0.000000 0.000000 0.092337 0.000000
# 6 0.000000 0.000000 0.000000 0.000000 0.000000 0.048661
#
#
# Mechanical properties :
#
#
# Convention : Reuss Voigt Hill
#
# Bulk Modulus (GPa) = 41.83808 44.00662 42.92235
# Shear Modulus (GPa) = 16.06292 19.73656 17.89974
#
# Velocity S-wave (km/s) = 2.75022 3.04854 2.90321
# Velocity P-wave (km/s) = 5.45763 5.75442 5.60799
#
# Compressibility (1/GPa) = 0.02390167
#
# Stress axis : x y z
#
# Youngs Moduli (GPa) = 54.37373 54.37373 98.46745
#
# Poissons Ratio (x) = 0.32294 0.27467
# Poissons Ratio (y) = 0.32294 0.27467
# Poissons Ratio (z) = 0.15167 0.15167
#
# Static dielectric constant tensor:
#      x y z
#    x 1.788700 0.000000 0.000000 
#    y 0.000000 1.788700 0.000000 
#    z 0.000000 0.000000 1.782130 
# 
# From -- ./inp_files/2618.got.cif
#   From: 2010.05.17/outbox.cif.g08.bks.cpg/sg177_2_cif.got.tgz:2618.got - 2010.05.20 11:28:44.
