data_PCOD9582946
_publ_section_title
;
Structure prediction by ZEFSAII (Michael W. Deem and Ramdas Pophale) SiO2 
 PCOD9582946
Probable space group: P 61 2 2
;
_chemical_formula_sum "Si O2"
_cell_formula_units_Z 84
_cell_length_a 18.238701
_cell_length_b 18.238701
_cell_length_c 14.767197
_cell_angle_alpha 90.000000
_cell_angle_beta 90.000000
_cell_angle_gamma 120.000000
_cell_volume 4254.186329
_symmetry_space_group_name_H-M "P 61 2 2"
_symmetry_group_IT_number 178
_symmetry_cell_setting 'hexagonal'
loop_
_space_group_symop_operation_xyz
x,y,z
x-y,x,1/6+z
-y,x-y,1/3+z
-x,-y,1/2+z
-x+y,-x,2/3+z
y,-x+y,5/6+z
x-y,-y,-z
-x,-x+y,2/3-z
y,x,1/3-z
-y,-x,5/6-z
-x+y,y,1/2-z
x,x-y,1/6-z
loop_
_atom_site_type_symbol
_atom_site_label
_atom_site_fract_x
_atom_site_fract_y
_atom_site_fract_z
Si Si1 0.183474 0.846267 0.816980
Si Si2 0.969499 0.392511 0.929114
Si Si3 0.452018 0.151330 0.342910
Si Si4 0.040838 0.299797 0.487714
Si Si5 0.786295 0.153428 0.822194
Si Si6 0.912970 0.406293 0.175147
Si Si7 0.315988 0.714877 0.157043
O O1 0.243481 0.838226 0.743525
O O2 0.092143 0.794914 0.767206
O O3 0.222534 0.946344 0.834811
O O4 0.187005 0.812995 0.916667
O O5 0.945393 0.465030 0.918021
O O6 0.000000 0.375197 0.833334
O O7 0.891647 0.310994 0.976055
O O8 0.054429 0.426358 0.986696
O O9 0.422319 0.181452 0.433439
O O10 0.550584 0.215132 0.332274
O O11 0.092124 0.303686 0.579059
O O12 0.044937 0.391850 0.487931
O O13 0.834741 0.165260 0.916667
O O14 0.813067 0.345124 0.191046
O O15 0.923743 0.461872 0.083334
O O16 0.355722 0.711444 0.250000
O O17 0.346755 0.673378 0.083334
#
# Coordination Sequence:
#
# PCOD9582946 Si02
#       7
#    12  12  12  12  12  12  12
#     4  11  23  41  68  92 128 167 215 269 328 396
#     4  12  24  36  64  95 120 169 223 270 329 389
#     4  11  23  42  59  92 125 169 218 265 330 382
#     4  11  23  44  66  97 131 168 216 275 334 397
#     4  11  20  38  65  90 127 161 205 270 323 391
#     4  11  21  42  60  87 125 175 217 273 324 374
#     4  11  25  42  61  84 125 174 220 270 330 377
#
# _framework density 19.745256000000001
#
# number of rings (size 3 to 8) (size 9 to 14) (size 15 to 20)
#    0.000    0.857    7.143    1.286    2.000    4.571 
#    0.000    0.000    0.000    0.000    0.000    5.000 
#    0.000    0.000    0.000    0.000    0.000    0.000 
#
# Total GULP energy -468538.389879 kJ/mol
# GULP energy per Si atom -5577.837975 kJ/mol
# Density = 1.970032 g / cm^3
# Si number density = 19.745256 Si / 1000 Ang^3
#
#
#
# Elastic Constant Matrix: (Units=GPa)
#
#
# Indices 1 2 3 4 5 6 
#
# 1 74.5045 36.1054 20.0891 0.0000 0.0000 0.0000
# 2 36.1054 74.5045 20.0891 0.0000 0.0000 0.0000
# 3 20.0891 20.0891 107.6099 0.0000 0.0000 0.0000
# 4 0.0000 0.0000 0.0000 22.1398 0.0000 0.0000
# 5 0.0000 0.0000 0.0000 0.0000 22.1398 0.0000
# 6 0.0000 0.0000 0.0000 0.0000 0.0000 19.1996
#
#
#
# Elastic Compliance Matrix: (Units=1/GPa)
#
#
# Indices 1 2 3 4 5 6 
#
# 1 0.017870 -0.008172 -0.001811 0.000000 0.000000 0.000000
# 2 -0.008172 0.017870 -0.001811 0.000000 0.000000 0.000000
# 3 -0.001811 -0.001811 0.009969 0.000000 0.000000 0.000000
# 4 0.000000 0.000000 0.000000 0.045168 0.000000 0.000000
# 5 0.000000 0.000000 0.000000 0.000000 0.045168 0.000000
# 6 0.000000 0.000000 0.000000 0.000000 0.000000 0.052085
#
#
# Mechanical properties :
#
#
# Convention : Reuss Voigt Hill
#
# Bulk Modulus (GPa) = 45.20075 45.46512 45.33294
# Shear Modulus (GPa) = 22.82170 24.71819 23.76995
#
# Velocity S-wave (km/s) = 3.40340 3.54199 3.47339
# Velocity P-wave (km/s) = 6.19563 6.30900 6.25257
#
# Compressibility (1/GPa) = 0.02212353
#
# Stress axis : x y z
#
# Youngs Moduli (GPa) = 55.95860 55.95860 100.31273
#
# Poissons Ratio (x) = 0.45729 0.18162
# Poissons Ratio (y) = 0.45729 0.18162
# Poissons Ratio (z) = 0.10132 0.10132
#
# Static dielectric constant tensor:
#      x y z
#    x 1.721320 0.000000 0.000000 
#    y 0.000000 1.721320 0.000000 
#    z 0.000000 0.000000 1.765210 
# 
# From -- ./inp_files/6028.got.cif
#   From: 2010.05.17/outbox.cif.g08.bks.cpg/sg178_4_cif.got.tgz:6028.got - 2010.05.20 11:30:59.
