data_PCOD9582677
_publ_section_title
;
Structure prediction by ZEFSAII (Michael W. Deem and Ramdas Pophale) SiO2 
 PCOD9582677
Probable space group: P 61 2 2
;
_chemical_formula_sum "Si O2"
_cell_formula_units_Z 48
_cell_length_a 9.453821
_cell_length_b 9.453821
_cell_length_c 25.972734
_cell_angle_alpha 90.000000
_cell_angle_beta 90.000000
_cell_angle_gamma 120.000000
_cell_volume 2010.310076
_symmetry_space_group_name_H-M "P 61 2 2"
_symmetry_group_IT_number 178
_symmetry_cell_setting 'hexagonal'
loop_
_space_group_symop_operation_xyz
x,y,z
x-y,x,1/6+z
-y,x-y,1/3+z
-x,-y,1/2+z
-x+y,-x,2/3+z
y,-x+y,5/6+z
x-y,-y,-z
-x,-x+y,2/3-z
y,x,1/3-z
-y,-x,5/6-z
-x+y,y,1/2-z
x,x-y,1/6-z
loop_
_atom_site_type_symbol
_atom_site_label
_atom_site_fract_x
_atom_site_fract_y
_atom_site_fract_z
Si Si1 0.856933 0.597793 0.543966
Si Si2 0.327785 0.327785 0.666667
Si Si3 0.739805 0.479610 0.750000
Si Si4 0.212812 0.514028 0.358669
Si Si5 0.806882 0.171237 0.095225
O O1 0.786230 0.407617 0.531339
O O2 0.737121 0.590992 0.589525
O O3 0.860260 0.678176 0.488918
O O4 0.031033 0.676243 0.572207
O O5 0.363346 0.506879 0.684357
O O6 0.262051 0.222728 0.718038
O O7 0.810485 0.572428 0.803595
O O8 0.544923 0.352547 0.756693
#
# Coordination Sequence:
#
# PCOD9582677 Si02
#       5
#    12   6   6  12  12
#     4  10  21  36  59  91 125 168 217 271 327 392
#     4  10  22  38  60  94 130 168 212 266 318 386
#     4   8  16  32  52  84 126 164 204 258 324 384
#     4   9  19  33  56  89 126 163 211 269 322 375
#     4  10  21  36  59  91 127 165 214 269 326 384
#
# _framework density 23.876913999999999
#
# number of rings (size 3 to 8) (size 9 to 14) (size 15 to 20)
#    0.000    2.500    0.000    1.500    0.000   19.000 
#    0.000    0.000    0.000    4.500    0.000    0.000 
#    0.000    0.000    0.000    0.000    0.000    0.000 
#
# Total GULP energy -267436.985212 kJ/mol
# GULP energy per Si atom -5571.603859 kJ/mol
# Density = 2.382257 g / cm^3
# Si number density = 23.876914 Si / 1000 Ang^3
#
#
#
# Elastic Constant Matrix: (Units=GPa)
#
#
# Indices 1 2 3 4 5 6 
#
# 1 65.8138 7.9427 48.8366 0.0000 0.0000 0.0000
# 2 7.9427 65.8138 48.8366 0.0000 0.0000 0.0000
# 3 48.8366 48.8366 301.2528 0.0000 0.0000 0.0000
# 4 0.0000 0.0000 0.0000 20.8802 0.0000 0.0000
# 5 0.0000 0.0000 0.0000 0.0000 20.8802 0.0000
# 6 0.0000 0.0000 0.0000 0.0000 0.0000 28.9356
#
#
#
# Elastic Compliance Matrix: (Units=1/GPa)
#
#
# Indices 1 2 3 4 5 6 
#
# 1 0.017272 -0.000008 -0.002799 0.000000 0.000000 0.000000
# 2 -0.000008 0.017272 -0.002799 0.000000 0.000000 0.000000
# 3 -0.002799 -0.002799 0.004227 0.000000 0.000000 0.000000
# 4 0.000000 0.000000 0.000000 0.047892 0.000000 0.000000
# 5 0.000000 0.000000 0.000000 0.000000 0.047892 0.000000
# 6 0.000000 0.000000 0.000000 0.000000 0.000000 0.034560
#
#
# Mechanical properties :
#
#
# Convention : Reuss Voigt Hill
#
# Bulk Modulus (GPa) = 36.28358 71.56802 53.92580
# Shear Modulus (GPa) = 26.38346 35.95682 31.17014
#
# Velocity S-wave (km/s) = 3.32773 3.88483 3.61702
# Velocity P-wave (km/s) = 5.47669 7.08247 6.33070
#
# Compressibility (1/GPa) = 0.02756068
#
# Stress axis : x y z
#
# Youngs Moduli (GPa) = 57.89685 57.89685 236.58034
#
# Poissons Ratio (x) = 0.00044 0.66213
# Poissons Ratio (y) = 0.00044 0.66213
# Poissons Ratio (z) = 0.16204 0.16204
#
# Static dielectric constant tensor:
#      x y z
#    x 1.956310 0.000000 0.000000 
#    y 0.000000 1.956310 0.000000 
#    z 0.000000 0.000000 1.889970 
# 
# From -- ./inp_files/8065.got.cif
#   From: 2010.05.17/outbox.cif.g08.bks.cpg/sg178_5_cif.got.tgz:8065.got - 2010.05.20 11:30:59.
