data_PCOD9582142
_publ_section_title
;
Structure prediction by ZEFSAII (Michael W. Deem and Ramdas Pophale) SiO2 
 PCOD9582142
Probable space group: P 63/M
;
_chemical_formula_sum "Si O2"
_cell_formula_units_Z 96
_cell_length_a 28.503909
_cell_length_b 28.503909
_cell_length_c 7.418488
_cell_angle_alpha 90.000000
_cell_angle_beta 90.000000
_cell_angle_gamma 120.000000
_cell_volume 5219.812173
_symmetry_space_group_name_H-M "P 63/M"
_symmetry_group_IT_number 176
_symmetry_cell_setting 'hexagonal'
loop_
_space_group_symop_operation_xyz
x,y,z
x-y,x,1/2+z
-y,x-y,z
-x,-y,1/2+z
-x+y,-x,z
y,-x+y,1/2+z
-x,-y,-z
-x+y,-x,1/2-z
y,-x+y,-z
x,y,1/2-z
x-y,x,-z
-y,x-y,1/2-z
loop_
_atom_site_type_symbol
_atom_site_label
_atom_site_fract_x
_atom_site_fract_y
_atom_site_fract_z
Si Si1 0.175420 0.824579 0.970141
Si Si2 0.238672 0.477344 0.530304
Si Si3 0.733854 0.673080 0.034520
Si Si4 0.060166 0.626031 0.535060
Si Si5 0.637245 0.170555 0.029678
Si Si6 0.362754 0.533311 0.529679
Si Si7 0.373971 0.939836 0.535059
Si Si8 0.939225 0.673079 0.465480
O O1 0.174859 0.825140 0.750000
O O2 0.207155 0.792843 0.023653
O O3 0.113066 0.788760 0.030450
O O4 0.211240 0.886934 0.030450
O O5 0.238227 0.476455 0.750000
O O6 0.207994 0.508917 0.472165
O O7 0.300923 0.508918 0.472166
O O8 0.733749 0.667746 0.250000
O O9 0.681448 0.617781 0.964894
O O10 0.721501 0.721502 0.999998
O O11 0.066392 0.632364 0.750000
O O12 0.000001 0.577722 0.500004
O O13 0.109529 0.619170 0.470751
O O14 0.637516 0.171536 0.250000
O O15 0.593381 0.186761 0.970730
O O16 0.619169 0.109527 0.970752
O O17 0.362484 0.534021 0.750000
O O18 0.367639 0.933612 0.750000
O O19 0.318553 0.936333 0.464895
O O20 0.933995 0.667744 0.250000
#
# Coordination Sequence:
#
# PCOD9582142 Si02
#       8
#    12  12  12  12  12  12  12  12
#     4   9  14  24  43  59  75 109 148 170 193 244
#     4   9  14  24  38  53  73 101 137 168 199 250
#     4   9  16  26  41  61  83 108 140 173 202 237
#     4   9  16  26  40  58  81 105 130 162 199 240
#     4   9  16  25  37  54  76 100 129 167 207 244
#     4   9  16  25  37  54  76 100 129 167 207 244
#     4   9  16  26  40  58  81 105 130 162 199 240
#     4   9  16  26  41  61  83 108 140 173 202 237
#
# _framework density 18.391466999999999
#
# number of rings (size 3 to 8) (size 9 to 14) (size 15 to 20)
#    0.000    3.000    2.500    0.000    0.000    0.500 
#    0.750    0.625    0.000    0.000    0.000    0.875 
#    0.000    0.000    0.000    0.375    0.250    4.750 
#
# Total GULP energy -535350.457678 kJ/mol
# GULP energy per Si atom -5576.567267 kJ/mol
# Density = 1.834961 g / cm^3
# Si number density = 18.391467 Si / 1000 Ang^3
#
#
#
# Elastic Constant Matrix: (Units=GPa)
#
#
# Indices 1 2 3 4 5 6 
#
# 1 127.6147 80.3414 0.5211 0.0000 0.0000 0.0000
# 2 80.3414 127.6147 0.5211 0.0000 0.0000 0.0000
# 3 0.5211 0.5211 57.4091 0.0000 0.0000 0.0000
# 4 0.0000 0.0000 0.0000 -327.8970 0.0000 0.0000
# 5 0.0000 0.0000 0.0000 0.0000 -327.8970 0.0000
# 6 0.0000 0.0000 0.0000 0.0000 0.0000 23.6366
#
#
#
# Elastic Compliance Matrix: (Units=1/GPa)
#
#
# Indices 1 2 3 4 5 6 
#
# 1 0.012981 -0.008172 -0.000044 0.000000 0.000000 0.000000
# 2 -0.008172 0.012981 -0.000044 0.000000 0.000000 0.000000
# 3 -0.000044 -0.000044 0.017420 0.000000 0.000000 0.000000
# 4 0.000000 0.000000 0.000000 -0.003050 0.000000 0.000000
# 5 0.000000 0.000000 0.000000 0.000000 -0.003050 0.000000
# 6 0.000000 0.000000 0.000000 0.000000 0.000000 0.042307
#
#
# Mechanical properties :
#
#
# Convention : Reuss Voigt Hill
#
# Bulk Modulus (GPa) = 37.22610 52.82287 45.02449
# Shear Modulus (GPa) = 47.59028 -111.01449 -31.71211
#
# Velocity S-wave (km/s) = 5.09239 -7.77772 -4.15695
# Velocity P-wave (km/s) = 7.40686 7.20233 1.22228
#
# Compressibility (1/GPa) = 0.02686287
#
# Stress axis : x y z
#
# Youngs Moduli (GPa) = 77.03409 77.03409 57.40650
#
# Poissons Ratio (x) = 0.62955 0.00251
# Poissons Ratio (y) = 0.62955 0.00251
# Poissons Ratio (z) = 0.00336 0.00336
#
# Static dielectric constant tensor:
#      x y z
#    x 1.629900 0.000000 0.000000 
#    y 0.000000 1.629900 0.000000 
#    z 0.000000 0.000000 1.740510 
# 
# From -- ./inp_files/2209.got.cif
#   From: 2010.05.17/outbox.cif.g08.bks.cpg/sg176_2_cif.got.tgz:2209.got - 2010.06.03 11:36:45.
