data_PCOD9582325
_publ_section_title
;
Structure prediction by ZEFSAII (Michael W. Deem and Ramdas Pophale) SiO2 
 PCOD9582325
Probable space group: P 6 2 2
;
_chemical_formula_sum "Si O2"
_cell_formula_units_Z 72
_cell_length_a 18.000000
_cell_length_b 18.000000
_cell_length_c 18.000000
_cell_angle_alpha 90.000000
_cell_angle_beta 90.000000
_cell_angle_gamma 120.000000
_cell_volume 5050.660155
_symmetry_space_group_name_H-M "P 6 2 2"
_symmetry_group_IT_number 177
_symmetry_cell_setting 'hexagonal'
loop_
_space_group_symop_operation_xyz
x,y,z
x-y,x,z
-y,x-y,z
-x,-y,z
-x+y,-x,z
y,-x+y,z
x-y,-y,-z
-x,-x+y,-z
y,x,-z
-y,-x,-z
-x+y,y,-z
x,x-y,-z
loop_
_atom_site_type_symbol
_atom_site_label
_atom_site_fract_x
_atom_site_fract_y
_atom_site_fract_z
Si Si1 0.333406 0.841920 0.636952
Si Si2 1.000000 0.409820 0.085848
Si Si3 0.363983 0.268408 0.500000
Si Si4 0.332748 0.489173 0.807530
Si Si5 0.510827 0.843575 0.192470
Si Si6 0.508514 0.666594 0.363048
O O1 0.311613 0.889741 0.573163
O O2 0.333435 0.871724 0.721714
O O3 0.257471 0.742529 0.634064
O O4 0.424511 0.849021 0.622920
O O5 0.084019 0.430580 0.133297
O O6 0.000000 0.500000 0.084194
O O7 0.915981 0.346561 0.133297
O O8 0.000000 0.384297 0.000000
O O9 0.285775 0.285775 0.500000
O O10 0.339811 0.169906 0.500000
O O11 0.421873 0.311613 0.426837
O O12 0.245048 0.490096 0.819846
O O13 0.414559 0.585441 0.813644
O O14 0.333435 0.461711 0.721714
#
# Coordination Sequence:
#
# PCOD9582325 Si02
#       6
#    12  12  12  12  12  12
#     4   9  17  28  43  64  90 120 150 179 208 245
#     4   9  18  30  42  59  83 109 140 183 230 265
#     4  10  21  33  45  64  89 117 148 180 217 257
#     4   9  17  29  45  63  85 115 150 184 217 256
#     4   9  17  29  45  63  85 115 150 184 217 256
#     4   9  17  28  43  64  90 120 150 179 208 245
#
# _framework density 14.255561999999999
#
# number of rings (size 3 to 8) (size 9 to 14) (size 15 to 20)
#    0.000    2.833    0.000    1.167    2.333    4.667 
#    0.000    1.667    0.000    2.167    0.000    0.000 
#    0.000    0.000    0.000    0.500    0.000    2.167 
#
# Total GULP energy -401189.371061 kJ/mol
# GULP energy per Si atom -5572.074598 kJ/mol
# Density = 1.422312 g / cm^3
# Si number density = 14.255562 Si / 1000 Ang^3
#
#
#
# Elastic Constant Matrix: (Units=GPa)
#
#
# Indices 1 2 3 4 5 6 
#
# 1 63.1772 44.1995 56.2461 0.0000 0.0000 0.0000
# 2 44.1995 63.1772 56.2461 0.0000 0.0000 0.0000
# 3 56.2461 56.2461 123.1472 0.0000 0.0000 0.0000
# 4 0.0000 0.0000 0.0000 19.6624 0.0000 0.0000
# 5 0.0000 0.0000 0.0000 0.0000 19.6624 0.0000
# 6 0.0000 0.0000 0.0000 0.0000 0.0000 9.4888
#
#
#
# Elastic Compliance Matrix: (Units=1/GPa)
#
#
# Indices 1 2 3 4 5 6 
#
# 1 0.035276 -0.017418 -0.008156 0.000000 0.000000 0.000000
# 2 -0.017418 0.035276 -0.008156 0.000000 0.000000 0.000000
# 3 -0.008156 -0.008156 0.015571 0.000000 0.000000 0.000000
# 4 0.000000 0.000000 0.000000 0.050858 0.000000 0.000000
# 5 0.000000 0.000000 0.000000 0.000000 0.050858 0.000000
# 6 0.000000 0.000000 0.000000 0.000000 0.000000 0.105387
#
#
# Mechanical properties :
#
#
# Convention : Reuss Voigt Hill
#
# Bulk Modulus (GPa) = 53.58671 62.54280 58.06475
# Shear Modulus (GPa) = 13.62738 15.95006 14.78872
#
# Velocity S-wave (km/s) = 3.09517 3.34857 3.22436
# Velocity P-wave (km/s) = 7.10247 7.67583 7.39471
#
# Compressibility (1/GPa) = 0.01866135
#
# Stress axis : x y z
#
# Youngs Moduli (GPa) = 28.34807 28.34807 64.22151
#
# Poissons Ratio (x) = 0.49376 0.52382
# Poissons Ratio (y) = 0.49376 0.52382
# Poissons Ratio (z) = 0.23122 0.23122
#
# Static dielectric constant tensor:
#      x y z
#    x 1.451680 0.000000 0.000000 
#    y 0.000000 1.451680 0.000000 
#    z 0.000000 0.000000 1.487290 
# 
# From -- ./inp_files/2886.got.cif
#   From: 2010.05.17/outbox.ucp.g08.bks.cvg/sg177_2_cif.got.tgz:2886.got - 2010.06.11 15:19:11.
