data_PCOD9582387
_publ_section_title
;
Structure prediction by ZEFSAII (Michael W. Deem and Ramdas Pophale) SiO2 
 PCOD9582387
Probable space group: P 61 2 2
;
_chemical_formula_sum "Si O2"
_cell_formula_units_Z 60
_cell_length_a 16.403861
_cell_length_b 16.403861
_cell_length_c 14.179234
_cell_angle_alpha 90.000000
_cell_angle_beta 90.000000
_cell_angle_gamma 120.000000
_cell_volume 3304.270268
_symmetry_space_group_name_H-M "P 61 2 2"
_symmetry_group_IT_number 178
_symmetry_cell_setting 'hexagonal'
loop_
_space_group_symop_operation_xyz
x,y,z
x-y,x,1/6+z
-y,x-y,1/3+z
-x,-y,1/2+z
-x+y,-x,2/3+z
y,-x+y,5/6+z
x-y,-y,-z
-x,-x+y,2/3-z
y,x,1/3-z
-y,-x,5/6-z
-x+y,y,1/2-z
x,x-y,1/6-z
loop_
_atom_site_type_symbol
_atom_site_label
_atom_site_fract_x
_atom_site_fract_y
_atom_site_fract_z
Si Si1 0.218540 0.781461 0.416667
Si Si2 0.195627 0.287345 0.903522
Si Si3 0.114350 0.114350 0.666667
Si Si4 0.240376 0.357387 0.451381
Si Si5 0.520338 0.618979 0.217666
Si Si6 0.662411 0.456676 0.830419
O O1 0.138406 0.769116 0.491451
O O2 0.314404 0.820872 0.475926
O O3 0.089362 0.210575 0.870635
O O4 0.265530 0.246121 0.909250
O O5 0.187406 0.326611 0.004331
O O6 0.040345 0.080690 0.750000
O O7 0.310461 0.404005 0.540329
O O8 0.274298 0.439722 0.374606
O O9 0.561532 0.561532 0.166667
O O10 0.427793 0.552479 0.276495
O O11 0.717755 0.435510 0.750000
O O12 0.618778 0.381223 0.916667
#
# Coordination Sequence:
#
# PCOD9582387 Si02
#       6
#     6  12   6  12  12  12
#     4  10  18  30  60  96 114 152 192 260 312 364
#     4  11  18  33  60  89 127 155 209 249 311 365
#     4  12  22  34  58  94 126 170 210 266 300 346
#     4  10  21  36  58  91 122 164 199 260 310 377
#     4  10  20  36  61  94 122 147 205 260 318 378
#     4  10  24  44  63  85 124 164 210 264 322 387
#
# _framework density 18.15832
#
# number of rings (size 3 to 8) (size 9 to 14) (size 15 to 20)
#    0.000    1.600    5.000    0.000    4.200    1.600 
#    0.000    1.000    0.000    0.000    0.000    0.000 
#    0.000    0.000    0.000    0.000    0.000    0.000 
#
# Total GULP energy -334677.009386 kJ/mol
# GULP energy per Si atom -5577.950156 kJ/mol
# Density = 1.811699 g / cm^3
# Si number density = 18.158320 Si / 1000 Ang^3
#
#
#
# Elastic Constant Matrix: (Units=GPa)
#
#
# Indices 1 2 3 4 5 6 
#
# 1 57.3632 27.7947 43.7953 0.0000 0.0000 0.0000
# 2 27.7947 57.3632 43.7953 0.0000 0.0000 0.0000
# 3 43.7953 43.7953 105.4814 0.0000 0.0000 0.0000
# 4 0.0000 0.0000 0.0000 34.8765 0.0000 0.0000
# 5 0.0000 0.0000 0.0000 0.0000 34.8765 0.0000
# 6 0.0000 0.0000 0.0000 0.0000 0.0000 14.7843
#
#
#
# Elastic Compliance Matrix: (Units=1/GPa)
#
#
# Indices 1 2 3 4 5 6 
#
# 1 0.027158 -0.006662 -0.008510 0.000000 0.000000 0.000000
# 2 -0.006662 0.027158 -0.008510 0.000000 0.000000 0.000000
# 3 -0.008510 -0.008510 0.016547 0.000000 0.000000 0.000000
# 4 0.000000 0.000000 0.000000 0.028673 0.000000 0.000000
# 5 0.000000 0.000000 0.000000 0.000000 0.028673 0.000000
# 6 0.000000 0.000000 0.000000 0.000000 0.000000 0.067640
#
#
# Mechanical properties :
#
#
# Convention : Reuss Voigt Hill
#
# Bulk Modulus (GPa) = 42.55452 50.10874 46.33163
# Shear Modulus (GPa) = 19.91693 23.89562 21.90627
#
# Velocity S-wave (km/s) = 3.31546 3.63155 3.47710
# Velocity P-wave (km/s) = 6.17597 6.72604 6.45686
#
# Compressibility (1/GPa) = 0.02349926
#
# Stress axis : x y z
#
# Youngs Moduli (GPa) = 36.82196 36.82196 60.43505
#
# Poissons Ratio (x) = 0.24531 0.51428
# Poissons Ratio (y) = 0.24531 0.51428
# Poissons Ratio (z) = 0.31334 0.31334
#
# Static dielectric constant tensor:
#      x y z
#    x 1.628240 0.000000 0.000000 
#    y 0.000000 1.628240 0.000000 
#    z 0.000000 0.000000 1.635210 
# 
# From -- ./inp_files/5747.got.cif
#   From: 2010.05.17/outbox.cif.g08.bks.cpg/sg178_3_cif.got.tgz:5747.got - 2010.05.20 11:30:59.
