data_PCOD9582700
_publ_section_title
;
Structure prediction by ZEFSAII (Michael W. Deem and Ramdas Pophale) SiO2 
 PCOD9582700
Probable space group: P 61 2 2
;
_chemical_formula_sum "Si O2"
_cell_formula_units_Z 66
_cell_length_a 13.693503
_cell_length_b 13.693503
_cell_length_c 18.669517
_cell_angle_alpha 90.000000
_cell_angle_beta 90.000000
_cell_angle_gamma 120.000000
_cell_volume 3031.746164
_symmetry_space_group_name_H-M "P 61 2 2"
_symmetry_group_IT_number 178
_symmetry_cell_setting 'hexagonal'
loop_
_space_group_symop_operation_xyz
x,y,z
x-y,x,1/6+z
-y,x-y,1/3+z
-x,-y,1/2+z
-x+y,-x,2/3+z
y,-x+y,5/6+z
x-y,-y,-z
-x,-x+y,2/3-z
y,x,1/3-z
-y,-x,5/6-z
-x+y,y,1/2-z
x,x-y,1/6-z
loop_
_atom_site_type_symbol
_atom_site_label
_atom_site_fract_x
_atom_site_fract_y
_atom_site_fract_z
Si Si1 0.447384 0.367715 0.872021
Si Si2 0.593275 0.796638 0.083334
Si Si3 0.815616 0.718081 0.391637
Si Si4 0.759900 0.138549 0.618441
Si Si5 0.504910 0.468318 0.585628
Si Si6 0.913888 0.048205 0.564278
O O1 0.520002 0.479999 0.916667
O O2 0.314838 0.318192 0.881114
O O3 0.465464 0.268158 0.900878
O O4 0.476617 0.407768 0.790868
O O5 0.670703 0.825511 0.154815
O O6 0.521469 0.660778 0.077519
O O7 0.809812 0.661588 0.468103
O O8 0.884353 0.852678 0.401912
O O9 0.626512 0.069459 0.612713
O O10 0.819171 0.085052 0.570356
O O11 0.498323 0.498323 0.666667
O O12 0.956884 0.080271 0.473353
#
# Coordination Sequence:
#
# PCOD9582700 Si02
#       6
#    12   6  12  12  12  12
#     4  10  21  39  64  90 127 173 213 264 342 400
#     4  10  24  42  70  94 136 176 236 282 346 400
#     4  10  21  42  63  93 128 178 216 284 336 401
#     4  11  22  38  68  93 134 171 222 277 343 400
#     4  11  23  43  66  99 134 175 227 288 337 409
#     4  11  22  41  63  93 131 171 220 270 335 404
#
# _framework density 21.769632000000001
#
# number of rings (size 3 to 8) (size 9 to 14) (size 15 to 20)
#    0.000    1.455    3.636    1.636    1.273    0.000 
#    1.636    0.909    0.000    0.000    0.000    0.000 
#    0.000    0.000    0.000    0.000    0.000    0.000 
#
# Total GULP energy -367891.232410 kJ/mol
# GULP energy per Si atom -5574.109582 kJ/mol
# Density = 2.172008 g / cm^3
# Si number density = 21.769632 Si / 1000 Ang^3
#
#
#
# Elastic Constant Matrix: (Units=GPa)
#
#
# Indices 1 2 3 4 5 6 
#
# 1 100.9418 41.9155 36.2724 0.0000 0.0000 0.0000
# 2 41.9155 100.9418 36.2724 0.0000 0.0000 0.0000
# 3 36.2724 36.2724 144.0027 0.0000 0.0000 0.0000
# 4 0.0000 0.0000 0.0000 29.2992 0.0000 0.0000
# 5 0.0000 0.0000 0.0000 0.0000 29.2992 0.0000
# 6 0.0000 0.0000 0.0000 0.0000 0.0000 29.5131
#
#
#
# Elastic Compliance Matrix: (Units=1/GPa)
#
#
# Indices 1 2 3 4 5 6 
#
# 1 0.012484 -0.004457 -0.002022 0.000000 0.000000 0.000000
# 2 -0.004457 0.012484 -0.002022 0.000000 0.000000 0.000000
# 3 -0.002022 -0.002022 0.007963 0.000000 0.000000 0.000000
# 4 0.000000 0.000000 0.000000 0.034131 0.000000 0.000000
# 5 0.000000 0.000000 0.000000 0.000000 0.034131 0.000000
# 6 0.000000 0.000000 0.000000 0.000000 0.000000 0.033883
#
#
# Mechanical properties :
#
#
# Convention : Reuss Voigt Hill
#
# Bulk Modulus (GPa) = 62.77869 63.86743 63.32306
# Shear Modulus (GPa) = 31.76870 33.05068 32.40969
#
# Velocity S-wave (km/s) = 3.82424 3.90064 3.86263
# Velocity P-wave (km/s) = 6.95702 7.04898 7.00315
#
# Compressibility (1/GPa) = 0.01592897
#
# Stress axis : x y z
#
# Youngs Moduli (GPa) = 80.10149 80.10149 125.58309
#
# Poissons Ratio (x) = 0.35705 0.25391
# Poissons Ratio (y) = 0.35705 0.25391
# Poissons Ratio (z) = 0.16195 0.16195
#
# Static dielectric constant tensor:
#      x y z
#    x 1.788420 0.000000 0.000000 
#    y 0.000000 1.788420 0.000000 
#    z 0.000000 0.000000 2.093680 
# 
# From -- ./inp_files/6700.got.cif
#   From: 2010.05.17/outbox.cif.g08.bks.cpg/sg178_4_cif.got.tgz:6700.got - 2010.05.20 11:30:59.
