data_PCOD9582443
_publ_section_title
;
Structure prediction by ZEFSAII (Michael W. Deem and Ramdas Pophale) SiO2 
 PCOD9582443
Probable space group: P 61 2 2
;
_chemical_formula_sum "Si O2"
_cell_formula_units_Z 48
_cell_length_a 24.961876
_cell_length_b 24.961876
_cell_length_c 5.040899
_cell_angle_alpha 90.000000
_cell_angle_beta 90.000000
_cell_angle_gamma 120.000000
_cell_volume 2720.151360
_symmetry_space_group_name_H-M "P 61 2 2"
_symmetry_group_IT_number 178
_symmetry_cell_setting 'hexagonal'
loop_
_space_group_symop_operation_xyz
x,y,z
x-y,x,1/6+z
-y,x-y,1/3+z
-x,-y,1/2+z
-x+y,-x,2/3+z
y,-x+y,5/6+z
x-y,-y,-z
-x,-x+y,2/3-z
y,x,1/3-z
-y,-x,5/6-z
-x+y,y,1/2-z
x,x-y,1/6-z
loop_
_atom_site_type_symbol
_atom_site_label
_atom_site_fract_x
_atom_site_fract_y
_atom_site_fract_z
Si Si1 0.243650 0.680680 0.671450
Si Si2 0.750987 0.174014 0.660041
Si Si3 0.041936 0.309027 0.589394
Si Si4 0.866624 0.803609 0.503793
O O1 0.279643 0.720358 0.416667
O O2 0.222553 0.611277 0.583334
O O3 0.189662 0.696556 0.732896
O O4 0.292006 0.707995 0.916667
O O5 0.798688 0.201313 0.416667
O O6 0.730078 0.103707 0.717425
O O7 0.787423 0.212578 0.916667
O O8 0.057142 0.253164 0.613827
O O9 0.000000 0.292791 0.333334
O O10 0.000000 0.305286 0.833334
O O11 0.850861 0.850861 0.666667
O O12 0.889408 0.778815 0.750000
O O13 0.913745 0.827490 0.250000
#
# Coordination Sequence:
#
# PCOD9582443 Si02
#       4
#    12  12  12  12
#     4  10  19  31  51  77 106 139 175 217 262 307
#     4  10  20  34  52  76 106 139 172 212 262 313
#     4  11  21  34  53  77 104 136 171 211 259 308
#     4  11  21  35  54  78 104 132 165 206 255 306
#
# _framework density 17.646076999999998
#
# number of rings (size 3 to 8) (size 9 to 14) (size 15 to 20)
#    0.000    1.500    0.000    8.250    0.000    0.000 
#    0.000    0.000    0.000    3.000    0.000    1.750 
#    0.000    0.000    0.000    0.000    0.000    0.000 
#
# Total GULP energy -267702.530888 kJ/mol
# GULP energy per Si atom -5577.136060 kJ/mol
# Density = 1.760591 g / cm^3
# Si number density = 17.646077 Si / 1000 Ang^3
#
#
#
# Elastic Constant Matrix: (Units=GPa)
#
#
# Indices 1 2 3 4 5 6 
#
# 1 100.6822 53.1240 26.0174 0.0000 0.0000 0.0000
# 2 53.1240 100.6822 26.0174 0.0000 0.0000 0.0000
# 3 26.0174 26.0174 111.3916 0.0000 0.0000 0.0000
# 4 0.0000 0.0000 0.0000 30.7579 0.0000 0.0000
# 5 0.0000 0.0000 0.0000 0.0000 30.7579 0.0000
# 6 0.0000 0.0000 0.0000 0.0000 0.0000 23.7791
#
#
#
# Elastic Compliance Matrix: (Units=1/GPa)
#
#
# Indices 1 2 3 4 5 6 
#
# 1 0.014043 -0.006984 -0.001649 0.000000 0.000000 0.000000
# 2 -0.006984 0.014043 -0.001649 0.000000 0.000000 0.000000
# 3 -0.001649 -0.001649 0.009748 0.000000 0.000000 0.000000
# 4 0.000000 0.000000 0.000000 0.032512 0.000000 0.000000
# 5 0.000000 0.000000 0.000000 0.000000 0.032512 0.000000
# 6 0.000000 0.000000 0.000000 0.000000 0.000000 0.042054
#
#
# Mechanical properties :
#
#
# Convention : Reuss Voigt Hill
#
# Bulk Modulus (GPa) = 57.90006 58.11931 58.00968
# Shear Modulus (GPa) = 29.20023 30.89879 30.04951
#
# Velocity S-wave (km/s) = 4.07230 4.18907 4.13110
# Velocity P-wave (km/s) = 7.41584 7.51035 7.46324
#
# Compressibility (1/GPa) = 0.01727114
#
# Stress axis : x y z
#
# Youngs Moduli (GPa) = 71.20891 71.20891 102.58954
#
# Poissons Ratio (x) = 0.49730 0.16916
# Poissons Ratio (y) = 0.49730 0.16916
# Poissons Ratio (z) = 0.11741 0.11741
#
# Static dielectric constant tensor:
#      x y z
#    x 1.640050 0.000000 0.000000 
#    y 0.000000 1.640050 0.000000 
#    z 0.000000 0.000000 1.639100 
# 
# From -- ./inp_files/1049.got.cif
#   From: 2010.05.17/outbox.cif.g08.bks.cpg/sg178_1_cif.got.tgz:1049.got - 2010.05.20 11:30:59.
