data_PCOD9582158
_publ_section_title
;
Structure prediction by ZEFSAII (Michael W. Deem and Ramdas Pophale) SiO2 
 PCOD9582158
Probable space group: P 6 2 2
;
_chemical_formula_sum "Si O2"
_cell_formula_units_Z 84
_cell_length_a 33.317992
_cell_length_b 33.317992
_cell_length_c 5.471115
_cell_angle_alpha 90.000000
_cell_angle_beta 90.000000
_cell_angle_gamma 120.000000
_cell_volume 5259.738035
_symmetry_space_group_name_H-M "P 6 2 2"
_symmetry_group_IT_number 177
_symmetry_cell_setting 'hexagonal'
loop_
_space_group_symop_operation_xyz
x,y,z
x-y,x,z
-y,x-y,z
-x,-y,z
-x+y,-x,z
y,-x+y,z
x-y,-y,-z
-x,-x+y,-z
y,x,-z
-y,-x,-z
-x+y,y,-z
x,x-y,-z
loop_
_atom_site_type_symbol
_atom_site_label
_atom_site_fract_x
_atom_site_fract_y
_atom_site_fract_z
Si Si1 0.799628 0.200373 0.500000
Si Si2 0.662085 0.471152 0.020109
Si Si3 0.770737 0.541474 0.000000
Si Si4 0.432442 0.052282 0.457332
Si Si5 0.084081 0.622003 0.956344
Si Si6 0.300773 0.354782 0.952889
Si Si7 0.334922 0.758924 0.482359
Si Si8 0.093036 0.364998 0.547561
O O1 0.782560 0.212322 0.249470
O O2 0.770016 0.144780 0.516330
O O3 0.632961 0.497065 0.994395
O O4 0.656045 0.440998 0.777498
O O5 0.715837 0.510050 0.018531
O O6 0.653835 0.445576 0.280335
O O7 0.465299 0.065560 0.691745
O O8 0.410991 0.086795 0.441596
O O9 0.390717 0.000000 0.500000
O O10 0.456839 0.055458 0.200901
O O11 0.079370 0.668485 0.940094
O O12 0.275396 0.339289 0.693550
O O13 0.335351 0.335351 0.000000
O O14 0.268581 0.342106 0.190176
O O15 0.281739 0.718262 0.500000
O O16 0.369180 0.738359 0.500000
#
# Coordination Sequence:
#
# PCOD9582158 Si02
#       8
#     6  12   6  12  12  12  12  12
#     4  12  22  30  46  70 108 152 166 188 240 314
#     4  12  23  38  57  84 109 129 161 191 235 293
#     4  12  20  34  50  72 108 134 158 180 228 282
#     4  10  17  29  46  69 101 138 177 208 233 266
#     4  10  18  29  46  72 104 129 149 195 236 275
#     4  10  18  31  47  66  95 132 175 213 238 269
#     4  12  25  46  64  84 101 131 165 199 231 270
#     4  10  18  28  39  62  89 129 175 200 240 282
#
# _framework density 15.970376
#
# number of rings (size 3 to 8) (size 9 to 14) (size 15 to 20)
#    0.000    1.143    1.429   10.857    0.000    0.000 
#    0.000    1.429    0.000    0.000    0.000    0.000 
#    0.000   66.286    0.000    0.000    0.000    0.000 
#
# Total GULP energy -468421.125314 kJ/mol
# GULP energy per Si atom -5576.441968 kJ/mol
# Density = 1.593403 g / cm^3
# Si number density = 15.970376 Si / 1000 Ang^3
#
#
#
# Elastic Constant Matrix: (Units=GPa)
#
#
# Indices 1 2 3 4 5 6 
#
# 1 40.6557 -15.9110 -8.0891 0.0000 0.0000 0.0000
# 2 -15.9110 40.6557 -8.0891 0.0000 0.0000 0.0000
# 3 -8.0891 -8.0891 108.9195 0.0000 0.0000 0.0000
# 4 0.0000 0.0000 0.0000 25.8204 0.0000 0.0000
# 5 0.0000 0.0000 0.0000 0.0000 25.8204 0.0000
# 6 0.0000 0.0000 0.0000 0.0000 0.0000 28.2834
#
#
#
# Elastic Compliance Matrix: (Units=1/GPa)
#
#
# Indices 1 2 3 4 5 6 
#
# 1 0.030077 0.012398 0.003154 0.000000 0.000000 0.000000
# 2 0.012398 0.030077 0.003154 0.000000 0.000000 0.000000
# 3 0.003154 0.003154 0.009650 0.000000 0.000000 0.000000
# 4 0.000000 0.000000 0.000000 0.038729 0.000000 0.000000
# 5 0.000000 0.000000 0.000000 0.000000 0.038729 0.000000
# 6 0.000000 0.000000 0.000000 0.000000 0.000000 0.035356
#
#
# Mechanical properties :
#
#
# Convention : Reuss Voigt Hill
#
# Bulk Modulus (GPa) = 9.32679 14.00582 11.66631
# Shear Modulus (GPa) = 27.63315 30.80617 29.21966
#
# Velocity S-wave (km/s) = 4.16417 4.39675 4.28204
# Velocity P-wave (km/s) = 5.38267 5.87913 5.63637
#
# Compressibility (1/GPa) = 0.10721802
#
# Stress axis : x y z
#
# Youngs Moduli (GPa) = 33.24832 33.24832 103.63079
#
# Poissons Ratio (x) = -0.41223 -0.32690
# Poissons Ratio (y) = -0.41223 -0.32690
# Poissons Ratio (z) = -0.10488 -0.10488
#
# Static dielectric constant tensor:
#      x y z
#    x 1.527520 0.000000 0.000000 
#    y 0.000000 1.527520 0.000000 
#    z 0.000000 0.000000 1.621870 
# 
# From -- ./inp_files/726.got.cif
#   From: 2010.05.17/outbox.cif.g08.bks.cpg/sg177_1_cif.got.tgz:726.got - 2010.05.20 11:28:44.
