data_PCOD9582299
_publ_section_title
;
Structure prediction by ZEFSAII (Michael W. Deem and Ramdas Pophale) SiO2 
 PCOD9582299
Probable space group: P 6 2 2
;
_chemical_formula_sum "Si O2"
_cell_formula_units_Z 72
_cell_length_a 14.263906
_cell_length_b 14.263906
_cell_length_c 18.467062
_cell_angle_alpha 90.000000
_cell_angle_beta 90.000000
_cell_angle_gamma 120.000000
_cell_volume 3253.908791
_symmetry_space_group_name_H-M "P 6 2 2"
_symmetry_group_IT_number 177
_symmetry_cell_setting 'hexagonal'
loop_
_space_group_symop_operation_xyz
x,y,z
x-y,x,z
-y,x-y,z
-x,-y,z
-x+y,-x,z
y,-x+y,z
x-y,-y,-z
-x,-x+y,-z
y,x,-z
-y,-x,-z
-x+y,y,-z
x,x-y,-z
loop_
_atom_site_type_symbol
_atom_site_label
_atom_site_fract_x
_atom_site_fract_y
_atom_site_fract_z
Si Si1 0.486713 0.883285 0.808909
Si Si2 0.465873 0.262882 0.576383
Si Si3 0.878327 0.332891 0.972667
Si Si4 0.231859 0.046087 0.268217
Si Si5 0.798732 0.524071 0.735561
Si Si6 0.721373 0.986153 0.576859
O O1 0.534084 0.878636 0.886191
O O2 0.358676 0.804127 0.794957
O O3 0.540971 0.843193 0.750437
O O4 0.500000 0.000000 0.797829
O O5 0.518908 0.259454 0.500000
O O6 0.521324 0.305958 0.653849
O O7 0.376095 0.135277 0.587510
O O8 0.392626 0.319403 0.568233
O O9 0.783306 0.216695 0.000000
O O10 0.856546 0.428273 0.000000
O O11 0.000000 0.368497 0.000000
O O12 0.209097 0.139524 0.240603
O O13 0.359326 0.093758 0.255603
O O14 0.224036 0.024705 0.354950
O O15 0.779126 0.000000 0.500000
#
# Coordination Sequence:
#
# PCOD9582299 Si02
#       6
#    12  12  12  12  12  12
#     4  12  25  42  69 103 134 172 227 274 341 410
#     4   9  18  33  55  80 120 174 220 280 341 395
#     4  11  23  46  75 112 150 186 223 277 347 421
#     4  11  20  34  54  83 123 168 207 264 328 402
#     4  11  24  41  62  90 132 173 221 289 341 393
#     4   9  15  25  47  77 109 157 208 258 332 395
#
# _framework density 22.127233
#
# number of rings (size 3 to 8) (size 9 to 14) (size 15 to 20)
#    0.000    1.500    5.000    2.667    2.333    0.000 
#    0.000    0.833    0.000    2.167    0.000    0.000 
#    0.000    0.000    0.000    0.000    0.000    0.000 
#
# Total GULP energy -401493.310632 kJ/mol
# GULP energy per Si atom -5576.295981 kJ/mol
# Density = 2.207687 g / cm^3
# Si number density = 22.127233 Si / 1000 Ang^3
#
#
#
# Elastic Constant Matrix: (Units=GPa)
#
#
# Indices 1 2 3 4 5 6 
#
# 1 107.9992 48.6923 24.4079 0.0000 0.0000 0.0000
# 2 48.6923 107.9992 24.4079 0.0000 0.0000 0.0000
# 3 24.4079 24.4079 91.6736 0.0000 0.0000 0.0000
# 4 0.0000 0.0000 0.0000 -39.9558 0.0000 0.0000
# 5 0.0000 0.0000 0.0000 0.0000 -39.9558 0.0000
# 6 0.0000 0.0000 0.0000 0.0000 0.0000 29.6534
#
#
#
# Elastic Compliance Matrix: (Units=1/GPa)
#
#
# Indices 1 2 3 4 5 6 
#
# 1 0.011910 -0.004951 -0.001853 0.000000 0.000000 0.000000
# 2 -0.004951 0.011910 -0.001853 0.000000 0.000000 0.000000
# 3 -0.001853 -0.001853 0.011895 0.000000 0.000000 0.000000
# 4 0.000000 0.000000 0.000000 -0.025028 0.000000 0.000000
# 5 0.000000 0.000000 0.000000 0.000000 -0.025028 0.000000
# 6 0.000000 0.000000 0.000000 0.000000 0.000000 0.033723
#
#
# Mechanical properties :
#
#
# Convention : Reuss Voigt Hill
#
# Bulk Modulus (GPa) = 54.34241 55.85425 55.09833
# Shear Modulus (GPa) = 116.73811 3.95928 60.34869
#
# Velocity S-wave (km/s) = 7.27133 1.33911 5.22807
# Velocity P-wave (km/s) = 9.75237 5.26194 7.83571
#
# Compressibility (1/GPa) = 0.01840183
#
# Stress axis : x y z
#
# Youngs Moduli (GPa) = 83.96066 83.96066 84.06949
#
# Poissons Ratio (x) = 0.41570 0.15577
# Poissons Ratio (y) = 0.41570 0.15577
# Poissons Ratio (z) = 0.15557 0.15557
#
# Static dielectric constant tensor:
#      x y z
#    x 1.883110 0.000000 0.000000 
#    y 0.000000 1.883110 0.000000 
#    z 0.000000 0.000000 1.827840 
# 
# From -- ./inp_files/2839.got.cif
#   From: 2010.05.17/outbox.cif.g08.bks.cpg/sg177_2_cif.got.tgz:2839.got - 2010.05.20 11:28:44.
