data_PCOD9582001
_publ_section_title
;
Structure prediction by ZEFSAII (Michael W. Deem and Ramdas Pophale) SiO2 
 PCOD9582001
Probable space group: P 63/M
;
_chemical_formula_sum "Si O2"
_cell_formula_units_Z 52
_cell_length_a 13.981509
_cell_length_b 13.981509
_cell_length_c 14.866522
_cell_angle_alpha 90.000000
_cell_angle_beta 90.000000
_cell_angle_gamma 120.000000
_cell_volume 2516.796508
_symmetry_space_group_name_H-M "P 63/M"
_symmetry_group_IT_number 176
_symmetry_cell_setting 'hexagonal'
loop_
_space_group_symop_operation_xyz
x,y,z
x-y,x,1/2+z
-y,x-y,z
-x,-y,1/2+z
-x+y,-x,z
y,-x+y,1/2+z
-x,-y,-z
-x+y,-x,1/2-z
y,-x+y,-z
x,y,1/2-z
x-y,x,-z
-y,x-y,1/2-z
loop_
_atom_site_type_symbol
_atom_site_label
_atom_site_fract_x
_atom_site_fract_y
_atom_site_fract_z
Si Si1 0.227030 0.770569 0.453632
Si Si2 0.663649 0.019814 0.853860
Si Si3 0.415337 0.440253 0.148783
Si Si4 0.770882 0.215173 0.151595
Si Si5 0.666667 0.333334 0.853825
O O1 0.253967 0.893447 0.427235
O O2 0.247045 0.746344 0.554937
O O3 0.316815 0.762936 0.391885
O O4 0.108801 0.675516 0.419911
O O5 0.694469 0.060762 0.750000
O O6 0.539063 0.999025 0.870077
O O7 0.651522 0.898902 0.856647
O O8 0.387148 0.461573 0.250000
O O9 0.411876 0.323897 0.151733
O O10 0.764244 0.262064 0.250000
O O11 0.666667 0.333334 0.750000
#
# Coordination Sequence:
#
# PCOD9582001 Si02
#       5
#    12  12  12  12   4
#     4  12  22  36  64  88 118 155 196 245 299 347
#     4  10  21  39  61  86 119 154 198 246 294 348
#     4  10  21  39  61  86 119 154 198 246 294 348
#     4  10  24  40  54  80 121 164 199 235 285 354
#     4  12  24  36  55  92 121 144 192 249 304 347
#
# _framework density 20.661183999999999
#
# number of rings (size 3 to 8) (size 9 to 14) (size 15 to 20)
#    0.000    1.385    2.308    3.462    3.231    1.846 
#    1.385    0.000    0.000    0.923    0.000    6.462 
#    0.000    0.000    0.000    0.000    0.000    0.000 
#
# Total GULP energy -289990.202647 kJ/mol
# GULP energy per Si atom -5576.734666 kJ/mol
# Density = 2.061416 g / cm^3
# Si number density = 20.661184 Si / 1000 Ang^3
#
#
#
# Elastic Constant Matrix: (Units=GPa)
#
#
# Indices 1 2 3 4 5 6 
#
# 1 55.1307 7.5677 16.0121 0.0000 0.0000 -0.0003
# 2 7.5677 55.1316 16.0115 0.0000 0.0000 0.0000
# 3 16.0121 16.0115 168.8363 0.0000 0.0000 0.0000
# 4 0.0000 0.0000 0.0000 18.1573 0.0001 0.0000
# 5 0.0000 0.0000 0.0000 0.0001 18.1579 0.0000
# 6 -0.0003 0.0000 0.0000 0.0000 0.0000 23.7816
#
#
#
# Elastic Compliance Matrix: (Units=1/GPa)
#
#
# Indices 1 2 3 4 5 6 
#
# 1 0.018893 -0.002132 -0.001590 0.000000 0.000000 0.000000
# 2 -0.002132 0.018893 -0.001590 0.000000 0.000000 0.000000
# 3 -0.001590 -0.001590 0.006224 0.000000 0.000000 0.000000
# 4 0.000000 0.000000 0.000000 0.055074 0.000000 0.000000
# 5 0.000000 0.000000 0.000000 0.000000 0.055072 0.000000
# 6 0.000000 0.000000 0.000000 0.000000 0.000000 0.042049
#
#
# Mechanical properties :
#
#
# Convention : Reuss Voigt Hill
#
# Bulk Modulus (GPa) = 29.95051 39.80901 34.87976
# Shear Modulus (GPa) = 22.94030 27.98652 25.46341
#
# Velocity S-wave (km/s) = 3.33575 3.68441 3.51440
# Velocity P-wave (km/s) = 5.41883 6.11630 5.77810
#
# Compressibility (1/GPa) = 0.03338841
#
# Stress axis : x y z
#
# Youngs Moduli (GPa) = 52.92962 52.93065 160.65821
#
# Poissons Ratio (x) = 0.11283 0.25538
# Poissons Ratio (y) = 0.11283 0.25537
# Poissons Ratio (z) = 0.08414 0.08413
#
# Static dielectric constant tensor:
#      x y z
#    x 1.785720 0.000000 0.000000 
#    y 0.000000 1.785720 0.000000 
#    z 0.000000 0.000000 1.848300 
# 
# From -- ./inp_files/2553.got.cif
#   From: 2010.05.17/outbox.cif.g08.bks.cpg/sg176_2_cif.got.tgz:2553.got - 2010.06.03 11:36:45.
