data_PCOD9582137
_publ_section_title
;
Structure prediction by ZEFSAII (Michael W. Deem and Ramdas Pophale) SiO2 
 PCOD9582137
Probable space group: P 63/M
;
_chemical_formula_sum "Si O2"
_cell_formula_units_Z 64
_cell_length_a 14.979006
_cell_length_b 14.979006
_cell_length_c 14.428554
_cell_angle_alpha 90.000000
_cell_angle_beta 90.000000
_cell_angle_gamma 120.000000
_cell_volume 2803.621814
_symmetry_space_group_name_H-M "P 63/M"
_symmetry_group_IT_number 176
_symmetry_cell_setting 'hexagonal'
loop_
_space_group_symop_operation_xyz
x,y,z
x-y,x,1/2+z
-y,x-y,z
-x,-y,1/2+z
-x+y,-x,z
y,-x+y,1/2+z
-x,-y,-z
-x+y,-x,1/2-z
y,-x+y,-z
x,y,1/2-z
x-y,x,-z
-y,x-y,1/2-z
loop_
_atom_site_type_symbol
_atom_site_label
_atom_site_fract_x
_atom_site_fract_y
_atom_site_fract_z
Si Si1 0.333334 0.666667 0.137345
Si Si2 0.166466 0.942613 0.884358
Si Si3 0.381433 0.795680 0.862916
Si Si4 0.216205 0.772220 0.361002
Si Si5 0.944369 0.775509 0.606727
Si Si6 0.391916 0.994050 0.643489
O O1 0.333334 0.666668 0.250000
O O2 0.446171 0.693780 0.106182
O O3 0.267564 0.939761 0.854972
O O4 0.059191 0.844717 0.856403
O O5 0.181423 0.053119 0.855137
O O6 0.164123 0.947633 0.995707
O O7 0.263541 0.707253 0.887626
O O8 0.383601 0.802843 0.750000
O O9 0.415857 0.909201 0.899159
O O10 0.209627 0.760138 0.250000
O O11 0.229567 0.883230 0.376982
O O12 0.106269 0.680317 0.398699
O O13 0.430724 0.012634 0.750000
#
# Coordination Sequence:
#
# PCOD9582137 Si02
#       6
#     4  12  12  12  12  12
#     4   9  18  36  54  69  90 129 172 203 235 279
#     4   9  17  29  49  69  98 129 160 191 238 288
#     4   7  12  24  41  61  89 119 144 178 226 283
#     4   9  18  32  51  70  93 123 161 206 243 273
#     4   9  17  31  49  71  97 129 162 194 234 296
#     4   9  16  28  46  70  96 122 154 199 244 280
#
# _framework density 22.827615000000002
#
# number of rings (size 3 to 8) (size 9 to 14) (size 15 to 20)
#    0.375    3.000    0.000    0.375    0.000    2.250 
#    3.375    0.000    4.125    5.625    0.000    0.000 
#    0.000    0.000    0.000    0.000    0.000    0.000 
#
# Total GULP energy -356609.726382 kJ/mol
# GULP energy per Si atom -5572.026975 kJ/mol
# Density = 2.277566 g / cm^3
# Si number density = 22.827615 Si / 1000 Ang^3
#
#
#
# Elastic Constant Matrix: (Units=GPa)
#
#
# Indices 1 2 3 4 5 6 
#
# 1 50.0216 12.7974 -5.9672 0.0000 0.0000 -0.0005
# 2 12.7974 50.0200 -5.9672 0.0000 0.0000 -0.0008
# 3 -5.9672 -5.9672 64.1564 0.0000 0.0000 -0.0001
# 4 0.0000 0.0000 0.0000 10.8570 0.0000 0.0000
# 5 0.0000 0.0000 0.0000 0.0000 10.8570 0.0000
# 6 -0.0005 -0.0008 -0.0001 0.0000 0.0000 18.6121
#
#
#
# Elastic Compliance Matrix: (Units=1/GPa)
#
#
# Indices 1 2 3 4 5 6 
#
# 1 0.021535 -0.005330 0.001507 0.000000 0.000000 0.000000
# 2 -0.005330 0.021535 0.001507 0.000000 0.000000 0.000001
# 3 0.001507 0.001507 0.015867 0.000000 0.000000 0.000000
# 4 0.000000 0.000000 0.000000 0.092106 0.000000 0.000000
# 5 0.000000 0.000000 0.000000 0.000000 0.092107 0.000000
# 6 0.000000 0.000001 0.000000 0.000000 0.000000 0.053728
#
#
# Mechanical properties :
#
#
# Convention : Reuss Voigt Hill
#
# Bulk Modulus (GPa) = 18.41385 18.43600 18.42493
# Shear Modulus (GPa) = 15.64398 18.95422 17.29910
#
# Velocity S-wave (km/s) = 2.62068 2.88465 2.75583
# Velocity P-wave (km/s) = 4.15226 4.38049 4.26790
#
# Compressibility (1/GPa) = 0.05430694
#
# Stress axis : x y z
#
# Youngs Moduli (GPa) = 46.43668 46.43510 63.02272
#
# Poissons Ratio (x) = 0.24749 -0.09499
# Poissons Ratio (y) = 0.24750 -0.09499
# Poissons Ratio (z) = -0.06999 -0.06999
#
# Static dielectric constant tensor:
#      x y z
#    x 1.862440 0.000000 0.000000 
#    y 0.000000 1.862440 0.000000 
#    z 0.000000 0.000000 1.910550 
# 
# From -- ./inp_files/3297.got.cif
#   From: 2010.05.17/outbox.cif.g08.bks.cpg/sg176_2_cif.got.tgz:3297.got - 2010.06.03 11:36:45.
