data_PCOD9582452
_publ_section_title
;
Structure prediction by ZEFSAII (Michael W. Deem and Ramdas Pophale) SiO2 
 PCOD9582452
Probable space group: P 61 2 2
;
_chemical_formula_sum "Si O2"
_cell_formula_units_Z 30
_cell_length_a 19.408755
_cell_length_b 19.408755
_cell_length_c 5.077641
_cell_angle_alpha 90.000000
_cell_angle_beta 90.000000
_cell_angle_gamma 120.000000
_cell_volume 1656.486800
_symmetry_space_group_name_H-M "P 61 2 2"
_symmetry_group_IT_number 178
_symmetry_cell_setting 'hexagonal'
loop_
_space_group_symop_operation_xyz
x,y,z
x-y,x,1/6+z
-y,x-y,1/3+z
-x,-y,1/2+z
-x+y,-x,2/3+z
y,-x+y,5/6+z
x-y,-y,-z
-x,-x+y,2/3-z
y,x,1/3-z
-y,-x,5/6-z
-x+y,y,1/2-z
x,x-y,1/6-z
loop_
_atom_site_type_symbol
_atom_site_label
_atom_site_fract_x
_atom_site_fract_y
_atom_site_fract_z
Si Si1 0.000000 0.325446 0.833334
Si Si2 0.389429 0.474113 0.294912
Si Si3 0.377919 0.235944 0.334176
O O1 0.940394 0.346064 0.679259
O O2 0.054178 0.314364 0.616014
O O3 0.453362 0.453362 0.166667
O O4 0.438990 0.561011 0.416667
O O5 0.319119 0.453687 0.090981
O O6 0.396641 0.198321 0.583334
O O7 0.353037 0.176519 0.083334
#
# Coordination Sequence:
#
# PCOD9582452 Si02
#       3
#     6  12  12
#     4  10  20  36  56  82 110 142 186 236 288 334
#     4  10  19  32  56  85 112 139 193 245 286 331
#     4  11  22  36  53  82 115 145 185 237 292 342
#
# _framework density 18.110617999999999
#
# number of rings (size 3 to 8) (size 9 to 14) (size 15 to 20)
#    0.000    1.600    6.000    0.000    0.000    0.000 
#    0.000    0.000    0.000    0.000   10.400    0.000 
#    0.000    0.000    0.000    0.000   22.800   48.400 
#
# Total GULP energy -167078.236359 kJ/mol
# GULP energy per Si atom -5569.274545 kJ/mol
# Density = 1.806940 g / cm^3
# Si number density = 18.110618 Si / 1000 Ang^3
#
#
#
# Elastic Constant Matrix: (Units=GPa)
#
#
# Indices 1 2 3 4 5 6 
#
# 1 68.1297 47.9957 53.9523 0.0000 0.0000 0.0000
# 2 47.9957 68.1297 53.9523 0.0000 0.0000 0.0000
# 3 53.9523 53.9523 148.2947 0.0000 0.0000 0.0000
# 4 0.0000 0.0000 0.0000 37.8551 0.0000 0.0000
# 5 0.0000 0.0000 0.0000 0.0000 37.8551 0.0000
# 6 0.0000 0.0000 0.0000 0.0000 0.0000 10.0670
#
#
#
# Elastic Compliance Matrix: (Units=1/GPa)
#
#
# Indices 1 2 3 4 5 6 
#
# 1 0.031338 -0.018329 -0.004733 0.000000 0.000000 0.000000
# 2 -0.018329 0.031338 -0.004733 0.000000 0.000000 0.000000
# 3 -0.004733 -0.004733 0.010187 0.000000 0.000000 0.000000
# 4 0.000000 0.000000 0.000000 0.026417 0.000000 0.000000
# 5 0.000000 0.000000 0.000000 0.000000 0.026417 0.000000
# 6 0.000000 0.000000 0.000000 0.000000 0.000000 0.099334
#
#
# Mechanical properties :
#
#
# Convention : Reuss Voigt Hill
#
# Bulk Modulus (GPa) = 57.89106 66.26162 62.07634
# Shear Modulus (GPa) = 17.45937 25.73236 21.59587
#
# Velocity S-wave (km/s) = 3.10827 3.77350 3.45692
# Velocity P-wave (km/s) = 6.70197 7.46005 7.09115
#
# Compressibility (1/GPa) = 0.01727382
#
# Stress axis : x y z
#
# Youngs Moduli (GPa) = 31.90987 31.90987 98.16187
#
# Poissons Ratio (x) = 0.58487 0.46460
# Poissons Ratio (y) = 0.58487 0.46460
# Poissons Ratio (z) = 0.15103 0.15103
#
# Static dielectric constant tensor:
#      x y z
#    x 1.670190 0.000000 0.000000 
#    y 0.000000 1.670190 0.000000 
#    z 0.000000 0.000000 1.757720 
# 
# From -- ./inp_files/469.got.cif
#   From: 2010.05.17/outbox.cif.g08.bks.cpg/sg178_1_cif.got.tgz:469.got - 2010.05.20 11:30:59.
