data_PCOD9582520
_publ_section_title
;
Structure prediction by ZEFSAII (Michael W. Deem and Ramdas Pophale) SiO2 
 PCOD9582520
Probable space group: P 61 2 2
;
_chemical_formula_sum "Si O2"
_cell_formula_units_Z 54
_cell_length_a 14.182379
_cell_length_b 14.182379
_cell_length_c 14.972960
_cell_angle_alpha 90.000000
_cell_angle_beta 90.000000
_cell_angle_gamma 120.000000
_cell_volume 2608.173452
_symmetry_space_group_name_H-M "P 61 2 2"
_symmetry_group_IT_number 178
_symmetry_cell_setting 'hexagonal'
loop_
_space_group_symop_operation_xyz
x,y,z
x-y,x,1/6+z
-y,x-y,1/3+z
-x,-y,1/2+z
-x+y,-x,2/3+z
y,-x+y,5/6+z
x-y,-y,-z
-x,-x+y,2/3-z
y,x,1/3-z
-y,-x,5/6-z
-x+y,y,1/2-z
x,x-y,1/6-z
loop_
_atom_site_type_symbol
_atom_site_label
_atom_site_fract_x
_atom_site_fract_y
_atom_site_fract_z
Si Si1 0.222821 0.611411 0.083334
Si Si2 0.379635 0.833984 0.053808
Si Si3 0.620305 0.620305 0.166667
Si Si4 0.684898 0.804745 0.681194
Si Si5 0.682205 0.627057 0.972306
Si Si6 0.884546 0.442273 0.083334
O O1 0.297796 0.713387 0.021371
O O2 0.148902 0.648671 0.136554
O O3 0.310353 0.895091 0.047502
O O4 0.400474 0.822633 0.157927
O O5 0.497864 0.898824 0.011460
O O6 0.665286 0.685477 0.259109
O O7 0.788367 0.788367 0.666667
O O8 0.655665 0.827833 0.583334
O O9 0.690056 0.896717 0.748656
O O10 0.573955 0.616408 0.926691
#
# Coordination Sequence:
#
# PCOD9582520 Si02
#       6
#     6  12   6  12  12   6
#     4   9  20  30  48  78 112 156 204 256 283 374
#     4  10  20  32  52  79 118 165 204 248 311 354
#     4  10  20  34  56  78 120 164 208 250 312 388
#     4  11  22  37  61  90 118 158 212 272 312 377
#     4   9  20  35  53  81 117 161 208 253 316 368
#     4   9  18  36  50  78 124 164 196 258 303 388
#
# _framework density 20.704142999999998
#
# number of rings (size 3 to 8) (size 9 to 14) (size 15 to 20)
#    0.000    2.222    1.111    1.333    9.333    3.556 
#    2.000    0.000    0.000    0.000    2.889    0.000 
#    0.000    0.000    0.000    0.000    0.000    0.000 
#
# Total GULP energy -301013.580370 kJ/mol
# GULP energy per Si atom -5574.325562 kJ/mol
# Density = 2.065702 g / cm^3
# Si number density = 20.704143 Si / 1000 Ang^3
#
#
#
# Elastic Constant Matrix: (Units=GPa)
#
#
# Indices 1 2 3 4 5 6 
#
# 1 41.5901 22.0679 23.5579 0.0000 0.0000 0.0000
# 2 22.0679 41.5901 23.5579 0.0000 0.0000 0.0000
# 3 23.5579 23.5579 142.6441 0.0000 0.0000 0.0000
# 4 0.0000 0.0000 0.0000 14.0145 0.0000 0.0000
# 5 0.0000 0.0000 0.0000 0.0000 14.0145 0.0000
# 6 0.0000 0.0000 0.0000 0.0000 0.0000 9.7611
#
#
#
# Elastic Compliance Matrix: (Units=1/GPa)
#
#
# Indices 1 2 3 4 5 6 
#
# 1 0.034560 -0.016664 -0.002956 0.000000 0.000000 0.000000
# 2 -0.016664 0.034560 -0.002956 0.000000 0.000000 0.000000
# 3 -0.002956 -0.002956 0.007987 0.000000 0.000000 0.000000
# 4 0.000000 0.000000 0.000000 0.071355 0.000000 0.000000
# 5 0.000000 0.000000 0.000000 0.000000 0.071355 0.000000
# 6 0.000000 0.000000 0.000000 0.000000 0.000000 0.102447
#
#
# Mechanical properties :
#
#
# Convention : Reuss Voigt Hill
#
# Bulk Modulus (GPa) = 31.29185 40.46573 35.87879
# Shear Modulus (GPa) = 13.22523 18.00074 15.61299
#
# Velocity S-wave (km/s) = 2.53014 2.95180 2.74907
# Velocity P-wave (km/s) = 4.86642 5.58612 5.23864
#
# Compressibility (1/GPa) = 0.03195721
#
# Stress axis : x y z
#
# Youngs Moduli (GPa) = 28.93512 28.93512 125.20800
#
# Poissons Ratio (x) = 0.48216 0.37007
# Poissons Ratio (y) = 0.48216 0.37007
# Poissons Ratio (z) = 0.08552 0.08552
#
# Static dielectric constant tensor:
#      x y z
#    x 1.786380 0.000000 0.000000 
#    y 0.000000 1.786380 0.000000 
#    z 0.000000 0.000000 1.761780 
# 
# From -- ./inp_files/5605.got.cif
#   From: 2010.05.17/outbox.cif.g08.bks.cpg/sg178_3_cif.got.tgz:5605.got - 2010.05.20 11:30:59.
