data_PCOD9582237
_publ_section_title
;
Structure prediction by ZEFSAII (Michael W. Deem and Ramdas Pophale) SiO2 
 PCOD9582237
Probable space group: P 6 2 2
;
_chemical_formula_sum "Si O2"
_cell_formula_units_Z 46
_cell_length_a 14.422705
_cell_length_b 14.422705
_cell_length_c 13.237768
_cell_angle_alpha 90.000000
_cell_angle_beta 90.000000
_cell_angle_gamma 120.000000
_cell_volume 2384.727931
_symmetry_space_group_name_H-M "P 6 2 2"
_symmetry_group_IT_number 177
_symmetry_cell_setting 'hexagonal'
loop_
_space_group_symop_operation_xyz
x,y,z
x-y,x,z
-y,x-y,z
-x,-y,z
-x+y,-x,z
y,-x+y,z
x-y,-y,-z
-x,-x+y,-z
y,x,-z
-y,-x,-z
-x+y,y,-z
x,x-y,-z
loop_
_atom_site_type_symbol
_atom_site_label
_atom_site_fract_x
_atom_site_fract_y
_atom_site_fract_z
Si Si1 0.438263 0.876525 0.749935
Si Si2 0.204006 0.795994 0.809130
Si Si3 0.253275 0.126638 0.000000
Si Si4 0.666667 0.333334 0.381719
Si Si5 0.871868 0.743736 0.615556
O O1 0.332163 0.850425 0.811636
O O2 0.518264 0.850426 0.811636
O O3 0.393704 0.787404 0.661682
O O4 0.500000 0.000000 0.716723
O O5 0.172921 0.827080 0.701814
O O6 0.162890 0.837112 0.900234
O O7 0.181024 0.181024 0.000000
O O8 0.666668 0.333334 0.500000
O O9 0.816128 0.816128 0.626881
O O10 0.850309 0.700617 0.500000
#
# Coordination Sequence:
#
# PCOD9582237 Si02
#       5
#    12  12   6   4  12
#     4  10  21  40  60  79 113 157 200 245 290 340
#     4  11  24  41  61  89 119 155 202 247 292 347
#     4  12  25  42  66  96 128 154 183 232 296 362
#     4   9  21  36  54  88 119 145 195 249 298 356
#     4  10  20  36  59  88 123 161 201 245 297 363
#
# _framework density 19.289411000000001
#
# number of rings (size 3 to 8) (size 9 to 14) (size 15 to 20)
#    0.000    1.565    0.000    5.609    0.000    6.783 
#    0.000    5.217    0.000    0.000    0.000    0.000 
#    0.000    0.000    0.000    0.000    0.000    0.000 
#
# Total GULP energy -257108.273767 kJ/mol
# GULP energy per Si atom -5589.310299 kJ/mol
# Density = 1.924551 g / cm^3
# Si number density = 19.289411 Si / 1000 Ang^3
#
#
#
# Elastic Constant Matrix: (Units=GPa)
#
#
# Indices 1 2 3 4 5 6 
#
# 1 148.9159 101.2521 77.5404 -0.0001 0.0000 -0.0001
# 2 101.2521 148.9162 77.5404 0.0000 0.0000 0.0000
# 3 77.5404 77.5404 119.1460 -0.0002 -0.0001 -0.0001
# 4 -0.0001 0.0000 -0.0002 -2.7893 0.0001 0.0000
# 5 0.0000 0.0000 -0.0001 0.0001 -2.7895 0.0000
# 6 -0.0001 0.0000 -0.0001 0.0000 0.0000 23.8319
#
#
#
# Elastic Compliance Matrix: (Units=1/GPa)
#
#
# Indices 1 2 3 4 5 6 
#
# 1 0.013840 -0.007140 -0.004361 0.000000 0.000000 0.000000
# 2 -0.007140 0.013840 -0.004361 0.000000 0.000000 0.000000
# 3 -0.004361 -0.004361 0.014069 -0.000001 0.000000 0.000000
# 4 0.000000 0.000000 -0.000001 -0.358512 -0.000009 0.000000
# 5 0.000000 0.000000 0.000000 -0.000009 -0.358481 0.000001
# 6 0.000000 0.000000 0.000000 0.000000 0.000001 0.041961
#
#
# Mechanical properties :
#
#
# Convention : Reuss Voigt Hill
#
# Bulk Modulus (GPa) = 99.72885 103.29378 101.51132
# Shear Modulus (GPa) = -8.35816 14.36029 3.00106
#
# Velocity S-wave (km/s) = -2.08385 2.73145 1.24867
# Velocity P-wave (km/s) = 6.78407 7.97581 7.40396
#
# Compressibility (1/GPa) = 0.01002719
#
# Stress axis : x y z
#
# Youngs Moduli (GPa) = 72.25211 72.25242 71.07822
#
# Poissons Ratio (x) = 0.51587 0.30995
# Poissons Ratio (y) = 0.51587 0.30995
# Poissons Ratio (z) = 0.31507 0.31507
#
# Static dielectric constant tensor:
#      x y z
#    x 1.664120 0.000000 0.000000 
#    y 0.000000 1.664120 0.000000 
#    z 0.000000 0.000000 1.633560 
# 
# From -- ./inp_files/1802.got.cif
#   From: 2010.05.17/outbox.cif.g08.bks.cpg/sg177_1_cif.got.tgz:1802.got - 2010.05.20 11:28:44.
