data_PCOD9582988
_publ_section_title
;
Structure prediction by ZEFSAII (Michael W. Deem and Ramdas Pophale) SiO2 
 PCOD9582988
Probable space group: P 61 2 2
;
_chemical_formula_sum "Si O2"
_cell_formula_units_Z 54
_cell_length_a 15.209235
_cell_length_b 15.209235
_cell_length_c 12.717919
_cell_angle_alpha 90.000000
_cell_angle_beta 90.000000
_cell_angle_gamma 120.000000
_cell_volume 2547.777083
_symmetry_space_group_name_H-M "P 61 2 2"
_symmetry_group_IT_number 178
_symmetry_cell_setting 'hexagonal'
loop_
_space_group_symop_operation_xyz
x,y,z
x-y,x,1/6+z
-y,x-y,1/3+z
-x,-y,1/2+z
-x+y,-x,2/3+z
y,-x+y,5/6+z
x-y,-y,-z
-x,-x+y,2/3-z
y,x,1/3-z
-y,-x,5/6-z
-x+y,y,1/2-z
x,x-y,1/6-z
loop_
_atom_site_type_symbol
_atom_site_label
_atom_site_fract_x
_atom_site_fract_y
_atom_site_fract_z
Si Si1 0.837809 0.000000 0.000000
Si Si2 0.759658 0.428022 0.359426
Si Si3 0.021891 0.651051 0.620137
Si Si4 0.492023 0.939309 0.090927
Si Si5 0.144913 0.357400 0.977038
O O1 0.859183 0.929592 0.083334
O O2 0.811765 0.076887 0.063578
O O3 0.666057 0.333944 0.416667
O O4 0.728574 0.457148 0.250000
O O5 0.843072 0.406401 0.305856
O O6 0.811069 0.528065 0.431500
O O7 0.074572 0.626963 0.519976
O O8 0.999243 0.559003 0.696556
O O9 0.104698 0.757030 0.667631
O O10 0.925487 0.652332 0.574702
O O11 0.571718 0.000000 0.000000
#
# Coordination Sequence:
#
# PCOD9582988 Si02
#       5
#     6  12  12  12  12
#     4  12  24  42  78 110 132 172 232 308 378 436
#     4  12  24  38  62  99 143 188 234 290 343 421
#     4  11  24  41  67  97 137 177 232 294 358 414
#     4  11  23  41  62  93 137 188 233 283 343 420
#     4  12  22  42  69 101 139 176 233 295 357 425
#
# _framework density 21.194949000000001
#
# number of rings (size 3 to 8) (size 9 to 14) (size 15 to 20)
#    0.000    0.444    6.667    3.333    0.000    3.556 
#    0.000    0.000    2.444    0.000    0.000    0.000 
#    0.000    0.000    0.000    0.000    0.000    0.000 
#
# Total GULP energy -300964.142874 kJ/mol
# GULP energy per Si atom -5573.410053 kJ/mol
# Density = 2.114671 g / cm^3
# Si number density = 21.194949 Si / 1000 Ang^3
#
#
#
# Elastic Constant Matrix: (Units=GPa)
#
#
# Indices 1 2 3 4 5 6 
#
# 1 102.4812 29.3261 30.2837 0.0000 0.0000 0.0000
# 2 29.3261 102.4812 30.2837 0.0000 0.0000 0.0000
# 3 30.2837 30.2837 48.5928 0.0000 0.0000 0.0000
# 4 0.0000 0.0000 0.0000 25.0242 0.0000 0.0000
# 5 0.0000 0.0000 0.0000 0.0000 25.0242 0.0000
# 6 0.0000 0.0000 0.0000 0.0000 0.0000 36.5776
#
#
#
# Elastic Compliance Matrix: (Units=1/GPa)
#
#
# Indices 1 2 3 4 5 6 
#
# 1 0.012151 -0.001519 -0.006626 0.000000 0.000000 0.000000
# 2 -0.001519 0.012151 -0.006626 0.000000 0.000000 0.000000
# 3 -0.006626 -0.006626 0.028838 0.000000 0.000000 0.000000
# 4 0.000000 0.000000 0.000000 0.039961 0.000000 0.000000
# 5 0.000000 0.000000 0.000000 0.000000 0.039961 0.000000
# 6 0.000000 0.000000 0.000000 0.000000 0.000000 0.027339
#
#
# Mechanical properties :
#
#
# Convention : Reuss Voigt Hill
#
# Bulk Modulus (GPa) = 42.37682 48.14914 45.26298
# Shear Modulus (GPa) = 25.27712 28.23595 26.75654
#
# Velocity S-wave (km/s) = 3.45715 3.65389 3.55688
# Velocity P-wave (km/s) = 5.99776 6.36929 6.18631
#
# Compressibility (1/GPa) = 0.02359781
#
# Stress axis : x y z
#
# Youngs Moduli (GPa) = 82.30109 82.30109 34.67695
#
# Poissons Ratio (x) = 0.12502 0.22976
# Poissons Ratio (y) = 0.12502 0.22976
# Poissons Ratio (z) = 0.54530 0.54530
#
# Static dielectric constant tensor:
#      x y z
#    x 1.863680 0.000000 0.000000 
#    y 0.000000 1.863680 0.000000 
#    z 0.000000 0.000000 1.780120 
# 
# From -- ./inp_files/5543.got.cif
#   From: 2010.05.17/outbox.cif.g08.bks.cpg/sg178_3_cif.got.tgz:5543.got - 2010.05.20 11:30:59.
