data_PCOD9582352
_publ_section_title
;
Structure prediction by ZEFSAII (Michael W. Deem and Ramdas Pophale) SiO2 
 PCOD9582352
Probable space group: P 61 2 2
;
_chemical_formula_sum "Si O2"
_cell_formula_units_Z 60
_cell_length_a 20.705794
_cell_length_b 20.705794
_cell_length_c 8.261195
_cell_angle_alpha 90.000000
_cell_angle_beta 90.000000
_cell_angle_gamma 120.000000
_cell_volume 3067.307264
_symmetry_space_group_name_H-M "P 61 2 2"
_symmetry_group_IT_number 178
_symmetry_cell_setting 'hexagonal'
loop_
_space_group_symop_operation_xyz
x,y,z
x-y,x,1/6+z
-y,x-y,1/3+z
-x,-y,1/2+z
-x+y,-x,2/3+z
y,-x+y,5/6+z
x-y,-y,-z
-x,-x+y,2/3-z
y,x,1/3-z
-y,-x,5/6-z
-x+y,y,1/2-z
x,x-y,1/6-z
loop_
_atom_site_type_symbol
_atom_site_label
_atom_site_fract_x
_atom_site_fract_y
_atom_site_fract_z
Si Si1 0.050760 0.670612 0.068154
Si Si2 0.427889 0.118551 0.890622
Si Si3 0.443172 0.556829 0.916667
Si Si4 0.102389 0.149314 0.999374
Si Si5 0.144744 0.308470 0.058035
Si Si6 0.552058 0.000000 0.000000
O O1 0.076299 0.753432 0.129091
O O2 0.049512 0.620092 0.214120
O O3 0.104785 0.678724 0.918027
O O4 0.965389 0.626608 0.008129
O O5 0.507575 0.150910 0.801183
O O6 0.384146 0.162680 0.856064
O O7 0.460553 0.518085 0.767963
O O8 0.137106 0.137106 0.166667
O O9 0.137905 0.237007 0.968235
O O10 0.015410 0.117520 0.035157
O O11 0.146334 0.292667 0.250000
#
# Coordination Sequence:
#
# PCOD9582352 Si02
#       6
#    12  12   6  12  12   6
#     4   9  18  30  48  72 104 130 168 206 254 306
#     4   9  18  29  50  75 101 128 163 210 254 314
#     4  10  18  32  48  74 102 128 158 190 256 308
#     4  10  18  28  47  68  93 137 191 242 274 309
#     4  10  17  29  49  73  98 128 174 225 270 309
#     4  10  18  32  50  72 104 132 156 202 246 316
#
# _framework density 19.561132000000001
#
# number of rings (size 3 to 8) (size 9 to 14) (size 15 to 20)
#    0.000    2.400    2.000    3.600    2.800    0.000 
#    0.000    4.000   11.000    0.000    0.000    0.000 
#   60.000    0.000    0.000    0.000    0.000    0.000 
#
# Total GULP energy -334696.185270 kJ/mol
# GULP energy per Si atom -5578.269755 kJ/mol
# Density = 1.951661 g / cm^3
# Si number density = 19.561132 Si / 1000 Ang^3
#
#
#
# Elastic Constant Matrix: (Units=GPa)
#
#
# Indices 1 2 3 4 5 6 
#
# 1 84.2489 37.0838 15.6878 0.0000 0.0000 0.0000
# 2 37.0838 84.2489 15.6878 0.0000 0.0000 0.0000
# 3 15.6878 15.6878 43.4010 0.0000 0.0000 0.0000
# 4 0.0000 0.0000 0.0000 11.8679 0.0000 0.0000
# 5 0.0000 0.0000 0.0000 0.0000 11.8679 0.0000
# 6 0.0000 0.0000 0.0000 0.0000 0.0000 23.5825
#
#
#
# Elastic Compliance Matrix: (Units=1/GPa)
#
#
# Indices 1 2 3 4 5 6 
#
# 1 0.015147 -0.006055 -0.003286 0.000000 0.000000 0.000000
# 2 -0.006055 0.015147 -0.003286 0.000000 0.000000 0.000000
# 3 -0.003286 -0.003286 0.025417 0.000000 0.000000 0.000000
# 4 0.000000 0.000000 0.000000 0.084261 0.000000 0.000000
# 5 0.000000 0.000000 0.000000 0.000000 0.084261 0.000000
# 6 0.000000 0.000000 0.000000 0.000000 0.000000 0.042404
#
#
# Mechanical properties :
#
#
# Convention : Reuss Voigt Hill
#
# Bulk Modulus (GPa) = 32.83555 38.75753 35.79654
# Shear Modulus (GPa) = 16.55388 19.02627 17.79007
#
# Velocity S-wave (km/s) = 2.91222 3.12213 3.01900
# Velocity P-wave (km/s) = 5.30383 5.73179 5.52196
#
# Compressibility (1/GPa) = 0.03045480
#
# Stress axis : x y z
#
# Youngs Moduli (GPa) = 66.02023 66.02023 39.34421
#
# Poissons Ratio (x) = 0.39977 0.12930
# Poissons Ratio (y) = 0.39977 0.12930
# Poissons Ratio (z) = 0.21696 0.21696
#
# Static dielectric constant tensor:
#      x y z
#    x 1.704420 0.000000 0.000000 
#    y 0.000000 1.704420 0.000000 
#    z 0.000000 0.000000 1.737700 
# 
# From -- ./inp_files/3137.got.cif
#   From: 2010.05.17/outbox.cif.g08.bks.cpg/sg178_2_cif.got.tgz:3137.got - 2010.05.20 11:30:59.
