data_PCOD9582738
_publ_section_title
;
Structure prediction by ZEFSAII (Michael W. Deem and Ramdas Pophale) SiO2 
 PCOD9582738
Probable space group: P 61 2 2
;
_chemical_formula_sum "Si O2"
_cell_formula_units_Z 48
_cell_length_a 15.662694
_cell_length_b 15.662694
_cell_length_c 12.520408
_cell_angle_alpha 90.000000
_cell_angle_beta 90.000000
_cell_angle_gamma 120.000000
_cell_volume 2660.002468
_symmetry_space_group_name_H-M "P 61 2 2"
_symmetry_group_IT_number 178
_symmetry_cell_setting 'hexagonal'
loop_
_space_group_symop_operation_xyz
x,y,z
x-y,x,1/6+z
-y,x-y,1/3+z
-x,-y,1/2+z
-x+y,-x,2/3+z
y,-x+y,5/6+z
x-y,-y,-z
-x,-x+y,2/3-z
y,x,1/3-z
-y,-x,5/6-z
-x+y,y,1/2-z
x,x-y,1/6-z
loop_
_atom_site_type_symbol
_atom_site_label
_atom_site_fract_x
_atom_site_fract_y
_atom_site_fract_z
Si Si1 0.579392 0.459603 0.033239
Si Si2 0.000000 0.341981 0.833334
Si Si3 0.620771 0.810386 0.083334
Si Si4 0.786168 0.488617 0.045632
Si Si5 0.716201 0.600988 0.675456
O O1 0.623630 0.565702 0.087851
O O2 0.669104 0.437322 0.022881
O O3 0.490991 0.376538 0.100890
O O4 0.539588 0.460413 0.916667
O O5 0.923803 0.243923 0.891679
O O6 0.553882 0.801716 0.183716
O O7 0.813736 0.406868 0.083334
O O8 0.840738 0.557081 0.942710
O O9 0.687712 0.687712 0.666667
O O10 0.811655 0.623310 0.750000
#
# Coordination Sequence:
#
# PCOD9582738 Si02
#       5
#    12   6   6  12  12
#     4  11  22  36  61  86 128 163 208 254 311 380
#     4  10  22  38  54  90 118 164 204 254 308 376
#     4  10  24  36  60  84 122 162 200 264 314 370
#     4  11  23  38  59  90 129 167 215 256 318 382
#     4  12  26  41  62  92 131 178 220 270 330 395
#
# _framework density 18.045096999999998
#
# number of rings (size 3 to 8) (size 9 to 14) (size 15 to 20)
#    0.000    1.000    3.750    3.750    5.250    0.000 
#    0.000    0.000    0.000    0.000    0.000    0.000 
#   78.750    0.000    0.000    0.000    0.000    0.000 
#
# Total GULP energy -267823.676804 kJ/mol
# GULP energy per Si atom -5579.659933 kJ/mol
# Density = 1.800403 g / cm^3
# Si number density = 18.045097 Si / 1000 Ang^3
#
#
#
# Elastic Constant Matrix: (Units=GPa)
#
#
# Indices 1 2 3 4 5 6 
#
# 1 9.3601 140.6397 42.3905 0.0000 0.0000 0.0000
# 2 140.6397 9.3601 42.3905 0.0000 0.0000 0.0000
# 3 42.3905 42.3905 146.1235 0.0000 0.0000 0.0000
# 4 0.0000 0.0000 0.0000 16.4276 0.0000 0.0000
# 5 0.0000 0.0000 0.0000 0.0000 16.4276 0.0000
# 6 0.0000 0.0000 0.0000 0.0000 0.0000 -65.6398
#
#
#
# Elastic Compliance Matrix: (Units=1/GPa)
#
#
# Indices 1 2 3 4 5 6 
#
# 1 0.000178 0.007796 -0.002313 0.000000 0.000000 0.000000
# 2 0.007796 0.000178 -0.002313 0.000000 0.000000 0.000000
# 3 -0.002313 -0.002313 0.008186 0.000000 0.000000 0.000000
# 4 0.000000 0.000000 0.000000 0.060873 0.000000 0.000000
# 5 0.000000 0.000000 0.000000 0.000000 0.060873 0.000000
# 6 0.000000 0.000000 0.000000 0.000000 0.000000 -0.015235
#
#
# Mechanical properties :
#
#
# Convention : Reuss Voigt Hill
#
# Bulk Modulus (GPa) = 67.20061 68.40945 67.80503
# Shear Modulus (GPa) = 43.98467 -10.59537 16.69465
#
# Velocity S-wave (km/s) = 4.94245 -2.42577 3.04495
# Velocity P-wave (km/s) = 8.36012 5.49061 7.07242
#
# Compressibility (1/GPa) = 0.01488082
#
# Stress axis : x y z
#
# Youngs Moduli (GPa) = 5604.61751 5604.61757 122.16407
#
# Poissons Ratio (x) = -43.69222 0.28260
# Poissons Ratio (y) = -43.69222 0.28260
# Poissons Ratio (z) = 12.96523 12.96523
#
# Static dielectric constant tensor:
#      x y z
#    x 1.651590 0.000000 0.000000 
#    y 0.000000 1.651590 0.000000 
#    z 0.000000 0.000000 1.686780 
# 
# From -- ./inp_files/4181.got.cif
#   From: 2010.05.17/outbox.cif.g08.bks.cpg/sg178_3_cif.got.tgz:4181.got - 2010.05.20 11:30:59.
