data_PCOD9582781
_publ_section_title
;
Structure prediction by ZEFSAII (Michael W. Deem and Ramdas Pophale) SiO2 
 PCOD9582781
Probable space group: P 61 2 2
;
_chemical_formula_sum "Si O2"
_cell_formula_units_Z 42
_cell_length_a 15.073354
_cell_length_b 15.073354
_cell_length_c 10.751664
_cell_angle_alpha 90.000000
_cell_angle_beta 90.000000
_cell_angle_gamma 120.000000
_cell_volume 2115.563731
_symmetry_space_group_name_H-M "P 61 2 2"
_symmetry_group_IT_number 178
_symmetry_cell_setting 'hexagonal'
loop_
_space_group_symop_operation_xyz
x,y,z
x-y,x,1/6+z
-y,x-y,1/3+z
-x,-y,1/2+z
-x+y,-x,2/3+z
y,-x+y,5/6+z
x-y,-y,-z
-x,-x+y,2/3-z
y,x,1/3-z
-y,-x,5/6-z
-x+y,y,1/2-z
x,x-y,1/6-z
loop_
_atom_site_type_symbol
_atom_site_label
_atom_site_fract_x
_atom_site_fract_y
_atom_site_fract_z
Si Si1 0.431230 0.858796 0.107241
Si Si2 0.197494 0.773712 0.049144
Si Si3 0.531077 0.062154 0.250000
Si Si4 0.374721 0.120768 0.480794
O O1 0.407496 0.814992 0.250000
O O2 0.319085 0.816452 0.052704
O O3 0.506052 0.838768 0.020258
O O4 0.514805 0.019300 0.862934
O O5 0.132013 0.650457 0.058072
O O6 0.161962 0.797537 0.179940
O O7 0.184067 0.815934 0.916667
O O8 0.334307 0.167154 0.583334
O O9 0.314920 0.000000 0.500000
#
# Coordination Sequence:
#
# PCOD9582781 Si02
#       4
#    12  12   6  12
#     4  10  22  41  62  88 133 179 228 271 330 410
#     4  12  25  36  60  94 124 175 231 277 335 395
#     4  10  22  44  60  90 136 182 226 284 342 394
#     4  12  23  45  66  92 131 181 225 276 348 420
#
# _framework density 19.852864
#
# number of rings (size 3 to 8) (size 9 to 14) (size 15 to 20)
#    0.857    0.000    5.714    1.714    2.000    1.143 
#    0.000    0.000    0.000    0.000    0.000    2.000 
#    0.000    0.000    0.000    0.000    0.000    0.000 
#
# Total GULP energy -234041.739215 kJ/mol
# GULP energy per Si atom -5572.422362 kJ/mol
# Density = 1.980768 g / cm^3
# Si number density = 19.852864 Si / 1000 Ang^3
#
#
#
# Elastic Constant Matrix: (Units=GPa)
#
#
# Indices 1 2 3 4 5 6 
#
# 1 78.9949 27.0678 21.8985 0.0000 0.0000 0.0000
# 2 27.0678 78.9949 21.8985 0.0000 0.0000 0.0000
# 3 21.8985 21.8985 154.8248 0.0000 0.0000 0.0000
# 4 0.0000 0.0000 0.0000 -9.8968 0.0000 0.0000
# 5 0.0000 0.0000 0.0000 0.0000 -9.8968 0.0000
# 6 0.0000 0.0000 0.0000 0.0000 0.0000 25.9636
#
#
#
# Elastic Compliance Matrix: (Units=1/GPa)
#
#
# Indices 1 2 3 4 5 6 
#
# 1 0.014635 -0.004622 -0.001416 0.000000 0.000000 0.000000
# 2 -0.004622 0.014635 -0.001416 0.000000 0.000000 0.000000
# 3 -0.001416 -0.001416 0.006860 0.000000 0.000000 0.000000
# 4 0.000000 0.000000 0.000000 -0.101043 0.000000 0.000000
# 5 0.000000 0.000000 0.000000 0.000000 -0.101043 0.000000
# 6 0.000000 0.000000 0.000000 0.000000 0.000000 0.038516
#
#
# Mechanical properties :
#
#
# Convention : Reuss Voigt Hill
#
# Bulk Modulus (GPa) = 47.12340 50.50491 48.81415
# Shear Modulus (GPa) = -47.41300 17.36398 -15.02451
#
# Velocity S-wave (km/s) = -4.89224 2.96063 -2.75397
# Velocity P-wave (km/s) = 2.85030 6.09770 3.81167
#
# Compressibility (1/GPa) = 0.02122088
#
# Stress axis : x y z
#
# Youngs Moduli (GPa) = 68.32709 68.32709 145.78210
#
# Poissons Ratio (x) = 0.31583 0.20647
# Poissons Ratio (y) = 0.31583 0.20647
# Poissons Ratio (z) = 0.09677 0.09677
#
# Static dielectric constant tensor:
#      x y z
#    x 1.688150 0.000000 0.000000 
#    y 0.000000 1.688150 0.000000 
#    z 0.000000 0.000000 2.164040 
# 
# From -- ./inp_files/2384.got.cif
#   From: 2010.05.17/outbox.cif.g08.bks.cpg/sg178_2_cif.got.tgz:2384.got - 2010.05.20 11:30:59.
