data_PCOD9582363
_publ_section_title
;
Structure prediction by ZEFSAII (Michael W. Deem and Ramdas Pophale) SiO2 
 PCOD9582363
Probable space group: P 61 2 2
;
_chemical_formula_sum "Si O2"
_cell_formula_units_Z 78
_cell_length_a 17.447815
_cell_length_b 17.447815
_cell_length_c 15.206253
_cell_angle_alpha 90.000000
_cell_angle_beta 90.000000
_cell_angle_gamma 120.000000
_cell_volume 4008.989688
_symmetry_space_group_name_H-M "P 61 2 2"
_symmetry_group_IT_number 178
_symmetry_cell_setting 'hexagonal'
loop_
_space_group_symop_operation_xyz
x,y,z
x-y,x,1/6+z
-y,x-y,1/3+z
-x,-y,1/2+z
-x+y,-x,2/3+z
y,-x+y,5/6+z
x-y,-y,-z
-x,-x+y,2/3-z
y,x,1/3-z
-y,-x,5/6-z
-x+y,y,1/2-z
x,x-y,1/6-z
loop_
_atom_site_type_symbol
_atom_site_label
_atom_site_fract_x
_atom_site_fract_y
_atom_site_fract_z
Si Si1 0.312408 0.150904 0.361813
Si Si2 0.677364 0.779279 0.663899
Si Si3 0.685785 0.314216 0.416667
Si Si4 0.711638 0.211130 0.719564
Si Si5 0.150094 0.513177 0.365531
Si Si6 0.056485 0.786471 0.465498
Si Si7 0.327140 0.854847 0.404179
O O1 0.316429 0.175634 0.259066
O O2 0.414209 0.190746 0.392135
O O3 0.280458 0.199990 0.430449
O O4 0.252807 0.047065 0.377614
O O5 0.752492 0.752492 0.666667
O O6 0.685963 0.842982 0.583334
O O7 0.582577 0.687245 0.652973
O O8 0.587633 0.282609 0.382770
O O9 0.680243 0.247800 0.491078
O O10 0.667298 0.158120 0.632175
O O11 0.654619 0.153450 0.801825
O O12 0.118956 0.586460 0.370770
O O13 0.120848 0.879153 0.416667
O O14 0.084651 0.717812 0.425606
O O15 0.247391 0.752610 0.416667
#
# Coordination Sequence:
#
# PCOD9582363 Si02
#       7
#    12  12   6  12  12  12  12
#     4  10  22  40  64  89 121 160 202 256 320 382
#     4  11  24  44  65  88 119 162 207 254 315 375
#     4  12  18  32  54  80 122 158 210 236 282 330
#     4  10  19  31  55  79 115 163 205 236 287 345
#     4  11  20  34  54  84 120 160 203 245 282 350
#     4  10  21  38  63  94 121 156 197 255 327 386
#     4  10  17  32  53  82 122 161 201 241 292 348
#
# _framework density 19.456274000000001
#
# number of rings (size 3 to 8) (size 9 to 14) (size 15 to 20)
#    0.000    1.538    3.846    1.846    0.000    0.000 
#    2.769    0.000    0.000   12.923    0.000    0.000 
#    0.000    0.000    0.000    0.000    0.000    0.000 
#
# Total GULP energy -434785.661701 kJ/mol
# GULP energy per Si atom -5574.175150 kJ/mol
# Density = 1.941199 g / cm^3
# Si number density = 19.456274 Si / 1000 Ang^3
#
#
#
# Elastic Constant Matrix: (Units=GPa)
#
#
# Indices 1 2 3 4 5 6 
#
# 1 86.9750 62.2018 20.3975 0.0000 0.0000 0.0000
# 2 62.2018 86.9750 20.3975 0.0000 0.0000 0.0000
# 3 20.3975 20.3975 79.9107 0.0000 0.0000 0.0000
# 4 0.0000 0.0000 0.0000 22.7459 0.0000 0.0000
# 5 0.0000 0.0000 0.0000 0.0000 22.7459 0.0000
# 6 0.0000 0.0000 0.0000 0.0000 0.0000 12.3866
#
#
#
# Elastic Compliance Matrix: (Units=1/GPa)
#
#
# Indices 1 2 3 4 5 6 
#
# 1 0.023786 -0.016580 -0.001839 0.000000 0.000000 0.000000
# 2 -0.016580 0.023786 -0.001839 0.000000 0.000000 0.000000
# 3 -0.001839 -0.001839 0.013453 0.000000 0.000000 0.000000
# 4 0.000000 0.000000 0.000000 0.043964 0.000000 0.000000
# 5 0.000000 0.000000 0.000000 0.000000 0.043964 0.000000
# 6 0.000000 0.000000 0.000000 0.000000 0.000000 0.080732
#
#
# Mechanical properties :
#
#
# Convention : Reuss Voigt Hill
#
# Bulk Modulus (GPa) = 48.76124 51.09492 49.92808
# Shear Modulus (GPa) = 18.04795 21.63326 19.84061
#
# Velocity S-wave (km/s) = 3.04898 3.33812 3.19682
# Velocity P-wave (km/s) = 6.12466 6.41684 6.27245
#
# Compressibility (1/GPa) = 0.02050809
#
# Stress axis : x y z
#
# Youngs Moduli (GPa) = 42.04095 42.04095 74.33267
#
# Poissons Ratio (x) = 0.69703 0.13673
# Poissons Ratio (y) = 0.69703 0.13673
# Poissons Ratio (z) = 0.07733 0.07733
#
# Static dielectric constant tensor:
#      x y z
#    x 1.687670 0.000000 0.000000 
#    y 0.000000 1.687670 0.000000 
#    z 0.000000 0.000000 1.752750 
# 
# From -- ./inp_files/5989.got.cif
#   From: 2010.05.17/outbox.cif.g08.bks.cpg/sg178_3_cif.got.tgz:5989.got - 2010.05.20 11:30:59.
