data_PCOD9582788
_publ_section_title
;
Structure prediction by ZEFSAII (Michael W. Deem and Ramdas Pophale) SiO2 
 PCOD9582788
Probable space group: P 61 2 2
;
_chemical_formula_sum "Si O2"
_cell_formula_units_Z 30
_cell_length_a 18.471761
_cell_length_b 18.471761
_cell_length_c 4.954564
_cell_angle_alpha 90.000000
_cell_angle_beta 90.000000
_cell_angle_gamma 120.000000
_cell_volume 1464.039101
_symmetry_space_group_name_H-M "P 61 2 2"
_symmetry_group_IT_number 178
_symmetry_cell_setting 'hexagonal'
loop_
_space_group_symop_operation_xyz
x,y,z
x-y,x,1/6+z
-y,x-y,1/3+z
-x,-y,1/2+z
-x+y,-x,2/3+z
y,-x+y,5/6+z
x-y,-y,-z
-x,-x+y,2/3-z
y,x,1/3-z
-y,-x,5/6-z
-x+y,y,1/2-z
x,x-y,1/6-z
loop_
_atom_site_type_symbol
_atom_site_label
_atom_site_fract_x
_atom_site_fract_y
_atom_site_fract_z
Si Si1 0.612125 0.806063 0.083334
Si Si2 0.384453 0.326652 0.909593
Si Si3 0.336647 0.528534 0.113463
O O1 0.653347 0.766838 0.280308
O O2 0.550328 0.820333 0.273087
O O3 0.381651 0.381651 0.666667
O O4 0.336023 0.336023 0.166667
O O5 0.479928 0.358808 0.996102
O O6 0.282832 0.565664 0.250000
O O7 0.407357 0.592644 0.916667
#
# Coordination Sequence:
#
# PCOD9582788 Si02
#       3
#     6  12  12
#     4  10  22  42  58  94 120 152 214 258 316 392
#     4  11  22  42  66  89 120 162 204 264 327 382
#     4  10  23  42  65  88 121 160 216 276 331 381
#
# _framework density 20.491256
#
# number of rings (size 3 to 8) (size 9 to 14) (size 15 to 20)
#    0.000    1.600    4.000    0.000    0.000    8.000 
#    7.200    0.000    0.000    0.000    0.000    0.000 
#    0.000    0.000    0.000    0.000   22.800   48.400 
#
# Total GULP energy -167511.040307 kJ/mol
# GULP energy per Si atom -5583.701344 kJ/mol
# Density = 2.044462 g / cm^3
# Si number density = 20.491256 Si / 1000 Ang^3
#
#
#
# Elastic Constant Matrix: (Units=GPa)
#
#
# Indices 1 2 3 4 5 6 
#
# 1 81.9350 72.8266 66.6036 0.0000 0.0000 0.0000
# 2 72.8266 81.9350 66.6036 0.0000 0.0000 0.0000
# 3 66.6036 66.6036 164.3418 0.0000 0.0000 0.0000
# 4 0.0000 0.0000 0.0000 57.5627 0.0000 0.0000
# 5 0.0000 0.0000 0.0000 0.0000 57.5627 0.0000
# 6 0.0000 0.0000 0.0000 0.0000 0.0000 4.5542
#
#
#
# Elastic Compliance Matrix: (Units=1/GPa)
#
#
# Indices 1 2 3 4 5 6 
#
# 1 0.059856 -0.049933 -0.004022 0.000000 0.000000 0.000000
# 2 -0.049933 0.059856 -0.004022 0.000000 0.000000 0.000000
# 3 -0.004022 -0.004022 0.009345 0.000000 0.000000 0.000000
# 4 0.000000 0.000000 0.000000 0.017372 0.000000 0.000000
# 5 0.000000 0.000000 0.000000 0.000000 0.017372 0.000000
# 6 0.000000 0.000000 0.000000 0.000000 0.000000 0.219578
#
#
# Mechanical properties :
#
#
# Convention : Reuss Voigt Hill
#
# Bulk Modulus (GPa) = 76.31047 82.25326 79.28187
# Shear Modulus (GPa) = 9.92654 32.08113 21.00383
#
# Velocity S-wave (km/s) = 2.20336 3.96106 3.20506
# Velocity P-wave (km/s) = 6.61773 7.81971 7.24369
#
# Compressibility (1/GPa) = 0.01310436
#
# Stress axis : x y z
#
# Youngs Moduli (GPa) = 16.70674 16.70674 107.01454
#
# Poissons Ratio (x) = 0.83422 0.43036
# Poissons Ratio (y) = 0.83422 0.43036
# Poissons Ratio (z) = 0.06719 0.06719
#
# Static dielectric constant tensor:
#      x y z
#    x 1.798110 0.000000 0.000000 
#    y 0.000000 1.798110 0.000000 
#    z 0.000000 0.000000 1.986910 
# 
# From -- ./inp_files/333.got.cif
#   From: 2010.05.17/outbox.cif.g08.bks.cpg/sg178_1_cif.got.tgz:333.got - 2010.05.20 11:30:59.
