data_PCOD9582211
_publ_section_title
;
Structure prediction by ZEFSAII (Michael W. Deem and Ramdas Pophale) SiO2 
 PCOD9582211
Probable space group: P 6 2 2
;
_chemical_formula_sum "Si O2"
_cell_formula_units_Z 60
_cell_length_a 11.868434
_cell_length_b 11.868434
_cell_length_c 26.999474
_cell_angle_alpha 90.000000
_cell_angle_beta 90.000000
_cell_angle_gamma 120.000000
_cell_volume 3293.614555
_symmetry_space_group_name_H-M "P 6 2 2"
_symmetry_group_IT_number 177
_symmetry_cell_setting 'hexagonal'
loop_
_space_group_symop_operation_xyz
x,y,z
x-y,x,z
-y,x-y,z
-x,-y,z
-x+y,-x,z
y,-x+y,z
x-y,-y,-z
-x,-x+y,-z
y,x,-z
-y,-x,-z
-x+y,y,-z
x,x-y,-z
loop_
_atom_site_type_symbol
_atom_site_label
_atom_site_fract_x
_atom_site_fract_y
_atom_site_fract_z
Si Si1 0.248751 0.751250 0.000000
Si Si2 0.155195 0.844806 0.797767
Si Si3 0.155060 0.310120 0.500000
Si Si4 0.311731 0.155865 0.094082
Si Si5 0.843675 0.156325 0.689132
Si Si6 0.248329 0.751670 0.405236
O O1 0.192243 0.596122 0.000000
O O2 0.205464 0.794538 0.951116
O O3 0.189538 0.810464 0.851307
O O4 0.188943 0.811058 0.744076
O O5 0.000001 0.780000 0.797815
O O6 0.221962 0.221962 0.500000
O O7 0.200467 0.400933 0.451557
O O8 0.222545 0.222544 0.090829
O O9 0.791957 0.208042 0.645221
O O10 1.000000 0.223431 0.685215
O O11 0.192646 0.596323 0.407400
#
# Coordination Sequence:
#
# PCOD9582211 Si02
#       6
#     6  12   6  12  12  12
#     4  10  24  40  50  70 100 154 188 218 260 324
#     4   8  15  28  50  82 113 141 170 214 280 338
#     4  12  25  42  66  92 117 140 176 234 292 342
#     4  10  19  34  58  85 110 133 172 230 286 334
#     4  10  19  34  58  86 117 147 181 227 278 330
#     4  10  24  42  57  85 111 159 197 226 262 311
#
# _framework density 18.217068999999999
#
# number of rings (size 3 to 8) (size 9 to 14) (size 15 to 20)
#    0.600    1.600    0.000    3.100    0.000    8.800 
#    0.000    5.000    0.000    7.200    0.000    0.000 
#    0.000    0.000    0.000    0.000    0.000    0.000 
#
# Total GULP energy -334284.650913 kJ/mol
# GULP energy per Si atom -5571.410849 kJ/mol
# Density = 1.817561 g / cm^3
# Si number density = 18.217069 Si / 1000 Ang^3
#
#
#
# Elastic Constant Matrix: (Units=GPa)
#
#
# Indices 1 2 3 4 5 6 
#
# 1 84.3318 54.2473 83.9949 0.0000 0.0000 0.0000
# 2 54.2473 84.3318 83.9949 0.0000 0.0000 0.0000
# 3 83.9949 83.9949 241.4067 0.0000 0.0000 0.0000
# 4 0.0000 0.0000 0.0000 69.3733 0.0000 0.0000
# 5 0.0000 0.0000 0.0000 0.0000 69.3733 0.0000
# 6 0.0000 0.0000 0.0000 0.0000 0.0000 15.0423
#
#
#
# Elastic Compliance Matrix: (Units=1/GPa)
#
#
# Indices 1 2 3 4 5 6 
#
# 1 0.022860 -0.010380 -0.004342 0.000000 0.000000 0.000000
# 2 -0.010380 0.022860 -0.004342 0.000000 0.000000 0.000000
# 3 -0.004342 -0.004342 0.007164 0.000000 0.000000 0.000000
# 4 0.000000 0.000000 0.000000 0.014415 0.000000 0.000000
# 5 0.000000 0.000000 0.000000 0.000000 0.014415 0.000000
# 6 0.000000 0.000000 0.000000 0.000000 0.000000 0.066479
#
#
# Mechanical properties :
#
#
# Convention : Reuss Voigt Hill
#
# Bulk Modulus (GPa) = 67.77417 94.94939 81.36178
# Shear Modulus (GPa) = 26.14521 43.28000 34.71260
#
# Velocity S-wave (km/s) = 3.79252 4.87950 4.36994
# Velocity P-wave (km/s) = 7.51412 9.16408 8.37981
#
# Compressibility (1/GPa) = 0.01475488
#
# Stress axis : x y z
#
# Youngs Moduli (GPa) = 43.74491 43.74491 139.58541
#
# Poissons Ratio (x) = 0.45407 0.60612
# Poissons Ratio (y) = 0.45407 0.60612
# Poissons Ratio (z) = 0.18995 0.18995
#
# Static dielectric constant tensor:
#      x y z
#    x 1.601840 0.000000 0.000000 
#    y 0.000000 1.601840 0.000000 
#    z 0.000000 0.000000 1.656690 
# 
# From -- ./inp_files/3243.got.cif
#   From: 2010.05.17/outbox.cif.g08.bks.cpg/sg177_2_cif.got.tgz:3243.got - 2010.05.20 11:28:44.
