data_PCOD9582345
_publ_section_title
;
Structure prediction by ZEFSAII (Michael W. Deem and Ramdas Pophale) SiO2 
 PCOD9582345
Probable space group: P 61 2 2
;
_chemical_formula_sum "Si O2"
_cell_formula_units_Z 42
_cell_length_a 12.252073
_cell_length_b 12.252073
_cell_length_c 17.787115
_cell_angle_alpha 90.000000
_cell_angle_beta 90.000000
_cell_angle_gamma 120.000000
_cell_volume 2312.359190
_symmetry_space_group_name_H-M "P 61 2 2"
_symmetry_group_IT_number 178
_symmetry_cell_setting 'hexagonal'
loop_
_space_group_symop_operation_xyz
x,y,z
x-y,x,1/6+z
-y,x-y,1/3+z
-x,-y,1/2+z
-x+y,-x,2/3+z
y,-x+y,5/6+z
x-y,-y,-z
-x,-x+y,2/3-z
y,x,1/3-z
-y,-x,5/6-z
-x+y,y,1/2-z
x,x-y,1/6-z
loop_
_atom_site_type_symbol
_atom_site_label
_atom_site_fract_x
_atom_site_fract_y
_atom_site_fract_z
Si Si1 0.370807 0.685404 0.583334
Si Si2 0.856461 0.323941 0.640148
Si Si3 0.552370 0.673803 0.706490
Si Si4 0.406494 0.071174 0.579621
O O1 0.306170 0.556965 0.534980
O O2 0.459626 0.670113 0.642270
O O3 0.878498 0.439249 0.583334
O O4 0.794541 0.199989 0.589787
O O5 0.977266 0.340302 0.684316
O O6 0.661034 0.661034 0.666667
O O7 0.458554 0.546113 0.750670
O O8 0.411022 0.205511 0.583334
O O9 0.348682 0.000000 0.500000
#
# Coordination Sequence:
#
# PCOD9582345 Si02
#       4
#     6  12  12  12
#     4  10  16  36  52  84 126 154 192 248 310 374
#     4  10  21  34  59  90 124 166 199 252 320 372
#     4  10  20  36  56  87 126 154 202 259 310 381
#     4  11  22  39  58  89 125 163 209 259 313 382
#
# _framework density 18.163267000000001
#
# number of rings (size 3 to 8) (size 9 to 14) (size 15 to 20)
#    0.000    1.714    5.714    2.571    0.000    2.286 
#    2.571    0.000    0.000    1.714    0.000    0.000 
#    0.000    0.000    0.000    0.000    0.000    0.000 
#
# Total GULP energy -234037.498387 kJ/mol
# GULP energy per Si atom -5572.321390 kJ/mol
# Density = 1.812193 g / cm^3
# Si number density = 18.163267 Si / 1000 Ang^3
#
#
#
# Elastic Constant Matrix: (Units=GPa)
#
#
# Indices 1 2 3 4 5 6 
#
# 1 78.8331 19.5063 37.8730 0.0000 0.0000 0.0000
# 2 19.5063 78.8331 37.8730 0.0000 0.0000 0.0000
# 3 37.8730 37.8730 91.4736 0.0000 0.0000 0.0000
# 4 0.0000 0.0000 0.0000 28.2351 0.0000 0.0000
# 5 0.0000 0.0000 0.0000 0.0000 28.2351 0.0000
# 6 0.0000 0.0000 0.0000 0.0000 0.0000 29.6634
#
#
#
# Elastic Compliance Matrix: (Units=1/GPa)
#
#
# Indices 1 2 3 4 5 6 
#
# 1 0.015893 -0.000963 -0.006182 0.000000 0.000000 0.000000
# 2 -0.000963 0.015893 -0.006182 0.000000 0.000000 0.000000
# 3 -0.006182 -0.006182 0.016051 0.000000 0.000000 0.000000
# 4 0.000000 0.000000 0.000000 0.035417 0.000000 0.000000
# 5 0.000000 0.000000 0.000000 0.000000 0.035417 0.000000
# 6 0.000000 0.000000 0.000000 0.000000 0.000000 0.033712
#
#
# Mechanical properties :
#
#
# Convention : Reuss Voigt Hill
#
# Bulk Modulus (GPa) = 47.20328 48.84937 48.02633
# Shear Modulus (GPa) = 26.86789 27.48590 27.17690
#
# Velocity S-wave (km/s) = 3.85027 3.89430 3.87234
# Velocity P-wave (km/s) = 6.76837 6.86831 6.81852
#
# Compressibility (1/GPa) = 0.02118497
#
# Stress axis : x y z
#
# Youngs Moduli (GPa) = 62.92075 62.92075 62.30202
#
# Poissons Ratio (x) = 0.06058 0.38512
# Poissons Ratio (y) = 0.06058 0.38512
# Poissons Ratio (z) = 0.38895 0.38895
#
# Static dielectric constant tensor:
#      x y z
#    x 1.626900 0.000000 0.000000 
#    y 0.000000 1.626900 0.000000 
#    z 0.000000 0.000000 1.656330 
# 
# From -- ./inp_files/6355.got.cif
#   From: 2010.05.17/outbox.cif.g08.bks.cpg/sg178_4_cif.got.tgz:6355.got - 2010.05.20 11:30:59.
