data_PCOD9582096
_publ_section_title
;
Structure prediction by ZEFSAII (Michael W. Deem and Ramdas Pophale) SiO2 
 PCOD9582096
Probable space group: P 63/M
;
_chemical_formula_sum "Si O2"
_cell_formula_units_Z 30
_cell_length_a 10.918273
_cell_length_b 10.918273
_cell_length_c 12.415382
_cell_angle_alpha 90.000000
_cell_angle_beta 90.000000
_cell_angle_gamma 120.000000
_cell_volume 1281.736101
_symmetry_space_group_name_H-M "P 63/M"
_symmetry_group_IT_number 176
_symmetry_cell_setting 'hexagonal'
loop_
_space_group_symop_operation_xyz
x,y,z
x-y,x,1/2+z
-y,x-y,z
-x,-y,1/2+z
-x+y,-x,z
y,-x+y,1/2+z
-x,-y,-z
-x+y,-x,1/2-z
y,-x+y,-z
x,y,1/2-z
x-y,x,-z
-y,x-y,1/2-z
loop_
_atom_site_type_symbol
_atom_site_label
_atom_site_fract_x
_atom_site_fract_y
_atom_site_fract_z
Si Si1 0.649967 0.164934 0.869517
Si Si2 0.773708 0.071731 0.464823
Si Si3 0.260941 0.782924 0.750000
O O1 0.790814 0.321266 0.878458
O O2 0.650031 0.113126 0.750000
O O3 0.651552 0.068759 0.961829
O O4 0.772107 0.148921 0.354170
O O5 0.916313 0.164398 0.534666
O O6 0.184583 0.609950 0.750000
#
# Coordination Sequence:
#
# PCOD9582096 Si02
#       3
#    12  12   6
#     4   8  18  39  65  99 124 171 237 288 356 406
#     4  12  27  44  69 100 146 198 229 281 345 426
#     4  10  26  50  70 116 134 168 248 312 354 406
#
# _framework density 23.405753000000001
#
# number of rings (size 3 to 8) (size 9 to 14) (size 15 to 20)
#    1.200    0.800    0.000    2.800    5.600    6.400 
#    0.000    0.000    0.000    0.000    0.000    0.000 
#    0.000    0.000    0.000    0.000    0.000    0.000 
#
# Total GULP energy -167343.723484 kJ/mol
# GULP energy per Si atom -5578.124116 kJ/mol
# Density = 2.335248 g / cm^3
# Si number density = 23.405753 Si / 1000 Ang^3
#
#
#
# Elastic Constant Matrix: (Units=GPa)
#
#
# Indices 1 2 3 4 5 6 
#
# 1 102.2475 31.3014 31.9903 0.0000 0.0000 0.0000
# 2 31.3014 102.2475 31.9903 0.0000 0.0000 0.0000
# 3 31.9903 31.9903 80.2020 0.0000 0.0000 0.0000
# 4 0.0000 0.0000 0.0000 -2.3115 0.0000 0.0000
# 5 0.0000 0.0000 0.0000 0.0000 -2.3115 0.0000
# 6 0.0000 0.0000 0.0000 0.0000 0.0000 35.4730
#
#
#
# Elastic Compliance Matrix: (Units=1/GPa)
#
#
# Indices 1 2 3 4 5 6 
#
# 1 0.011676 -0.002419 -0.003692 0.000000 0.000000 0.000000
# 2 -0.002419 0.011676 -0.003692 0.000000 0.000000 0.000000
# 3 -0.003692 -0.003692 0.015414 0.000000 0.000000 0.000000
# 4 0.000000 0.000000 0.000000 -0.432610 0.000000 0.000000
# 5 0.000000 0.000000 0.000000 0.000000 -0.432610 0.000000
# 6 0.000000 0.000000 0.000000 0.000000 0.000000 0.028190
#
#
# Mechanical properties :
#
#
# Convention : Reuss Voigt Hill
#
# Bulk Modulus (GPa) = 52.19616 52.80677 52.50146
# Shear Modulus (GPa) = -6.47441 18.79765 6.16162
#
# Velocity S-wave (km/s) = -1.66498 2.83701 1.62427
# Velocity P-wave (km/s) = 4.31888 5.77425 5.09876
#
# Compressibility (1/GPa) = 0.01915850
#
# Stress axis : x y z
#
# Youngs Moduli (GPa) = 85.64576 85.64576 64.87604
#
# Poissons Ratio (x) = 0.20720 0.23954
# Poissons Ratio (y) = 0.20720 0.23954
# Poissons Ratio (z) = 0.31623 0.31623
#
# Static dielectric constant tensor:
#      x y z
#    x 1.904530 0.000000 0.000000 
#    y 0.000000 1.904530 0.000000 
#    z 0.000000 0.000000 1.841070 
# 
# From -- ./inp_files/2278.got.cif
#   From: 2010.05.17/outbox.cif.g08.bks.cpg/sg176_2_cif.got.tgz:2278.got - 2010.06.03 11:36:45.
