data_PCOD9582069
_publ_section_title
;
Structure prediction by ZEFSAII (Michael W. Deem and Ramdas Pophale) SiO2 
 PCOD9582069
Probable space group: P 63/M
;
_chemical_formula_sum "Si O2"
_cell_formula_units_Z 70
_cell_length_a 14.830653
_cell_length_b 14.830653
_cell_length_c 18.785515
_cell_angle_alpha 90.000000
_cell_angle_beta 90.000000
_cell_angle_gamma 120.000000
_cell_volume 3578.279699
_symmetry_space_group_name_H-M "P 63/M"
_symmetry_group_IT_number 176
_symmetry_cell_setting 'hexagonal'
loop_
_space_group_symop_operation_xyz
x,y,z
x-y,x,1/2+z
-y,x-y,z
-x,-y,1/2+z
-x+y,-x,z
y,-x+y,1/2+z
-x,-y,-z
-x+y,-x,1/2-z
y,-x+y,-z
x,y,1/2-z
x-y,x,-z
-y,x-y,1/2-z
loop_
_atom_site_type_symbol
_atom_site_label
_atom_site_fract_x
_atom_site_fract_y
_atom_site_fract_z
Si Si1 0.511744 0.490867 0.250000
Si Si2 0.349583 0.992856 0.499987
Si Si3 0.002775 0.208791 0.891828
Si Si4 0.666667 0.333334 0.837688
Si Si5 0.446430 0.549700 0.400342
Si Si6 0.946971 0.677305 0.250000
Si Si7 0.998710 0.792252 0.891806
Si Si8 0.946791 0.268352 0.250000
O O1 0.482837 0.521594 0.326328
O O2 0.439302 0.366303 0.250000
O O3 0.636319 0.561155 0.250000
O O4 0.256055 0.947809 0.556302
O O5 0.374467 0.918492 0.451168
O O6 0.304338 0.042420 0.444688
O O7 0.449909 0.066609 0.547919
O O8 0.990918 0.256279 0.818227
O O9 0.086567 0.170884 0.884278
O O10 0.891858 0.111533 0.914136
O O11 0.666667 0.333334 0.750000
O O12 0.780915 0.379870 0.870965
O O13 0.837501 0.674290 0.250000
O O14 0.989802 0.734941 0.817821
#
# Coordination Sequence:
#
# PCOD9582069 Si02
#       8
#     6  12  12   4  12   6  12   6
#     4  12  20  46  70  92 126 164 224 270 320 396
#     4  11  24  42  63  92 134 174 207 256 332 399
#     4  11  23  40  66  97 132 172 216 267 324 397
#     4  12  27  45  72 108 129 160 239 295 339 390
#     4  11  26  43  66  97 128 169 215 280 333 392
#     4  10  23  41  66  97 129 173 221 275 330 380
#     4  11  23  40  66  97 132 172 216 267 324 397
#     4  10  23  41  66  97 129 173 221 275 330 380
#
# _framework density 19.562473000000001
#
# number of rings (size 3 to 8) (size 9 to 14) (size 15 to 20)
#    0.000    1.029    4.286    1.886    4.800    0.000 
#    3.600    3.429    0.000    0.000    0.000    0.000 
#    0.000    0.000    0.000    0.000    0.000    0.000 
#
# Total GULP energy -389927.102834 kJ/mol
# GULP energy per Si atom -5570.387183 kJ/mol
# Density = 1.951795 g / cm^3
# Si number density = 19.562473 Si / 1000 Ang^3
#
#
#
# Elastic Constant Matrix: (Units=GPa)
#
#
# Indices 1 2 3 4 5 6 
#
# 1 55.0159 20.8372 8.9698 0.0000 0.0000 -0.0013
# 2 20.8372 55.0146 8.9694 0.0000 0.0000 -0.0013
# 3 8.9698 8.9694 129.5364 0.0000 0.0000 -0.0011
# 4 0.0000 0.0000 0.0000 29.2895 0.0000 0.0000
# 5 0.0000 0.0000 0.0000 0.0000 29.2897 0.0000
# 6 -0.0013 -0.0013 -0.0011 0.0000 0.0000 17.0892
#
#
#
# Elastic Compliance Matrix: (Units=1/GPa)
#
#
# Indices 1 2 3 4 5 6 
#
# 1 0.021331 -0.007928 -0.000928 0.000000 0.000000 0.000001
# 2 -0.007928 0.021331 -0.000928 0.000000 0.000000 0.000001
# 3 -0.000928 -0.000928 0.007848 0.000000 0.000000 0.000000
# 4 0.000000 0.000000 0.000000 0.034142 0.000000 0.000000
# 5 0.000000 0.000000 0.000000 0.000000 0.034142 0.000000
# 6 0.000001 0.000001 0.000000 0.000000 0.000000 0.058517
#
#
# Mechanical properties :
#
#
# Convention : Reuss Voigt Hill
#
# Bulk Modulus (GPa) = 32.31850 35.23552 33.77701
# Shear Modulus (GPa) = 24.13220 28.51970 26.32595
#
# Velocity S-wave (km/s) = 3.51607 3.82236 3.67241
# Velocity P-wave (km/s) = 5.74806 6.12629 5.94019
#
# Compressibility (1/GPa) = 0.03094203
#
# Stress axis : x y z
#
# Youngs Moduli (GPa) = 46.88119 46.88007 127.41503
#
# Poissons Ratio (x) = 0.37166 0.11825
# Poissons Ratio (y) = 0.37166 0.11825
# Poissons Ratio (z) = 0.04351 0.04351
#
# Static dielectric constant tensor:
#      x y z
#    x 1.675630 0.000000 0.000000 
#    y 0.000000 1.675630 0.000000 
#    z 0.000000 0.000000 1.775520 
# 
# From -- ./inp_files/3433.got.cif
#   From: 2010.05.17/outbox.cif.g08.bks.cpg/sg176_2_cif.got.tgz:3433.got - 2010.06.03 11:36:45.
