data_PCOD9582968
_publ_section_title
;
Structure prediction by ZEFSAII (Michael W. Deem and Ramdas Pophale) SiO2 
 PCOD9582968
Probable space group: P 61 2 2
;
_chemical_formula_sum "Si O2"
_cell_formula_units_Z 84
_cell_length_a 21.923442
_cell_length_b 21.923442
_cell_length_c 11.374238
_cell_angle_alpha 90.000000
_cell_angle_beta 90.000000
_cell_angle_gamma 120.000000
_cell_volume 4734.459684
_symmetry_space_group_name_H-M "P 61 2 2"
_symmetry_group_IT_number 178
_symmetry_cell_setting 'hexagonal'
loop_
_space_group_symop_operation_xyz
x,y,z
x-y,x,1/6+z
-y,x-y,1/3+z
-x,-y,1/2+z
-x+y,-x,2/3+z
y,-x+y,5/6+z
x-y,-y,-z
-x,-x+y,2/3-z
y,x,1/3-z
-y,-x,5/6-z
-x+y,y,1/2-z
x,x-y,1/6-z
loop_
_atom_site_type_symbol
_atom_site_label
_atom_site_fract_x
_atom_site_fract_y
_atom_site_fract_z
Si Si1 0.974581 0.238501 0.202896
Si Si2 0.415560 0.107236 0.776612
Si Si3 0.541803 0.621360 0.131194
Si Si4 0.481325 0.395585 0.161735
Si Si5 0.822691 0.250312 0.700120
Si Si6 0.327150 0.543980 0.344722
Si Si7 0.169998 0.877853 0.787464
O O1 0.951506 0.286322 0.131616
O O2 0.904898 0.163785 0.223085
O O3 0.000000 0.270484 0.333334
O O4 0.040473 0.239000 0.143347
O O5 0.449859 0.087160 0.672814
O O6 0.417084 0.178931 0.742971
O O7 0.455529 0.114944 0.898266
O O8 0.596043 0.596043 0.166667
O O9 0.464098 0.557174 0.153037
O O10 0.557664 0.689004 0.207929
O O11 0.426816 0.426816 0.166667
O O12 0.497969 0.358602 0.051910
O O13 0.783947 0.276862 0.612121
O O14 0.867893 0.226156 0.620698
O O15 0.388463 0.611538 0.416667
O O16 0.279746 0.559491 0.250000
O O17 0.158244 0.841757 0.916667
#
# Coordination Sequence:
#
# PCOD9582968 Si02
#       7
#    12  12  12  12  12  12  12
#     4   9  18  31  52  84 115 152 188 242 289 361
#     4  11  22  38  58  82 117 153 200 240 307 366
#     4  11  24  40  57  84 117 155 194 251 305 360
#     4  11  25  39  63  90 115 153 197 257 308 369
#     4  11  22  38  60  82 117 155 195 252 299 365
#     4  12  25  47  66  92 120 159 211 256 309 366
#     4   9  18  31  53  84 117 148 191 236 300 352
#
# _framework density 17.742256000000001
#
# number of rings (size 3 to 8) (size 9 to 14) (size 15 to 20)
#    0.000    1.429    2.857    2.571    8.000    0.000 
#    2.571    0.000    0.000    0.000    0.000    0.000 
#    0.000   98.286    0.000    0.000    0.000    0.000 
#
# Total GULP energy -468353.632148 kJ/mol
# GULP energy per Si atom -5575.638478 kJ/mol
# Density = 1.770187 g / cm^3
# Si number density = 17.742256 Si / 1000 Ang^3
#
#
#
# Elastic Constant Matrix: (Units=GPa)
#
#
# Indices 1 2 3 4 5 6 
#
# 1 52.5693 22.4620 -1.5772 0.0000 0.0000 0.0000
# 2 22.4620 52.5693 -1.5772 0.0000 0.0000 0.0000
# 3 -1.5772 -1.5772 25.0090 0.0000 0.0000 0.0000
# 4 0.0000 0.0000 0.0000 11.5148 0.0000 0.0000
# 5 0.0000 0.0000 0.0000 0.0000 11.5148 0.0000
# 6 0.0000 0.0000 0.0000 0.0000 0.0000 15.0537
#
#
#
# Elastic Compliance Matrix: (Units=1/GPa)
#
#
# Indices 1 2 3 4 5 6 
#
# 1 0.023289 -0.009926 0.000843 0.000000 0.000000 0.000000
# 2 -0.009926 0.023289 0.000843 0.000000 0.000000 0.000000
# 3 0.000843 0.000843 0.040092 0.000000 0.000000 0.000000
# 4 0.000000 0.000000 0.000000 0.086845 0.000000 0.000000
# 5 0.000000 0.000000 0.000000 0.000000 0.086845 0.000000
# 6 0.000000 0.000000 0.000000 0.000000 0.000000 0.066429
#
#
# Mechanical properties :
#
#
# Convention : Reuss Voigt Hill
#
# Bulk Modulus (GPa) = 14.24718 18.75143 16.49931
# Shear Modulus (GPa) = 13.63642 15.00599 14.32121
#
# Velocity S-wave (km/s) = 2.77534 2.91138 2.84417
# Velocity P-wave (km/s) = 4.27990 4.67902 4.48390
#
# Compressibility (1/GPa) = 0.07018931
#
# Stress axis : x y z
#
# Youngs Moduli (GPa) = 42.93901 42.93901 24.94271
#
# Poissons Ratio (x) = 0.42620 -0.02102
# Poissons Ratio (y) = 0.42620 -0.02102
# Poissons Ratio (z) = -0.03619 -0.03619
#
# Static dielectric constant tensor:
#      x y z
#    x 1.614030 0.000000 0.000000 
#    y 0.000000 1.614030 0.000000 
#    z 0.000000 0.000000 1.621530 
# 
# From -- ./inp_files/4765.got.cif
#   From: 2010.05.17/outbox.cif.g08.bks.cpg/sg178_3_cif.got.tgz:4765.got - 2010.05.20 11:30:59.
