data_PCOD9582313
_publ_section_title
;
Structure prediction by ZEFSAII (Michael W. Deem and Ramdas Pophale) SiO2 
 PCOD9582313
Probable space group: P 6 2 2
;
_chemical_formula_sum "Si O2"
_cell_formula_units_Z 48
_cell_length_a 13.767851
_cell_length_b 13.767851
_cell_length_c 12.321499
_cell_angle_alpha 90.000000
_cell_angle_beta 90.000000
_cell_angle_gamma 120.000000
_cell_volume 2022.676796
_symmetry_space_group_name_H-M "P 6 2 2"
_symmetry_group_IT_number 177
_symmetry_cell_setting 'hexagonal'
loop_
_space_group_symop_operation_xyz
x,y,z
x-y,x,z
-y,x-y,z
-x,-y,z
-x+y,-x,z
y,-x+y,z
x-y,-y,-z
-x,-x+y,-z
y,x,-z
-y,-x,-z
-x+y,y,-z
x,x-y,-z
loop_
_atom_site_type_symbol
_atom_site_label
_atom_site_fract_x
_atom_site_fract_y
_atom_site_fract_z
Si Si1 0.745291 0.802275 0.681001
Si Si2 0.869596 0.444976 0.205997
Si Si3 0.849409 0.509896 0.573840
Si Si4 0.403945 0.226135 0.880507
O O1 0.848721 0.781213 0.663206
O O2 0.639859 0.716953 0.607723
O O3 0.691639 0.777765 0.802654
O O4 0.813299 0.372522 0.313609
O O5 0.840093 0.539561 0.175369
O O6 0.844185 0.353078 0.113177
O O7 0.000000 0.500000 0.231153
O O8 0.750818 0.501635 0.500000
O O9 0.895757 0.447879 0.500000
O O10 0.362343 0.181172 0.000000
#
# Coordination Sequence:
#
# PCOD9582313 Si02
#       4
#    12  12  12  12
#     4  11  26  47  70 101 143 193 247 300 358 426
#     4  11  24  41  63  95 135 175 218 284 365 433
#     4  11  24  43  69 101 137 179 233 293 361 436
#     4  11  23  41  67 100 137 181 236 293 360 442
#
# _framework density 23.730930000000001
#
# number of rings (size 3 to 8) (size 9 to 14) (size 15 to 20)
#    0.000    1.000    0.000    7.750    0.000   10.500 
#    0.000    1.250    0.000    3.000    0.000    0.000 
#    0.000    0.000    0.000    0.000    0.000    0.000 
#
# Total GULP energy -268624.077021 kJ/mol
# GULP energy per Si atom -5596.334938 kJ/mol
# Density = 2.367692 g / cm^3
# Si number density = 23.730930 Si / 1000 Ang^3
#
#
#
# Elastic Constant Matrix: (Units=GPa)
#
#
# Indices 1 2 3 4 5 6 
#
# 1 124.9124 80.4917 44.2186 0.0000 0.0000 0.0000
# 2 80.4917 124.9124 44.2186 0.0000 0.0000 0.0000
# 3 44.2186 44.2186 127.2692 0.0000 0.0000 0.0000
# 4 0.0000 0.0000 0.0000 34.9248 0.0000 0.0000
# 5 0.0000 0.0000 0.0000 0.0000 34.9248 0.0000
# 6 0.0000 0.0000 0.0000 0.0000 0.0000 22.2103
#
#
#
# Elastic Compliance Matrix: (Units=1/GPa)
#
#
# Indices 1 2 3 4 5 6 
#
# 1 0.014118 -0.008394 -0.001989 0.000000 0.000000 0.000000
# 2 -0.008394 0.014118 -0.001989 0.000000 0.000000 0.000000
# 3 -0.001989 -0.001989 0.009240 0.000000 0.000000 0.000000
# 4 0.000000 0.000000 0.000000 0.028633 0.000000 0.000000
# 5 0.000000 0.000000 0.000000 0.000000 0.028633 0.000000
# 6 0.000000 0.000000 0.000000 0.000000 0.000000 0.045024
#
#
# Mechanical properties :
#
#
# Convention : Reuss Voigt Hill
#
# Bulk Modulus (GPa) = 78.53601 79.43906 78.98753
# Shear Modulus (GPa) = 29.62891 32.28965 30.95928
#
# Velocity S-wave (km/s) = 3.53730 3.69271 3.61584
# Velocity P-wave (km/s) = 7.06042 7.19229 7.12666
#
# Compressibility (1/GPa) = 0.01273301
#
# Stress axis : x y z
#
# Youngs Moduli (GPa) = 70.82936 70.82936 108.23080
#
# Poissons Ratio (x) = 0.59451 0.21528
# Poissons Ratio (y) = 0.59451 0.21528
# Poissons Ratio (z) = 0.14088 0.14088
#
# Static dielectric constant tensor:
#      x y z
#    x 1.909500 0.000000 0.000000 
#    y 0.000000 1.909500 0.000000 
#    z 0.000000 0.000000 1.745900 
# 
# From -- ./inp_files/1768.got.cif
#   From: 2010.05.17/outbox.cif.g08.bks.cpg/sg177_1_cif.got.tgz:1768.got - 2010.05.20 11:28:44.
