data_PCOD9582553
_publ_section_title
;
Structure prediction by ZEFSAII (Michael W. Deem and Ramdas Pophale) SiO2 
 PCOD9582553
Probable space group: P 61 2 2
;
_chemical_formula_sum "Si O2"
_cell_formula_units_Z 42
_cell_length_a 20.798607
_cell_length_b 20.798607
_cell_length_c 5.689607
_cell_angle_alpha 90.000000
_cell_angle_beta 90.000000
_cell_angle_gamma 120.000000
_cell_volume 2131.480670
_symmetry_space_group_name_H-M "P 61 2 2"
_symmetry_group_IT_number 178
_symmetry_cell_setting 'hexagonal'
loop_
_space_group_symop_operation_xyz
x,y,z
x-y,x,1/6+z
-y,x-y,1/3+z
-x,-y,1/2+z
-x+y,-x,2/3+z
y,-x+y,5/6+z
x-y,-y,-z
-x,-x+y,2/3-z
y,x,1/3-z
-y,-x,5/6-z
-x+y,y,1/2-z
x,x-y,1/6-z
loop_
_atom_site_type_symbol
_atom_site_label
_atom_site_fract_x
_atom_site_fract_y
_atom_site_fract_z
Si Si1 0.931356 0.392503 0.158943
Si Si2 0.798180 0.656978 0.996550
Si Si3 0.487095 0.726146 0.824853
Si Si4 0.673266 0.000000 0.000000
O O1 0.941990 0.470995 0.083334
O O2 0.845181 0.340392 0.216241
O O3 0.000000 0.413552 0.333334
O O4 0.943503 0.345780 0.960851
O O5 0.840005 0.680009 0.250000
O O6 0.762929 0.566918 0.992005
O O7 0.739573 0.685739 0.999236
O O8 0.841301 0.682602 0.750000
O O9 0.445336 0.722668 0.583334
O O10 0.454914 0.727457 0.083334
#
# Coordination Sequence:
#
# PCOD9582553 Si02
#       4
#    12  12  12   6
#     4  12  24  36  58  90 119 151 202 270 321 373
#     4  10  20  35  56  80 112 155 191 230 299 363
#     4  10  20  39  57  76 111 152 190 234 304 376
#     4  12  22  38  58  86 122 156 200 256 306 384
#
# _framework density 19.704612000000001
#
# number of rings (size 3 to 8) (size 9 to 14) (size 15 to 20)
#    0.000    1.143    7.143    3.429    0.000    0.000 
#    0.000    0.000    0.000    1.714    0.000    0.000 
#    0.000    0.000    0.000    2.571    0.286    2.857 
#
# Total GULP energy -233867.874512 kJ/mol
# GULP energy per Si atom -5568.282726 kJ/mol
# Density = 1.965976 g / cm^3
# Si number density = 19.704612 Si / 1000 Ang^3
#
#
#
# Elastic Constant Matrix: (Units=GPa)
#
#
# Indices 1 2 3 4 5 6 
#
# 1 50.8650 17.2218 30.9483 0.0000 0.0000 0.0000
# 2 17.2218 50.8650 30.9483 0.0000 0.0000 0.0000
# 3 30.9483 30.9483 168.0962 0.0000 0.0000 0.0000
# 4 0.0000 0.0000 0.0000 16.8298 0.0000 0.0000
# 5 0.0000 0.0000 0.0000 0.0000 16.8298 0.0000
# 6 0.0000 0.0000 0.0000 0.0000 0.0000 16.8216
#
#
#
# Elastic Compliance Matrix: (Units=1/GPa)
#
#
# Indices 1 2 3 4 5 6 
#
# 1 0.023682 -0.006042 -0.003248 0.000000 0.000000 0.000000
# 2 -0.006042 0.023682 -0.003248 0.000000 0.000000 0.000000
# 3 -0.003248 -0.003248 0.007145 0.000000 0.000000 0.000000
# 4 0.000000 0.000000 0.000000 0.059418 0.000000 0.000000
# 5 0.000000 0.000000 0.000000 0.000000 0.059418 0.000000
# 6 0.000000 0.000000 0.000000 0.000000 0.000000 0.059447
#
#
# Mechanical properties :
#
#
# Convention : Reuss Voigt Hill
#
# Bulk Modulus (GPa) = 33.97508 47.56253 40.76880
# Shear Modulus (GPa) = 18.67918 22.81011 20.74465
#
# Velocity S-wave (km/s) = 3.08224 3.40605 3.24818
# Velocity P-wave (km/s) = 5.47234 6.29749 5.89936
#
# Compressibility (1/GPa) = 0.02943334
#
# Stress axis : x y z
#
# Youngs Moduli (GPa) = 42.22691 42.22691 139.96170
#
# Poissons Ratio (x) = 0.25514 0.45454
# Poissons Ratio (y) = 0.25514 0.45454
# Poissons Ratio (z) = 0.13714 0.13714
#
# Static dielectric constant tensor:
#      x y z
#    x 1.735500 0.000000 0.000000 
#    y 0.000000 1.735500 0.000000 
#    z 0.000000 0.000000 1.014040 
# 
# From -- ./inp_files/746.got.cif
#   From: 2010.05.17/outbox.cif.g08.bks.cpg/sg178_1_cif.got.tgz:746.got - 2010.05.20 11:30:59.
