data_PCOD9582495
_publ_section_title
;
Structure prediction by ZEFSAII (Michael W. Deem and Ramdas Pophale) SiO2 
 PCOD9582495
Probable space group: P 61 2 2
;
_chemical_formula_sum "Si O2"
_cell_formula_units_Z 48
_cell_length_a 24.007002
_cell_length_b 24.007002
_cell_length_c 5.264294
_cell_angle_alpha 90.000000
_cell_angle_beta 90.000000
_cell_angle_gamma 120.000000
_cell_volume 2627.523595
_symmetry_space_group_name_H-M "P 61 2 2"
_symmetry_group_IT_number 178
_symmetry_cell_setting 'hexagonal'
loop_
_space_group_symop_operation_xyz
x,y,z
x-y,x,1/6+z
-y,x-y,1/3+z
-x,-y,1/2+z
-x+y,-x,2/3+z
y,-x+y,5/6+z
x-y,-y,-z
-x,-x+y,2/3-z
y,x,1/3-z
-y,-x,5/6-z
-x+y,y,1/2-z
x,x-y,1/6-z
loop_
_atom_site_type_symbol
_atom_site_label
_atom_site_fract_x
_atom_site_fract_y
_atom_site_fract_z
Si Si1 0.340390 0.960883 0.263385
Si Si2 0.715280 0.487519 0.001062
Si Si3 0.836704 0.633025 0.001545
Si Si4 0.104888 0.585776 0.324956
O O1 0.274963 0.896458 0.186740
O O2 0.386309 0.937664 0.390524
O O3 0.332424 0.000000 0.500000
O O4 0.367452 0.000000 0.000000
O O5 0.730270 0.460539 0.750000
O O6 0.729784 0.459568 0.250000
O O7 0.768858 0.564144 0.000523
O O8 0.645558 0.479006 0.026878
O O9 0.834319 0.668637 0.250000
O O10 0.833529 0.667058 0.750000
O O11 0.122853 0.561427 0.583334
O O12 0.074519 0.537260 0.083334
#
# Coordination Sequence:
#
# PCOD9582495 Si02
#       4
#    12  12  12  12
#     4  12  25  40  60  91 121 142 179 234 288 348
#     4  10  19  36  65  80  95 131 198 216 263 334
#     4  10  19  36  65  83 100 146 192 215 262 338
#     4  12  25  40  60  88 112 151 181 229 289 366
#
# _framework density 18.268152000000001
#
# number of rings (size 3 to 8) (size 9 to 14) (size 15 to 20)
#    0.000    1.000    5.000    4.500    7.000    2.000 
#    0.000    0.000    0.000    7.500    0.000    0.000 
#    0.000    0.000    0.000    0.000    0.000    0.000 
#
# Total GULP energy -267680.335476 kJ/mol
# GULP energy per Si atom -5576.673656 kJ/mol
# Density = 1.822657 g / cm^3
# Si number density = 18.268152 Si / 1000 Ang^3
#
#
#
# Elastic Constant Matrix: (Units=GPa)
#
#
# Indices 1 2 3 4 5 6 
#
# 1 43.4895 19.0044 15.8073 0.0000 0.0000 0.0000
# 2 19.0044 43.4895 15.8073 0.0000 0.0000 0.0000
# 3 15.8073 15.8073 180.5824 0.0000 0.0000 0.0000
# 4 0.0000 0.0000 0.0000 27.5553 0.0000 0.0000
# 5 0.0000 0.0000 0.0000 0.0000 27.5553 0.0000
# 6 0.0000 0.0000 0.0000 0.0000 0.0000 12.2426
#
#
#
# Elastic Compliance Matrix: (Units=1/GPa)
#
#
# Indices 1 2 3 4 5 6 
#
# 1 0.028792 -0.012049 -0.001466 0.000000 0.000000 0.000000
# 2 -0.012049 0.028792 -0.001466 0.000000 0.000000 0.000000
# 3 -0.001466 -0.001466 0.005794 0.000000 0.000000 0.000000
# 4 0.000000 0.000000 0.000000 0.036291 0.000000 0.000000
# 5 0.000000 0.000000 0.000000 0.000000 0.036291 0.000000
# 6 0.000000 0.000000 0.000000 0.000000 0.000000 0.081682
#
#
# Mechanical properties :
#
#
# Convention : Reuss Voigt Hill
#
# Bulk Modulus (GPa) = 29.92420 40.97773 35.45096
# Shear Modulus (GPa) = 19.32431 27.93347 23.62889
#
# Velocity S-wave (km/s) = 3.25593 3.91459 3.60035
# Velocity P-wave (km/s) = 5.52729 6.55072 6.06064
#
# Compressibility (1/GPa) = 0.03341777
#
# Stress axis : x y z
#
# Youngs Moduli (GPa) = 34.73185 34.73185 172.58576
#
# Poissons Ratio (x) = 0.41849 0.25294
# Poissons Ratio (y) = 0.41849 0.25294
# Poissons Ratio (z) = 0.05090 0.05090
#
# Static dielectric constant tensor:
#      x y z
#    x 1.647460 0.000000 0.000000 
#    y 0.000000 1.647460 0.000000 
#    z 0.000000 0.000000 1.678650 
# 
# From -- ./inp_files/1052.got.cif
#   From: 2010.05.17/outbox.cif.g08.bks.cpg/sg178_1_cif.got.tgz:1052.got - 2010.05.20 11:30:59.
