data_PCOD9582148
_publ_section_title
;
Structure prediction by ZEFSAII (Michael W. Deem and Ramdas Pophale) SiO2 
 PCOD9582148
Probable space group: P 63/M
;
_chemical_formula_sum "Si O2"
_cell_formula_units_Z 72
_cell_length_a 24.000000
_cell_length_b 24.000000
_cell_length_c 9.000000
_cell_angle_alpha 90.000000
_cell_angle_beta 90.000000
_cell_angle_gamma 120.000000
_cell_volume 4489.475693
_symmetry_space_group_name_H-M "P 63/M"
_symmetry_group_IT_number 176
_symmetry_cell_setting 'hexagonal'
loop_
_space_group_symop_operation_xyz
x,y,z
x-y,x,1/2+z
-y,x-y,z
-x,-y,1/2+z
-x+y,-x,z
y,-x+y,1/2+z
-x,-y,-z
-x+y,-x,1/2-z
y,-x+y,-z
x,y,1/2-z
x-y,x,-z
-y,x-y,1/2-z
loop_
_atom_site_type_symbol
_atom_site_label
_atom_site_fract_x
_atom_site_fract_y
_atom_site_fract_z
Si Si1 0.866918 0.369246 0.070481
Si Si2 0.002402 0.750883 0.430580
Si Si3 0.711181 0.858296 0.930381
Si Si4 0.220716 0.778475 0.569858
Si Si5 0.629933 0.127375 0.430809
Si Si6 0.376377 0.374095 0.929842
O O1 0.861704 0.367987 0.250000
O O2 0.815342 0.296362 0.018559
O O3 0.860582 0.431437 0.023984
O O4 0.937028 0.378251 0.035479
O O5 0.007161 0.751489 0.250000
O O6 0.930692 0.742905 0.464344
O O7 0.000222 0.686755 0.497498
O O8 0.069271 0.812357 0.496237
O O9 0.714213 0.866263 0.750000
O O10 0.634247 0.817834 0.973261
O O11 0.218392 0.777293 0.750000
O O12 0.296659 0.817435 0.529630
O O13 0.627473 0.120883 0.250000
O O14 0.621686 0.062507 0.504707
O O15 0.373252 0.366418 0.750000
#
# Coordination Sequence:
#
# PCOD9582148 Si02
#       6
#    12  12  12  12  12  12
#     4   9  18  31  49  73 102 138 176 220 274 322
#     4  11  22  36  58  87 114 145 182 219 268 326
#     4  10  20  37  58  81 114 146 174 221 274 318
#     4   9  16  31  51  73 105 139 173 224 280 319
#     4  10  19  33  52  73 102 138 181 227 269 326
#     4  11  20  32  52  77 108 142 176 221 277 324
#
# _framework density 16.037507000000002
#
# number of rings (size 3 to 8) (size 9 to 14) (size 15 to 20)
#    0.000    2.000    3.333    1.500    0.000    1.333 
#    1.000    0.833    0.000    0.333    0.000    0.000 
#    0.000    0.000    0.000    0.000    0.000    0.000 
#
# Total GULP energy -401066.041175 kJ/mol
# GULP energy per Si atom -5570.361683 kJ/mol
# Density = 1.600101 g / cm^3
# Si number density = 16.037507 Si / 1000 Ang^3
#
#
#
# Elastic Constant Matrix: (Units=GPa)
#
#
# Indices 1 2 3 4 5 6 
#
# 1 166.1711 89.0054 30.5315 0.0000 0.0000 0.0000
# 2 89.0054 166.1711 30.5315 0.0000 0.0000 0.0000
# 3 30.5315 30.5315 42.0269 0.0000 0.0000 0.0000
# 4 0.0000 0.0000 0.0000 27.9686 0.0000 0.0000
# 5 0.0000 0.0000 0.0000 0.0000 27.9686 0.0000
# 6 0.0000 0.0000 0.0000 0.0000 0.0000 38.5828
#
#
#
# Elastic Compliance Matrix: (Units=1/GPa)
#
#
# Indices 1 2 3 4 5 6 
#
# 1 0.008851 -0.004108 -0.003446 0.000000 0.000000 0.000000
# 2 -0.004108 0.008851 -0.003446 0.000000 0.000000 0.000000
# 3 -0.003446 -0.003446 0.028801 0.000000 0.000000 0.000000
# 4 0.000000 0.000000 0.000000 0.035754 0.000000 0.000000
# 5 0.000000 0.000000 0.000000 0.000000 0.035754 0.000000
# 6 0.000000 0.000000 0.000000 0.000000 0.000000 0.025918
#
#
# Mechanical properties :
#
#
# Convention : Reuss Voigt Hill
#
# Bulk Modulus (GPa) = 40.80954 74.94509 57.87732
# Shear Modulus (GPa) = 28.71936 33.85739 31.28838
#
# Velocity S-wave (km/s) = 4.23633 4.59970 4.42175
# Velocity P-wave (km/s) = 7.03066 8.66269 7.88899
#
# Compressibility (1/GPa) = 0.02450407
#
# Stress axis : x y z
#
# Youngs Moduli (GPa) = 112.97769 112.97769 34.72077
#
# Poissons Ratio (x) = 0.46409 0.11965
# Poissons Ratio (y) = 0.46409 0.11965
# Poissons Ratio (z) = 0.38932 0.38932
#
# Static dielectric constant tensor:
#      x y z
#    x 1.549370 0.000000 0.000000 
#    y 0.000000 1.549370 0.000000 
#    z 0.000000 0.000000 1.538330 
# 
# From -- ./inp_files/1138.got.cif
#   From: 2010.05.17/outbox.ucp.g08.bks.cvg/sg176_1_cif.got.tgz:1138.got - 2010.06.11 15:18:56.
