data_PCOD9582555
_publ_section_title
;
Structure prediction by ZEFSAII (Michael W. Deem and Ramdas Pophale) SiO2 
 PCOD9582555
Probable space group: P 61 2 2
;
_chemical_formula_sum "Si O2"
_cell_formula_units_Z 60
_cell_length_a 16.245181
_cell_length_b 16.245181
_cell_length_c 11.740340
_cell_angle_alpha 90.000000
_cell_angle_beta 90.000000
_cell_angle_gamma 120.000000
_cell_volume 2683.245533
_symmetry_space_group_name_H-M "P 61 2 2"
_symmetry_group_IT_number 178
_symmetry_cell_setting 'hexagonal'
loop_
_space_group_symop_operation_xyz
x,y,z
x-y,x,1/6+z
-y,x-y,1/3+z
-x,-y,1/2+z
-x+y,-x,2/3+z
y,-x+y,5/6+z
x-y,-y,-z
-x,-x+y,2/3-z
y,x,1/3-z
-y,-x,5/6-z
-x+y,y,1/2-z
x,x-y,1/6-z
loop_
_atom_site_type_symbol
_atom_site_label
_atom_site_fract_x
_atom_site_fract_y
_atom_site_fract_z
Si Si1 0.228307 0.000000 0.000000
Si Si2 0.762716 0.267580 0.207434
Si Si3 0.932973 0.100459 0.690963
Si Si4 0.645797 0.446077 0.164079
Si Si5 0.782196 0.639810 0.128372
Si Si6 0.803626 0.607252 0.750000
O O1 0.324896 0.088935 0.043248
O O2 0.150259 0.958933 0.099549
O O3 0.816426 0.369029 0.270659
O O4 0.672981 0.249137 0.128437
O O5 0.673331 0.117553 0.019409
O O6 0.740599 0.197047 0.312357
O O7 0.927700 0.193307 0.727962
O O8 0.030397 0.127628 0.630588
O O9 0.726738 0.453475 0.250000
O O10 0.819164 0.581513 0.049101
O O11 0.832663 0.665326 0.250000
#
# Coordination Sequence:
#
# PCOD9582555 Si02
#       6
#     6  12  12  12  12   6
#     4  12  20  44  64  98 134 182 236 300 356 436
#     4  10  20  35  58 106 131 185 235 295 349 415
#     4  12  24  45  74 104 141 187 241 301 359 437
#     4   9  19  34  61  98 138 176 235 293 339 411
#     4   9  21  40  63  99 138 187 221 293 368 413
#     4  12  24  36  70  96 138 186 240 302 374 426
#
# _framework density 22.360980999999999
#
# number of rings (size 3 to 8) (size 9 to 14) (size 15 to 20)
#    1.200    0.400    4.000    0.600    2.800    0.800 
#    0.000    6.000    0.000    4.800    5.200    0.000 
#    0.000    0.000    0.000    0.000    0.000    0.000 
#
# Total GULP energy -334335.035965 kJ/mol
# GULP energy per Si atom -5572.250599 kJ/mol
# Density = 2.231009 g / cm^3
# Si number density = 22.360981 Si / 1000 Ang^3
#
#
#
# Elastic Constant Matrix: (Units=GPa)
#
#
# Indices 1 2 3 4 5 6 
#
# 1 92.3994 53.9566 47.3451 0.0000 0.0000 0.0000
# 2 53.9566 92.3994 47.3451 0.0000 0.0000 0.0000
# 3 47.3451 47.3451 177.4831 0.0000 0.0000 0.0000
# 4 0.0000 0.0000 0.0000 43.9123 0.0000 0.0000
# 5 0.0000 0.0000 0.0000 0.0000 43.9123 0.0000
# 6 0.0000 0.0000 0.0000 0.0000 0.0000 19.2214
#
#
#
# Elastic Compliance Matrix: (Units=1/GPa)
#
#
# Indices 1 2 3 4 5 6 
#
# 1 0.017135 -0.008877 -0.002203 0.000000 0.000000 0.000000
# 2 -0.008877 0.017135 -0.002203 0.000000 0.000000 0.000000
# 3 -0.002203 -0.002203 0.006810 0.000000 0.000000 0.000000
# 4 0.000000 0.000000 0.000000 0.022773 0.000000 0.000000
# 5 0.000000 0.000000 0.000000 0.000000 0.022773 0.000000
# 6 0.000000 0.000000 0.000000 0.000000 0.000000 0.052025
#
#
# Mechanical properties :
#
#
# Convention : Reuss Voigt Hill
#
# Bulk Modulus (GPa) = 68.89940 73.28619 71.09279
# Shear Modulus (GPa) = 29.40223 35.65153 32.52688
#
# Velocity S-wave (km/s) = 3.63008 3.99728 3.81809
# Velocity P-wave (km/s) = 6.96054 7.35864 7.16236
#
# Compressibility (1/GPa) = 0.01451391
#
# Stress axis : x y z
#
# Youngs Moduli (GPa) = 58.35912 58.35912 146.85151
#
# Poissons Ratio (x) = 0.51808 0.32349
# Poissons Ratio (y) = 0.51808 0.32349
# Poissons Ratio (z) = 0.12856 0.12856
#
# Static dielectric constant tensor:
#      x y z
#    x 1.868780 0.000000 0.000000 
#    y 0.000000 1.868780 0.000000 
#    z 0.000000 0.000000 1.930080 
# 
# From -- ./inp_files/4568.got.cif
#   From: 2010.05.17/outbox.cif.g08.bks.cpg/sg178_3_cif.got.tgz:4568.got - 2010.05.20 11:30:59.
