data_PCOD9582835
_publ_section_title
;
Structure prediction by ZEFSAII (Michael W. Deem and Ramdas Pophale) SiO2 
 PCOD9582835
Probable space group: P 61 2 2
;
_chemical_formula_sum "Si O2"
_cell_formula_units_Z 42
_cell_length_a 10.713715
_cell_length_b 10.713715
_cell_length_c 16.710880
_cell_angle_alpha 90.000000
_cell_angle_beta 90.000000
_cell_angle_gamma 120.000000
_cell_volume 1661.154898
_symmetry_space_group_name_H-M "P 61 2 2"
_symmetry_group_IT_number 178
_symmetry_cell_setting 'hexagonal'
loop_
_space_group_symop_operation_xyz
x,y,z
x-y,x,1/6+z
-y,x-y,1/3+z
-x,-y,1/2+z
-x+y,-x,2/3+z
y,-x+y,5/6+z
x-y,-y,-z
-x,-x+y,2/3-z
y,x,1/3-z
-y,-x,5/6-z
-x+y,y,1/2-z
x,x-y,1/6-z
loop_
_atom_site_type_symbol
_atom_site_label
_atom_site_fract_x
_atom_site_fract_y
_atom_site_fract_z
Si Si1 0.458724 0.076361 0.868467
Si Si2 0.243067 0.370210 0.867961
Si Si3 0.614697 0.429012 0.691953
Si Si4 0.000000 0.054798 0.833334
O O1 0.374743 0.098515 0.796275
O O2 0.598573 0.070781 0.836124
O O3 0.373939 0.931995 0.920854
O O4 0.515971 0.197818 0.938172
O O5 0.156797 0.454128 0.848174
O O6 0.145742 0.211108 0.833829
O O7 0.678647 0.357293 0.750000
O O8 0.988844 0.977688 0.750000
#
# Coordination Sequence:
#
# PCOD9582835 Si02
#       4
#    12  12  12   6
#     4  10  23  39  60  96 129 174 216 275 341 398
#     4  11  22  41  66  93 129 172 225 277 333 410
#     4  11  21  36  60  91 131 167 218 276 337 404
#     4  12  26  46  72  98 130 178 232 280 326 408
#
# _framework density 25.283617
#
# number of rings (size 3 to 8) (size 9 to 14) (size 15 to 20)
#    0.000    1.143    2.857    6.000    0.000    6.857 
#    0.000    4.286    0.000    0.000    0.000    0.000 
#    0.000    0.000    0.000    0.000    0.000    0.000 
#
# Total GULP energy -234764.546091 kJ/mol
# GULP energy per Si atom -5589.632050 kJ/mol
# Density = 2.522607 g / cm^3
# Si number density = 25.283617 Si / 1000 Ang^3
#
#
#
# Elastic Constant Matrix: (Units=GPa)
#
#
# Indices 1 2 3 4 5 6 
#
# 1 30.8220 3.7139 7.2515 0.0000 0.0000 0.0000
# 2 3.7139 30.8220 7.2515 0.0000 0.0000 0.0000
# 3 7.2515 7.2515 207.8992 0.0000 0.0000 0.0000
# 4 0.0000 0.0000 0.0000 33.3925 0.0000 0.0000
# 5 0.0000 0.0000 0.0000 0.0000 33.3925 0.0000
# 6 0.0000 0.0000 0.0000 0.0000 0.0000 13.5540
#
#
#
# Elastic Compliance Matrix: (Units=1/GPa)
#
#
# Indices 1 2 3 4 5 6 
#
# 1 0.033138 -0.003752 -0.001025 0.000000 0.000000 0.000000
# 2 -0.003752 0.033138 -0.001025 0.000000 0.000000 0.000000
# 3 -0.001025 -0.001025 0.004882 0.000000 0.000000 0.000000
# 4 0.000000 0.000000 0.000000 0.029947 0.000000 0.000000
# 5 0.000000 0.000000 0.000000 0.000000 0.029947 0.000000
# 6 0.000000 0.000000 0.000000 0.000000 0.000000 0.073779
#
#
# Mechanical properties :
#
#
# Convention : Reuss Voigt Hill
#
# Bulk Modulus (GPa) = 16.79169 33.99746 25.39457
# Shear Modulus (GPa) = 21.16100 32.82289 26.99194
#
# Velocity S-wave (km/s) = 2.89614 3.60695 3.27091
# Velocity P-wave (km/s) = 4.22365 5.55179 4.93263
#
# Compressibility (1/GPa) = 0.05955327
#
# Stress axis : x y z
#
# Youngs Moduli (GPa) = 30.17719 30.17719 204.85399
#
# Poissons Ratio (x) = 0.11322 0.20997
# Poissons Ratio (y) = 0.11322 0.20997
# Poissons Ratio (z) = 0.03093 0.03093
#
# Static dielectric constant tensor:
#      x y z
#    x 2.053770 0.000000 0.000000 
#    y 0.000000 2.053770 0.000000 
#    z 0.000000 0.000000 2.061910 
# 
# From -- ./inp_files/6374.got.cif
#   From: 2010.05.17/outbox.cif.g08.bks.cpg/sg178_4_cif.got.tgz:6374.got - 2010.05.20 11:30:59.
