data_PCOD9582720
_publ_section_title
;
Structure prediction by ZEFSAII (Michael W. Deem and Ramdas Pophale) SiO2 
 PCOD9582720
Probable space group: P 61 2 2
;
_chemical_formula_sum "Si O2"
_cell_formula_units_Z 60
_cell_length_a 20.172733
_cell_length_b 20.172733
_cell_length_c 8.475363
_cell_angle_alpha 90.000000
_cell_angle_beta 90.000000
_cell_angle_gamma 120.000000
_cell_volume 2986.884441
_symmetry_space_group_name_H-M "P 61 2 2"
_symmetry_group_IT_number 178
_symmetry_cell_setting 'hexagonal'
loop_
_space_group_symop_operation_xyz
x,y,z
x-y,x,1/6+z
-y,x-y,1/3+z
-x,-y,1/2+z
-x+y,-x,2/3+z
y,-x+y,5/6+z
x-y,-y,-z
-x,-x+y,2/3-z
y,x,1/3-z
-y,-x,5/6-z
-x+y,y,1/2-z
x,x-y,1/6-z
loop_
_atom_site_type_symbol
_atom_site_label
_atom_site_fract_x
_atom_site_fract_y
_atom_site_fract_z
Si Si1 0.372678 0.247018 0.489479
Si Si2 0.737750 0.542775 0.910145
Si Si3 0.148705 0.627699 0.342828
Si Si4 0.315643 0.684358 0.416667
Si Si5 0.482576 0.965151 0.250000
Si Si6 0.022494 0.366659 0.151845
O O1 0.333946 0.166973 0.583334
O O2 0.423395 0.236615 0.353453
O O3 0.434580 0.311621 0.605237
O O4 0.326483 0.286881 0.427854
O O5 0.757253 0.514506 0.750000
O O6 0.720247 0.610497 0.869246
O O7 0.660219 0.481050 0.000016
O O8 0.225384 0.648331 0.433700
O O9 0.085813 0.547726 0.421300
O O10 0.344582 0.672291 0.583334
O O11 0.574530 0.011177 0.254082
O O12 0.000000 0.357998 0.333334
#
# Coordination Sequence:
#
# PCOD9582720 Si02
#       6
#    12  12  12   6   6  12
#     4   9  19  38  60  80 113 155 188 238 304 374
#     4  11  21  37  63  86 113 152 196 240 312 395
#     4  10  21  42  60  74 112 155 195 256 327 364
#     4  12  24  42  57  82 106 152 212 262 312 388
#     4  10  24  40  59  78 118 150 204 274 306 368
#     4  11  23  37  58  91 117 149 201 253 314 366
#
# _framework density 20.087821000000002
#
# number of rings (size 3 to 8) (size 9 to 14) (size 15 to 20)
#    0.000    1.600    6.000    0.000    2.800    7.200 
#    3.600    0.000    0.000    0.000    0.000    0.000 
#    0.000    0.000    0.000    9.000    0.000    0.200 
#
# Total GULP energy -334701.272099 kJ/mol
# GULP energy per Si atom -5578.354535 kJ/mol
# Density = 2.004210 g / cm^3
# Si number density = 20.087821 Si / 1000 Ang^3
#
#
#
# Elastic Constant Matrix: (Units=GPa)
#
#
# Indices 1 2 3 4 5 6 
#
# 1 16.6475 84.3873 20.3376 0.0000 0.0000 0.0000
# 2 84.3873 16.6475 20.3376 0.0000 0.0000 0.0000
# 3 20.3376 20.3376 111.7726 0.0000 0.0000 0.0000
# 4 0.0000 0.0000 0.0000 -83.7127 0.0000 0.0000
# 5 0.0000 0.0000 0.0000 0.0000 -83.7127 0.0000
# 6 0.0000 0.0000 0.0000 0.0000 0.0000 -33.8699
#
#
#
# Elastic Compliance Matrix: (Units=1/GPa)
#
#
# Indices 1 2 3 4 5 6 
#
# 1 -0.002041 0.012721 -0.001943 0.000000 0.000000 0.000000
# 2 0.012721 -0.002041 -0.001943 0.000000 0.000000 0.000000
# 3 -0.001943 -0.001943 0.009654 0.000000 0.000000 0.000000
# 4 0.000000 0.000000 0.000000 -0.011946 0.000000 0.000000
# 5 0.000000 0.000000 0.000000 0.000000 -0.011946 0.000000
# 6 0.000000 0.000000 0.000000 0.000000 0.000000 -0.029525
#
#
# Mechanical properties :
#
#
# Convention : Reuss Voigt Hill
#
# Bulk Modulus (GPa) = 43.02800 43.91028 43.46914
# Shear Modulus (GPa) = -86.55486 -38.92538 -62.74012
#
# Velocity S-wave (km/s) = -6.57128 -4.40678 -5.59470
# Velocity P-wave (km/s) = 6.00910 1.99657 4.47747
#
# Compressibility (1/GPa) = 0.02324068
#
# Stress axis : x y z
#
# Youngs Moduli (GPa) = -489.90202 -489.90202 103.58496
#
# Poissons Ratio (x) = 6.23211 0.20129
# Poissons Ratio (y) = 6.23211 0.20129
# Poissons Ratio (z) = -0.95201 -0.95201
#
# Static dielectric constant tensor:
#      x y z
#    x 1.767190 0.000000 0.000000 
#    y 0.000000 1.767190 0.000000 
#    z 0.000000 0.000000 1.680100 
# 
# From -- ./inp_files/3134.got.cif
#   From: 2010.05.17/outbox.cif.g08.bks.cpg/sg178_2_cif.got.tgz:3134.got - 2010.05.20 11:30:59.
