data_PCOD9582834
_publ_section_title
;
Structure prediction by ZEFSAII (Michael W. Deem and Ramdas Pophale) SiO2 
 PCOD9582834
Probable space group: P 61 2 2
;
_chemical_formula_sum "Si O2"
_cell_formula_units_Z 60
_cell_length_a 11.814637
_cell_length_b 11.814637
_cell_length_c 26.722063
_cell_angle_alpha 90.000000
_cell_angle_beta 90.000000
_cell_angle_gamma 120.000000
_cell_volume 3230.289015
_symmetry_space_group_name_H-M "P 61 2 2"
_symmetry_group_IT_number 178
_symmetry_cell_setting 'hexagonal'
loop_
_space_group_symop_operation_xyz
x,y,z
x-y,x,1/6+z
-y,x-y,1/3+z
-x,-y,1/2+z
-x+y,-x,2/3+z
y,-x+y,5/6+z
x-y,-y,-z
-x,-x+y,2/3-z
y,x,1/3-z
-y,-x,5/6-z
-x+y,y,1/2-z
x,x-y,1/6-z
loop_
_atom_site_type_symbol
_atom_site_label
_atom_site_fract_x
_atom_site_fract_y
_atom_site_fract_z
Si Si1 0.106539 0.509947 0.794337
Si Si2 0.010967 0.771323 0.239553
Si Si3 0.972601 0.283666 0.042125
Si Si4 0.244076 0.747956 0.105071
Si Si5 0.597291 0.363551 0.471811
O O1 0.143814 0.626069 0.755705
O O2 0.235857 0.545384 0.826387
O O3 0.000000 0.497459 0.833334
O O4 0.050719 0.370220 0.767122
O O5 0.152544 0.867730 0.262874
O O6 0.912471 0.824941 0.250000
O O7 0.003336 0.746899 0.180425
O O8 0.906300 0.374386 0.036535
O O9 0.111471 0.362015 0.069358
O O10 0.222800 0.611400 0.083334
O O11 0.285183 0.761993 0.163408
O O12 0.645899 0.354102 0.416667
#
# Coordination Sequence:
#
# PCOD9582834 Si02
#       5
#    12  12  12  12  12
#     4  11  20  41  66  92 125 168 225 270 319 392
#     4  12  21  40  66  98 122 168 226 278 318 384
#     4  12  23  38  64  94 130 168 219 273 328 390
#     4  10  23  39  57  91 136 162 206 272 326 386
#     4  11  21  36  62  95 127 166 212 266 330 381
#
# _framework density 18.574190000000002
#
# number of rings (size 3 to 8) (size 9 to 14) (size 15 to 20)
#    0.000    0.800    6.000    3.000    0.000    0.000 
#    0.000    2.000    0.000    0.000    0.000    0.000 
#    0.000    0.000    0.000    0.000    0.000    0.000 
#
# Total GULP energy -335067.147740 kJ/mol
# GULP energy per Si atom -5584.452462 kJ/mol
# Density = 1.853191 g / cm^3
# Si number density = 18.574190 Si / 1000 Ang^3
#
#
#
# Elastic Constant Matrix: (Units=GPa)
#
#
# Indices 1 2 3 4 5 6 
#
# 1 90.3852 40.2702 30.3391 0.0000 0.0000 0.0000
# 2 40.2702 90.3852 30.3391 0.0000 0.0000 0.0000
# 3 30.3391 30.3391 111.5919 0.0000 0.0000 0.0000
# 4 0.0000 0.0000 0.0000 23.4969 0.0000 0.0000
# 5 0.0000 0.0000 0.0000 0.0000 23.4969 0.0000
# 6 0.0000 0.0000 0.0000 0.0000 0.0000 25.0575
#
#
#
# Elastic Compliance Matrix: (Units=1/GPa)
#
#
# Indices 1 2 3 4 5 6 
#
# 1 0.014357 -0.005597 -0.002382 0.000000 0.000000 0.000000
# 2 -0.005597 0.014357 -0.002382 0.000000 0.000000 0.000000
# 3 -0.002382 -0.002382 0.010256 0.000000 0.000000 0.000000
# 4 0.000000 0.000000 0.000000 0.042559 0.000000 0.000000
# 5 0.000000 0.000000 0.000000 0.000000 0.042559 0.000000
# 6 0.000000 0.000000 0.000000 0.000000 0.000000 0.039908
#
#
# Mechanical properties :
#
#
# Convention : Reuss Voigt Hill
#
# Bulk Modulus (GPa) = 54.79615 54.91768 54.85691
# Shear Modulus (GPa) = 26.20551 27.17120 26.68836
#
# Velocity S-wave (km/s) = 3.76021 3.82887 3.79469
# Velocity P-wave (km/s) = 6.95827 7.01269 6.98553
#
# Compressibility (1/GPa) = 0.01824946
#
# Stress axis : x y z
#
# Youngs Moduli (GPa) = 69.65275 69.65275 97.50203
#
# Poissons Ratio (x) = 0.38986 0.23221
# Poissons Ratio (y) = 0.38986 0.23221
# Poissons Ratio (z) = 0.16588 0.16588
#
# Static dielectric constant tensor:
#      x y z
#    x 1.650270 0.000000 0.000000 
#    y 0.000000 1.650270 0.000000 
#    z 0.000000 0.000000 1.688430 
# 
# From -- ./inp_files/8761.got.cif
#   From: 2010.05.17/outbox.cif.g08.bks.cpg/sg178_5_cif.got.tgz:8761.got - 2010.05.20 11:30:59.
