data_PCOD9582802
_publ_section_title
;
Structure prediction by ZEFSAII (Michael W. Deem and Ramdas Pophale) SiO2 
 PCOD9582802
Probable space group: P 61 2 2
;
_chemical_formula_sum "Si O2"
_cell_formula_units_Z 48
_cell_length_a 14.337172
_cell_length_b 14.337172
_cell_length_c 11.539845
_cell_angle_alpha 90.000000
_cell_angle_beta 90.000000
_cell_angle_gamma 120.000000
_cell_volume 2054.270351
_symmetry_space_group_name_H-M "P 61 2 2"
_symmetry_group_IT_number 178
_symmetry_cell_setting 'hexagonal'
loop_
_space_group_symop_operation_xyz
x,y,z
x-y,x,1/6+z
-y,x-y,1/3+z
-x,-y,1/2+z
-x+y,-x,2/3+z
y,-x+y,5/6+z
x-y,-y,-z
-x,-x+y,2/3-z
y,x,1/3-z
-y,-x,5/6-z
-x+y,y,1/2-z
x,x-y,1/6-z
loop_
_atom_site_type_symbol
_atom_site_label
_atom_site_fract_x
_atom_site_fract_y
_atom_site_fract_z
Si Si1 0.304697 0.304697 0.666667
Si Si2 0.666209 0.333792 0.916667
Si Si3 0.373148 0.082121 0.104615
Si Si4 0.394201 0.851261 0.572210
Si Si5 0.824076 0.816073 0.956229
O O1 0.417007 0.330402 0.722529
O O2 0.261921 0.221702 0.560564
O O3 0.585684 0.335559 0.822279
O O4 0.790247 0.386166 0.880610
O O5 0.417259 0.208630 0.083334
O O6 0.482815 0.076984 0.116601
O O7 0.289209 0.059258 0.207336
O O8 0.308033 0.000000 0.000000
O O9 0.840833 0.910613 0.866053
#
# Coordination Sequence:
#
# PCOD9582802 Si02
#       5
#     6   6  12  12  12
#     4  12  28  48  74 114 156 206 256 316 382 478
#     4  10  22  42  72  98 154 194 242 306 368 456
#     4  12  23  47  77 114 149 200 261 318 385 467
#     4  11  24  45  70 112 154 201 246 303 377 451
#     4  12  29  53  82 111 153 199 265 338 402 468
#
# _framework density 23.365960000000001
#
# number of rings (size 3 to 8) (size 9 to 14) (size 15 to 20)
#    0.000    0.500    6.250    2.250    3.500    0.000 
#    4.500    7.500    0.000    0.000    0.000    0.000 
#    0.000    0.000    0.000    0.000    0.000    0.000 
#
# Total GULP energy -267799.254121 kJ/mol
# GULP energy per Si atom -5579.151128 kJ/mol
# Density = 2.331278 g / cm^3
# Si number density = 23.365960 Si / 1000 Ang^3
#
#
#
# Elastic Constant Matrix: (Units=GPa)
#
#
# Indices 1 2 3 4 5 6 
#
# 1 108.4556 86.0253 59.9425 0.0000 0.0000 0.0000
# 2 86.0253 108.4556 59.9425 0.0000 0.0000 0.0000
# 3 59.9425 59.9425 111.7537 0.0000 0.0000 0.0000
# 4 0.0000 0.0000 0.0000 49.8463 0.0000 0.0000
# 5 0.0000 0.0000 0.0000 0.0000 49.8463 0.0000
# 6 0.0000 0.0000 0.0000 0.0000 0.0000 11.2152
#
#
#
# Elastic Compliance Matrix: (Units=1/GPa)
#
#
# Indices 1 2 3 4 5 6 
#
# 1 0.026132 -0.018450 -0.004120 0.000000 0.000000 0.000000
# 2 -0.018450 0.026132 -0.004120 0.000000 0.000000 0.000000
# 3 -0.004120 -0.004120 0.013368 0.000000 0.000000 0.000000
# 4 0.000000 0.000000 0.000000 0.020062 0.000000 0.000000
# 5 0.000000 0.000000 0.000000 0.000000 0.020062 0.000000
# 6 0.000000 0.000000 0.000000 0.000000 0.000000 0.089165
#
#
# Mechanical properties :
#
#
# Convention : Reuss Voigt Hill
#
# Bulk Modulus (GPa) = 81.62886 82.27619 81.95252
# Shear Modulus (GPa) = 19.81084 30.36517 25.08800
#
# Velocity S-wave (km/s) = 2.91495 3.60883 3.28029
# Velocity P-wave (km/s) = 6.80735 7.25626 7.03539
#
# Compressibility (1/GPa) = 0.01225057
#
# Stress axis : x y z
#
# Youngs Moduli (GPa) = 38.26697 38.26697 74.80301
#
# Poissons Ratio (x) = 0.70604 0.30822
# Poissons Ratio (y) = 0.70604 0.30822
# Poissons Ratio (z) = 0.15767 0.15767
#
# Static dielectric constant tensor:
#      x y z
#    x 1.499490 0.000000 0.000000 
#    y 0.000000 1.499490 0.000000 
#    z 0.000000 0.000000 1.985530 
# 
# From -- ./inp_files/4202.got.cif
#   From: 2010.05.17/outbox.cif.g08.bks.cpg/sg178_3_cif.got.tgz:4202.got - 2010.05.20 11:30:59.
