data_PCOD9582265
_publ_section_title
;
Structure prediction by ZEFSAII (Michael W. Deem and Ramdas Pophale) SiO2 
 PCOD9582265
Probable space group: P 6 2 2
;
_chemical_formula_sum "Si O2"
_cell_formula_units_Z 34
_cell_length_a 12.846132
_cell_length_b 12.846132
_cell_length_c 12.318896
_cell_angle_alpha 90.000000
_cell_angle_beta 90.000000
_cell_angle_gamma 120.000000
_cell_volume 1760.545206
_symmetry_space_group_name_H-M "P 6 2 2"
_symmetry_group_IT_number 177
_symmetry_cell_setting 'hexagonal'
loop_
_space_group_symop_operation_xyz
x,y,z
x-y,x,z
-y,x-y,z
-x,-y,z
-x+y,-x,z
y,-x+y,z
x-y,-y,-z
-x,-x+y,-z
y,x,-z
-y,-x,-z
-x+y,y,-z
x,x-y,-z
loop_
_atom_site_type_symbol
_atom_site_label
_atom_site_fract_x
_atom_site_fract_y
_atom_site_fract_z
Si Si1 0.333335 0.666668 0.368541
Si Si2 0.920759 0.358893 0.691103
Si Si3 0.000000 0.245777 0.500000
Si Si4 0.767480 0.746952 0.871390
O O1 0.333334 0.666667 0.500000
O O2 0.459845 0.678544 0.329121
O O3 0.949366 0.322003 0.807137
O O4 0.000000 0.500000 0.678351
O O5 0.974131 0.305863 0.603026
O O6 0.116378 0.232756 0.500000
O O7 0.764994 0.867350 0.841938
O O8 0.739551 0.739551 0.000000
#
# Coordination Sequence:
#
# PCOD9582265 Si02
#       4
#     4  12   6  12
#     4  12  24  42  66  94 131 178 225 276 346 419
#     4  12  24  40  62  90 124 165 212 261 319 393
#     4  12  24  40  62  90 122 156 200 258 322 388
#     4  10  21  39  63  90 121 160 207 262 322 385
#
# _framework density 19.312199
#
# number of rings (size 3 to 8) (size 9 to 14) (size 15 to 20)
#    0.000    0.706    0.000   10.588    0.000    2.118 
#    0.000    3.529    0.000    4.235    0.000    0.000 
#    0.000    0.000    0.000    0.000    0.000    0.000 
#
# Total GULP energy -189874.215785 kJ/mol
# GULP energy per Si atom -5584.535758 kJ/mol
# Density = 1.926824 g / cm^3
# Si number density = 19.312199 Si / 1000 Ang^3
#
#
#
# Elastic Constant Matrix: (Units=GPa)
#
#
# Indices 1 2 3 4 5 6 
#
# 1 139.5928 96.6646 49.9843 0.0002 -0.0002 -0.0004
# 2 96.6646 139.5914 49.9838 -0.0002 0.0005 0.0002
# 3 49.9843 49.9838 41.5608 0.0000 -0.0002 -0.0002
# 4 0.0002 -0.0002 0.0000 23.8160 -0.0003 -0.0003
# 5 -0.0002 0.0005 -0.0002 -0.0003 23.8182 -0.0002
# 6 -0.0004 0.0002 -0.0002 -0.0003 -0.0002 21.4649
#
#
#
# Elastic Compliance Matrix: (Units=1/GPa)
#
#
# Indices 1 2 3 4 5 6 
#
# 1 0.015957 -0.007338 -0.010365 0.000000 0.000000 0.000000
# 2 -0.007338 0.015957 -0.010365 0.000000 0.000000 0.000000
# 3 -0.010365 -0.010365 0.048993 0.000000 0.000001 0.000000
# 4 0.000000 0.000000 0.000000 0.041989 0.000001 0.000001
# 5 0.000000 0.000000 0.000001 0.000001 0.041985 0.000000
# 6 0.000000 0.000000 0.000000 0.000001 0.000000 0.046588
#
#
# Mechanical properties :
#
#
# Convention : Reuss Voigt Hill
#
# Bulk Modulus (GPa) = 40.37281 79.33449 59.85365
# Shear Modulus (GPa) = 18.12500 22.09400 20.10950
#
# Velocity S-wave (km/s) = 3.06686 3.38604 3.23040
# Velocity P-wave (km/s) = 5.78719 7.51373 6.70626
#
# Compressibility (1/GPa) = 0.02476915
#
# Stress axis : x y z
#
# Youngs Moduli (GPa) = 62.66906 62.66893 20.41094
#
# Poissons Ratio (x) = 0.45988 0.21157
# Poissons Ratio (y) = 0.45988 0.21156
# Poissons Ratio (z) = 0.64959 0.64958
#
# Static dielectric constant tensor:
#      x y z
#    x 1.659980 0.000000 0.000000 
#    y 0.000000 1.659990 0.000000 
#    z 0.000000 0.000000 1.651140 
# 
# From -- ./inp_files/2279.got.cif
#   From: 2010.05.17/outbox.cif.g08.bks.cpg/sg177_2_cif.got.tgz:2279.got - 2010.05.20 11:28:44.
