data_PCOD9582375
_publ_section_title
;
Structure prediction by ZEFSAII (Michael W. Deem and Ramdas Pophale) SiO2 
 PCOD9582375
Probable space group: P 61 2 2
;
_chemical_formula_sum "Si O2"
_cell_formula_units_Z 42
_cell_length_a 22.009885
_cell_length_b 22.009885
_cell_length_c 5.104453
_cell_angle_alpha 90.000000
_cell_angle_beta 90.000000
_cell_angle_gamma 120.000000
_cell_volume 2141.486731
_symmetry_space_group_name_H-M "P 61 2 2"
_symmetry_group_IT_number 178
_symmetry_cell_setting 'hexagonal'
loop_
_space_group_symop_operation_xyz
x,y,z
x-y,x,1/6+z
-y,x-y,1/3+z
-x,-y,1/2+z
-x+y,-x,2/3+z
y,-x+y,5/6+z
x-y,-y,-z
-x,-x+y,2/3-z
y,x,1/3-z
-y,-x,5/6-z
-x+y,y,1/2-z
x,x-y,1/6-z
loop_
_atom_site_type_symbol
_atom_site_label
_atom_site_fract_x
_atom_site_fract_y
_atom_site_fract_z
Si Si1 0.119158 0.382287 0.730026
Si Si2 0.472013 0.860246 0.990613
Si Si3 0.293791 0.587581 0.750000
Si Si4 0.215408 0.290340 0.268435
O O1 0.201330 0.402659 0.750000
O O2 0.104727 0.445397 0.791496
O O3 0.096892 0.354042 0.436897
O O4 0.079182 0.320766 0.942451
O O5 0.432409 0.864818 0.250000
O O6 0.453865 0.779429 0.931996
O O7 0.442004 0.884007 0.750000
O O8 0.280119 0.640060 0.583334
O O9 0.231142 0.231142 0.166667
O O10 0.134479 0.268957 0.250000
#
# Coordination Sequence:
#
# PCOD9582375 Si02
#       4
#    12  12   6  12
#     4  10  20  36  55  82 114 150 193 239 281 333
#     4  11  21  31  49  71 109 145 194 243 299 341
#     4  10  18  28  40  66 100 138 180 232 300 338
#     4  10  21  38  64  90 115 143 180 224 275 330
#
# _framework density 19.612542999999999
#
# number of rings (size 3 to 8) (size 9 to 14) (size 15 to 20)
#    0.000    1.714    2.857    2.571    0.000    0.000 
#    0.000    0.000    0.000   17.143    0.000    6.000 
#    0.000    0.000    0.000    0.000    0.000    0.000 
#
# Total GULP energy -234106.075415 kJ/mol
# GULP energy per Si atom -5573.954177 kJ/mol
# Density = 1.956790 g / cm^3
# Si number density = 19.612543 Si / 1000 Ang^3
#
#
#
# Elastic Constant Matrix: (Units=GPa)
#
#
# Indices 1 2 3 4 5 6 
#
# 1 65.6129 50.9834 11.5240 0.0000 0.0000 0.0000
# 2 50.9834 65.6129 11.5240 0.0000 0.0000 0.0000
# 3 11.5240 11.5240 83.1888 0.0000 0.0000 0.0000
# 4 0.0000 0.0000 0.0000 22.0843 0.0000 0.0000
# 5 0.0000 0.0000 0.0000 0.0000 22.0843 0.0000
# 6 0.0000 0.0000 0.0000 0.0000 0.0000 7.3148
#
#
#
# Elastic Compliance Matrix: (Units=1/GPa)
#
#
# Indices 1 2 3 4 5 6 
#
# 1 0.038586 -0.029768 -0.001222 0.000000 0.000000 0.000000
# 2 -0.029768 0.038586 -0.001222 0.000000 0.000000 0.000000
# 3 -0.001222 -0.001222 0.012359 0.000000 0.000000 0.000000
# 4 0.000000 0.000000 0.000000 0.045281 0.000000 0.000000
# 5 0.000000 0.000000 0.000000 0.000000 0.045281 0.000000
# 6 0.000000 0.000000 0.000000 0.000000 0.000000 0.136710
#
#
# Mechanical properties :
#
#
# Convention : Reuss Voigt Hill
#
# Bulk Modulus (GPa) = 39.82603 40.27528 40.05066
# Shear Modulus (GPa) = 12.83378 19.65557 16.24467
#
# Velocity S-wave (km/s) = 2.56083 3.16918 2.88111
# Velocity P-wave (km/s) = 5.39391 5.82852 5.61542
#
# Compressibility (1/GPa) = 0.02510921
#
# Stress axis : x y z
#
# Youngs Moduli (GPa) = 25.91580 25.91580 80.91081
#
# Poissons Ratio (x) = 0.77147 0.09884
# Poissons Ratio (y) = 0.77147 0.09884
# Poissons Ratio (z) = 0.03166 0.03166
#
# Static dielectric constant tensor:
#      x y z
#    x 1.782800 0.000000 0.000000 
#    y 0.000000 1.782800 0.000000 
#    z 0.000000 0.000000 1.674240 
# 
# From -- ./inp_files/710.got.cif
#   From: 2010.05.17/outbox.cif.g08.bks.cpg/sg178_1_cif.got.tgz:710.got - 2010.05.20 11:30:59.
