data_PCOD9582812
_publ_section_title
;
Structure prediction by ZEFSAII (Michael W. Deem and Ramdas Pophale) SiO2 
 PCOD9582812
Probable space group: P 61 2 2
;
_chemical_formula_sum "Si O2"
_cell_formula_units_Z 84
_cell_length_a 17.599469
_cell_length_b 17.599469
_cell_length_c 13.877660
_cell_angle_alpha 90.000000
_cell_angle_beta 90.000000
_cell_angle_gamma 120.000000
_cell_volume 3722.596840
_symmetry_space_group_name_H-M "P 61 2 2"
_symmetry_group_IT_number 178
_symmetry_cell_setting 'hexagonal'
loop_
_space_group_symop_operation_xyz
x,y,z
x-y,x,1/6+z
-y,x-y,1/3+z
-x,-y,1/2+z
-x+y,-x,2/3+z
y,-x+y,5/6+z
x-y,-y,-z
-x,-x+y,2/3-z
y,x,1/3-z
-y,-x,5/6-z
-x+y,y,1/2-z
x,x-y,1/6-z
loop_
_atom_site_type_symbol
_atom_site_label
_atom_site_fract_x
_atom_site_fract_y
_atom_site_fract_z
Si Si1 0.231249 0.893688 0.849145
Si Si2 0.212632 0.444233 0.011104
Si Si3 0.656917 0.397285 0.645594
Si Si4 0.919638 0.403077 0.397965
Si Si5 0.678567 0.743077 0.920423
Si Si6 0.139014 0.082257 0.436717
Si Si7 0.961716 0.383459 0.726663
O O1 0.148081 0.851920 0.916667
O O2 0.203285 0.840877 0.750033
O O3 0.307902 0.877312 0.888943
O O4 0.278197 0.996006 0.833599
O O5 0.268000 0.530677 0.074723
O O6 0.263603 0.411755 0.944140
O O7 0.139167 0.448550 0.949273
O O8 0.693607 0.387213 0.750000
O O9 0.616964 0.308482 0.583334
O O10 0.597056 0.440181 0.668066
O O11 0.958949 0.487337 0.467531
O O12 0.000000 0.416348 0.333334
O O13 0.760350 0.838848 0.946170
O O14 0.650843 0.665567 0.997498
O O15 0.075815 0.113057 0.494590
O O16 0.125392 0.000000 0.500000
O O17 0.000000 0.400713 0.833334
#
# Coordination Sequence:
#
# PCOD9582812 Si02
#       7
#    12  12  12  12  12  12  12
#     4  11  22  40  69 100 141 192 236 300 378 440
#     4  11  22  40  69 103 141 187 249 297 375 444
#     4  12  24  46  75 109 148 202 251 313 378 455
#     4  11  22  45  70  98 147 190 244 300 376 445
#     4  11  25  42  69 111 144 189 253 312 379 460
#     4  10  22  44  70 100 143 196 253 313 389 455
#     4  10  25  45  68 101 145 200 245 308 382 462
#
# _framework density 22.564893999999999
#
# number of rings (size 3 to 8) (size 9 to 14) (size 15 to 20)
#    0.000    1.143    2.857    3.429    0.000    6.857 
#   15.429    0.000    0.000    0.000    0.000    0.000 
#    0.000    0.000    0.000    0.000    0.000    0.000 
#
# Total GULP energy -468577.013820 kJ/mol
# GULP energy per Si atom -5578.297784 kJ/mol
# Density = 2.251353 g / cm^3
# Si number density = 22.564894 Si / 1000 Ang^3
#
#
#
# Elastic Constant Matrix: (Units=GPa)
#
#
# Indices 1 2 3 4 5 6 
#
# 1 57.1439 27.4562 36.0650 0.0000 0.0000 0.0000
# 2 27.4562 57.1439 36.0650 0.0000 0.0000 0.0000
# 3 36.0650 36.0650 80.8549 0.0000 0.0000 0.0000
# 4 0.0000 0.0000 0.0000 26.4066 0.0000 0.0000
# 5 0.0000 0.0000 0.0000 0.0000 26.4066 0.0000
# 6 0.0000 0.0000 0.0000 0.0000 0.0000 14.8438
#
#
#
# Elastic Compliance Matrix: (Units=1/GPa)
#
#
# Indices 1 2 3 4 5 6 
#
# 1 0.026379 -0.007305 -0.008508 0.000000 0.000000 0.000000
# 2 -0.007305 0.026379 -0.008508 0.000000 0.000000 0.000000
# 3 -0.008508 -0.008508 0.019958 0.000000 0.000000 0.000000
# 4 0.000000 0.000000 0.000000 0.037869 0.000000 0.000000
# 5 0.000000 0.000000 0.000000 0.000000 0.037869 0.000000
# 6 0.000000 0.000000 0.000000 0.000000 0.000000 0.067368
#
#
# Mechanical properties :
#
#
# Convention : Reuss Voigt Hill
#
# Bulk Modulus (GPa) = 41.53814 43.81279 42.67546
# Shear Modulus (GPa) = 18.34935 19.90183 19.12559
#
# Velocity S-wave (km/s) = 2.85473 2.97304 2.91448
# Velocity P-wave (km/s) = 5.41426 5.58961 5.50264
#
# Compressibility (1/GPa) = 0.02407426
#
# Stress axis : x y z
#
# Youngs Moduli (GPa) = 37.90875 37.90875 50.10591
#
# Poissons Ratio (x) = 0.27692 0.42630
# Poissons Ratio (y) = 0.27692 0.42630
# Poissons Ratio (z) = 0.32253 0.32253
#
# Static dielectric constant tensor:
#      x y z
#    x 1.869700 0.000000 0.000000 
#    y 0.000000 1.869700 0.000000 
#    z 0.000000 0.000000 1.941070 
# 
# From -- ./inp_files/6019.got.cif
#   From: 2010.05.17/outbox.cif.g08.bks.cpg/sg178_4_cif.got.tgz:6019.got - 2010.05.20 11:30:59.
