data_PCOD9582996
_publ_section_title
;
Structure prediction by ZEFSAII (Michael W. Deem and Ramdas Pophale) SiO2 
 PCOD9582996
Probable space group: P 61 2 2
;
_chemical_formula_sum "Si O2"
_cell_formula_units_Z 48
_cell_length_a 13.685987
_cell_length_b 13.685987
_cell_length_c 13.713599
_cell_angle_alpha 90.000000
_cell_angle_beta 90.000000
_cell_angle_gamma 120.000000
_cell_volume 2224.509804
_symmetry_space_group_name_H-M "P 61 2 2"
_symmetry_group_IT_number 178
_symmetry_cell_setting 'hexagonal'
loop_
_space_group_symop_operation_xyz
x,y,z
x-y,x,1/6+z
-y,x-y,1/3+z
-x,-y,1/2+z
-x+y,-x,2/3+z
y,-x+y,5/6+z
x-y,-y,-z
-x,-x+y,2/3-z
y,x,1/3-z
-y,-x,5/6-z
-x+y,y,1/2-z
x,x-y,1/6-z
loop_
_atom_site_type_symbol
_atom_site_label
_atom_site_fract_x
_atom_site_fract_y
_atom_site_fract_z
Si Si1 0.364511 0.296841 0.567002
Si Si2 0.409357 0.612524 0.803857
Si Si3 0.826221 0.965101 0.782326
Si Si4 0.872766 0.625529 0.848521
O O1 0.321756 0.321756 0.666667
O O2 0.379104 0.189552 0.583334
O O3 0.489291 0.397350 0.543991
O O4 0.266906 0.253972 0.486513
O O5 0.310050 0.620100 0.750000
O O6 0.527290 0.710211 0.762225
O O7 0.385424 0.614577 0.916667
O O8 0.866445 0.922379 0.876736
O O9 0.742398 0.855126 0.721495
O O10 0.798056 0.596111 0.750000
O O11 0.000000 0.651113 0.833334
#
# Coordination Sequence:
#
# PCOD9582996 Si02
#       4
#    12  12  12  12
#     4  11  23  44  71 105 146 186 243 303 366 443
#     4  11  26  48  75 107 142 191 254 310 371 444
#     4  12  25  47  72 108 154 196 247 303 380 456
#     4  12  26  49  72 108 152 198 249 308 385 460
#
# _framework density 21.577786
#
# number of rings (size 3 to 8) (size 9 to 14) (size 15 to 20)
#    0.000    0.500    5.000    3.000    3.500    0.000 
#   13.500    0.000    0.000    0.000    0.000    0.000 
#    0.000    0.000    0.000    0.000    0.000    0.000 
#
# Total GULP energy -268389.804058 kJ/mol
# GULP energy per Si atom -5591.454251 kJ/mol
# Density = 2.152867 g / cm^3
# Si number density = 21.577786 Si / 1000 Ang^3
#
#
#
# Elastic Constant Matrix: (Units=GPa)
#
#
# Indices 1 2 3 4 5 6 
#
# 1 83.0411 22.3250 33.9934 0.0000 0.0000 0.0000
# 2 22.3250 83.0411 33.9934 0.0000 0.0000 0.0000
# 3 33.9934 33.9934 138.1491 0.0000 0.0000 0.0000
# 4 0.0000 0.0000 0.0000 63.4455 0.0000 0.0000
# 5 0.0000 0.0000 0.0000 0.0000 63.4455 0.0000
# 6 0.0000 0.0000 0.0000 0.0000 0.0000 30.3581
#
#
#
# Elastic Compliance Matrix: (Units=1/GPa)
#
#
# Indices 1 2 3 4 5 6 
#
# 1 0.013876 -0.002594 -0.002776 0.000000 0.000000 0.000000
# 2 -0.002594 0.013876 -0.002776 0.000000 0.000000 0.000000
# 3 -0.002776 -0.002776 0.008605 0.000000 0.000000 0.000000
# 4 0.000000 0.000000 0.000000 0.015762 0.000000 0.000000
# 5 0.000000 0.000000 0.000000 0.000000 0.015762 0.000000
# 6 0.000000 0.000000 0.000000 0.000000 0.000000 0.032940
#
#
# Mechanical properties :
#
#
# Convention : Reuss Voigt Hill
#
# Bulk Modulus (GPa) = 49.83959 53.87274 51.85617
# Shear Modulus (GPa) = 40.38752 45.71111 43.04932
#
# Velocity S-wave (km/s) = 4.33103 4.60764 4.47147
# Velocity P-wave (km/s) = 6.93961 7.30261 7.12342
#
# Compressibility (1/GPa) = 0.02006437
#
# Stress axis : x y z
#
# Youngs Moduli (GPa) = 72.06675 72.06675 116.21510
#
# Poissons Ratio (x) = 0.18695 0.32262
# Poissons Ratio (y) = 0.18695 0.32262
# Poissons Ratio (z) = 0.20006 0.20006
#
# Static dielectric constant tensor:
#      x y z
#    x 1.792580 0.000000 0.000000 
#    y 0.000000 1.792580 0.000000 
#    z 0.000000 0.000000 1.751000 
# 
# From -- ./inp_files/4090.got.cif
#   From: 2010.05.17/outbox.cif.g08.bks.cpg/sg178_3_cif.got.tgz:4090.got - 2010.05.20 11:30:59.
