data_PCOD9582853
_publ_section_title
;
Structure prediction by ZEFSAII (Michael W. Deem and Ramdas Pophale) SiO2 
 PCOD9582853
Probable space group: P 61 2 2
;
_chemical_formula_sum "Si O2"
_cell_formula_units_Z 84
_cell_length_a 20.081450
_cell_length_b 20.081450
_cell_length_c 11.349618
_cell_angle_alpha 90.000000
_cell_angle_beta 90.000000
_cell_angle_gamma 120.000000
_cell_volume 3963.711281
_symmetry_space_group_name_H-M "P 61 2 2"
_symmetry_group_IT_number 178
_symmetry_cell_setting 'hexagonal'
loop_
_space_group_symop_operation_xyz
x,y,z
x-y,x,1/6+z
-y,x-y,1/3+z
-x,-y,1/2+z
-x+y,-x,2/3+z
y,-x+y,5/6+z
x-y,-y,-z
-x,-x+y,2/3-z
y,x,1/3-z
-y,-x,5/6-z
-x+y,y,1/2-z
x,x-y,1/6-z
loop_
_atom_site_type_symbol
_atom_site_label
_atom_site_fract_x
_atom_site_fract_y
_atom_site_fract_z
Si Si1 0.891489 0.032651 0.114646
Si Si2 0.814325 0.234687 0.599125
Si Si3 0.781830 0.430642 0.703200
Si Si4 0.257126 0.184945 0.982207
Si Si5 0.486731 0.362974 0.712765
Si Si6 0.446950 0.035254 0.688683
Si Si7 0.656202 0.949714 0.385889
O O1 0.861823 0.073934 0.200867
O O2 0.890725 0.970818 0.208088
O O3 0.836129 0.000000 0.000000
O O4 0.802909 0.287837 0.505132
O O5 0.889416 0.234206 0.556621
O O6 0.826436 0.279659 0.723662
O O7 0.752388 0.143094 0.596900
O O8 0.695828 0.391656 0.750000
O O9 0.785824 0.392912 0.583334
O O10 0.834207 0.413759 0.789368
O O11 0.247460 0.123730 0.083334
O O12 0.239400 0.252385 0.020603
O O13 0.458011 0.409388 0.795036
O O14 0.457891 0.363435 0.581940
O O15 0.526429 0.052858 0.750000
O O16 0.389730 0.035879 0.784556
O O17 0.661536 0.000000 0.500000
#
# Coordination Sequence:
#
# PCOD9582853 Si02
#       7
#    12  12  12  12  12  12  12
#     4  10  24  47  68  98 133 181 234 298 370 445
#     4  11  23  43  71 101 143 188 239 298 369 442
#     4  10  23  43  68  98 133 188 234 294 360 432
#     4  12  24  44  70 106 143 187 243 300 375 444
#     4  10  24  47  70 100 143 195 243 294 385 438
#     4  11  25  42  70 107 140 185 244 308 357 444
#     4  12  27  41  70 111 145 191 243 304 368 434
#
# _framework density 21.192260000000001
#
# number of rings (size 3 to 8) (size 9 to 14) (size 15 to 20)
#    0.000    1.143    2.857    2.571    4.000    1.714 
#   12.857    0.000    0.000    0.000    0.000    0.000 
#    0.000    0.000    0.000    0.000    0.000    0.000 
#
# Total GULP energy -468398.196330 kJ/mol
# GULP energy per Si atom -5576.169004 kJ/mol
# Density = 2.114403 g / cm^3
# Si number density = 21.192260 Si / 1000 Ang^3
#
#
#
# Elastic Constant Matrix: (Units=GPa)
#
#
# Indices 1 2 3 4 5 6 
#
# 1 146.9908 45.4649 69.1549 0.0000 0.0000 0.0000
# 2 45.4649 146.9908 69.1549 0.0000 0.0000 0.0000
# 3 69.1549 69.1549 161.8675 0.0000 0.0000 0.0000
# 4 0.0000 0.0000 0.0000 76.4693 0.0000 0.0000
# 5 0.0000 0.0000 0.0000 0.0000 76.4693 0.0000
# 6 0.0000 0.0000 0.0000 0.0000 0.0000 50.7630
#
#
#
# Elastic Compliance Matrix: (Units=1/GPa)
#
#
# Indices 1 2 3 4 5 6 
#
# 1 0.008674 -0.001176 -0.003203 0.000000 0.000000 0.000000
# 2 -0.001176 0.008674 -0.003203 0.000000 0.000000 0.000000
# 3 -0.003203 -0.003203 0.008915 0.000000 0.000000 0.000000
# 4 0.000000 0.000000 0.000000 0.013077 0.000000 0.000000
# 5 0.000000 0.000000 0.000000 0.000000 0.013077 0.000000
# 6 0.000000 0.000000 0.000000 0.000000 0.000000 0.019699
#
#
# Mechanical properties :
#
#
# Convention : Reuss Voigt Hill
#
# Bulk Modulus (GPa) = 90.10903 91.48872 90.79888
# Shear Modulus (GPa) = 54.95632 58.87859 56.91746
#
# Velocity S-wave (km/s) = 5.09790 5.27668 5.18806
# Velocity P-wave (km/s) = 8.78997 8.96599 8.87842
#
# Compressibility (1/GPa) = 0.01109767
#
# Stress axis : x y z
#
# Youngs Moduli (GPa) = 115.28770 115.28770 112.16873
#
# Poissons Ratio (x) = 0.13555 0.35933
# Poissons Ratio (y) = 0.13555 0.35933
# Poissons Ratio (z) = 0.36932 0.36932
#
# Static dielectric constant tensor:
#      x y z
#    x 1.805170 0.000000 0.000000 
#    y 0.000000 1.805170 0.000000 
#    z 0.000000 0.000000 1.775210 
# 
# From -- ./inp_files/4776.got.cif
#   From: 2010.05.17/outbox.cif.g08.bks.cpg/sg178_3_cif.got.tgz:4776.got - 2010.05.20 11:30:59.
