data_PCOD9582559
_publ_section_title
;
Structure prediction by ZEFSAII (Michael W. Deem and Ramdas Pophale) SiO2 
 PCOD9582559
Probable space group: P 61 2 2
;
_chemical_formula_sum "Si O2"
_cell_formula_units_Z 42
_cell_length_a 8.791336
_cell_length_b 8.791336
_cell_length_c 27.040046
_cell_angle_alpha 90.000000
_cell_angle_beta 90.000000
_cell_angle_gamma 120.000000
_cell_volume 1809.871809
_symmetry_space_group_name_H-M "P 61 2 2"
_symmetry_group_IT_number 178
_symmetry_cell_setting 'hexagonal'
loop_
_space_group_symop_operation_xyz
x,y,z
x-y,x,1/6+z
-y,x-y,1/3+z
-x,-y,1/2+z
-x+y,-x,2/3+z
y,-x+y,5/6+z
x-y,-y,-z
-x,-x+y,2/3-z
y,x,1/3-z
-y,-x,5/6-z
-x+y,y,1/2-z
x,x-y,1/6-z
loop_
_atom_site_type_symbol
_atom_site_label
_atom_site_fract_x
_atom_site_fract_y
_atom_site_fract_z
Si Si1 0.426846 0.173971 0.530415
Si Si2 0.441664 0.029183 0.840196
Si Si3 0.825487 0.221501 0.267359
Si Si4 0.198713 0.397426 0.250000
O O1 0.342799 0.171400 0.583334
O O2 0.473431 0.351415 0.501936
O O3 0.611745 0.185301 0.545070
O O4 0.313347 0.000000 0.500000
O O5 0.326897 0.953110 0.791406
O O6 0.360260 0.862721 0.879236
O O7 0.407419 0.162854 0.874252
O O8 0.023219 0.269856 0.279907
#
# Coordination Sequence:
#
# PCOD9582559 Si02
#       4
#    12  12  12   6
#     4  10  20  35  61 101 148 191 254 316 380 452
#     4   9  18  31  58  98 145 190 252 304 377 467
#     4   9  18  32  59 103 145 191 242 311 375 455
#     4   8  16  26  56  94 146 174 242 294 374 436
#
# _framework density 23.206063
#
# number of rings (size 3 to 8) (size 9 to 14) (size 15 to 20)
#    1.714    1.143    0.000    2.571    0.000    0.000 
#    0.000    0.000    0.000   24.000   14.857    8.000 
#    0.000    0.000    0.000    0.000    0.000    0.000 
#
# Total GULP energy -233992.755129 kJ/mol
# GULP energy per Si atom -5571.256074 kJ/mol
# Density = 2.315324 g / cm^3
# Si number density = 23.206063 Si / 1000 Ang^3
#
#
#
# Elastic Constant Matrix: (Units=GPa)
#
#
# Indices 1 2 3 4 5 6 
#
# 1 125.9753 68.4599 65.2108 0.0000 0.0000 0.0000
# 2 68.4599 125.9753 65.2108 0.0000 0.0000 0.0000
# 3 65.2108 65.2108 133.5265 0.0000 0.0000 0.0000
# 4 0.0000 0.0000 0.0000 33.2495 0.0000 0.0000
# 5 0.0000 0.0000 0.0000 0.0000 33.2495 0.0000
# 6 0.0000 0.0000 0.0000 0.0000 0.0000 28.7577
#
#
#
# Elastic Compliance Matrix: (Units=1/GPa)
#
#
# Indices 1 2 3 4 5 6 
#
# 1 0.012518 -0.004869 -0.003735 0.000000 0.000000 0.000000
# 2 -0.004869 0.012518 -0.003735 0.000000 0.000000 0.000000
# 3 -0.003735 -0.003735 0.011138 0.000000 0.000000 0.000000
# 4 0.000000 0.000000 0.000000 0.030076 0.000000 0.000000
# 5 0.000000 0.000000 0.000000 0.000000 0.030076 0.000000
# 6 0.000000 0.000000 0.000000 0.000000 0.000000 0.034773
#
#
# Mechanical properties :
#
#
# Convention : Reuss Voigt Hill
#
# Bulk Modulus (GPa) = 87.00617 87.02667 87.01642
# Shear Modulus (GPa) = 31.32668 31.49106 31.40887
#
# Velocity S-wave (km/s) = 3.67813 3.68777 3.68295
# Velocity P-wave (km/s) = 7.45738 7.46431 7.46085
#
# Compressibility (1/GPa) = 0.01149344
#
# Stress axis : x y z
#
# Youngs Moduli (GPa) = 79.88705 79.88705 89.78498
#
# Poissons Ratio (x) = 0.38897 0.33539
# Poissons Ratio (y) = 0.38897 0.33539
# Poissons Ratio (z) = 0.29841 0.29841
#
# Static dielectric constant tensor:
#      x y z
#    x 1.903160 0.000000 0.000000 
#    y 0.000000 1.903160 0.000000 
#    z 0.000000 0.000000 1.999810 
# 
# From -- ./inp_files/9243.got.cif
#   From: 2010.05.17/outbox.cif.g08.bks.cpg/sg178_5_cif.got.tgz:9243.got - 2010.05.20 11:30:59.
