data_PCOD9582321
_publ_section_title
;
Structure prediction by ZEFSAII (Michael W. Deem and Ramdas Pophale) SiO2 
 PCOD9582321
Probable space group: P 6 2 2
;
_chemical_formula_sum "Si O2"
_cell_formula_units_Z 19
_cell_length_a 9.558867
_cell_length_b 9.558867
_cell_length_c 11.405493
_cell_angle_alpha 90.000000
_cell_angle_beta 90.000000
_cell_angle_gamma 120.000000
_cell_volume 902.521449
_symmetry_space_group_name_H-M "P 6 2 2"
_symmetry_group_IT_number 177
_symmetry_cell_setting 'hexagonal'
loop_
_space_group_symop_operation_xyz
x,y,z
x-y,x,z
-y,x-y,z
-x,-y,z
-x+y,-x,z
y,-x+y,z
x-y,-y,-z
-x,-x+y,-z
y,x,-z
-y,-x,-z
-x+y,y,-z
x,x-y,-z
loop_
_atom_site_type_symbol
_atom_site_label
_atom_site_fract_x
_atom_site_fract_y
_atom_site_fract_z
Si Si1 0.735019 0.626300 0.208911
Si Si2 0.500000 0.500000 0.000000
Si Si3 0.666668 0.333335 0.361099
O O1 0.925697 0.696424 0.216107
O O2 0.648172 0.541125 0.087151
O O3 0.337417 0.512279 0.307638
O O4 0.666668 0.333334 0.500000
#
# Coordination Sequence:
#
# PCOD9582321 Si02
#       3
#    12   3   4
#     4  12  26  46  76 110 153 199 254 326 389 465
#     4  12  24  44  76 112 152 196 256 322 408 456
#     4  12  27  52  77 106 153 207 262 311 394 471
#
# _framework density 21.052129000000001
#
# number of rings (size 3 to 8) (size 9 to 14) (size 15 to 20)
#    0.000    0.000    6.316    2.526    0.000    5.053 
#    0.000    3.158    0.000    3.789    0.000    0.000 
#    0.000    0.000    0.000    0.000    0.000    0.000 
#
# Total GULP energy -106269.039342 kJ/mol
# GULP energy per Si atom -5593.107334 kJ/mol
# Density = 2.100421 g / cm^3
# Si number density = 21.052129 Si / 1000 Ang^3
#
#
#
# Elastic Constant Matrix: (Units=GPa)
#
#
# Indices 1 2 3 4 5 6 
#
# 1 192.1346 79.1786 87.8085 -0.0001 -0.0002 -0.0003
# 2 79.1786 192.1326 87.8076 -0.0001 -0.0003 -0.0004
# 3 87.8085 87.8076 211.3805 -0.0006 0.0001 -0.0004
# 4 -0.0001 -0.0001 -0.0006 19.3780 -0.0001 0.0000
# 5 -0.0002 -0.0003 0.0001 -0.0001 19.3786 0.0000
# 6 -0.0003 -0.0004 -0.0004 0.0000 0.0000 56.4771
#
#
#
# Elastic Compliance Matrix: (Units=1/GPa)
#
#
# Indices 1 2 3 4 5 6 
#
# 1 0.006947 -0.001906 -0.002094 0.000000 0.000000 0.000000
# 2 -0.001906 0.006947 -0.002094 0.000000 0.000000 0.000000
# 3 -0.002094 -0.002094 0.006471 0.000000 0.000000 0.000000
# 4 0.000000 0.000000 0.000000 0.051605 0.000000 0.000000
# 5 0.000000 0.000000 0.000000 0.000000 0.051603 0.000000
# 6 0.000000 0.000000 0.000000 0.000000 0.000000 0.017706
#
#
# Mechanical properties :
#
#
# Convention : Reuss Voigt Hill
#
# Bulk Modulus (GPa) = 122.30043 122.80412 122.55228
# Shear Modulus (GPa) = 32.01153 41.77027 36.89090
#
# Velocity S-wave (km/s) = 3.90370 4.45920 4.19066
# Velocity P-wave (km/s) = 8.86220 9.21806 9.04188
#
# Compressibility (1/GPa) = 0.00817659
#
# Stress axis : x y z
#
# Youngs Moduli (GPa) = 143.94344 143.94230 154.54371
#
# Poissons Ratio (x) = 0.27434 0.32364
# Poissons Ratio (y) = 0.27434 0.32364
# Poissons Ratio (z) = 0.30144 0.30144
#
# Static dielectric constant tensor:
#      x y z
#    x 1.788790 0.000000 0.000000 
#    y 0.000000 1.788790 0.000000 
#    z 0.000000 0.000000 1.714550 
# 
# From -- ./inp_files/1655.got.cif
#   From: 2010.05.17/outbox.cif.g08.bks.cpg/sg177_1_cif.got.tgz:1655.got - 2010.05.20 11:28:44.
