data_PCOD9582050
_publ_section_title
;
Structure prediction by ZEFSAII (Michael W. Deem and Ramdas Pophale) SiO2 
 PCOD9582050
Probable space group: P 63/M
;
_chemical_formula_sum "Si O2"
_cell_formula_units_Z 74
_cell_length_a 11.943976
_cell_length_b 11.943976
_cell_length_c 29.502598
_cell_angle_alpha 90.000000
_cell_angle_beta 90.000000
_cell_angle_gamma 120.000000
_cell_volume 3644.926183
_symmetry_space_group_name_H-M "P 63/M"
_symmetry_group_IT_number 176
_symmetry_cell_setting 'hexagonal'
loop_
_space_group_symop_operation_xyz
x,y,z
x-y,x,1/2+z
-y,x-y,z
-x,-y,1/2+z
-x+y,-x,z
y,-x+y,1/2+z
-x,-y,-z
-x+y,-x,1/2-z
y,-x+y,-z
x,y,1/2-z
x-y,x,-z
-y,x-y,1/2-z
loop_
_atom_site_type_symbol
_atom_site_label
_atom_site_fract_x
_atom_site_fract_y
_atom_site_fract_z
Si Si1 0.333334 0.666667 0.500046
Si Si2 0.652791 0.582179 0.000082
Si Si3 0.992045 0.260882 0.409888
Si Si4 0.263347 0.010475 0.594065
Si Si5 0.559464 0.859547 0.331082
Si Si6 0.185315 0.668880 0.750000
Si Si7 0.630336 0.040396 0.681708
Si Si8 0.333334 0.666668 0.392589
O O1 0.219995 0.697678 0.512649
O O2 0.333334 0.666667 0.445614
O O3 0.687804 0.685886 0.039628
O O4 0.500000 0.500000 0.000000
O O5 0.697350 0.648564 0.951072
O O6 0.103960 0.226199 0.402355
O O7 0.008264 0.363209 0.370785
O O8 0.856209 0.131021 0.408553
O O9 0.334104 0.019924 0.641371
O O10 0.464463 0.901340 0.308438
O O11 0.610361 0.773127 0.306183
O O12 0.471706 0.763196 0.371574
O O13 0.212722 0.546978 0.750000
O O14 0.094656 0.662099 0.708351
#
# Coordination Sequence:
#
# PCOD9582050 Si02
#       8
#     4  12  12  12  12   6  12   4
#     4  12  21  36  54  78 118 158 214 276 330 378
#     4  12  24  37  55  84 120 168 217 270 326 383
#     4  11  24  38  60  88 124 169 218 271 320 399
#     4  11  21  37  57  83 124 165 211 260 320 378
#     4   9  19  35  67  95 119 160 210 277 312 374
#     4  10  26  46  66  94 142 180 194 256 334 404
#     4  10  22  42  67  99 128 164 223 265 337 383
#     4   9  15  33  57  88 121 153 196 268 330 354
#
# _framework density 20.302194
#
# number of rings (size 3 to 8) (size 9 to 14) (size 15 to 20)
#    0.162    1.297    1.622    4.541    4.541    0.649 
#    0.000    1.622    0.000    0.000    0.000    0.000 
#    0.000    0.000    0.000    0.000    0.000    0.000 
#
# Total GULP energy -412544.042855 kJ/mol
# GULP energy per Si atom -5574.919498 kJ/mol
# Density = 2.025599 g / cm^3
# Si number density = 20.302194 Si / 1000 Ang^3
#
#
#
# Elastic Constant Matrix: (Units=GPa)
#
#
# Indices 1 2 3 4 5 6 
#
# 1 80.5757 9.6040 11.3871 0.0000 0.0000 0.0000
# 2 9.6040 80.5758 11.3873 0.0000 0.0000 0.0003
# 3 11.3871 11.3873 61.4690 0.0000 0.0000 0.0001
# 4 0.0000 0.0000 0.0000 19.2770 0.0000 0.0000
# 5 0.0000 0.0000 0.0000 0.0000 19.2770 0.0000
# 6 0.0000 0.0003 0.0001 0.0000 0.0000 35.4858
#
#
#
# Elastic Compliance Matrix: (Units=1/GPa)
#
#
# Indices 1 2 3 4 5 6 
#
# 1 0.012862 -0.001228 -0.002155 0.000000 0.000000 0.000000
# 2 -0.001228 0.012862 -0.002155 0.000000 0.000000 0.000000
# 3 -0.002155 -0.002155 0.017067 0.000000 0.000000 0.000000
# 4 0.000000 0.000000 0.000000 0.051875 0.000000 0.000000
# 5 0.000000 0.000000 0.000000 0.000000 0.051875 0.000000
# 6 0.000000 0.000000 0.000000 0.000000 0.000000 0.028180
#
#
# Mechanical properties :
#
#
# Convention : Reuss Voigt Hill
#
# Bulk Modulus (GPa) = 31.53282 31.93081 31.73181
# Shear Modulus (GPa) = 25.46223 27.49075 26.47649
#
# Velocity S-wave (km/s) = 3.54526 3.68377 3.61518
# Velocity P-wave (km/s) = 5.68541 5.81855 5.75236
#
# Compressibility (1/GPa) = 0.03171299
#
# Stress axis : x y z
#
# Youngs Moduli (GPa) = 77.75037 77.75045 58.59325
#
# Poissons Ratio (x) = 0.09551 0.12627
# Poissons Ratio (y) = 0.09551 0.12627
# Poissons Ratio (z) = 0.16756 0.16756
#
# Static dielectric constant tensor:
#      x y z
#    x 1.746140 0.000000 0.000000 
#    y 0.000000 1.746140 0.000000 
#    z 0.000000 0.000000 1.758000 
# 
# From -- ./inp_files/4533.got.cif
#   From: 2010.05.17/outbox.cif.g08.bks.cpg/sg176_3_cif.got.tgz:4533.got - 2010.06.03 11:36:45.
