data_PCOD9582526
_publ_section_title
;
Structure prediction by ZEFSAII (Michael W. Deem and Ramdas Pophale) SiO2 
 PCOD9582526
Probable space group: P 61 2 2
;
_chemical_formula_sum "Si O2"
_cell_formula_units_Z 60
_cell_length_a 11.020784
_cell_length_b 11.020784
_cell_length_c 32.782638
_cell_angle_alpha 90.000000
_cell_angle_beta 90.000000
_cell_angle_gamma 120.000000
_cell_volume 3448.256082
_symmetry_space_group_name_H-M "P 61 2 2"
_symmetry_group_IT_number 178
_symmetry_cell_setting 'hexagonal'
loop_
_space_group_symop_operation_xyz
x,y,z
x-y,x,1/6+z
-y,x-y,1/3+z
-x,-y,1/2+z
-x+y,-x,2/3+z
y,-x+y,5/6+z
x-y,-y,-z
-x,-x+y,2/3-z
y,x,1/3-z
-y,-x,5/6-z
-x+y,y,1/2-z
x,x-y,1/6-z
loop_
_atom_site_type_symbol
_atom_site_label
_atom_site_fract_x
_atom_site_fract_y
_atom_site_fract_z
Si Si1 0.425600 0.837532 0.438244
Si Si2 0.101964 0.449377 0.118706
Si Si3 0.783435 0.150399 0.001372
Si Si4 0.547589 0.570832 0.303483
Si Si5 0.815138 0.263237 0.090742
O O1 0.297702 0.702299 0.416667
O O2 0.533027 0.788571 0.453992
O O3 0.349200 0.869675 0.474894
O O4 0.482300 0.955067 0.402986
O O5 0.113477 0.556739 0.083334
O O6 0.052287 0.492393 0.159796
O O7 0.971089 0.303250 0.104385
O O8 0.774189 0.182408 0.048321
O O9 0.916866 0.291406 0.983837
O O10 0.775123 0.000000 0.000000
O O11 0.533360 0.703312 0.291037
O O12 0.813922 0.406961 0.083334
#
# Coordination Sequence:
#
# PCOD9582526 Si02
#       5
#    12  12  12  12  12
#     4   9  20  34  54  80 113 147 184 239 290 334
#     4  10  20  33  53  81 112 144 190 236 283 339
#     4  11  20  36  54  84 113 147 193 235 291 347
#     4  11  21  35  57  84 117 151 190 242 294 339
#     4  11  21  35  57  85 115 151 191 241 290 346
#
# _framework density 17.400099999999998
#
# number of rings (size 3 to 8) (size 9 to 14) (size 15 to 20)
#    0.000    1.600    6.000    1.200    5.600    0.000 
#    0.000    0.000    0.000    1.200    5.200    0.000 
#    0.000    0.000    0.000    0.000    0.000    0.000 
#
# Total GULP energy -334242.715969 kJ/mol
# GULP energy per Si atom -5570.711933 kJ/mol
# Density = 1.736050 g / cm^3
# Si number density = 17.400100 Si / 1000 Ang^3
#
#
#
# Elastic Constant Matrix: (Units=GPa)
#
#
# Indices 1 2 3 4 5 6 
#
# 1 62.3441 22.1446 18.5914 0.0000 0.0000 0.0000
# 2 22.1446 62.3441 18.5914 0.0000 0.0000 0.0000
# 3 18.5914 18.5914 80.2273 0.0000 0.0000 0.0000
# 4 0.0000 0.0000 0.0000 3.4996 0.0000 0.0000
# 5 0.0000 0.0000 0.0000 0.0000 3.4996 0.0000
# 6 0.0000 0.0000 0.0000 0.0000 0.0000 20.0998
#
#
#
# Elastic Compliance Matrix: (Units=1/GPa)
#
#
# Indices 1 2 3 4 5 6 
#
# 1 0.019028 -0.005848 -0.003054 0.000000 0.000000 0.000000
# 2 -0.005848 0.019028 -0.003054 0.000000 0.000000 0.000000
# 3 -0.003054 -0.003054 0.013880 0.000000 0.000000 0.000000
# 4 0.000000 0.000000 0.000000 0.285743 0.000000 0.000000
# 5 0.000000 0.000000 0.000000 0.000000 0.285743 0.000000
# 6 0.000000 0.000000 0.000000 0.000000 0.000000 0.049752
#
#
# Mechanical properties :
#
#
# Convention : Reuss Voigt Hill
#
# Bulk Modulus (GPa) = 35.68472 35.95225 35.81849
# Shear Modulus (GPa) = 7.07786 15.12568 11.10177
#
# Velocity S-wave (km/s) = 2.01905 2.95157 2.52866
# Velocity P-wave (km/s) = 5.09787 5.68530 5.39958
#
# Compressibility (1/GPa) = 0.02802320
#
# Stress axis : x y z
#
# Youngs Moduli (GPa) = 52.55414 52.55414 72.04533
#
# Poissons Ratio (x) = 0.30733 0.22005
# Poissons Ratio (y) = 0.30733 0.22005
# Poissons Ratio (z) = 0.16051 0.16051
#
# Static dielectric constant tensor:
#      x y z
#    x 1.613780 0.000000 0.000000 
#    y 0.000000 1.613780 0.000000 
#    z 0.000000 0.000000 1.605880 
# 
# From -- ./inp_files/9416.got.cif
#   From: 2010.05.17/outbox.cif.g08.bks.cpg/sg178_5_cif.got.tgz:9416.got - 2010.05.20 11:30:59.
