data_PCOD9582264
_publ_section_title
;
Structure prediction by ZEFSAII (Michael W. Deem and Ramdas Pophale) SiO2 
 PCOD9582264
Probable space group: P 6 2 2
;
_chemical_formula_sum "Si O2"
_cell_formula_units_Z 72
_cell_length_a 13.967301
_cell_length_b 13.967301
_cell_length_c 18.820067
_cell_angle_alpha 90.000000
_cell_angle_beta 90.000000
_cell_angle_gamma 120.000000
_cell_volume 3179.631434
_symmetry_space_group_name_H-M "P 6 2 2"
_symmetry_group_IT_number 177
_symmetry_cell_setting 'hexagonal'
loop_
_space_group_symop_operation_xyz
x,y,z
x-y,x,z
-y,x-y,z
-x,-y,z
-x+y,-x,z
y,-x+y,z
x-y,-y,-z
-x,-x+y,-z
y,x,-z
-y,-x,-z
-x+y,y,-z
x,x-y,-z
loop_
_atom_site_type_symbol
_atom_site_label
_atom_site_fract_x
_atom_site_fract_y
_atom_site_fract_z
Si Si1 0.813014 0.049895 0.405402
Si Si2 0.595118 0.128813 0.671752
Si Si3 0.239204 0.042845 0.764698
Si Si4 0.126538 0.668845 0.971877
Si Si5 0.380489 0.897545 0.188532
Si Si6 0.787833 0.258950 0.580679
O O1 0.815398 0.043786 0.320085
O O2 0.729883 0.092071 0.424596
O O3 0.931590 0.145744 0.430913
O O4 0.577941 0.163570 0.751146
O O5 0.714357 0.161145 0.638773
O O6 0.563119 0.194788 0.617030
O O7 0.500000 0.000000 0.669248
O O8 0.221778 0.143690 0.791431
O O9 0.362148 0.063672 0.778482
O O10 0.148601 0.672306 0.887445
O O11 0.209787 0.790214 0.000000
O O12 0.155657 0.577829 0.000000
O O13 0.000000 0.623106 0.000000
O O14 0.500000 0.000000 0.169198
O O15 0.750570 0.249431 0.500000
#
# Coordination Sequence:
#
# PCOD9582264 Si02
#       6
#    12  12  12  12  12  12
#     4  10  21  39  62  95 131 174 224 282 349 427
#     4  11  26  44  68  96 132 176 239 294 362 427
#     4  10  22  40  69 104 144 184 234 289 355 419
#     4  11  25  48  72 108 151 191 240 287 367 442
#     4  11  24  42  72 104 143 187 237 299 348 429
#     4  12  25  43  65  95 133 179 234 296 363 434
#
# _framework density 22.644134000000001
#
# number of rings (size 3 to 8) (size 9 to 14) (size 15 to 20)
#    0.000    1.167    3.333    2.333    9.333    6.000 
#    0.000    0.000    0.000    1.833    0.000    0.000 
#    0.000    0.000    0.000    0.000    0.000    0.000 
#
# Total GULP energy -402055.059042 kJ/mol
# GULP energy per Si atom -5584.098042 kJ/mol
# Density = 2.259259 g / cm^3
# Si number density = 22.644134 Si / 1000 Ang^3
#
#
#
# Elastic Constant Matrix: (Units=GPa)
#
#
# Indices 1 2 3 4 5 6 
#
# 1 86.2330 25.4310 23.1140 0.0000 0.0000 0.0000
# 2 25.4310 86.2330 23.1140 0.0000 0.0000 0.0000
# 3 23.1140 23.1140 143.3128 0.0000 0.0000 0.0000
# 4 0.0000 0.0000 0.0000 67.6931 0.0000 0.0000
# 5 0.0000 0.0000 0.0000 0.0000 67.6931 0.0000
# 6 0.0000 0.0000 0.0000 0.0000 0.0000 30.4010
#
#
#
# Elastic Compliance Matrix: (Units=1/GPa)
#
#
# Indices 1 2 3 4 5 6 
#
# 1 0.013021 -0.003425 -0.001548 0.000000 0.000000 0.000000
# 2 -0.003425 0.013021 -0.001548 0.000000 0.000000 0.000000
# 3 -0.001548 -0.001548 0.007477 0.000000 0.000000 0.000000
# 4 0.000000 0.000000 0.000000 0.014773 0.000000 0.000000
# 5 0.000000 0.000000 0.000000 0.000000 0.014773 0.000000
# 6 0.000000 0.000000 0.000000 0.000000 0.000000 0.032894
#
#
# Mechanical properties :
#
#
# Convention : Reuss Voigt Hill
#
# Bulk Modulus (GPa) = 48.83168 51.01077 49.92123
# Shear Modulus (GPa) = 43.16806 49.43210 46.30008
#
# Velocity S-wave (km/s) = 4.37093 4.67733 4.52672
# Velocity P-wave (km/s) = 6.86186 7.19346 7.02961
#
# Compressibility (1/GPa) = 0.02047851
#
# Stress axis : x y z
#
# Youngs Moduli (GPa) = 76.79607 76.79607 133.74376
#
# Poissons Ratio (x) = 0.26305 0.20700
# Poissons Ratio (y) = 0.26305 0.20700
# Poissons Ratio (z) = 0.11886 0.11886
#
# Static dielectric constant tensor:
#      x y z
#    x 1.857050 0.000000 0.000000 
#    y 0.000000 1.857050 0.000000 
#    z 0.000000 0.000000 1.877020 
# 
# From -- ./inp_files/2837.got.cif
#   From: 2010.05.17/outbox.cif.g08.bks.cpg/sg177_2_cif.got.tgz:2837.got - 2010.05.20 11:28:44.
