data_PCOD9582032
_publ_section_title
;
Structure prediction by ZEFSAII (Michael W. Deem and Ramdas Pophale) SiO2 
 PCOD9582032
Probable space group: P 63/M
;
_chemical_formula_sum "Si O2"
_cell_formula_units_Z 66
_cell_length_a 20.942335
_cell_length_b 20.942335
_cell_length_c 8.813818
_cell_angle_alpha 90.000000
_cell_angle_beta 90.000000
_cell_angle_gamma 120.000000
_cell_volume 3347.687532
_symmetry_space_group_name_H-M "P 63/M"
_symmetry_group_IT_number 176
_symmetry_cell_setting 'hexagonal'
loop_
_space_group_symop_operation_xyz
x,y,z
x-y,x,1/2+z
-y,x-y,z
-x,-y,1/2+z
-x+y,-x,z
y,-x+y,1/2+z
-x,-y,-z
-x+y,-x,1/2-z
y,-x+y,-z
x,y,1/2-z
x-y,x,-z
-y,x-y,1/2-z
loop_
_atom_site_type_symbol
_atom_site_label
_atom_site_fract_x
_atom_site_fract_y
_atom_site_fract_z
Si Si1 0.277611 0.255937 0.582153
Si Si2 0.833901 0.523097 0.250000
Si Si3 0.906635 0.326531 0.503075
Si Si4 0.237507 0.817333 0.421917
Si Si5 0.005704 0.437640 0.750000
Si Si6 0.530719 0.128118 0.250000
Si Si7 0.864179 0.859358 0.926509
O O1 0.244910 0.229046 0.750000
O O2 0.308056 0.342998 0.573351
O O3 0.344654 0.239917 0.564297
O O4 0.213950 0.212819 0.461022
O O5 0.810119 0.538180 0.415948
O O6 0.923481 0.573846 0.250000
O O7 0.821905 0.440477 0.250000
O O8 0.844906 0.251822 0.579710
O O9 0.864622 0.353170 0.391696
O O10 0.954820 0.396143 0.609272
O O11 0.269685 0.818821 0.250000
O O12 0.044765 0.525915 0.750000
O O13 0.882277 0.864487 0.750000
O O14 0.928436 0.857555 0.020906
#
# Coordination Sequence:
#
# PCOD9582032 Si02
#       7
#    12   6  12  12   6   6  12
#     4  11  23  39  61  96 134 170 215 271 336 393
#     4  10  23  43  64  93 139 176 214 265 347 385
#     4  12  21  41  66  99 135 172 224 273 335 407
#     4  11  24  40  65  98 140 179 221 273 332 407
#     4  10  22  38  63  98 139 168 214 275 343 391
#     4  10  23  41  65 101 128 176 220 280 340 406
#     4  12  26  43  64  85 121 170 226 275 326 384
#
# _framework density 19.715102000000002
#
# number of rings (size 3 to 8) (size 9 to 14) (size 15 to 20)
#    0.545    0.364    3.636    4.000    2.545    1.455 
#    1.636    0.000    0.000    2.909    0.000    0.000 
#    0.000    0.000    0.000    0.000    0.000    0.000 
#
# Total GULP energy -367915.399886 kJ/mol
# GULP energy per Si atom -5574.475756 kJ/mol
# Density = 1.967023 g / cm^3
# Si number density = 19.715102 Si / 1000 Ang^3
#
#
#
# Elastic Constant Matrix: (Units=GPa)
#
#
# Indices 1 2 3 4 5 6 
#
# 1 32.4316 0.4188 8.0241 0.0000 0.0000 0.0000
# 2 0.4188 32.4316 8.0241 0.0000 0.0000 0.0000
# 3 8.0241 8.0241 103.6944 0.0000 0.0000 0.0000
# 4 0.0000 0.0000 0.0000 3.9700 0.0000 0.0000
# 5 0.0000 0.0000 0.0000 0.0000 3.9700 0.0000
# 6 0.0000 0.0000 0.0000 0.0000 0.0000 16.0064
#
#
#
# Elastic Compliance Matrix: (Units=1/GPa)
#
#
# Indices 1 2 3 4 5 6 
#
# 1 0.031437 0.000200 -0.002448 0.000000 0.000000 0.000000
# 2 0.000200 0.031437 -0.002448 0.000000 0.000000 0.000000
# 3 -0.002448 -0.002448 0.010023 0.000000 0.000000 0.000000
# 4 0.000000 0.000000 0.000000 0.251889 0.000000 0.000000
# 5 0.000000 0.000000 0.000000 0.000000 0.251889 0.000000
# 6 0.000000 0.000000 0.000000 0.000000 0.000000 0.062475
#
#
# Mechanical properties :
#
#
# Convention : Reuss Voigt Hill
#
# Bulk Modulus (GPa) = 15.74707 22.38799 19.06753
# Shear Modulus (GPa) = 7.46591 14.92865 11.19728
#
# Velocity S-wave (km/s) = 1.94811 2.75475 2.38577
# Velocity P-wave (km/s) = 3.61453 4.63666 4.15713
#
# Compressibility (1/GPa) = 0.06350389
#
# Stress axis : x y z
#
# Youngs Moduli (GPa) = 31.80943 31.80943 99.77443
#
# Poissons Ratio (x) = -0.00635 0.24426
# Poissons Ratio (y) = -0.00635 0.24426
# Poissons Ratio (z) = 0.07787 0.07787
#
# Static dielectric constant tensor:
#      x y z
#    x 1.661520 0.000000 0.000000 
#    y 0.000000 1.661520 0.000000 
#    z 0.000000 0.000000 1.769710 
# 
# From -- ./inp_files/1063.got.cif
#   From: 2010.05.17/outbox.cif.g08.bks.cpg/sg176_1_cif.got.tgz:1063.got - 2010.06.03 11:36:45.
