data_PCOD9582948
_publ_section_title
;
Structure prediction by ZEFSAII (Michael W. Deem and Ramdas Pophale) SiO2 
 PCOD9582948
Probable space group: P 61 2 2
;
_chemical_formula_sum "Si O2"
_cell_formula_units_Z 60
_cell_length_a 11.786977
_cell_length_b 11.786977
_cell_length_c 25.001761
_cell_angle_alpha 90.000000
_cell_angle_beta 90.000000
_cell_angle_gamma 120.000000
_cell_volume 3008.195818
_symmetry_space_group_name_H-M "P 61 2 2"
_symmetry_group_IT_number 178
_symmetry_cell_setting 'hexagonal'
loop_
_space_group_symop_operation_xyz
x,y,z
x-y,x,1/6+z
-y,x-y,1/3+z
-x,-y,1/2+z
-x+y,-x,2/3+z
y,-x+y,5/6+z
x-y,-y,-z
-x,-x+y,2/3-z
y,x,1/3-z
-y,-x,5/6-z
-x+y,y,1/2-z
x,x-y,1/6-z
loop_
_atom_site_type_symbol
_atom_site_label
_atom_site_fract_x
_atom_site_fract_y
_atom_site_fract_z
Si Si1 0.128351 0.380465 0.947969
Si Si2 0.330407 0.811093 0.868288
Si Si3 0.853358 0.247061 0.004758
Si Si4 0.566177 0.431040 0.635023
Si Si5 0.380098 0.903587 0.153964
O O1 0.158209 0.530392 0.939287
O O2 0.168945 0.337749 0.893517
O O3 0.232379 0.408379 0.994197
O O4 0.983188 0.286246 0.970355
O O5 0.228383 0.771618 0.916667
O O6 0.260382 0.689865 0.828207
O O7 0.370749 0.944719 0.838648
O O8 0.717461 0.164631 0.972890
O O9 0.869233 0.389767 0.018172
O O10 0.523178 0.523178 0.666667
O O11 0.600978 0.479548 0.574514
#
# Coordination Sequence:
#
# PCOD9582948 Si02
#       5
#    12  12  12  12  12
#     4  11  23  41  62  93 136 172 211 269 330 390
#     4  11  20  39  60  93 135 165 212 278 329 392
#     4  11  23  41  62  92 134 170 211 269 326 391
#     4  12  22  39  65  96 128 166 220 272 335 387
#     4  11  23  36  64  94 127 177 216 272 330 396
#
# _framework density 19.945509999999999
#
# number of rings (size 3 to 8) (size 9 to 14) (size 15 to 20)
#    0.000    0.800    6.000    2.400    2.800    0.000 
#    0.000    0.000    0.000    3.600    0.000    0.000 
#    0.000    0.000    0.000    0.000    0.000    0.000 
#
# Total GULP energy -335157.432704 kJ/mol
# GULP energy per Si atom -5585.957212 kJ/mol
# Density = 1.990011 g / cm^3
# Si number density = 19.945510 Si / 1000 Ang^3
#
#
#
# Elastic Constant Matrix: (Units=GPa)
#
#
# Indices 1 2 3 4 5 6 
#
# 1 86.4953 29.5770 47.7756 0.0000 0.0000 0.0000
# 2 29.5770 86.4953 47.7756 0.0000 0.0000 0.0000
# 3 47.7756 47.7756 126.5506 0.0000 0.0000 0.0000
# 4 0.0000 0.0000 0.0000 28.4227 0.0000 0.0000
# 5 0.0000 0.0000 0.0000 0.0000 28.4227 0.0000
# 6 0.0000 0.0000 0.0000 0.0000 0.0000 28.4591
#
#
#
# Elastic Compliance Matrix: (Units=1/GPa)
#
#
# Indices 1 2 3 4 5 6 
#
# 1 0.015035 -0.002534 -0.004719 0.000000 0.000000 0.000000
# 2 -0.002534 0.015035 -0.004719 0.000000 0.000000 0.000000
# 3 -0.004719 -0.004719 0.011465 0.000000 0.000000 0.000000
# 4 0.000000 0.000000 0.000000 0.035183 0.000000 0.000000
# 5 0.000000 0.000000 0.000000 0.000000 0.035183 0.000000
# 6 0.000000 0.000000 0.000000 0.000000 0.000000 0.035138
#
#
# Mechanical properties :
#
#
# Convention : Reuss Voigt Hill
#
# Bulk Modulus (GPa) = 56.85372 61.08862 58.97117
# Shear Modulus (GPa) = 28.27307 28.68844 28.48076
#
# Velocity S-wave (km/s) = 3.76908 3.79666 3.78289
# Velocity P-wave (km/s) = 6.89258 7.06497 6.97931
#
# Compressibility (1/GPa) = 0.01758900
#
# Stress axis : x y z
#
# Youngs Moduli (GPa) = 66.51345 66.51345 87.22150
#
# Poissons Ratio (x) = 0.16858 0.41160
# Poissons Ratio (y) = 0.16858 0.41160
# Poissons Ratio (z) = 0.31388 0.31388
#
# Static dielectric constant tensor:
#      x y z
#    x 1.716870 0.000000 0.000000 
#    y 0.000000 1.716870 0.000000 
#    z 0.000000 0.000000 1.751970 
# 
# From -- ./inp_files/8769.got.cif
#   From: 2010.05.17/outbox.cif.g08.bks.cpg/sg178_5_cif.got.tgz:8769.got - 2010.05.20 11:30:59.
