data_PCOD9582366
_publ_section_title
;
Structure prediction by ZEFSAII (Michael W. Deem and Ramdas Pophale) SiO2 
 PCOD9582366
Probable space group: P 61 2 2
;
_chemical_formula_sum "Si O2"
_cell_formula_units_Z 84
_cell_length_a 14.545537
_cell_length_b 14.545537
_cell_length_c 23.014398
_cell_angle_alpha 90.000000
_cell_angle_beta 90.000000
_cell_angle_gamma 120.000000
_cell_volume 4216.865701
_symmetry_space_group_name_H-M "P 61 2 2"
_symmetry_group_IT_number 178
_symmetry_cell_setting 'hexagonal'
loop_
_space_group_symop_operation_xyz
x,y,z
x-y,x,1/6+z
-y,x-y,1/3+z
-x,-y,1/2+z
-x+y,-x,2/3+z
y,-x+y,5/6+z
x-y,-y,-z
-x,-x+y,2/3-z
y,x,1/3-z
-y,-x,5/6-z
-x+y,y,1/2-z
x,x-y,1/6-z
loop_
_atom_site_type_symbol
_atom_site_label
_atom_site_fract_x
_atom_site_fract_y
_atom_site_fract_z
Si Si1 0.530554 0.089535 0.870626
Si Si2 0.383183 0.314930 0.612308
Si Si3 0.734391 0.246229 0.809781
Si Si4 0.369808 0.441759 0.379025
Si Si5 0.783623 0.077271 0.761025
Si Si6 0.997998 0.166554 0.951364
Si Si7 0.256650 0.683822 0.796746
O O1 0.604652 0.044322 0.893298
O O2 0.609330 0.173927 0.822979
O O3 0.518985 0.148672 0.926385
O O4 0.423509 0.003854 0.842412
O O5 0.381141 0.381141 0.666667
O O6 0.445406 0.257260 0.636326
O O7 0.265244 0.234973 0.593057
O O8 0.766926 0.180734 0.765793
O O9 0.751506 0.365152 0.813293
O O10 0.467366 0.532635 0.416667
O O11 0.310036 0.331849 0.414131
O O12 0.298160 0.491642 0.360362
O O13 0.826961 0.053135 0.821000
O O14 0.874761 0.101259 0.714118
O O15 0.945136 0.054865 0.916667
O O16 0.338860 0.677719 0.750000
#
# Coordination Sequence:
#
# PCOD9582366 Si02
#       7
#    12  12  12  12  12  12  12
#     4  10  19  34  53  73 113 157 196 231 297 362
#     4  11  17  30  55  80 110 152 194 234 299 354
#     4  10  17  34  52  78 110 164 191 235 286 374
#     4  11  21  37  51  82 118 156 198 253 299 366
#     4  12  24  34  60  87 129 157 205 245 314 367
#     4  12  21  37  55  88 126 156 190 250 304 381
#     4   8  19  33  55  72 109 158 197 232 302 355
#
# _framework density 19.920009
#
# number of rings (size 3 to 8) (size 9 to 14) (size 15 to 20)
#    0.000    1.429    5.714    1.714    2.000    0.000 
#    2.571    1.429    0.000    2.571    0.000    8.000 
#    0.000    0.000    0.000    0.000    0.000    0.000 
#
# Total GULP energy -468034.045013 kJ/mol
# GULP energy per Si atom -5571.833869 kJ/mol
# Density = 1.987467 g / cm^3
# Si number density = 19.920009 Si / 1000 Ang^3
#
#
#
# Elastic Constant Matrix: (Units=GPa)
#
#
# Indices 1 2 3 4 5 6 
#
# 1 70.3479 38.8787 9.9559 0.0000 0.0000 0.0000
# 2 38.8787 70.3479 9.9559 0.0000 0.0000 0.0000
# 3 9.9559 9.9559 29.0184 0.0000 0.0000 0.0000
# 4 0.0000 0.0000 0.0000 19.0351 0.0000 0.0000
# 5 0.0000 0.0000 0.0000 0.0000 19.0351 0.0000
# 6 0.0000 0.0000 0.0000 0.0000 0.0000 15.7346
#
#
#
# Elastic Compliance Matrix: (Units=1/GPa)
#
#
# Indices 1 2 3 4 5 6 
#
# 1 0.020772 -0.011006 -0.003351 0.000000 0.000000 0.000000
# 2 -0.011006 0.020772 -0.003351 0.000000 0.000000 0.000000
# 3 -0.003351 -0.003351 0.036760 0.000000 0.000000 0.000000
# 4 0.000000 0.000000 0.000000 0.052534 0.000000 0.000000
# 5 0.000000 0.000000 0.000000 0.000000 0.052534 0.000000
# 6 0.000000 0.000000 0.000000 0.000000 0.000000 0.063554
#
#
# Mechanical properties :
#
#
# Convention : Reuss Voigt Hill
#
# Bulk Modulus (GPa) = 23.31561 31.92166 27.61863
# Shear Modulus (GPa) = 16.85565 18.15589 17.50577
#
# Velocity S-wave (km/s) = 2.91205 3.02228 2.96768
# Velocity P-wave (km/s) = 4.79966 5.31400 5.06337
#
# Compressibility (1/GPa) = 0.04288972
#
# Stress axis : x y z
#
# Youngs Moduli (GPa) = 48.14266 48.14266 27.20343
#
# Poissons Ratio (x) = 0.52983 0.09115
# Poissons Ratio (y) = 0.52983 0.09115
# Poissons Ratio (z) = 0.16131 0.16131
#
# Static dielectric constant tensor:
#      x y z
#    x 1.755870 0.000000 0.000000 
#    y 0.000000 1.755870 0.000000 
#    z 0.000000 0.000000 1.732590 
# 
# From -- ./inp_files/8322.got.cif
#   From: 2010.05.17/outbox.cif.g08.bks.cpg/sg178_5_cif.got.tgz:8322.got - 2010.05.20 11:30:59.
