data_PCOD9582082
_publ_section_title
;
Structure prediction by ZEFSAII (Michael W. Deem and Ramdas Pophale) SiO2 
 PCOD9582082
Probable space group: P 63/M
;
_chemical_formula_sum "Si O2"
_cell_formula_units_Z 54
_cell_length_a 11.405425
_cell_length_b 11.405425
_cell_length_c 23.787940
_cell_angle_alpha 90.000000
_cell_angle_beta 90.000000
_cell_angle_gamma 120.000000
_cell_volume 2679.849545
_symmetry_space_group_name_H-M "P 63/M"
_symmetry_group_IT_number 176
_symmetry_cell_setting 'hexagonal'
loop_
_space_group_symop_operation_xyz
x,y,z
x-y,x,1/2+z
-y,x-y,z
-x,-y,1/2+z
-x+y,-x,z
y,-x+y,1/2+z
-x,-y,-z
-x+y,-x,1/2-z
y,-x+y,-z
x,y,1/2-z
x-y,x,-z
-y,x-y,1/2-z
loop_
_atom_site_type_symbol
_atom_site_label
_atom_site_fract_x
_atom_site_fract_y
_atom_site_fract_z
Si Si1 0.278617 0.022621 0.930228
Si Si2 0.701296 0.077603 0.311614
Si Si3 0.184532 0.506824 0.250000
Si Si4 0.948912 0.371923 0.166172
Si Si5 0.976998 0.276876 0.052567
O O1 0.323117 0.012617 0.867187
O O2 0.140726 0.879078 0.938759
O O3 0.270563 0.158426 0.934604
O O4 0.352408 0.028040 0.989205
O O5 0.708654 0.023514 0.250000
O O6 0.575369 0.104150 0.313868
O O7 0.841007 0.218602 0.318040
O O8 0.340629 0.546224 0.250000
O O9 0.093166 0.426840 0.196778
O O10 0.963239 0.369861 0.099264
#
# Coordination Sequence:
#
# PCOD9582082 Si02
#       5
#    12  12   6  12  12
#     4   9  19  35  58  83 113 152 194 246 300 366
#     4  11  21  36  58  84 111 156 201 244 302 351
#     4  10  24  38  58  88 120 160 192 238 306 364
#     4  11  22  38  60  86 118 158 205 253 292 364
#     4   9  19  36  58  84 114 152 197 247 301 357
#
# _framework density 20.150383999999999
#
# number of rings (size 3 to 8) (size 9 to 14) (size 15 to 20)
#    0.222    1.778    2.222    0.889    3.111    2.667 
#    0.000    0.000    0.000    0.000    0.000    0.000 
#    0.000    0.000    0.000    0.000    0.000    0.000 
#
# Total GULP energy -300657.125203 kJ/mol
# GULP energy per Si atom -5567.724541 kJ/mol
# Density = 2.010452 g / cm^3
# Si number density = 20.150384 Si / 1000 Ang^3
#
#
#
# Elastic Constant Matrix: (Units=GPa)
#
#
# Indices 1 2 3 4 5 6 
#
# 1 38.0856 -0.5168 25.5320 0.0000 0.0000 0.0000
# 2 -0.5168 38.0856 25.5320 0.0000 0.0000 0.0000
# 3 25.5320 25.5320 215.5129 0.0000 0.0000 0.0000
# 4 0.0000 0.0000 0.0000 -1.5815 0.0000 0.0000
# 5 0.0000 0.0000 0.0000 0.0000 -1.5815 0.0000
# 6 0.0000 0.0000 0.0000 0.0000 0.0000 19.3012
#
#
#
# Elastic Compliance Matrix: (Units=1/GPa)
#
#
# Indices 1 2 3 4 5 6 
#
# 1 0.028816 0.002911 -0.003759 0.000000 0.000000 0.000000
# 2 0.002911 0.028816 -0.003759 0.000000 0.000000 0.000000
# 3 -0.003759 -0.003759 0.005531 0.000000 0.000000 0.000000
# 4 0.000000 0.000000 0.000000 -0.632307 0.000000 0.000000
# 5 0.000000 0.000000 0.000000 0.000000 -0.632307 0.000000
# 6 0.000000 0.000000 0.000000 0.000000 0.000000 0.051810
#
#
# Mechanical properties :
#
#
# Convention : Reuss Voigt Hill
#
# Bulk Modulus (GPa) = 18.53593 43.64205 31.08899
# Shear Modulus (GPa) = -4.45457 19.30342 7.42443
#
# Velocity S-wave (km/s) = -1.48844 3.09846 1.92159
# Velocity P-wave (km/s) = 2.50296 5.87417 4.51501
#
# Compressibility (1/GPa) = 0.05394929
#
# Stress axis : x y z
#
# Youngs Moduli (GPa) = 34.70304 34.70304 180.80957
#
# Poissons Ratio (x) = -0.10101 0.67961
# Poissons Ratio (y) = -0.10101 0.67961
# Poissons Ratio (z) = 0.13044 0.13044
#
# Static dielectric constant tensor:
#      x y z
#    x 1.695730 0.000000 0.000000 
#    y 0.000000 1.695730 0.000000 
#    z 0.000000 0.000000 1.787440 
# 
# From -- ./inp_files/4004.got.cif
#   From: 2010.05.17/outbox.cif.g08.bks.cpg/sg176_3_cif.got.tgz:4004.got - 2010.06.03 11:36:45.
