data_PCOD9582481
_publ_section_title
;
Structure prediction by ZEFSAII (Michael W. Deem and Ramdas Pophale) SiO2 
 PCOD9582481
Probable space group: P 61 2 2
;
_chemical_formula_sum "Si O2"
_cell_formula_units_Z 36
_cell_length_a 13.040769
_cell_length_b 13.040769
_cell_length_c 12.809290
_cell_angle_alpha 90.000000
_cell_angle_beta 90.000000
_cell_angle_gamma 120.000000
_cell_volume 1886.522954
_symmetry_space_group_name_H-M "P 61 2 2"
_symmetry_group_IT_number 178
_symmetry_cell_setting 'hexagonal'
loop_
_space_group_symop_operation_xyz
x,y,z
x-y,x,1/6+z
-y,x-y,1/3+z
-x,-y,1/2+z
-x+y,-x,2/3+z
y,-x+y,5/6+z
x-y,-y,-z
-x,-x+y,2/3-z
y,x,1/3-z
-y,-x,5/6-z
-x+y,y,1/2-z
x,x-y,1/6-z
loop_
_atom_site_type_symbol
_atom_site_label
_atom_site_fract_x
_atom_site_fract_y
_atom_site_fract_z
Si Si1 0.866532 0.443100 0.844314
Si Si2 0.418158 0.064524 0.700853
Si Si3 0.267954 0.799209 0.673476
O O1 0.814683 0.375395 0.735364
O O2 0.000000 0.556350 0.833334
O O3 0.893505 0.356849 0.916798
O O4 0.778643 0.474870 0.906165
O O5 0.535241 0.070481 0.750000
O O6 0.398127 0.156958 0.764035
O O7 0.315471 0.930819 0.713834
#
# Coordination Sequence:
#
# PCOD9582481 Si02
#       3
#    12  12  12
#     4   9  19  35  54  80 110 142 181 221 269 325
#     4   9  19  32  50  78 109 143 179 220 268 321
#     4  10  19  35  53  80 113 145 183 221 268 322
#
# _framework density 19.082725
#
# number of rings (size 3 to 8) (size 9 to 14) (size 15 to 20)
#    0.000    2.667    0.000    1.000    0.000    8.000 
#    0.000   20.000    0.000    0.000    0.000   35.000 
#    0.000    0.000    0.000    0.000    0.000    0.000 
#
# Total GULP energy -200800.161497 kJ/mol
# GULP energy per Si atom -5577.782264 kJ/mol
# Density = 1.903929 g / cm^3
# Si number density = 19.082725 Si / 1000 Ang^3
#
#
#
# Elastic Constant Matrix: (Units=GPa)
#
#
# Indices 1 2 3 4 5 6 
#
# 1 106.8529 44.7201 38.1129 0.0000 0.0000 0.0000
# 2 44.7201 106.8529 38.1129 0.0000 0.0000 0.0000
# 3 38.1129 38.1129 68.1706 0.0000 0.0000 0.0000
# 4 0.0000 0.0000 0.0000 34.1045 0.0000 0.0000
# 5 0.0000 0.0000 0.0000 0.0000 34.1045 0.0000
# 6 0.0000 0.0000 0.0000 0.0000 0.0000 31.0664
#
#
#
# Elastic Compliance Matrix: (Units=1/GPa)
#
#
# Indices 1 2 3 4 5 6 
#
# 1 0.012636 -0.003458 -0.005131 0.000000 0.000000 0.000000
# 2 -0.003458 0.012636 -0.005131 0.000000 0.000000 0.000000
# 3 -0.005131 -0.005131 0.020407 0.000000 0.000000 0.000000
# 4 0.000000 0.000000 0.000000 0.029322 0.000000 0.000000
# 5 0.000000 0.000000 0.000000 0.000000 0.029322 0.000000
# 6 0.000000 0.000000 0.000000 0.000000 0.000000 0.032189
#
#
# Mechanical properties :
#
#
# Convention : Reuss Voigt Hill
#
# Bulk Modulus (GPa) = 54.83162 58.19645 56.51404
# Shear Modulus (GPa) = 29.40618 30.58379 29.99499
#
# Velocity S-wave (km/s) = 3.92980 4.00771 3.96894
# Velocity P-wave (km/s) = 7.02759 7.20963 7.11920
#
# Compressibility (1/GPa) = 0.01823765
#
# Stress axis : x y z
#
# Youngs Moduli (GPa) = 79.13732 79.13732 49.00366
#
# Poissons Ratio (x) = 0.27368 0.25145
# Poissons Ratio (y) = 0.27368 0.25145
# Poissons Ratio (z) = 0.40607 0.40607
#
# Static dielectric constant tensor:
#      x y z
#    x 1.673320 0.000000 0.000000 
#    y 0.000000 1.673320 0.000000 
#    z 0.000000 0.000000 1.809570 
# 
# From -- ./inp_files/5134.got.cif
#   From: 2010.05.17/outbox.cif.g08.bks.cpg/sg178_3_cif.got.tgz:5134.got - 2010.05.20 11:30:59.
