data_PCOD9582317
_publ_section_title
;
Structure prediction by ZEFSAII (Michael W. Deem and Ramdas Pophale) SiO2 
 PCOD9582317
Probable space group: P 6 2 2
;
_chemical_formula_sum "Si O2"
_cell_formula_units_Z 60
_cell_length_a 14.689795
_cell_length_b 14.689795
_cell_length_c 14.456641
_cell_angle_alpha 90.000000
_cell_angle_beta 90.000000
_cell_angle_gamma 120.000000
_cell_volume 2701.652570
_symmetry_space_group_name_H-M "P 6 2 2"
_symmetry_group_IT_number 177
_symmetry_cell_setting 'hexagonal'
loop_
_space_group_symop_operation_xyz
x,y,z
x-y,x,z
-y,x-y,z
-x,-y,z
-x+y,-x,z
y,-x+y,z
x-y,-y,-z
-x,-x+y,-z
y,x,-z
-y,-x,-z
-x+y,y,-z
x,x-y,-z
loop_
_atom_site_type_symbol
_atom_site_label
_atom_site_fract_x
_atom_site_fract_y
_atom_site_fract_z
Si Si1 0.087749 0.237890 0.704887
Si Si2 0.555296 0.446112 0.671012
Si Si3 0.040344 0.615376 0.134809
Si Si4 0.181710 0.333614 0.898703
Si Si5 0.780234 0.228834 0.391225
O O1 0.160106 0.190382 0.678830
O O2 0.111219 0.262189 0.814085
O O3 0.124916 0.346140 0.653631
O O4 0.500000 0.500000 0.616565
O O5 0.485096 0.404276 0.765069
O O6 0.544404 0.344806 0.622872
O O7 0.678406 0.529358 0.668770
O O8 0.142945 0.721812 0.098636
O O9 0.000000 0.500000 0.092780
O O10 0.938434 0.634301 0.123362
O O11 0.141766 0.283532 0.000000
O O12 0.784354 0.215647 0.500000
#
# Coordination Sequence:
#
# PCOD9582317 Si02
#       5
#    12  12  12  12  12
#     4  12  25  45  68 100 137 186 241 306 375 447
#     4  11  24  43  70 103 143 186 240 307 383 459
#     4  11  25  46  73 108 148 200 252 316 389 468
#     4  12  24  44  74 104 146 195 249 316 384 461
#     4  12  25  44  71 104 141 187 243 304 381 465
#
# _framework density 22.208629999999999
#
# number of rings (size 3 to 8) (size 9 to 14) (size 15 to 20)
#    0.000    0.400    4.000    5.400    0.000    5.600 
#    1.200    0.000    0.000    2.400    0.000    0.000 
#    0.000    0.000    0.000    0.000    0.000    0.000 
#
# Total GULP energy -334023.887370 kJ/mol
# GULP energy per Si atom -5567.064790 kJ/mol
# Density = 2.215808 g / cm^3
# Si number density = 22.208630 Si / 1000 Ang^3
#
#
#
# Elastic Constant Matrix: (Units=GPa)
#
#
# Indices 1 2 3 4 5 6 
#
# 1 111.0977 5.6483 4.7070 0.0000 0.0000 0.0000
# 2 5.6483 111.0977 4.7070 0.0000 0.0000 0.0000
# 3 4.7070 4.7070 114.3444 0.0000 0.0000 0.0000
# 4 0.0000 0.0000 0.0000 91.3290 0.0000 0.0000
# 5 0.0000 0.0000 0.0000 0.0000 91.3290 0.0000
# 6 0.0000 0.0000 0.0000 0.0000 0.0000 52.7247
#
#
#
# Elastic Compliance Matrix: (Units=1/GPa)
#
#
# Indices 1 2 3 4 5 6 
#
# 1 0.009039 -0.000445 -0.000354 0.000000 0.000000 0.000000
# 2 -0.000445 0.009039 -0.000354 0.000000 0.000000 0.000000
# 3 -0.000354 -0.000354 0.008775 0.000000 0.000000 0.000000
# 4 0.000000 0.000000 0.000000 0.010949 0.000000 0.000000
# 5 0.000000 0.000000 0.000000 0.000000 0.010949 0.000000
# 6 0.000000 0.000000 0.000000 0.000000 0.000000 0.018966
#
#
# Mechanical properties :
#
#
# Convention : Reuss Voigt Hill
#
# Bulk Modulus (GPa) = 40.73687 40.74049 40.73868
# Shear Modulus (GPa) = 63.93528 68.50837 66.22183
#
# Velocity S-wave (km/s) = 5.37131 5.56009 5.46652
# Velocity P-wave (km/s) = 7.53993 7.72035 7.63067
#
# Compressibility (1/GPa) = 0.02454779
#
# Stress axis : x y z
#
# Youngs Moduli (GPa) = 110.63563 110.63563 113.96487
#
# Poissons Ratio (x) = 0.04918 0.04032
# Poissons Ratio (y) = 0.04918 0.04032
# Poissons Ratio (z) = 0.03914 0.03914
#
# Static dielectric constant tensor:
#      x y z
#    x 1.756610 0.000000 0.000000 
#    y 0.000000 1.756610 0.000000 
#    z 0.000000 0.000000 1.912300 
# 
# From -- ./inp_files/2418.got.cif
#   From: 2010.05.17/outbox.cif.g08.bks.cpg/sg177_2_cif.got.tgz:2418.got - 2010.05.20 11:28:44.
