data_PCOD9582248
_publ_section_title
;
Structure prediction by ZEFSAII (Michael W. Deem and Ramdas Pophale) SiO2 
 PCOD9582248
Probable space group: P 6 2 2
;
_chemical_formula_sum "Si O2"
_cell_formula_units_Z 70
_cell_length_a 15.052197
_cell_length_b 15.052197
_cell_length_c 17.738698
_cell_angle_alpha 90.000000
_cell_angle_beta 90.000000
_cell_angle_gamma 120.000000
_cell_volume 3480.584317
_symmetry_space_group_name_H-M "P 6 2 2"
_symmetry_group_IT_number 177
_symmetry_cell_setting 'hexagonal'
loop_
_space_group_symop_operation_xyz
x,y,z
x-y,x,z
-y,x-y,z
-x,-y,z
-x+y,-x,z
y,-x+y,z
x-y,-y,-z
-x,-x+y,-z
y,x,-z
-y,-x,-z
-x+y,y,-z
x,x-y,-z
loop_
_atom_site_type_symbol
_atom_site_label
_atom_site_fract_x
_atom_site_fract_y
_atom_site_fract_z
Si Si1 0.452245 0.575177 0.787234
Si Si2 0.000000 0.685572 0.000000
Si Si3 0.529832 0.773132 0.691625
Si Si4 0.765010 0.842379 0.117098
Si Si5 0.509907 0.342283 0.947520
Si Si6 0.666668 0.333334 0.410663
Si Si7 0.757930 0.906944 0.706283
O O1 0.500000 0.500000 0.797246
O O2 0.522583 0.674656 0.735010
O O3 0.341637 0.512435 0.747133
O O4 0.440880 0.623403 0.865640
O O5 0.075137 0.679893 0.061444
O O6 0.914768 0.684848 0.056064
O O7 0.447938 0.728038 0.623996
O O8 0.646306 0.852800 0.668529
O O9 0.852366 0.813565 0.102255
O O10 0.733362 0.828726 0.203950
O O11 0.558770 0.441231 0.000000
O O12 0.523687 0.261844 0.000000
O O13 0.666668 0.333334 0.500000
O O14 0.810974 0.837800 0.691375
#
# Coordination Sequence:
#
# PCOD9582248 Si02
#       7
#    12   6  12  12  12   4  12
#     4  11  23  38  61  85 121 161 211 271 326 383
#     4  12  25  36  49  76 100 148 208 270 333 392
#     4  10  22  39  65  99 125 167 209 251 316 379
#     4  10  21  35  53  74 105 149 202 267 325 380
#     4  12  26  39  52  70 105 149 206 263 332 389
#     4   9  21  45  72 105 142 167 202 246 294 372
#     4  10  21  36  62  91 129 168 217 265 319 376
#
# _framework density 20.111567000000001
#
# number of rings (size 3 to 8) (size 9 to 14) (size 15 to 20)
#    0.000    1.371    0.000    5.743   12.000    1.371 
#    0.000    0.857    0.000   18.514    0.000    0.000 
#    0.000    1.371    0.000    0.000    0.000    0.000 
#
# Total GULP energy -390373.375336 kJ/mol
# GULP energy per Si atom -5576.762505 kJ/mol
# Density = 2.006579 g / cm^3
# Si number density = 20.111567 Si / 1000 Ang^3
#
#
#
# Elastic Constant Matrix: (Units=GPa)
#
#
# Indices 1 2 3 4 5 6 
#
# 1 99.0567 59.2912 39.9308 -0.0001 -0.0001 0.0001
# 2 59.2912 99.0566 39.9310 0.0000 -0.0001 0.0000
# 3 39.9308 39.9310 94.8782 -0.0003 0.0000 0.0002
# 4 -0.0001 0.0000 -0.0003 3.6579 0.0001 0.0000
# 5 -0.0001 -0.0001 0.0000 0.0001 3.6580 0.0001
# 6 0.0001 0.0000 0.0002 0.0000 0.0001 19.8830
#
#
#
# Elastic Compliance Matrix: (Units=1/GPa)
#
#
# Indices 1 2 3 4 5 6 
#
# 1 0.016582 -0.008565 -0.003374 0.000000 0.000000 0.000000
# 2 -0.008565 0.016582 -0.003374 -0.000001 0.000000 0.000000
# 3 -0.003374 -0.003374 0.013380 0.000001 0.000000 0.000000
# 4 0.000000 -0.000001 0.000001 0.273384 -0.000004 0.000000
# 5 0.000000 0.000000 0.000000 -0.000004 0.273376 -0.000001
# 6 0.000000 0.000000 0.000000 0.000000 -0.000001 0.050294
#
#
# Mechanical properties :
#
#
# Convention : Reuss Voigt Hill
#
# Bulk Modulus (GPa) = 62.82390 63.47751 63.15070
# Shear Modulus (GPa) = 7.35802 15.69566 11.52684
#
# Velocity S-wave (km/s) = 1.91482 2.79665 2.39664
# Velocity P-wave (km/s) = 6.01616 6.48533 6.25515
#
# Compressibility (1/GPa) = 0.01591751
#
# Stress axis : x y z
#
# Youngs Moduli (GPa) = 60.30586 60.30570 74.73929
#
# Poissons Ratio (x) = 0.51654 0.25217
# Poissons Ratio (y) = 0.51654 0.25217
# Poissons Ratio (z) = 0.20347 0.20347
#
# Static dielectric constant tensor:
#      x y z
#    x 2.173460 0.000000 0.000000 
#    y 0.000000 2.173460 0.000000 
#    z 0.000000 0.000000 1.671210 
# 
# From -- ./inp_files/2856.got.cif
#   From: 2010.05.17/outbox.cif.g08.bks.cpg/sg177_2_cif.got.tgz:2856.got - 2010.05.20 11:28:44.
