data_PCOD9582941
_publ_section_title
;
Structure prediction by ZEFSAII (Michael W. Deem and Ramdas Pophale) SiO2 
 PCOD9582941
Probable space group: P 61 2 2
;
_chemical_formula_sum "Si O2"
_cell_formula_units_Z 72
_cell_length_a 15.208554
_cell_length_b 15.208554
_cell_length_c 19.621900
_cell_angle_alpha 90.000000
_cell_angle_beta 90.000000
_cell_angle_gamma 120.000000
_cell_volume 3930.497624
_symmetry_space_group_name_H-M "P 61 2 2"
_symmetry_group_IT_number 178
_symmetry_cell_setting 'hexagonal'
loop_
_space_group_symop_operation_xyz
x,y,z
x-y,x,1/6+z
-y,x-y,1/3+z
-x,-y,1/2+z
-x+y,-x,2/3+z
y,-x+y,5/6+z
x-y,-y,-z
-x,-x+y,2/3-z
y,x,1/3-z
-y,-x,5/6-z
-x+y,y,1/2-z
x,x-y,1/6-z
loop_
_atom_site_type_symbol
_atom_site_label
_atom_site_fract_x
_atom_site_fract_y
_atom_site_fract_z
Si Si1 0.370419 0.894479 0.696897
Si Si2 0.619166 0.444705 0.736338
Si Si3 0.476929 0.134257 0.712096
Si Si4 0.593964 0.390129 0.583030
Si Si5 0.688836 0.948072 0.573545
Si Si6 0.749438 0.146944 0.650375
O O1 0.434459 0.868918 0.750000
O O2 0.388912 0.857213 0.624749
O O3 0.250751 0.843400 0.710783
O O4 0.421159 0.014478 0.700789
O O5 0.711344 0.422687 0.750000
O O6 0.576547 0.408871 0.660582
O O7 0.669069 0.566275 0.743402
O O8 0.584318 0.168636 0.750000
O O9 0.503677 0.180093 0.636687
O O10 0.412471 0.154426 0.768061
O O11 0.652897 0.326449 0.583334
O O12 0.655336 0.501690 0.549887
O O13 0.710872 0.855436 0.583334
O O14 0.725795 0.000000 0.500000
O O15 0.738226 0.040797 0.627339
#
# Coordination Sequence:
#
# PCOD9582941 Si02
#       6
#    12  12  12  12  12  12
#     4  11  22  35  56  79 114 158 192 238 302 370
#     4  11  21  34  53  83 116 158 201 244 303 367
#     4   9  21  35  50  74 109 152 192 237 284 353
#     4  11  20  33  53  79 116 155 199 239 289 362
#     4  11  24  38  61  88 123 160 208 270 326 381
#     4  11  21  36  54  79 115 153 201 250 303 369
#
# _framework density 18.318290999999999
#
# number of rings (size 3 to 8) (size 9 to 14) (size 15 to 20)
#    0.000    1.333    1.667    6.500    4.667    1.333 
#    0.000    0.000    0.000    0.000    0.000    1.167 
#    0.000    0.000    0.000    0.000    0.000    0.000 
#
# Total GULP energy -401811.205592 kJ/mol
# GULP energy per Si atom -5580.711189 kJ/mol
# Density = 1.827660 g / cm^3
# Si number density = 18.318291 Si / 1000 Ang^3
#
#
#
# Elastic Constant Matrix: (Units=GPa)
#
#
# Indices 1 2 3 4 5 6 
#
# 1 88.1727 38.5648 25.4790 0.0000 0.0000 0.0000
# 2 38.5648 88.1727 25.4790 0.0000 0.0000 0.0000
# 3 25.4790 25.4790 125.0744 0.0000 0.0000 0.0000
# 4 0.0000 0.0000 0.0000 12.0766 0.0000 0.0000
# 5 0.0000 0.0000 0.0000 0.0000 12.0766 0.0000
# 6 0.0000 0.0000 0.0000 0.0000 0.0000 24.8040
#
#
#
# Elastic Compliance Matrix: (Units=1/GPa)
#
#
# Indices 1 2 3 4 5 6 
#
# 1 0.014376 -0.005782 -0.001751 0.000000 0.000000 0.000000
# 2 -0.005782 0.014376 -0.001751 0.000000 0.000000 0.000000
# 3 -0.001751 -0.001751 0.008709 0.000000 0.000000 0.000000
# 4 0.000000 0.000000 0.000000 0.082805 0.000000 0.000000
# 5 0.000000 0.000000 0.000000 0.000000 0.082805 0.000000
# 6 0.000000 0.000000 0.000000 0.000000 0.000000 0.040316
#
#
# Mechanical properties :
#
#
# Convention : Reuss Voigt Hill
#
# Bulk Modulus (GPa) = 52.92666 53.38504 53.15585
# Shear Modulus (GPa) = 18.63925 23.91791 21.27858
#
# Velocity S-wave (km/s) = 3.19332 3.61735 3.41193
# Velocity P-wave (km/s) = 6.52318 6.83032 6.67852
#
# Compressibility (1/GPa) = 0.01889407
#
# Stress axis : x y z
#
# Youngs Moduli (GPa) = 69.55959 69.55959 114.82996
#
# Poissons Ratio (x) = 0.40219 0.20104
# Poissons Ratio (y) = 0.40219 0.20104
# Poissons Ratio (z) = 0.12178 0.12178
#
# Static dielectric constant tensor:
#      x y z
#    x 1.676040 0.000000 0.000000 
#    y 0.000000 1.676040 0.000000 
#    z 0.000000 0.000000 1.646610 
# 
# From -- ./inp_files/6782.got.cif
#   From: 2010.05.17/outbox.cif.g08.bks.cpg/sg178_4_cif.got.tgz:6782.got - 2010.05.20 11:30:59.
