data_PCOD9582916
_publ_section_title
;
Structure prediction by ZEFSAII (Michael W. Deem and Ramdas Pophale) SiO2 
 PCOD9582916
Probable space group: P 61 2 2
;
_chemical_formula_sum "Si O2"
_cell_formula_units_Z 36
_cell_length_a 11.648980
_cell_length_b 11.648980
_cell_length_c 13.587228
_cell_angle_alpha 90.000000
_cell_angle_beta 90.000000
_cell_angle_gamma 120.000000
_cell_volume 1596.751358
_symmetry_space_group_name_H-M "P 61 2 2"
_symmetry_group_IT_number 178
_symmetry_cell_setting 'hexagonal'
loop_
_space_group_symop_operation_xyz
x,y,z
x-y,x,1/6+z
-y,x-y,1/3+z
-x,-y,1/2+z
-x+y,-x,2/3+z
y,-x+y,5/6+z
x-y,-y,-z
-x,-x+y,2/3-z
y,x,1/3-z
-y,-x,5/6-z
-x+y,y,1/2-z
x,x-y,1/6-z
loop_
_atom_site_type_symbol
_atom_site_label
_atom_site_fract_x
_atom_site_fract_y
_atom_site_fract_z
Si Si1 0.187592 0.485619 0.029922
Si Si2 0.835050 0.822279 0.006650
Si Si3 0.460167 0.840158 0.019454
O O1 0.120598 0.560299 0.083334
O O2 0.319009 0.519492 0.093782
O O3 0.086578 0.332558 0.012425
O O4 0.217654 0.547356 0.922013
O O5 0.965002 0.852947 0.067556
O O6 0.777629 0.888815 0.083334
O O7 0.507839 0.753920 0.083334
O O8 0.549329 0.000000 0.000000
#
# Coordination Sequence:
#
# PCOD9582916 Si02
#       3
#    12  12  12
#     4  11  26  49  74 114 154 198 265 326 404 478
#     4  10  25  49  73 110 152 207 261 329 395 479
#     4  11  27  47  76 115 156 208 266 331 400 480
#
# _framework density 22.545779
#
# number of rings (size 3 to 8) (size 9 to 14) (size 15 to 20)
#    0.000    1.333    0.000    4.000   14.000    0.000 
#   12.000    0.000    0.000    0.000    0.000    0.000 
#    0.000    0.000    0.000    0.000    0.000    0.000 
#
# Total GULP energy -200607.158646 kJ/mol
# GULP energy per Si atom -5572.421073 kJ/mol
# Density = 2.249446 g / cm^3
# Si number density = 22.545779 Si / 1000 Ang^3
#
#
#
# Elastic Constant Matrix: (Units=GPa)
#
#
# Indices 1 2 3 4 5 6 
#
# 1 198.5999 90.0547 72.6148 0.0000 0.0000 0.0000
# 2 90.0547 198.5999 72.6148 0.0000 0.0000 0.0000
# 3 72.6148 72.6148 185.3789 0.0000 0.0000 0.0000
# 4 0.0000 0.0000 0.0000 -31.8673 0.0000 0.0000
# 5 0.0000 0.0000 0.0000 0.0000 -31.8673 0.0000
# 6 0.0000 0.0000 0.0000 0.0000 0.0000 54.2726
#
#
#
# Elastic Compliance Matrix: (Units=1/GPa)
#
#
# Indices 1 2 3 4 5 6 
#
# 1 0.006764 -0.002449 -0.001690 0.000000 0.000000 0.000000
# 2 -0.002449 0.006764 -0.001690 0.000000 0.000000 0.000000
# 3 -0.001690 -0.001690 0.006718 0.000000 0.000000 0.000000
# 4 0.000000 0.000000 0.000000 -0.031380 0.000000 0.000000
# 5 0.000000 0.000000 0.000000 0.000000 -0.031380 0.000000
# 6 0.000000 0.000000 0.000000 0.000000 0.000000 0.018425
#
#
# Mechanical properties :
#
#
# Convention : Reuss Voigt Hill
#
# Bulk Modulus (GPa) = 116.45017 117.01639 116.73328
# Shear Modulus (GPa) = -522.57666 21.26057 -250.65805
#
# Velocity S-wave (km/s) = -15.24099 3.07415 -10.55551
# Velocity P-wave (km/s) = 16.06096 8.03834 9.83208
#
# Compressibility (1/GPa) = 0.00858736
#
# Stress axis : x y z
#
# Youngs Moduli (GPa) = 147.84776 147.84776 148.84448
#
# Poissons Ratio (x) = 0.36208 0.25156
# Poissons Ratio (y) = 0.36208 0.25156
# Poissons Ratio (z) = 0.24988 0.24988
#
# Static dielectric constant tensor:
#      x y z
#    x 1.907410 0.000000 0.000000 
#    y 0.000000 1.907410 0.000000 
#    z 0.000000 0.000000 1.825860 
# 
# From -- ./inp_files/5106.got.cif
#   From: 2010.05.17/outbox.cif.g08.bks.cpg/sg178_3_cif.got.tgz:5106.got - 2010.05.20 11:30:59.
