data_PCOD9582723
_publ_section_title
;
Structure prediction by ZEFSAII (Michael W. Deem and Ramdas Pophale) SiO2 
 PCOD9582723
Probable space group: P 61 2 2
;
_chemical_formula_sum "Si O2"
_cell_formula_units_Z 48
_cell_length_a 13.673688
_cell_length_b 13.673688
_cell_length_c 12.575945
_cell_angle_alpha 90.000000
_cell_angle_beta 90.000000
_cell_angle_gamma 120.000000
_cell_volume 2036.303901
_symmetry_space_group_name_H-M "P 61 2 2"
_symmetry_group_IT_number 178
_symmetry_cell_setting 'hexagonal'
loop_
_space_group_symop_operation_xyz
x,y,z
x-y,x,1/6+z
-y,x-y,1/3+z
-x,-y,1/2+z
-x+y,-x,2/3+z
y,-x+y,5/6+z
x-y,-y,-z
-x,-x+y,2/3-z
y,x,1/3-z
-y,-x,5/6-z
-x+y,y,1/2-z
x,x-y,1/6-z
loop_
_atom_site_type_symbol
_atom_site_label
_atom_site_fract_x
_atom_site_fract_y
_atom_site_fract_z
Si Si1 0.636101 0.854970 0.203750
Si Si2 0.324279 0.675722 0.416667
Si Si3 0.817517 0.968579 0.672012
Si Si4 0.152769 0.628206 0.239185
Si Si5 0.519383 0.038765 0.750000
O O1 0.734029 0.958697 0.266204
O O2 0.601758 0.734374 0.258170
O O3 0.535642 0.884175 0.221397
O O4 0.659703 0.829852 0.083334
O O5 0.204524 0.627440 0.355131
O O6 0.327009 0.589528 0.499803
O O7 0.914974 0.058927 0.596480
O O8 0.743240 0.871620 0.583334
O O9 0.049016 0.519161 0.184885
#
# Coordination Sequence:
#
# PCOD9582723 Si02
#       5
#    12   6  12  12   6
#     4  12  26  47  72 108 147 192 258 313 377 468
#     4   9  18  40  68 102 150 196 246 313 372 458
#     4  10  24  47  71 103 139 184 240 301 373 440
#     4  10  21  42  67 106 145 195 252 308 382 458
#     4  11  26  46  72 108 150 204 246 311 398 446
#
# _framework density 23.572120999999999
#
# number of rings (size 3 to 8) (size 9 to 14) (size 15 to 20)
#    0.000    1.500    1.250    3.000    0.000    9.000 
#   18.000    0.000    0.000    0.000    0.000    0.000 
#    0.000    0.000    0.000    0.000    0.000    0.000 
#
# Total GULP energy -267309.068443 kJ/mol
# GULP energy per Si atom -5568.938926 kJ/mol
# Density = 2.351847 g / cm^3
# Si number density = 23.572121 Si / 1000 Ang^3
#
#
#
# Elastic Constant Matrix: (Units=GPa)
#
#
# Indices 1 2 3 4 5 6 
#
# 1 85.9847 28.3769 70.6398 0.0000 0.0000 0.0000
# 2 28.3769 85.9847 70.6398 0.0000 0.0000 0.0000
# 3 70.6398 70.6398 169.4784 0.0000 0.0000 0.0000
# 4 0.0000 0.0000 0.0000 41.1146 0.0000 0.0000
# 5 0.0000 0.0000 0.0000 0.0000 41.1146 0.0000
# 6 0.0000 0.0000 0.0000 0.0000 0.0000 28.8039
#
#
#
# Elastic Compliance Matrix: (Units=1/GPa)
#
#
# Indices 1 2 3 4 5 6 
#
# 1 0.017692 0.000334 -0.007513 0.000000 0.000000 0.000000
# 2 0.000334 0.017692 -0.007513 0.000000 0.000000 0.000000
# 3 -0.007513 -0.007513 0.012164 0.000000 0.000000 0.000000
# 4 0.000000 0.000000 0.000000 0.024322 0.000000 0.000000
# 5 0.000000 0.000000 0.000000 0.000000 0.024322 0.000000
# 6 0.000000 0.000000 0.000000 0.000000 0.000000 0.034717
#
#
# Mechanical properties :
#
#
# Convention : Reuss Voigt Hill
#
# Bulk Modulus (GPa) = 55.05916 75.64008 65.34962
# Shear Modulus (GPa) = 30.05696 33.65939 31.85817
#
# Velocity S-wave (km/s) = 3.57474 3.78290 3.68029
# Velocity P-wave (km/s) = 6.35978 7.15813 6.77073
#
# Compressibility (1/GPa) = 0.01816228
#
# Stress axis : x y z
#
# Youngs Moduli (GPa) = 56.52145 56.52145 82.21167
#
# Poissons Ratio (x) = -0.01886 0.61769
# Poissons Ratio (y) = -0.01886 0.61769
# Poissons Ratio (z) = 0.42467 0.42467
#
# Static dielectric constant tensor:
#      x y z
#    x 1.956440 0.000000 0.000000 
#    y 0.000000 1.956440 0.000000 
#    z 0.000000 0.000000 1.991850 
# 
# From -- ./inp_files/4169.got.cif
#   From: 2010.05.17/outbox.cif.g08.bks.cpg/sg178_3_cif.got.tgz:4169.got - 2010.05.20 11:30:59.
