data_PCOD9582420
_publ_section_title
;
Structure prediction by ZEFSAII (Michael W. Deem and Ramdas Pophale) SiO2 
 PCOD9582420
Probable space group: P 61 2 2
;
_chemical_formula_sum "Si O2"
_cell_formula_units_Z 60
_cell_length_a 12.183613
_cell_length_b 12.183613
_cell_length_c 23.928925
_cell_angle_alpha 90.000000
_cell_angle_beta 90.000000
_cell_angle_gamma 120.000000
_cell_volume 3076.139394
_symmetry_space_group_name_H-M "P 61 2 2"
_symmetry_group_IT_number 178
_symmetry_cell_setting 'hexagonal'
loop_
_space_group_symop_operation_xyz
x,y,z
x-y,x,1/6+z
-y,x-y,1/3+z
-x,-y,1/2+z
-x+y,-x,2/3+z
y,-x+y,5/6+z
x-y,-y,-z
-x,-x+y,2/3-z
y,x,1/3-z
-y,-x,5/6-z
-x+y,y,1/2-z
x,x-y,1/6-z
loop_
_atom_site_type_symbol
_atom_site_label
_atom_site_fract_x
_atom_site_fract_y
_atom_site_fract_z
Si Si1 0.567618 0.162581 0.314130
Si Si2 0.210239 0.919913 0.705109
Si Si3 0.828153 0.142489 0.983141
Si Si4 0.007038 0.664892 0.659318
Si Si5 0.364056 0.585914 0.855235
O O1 0.561001 0.122002 0.250000
O O2 0.639239 0.313176 0.314483
O O3 0.419776 0.108247 0.328180
O O4 0.647559 0.112448 0.347546
O O5 0.209818 0.035856 0.674343
O O6 0.261289 0.964834 0.768204
O O7 0.079960 0.787174 0.698637
O O8 0.838356 0.161645 0.916667
O O9 0.804884 0.250779 0.010567
O O10 0.724158 0.000000 0.000000
O O11 0.102940 0.609802 0.649084
O O12 0.363402 0.636599 0.916667
#
# Coordination Sequence:
#
# PCOD9582420 Si02
#       5
#    12  12  12  12  12
#     4   9  18  33  57  87 115 153 201 248 300 363
#     4  10  19  35  58  86 117 156 199 249 303 356
#     4  12  25  38  58  92 129 163 203 260 320 370
#     4  10  18  35  61  85 118 155 204 248 295 367
#     4  11  20  35  58  85 123 161 197 249 315 367
#
# _framework density 19.504967000000001
#
# number of rings (size 3 to 8) (size 9 to 14) (size 15 to 20)
#    0.000    1.600    4.000    2.400    2.800    0.000 
#    0.000    0.000    0.000    4.800    0.000    0.000 
#    0.000    0.000    0.000    0.000    0.000    0.000 
#
# Total GULP energy -334049.230192 kJ/mol
# GULP energy per Si atom -5567.487170 kJ/mol
# Density = 1.946057 g / cm^3
# Si number density = 19.504967 Si / 1000 Ang^3
#
#
#
# Elastic Constant Matrix: (Units=GPa)
#
#
# Indices 1 2 3 4 5 6 
#
# 1 89.3101 40.2577 17.4873 0.0000 0.0000 0.0000
# 2 40.2577 89.3101 17.4873 0.0000 0.0000 0.0000
# 3 17.4873 17.4873 49.8741 0.0000 0.0000 0.0000
# 4 0.0000 0.0000 0.0000 16.7802 0.0000 0.0000
# 5 0.0000 0.0000 0.0000 0.0000 16.7802 0.0000
# 6 0.0000 0.0000 0.0000 0.0000 0.0000 24.5262
#
#
#
# Elastic Compliance Matrix: (Units=1/GPa)
#
#
# Indices 1 2 3 4 5 6 
#
# 1 0.014456 -0.005931 -0.002989 0.000000 0.000000 0.000000
# 2 -0.005931 0.014456 -0.002989 0.000000 0.000000 0.000000
# 3 -0.002989 -0.002989 0.022147 0.000000 0.000000 0.000000
# 4 0.000000 0.000000 0.000000 0.059594 0.000000 0.000000
# 5 0.000000 0.000000 0.000000 0.000000 0.059594 0.000000
# 6 0.000000 0.000000 0.000000 0.000000 0.000000 0.040773
#
#
# Mechanical properties :
#
#
# Convention : Reuss Voigt Hill
#
# Bulk Modulus (GPa) = 36.71070 42.10655 39.40863
# Shear Modulus (GPa) = 20.49882 21.83477 21.16679
#
# Velocity S-wave (km/s) = 3.24536 3.34944 3.29781
# Velocity P-wave (km/s) = 5.73631 6.04920 5.89483
#
# Compressibility (1/GPa) = 0.02724001
#
# Stress axis : x y z
#
# Youngs Moduli (GPa) = 69.17738 69.17738 45.15366
#
# Poissons Ratio (x) = 0.41028 0.13497
# Poissons Ratio (y) = 0.41028 0.13497
# Poissons Ratio (z) = 0.20677 0.20677
#
# Static dielectric constant tensor:
#      x y z
#    x 1.751800 0.000000 0.000000 
#    y 0.000000 1.751800 0.000000 
#    z 0.000000 0.000000 1.717530 
# 
# From -- ./inp_files/8819.got.cif
#   From: 2010.05.17/outbox.cif.g08.bks.cpg/sg178_5_cif.got.tgz:8819.got - 2010.05.20 11:30:59.
