data_PCOD9582683
_publ_section_title
;
Structure prediction by ZEFSAII (Michael W. Deem and Ramdas Pophale) SiO2 
 PCOD9582683
Probable space group: P 61 2 2
;
_chemical_formula_sum "Si O2"
_cell_formula_units_Z 36
_cell_length_a 12.394290
_cell_length_b 12.394290
_cell_length_c 12.509362
_cell_angle_alpha 90.000000
_cell_angle_beta 90.000000
_cell_angle_gamma 120.000000
_cell_volume 1664.213724
_symmetry_space_group_name_H-M "P 61 2 2"
_symmetry_group_IT_number 178
_symmetry_cell_setting 'hexagonal'
loop_
_space_group_symop_operation_xyz
x,y,z
x-y,x,1/6+z
-y,x-y,1/3+z
-x,-y,1/2+z
-x+y,-x,2/3+z
y,-x+y,5/6+z
x-y,-y,-z
-x,-x+y,2/3-z
y,x,1/3-z
-y,-x,5/6-z
-x+y,y,1/2-z
x,x-y,1/6-z
loop_
_atom_site_type_symbol
_atom_site_label
_atom_site_fract_x
_atom_site_fract_y
_atom_site_fract_z
Si Si1 0.960430 0.352403 0.015596
Si Si2 0.194770 0.097385 0.583334
Si Si3 0.403956 0.807911 0.750000
Si Si4 0.367368 0.880859 0.076816
O O1 0.912495 0.332376 0.138660
O O2 0.094255 0.480559 0.009603
O O3 0.954596 0.231446 0.970294
O O4 0.878618 0.386054 0.938851
O O5 0.108575 0.108575 0.666667
O O6 0.464797 0.726585 0.707421
O O7 0.401746 0.000000 0.000000
#
# Coordination Sequence:
#
# PCOD9582683 Si02
#       4
#    12   6   6  12
#     4  10  24  39  64  99 132 187 234 276 357 427
#     4  12  25  48  70  90 125 172 228 290 360 442
#     4  10  21  40  64  98 137 180 236 288 348 422
#     4  10  21  37  62 101 146 183 226 292 343 403
#
# _framework density 21.631837999999998
#
# number of rings (size 3 to 8) (size 9 to 14) (size 15 to 20)
#    0.000    2.000    0.000    4.000    0.000   18.667 
#    0.000    6.667    0.000    0.000    0.000    0.000 
#    0.000    0.000    0.000    0.000    0.000    0.000 
#
# Total GULP energy -200544.577870 kJ/mol
# GULP energy per Si atom -5570.682719 kJ/mol
# Density = 2.158260 g / cm^3
# Si number density = 21.631838 Si / 1000 Ang^3
#
#
#
# Elastic Constant Matrix: (Units=GPa)
#
#
# Indices 1 2 3 4 5 6 
#
# 1 134.9851 76.1279 55.9430 0.0000 0.0000 0.0000
# 2 76.1279 134.9851 55.9430 0.0000 0.0000 0.0000
# 3 55.9430 55.9430 98.6703 0.0000 0.0000 0.0000
# 4 0.0000 0.0000 0.0000 -16.7977 0.0000 0.0000
# 5 0.0000 0.0000 0.0000 0.0000 -16.7977 0.0000
# 6 0.0000 0.0000 0.0000 0.0000 0.0000 29.4286
#
#
#
# Elastic Compliance Matrix: (Units=1/GPa)
#
#
# Indices 1 2 3 4 5 6 
#
# 1 0.011881 -0.005109 -0.003839 0.000000 0.000000 0.000000
# 2 -0.005109 0.011881 -0.003839 0.000000 0.000000 0.000000
# 3 -0.003839 -0.003839 0.014488 0.000000 0.000000 0.000000
# 4 0.000000 0.000000 0.000000 -0.059532 0.000000 0.000000
# 5 0.000000 0.000000 0.000000 0.000000 -0.059532 0.000000
# 6 0.000000 0.000000 0.000000 0.000000 0.000000 0.033981
#
#
# Mechanical properties :
#
#
# Convention : Reuss Voigt Hill
#
# Bulk Modulus (GPa) = 78.89981 82.74093 80.82037
# Shear Modulus (GPa) = -293.54725 11.20842 -141.16941
#
# Velocity S-wave (km/s) = -11.66174 2.27875 -8.08713
# Velocity P-wave (km/s) = 12.03225 6.72728 7.05403
#
# Compressibility (1/GPa) = 0.01267430
#
# Stress axis : x y z
#
# Youngs Moduli (GPa) = 84.16866 84.16866 69.02156
#
# Poissons Ratio (x) = 0.43005 0.26499
# Poissons Ratio (y) = 0.43005 0.26499
# Poissons Ratio (z) = 0.32314 0.32314
#
# Static dielectric constant tensor:
#      x y z
#    x 1.826910 0.000000 0.000000 
#    y 0.000000 1.826910 0.000000 
#    z 0.000000 0.000000 1.857450 
# 
# From -- ./inp_files/5185.got.cif
#   From: 2010.05.17/outbox.cif.g08.bks.cpg/sg178_3_cif.got.tgz:5185.got - 2010.05.20 11:30:59.
