data_PCOD9582604
_publ_section_title
;
Structure prediction by ZEFSAII (Michael W. Deem and Ramdas Pophale) SiO2 
 PCOD9582604
Probable space group: P 61 2 2
;
_chemical_formula_sum "Si O2"
_cell_formula_units_Z 60
_cell_length_a 14.493184
_cell_length_b 14.493184
_cell_length_c 16.849754
_cell_angle_alpha 90.000000
_cell_angle_beta 90.000000
_cell_angle_gamma 120.000000
_cell_volume 3065.150534
_symmetry_space_group_name_H-M "P 61 2 2"
_symmetry_group_IT_number 178
_symmetry_cell_setting 'hexagonal'
loop_
_space_group_symop_operation_xyz
x,y,z
x-y,x,1/6+z
-y,x-y,1/3+z
-x,-y,1/2+z
-x+y,-x,2/3+z
y,-x+y,5/6+z
x-y,-y,-z
-x,-x+y,2/3-z
y,x,1/3-z
-y,-x,5/6-z
-x+y,y,1/2-z
x,x-y,1/6-z
loop_
_atom_site_type_symbol
_atom_site_label
_atom_site_fract_x
_atom_site_fract_y
_atom_site_fract_z
Si Si1 0.028433 0.971568 0.416667
Si Si2 0.681169 0.131131 0.868866
Si Si3 0.235122 0.272516 0.579299
Si Si4 0.739182 0.216419 0.701054
Si Si5 0.376652 0.484679 0.124642
Si Si6 0.300488 0.699512 0.916667
O O1 0.000000 0.003260 0.333334
O O2 0.972479 0.842667 0.419647
O O3 0.764047 0.235954 0.916667
O O4 0.670649 0.160112 0.779682
O O5 0.574012 0.084163 0.919985
O O6 0.731599 0.055605 0.859498
O O7 0.283984 0.283984 0.666667
O O8 0.229923 0.375858 0.554764
O O9 0.698315 0.151824 0.619500
O O10 0.734083 0.325404 0.699300
O O11 0.396791 0.396791 0.166667
O O12 0.331858 0.534799 0.189501
#
# Coordination Sequence:
#
# PCOD9582604 Si02
#       6
#     6  12  12  12  12   6
#     4  10  20  38  60  95 128 167 218 282 340 396
#     4  12  18  37  64  98 129 164 219 277 350 398
#     4  11  20  36  64 101 131 164 216 291 347 402
#     4  12  23  39  66  95 131 177 220 281 356 408
#     4  12  26  42  62  93 137 184 226 275 335 425
#     4  12  22  44  64  91 132 177 234 282 338 408
#
# _framework density 19.574895999999999
#
# number of rings (size 3 to 8) (size 9 to 14) (size 15 to 20)
#    0.000    0.400    7.000    3.600    0.000    1.600 
#    0.000    5.000    0.000    0.000    0.000    0.000 
#    0.000    0.000    0.000    0.000    0.000    0.000 
#
# Total GULP energy -334778.261191 kJ/mol
# GULP energy per Si atom -5579.637687 kJ/mol
# Density = 1.953034 g / cm^3
# Si number density = 19.574896 Si / 1000 Ang^3
#
#
#
# Elastic Constant Matrix: (Units=GPa)
#
#
# Indices 1 2 3 4 5 6 
#
# 1 75.8390 23.9813 54.6373 0.0000 0.0000 0.0000
# 2 23.9813 75.8390 54.6373 0.0000 0.0000 0.0000
# 3 54.6373 54.6373 167.8094 0.0000 0.0000 0.0000
# 4 0.0000 0.0000 0.0000 19.6070 0.0000 0.0000
# 5 0.0000 0.0000 0.0000 0.0000 19.6070 0.0000
# 6 0.0000 0.0000 0.0000 0.0000 0.0000 25.9288
#
#
#
# Elastic Compliance Matrix: (Units=1/GPa)
#
#
# Indices 1 2 3 4 5 6 
#
# 1 0.017425 -0.001859 -0.005068 0.000000 0.000000 0.000000
# 2 -0.001859 0.017425 -0.005068 0.000000 0.000000 0.000000
# 3 -0.005068 -0.005068 0.009259 0.000000 0.000000 0.000000
# 4 0.000000 0.000000 0.000000 0.051002 0.000000 0.000000
# 5 0.000000 0.000000 0.000000 0.000000 0.051002 0.000000
# 6 0.000000 0.000000 0.000000 0.000000 0.000000 0.038567
#
#
# Mechanical properties :
#
#
# Convention : Reuss Voigt Hill
#
# Bulk Modulus (GPa) = 49.70411 65.11103 57.40757
# Shear Modulus (GPa) = 23.21507 25.44400 24.32953
#
# Velocity S-wave (km/s) = 3.44751 3.60922 3.52930
# Velocity P-wave (km/s) = 6.42604 7.12063 6.78223
#
# Compressibility (1/GPa) = 0.02011906
#
# Stress axis : x y z
#
# Youngs Moduli (GPa) = 57.38910 57.38910 107.99731
#
# Poissons Ratio (x) = 0.10667 0.54736
# Poissons Ratio (y) = 0.10667 0.54736
# Poissons Ratio (z) = 0.29086 0.29086
#
# Static dielectric constant tensor:
#      x y z
#    x 1.745200 0.000000 0.000000 
#    y 0.000000 1.745200 0.000000 
#    z 0.000000 0.000000 1.711540 
# 
# From -- ./inp_files/5741.got.cif
#   From: 2010.05.17/outbox.cif.g08.bks.cpg/sg178_3_cif.got.tgz:5741.got - 2010.05.20 11:30:59.
