data_PCOD9582854
_publ_section_title
;
Structure prediction by ZEFSAII (Michael W. Deem and Ramdas Pophale) SiO2 
 PCOD9582854
Probable space group: P 61 2 2
;
_chemical_formula_sum "Si O2"
_cell_formula_units_Z 36
_cell_length_a 7.550632
_cell_length_b 7.550632
_cell_length_c 32.447926
_cell_angle_alpha 90.000000
_cell_angle_beta 90.000000
_cell_angle_gamma 120.000000
_cell_volume 1602.079942
_symmetry_space_group_name_H-M "P 61 2 2"
_symmetry_group_IT_number 178
_symmetry_cell_setting 'hexagonal'
loop_
_space_group_symop_operation_xyz
x,y,z
x-y,x,1/6+z
-y,x-y,1/3+z
-x,-y,1/2+z
-x+y,-x,2/3+z
y,-x+y,5/6+z
x-y,-y,-z
-x,-x+y,2/3-z
y,x,1/3-z
-y,-x,5/6-z
-x+y,y,1/2-z
x,x-y,1/6-z
loop_
_atom_site_type_symbol
_atom_site_label
_atom_site_fract_x
_atom_site_fract_y
_atom_site_fract_z
Si Si1 0.242776 0.402699 0.832313
Si Si2 0.607263 0.188696 0.123859
Si Si3 0.148235 0.121618 0.293508
O O1 0.349221 0.350242 0.794176
O O2 0.365363 0.642564 0.840948
O O3 0.267709 0.270928 0.868738
O O4 0.000000 0.323359 0.833334
O O5 0.656707 0.328354 0.083334
O O6 0.364188 0.079697 0.129218
O O7 0.035739 0.071477 0.250000
O O8 0.000000 0.050611 0.333334
#
# Coordination Sequence:
#
# PCOD9582854 Si02
#       3
#    12  12  12
#     4  11  24  41  65  93 132 172 221 274 334 398
#     4  11  24  43  66  97 134 176 228 278 337 408
#     4  10  23  43  68  98 136 179 226 282 344 410
#
# _framework density 22.470789
#
# number of rings (size 3 to 8) (size 9 to 14) (size 15 to 20)
#    0.000    1.333    3.333    1.000    9.333    0.000 
#    0.000    0.000    0.000    0.000    0.000    0.000 
#    0.000    0.000    0.000    0.000    0.000    0.000 
#
# Total GULP energy -200660.569165 kJ/mol
# GULP energy per Si atom -5573.904699 kJ/mol
# Density = 2.241964 g / cm^3
# Si number density = 22.470789 Si / 1000 Ang^3
#
#
#
# Elastic Constant Matrix: (Units=GPa)
#
#
# Indices 1 2 3 4 5 6 
#
# 1 84.4915 60.1963 21.9386 0.0000 0.0000 0.0000
# 2 60.1963 84.4915 21.9386 0.0000 0.0000 0.0000
# 3 21.9386 21.9386 67.7402 0.0000 0.0000 0.0000
# 4 0.0000 0.0000 0.0000 14.8595 0.0000 0.0000
# 5 0.0000 0.0000 0.0000 0.0000 14.8595 0.0000
# 6 0.0000 0.0000 0.0000 0.0000 0.0000 12.1476
#
#
#
# Elastic Compliance Matrix: (Units=1/GPa)
#
#
# Indices 1 2 3 4 5 6 
#
# 1 0.024412 -0.016748 -0.002482 0.000000 0.000000 0.000000
# 2 -0.016748 0.024412 -0.002482 0.000000 0.000000 0.000000
# 3 -0.002482 -0.002482 0.016370 0.000000 0.000000 0.000000
# 4 0.000000 0.000000 0.000000 0.067297 0.000000 0.000000
# 5 0.000000 0.000000 0.000000 0.000000 0.067297 0.000000
# 6 0.000000 0.000000 0.000000 0.000000 0.000000 0.082321
#
#
# Mechanical properties :
#
#
# Convention : Reuss Voigt Hill
#
# Bulk Modulus (GPa) = 45.93523 49.42999 47.68261
# Shear Modulus (GPa) = 15.02446 17.21665 16.12056
#
# Velocity S-wave (km/s) = 2.58858 2.77100 2.68134
# Velocity P-wave (km/s) = 5.42410 5.68182 5.55446
#
# Compressibility (1/GPa) = 0.02176978
#
# Stress axis : x y z
#
# Youngs Moduli (GPa) = 40.96299 40.96299 61.08726
#
# Poissons Ratio (x) = 0.68605 0.15163
# Poissons Ratio (y) = 0.68605 0.15163
# Poissons Ratio (z) = 0.10168 0.10168
#
# Static dielectric constant tensor:
#      x y z
#    x 1.849430 0.000000 0.000000 
#    y 0.000000 1.849430 0.000000 
#    z 0.000000 0.000000 1.901800 
# 
# From -- ./inp_files/9121.got.cif
#   From: 2010.05.17/outbox.cif.g08.bks.cpg/sg178_5_cif.got.tgz:9121.got - 2010.05.20 11:30:59.
