data_PCOD9582698
_publ_section_title
;
Structure prediction by ZEFSAII (Michael W. Deem and Ramdas Pophale) SiO2 
 PCOD9582698
Probable space group: P 61 2 2
;
_chemical_formula_sum "Si O2"
_cell_formula_units_Z 72
_cell_length_a 15.970871
_cell_length_b 15.970871
_cell_length_c 17.005169
_cell_angle_alpha 90.000000
_cell_angle_beta 90.000000
_cell_angle_gamma 120.000000
_cell_volume 3756.373670
_symmetry_space_group_name_H-M "P 61 2 2"
_symmetry_group_IT_number 178
_symmetry_cell_setting 'hexagonal'
loop_
_space_group_symop_operation_xyz
x,y,z
x-y,x,1/6+z
-y,x-y,1/3+z
-x,-y,1/2+z
-x+y,-x,2/3+z
y,-x+y,5/6+z
x-y,-y,-z
-x,-x+y,2/3-z
y,x,1/3-z
-y,-x,5/6-z
-x+y,y,1/2-z
x,x-y,1/6-z
loop_
_atom_site_type_symbol
_atom_site_label
_atom_site_fract_x
_atom_site_fract_y
_atom_site_fract_z
Si Si1 0.681123 0.741632 0.588298
Si Si2 0.865852 0.566330 0.478011
Si Si3 0.291348 0.018679 0.754052
Si Si4 0.474169 0.985467 0.911752
Si Si5 0.493370 0.840968 0.306759
Si Si6 0.885312 0.699893 0.335919
O O1 0.732776 0.732776 0.666667
O O2 0.668478 0.834239 0.583334
O O3 0.737544 0.742760 0.509923
O O4 0.578590 0.641773 0.583750
O O5 0.925201 0.654942 0.537604
O O6 0.754085 0.508004 0.502811
O O7 0.869257 0.611381 0.391814
O O8 0.920616 0.505688 0.471059
O O9 0.408092 0.086700 0.759503
O O10 0.252905 0.081917 0.711993
O O11 0.511720 0.090274 0.873025
O O12 0.513964 0.000000 0.000000
O O13 0.402622 0.805244 0.250000
O O14 0.835613 0.671226 0.250000
O O15 0.000000 0.770345 0.333334
#
# Coordination Sequence:
#
# PCOD9582698 Si02
#       6
#    12  12  12  12  12  12
#     4  10  24  41  65  90 120 165 219 264 322 389
#     4  11  22  36  68  94 129 175 214 262 333 382
#     4  10  22  38  66  91 126 164 211 257 322 386
#     4  10  22  39  61  91 129 168 213 271 319 384
#     4  10  21  39  60  92 130 169 214 262 322 386
#     4  11  22  37  61  97 126 163 207 256 319 396
#
# _framework density 19.167421000000001
#
# number of rings (size 3 to 8) (size 9 to 14) (size 15 to 20)
#    0.000    1.667    3.333    0.500    9.333    0.667 
#    0.000    0.000    7.333    4.000    0.000    0.000 
#    0.000    0.000    0.000    0.000    0.000    0.000 
#
# Total GULP energy -401832.196055 kJ/mol
# GULP energy per Si atom -5581.002723 kJ/mol
# Density = 1.912380 g / cm^3
# Si number density = 19.167421 Si / 1000 Ang^3
#
#
#
# Elastic Constant Matrix: (Units=GPa)
#
#
# Indices 1 2 3 4 5 6 
#
# 1 78.1639 25.6288 26.9114 0.0000 0.0000 0.0000
# 2 25.6288 78.1639 26.9114 0.0000 0.0000 0.0000
# 3 26.9114 26.9114 104.9384 0.0000 0.0000 0.0000
# 4 0.0000 0.0000 0.0000 18.8486 0.0000 0.0000
# 5 0.0000 0.0000 0.0000 0.0000 18.8486 0.0000
# 6 0.0000 0.0000 0.0000 0.0000 0.0000 26.2675
#
#
#
# Elastic Compliance Matrix: (Units=1/GPa)
#
#
# Indices 1 2 3 4 5 6 
#
# 1 0.015074 -0.003961 -0.002850 0.000000 0.000000 0.000000
# 2 -0.003961 0.015074 -0.002850 0.000000 0.000000 0.000000
# 3 -0.002850 -0.002850 0.010991 0.000000 0.000000 0.000000
# 4 0.000000 0.000000 0.000000 0.053054 0.000000 0.000000
# 5 0.000000 0.000000 0.000000 0.000000 0.053054 0.000000
# 6 0.000000 0.000000 0.000000 0.000000 0.000000 0.038070
#
#
# Mechanical properties :
#
#
# Convention : Reuss Voigt Hill
#
# Bulk Modulus (GPa) = 45.83641 46.68549 46.26095
# Shear Modulus (GPa) = 23.59486 24.91392 24.25439
#
# Velocity S-wave (km/s) = 3.51235 3.60919 3.56110
# Velocity P-wave (km/s) = 6.35723 6.46359 6.41063
#
# Compressibility (1/GPa) = 0.02181672
#
# Stress axis : x y z
#
# Youngs Moduli (GPa) = 66.34106 66.34106 90.98320
#
# Poissons Ratio (x) = 0.26280 0.25928
# Poissons Ratio (y) = 0.26280 0.25928
# Poissons Ratio (z) = 0.18906 0.18906
#
# Static dielectric constant tensor:
#      x y z
#    x 1.668340 0.000000 0.000000 
#    y 0.000000 1.668340 0.000000 
#    z 0.000000 0.000000 1.707020 
# 
# From -- ./inp_files/6803.got.cif
#   From: 2010.05.17/outbox.cif.g08.bks.cpg/sg178_4_cif.got.tgz:6803.got - 2010.05.20 11:30:59.
