data_PCOD9582405
_publ_section_title
;
Structure prediction by ZEFSAII (Michael W. Deem and Ramdas Pophale) SiO2 
 PCOD9582405
Probable space group: P 61 2 2
;
_chemical_formula_sum "Si O2"
_cell_formula_units_Z 36
_cell_length_a 17.288321
_cell_length_b 17.288321
_cell_length_c 7.418615
_cell_angle_alpha 90.000000
_cell_angle_beta 90.000000
_cell_angle_gamma 120.000000
_cell_volume 1920.255866
_symmetry_space_group_name_H-M "P 61 2 2"
_symmetry_group_IT_number 178
_symmetry_cell_setting 'hexagonal'
loop_
_space_group_symop_operation_xyz
x,y,z
x-y,x,1/6+z
-y,x-y,1/3+z
-x,-y,1/2+z
-x+y,-x,2/3+z
y,-x+y,5/6+z
x-y,-y,-z
-x,-x+y,2/3-z
y,x,1/3-z
-y,-x,5/6-z
-x+y,y,1/2-z
x,x-y,1/6-z
loop_
_atom_site_type_symbol
_atom_site_label
_atom_site_fract_x
_atom_site_fract_y
_atom_site_fract_z
Si Si1 0.821472 0.344932 0.715376
Si Si2 0.098857 0.901144 0.916667
Si Si3 0.220987 0.610494 0.583334
Si Si4 0.218723 0.316847 0.584166
O O1 0.855469 0.427735 0.583334
O O2 0.713743 0.282989 0.690372
O O3 0.865300 0.283912 0.691433
O O4 0.833639 0.382900 0.917456
O O5 0.160804 0.901995 0.752365
O O6 0.000000 0.862146 0.833334
O O7 0.275055 0.275055 0.666667
O O8 0.158729 0.317457 0.750000
#
# Coordination Sequence:
#
# PCOD9582405 Si02
#       4
#    12   6   6  12
#     4  11  21  38  63  98 132 184 232 274 316 384
#     4  12  28  47  78 106 126 174 224 278 355 430
#     4  10  18  33  62  92 126 176 232 270 309 372
#     4  12  26  47  68 100 144 176 219 284 352 410
#
# _framework density 18.747502000000001
#
# number of rings (size 3 to 8) (size 9 to 14) (size 15 to 20)
#    0.000    0.667   10.000    0.000    4.667    1.333 
#    3.000    0.000    0.000    0.000    0.000    0.000 
#    0.000    0.000    0.000    0.000    0.000    0.000 
#
# Total GULP energy -201098.233201 kJ/mol
# GULP energy per Si atom -5586.062033 kJ/mol
# Density = 1.870483 g / cm^3
# Si number density = 18.747502 Si / 1000 Ang^3
#
#
#
# Elastic Constant Matrix: (Units=GPa)
#
#
# Indices 1 2 3 4 5 6 
#
# 1 181.3389 66.9320 71.6134 0.0000 0.0000 0.0000
# 2 66.9320 181.3389 71.6134 0.0000 0.0000 0.0000
# 3 71.6134 71.6134 125.0126 0.0000 0.0000 0.0000
# 4 0.0000 0.0000 0.0000 43.8557 0.0000 0.0000
# 5 0.0000 0.0000 0.0000 0.0000 43.8557 0.0000
# 6 0.0000 0.0000 0.0000 0.0000 0.0000 57.2035
#
#
#
# Elastic Compliance Matrix: (Units=1/GPa)
#
#
# Indices 1 2 3 4 5 6 
#
# 1 0.007378 -0.001362 -0.003446 0.000000 0.000000 0.000000
# 2 -0.001362 0.007378 -0.003446 0.000000 0.000000 0.000000
# 3 -0.003446 -0.003446 0.011948 0.000000 0.000000 0.000000
# 4 0.000000 0.000000 0.000000 0.022802 0.000000 0.000000
# 5 0.000000 0.000000 0.000000 0.000000 0.022802 0.000000
# 6 0.000000 0.000000 0.000000 0.000000 0.000000 0.017481
#
#
# Mechanical properties :
#
#
# Convention : Reuss Voigt Hill
#
# Bulk Modulus (GPa) = 98.09190 100.88978 99.49084
# Shear Modulus (GPa) = 45.57975 47.48507 46.53241
#
# Velocity S-wave (km/s) = 4.93611 5.03823 4.98743
# Velocity P-wave (km/s) = 9.21538 9.36893 9.29247
#
# Compressibility (1/GPa) = 0.01019452
#
# Stress axis : x y z
#
# Youngs Moduli (GPa) = 135.53141 135.53141 83.69904
#
# Poissons Ratio (x) = 0.18464 0.28845
# Poissons Ratio (y) = 0.18464 0.28845
# Poissons Ratio (z) = 0.46708 0.46708
#
# Static dielectric constant tensor:
#      x y z
#    x 1.630780 0.000000 0.000000 
#    y 0.000000 1.630780 0.000000 
#    z 0.000000 0.000000 1.673670 
# 
# From -- ./inp_files/2287.got.cif
#   From: 2010.05.17/outbox.cif.g08.bks.cpg/sg178_2_cif.got.tgz:2287.got - 2010.05.20 11:30:59.
