data_PCOD9582144
_publ_section_title
;
Structure prediction by ZEFSAII (Michael W. Deem and Ramdas Pophale) SiO2 
 PCOD9582144
Probable space group: P 63/M
;
_chemical_formula_sum "Si O2"
_cell_formula_units_Z 72
_cell_length_a 23.487481
_cell_length_b 23.487481
_cell_length_c 7.510612
_cell_angle_alpha 90.000000
_cell_angle_beta 90.000000
_cell_angle_gamma 120.000000
_cell_volume 3588.218179
_symmetry_space_group_name_H-M "P 63/M"
_symmetry_group_IT_number 176
_symmetry_cell_setting 'hexagonal'
loop_
_space_group_symop_operation_xyz
x,y,z
x-y,x,1/2+z
-y,x-y,z
-x,-y,1/2+z
-x+y,-x,z
y,-x+y,1/2+z
-x,-y,-z
-x+y,-x,1/2-z
y,-x+y,-z
x,y,1/2-z
x-y,x,-z
-y,x-y,1/2-z
loop_
_atom_site_type_symbol
_atom_site_label
_atom_site_fract_x
_atom_site_fract_y
_atom_site_fract_z
Si Si1 0.594802 0.926330 0.036833
Si Si2 0.275006 0.073512 0.536652
Si Si3 0.926488 0.724994 0.963348
Si Si4 0.668471 0.073670 0.963167
Si Si5 0.202206 0.535707 0.032192
Si Si6 0.666498 0.464293 0.967808
O O1 0.594250 0.919784 0.250000
O O2 0.657457 0.921555 0.968228
O O3 0.526433 0.866288 0.971785
O O4 0.610194 0.000000 1.000000
O O5 0.281278 0.079885 0.750000
O O6 0.265877 0.132939 0.469045
O O7 0.217008 1.000000 0.500000
O O8 0.920115 0.718722 0.750000
O O9 0.921555 0.657457 0.031773
O O10 0.674466 0.080216 0.750000
O O11 0.660146 0.133712 0.028215
O O12 0.201993 0.535559 0.250000
O O13 0.264816 0.529631 0.976808
O O14 0.208486 0.604243 0.975802
O O15 0.666434 0.464441 0.750000
#
# Coordination Sequence:
#
# PCOD9582144 Si02
#       6
#    12  12  12  12  12  12
#     4   9  17  29  45  66  91 117 145 180 223 266
#     4   9  17  29  45  65  89 116 145 178 217 260
#     4   9  17  29  45  65  89 116 145 178 217 260
#     4   9  17  29  45  66  91 117 145 180 223 266
#     4   9  16  26  42  64  89 117 150 187 223 259
#     4   9  16  26  42  64  89 117 150 187 223 259
#
# _framework density 20.065669
#
# number of rings (size 3 to 8) (size 9 to 14) (size 15 to 20)
#    0.000    3.000    0.000    1.333    0.000    6.667 
#    0.000    0.000    0.000    3.333    0.000    0.000 
#    0.000    2.667    0.000    0.000    0.000    0.000 
#
# Total GULP energy -401734.267337 kJ/mol
# GULP energy per Si atom -5579.642602 kJ/mol
# Density = 2.002000 g / cm^3
# Si number density = 20.065669 Si / 1000 Ang^3
#
#
#
# Elastic Constant Matrix: (Units=GPa)
#
#
# Indices 1 2 3 4 5 6 
#
# 1 172.1470 125.1043 1.7813 0.0000 0.0000 0.0000
# 2 125.1043 172.1470 1.7813 0.0000 0.0000 0.0000
# 3 1.7813 1.7813 52.1892 0.0000 0.0000 0.0000
# 4 0.0000 0.0000 0.0000 5.2591 0.0000 0.0000
# 5 0.0000 0.0000 0.0000 0.0000 5.2591 0.0000
# 6 0.0000 0.0000 0.0000 0.0000 0.0000 23.5214
#
#
#
# Elastic Compliance Matrix: (Units=1/GPa)
#
#
# Indices 1 2 3 4 5 6 
#
# 1 0.012311 -0.008946 -0.000115 0.000000 0.000000 0.000000
# 2 -0.008946 0.012311 -0.000115 0.000000 0.000000 0.000000
# 3 -0.000115 -0.000115 0.019169 0.000000 0.000000 0.000000
# 4 0.000000 0.000000 0.000000 0.190145 0.000000 0.000000
# 5 0.000000 0.000000 0.000000 0.000000 0.190145 0.000000
# 6 0.000000 0.000000 0.000000 0.000000 0.000000 0.042515
#
#
# Mechanical properties :
#
#
# Convention : Reuss Voigt Hill
#
# Bulk Modulus (GPa) = 39.30746 72.64634 55.97690
# Shear Modulus (GPa) = 10.13320 24.66235 17.39777
#
# Velocity S-wave (km/s) = 2.24966 3.50963 2.94775
# Velocity P-wave (km/s) = 5.13614 7.25990 6.28833
#
# Compressibility (1/GPa) = 0.02544046
#
# Stress axis : x y z
#
# Youngs Moduli (GPa) = 81.22549 81.22549 52.16787
#
# Poissons Ratio (x) = 0.72663 0.00599
# Poissons Ratio (y) = 0.72663 0.00599
# Poissons Ratio (z) = 0.00933 0.00933
#
# Static dielectric constant tensor:
#      x y z
#    x 1.689520 0.000000 0.000000 
#    y 0.000000 1.689520 0.000000 
#    z 0.000000 0.000000 1.778780 
# 
# From -- ./inp_files/1201.got.cif
#   From: 2010.05.17/outbox.cif.g08.bks.cpg/sg176_1_cif.got.tgz:1201.got - 2010.06.03 11:36:45.
