data_PCOD9582417
_publ_section_title
;
Structure prediction by ZEFSAII (Michael W. Deem and Ramdas Pophale) SiO2 
 PCOD9582417
Probable space group: P 61 2 2
;
_chemical_formula_sum "Si O2"
_cell_formula_units_Z 90
_cell_length_a 17.785698
_cell_length_b 17.785698
_cell_length_c 18.550941
_cell_angle_alpha 90.000000
_cell_angle_beta 90.000000
_cell_angle_gamma 120.000000
_cell_volume 5082.043796
_symmetry_space_group_name_H-M "P 61 2 2"
_symmetry_group_IT_number 178
_symmetry_cell_setting 'hexagonal'
loop_
_space_group_symop_operation_xyz
x,y,z
x-y,x,1/6+z
-y,x-y,1/3+z
-x,-y,1/2+z
-x+y,-x,2/3+z
y,-x+y,5/6+z
x-y,-y,-z
-x,-x+y,2/3-z
y,x,1/3-z
-y,-x,5/6-z
-x+y,y,1/2-z
x,x-y,1/6-z
loop_
_atom_site_type_symbol
_atom_site_label
_atom_site_fract_x
_atom_site_fract_y
_atom_site_fract_z
Si Si1 0.014127 0.569001 0.415276
Si Si2 0.647543 0.261691 0.030277
Si Si3 0.868120 0.602700 0.967056
Si Si4 0.405663 0.591174 0.048054
Si Si5 0.576619 0.956244 0.629349
Si Si6 0.695280 0.158156 0.137853
Si Si7 0.100770 0.770761 0.859433
Si Si8 0.430079 0.569922 0.416667
O O1 0.111049 0.617281 0.446138
O O2 0.000000 0.587507 0.333334
O O3 0.993895 0.469296 0.418299
O O4 0.944947 0.577216 0.464930
O O5 0.608588 0.304294 0.083334
O O6 0.673734 0.197781 0.068920
O O7 0.588714 0.213701 0.962883
O O8 0.735549 0.340107 0.998511
O O9 0.845129 0.503646 0.980975
O O10 0.856800 0.628992 0.885372
O O11 0.970979 0.646666 0.983047
O O12 0.795003 0.606121 0.015181
O O13 0.592771 0.897311 0.573751
O O14 0.512000 0.913814 0.696571
O O15 0.655400 0.190454 0.201748
O O16 0.148034 0.851967 0.916667
O O17 0.000000 0.737528 0.833334
#
# Coordination Sequence:
#
# PCOD9582417 Si02
#       8
#    12  12  12  12  12  12  12   6
#     4  10  18  35  51  64  90 132 174 205 243 309
#     4  11  22  33  47  68  94 123 165 218 267 290
#     4  10  20  32  51  73  99 130 170 210 265 301
#     4  10  21  35  50  65  94 132 169 211 262 306
#     4   9  19  34  50  70  97 138 174 207 254 307
#     4  11  22  32  47  70  94 122 171 216 256 297
#     4  10  20  35  55  78 106 137 167 205 256 319
#     4  10  22  32  46  72  98 132 182 212 254 312
#
# _framework density 17.709412
#
# number of rings (size 3 to 8) (size 9 to 14) (size 15 to 20)
#    0.000    1.867    2.667    2.800    3.733    3.733 
#    1.200    0.000    0.000    0.000    0.000    0.000 
#    0.000    4.267    0.000    0.000    0.000    0.000 
#
# Total GULP energy -501026.563082 kJ/mol
# GULP energy per Si atom -5566.961812 kJ/mol
# Density = 1.766910 g / cm^3
# Si number density = 17.709412 Si / 1000 Ang^3
#
#
#
# Elastic Constant Matrix: (Units=GPa)
#
#
# Indices 1 2 3 4 5 6 
#
# 1 38.4664 9.3012 -1.1652 0.0000 0.0000 0.0000
# 2 9.3012 38.4664 -1.1652 0.0000 0.0000 0.0000
# 3 -1.1652 -1.1652 31.7870 0.0000 0.0000 0.0000
# 4 0.0000 0.0000 0.0000 18.0649 0.0000 0.0000
# 5 0.0000 0.0000 0.0000 0.0000 18.0649 0.0000
# 6 0.0000 0.0000 0.0000 0.0000 0.0000 14.5826
#
#
#
# Elastic Compliance Matrix: (Units=1/GPa)
#
#
# Indices 1 2 3 4 5 6 
#
# 1 0.027630 -0.006658 0.000769 0.000000 0.000000 0.000000
# 2 -0.006658 0.027630 0.000769 0.000000 0.000000 0.000000
# 3 0.000769 0.000769 0.031516 0.000000 0.000000 0.000000
# 4 0.000000 0.000000 0.000000 0.055356 0.000000 0.000000
# 5 0.000000 0.000000 0.000000 0.000000 0.055356 0.000000
# 6 0.000000 0.000000 0.000000 0.000000 0.000000 0.068575
#
#
# Mechanical properties :
#
#
# Convention : Reuss Voigt Hill
#
# Bulk Modulus (GPa) = 13.06590 13.62907 13.34749
# Shear Modulus (GPa) = 16.56648 16.92574 16.74611
#
# Velocity S-wave (km/s) = 3.06185 3.09487 3.07841
# Velocity P-wave (km/s) = 4.46025 4.52588 4.49319
#
# Compressibility (1/GPa) = 0.07653510
#
# Stress axis : x y z
#
# Youngs Moduli (GPa) = 36.19280 36.19280 31.73016
#
# Poissons Ratio (x) = 0.24096 -0.02439
# Poissons Ratio (y) = 0.24096 -0.02439
# Poissons Ratio (z) = -0.02782 -0.02782
#
# Static dielectric constant tensor:
#      x y z
#    x 1.669630 0.000000 0.000000 
#    y 0.000000 1.669630 0.000000 
#    z 0.000000 0.000000 1.665220 
# 
# From -- ./inp_files/6991.got.cif
#   From: 2010.05.17/outbox.cif.g08.bks.cpg/sg178_4_cif.got.tgz:6991.got - 2010.05.20 11:30:59.
