data_PCOD9582254
_publ_section_title
;
Structure prediction by ZEFSAII (Michael W. Deem and Ramdas Pophale) SiO2 
 PCOD9582254
Probable space group: P 6 2 2
;
_chemical_formula_sum "Si O2"
_cell_formula_units_Z 48
_cell_length_a 17.530473
_cell_length_b 17.530473
_cell_length_c 8.300168
_cell_angle_alpha 90.000000
_cell_angle_beta 90.000000
_cell_angle_gamma 120.000000
_cell_volume 2209.046119
_symmetry_space_group_name_H-M "P 6 2 2"
_symmetry_group_IT_number 177
_symmetry_cell_setting 'hexagonal'
loop_
_space_group_symop_operation_xyz
x,y,z
x-y,x,z
-y,x-y,z
-x,-y,z
-x+y,-x,z
y,-x+y,z
x-y,-y,-z
-x,-x+y,-z
y,x,-z
-y,-x,-z
-x+y,y,-z
x,x-y,-z
loop_
_atom_site_type_symbol
_atom_site_label
_atom_site_fract_x
_atom_site_fract_y
_atom_site_fract_z
Si Si1 0.683763 0.887677 0.343314
Si Si2 0.523181 0.309711 0.655169
Si Si3 0.263433 0.320655 0.839348
Si Si4 0.470165 0.836268 0.841471
O O1 0.716231 0.858116 0.500000
O O2 0.580028 0.850425 0.366722
O O3 0.690900 0.832178 0.193595
O O4 0.723836 0.988774 0.301193
O O5 0.552775 0.276388 0.500000
O O6 0.570513 0.411884 0.696442
O O7 0.537138 0.258456 0.806179
O O8 0.331636 0.425933 0.835688
O O9 0.282410 0.282410 0.000000
O O10 0.422338 0.844676 0.000000
#
# Coordination Sequence:
#
# PCOD9582254 Si02
#       4
#    12  12  12  12
#     4  10  22  41  64  89 121 163 209 263 329 398
#     4  10  21  37  56  81 119 169 221 268 318 379
#     4  11  23  40  64  94 127 165 213 271 338 406
#     4  11  22  36  58  88 126 173 221 274 329 385
#
# _framework density 21.728836000000001
#
# number of rings (size 3 to 8) (size 9 to 14) (size 15 to 20)
#    0.000    1.500    0.000    5.000    0.000    7.500 
#    0.000    2.500    0.000   18.500    0.000    3.500 
#    0.000    0.000    0.000    0.000    0.000    0.000 
#
# Total GULP energy -268056.642511 kJ/mol
# GULP energy per Si atom -5584.513386 kJ/mol
# Density = 2.167938 g / cm^3
# Si number density = 21.728836 Si / 1000 Ang^3
#
#
#
# Elastic Constant Matrix: (Units=GPa)
#
#
# Indices 1 2 3 4 5 6 
#
# 1 93.1489 47.4030 29.5376 0.0000 0.0000 0.0000
# 2 47.4030 93.1489 29.5376 0.0000 0.0000 0.0000
# 3 29.5376 29.5376 116.2912 0.0000 0.0000 0.0000
# 4 0.0000 0.0000 0.0000 26.2412 0.0000 0.0000
# 5 0.0000 0.0000 0.0000 0.0000 26.2412 0.0000
# 6 0.0000 0.0000 0.0000 0.0000 0.0000 22.8729
#
#
#
# Elastic Compliance Matrix: (Units=1/GPa)
#
#
# Indices 1 2 3 4 5 6 
#
# 1 0.014913 -0.006947 -0.002023 0.000000 0.000000 0.000000
# 2 -0.006947 0.014913 -0.002023 0.000000 0.000000 0.000000
# 3 -0.002023 -0.002023 0.009627 0.000000 0.000000 0.000000
# 4 0.000000 0.000000 0.000000 0.038108 0.000000 0.000000
# 5 0.000000 0.000000 0.000000 0.000000 0.038108 0.000000
# 6 0.000000 0.000000 0.000000 0.000000 0.000000 0.043720
#
#
# Mechanical properties :
#
#
# Convention : Reuss Voigt Hill
#
# Bulk Modulus (GPa) = 57.25858 57.28285 57.27071
# Shear Modulus (GPa) = 26.70990 28.14511 27.42751
#
# Velocity S-wave (km/s) = 3.50985 3.60292 3.55669
# Velocity P-wave (km/s) = 6.54477 6.61270 6.57883
#
# Compressibility (1/GPa) = 0.01746463
#
# Stress axis : x y z
#
# Youngs Moduli (GPa) = 67.05776 67.05776 103.87625
#
# Poissons Ratio (x) = 0.46588 0.21015
# Poissons Ratio (y) = 0.46588 0.21015
# Poissons Ratio (z) = 0.13567 0.13567
#
# Static dielectric constant tensor:
#      x y z
#    x 1.775460 0.000000 0.000000 
#    y 0.000000 1.775460 0.000000 
#    z 0.000000 0.000000 1.941640 
# 
# From -- ./inp_files/1106.got.cif
#   From: 2010.05.17/outbox.cif.g08.bks.cpg/sg177_1_cif.got.tgz:1106.got - 2010.05.20 11:28:44.
