data_PCOD9582569
_publ_section_title
;
Structure prediction by ZEFSAII (Michael W. Deem and Ramdas Pophale) SiO2 
 PCOD9582569
Probable space group: P 61 2 2
;
_chemical_formula_sum "Si O2"
_cell_formula_units_Z 72
_cell_length_a 14.375188
_cell_length_b 14.375188
_cell_length_c 20.624826
_cell_angle_alpha 90.000000
_cell_angle_beta 90.000000
_cell_angle_gamma 120.000000
_cell_volume 3691.033538
_symmetry_space_group_name_H-M "P 61 2 2"
_symmetry_group_IT_number 178
_symmetry_cell_setting 'hexagonal'
loop_
_space_group_symop_operation_xyz
x,y,z
x-y,x,1/6+z
-y,x-y,1/3+z
-x,-y,1/2+z
-x+y,-x,2/3+z
y,-x+y,5/6+z
x-y,-y,-z
-x,-x+y,2/3-z
y,x,1/3-z
-y,-x,5/6-z
-x+y,y,1/2-z
x,x-y,1/6-z
loop_
_atom_site_type_symbol
_atom_site_label
_atom_site_fract_x
_atom_site_fract_y
_atom_site_fract_z
Si Si1 0.796917 0.552339 0.995491
Si Si2 0.526988 0.763494 0.583334
Si Si3 0.609565 0.607107 0.588710
Si Si4 0.779536 0.170713 0.802309
Si Si5 0.288335 0.288335 0.666667
Si Si6 0.583753 0.609088 0.299442
Si Si7 0.305521 0.677031 0.339217
O O1 0.848245 0.623965 0.059185
O O2 0.685606 0.554716 0.991340
O O3 0.756415 0.428695 0.014825
O O4 0.885204 0.592316 0.938666
O O5 0.602834 0.712941 0.572306
O O6 0.441004 0.702669 0.642066
O O7 0.597310 0.597310 0.666667
O O8 0.503764 0.516144 0.552923
O O9 0.772155 0.277889 0.818029
O O10 0.884913 0.181016 0.836375
O O11 0.670997 0.076800 0.829917
O O12 0.358611 0.338814 0.731112
O O13 0.316692 0.683309 0.416667
#
# Coordination Sequence:
#
# PCOD9582569 Si02
#       7
#    12   6  12  12   6  12  12
#     4  11  24  39  56  91 127 158 214 261 313 387
#     4  12  24  42  60  90 132 170 222 262 312 412
#     4  12  25  42  63  91 130 178 224 267 331 407
#     4  11  22  37  61  89 128 159 204 260 327 382
#     4  10  20  36  56  94 118 158 204 252 324 394
#     4  11  21  38  62  90 124 164 205 266 324 386
#     4  12  21  35  58  87 125 165 202 256 312 380
#
# _framework density 19.506730999999998
#
# number of rings (size 3 to 8) (size 9 to 14) (size 15 to 20)
#    0.000    0.667    5.833    3.500    0.000    2.667 
#    0.000    0.000    0.000    0.000   10.833    0.000 
#    0.000    0.000    0.000    0.000    0.000    0.000 
#
# Total GULP energy -401658.111924 kJ/mol
# GULP energy per Si atom -5578.584888 kJ/mol
# Density = 1.946233 g / cm^3
# Si number density = 19.506731 Si / 1000 Ang^3
#
#
#
# Elastic Constant Matrix: (Units=GPa)
#
#
# Indices 1 2 3 4 5 6 
#
# 1 85.2343 40.6634 36.3734 0.0000 0.0000 0.0000
# 2 40.6634 85.2343 36.3734 0.0000 0.0000 0.0000
# 3 36.3734 36.3734 72.6605 0.0000 0.0000 0.0000
# 4 0.0000 0.0000 0.0000 22.3278 0.0000 0.0000
# 5 0.0000 0.0000 0.0000 0.0000 22.3278 0.0000
# 6 0.0000 0.0000 0.0000 0.0000 0.0000 22.2855
#
#
#
# Elastic Compliance Matrix: (Units=1/GPa)
#
#
# Indices 1 2 3 4 5 6 
#
# 1 0.016806 -0.005630 -0.005594 0.000000 0.000000 0.000000
# 2 -0.005630 0.016806 -0.005594 0.000000 0.000000 0.000000
# 3 -0.005594 -0.005594 0.019364 0.000000 0.000000 0.000000
# 4 0.000000 0.000000 0.000000 0.044787 0.000000 0.000000
# 5 0.000000 0.000000 0.000000 0.000000 0.044787 0.000000
# 6 0.000000 0.000000 0.000000 0.000000 0.000000 0.044872
#
#
# Mechanical properties :
#
#
# Convention : Reuss Voigt Hill
#
# Bulk Modulus (GPa) = 51.71392 52.21659 51.96526
# Shear Modulus (GPa) = 21.97742 22.03613 22.00677
#
# Velocity S-wave (km/s) = 3.36021 3.36470 3.36246
# Velocity P-wave (km/s) = 6.45160 6.47469 6.46315
#
# Compressibility (1/GPa) = 0.01933715
#
# Stress axis : x y z
#
# Youngs Moduli (GPa) = 59.50311 59.50311 51.64307
#
# Poissons Ratio (x) = 0.33502 0.28891
# Poissons Ratio (y) = 0.33502 0.28891
# Poissons Ratio (z) = 0.33288 0.33288
#
# Static dielectric constant tensor:
#      x y z
#    x 1.729050 0.000000 0.000000 
#    y 0.000000 1.729050 0.000000 
#    z 0.000000 0.000000 1.752040 
# 
# From -- ./inp_files/7696.got.cif
#   From: 2010.05.17/outbox.cif.g08.bks.cpg/sg178_4_cif.got.tgz:7696.got - 2010.05.20 11:30:59.
