data_PCOD9582045
_publ_section_title
;
Structure prediction by ZEFSAII (Michael W. Deem and Ramdas Pophale) SiO2 
 PCOD9582045
Probable space group: P 63/M
;
_chemical_formula_sum "Si O2"
_cell_formula_units_Z 66
_cell_length_a 20.367291
_cell_length_b 20.367291
_cell_length_c 8.074612
_cell_angle_alpha 90.000000
_cell_angle_beta 90.000000
_cell_angle_gamma 120.000000
_cell_volume 2900.806978
_symmetry_space_group_name_H-M "P 63/M"
_symmetry_group_IT_number 176
_symmetry_cell_setting 'hexagonal'
loop_
_space_group_symop_operation_xyz
x,y,z
x-y,x,1/2+z
-y,x-y,z
-x,-y,1/2+z
-x+y,-x,z
y,-x+y,1/2+z
-x,-y,-z
-x+y,-x,1/2-z
y,-x+y,-z
x,y,1/2-z
x-y,x,-z
-y,x-y,1/2-z
loop_
_atom_site_type_symbol
_atom_site_label
_atom_site_fract_x
_atom_site_fract_y
_atom_site_fract_z
Si Si1 0.557513 0.864737 0.444880
Si Si2 0.135573 0.345797 0.451944
Si Si3 0.579165 0.328600 0.250000
Si Si4 0.170554 0.105772 0.555739
Si Si5 0.967458 0.584652 0.446500
Si Si6 0.165039 0.558251 0.067226
O O1 0.578136 0.876260 0.250000
O O2 0.599739 0.821847 0.510725
O O3 0.466819 0.825914 0.448824
O O4 0.588794 0.948812 0.514458
O O5 0.133031 0.350837 0.250000
O O6 0.106391 0.258543 0.497601
O O7 0.080964 0.373484 0.526544
O O8 0.597524 0.261534 0.250000
O O9 0.543624 0.335946 0.418598
O O10 0.169225 0.120538 0.750000
O O11 0.119480 0.135695 0.470241
O O12 0.970060 0.569949 0.250000
O O13 0.922327 0.505328 0.542941
O O14 0.191094 0.550520 0.250000
#
# Coordination Sequence:
#
# PCOD9582045 Si02
#       6
#    12  12   6  12  12  12
#     4   9  21  40  63  89 123 168 211 260 320 380
#     4  10  22  40  62  91 126 163 214 263 320 388
#     4  10  26  44  64  96 136 158 218 262 316 386
#     4  11  23  40  64  90 127 165 212 264 319 387
#     4  11  22  40  64  92 128 168 214 267 319 380
#     4  11  23  42  68  94 129 172 213 265 324 383
#
# _framework density 22.752288
#
# number of rings (size 3 to 8) (size 9 to 14) (size 15 to 20)
#    0.182    1.455    0.909    2.909    2.545    3.636 
#    3.273    0.000    0.000    0.000    0.000    0.000 
#    0.000    0.000    0.000    0.000    0.000    0.000 
#
# Total GULP energy -369027.822408 kJ/mol
# GULP energy per Si atom -5591.330643 kJ/mol
# Density = 2.270050 g / cm^3
# Si number density = 22.752288 Si / 1000 Ang^3
#
#
#
# Elastic Constant Matrix: (Units=GPa)
#
#
# Indices 1 2 3 4 5 6 
#
# 1 82.7214 6.5968 16.6670 0.0000 0.0000 0.0000
# 2 6.5968 82.7214 16.6670 0.0000 0.0000 0.0000
# 3 16.6670 16.6670 86.6915 0.0000 0.0000 0.0000
# 4 0.0000 0.0000 0.0000 22.3088 0.0000 0.0000
# 5 0.0000 0.0000 0.0000 0.0000 22.3088 0.0000
# 6 0.0000 0.0000 0.0000 0.0000 0.0000 38.0623
#
#
#
# Elastic Compliance Matrix: (Units=1/GPa)
#
#
# Indices 1 2 3 4 5 6 
#
# 1 0.012599 -0.000538 -0.002319 0.000000 0.000000 0.000000
# 2 -0.000538 0.012599 -0.002319 0.000000 0.000000 0.000000
# 3 -0.002319 -0.002319 0.012427 0.000000 0.000000 0.000000
# 4 0.000000 0.000000 0.000000 0.044825 0.000000 0.000000
# 5 0.000000 0.000000 0.000000 0.000000 0.044825 0.000000
# 6 0.000000 0.000000 0.000000 0.000000 0.000000 0.026273
#
#
# Mechanical properties :
#
#
# Convention : Reuss Voigt Hill
#
# Bulk Modulus (GPa) = 36.66495 36.88842 36.77669
# Shear Modulus (GPa) = 28.90344 30.68288 29.79316
#
# Velocity S-wave (km/s) = 3.56807 3.67626 3.62257
# Velocity P-wave (km/s) = 5.75540 5.85390 5.80486
#
# Compressibility (1/GPa) = 0.02727400
#
# Stress axis : x y z
#
# Youngs Moduli (GPa) = 79.37235 79.37235 80.47132
#
# Poissons Ratio (x) = 0.04266 0.18660
# Poissons Ratio (y) = 0.04266 0.18660
# Poissons Ratio (z) = 0.18405 0.18405
#
# Static dielectric constant tensor:
#      x y z
#    x 1.839830 0.000000 0.000000 
#    y 0.000000 1.839830 0.000000 
#    z 0.000000 0.000000 1.851250 
# 
# From -- ./inp_files/995.got.cif
#   From: 2010.05.17/outbox.cif.g08.bks.cpg/sg176_1_cif.got.tgz:995.got - 2010.06.03 11:36:45.
