data_PCOD9582668
_publ_section_title
;
Structure prediction by ZEFSAII (Michael W. Deem and Ramdas Pophale) SiO2 
 PCOD9582668
Probable space group: P 61 2 2
;
_chemical_formula_sum "Si O2"
_cell_formula_units_Z 48
_cell_length_a 16.882086
_cell_length_b 16.882086
_cell_length_c 9.714223
_cell_angle_alpha 90.000000
_cell_angle_beta 90.000000
_cell_angle_gamma 120.000000
_cell_volume 2397.678325
_symmetry_space_group_name_H-M "P 61 2 2"
_symmetry_group_IT_number 178
_symmetry_cell_setting 'hexagonal'
loop_
_space_group_symop_operation_xyz
x,y,z
x-y,x,1/6+z
-y,x-y,1/3+z
-x,-y,1/2+z
-x+y,-x,2/3+z
y,-x+y,5/6+z
x-y,-y,-z
-x,-x+y,2/3-z
y,x,1/3-z
-y,-x,5/6-z
-x+y,y,1/2-z
x,x-y,1/6-z
loop_
_atom_site_type_symbol
_atom_site_label
_atom_site_fract_x
_atom_site_fract_y
_atom_site_fract_z
Si Si1 0.368618 0.091103 0.825616
Si Si2 0.153546 0.493196 0.757632
Si Si3 0.493196 0.339650 0.090966
Si Si4 0.091103 0.722485 0.158949
O O1 0.457978 0.118347 0.729048
O O2 0.345157 0.172579 0.833333
O O3 0.292352 0.000000 0.750000
O O4 0.404915 0.095913 0.979289
O O5 0.259041 0.518081 0.750000
O O6 0.146426 0.573213 0.833333
O O7 0.095914 0.404916 0.854044
O O8 0.518080 0.259040 0.083334
O O9 0.457978 0.339632 0.937619
#
# Coordination Sequence:
#
# PCOD9582668 Si02
#       4
#    12  12  12  12
#     4  10  21  36  53  76 106 139 180 227 278 332
#     4  10  21  34  51  76 108 147 186 223 264 314
#     4  10  21  34  51  76 108 147 186 223 264 314
#     4  10  21  36  53  76 106 139 180 227 278 332
#
# _framework density 20.019366000000002
#
# number of rings (size 3 to 8) (size 9 to 14) (size 15 to 20)
#    0.000    2.000    0.000    3.000    0.000   12.000 
#    0.000    0.000    0.000    0.000    0.000    0.000 
#    0.000  110.000    0.000    0.000    0.000    0.000 
#
# Total GULP energy -267221.471414 kJ/mol
# GULP energy per Si atom -5567.113988 kJ/mol
# Density = 1.997380 g / cm^3
# Si number density = 20.019366 Si / 1000 Ang^3
#
#
#
# Elastic Constant Matrix: (Units=GPa)
#
#
# Indices 1 2 3 4 5 6 
#
# 1 70.6234 81.1405 7.3139 0.0000 0.0000 0.0000
# 2 81.1405 70.6234 7.3139 0.0000 0.0000 0.0000
# 3 7.3139 7.3139 105.5904 0.0000 0.0000 0.0000
# 4 0.0000 0.0000 0.0000 26.0223 0.0000 0.0000
# 5 0.0000 0.0000 0.0000 0.0000 26.0223 0.0000
# 6 0.0000 0.0000 0.0000 0.0000 0.0000 -5.2586
#
#
#
# Elastic Compliance Matrix: (Units=1/GPa)
#
#
# Indices 1 2 3 4 5 6 
#
# 1 -0.044225 0.050858 -0.000459 0.000000 0.000000 0.000000
# 2 0.050858 -0.044225 -0.000459 0.000000 0.000000 0.000000
# 3 -0.000459 -0.000459 0.009534 0.000000 0.000000 0.000000
# 4 0.000000 0.000000 0.000000 0.038429 0.000000 0.000000
# 5 0.000000 0.000000 0.000000 0.000000 0.038429 0.000000
# 6 0.000000 0.000000 0.000000 0.000000 0.000000 -0.190166
#
#
# Mechanical properties :
#
#
# Convention : Reuss Voigt Hill
#
# Bulk Modulus (GPa) = 47.70256 48.70820 48.20538
# Shear Modulus (GPa) = -17.53682 19.42845 0.94582
#
# Velocity S-wave (km/s) = -2.96293 3.11864 0.68810
# Velocity P-wave (km/s) = 3.48922 6.11156 4.97624
#
# Compressibility (1/GPa) = 0.02096324
#
# Stress axis : x y z
#
# Youngs Moduli (GPa) = -22.61179 -22.61179 104.88550
#
# Poissons Ratio (x) = 1.14999 0.04819
# Poissons Ratio (y) = 1.14999 0.04819
# Poissons Ratio (z) = -0.01039 -0.01039
#
# Static dielectric constant tensor:
#      x y z
#    x 1.768530 0.000000 0.000000 
#    y 0.000000 1.768530 0.000000 
#    z 0.000000 0.000000 1.644820 
# 
# From -- ./inp_files/2544.got.cif
#   From: 2010.05.17/outbox.cif.g08.bks.cpg/sg178_2_cif.got.tgz:2544.got - 2010.05.20 11:30:59.
