data_PCOD9582824
_publ_section_title
;
Structure prediction by ZEFSAII (Michael W. Deem and Ramdas Pophale) SiO2 
 PCOD9582824
Probable space group: P 61 2 2
;
_chemical_formula_sum "Si O2"
_cell_formula_units_Z 60
_cell_length_a 13.859780
_cell_length_b 13.859780
_cell_length_c 14.929009
_cell_angle_alpha 90.000000
_cell_angle_beta 90.000000
_cell_angle_gamma 120.000000
_cell_volume 2483.557875
_symmetry_space_group_name_H-M "P 61 2 2"
_symmetry_group_IT_number 178
_symmetry_cell_setting 'hexagonal'
loop_
_space_group_symop_operation_xyz
x,y,z
x-y,x,1/6+z
-y,x-y,1/3+z
-x,-y,1/2+z
-x+y,-x,2/3+z
y,-x+y,5/6+z
x-y,-y,-z
-x,-x+y,2/3-z
y,x,1/3-z
-y,-x,5/6-z
-x+y,y,1/2-z
x,x-y,1/6-z
loop_
_atom_site_type_symbol
_atom_site_label
_atom_site_fract_x
_atom_site_fract_y
_atom_site_fract_z
Si Si1 0.012783 0.757227 0.427292
Si Si2 0.081466 0.162932 0.250000
Si Si3 0.000000 0.593333 0.833334
Si Si4 0.945405 0.221572 0.121414
Si Si5 0.760898 0.239103 0.416667
Si Si6 0.284221 0.642111 0.083334
Si Si7 0.123367 0.512450 0.494341
O O1 0.130840 0.869161 0.416667
O O2 0.008826 0.714292 0.527583
O O3 0.000000 0.694538 0.333334
O O4 0.908750 0.778892 0.431985
O O5 0.097054 0.097054 0.166667
O O6 0.196534 0.228786 0.305003
O O7 0.116489 0.702477 0.867505
O O8 0.038911 0.549118 0.751083
O O9 0.873564 0.271863 0.161380
O O10 0.678296 0.229399 0.332484
O O11 0.362568 0.755280 0.135767
O O12 0.083981 0.541991 0.583334
#
# Coordination Sequence:
#
# PCOD9582824 Si02
#       7
#    12   6   6  12   6   6  12
#     4   9  20  40  62 102 148 191 235 289 359 456
#     4  12  26  41  68 109 154 211 258 297 376 466
#     4  10  26  46  80 118 164 202 268 330 410 482
#     4  11  23  40  70 105 147 202 244 304 375 462
#     4  10  22  47  79 122 158 217 268 351 412 508
#     4  10  22  50  81 105 158 206 270 342 414 466
#     4  11  26  50  75 111 149 198 266 327 398 469
#
# _framework density 24.15889
#
# number of rings (size 3 to 8) (size 9 to 14) (size 15 to 20)
#    0.000    1.600    3.000    0.000    4.200    4.000 
#    7.200    0.000    0.000    0.000    0.000    0.000 
#    0.000    0.000    0.000    0.000    0.000    0.000 
#
# Total GULP energy -334259.045629 kJ/mol
# GULP energy per Si atom -5570.984094 kJ/mol
# Density = 2.410390 g / cm^3
# Si number density = 24.158890 Si / 1000 Ang^3
#
#
#
# Elastic Constant Matrix: (Units=GPa)
#
#
# Indices 1 2 3 4 5 6 
#
# 1 56.4184 55.1462 53.7799 0.0000 0.0000 0.0000
# 2 55.1462 56.4184 53.7799 0.0000 0.0000 0.0000
# 3 53.7799 53.7799 251.4664 0.0000 0.0000 0.0000
# 4 0.0000 0.0000 0.0000 26.9934 0.0000 0.0000
# 5 0.0000 0.0000 0.0000 0.0000 26.9934 0.0000
# 6 0.0000 0.0000 0.0000 0.0000 0.0000 0.6361
#
#
#
# Elastic Compliance Matrix: (Units=1/GPa)
#
#
# Indices 1 2 3 4 5 6 
#
# 1 0.398669 -0.387378 -0.002415 0.000000 0.000000 0.000000
# 2 -0.387378 0.398669 -0.002415 0.000000 0.000000 0.000000
# 3 -0.002415 -0.002415 0.005010 0.000000 0.000000 0.000000
# 4 0.000000 0.000000 0.000000 0.037046 0.000000 0.000000
# 5 0.000000 0.000000 0.000000 0.000000 0.037046 0.000000
# 6 0.000000 0.000000 0.000000 0.000000 0.000000 1.572094
#
#
# Mechanical properties :
#
#
# Convention : Reuss Voigt Hill
#
# Bulk Modulus (GPa) = 55.76218 76.63498 66.19858
# Shear Modulus (GPa) = 1.54372 24.36441 12.95407
#
# Velocity S-wave (km/s) = 0.80023 3.17915 2.31812
# Velocity P-wave (km/s) = 4.89749 6.72801 5.88436
#
# Compressibility (1/GPa) = 0.01793330
#
# Stress axis : x y z
#
# Youngs Moduli (GPa) = 2.50834 2.50834 199.61706
#
# Poissons Ratio (x) = 0.97168 0.48205
# Poissons Ratio (y) = 0.97168 0.48205
# Poissons Ratio (z) = 0.00606 0.00606
#
# Static dielectric constant tensor:
#      x y z
#    x 1.928940 0.000000 0.000000 
#    y 0.000000 1.928940 0.000000 
#    z 0.000000 0.000000 1.825960 
# 
# From -- ./inp_files/5787.got.cif
#   From: 2010.05.17/outbox.cif.g08.bks.cpg/sg178_3_cif.got.tgz:5787.got - 2010.05.20 11:30:59.
