data_PCOD9582587
_publ_section_title
;
Structure prediction by ZEFSAII (Michael W. Deem and Ramdas Pophale) SiO2 
 PCOD9582587
Probable space group: P 61 2 2
;
_chemical_formula_sum "Si O2"
_cell_formula_units_Z 48
_cell_length_a 25.456461
_cell_length_b 25.456461
_cell_length_c 5.019270
_cell_angle_alpha 90.000000
_cell_angle_beta 90.000000
_cell_angle_gamma 120.000000
_cell_volume 2816.872852
_symmetry_space_group_name_H-M "P 61 2 2"
_symmetry_group_IT_number 178
_symmetry_cell_setting 'hexagonal'
loop_
_space_group_symop_operation_xyz
x,y,z
x-y,x,1/6+z
-y,x-y,1/3+z
-x,-y,1/2+z
-x+y,-x,2/3+z
y,-x+y,5/6+z
x-y,-y,-z
-x,-x+y,2/3-z
y,x,1/3-z
-y,-x,5/6-z
-x+y,y,1/2-z
x,x-y,1/6-z
loop_
_atom_site_type_symbol
_atom_site_label
_atom_site_fract_x
_atom_site_fract_y
_atom_site_fract_z
Si Si1 0.333074 0.561961 0.075924
Si Si2 0.416691 0.352047 0.545710
Si Si3 0.598857 0.095136 0.380934
Si Si4 0.753948 0.177866 0.683175
O O1 0.286249 0.572498 0.250000
O O2 0.378437 0.543544 0.217160
O O3 0.290430 0.496654 0.935424
O O4 0.377269 0.622732 0.916667
O O5 0.368318 0.368318 0.666667
O O6 0.460917 0.398432 0.318080
O O7 0.395913 0.289814 0.386660
O O8 0.454283 0.356968 0.812426
O O9 0.533191 0.066382 0.250000
O O10 0.790923 0.209078 0.416667
O O11 0.801419 0.198582 0.916667
#
# Coordination Sequence:
#
# PCOD9582587 Si02
#       4
#    12  12  12  12
#     4  10  21  37  52  67  90 118 155 197 241 295
#     4  11  22  36  56  78  96 119 156 195 229 282
#     4  11  22  38  53  68  95 123 148 189 246 299
#     4  10  20  37  55  71  96 128 153 183 238 298
#
# _framework density 17.040172999999999
#
# number of rings (size 3 to 8) (size 9 to 14) (size 15 to 20)
#    0.000    1.500    0.000    9.000    0.000    2.000 
#    0.000   13.750    0.000    0.000    0.000    0.000 
#    0.000    0.000    0.000    0.000    0.000    0.000 
#
# Total GULP energy -267586.604099 kJ/mol
# GULP energy per Si atom -5574.720919 kJ/mol
# Density = 1.700139 g / cm^3
# Si number density = 17.040173 Si / 1000 Ang^3
#
#
#
# Elastic Constant Matrix: (Units=GPa)
#
#
# Indices 1 2 3 4 5 6 
#
# 1 72.0984 42.9318 35.6770 0.0000 0.0000 0.0000
# 2 42.9318 72.0984 35.6770 0.0000 0.0000 0.0000
# 3 35.6770 35.6770 97.3076 0.0000 0.0000 0.0000
# 4 0.0000 0.0000 0.0000 19.3031 0.0000 0.0000
# 5 0.0000 0.0000 0.0000 0.0000 19.3031 0.0000
# 6 0.0000 0.0000 0.0000 0.0000 0.0000 14.5833
#
#
#
# Elastic Compliance Matrix: (Units=1/GPa)
#
#
# Indices 1 2 3 4 5 6 
#
# 1 0.022769 -0.011517 -0.004126 0.000000 0.000000 0.000000
# 2 -0.011517 0.022769 -0.004126 0.000000 0.000000 0.000000
# 3 -0.004126 -0.004126 0.013302 0.000000 0.000000 0.000000
# 4 0.000000 0.000000 0.000000 0.051805 0.000000 0.000000
# 5 0.000000 0.000000 0.000000 0.000000 0.051805 0.000000
# 6 0.000000 0.000000 0.000000 0.000000 0.000000 0.068571
#
#
# Mechanical properties :
#
#
# Convention : Reuss Voigt Hill
#
# Bulk Modulus (GPa) = 51.80154 52.23066 52.01610
# Shear Modulus (GPa) = 18.05103 19.11915 18.58509
#
# Velocity S-wave (km/s) = 3.25825 3.35327 3.30610
# Velocity P-wave (km/s) = 6.67987 6.76096 6.72053
#
# Compressibility (1/GPa) = 0.01930444
#
# Stress axis : x y z
#
# Youngs Moduli (GPa) = 43.91915 43.91915 75.17693
#
# Poissons Ratio (x) = 0.50580 0.31015
# Poissons Ratio (y) = 0.50580 0.31015
# Poissons Ratio (z) = 0.18119 0.18119
#
# Static dielectric constant tensor:
#      x y z
#    x 1.549820 0.000000 0.000000 
#    y 0.000000 1.549820 0.000000 
#    z 0.000000 0.000000 1.678110 
# 
# From -- ./inp_files/1068.got.cif
#   From: 2010.05.17/outbox.cif.g08.bks.cpg/sg178_1_cif.got.tgz:1068.got - 2010.05.20 11:30:59.
