data_PCOD9582448
_publ_section_title
;
Structure prediction by ZEFSAII (Michael W. Deem and Ramdas Pophale) SiO2 
 PCOD9582448
Probable space group: P 61 2 2
;
_chemical_formula_sum "Si O2"
_cell_formula_units_Z 78
_cell_length_a 22.413292
_cell_length_b 22.413292
_cell_length_c 8.578260
_cell_angle_alpha 90.000000
_cell_angle_beta 90.000000
_cell_angle_gamma 120.000000
_cell_volume 3731.995704
_symmetry_space_group_name_H-M "P 61 2 2"
_symmetry_group_IT_number 178
_symmetry_cell_setting 'hexagonal'
loop_
_space_group_symop_operation_xyz
x,y,z
x-y,x,1/6+z
-y,x-y,1/3+z
-x,-y,1/2+z
-x+y,-x,2/3+z
y,-x+y,5/6+z
x-y,-y,-z
-x,-x+y,2/3-z
y,x,1/3-z
-y,-x,5/6-z
-x+y,y,1/2-z
x,x-y,1/6-z
loop_
_atom_site_type_symbol
_atom_site_label
_atom_site_fract_x
_atom_site_fract_y
_atom_site_fract_z
Si Si1 0.761070 0.102199 0.659692
Si Si2 0.750204 0.210605 0.069240
Si Si3 0.123701 0.247401 0.250000
Si Si4 0.229430 0.018647 0.331558
Si Si5 0.318414 0.937519 0.614553
Si Si6 0.630341 0.070960 0.458824
Si Si7 0.333928 0.550095 0.315393
O O1 0.778865 0.173802 0.739633
O O2 0.811552 0.109754 0.520204
O O3 0.686602 0.073460 0.580584
O O4 0.770538 0.049501 0.769856
O O5 0.696308 0.131760 0.032686
O O6 0.725773 0.222166 0.234956
O O7 0.748982 0.251019 0.916667
O O8 0.150795 0.208962 0.368982
O O9 0.311296 0.066517 0.361401
O O10 0.192017 0.000000 0.500000
O O11 0.349481 0.938486 0.783018
O O12 0.362540 0.000000 0.500000
O O13 0.639764 0.147523 0.457298
O O14 0.560004 0.000000 0.500000
O O15 0.398289 0.601712 0.416667
O O16 0.293738 0.587475 0.250000
#
# Coordination Sequence:
#
# PCOD9582448 Si02
#       7
#    12  12   6  12  12  12  12
#     4  12  20  36  58  92 126 172 219 260 322 393
#     4  11  22  37  63  91 124 164 211 263 322 390
#     4  12  20  34  50  82 128 174 218 264 318 390
#     4  11  22  33  50  84 126 176 220 267 320 392
#     4  10  19  32  50  88 128 160 209 254 312 385
#     4  11  20  38  64  90 122 167 209 259 330 398
#     4  11  25  46  70  94 124 163 218 277 335 400
#
# _framework density 20.900345999999999
#
# number of rings (size 3 to 8) (size 9 to 14) (size 15 to 20)
#    0.000    0.923    6.154    3.231    0.000    0.615 
#    0.000    3.077    0.000    0.000    0.000    0.000 
#    0.000    0.000    0.000   55.385    0.000    6.462 
#
# Total GULP energy -434691.289890 kJ/mol
# GULP energy per Si atom -5572.965255 kJ/mol
# Density = 2.085278 g / cm^3
# Si number density = 20.900346 Si / 1000 Ang^3
#
#
#
# Elastic Constant Matrix: (Units=GPa)
#
#
# Indices 1 2 3 4 5 6 
#
# 1 46.0876 22.4175 6.5801 0.0000 0.0000 0.0000
# 2 22.4175 46.0876 6.5801 0.0000 0.0000 0.0000
# 3 6.5801 6.5801 70.9699 0.0000 0.0000 0.0000
# 4 0.0000 0.0000 0.0000 1.1638 0.0000 0.0000
# 5 0.0000 0.0000 0.0000 0.0000 1.1638 0.0000
# 6 0.0000 0.0000 0.0000 0.0000 0.0000 11.8350
#
#
#
# Elastic Compliance Matrix: (Units=1/GPa)
#
#
# Indices 1 2 3 4 5 6 
#
# 1 0.028555 -0.013693 -0.001378 0.000000 0.000000 0.000000
# 2 -0.013693 0.028555 -0.001378 0.000000 0.000000 0.000000
# 3 -0.001378 -0.001378 0.014346 0.000000 0.000000 0.000000
# 4 0.000000 0.000000 0.000000 0.859236 0.000000 0.000000
# 5 0.000000 0.000000 0.000000 0.000000 0.859236 0.000000
# 6 0.000000 0.000000 0.000000 0.000000 0.000000 0.084495
#
#
# Mechanical properties :
#
#
# Convention : Reuss Voigt Hill
#
# Bulk Modulus (GPa) = 25.93464 26.03337 25.98400
# Shear Modulus (GPa) = 2.60393 11.33702 6.97048
#
# Velocity S-wave (km/s) = 1.11740 2.33154 1.82821
# Velocity P-wave (km/s) = 3.75505 4.44197 4.11288
#
# Compressibility (1/GPa) = 0.03855847
#
# Stress axis : x y z
#
# Youngs Moduli (GPa) = 35.02033 35.02033 69.70586
#
# Poissons Ratio (x) = 0.47952 0.09605
# Poissons Ratio (y) = 0.47952 0.09605
# Poissons Ratio (z) = 0.04826 0.04826
#
# Static dielectric constant tensor:
#      x y z
#    x 1.905390 0.000000 0.000000 
#    y 0.000000 1.905390 0.000000 
#    z 0.000000 0.000000 1.921110 
# 
# From -- ./inp_files/3539.got.cif
#   From: 2010.05.17/outbox.cif.g08.bks.cpg/sg178_2_cif.got.tgz:3539.got - 2010.05.20 11:30:59.
