data_PCOD9582762
_publ_section_title
;
Structure prediction by ZEFSAII (Michael W. Deem and Ramdas Pophale) SiO2 
 PCOD9582762
Probable space group: P 61 2 2
;
_chemical_formula_sum "Si O2"
_cell_formula_units_Z 54
_cell_length_a 12.075042
_cell_length_b 12.075042
_cell_length_c 21.202247
_cell_angle_alpha 90.000000
_cell_angle_beta 90.000000
_cell_angle_gamma 120.000000
_cell_volume 2677.255512
_symmetry_space_group_name_H-M "P 61 2 2"
_symmetry_group_IT_number 178
_symmetry_cell_setting 'hexagonal'
loop_
_space_group_symop_operation_xyz
x,y,z
x-y,x,1/6+z
-y,x-y,1/3+z
-x,-y,1/2+z
-x+y,-x,2/3+z
y,-x+y,5/6+z
x-y,-y,-z
-x,-x+y,2/3-z
y,x,1/3-z
-y,-x,5/6-z
-x+y,y,1/2-z
x,x-y,1/6-z
loop_
_atom_site_type_symbol
_atom_site_label
_atom_site_fract_x
_atom_site_fract_y
_atom_site_fract_z
Si Si1 0.711561 0.054846 0.070674
Si Si2 0.372451 0.510485 0.283228
Si Si3 0.897649 0.448825 0.583334
Si Si4 0.985875 0.756404 0.907816
Si Si5 0.278954 0.268776 0.459199
O O1 0.607777 0.098395 0.086592
O O2 0.711910 0.974360 0.131506
O O3 0.857413 0.168100 0.070976
O O4 0.685426 0.000000 0.000000
O O5 0.258487 0.516973 0.250000
O O6 0.371780 0.549165 0.355611
O O7 0.336248 0.361843 0.277904
O O8 0.981824 0.389819 0.606595
O O9 0.853093 0.742372 0.932752
O O10 0.000000 0.735641 0.833334
O O11 0.097153 0.902848 0.916667
#
# Coordination Sequence:
#
# PCOD9582762 Si02
#       5
#    12  12   6  12  12
#     4  11  24  41  60  92 132 175 212 266 330 410
#     4  10  22  42  65  94 126 165 223 274 337 389
#     4  10  22  40  62  92 120 170 210 268 320 392
#     4  11  22  40  68  97 124 162 217 283 331 385
#     4  11  23  41  64  91 130 166 219 261 328 394
#
# _framework density 20.169910000000002
#
# number of rings (size 3 to 8) (size 9 to 14) (size 15 to 20)
#    0.000    1.333    0.000    6.667    1.556    2.667 
#    8.000    0.000    0.000    0.000    0.000    0.000 
#    0.000    0.000    0.000    0.000    0.000    0.000 
#
# Total GULP energy -301336.986768 kJ/mol
# GULP energy per Si atom -5580.314570 kJ/mol
# Density = 2.012400 g / cm^3
# Si number density = 20.169910 Si / 1000 Ang^3
#
#
#
# Elastic Constant Matrix: (Units=GPa)
#
#
# Indices 1 2 3 4 5 6 
#
# 1 73.3783 70.5363 20.0609 0.0000 0.0000 0.0000
# 2 70.5363 73.3783 20.0609 0.0000 0.0000 0.0000
# 3 20.0609 20.0609 134.3595 0.0000 0.0000 0.0000
# 4 0.0000 0.0000 0.0000 32.2187 0.0000 0.0000
# 5 0.0000 0.0000 0.0000 0.0000 32.2187 0.0000
# 6 0.0000 0.0000 0.0000 0.0000 0.0000 1.4210
#
#
#
# Elastic Compliance Matrix: (Units=1/GPa)
#
#
# Indices 1 2 3 4 5 6 
#
# 1 0.179555 -0.172305 -0.001083 0.000000 0.000000 0.000000
# 2 -0.172305 0.179555 -0.001083 0.000000 0.000000 0.000000
# 3 -0.001083 -0.001083 0.007766 0.000000 0.000000 0.000000
# 4 0.000000 0.000000 0.000000 0.031038 0.000000 0.000000
# 5 0.000000 0.000000 0.000000 0.000000 0.031038 0.000000
# 6 0.000000 0.000000 0.000000 0.000000 0.000000 0.703719
#
#
# Mechanical properties :
#
#
# Convention : Reuss Voigt Hill
#
# Bulk Modulus (GPa) = 55.75199 55.82578 55.78888
# Shear Modulus (GPa) = 3.36115 24.53558 13.94836
#
# Velocity S-wave (km/s) = 1.29230 3.49154 2.63257
# Velocity P-wave (km/s) = 5.47064 6.63267 6.07948
#
# Compressibility (1/GPa) = 0.01793658
#
# Stress axis : x y z
#
# Youngs Moduli (GPa) = 5.56933 5.56933 128.76675
#
# Poissons Ratio (x) = 0.95962 0.13939
# Poissons Ratio (y) = 0.95962 0.13939
# Poissons Ratio (z) = 0.00603 0.00603
#
# Static dielectric constant tensor:
#      x y z
#    x 1.692860 0.000000 0.000000 
#    y 0.000000 1.692860 0.000000 
#    z 0.000000 0.000000 1.866510 
# 
# From -- ./inp_files/7396.got.cif
#   From: 2010.05.17/outbox.cif.g08.bks.cpg/sg178_4_cif.got.tgz:7396.got - 2010.05.20 11:30:59.
