data_PCOD9582256
_publ_section_title
;
Structure prediction by ZEFSAII (Michael W. Deem and Ramdas Pophale) SiO2 
 PCOD9582256
Probable space group: P 6 2 2
;
_chemical_formula_sum "Si O2"
_cell_formula_units_Z 33
_cell_length_a 18.159376
_cell_length_b 18.159376
_cell_length_c 5.635593
_cell_angle_alpha 90.000000
_cell_angle_beta 90.000000
_cell_angle_gamma 120.000000
_cell_volume 1609.430009
_symmetry_space_group_name_H-M "P 6 2 2"
_symmetry_group_IT_number 177
_symmetry_cell_setting 'hexagonal'
loop_
_space_group_symop_operation_xyz
x,y,z
x-y,x,z
-y,x-y,z
-x,-y,z
-x+y,-x,z
y,-x+y,z
x-y,-y,-z
-x,-x+y,-z
y,x,-z
-y,-x,-z
-x+y,y,-z
x,x-y,-z
loop_
_atom_site_type_symbol
_atom_site_label
_atom_site_fract_x
_atom_site_fract_y
_atom_site_fract_z
Si Si1 0.500000 0.500000 0.500000
Si Si2 0.334894 0.087581 0.117089
Si Si3 0.861052 0.499633 0.152155
Si Si4 0.581079 0.790540 0.500000
O O1 0.488641 0.424079 0.329246
O O2 0.355034 0.115988 0.391177
O O3 0.323098 0.161549 0.000000
O O4 0.424299 0.099007 0.034008
O O5 0.265385 0.000000 0.000000
O O6 0.797985 0.519900 0.305686
O O7 0.826873 0.413437 0.000000
#
# Coordination Sequence:
#
# PCOD9582256 Si02
#       4
#     3  12  12   6
#     4  12  22  36  64  88 116 156 198 254 312 356
#     4  10  21  37  59  88 118 152 198 245 295 359
#     4  11  21  35  59  87 116 153 202 249 298 361
#     4  10  22  38  60  87 120 157 198 251 302 347
#
# _framework density 20.504154
#
# number of rings (size 3 to 8) (size 9 to 14) (size 15 to 20)
#    0.000    1.455    0.000    7.091    0.000    4.364 
#    0.000    0.000    0.000  118.909    0.000    0.000 
#    0.000   11.636    0.000    0.000    0.000    1.455 
#
# Total GULP energy -183994.190341 kJ/mol
# GULP energy per Si atom -5575.581525 kJ/mol
# Density = 2.045749 g / cm^3
# Si number density = 20.504154 Si / 1000 Ang^3
#
#
#
# Elastic Constant Matrix: (Units=GPa)
#
#
# Indices 1 2 3 4 5 6 
#
# 1 91.1143 45.8171 31.0323 0.0000 0.0000 0.0000
# 2 45.8171 91.1143 31.0323 0.0000 0.0000 0.0000
# 3 31.0323 31.0323 91.3724 0.0000 0.0000 0.0000
# 4 0.0000 0.0000 0.0000 25.1944 0.0000 0.0000
# 5 0.0000 0.0000 0.0000 0.0000 25.1944 0.0000
# 6 0.0000 0.0000 0.0000 0.0000 0.0000 22.6486
#
#
#
# Elastic Compliance Matrix: (Units=1/GPa)
#
#
# Indices 1 2 3 4 5 6 
#
# 1 0.015354 -0.006722 -0.002932 0.000000 0.000000 0.000000
# 2 -0.006722 0.015354 -0.002932 0.000000 0.000000 0.000000
# 3 -0.002932 -0.002932 0.012935 0.000000 0.000000 0.000000
# 4 0.000000 0.000000 0.000000 0.039691 0.000000 0.000000
# 5 0.000000 0.000000 0.000000 0.000000 0.039691 0.000000
# 6 0.000000 0.000000 0.000000 0.000000 0.000000 0.044153
#
#
# Mechanical properties :
#
#
# Convention : Reuss Voigt Hill
#
# Bulk Modulus (GPa) = 54.13399 54.37380 54.25389
# Shear Modulus (GPa) = 25.18798 25.65545 25.42172
#
# Velocity S-wave (km/s) = 3.50870 3.54111 3.52495
# Velocity P-wave (km/s) = 6.54778 6.57992 6.56387
#
# Compressibility (1/GPa) = 0.01847268
#
# Stress axis : x y z
#
# Youngs Moduli (GPa) = 65.12946 65.12946 77.30696
#
# Poissons Ratio (x) = 0.43783 0.22663
# Poissons Ratio (y) = 0.43783 0.22663
# Poissons Ratio (z) = 0.19093 0.19093
#
# Static dielectric constant tensor:
#      x y z
#    x 1.750960 0.000000 0.000000 
#    y 0.000000 1.750960 0.000000 
#    z 0.000000 0.000000 1.886310 
# 
# From -- ./inp_files/273.got.cif
#   From: 2010.05.17/outbox.cif.g08.bks.cpg/sg177_1_cif.got.tgz:273.got - 2010.05.20 11:28:44.
