data_PCOD9582563
_publ_section_title
;
Structure prediction by ZEFSAII (Michael W. Deem and Ramdas Pophale) SiO2 
 PCOD9582563
Probable space group: P 61 2 2
;
_chemical_formula_sum "Si O2"
_cell_formula_units_Z 54
_cell_length_a 20.714119
_cell_length_b 20.714119
_cell_length_c 8.923174
_cell_angle_alpha 90.000000
_cell_angle_beta 90.000000
_cell_angle_gamma 120.000000
_cell_volume 3315.758772
_symmetry_space_group_name_H-M "P 61 2 2"
_symmetry_group_IT_number 178
_symmetry_cell_setting 'hexagonal'
loop_
_space_group_symop_operation_xyz
x,y,z
x-y,x,1/6+z
-y,x-y,1/3+z
-x,-y,1/2+z
-x+y,-x,2/3+z
y,-x+y,5/6+z
x-y,-y,-z
-x,-x+y,2/3-z
y,x,1/3-z
-y,-x,5/6-z
-x+y,y,1/2-z
x,x-y,1/6-z
loop_
_atom_site_type_symbol
_atom_site_label
_atom_site_fract_x
_atom_site_fract_y
_atom_site_fract_z
Si Si1 0.272634 0.411164 0.340617
Si Si2 0.356311 0.563950 0.201537
Si Si3 0.379289 0.479632 0.944404
Si Si4 0.000000 0.346696 0.333334
Si Si5 0.522902 0.826745 0.990086
O O1 0.204586 0.409172 0.250000
O O2 0.342943 0.492337 0.297266
O O3 0.283476 0.345316 0.273945
O O4 0.269795 0.420795 0.517871
O O5 0.289761 0.579522 0.250000
O O6 0.437717 0.635013 0.221647
O O7 0.351619 0.531567 0.032083
O O8 0.466200 0.533801 0.916667
O O9 0.343305 0.453249 0.782383
O O10 0.363981 0.412809 0.051693
O O11 0.519463 0.759732 0.083334
#
# Coordination Sequence:
#
# PCOD9582563 Si02
#       5
#    12  12  12   6  12
#     4  10  21  35  49  67  91 118 154 193 232 285
#     4   9  18  31  44  62  90 124 158 199 251 297
#     4   9  20  32  44  65  87 114 158 200 240 292
#     4  10  20  36  52  62  86 122 148 186 242 286
#     4  11  20  30  46  68  93 120 156 203 246 289
#
# _framework density 16.285864
#
# number of rings (size 3 to 8) (size 9 to 14) (size 15 to 20)
#    0.000    2.222    0.000    4.667    0.000   12.444 
#    0.000    1.111    0.000    0.000    0.000    0.000 
#    0.000    0.000    0.000    0.000    0.000    6.667 
#
# Total GULP energy -300675.782724 kJ/mol
# GULP energy per Si atom -5568.070050 kJ/mol
# Density = 1.624880 g / cm^3
# Si number density = 16.285864 Si / 1000 Ang^3
#
#
#
# Elastic Constant Matrix: (Units=GPa)
#
#
# Indices 1 2 3 4 5 6 
#
# 1 39.6960 26.4803 25.8814 0.0000 0.0000 0.0000
# 2 26.4803 39.6960 25.8814 0.0000 0.0000 0.0000
# 3 25.8814 25.8814 106.9609 0.0000 0.0000 0.0000
# 4 0.0000 0.0000 0.0000 11.2499 0.0000 0.0000
# 5 0.0000 0.0000 0.0000 0.0000 11.2499 0.0000
# 6 0.0000 0.0000 0.0000 0.0000 0.0000 6.6078
#
#
#
# Elastic Compliance Matrix: (Units=1/GPa)
#
#
# Indices 1 2 3 4 5 6 
#
# 1 0.047153 -0.028514 -0.004510 0.000000 0.000000 0.000000
# 2 -0.028514 0.047153 -0.004510 0.000000 0.000000 0.000000
# 3 -0.004510 -0.004510 0.011532 0.000000 0.000000 0.000000
# 4 0.000000 0.000000 0.000000 0.088890 0.000000 0.000000
# 5 0.000000 0.000000 0.000000 0.000000 0.088890 0.000000
# 6 0.000000 0.000000 0.000000 0.000000 0.000000 0.151336
#
#
# Mechanical properties :
#
#
# Convention : Reuss Voigt Hill
#
# Bulk Modulus (GPa) = 32.49987 38.09322 35.29655
# Shear Modulus (GPa) = 9.61023 13.02886 11.31955
#
# Velocity S-wave (km/s) = 2.43183 2.83151 2.63925
# Velocity P-wave (km/s) = 5.28055 5.84218 5.56845
#
# Compressibility (1/GPa) = 0.03076935
#
# Stress axis : x y z
#
# Youngs Moduli (GPa) = 21.20741 21.20741 86.71669
#
# Poissons Ratio (x) = 0.60472 0.39110
# Poissons Ratio (y) = 0.60472 0.39110
# Poissons Ratio (z) = 0.09565 0.09565
#
# Static dielectric constant tensor:
#      x y z
#    x 1.585060 0.000000 0.000000 
#    y 0.000000 1.585060 0.000000 
#    z 0.000000 0.000000 1.641020 
# 
# From -- ./inp_files/3035.got.cif
#   From: 2010.05.17/outbox.cif.g08.bks.cpg/sg178_2_cif.got.tgz:3035.got - 2010.05.20 11:30:59.
