data_PCOD9582924
_publ_section_title
;
Structure prediction by ZEFSAII (Michael W. Deem and Ramdas Pophale) SiO2 
 PCOD9582924
Probable space group: P 61 2 2
;
_chemical_formula_sum "Si O2"
_cell_formula_units_Z 48
_cell_length_a 15.477439
_cell_length_b 15.477439
_cell_length_c 10.623066
_cell_angle_alpha 90.000000
_cell_angle_beta 90.000000
_cell_angle_gamma 120.000000
_cell_volume 2203.833160
_symmetry_space_group_name_H-M "P 61 2 2"
_symmetry_group_IT_number 178
_symmetry_cell_setting 'hexagonal'
loop_
_space_group_symop_operation_xyz
x,y,z
x-y,x,1/6+z
-y,x-y,1/3+z
-x,-y,1/2+z
-x+y,-x,2/3+z
y,-x+y,5/6+z
x-y,-y,-z
-x,-x+y,2/3-z
y,x,1/3-z
-y,-x,5/6-z
-x+y,y,1/2-z
x,x-y,1/6-z
loop_
_atom_site_type_symbol
_atom_site_label
_atom_site_fract_x
_atom_site_fract_y
_atom_site_fract_z
Si Si1 0.481653 0.963306 0.750000
Si Si2 0.174812 0.535236 0.314859
Si Si3 0.495238 0.247619 0.583334
Si Si4 0.847428 0.007663 0.310304
Si Si5 0.094063 0.706651 0.622752
O O1 0.425670 0.898625 0.871052
O O2 0.430859 0.029749 0.725411
O O3 0.272158 0.544316 0.250000
O O4 0.204484 0.635615 0.391178
O O5 0.126838 0.441188 0.408527
O O6 0.426174 0.192266 0.703423
O O7 0.906249 0.093752 0.416667
O O8 0.911312 0.058218 0.186741
O O9 0.731272 0.971490 0.300303
#
# Coordination Sequence:
#
# PCOD9582924 Si02
#       5
#     6  12   6  12  12
#     4  12  27  44  74 112 162 198 251 322 366 464
#     4  12  26  46  77 109 157 208 254 308 385 473
#     4  12  25  50  68 118 156 204 251 310 392 470
#     4  10  26  51  78 106 143 194 267 328 394 467
#     4  12  27  47  75 114 157 202 258 320 390 475
#
# _framework density 21.780231000000001
#
# number of rings (size 3 to 8) (size 9 to 14) (size 15 to 20)
#    0.000    0.500    2.500    4.500   14.000    0.000 
#   11.250    0.000    0.000    0.000    0.000    0.000 
#    0.000    0.000    0.000    0.000    0.000    0.000 
#
# Total GULP energy -268822.999751 kJ/mol
# GULP energy per Si atom -5600.479161 kJ/mol
# Density = 2.173066 g / cm^3
# Si number density = 21.780231 Si / 1000 Ang^3
#
#
#
# Elastic Constant Matrix: (Units=GPa)
#
#
# Indices 1 2 3 4 5 6 
#
# 1 -1054.2706 1285.6614 50.9490 0.0000 0.0000 -0.0002
# 2 1285.6614-1054.2706 50.9490 0.0000 0.0000 0.0002
# 3 50.9490 50.9490 102.2096 0.0000 0.0000 0.0000
# 4 0.0000 0.0000 0.0000 39.0323 0.0000 0.0000
# 5 0.0000 0.0000 0.0000 0.0000 39.0323 0.0000
# 6 -0.0002 0.0002 0.0000 0.0000 0.0000-1169.9657
#
#
#
# Elastic Compliance Matrix: (Units=1/GPa)
#
#
# Indices 1 2 3 4 5 6 
#
# 1 0.002555 0.002982 -0.002760 0.000000 0.000000 0.000000
# 2 0.002982 0.002555 -0.002760 0.000000 0.000000 0.000000
# 3 -0.002760 -0.002760 0.012536 0.000000 0.000000 0.000000
# 4 0.000000 0.000000 0.000000 0.025620 0.000000 0.000000
# 5 0.000000 0.000000 0.000000 0.000000 0.025620 0.000000
# 6 0.000000 0.000000 0.000000 0.000000 0.000000 -0.000855
#
#
# Mechanical properties :
#
#
# Convention : Reuss Voigt Hill
#
# Bulk Modulus (GPa) = 79.55883 85.42080 82.48981
# Shear Modulus (GPa) = 64.68636 -444.63961 -189.97663
#
# Velocity S-wave (km/s) = 5.45564 -14.30355 -9.34953
# Velocity P-wave (km/s) = 8.73457 15.28018 8.86542
#
# Compressibility (1/GPa) = 0.01256932
#
# Stress axis : x y z
#
# Youngs Moduli (GPa) = 391.40269 391.40269 79.77308
#
# Poissons Ratio (x) = -1.16727 0.22019
# Poissons Ratio (y) = -1.16727 0.22019
# Poissons Ratio (z) = 1.08033 1.08033
#
# Static dielectric constant tensor:
#      x y z
#    x 1.693560 0.000000 0.000000 
#    y 0.000000 1.693560 0.000000 
#    z 0.000000 0.000000 1.818050 
# 
# From -- ./inp_files/4197.got.cif
#   From: 2010.05.17/outbox.cif.g08.bks.cpg/sg178_3_cif.got.tgz:4197.got - 2010.05.20 11:30:59.
