data_PCOD9582727
_publ_section_title
;
Structure prediction by ZEFSAII (Michael W. Deem and Ramdas Pophale) SiO2 
 PCOD9582727
Probable space group: P 61 2 2
;
_chemical_formula_sum "Si O2"
_cell_formula_units_Z 54
_cell_length_a 12.185431
_cell_length_b 12.185431
_cell_length_c 21.971987
_cell_angle_alpha 90.000000
_cell_angle_beta 90.000000
_cell_angle_gamma 120.000000
_cell_volume 2825.411801
_symmetry_space_group_name_H-M "P 61 2 2"
_symmetry_group_IT_number 178
_symmetry_cell_setting 'hexagonal'
loop_
_space_group_symop_operation_xyz
x,y,z
x-y,x,1/6+z
-y,x-y,1/3+z
-x,-y,1/2+z
-x+y,-x,2/3+z
y,-x+y,5/6+z
x-y,-y,-z
-x,-x+y,2/3-z
y,x,1/3-z
-y,-x,5/6-z
-x+y,y,1/2-z
x,x-y,1/6-z
loop_
_atom_site_type_symbol
_atom_site_label
_atom_site_fract_x
_atom_site_fract_y
_atom_site_fract_z
Si Si1 0.931458 0.199748 0.976310
Si Si2 0.350850 0.201728 0.175488
Si Si3 0.913548 0.184016 0.190671
Si Si4 0.574706 0.287353 0.083334
Si Si5 0.413135 0.250028 0.752548
O O1 0.884443 0.115558 0.916667
O O2 0.020549 0.341140 0.947935
O O3 0.817157 0.174168 0.020970
O O4 0.034260 0.178708 0.012396
O O5 0.295828 0.295828 0.166667
O O6 0.345675 0.191165 0.248358
O O7 0.483710 0.251520 0.142133
O O8 0.258388 0.064416 0.145529
O O9 0.865036 0.232532 0.134018
O O10 0.660757 0.222556 0.085224
#
# Coordination Sequence:
#
# PCOD9582727 Si02
#       5
#    12  12  12   6  12
#     4  10  21  43  71 102 134 170 223 278 342 398
#     4  12  23  42  68 100 132 170 218 280 340 399
#     4  10  21  43  68  99 128 170 216 282 342 387
#     4  12  28  44  64  96 134 184 232 262 330 414
#     4  10  24  44  66 100 131 177 226 272 332 401
#
# _framework density 19.112257
#
# number of rings (size 3 to 8) (size 9 to 14) (size 15 to 20)
#    1.333    0.000    4.444    0.667    0.000    8.000 
#    4.000    0.000    0.000    0.000    0.000    0.000 
#    0.000    0.000    0.000    0.000    0.000    0.000 
#
# Total GULP energy -300721.558128 kJ/mol
# GULP energy per Si atom -5568.917743 kJ/mol
# Density = 1.906876 g / cm^3
# Si number density = 19.112257 Si / 1000 Ang^3
#
#
#
# Elastic Constant Matrix: (Units=GPa)
#
#
# Indices 1 2 3 4 5 6 
#
# 1 93.9590 24.5600 25.6699 0.0000 0.0000 0.0000
# 2 24.5600 93.9590 25.6699 0.0000 0.0000 0.0000
# 3 25.6699 25.6699 125.6731 0.0000 0.0000 0.0000
# 4 0.0000 0.0000 0.0000 8.3643 0.0000 0.0000
# 5 0.0000 0.0000 0.0000 0.0000 8.3643 0.0000
# 6 0.0000 0.0000 0.0000 0.0000 0.0000 34.6995
#
#
#
# Elastic Compliance Matrix: (Units=1/GPa)
#
#
# Indices 1 2 3 4 5 6 
#
# 1 0.011833 -0.002576 -0.001891 0.000000 0.000000 0.000000
# 2 -0.002576 0.011833 -0.001891 0.000000 0.000000 0.000000
# 3 -0.001891 -0.001891 0.008730 0.000000 0.000000 0.000000
# 4 0.000000 0.000000 0.000000 0.119555 0.000000 0.000000
# 5 0.000000 0.000000 0.000000 0.000000 0.119555 0.000000
# 6 0.000000 0.000000 0.000000 0.000000 0.000000 0.028819
#
#
# Mechanical properties :
#
#
# Convention : Reuss Voigt Hill
#
# Bulk Modulus (GPa) = 50.81397 51.71007 51.26202
# Shear Modulus (GPa) = 15.64454 26.13172 20.88813
#
# Velocity S-wave (km/s) = 2.86415 3.70168 3.30952
# Velocity P-wave (km/s) = 6.13047 6.73681 6.44078
#
# Compressibility (1/GPa) = 0.01967963
#
# Stress axis : x y z
#
# Youngs Moduli (GPa) = 84.50970 84.50970 114.55351
#
# Poissons Ratio (x) = 0.21774 0.21659
# Poissons Ratio (y) = 0.21774 0.21659
# Poissons Ratio (z) = 0.15978 0.15978
#
# Static dielectric constant tensor:
#      x y z
#    x 1.660010 0.000000 0.000000 
#    y 0.000000 1.660010 0.000000 
#    z 0.000000 0.000000 1.721140 
# 
# From -- ./inp_files/7376.got.cif
#   From: 2010.05.17/outbox.cif.g08.bks.cpg/sg178_4_cif.got.tgz:7376.got - 2010.05.20 11:30:59.
