data_PCOD9582462
_publ_section_title
;
Structure prediction by ZEFSAII (Michael W. Deem and Ramdas Pophale) SiO2 
 PCOD9582462
Probable space group: P 61 2 2
;
_chemical_formula_sum "Si O2"
_cell_formula_units_Z 36
_cell_length_a 21.202926
_cell_length_b 21.202926
_cell_length_c 5.025318
_cell_angle_alpha 90.000000
_cell_angle_beta 90.000000
_cell_angle_gamma 120.000000
_cell_volume 1956.526686
_symmetry_space_group_name_H-M "P 61 2 2"
_symmetry_group_IT_number 178
_symmetry_cell_setting 'hexagonal'
loop_
_space_group_symop_operation_xyz
x,y,z
x-y,x,1/6+z
-y,x-y,1/3+z
-x,-y,1/2+z
-x+y,-x,2/3+z
y,-x+y,5/6+z
x-y,-y,-z
-x,-x+y,2/3-z
y,x,1/3-z
-y,-x,5/6-z
-x+y,y,1/2-z
x,x-y,1/6-z
loop_
_atom_site_type_symbol
_atom_site_label
_atom_site_fract_x
_atom_site_fract_y
_atom_site_fract_z
Si Si1 0.684812 0.459170 0.502267
Si Si2 0.771574 0.077132 0.919696
Si Si3 0.602683 0.877313 0.577333
O O1 0.610142 0.389859 0.416667
O O2 0.741084 0.482167 0.250000
O O3 0.672639 0.523725 0.617967
O O4 0.719134 0.438268 0.750000
O O5 0.853629 0.146372 0.916667
O O6 0.738427 0.074396 0.633037
O O7 0.722148 0.092030 0.130222
O O8 0.762740 0.000000 0.000000
O O9 0.600424 0.800212 0.583334
#
# Coordination Sequence:
#
# PCOD9582462 Si02
#       3
#    12  12  12
#     4  11  20  31  48  73 104 136 174 218 264 305
#     4  10  19  33  54  79 102 127 163 205 249 297
#     4   9  18  32  49  72 101 133 168 207 249 294
#
# _framework density 18.399954000000001
#
# number of rings (size 3 to 8) (size 9 to 14) (size 15 to 20)
#    0.000    2.000    0.000    8.000    0.000    0.000 
#    0.000    0.000    0.000    4.000    0.000    7.000 
#    0.000    0.000    0.000    0.000    0.000    0.000 
#
# Total GULP energy -200487.868590 kJ/mol
# GULP energy per Si atom -5569.107461 kJ/mol
# Density = 1.835807 g / cm^3
# Si number density = 18.399954 Si / 1000 Ang^3
#
#
#
# Elastic Constant Matrix: (Units=GPa)
#
#
# Indices 1 2 3 4 5 6 
#
# 1 76.1015 47.0663 27.1287 0.0000 0.0000 0.0000
# 2 47.0663 76.1015 27.1287 0.0000 0.0000 0.0000
# 3 27.1287 27.1287 111.6857 0.0000 0.0000 0.0000
# 4 0.0000 0.0000 0.0000 30.3340 0.0000 0.0000
# 5 0.0000 0.0000 0.0000 0.0000 30.3340 0.0000
# 6 0.0000 0.0000 0.0000 0.0000 0.0000 14.5176
#
#
#
# Elastic Compliance Matrix: (Units=1/GPa)
#
#
# Indices 1 2 3 4 5 6 
#
# 1 0.021766 -0.012675 -0.002208 0.000000 0.000000 0.000000
# 2 -0.012675 0.021766 -0.002208 0.000000 0.000000 0.000000
# 3 -0.002208 -0.002208 0.010027 0.000000 0.000000 0.000000
# 4 0.000000 0.000000 0.000000 0.032966 0.000000 0.000000
# 5 0.000000 0.000000 0.000000 0.000000 0.032966 0.000000
# 6 0.000000 0.000000 0.000000 0.000000 0.000000 0.068882
#
#
# Mechanical properties :
#
#
# Convention : Reuss Voigt Hill
#
# Bulk Modulus (GPa) = 51.60878 51.83734 51.72306
# Shear Modulus (GPa) = 21.83258 25.87479 23.85369
#
# Velocity S-wave (km/s) = 3.44838 3.75406 3.60446
# Velocity P-wave (km/s) = 6.63056 6.85743 6.74495
#
# Compressibility (1/GPa) = 0.01937655
#
# Stress axis : x y z
#
# Youngs Moduli (GPa) = 45.94237 45.94237 99.73506
#
# Poissons Ratio (x) = 0.58230 0.22026
# Poissons Ratio (y) = 0.58230 0.22026
# Poissons Ratio (z) = 0.10146 0.10146
#
# Static dielectric constant tensor:
#      x y z
#    x 1.684630 0.000000 0.000000 
#    y 0.000000 1.684630 0.000000 
#    z 0.000000 0.000000 1.677190 
# 
# From -- ./inp_files/573.got.cif
#   From: 2010.05.17/outbox.cif.g08.bks.cpg/sg178_1_cif.got.tgz:573.got - 2010.05.20 11:30:59.
