data_PCOD9582865
_publ_section_title
;
Structure prediction by ZEFSAII (Michael W. Deem and Ramdas Pophale) SiO2 
 PCOD9582865
Probable space group: P 61 2 2
;
_chemical_formula_sum "Si O2"
_cell_formula_units_Z 60
_cell_length_a 17.745132
_cell_length_b 17.745132
_cell_length_c 10.277219
_cell_angle_alpha 90.000000
_cell_angle_beta 90.000000
_cell_angle_gamma 120.000000
_cell_volume 2802.623191
_symmetry_space_group_name_H-M "P 61 2 2"
_symmetry_group_IT_number 178
_symmetry_cell_setting 'hexagonal'
loop_
_space_group_symop_operation_xyz
x,y,z
x-y,x,1/6+z
-y,x-y,1/3+z
-x,-y,1/2+z
-x+y,-x,2/3+z
y,-x+y,5/6+z
x-y,-y,-z
-x,-x+y,2/3-z
y,x,1/3-z
-y,-x,5/6-z
-x+y,y,1/2-z
x,x-y,1/6-z
loop_
_atom_site_type_symbol
_atom_site_label
_atom_site_fract_x
_atom_site_fract_y
_atom_site_fract_z
Si Si1 0.225878 0.451755 0.750000
Si Si2 0.150506 0.840604 0.199426
Si Si3 0.000000 0.856907 0.333334
Si Si4 0.000000 0.578187 0.833334
Si Si5 0.254473 0.627237 0.083334
Si Si6 0.412645 0.593562 0.702872
Si Si7 0.029529 0.738794 0.974432
O O1 0.213798 0.392925 0.623990
O O2 0.328267 0.515413 0.769956
O O3 0.065881 0.837423 0.257081
O O4 0.229163 0.939370 0.214695
O O5 0.116140 0.804364 0.053594
O O6 0.940013 0.880026 0.250000
O O7 0.084456 0.577739 0.780472
O O8 0.035821 0.653652 0.942707
O O9 0.198865 0.602807 0.214433
O O10 0.317760 0.584971 0.084020
O O11 0.000000 0.759274 0.833334
#
# Coordination Sequence:
#
# PCOD9582865 Si02
#       7
#     6  12   6   6   6  12  12
#     4  11  26  40  74 100 136 194 230 304 364 449
#     4  12  22  45  67  99 144 182 245 290 380 437
#     4  12  24  47  67  98 140 190 234 308 354 439
#     4  10  26  43  65 108 142 180 248 310 370 437
#     4   9  22  44  72  88 148 190 232 296 364 459
#     4  10  23  44  66 107 133 190 244 291 372 438
#     4  10  25  41  70 100 139 193 231 307 362 450
#
# _framework density 21.408515000000001
#
# number of rings (size 3 to 8) (size 9 to 14) (size 15 to 20)
#    0.600    0.800    3.000    0.600    5.600    4.000 
#    1.800    0.000    0.000    0.000    0.000    0.000 
#    0.000    0.000    0.000    0.000    0.000    0.000 
#
# Total GULP energy -334524.309328 kJ/mol
# GULP energy per Si atom -5575.405155 kJ/mol
# Density = 2.135979 g / cm^3
# Si number density = 21.408515 Si / 1000 Ang^3
#
#
#
# Elastic Constant Matrix: (Units=GPa)
#
#
# Indices 1 2 3 4 5 6 
#
# 1 106.1384 31.2349 18.6304 0.0000 0.0000 0.0000
# 2 31.2349 106.1384 18.6304 0.0000 0.0000 0.0000
# 3 18.6304 18.6304 88.1382 0.0000 0.0000 0.0000
# 4 0.0000 0.0000 0.0000 9.0886 0.0000 0.0000
# 5 0.0000 0.0000 0.0000 0.0000 9.0886 0.0000
# 6 0.0000 0.0000 0.0000 0.0000 0.0000 37.4518
#
#
#
# Elastic Compliance Matrix: (Units=1/GPa)
#
#
# Indices 1 2 3 4 5 6 
#
# 1 0.010536 -0.002814 -0.001632 0.000000 0.000000 0.000000
# 2 -0.002814 0.010536 -0.001632 0.000000 0.000000 0.000000
# 3 -0.001632 -0.001632 0.012036 0.000000 0.000000 0.000000
# 4 0.000000 0.000000 0.000000 0.110028 0.000000 0.000000
# 5 0.000000 0.000000 0.000000 0.000000 0.110028 0.000000
# 6 0.000000 0.000000 0.000000 0.000000 0.000000 0.026701
#
#
# Mechanical properties :
#
#
# Convention : Reuss Voigt Hill
#
# Bulk Modulus (GPa) = 47.73029 48.60071 48.16550
# Shear Modulus (GPa) = 16.72198 26.58706 21.65452
#
# Velocity S-wave (km/s) = 2.79783 3.52787 3.18384
# Velocity P-wave (km/s) = 5.72543 6.27259 6.00524
#
# Compressibility (1/GPa) = 0.02095106
#
# Stress axis : x y z
#
# Youngs Moduli (GPa) = 94.90959 94.90959 83.08497
#
# Poissons Ratio (x) = 0.26709 0.13562
# Poissons Ratio (y) = 0.26709 0.13562
# Poissons Ratio (z) = 0.15492 0.15492
#
# Static dielectric constant tensor:
#      x y z
#    x 1.763750 0.000000 0.000000 
#    y 0.000000 1.763750 0.000000 
#    z 0.000000 0.000000 1.927100 
# 
# From -- ./inp_files/4640.got.cif
#   From: 2010.05.17/outbox.cif.g08.bks.cpg/sg178_3_cif.got.tgz:4640.got - 2010.05.20 11:30:59.
