data_PCOD9582888
_publ_section_title
;
Structure prediction by ZEFSAII (Michael W. Deem and Ramdas Pophale) SiO2 
 PCOD9582888
Probable space group: P 61 2 2
;
_chemical_formula_sum "Si O2"
_cell_formula_units_Z 66
_cell_length_a 11.175172
_cell_length_b 11.175172
_cell_length_c 27.634216
_cell_angle_alpha 90.000000
_cell_angle_beta 90.000000
_cell_angle_gamma 120.000000
_cell_volume 2988.726759
_symmetry_space_group_name_H-M "P 61 2 2"
_symmetry_group_IT_number 178
_symmetry_cell_setting 'hexagonal'
loop_
_space_group_symop_operation_xyz
x,y,z
x-y,x,1/6+z
-y,x-y,1/3+z
-x,-y,1/2+z
-x+y,-x,2/3+z
y,-x+y,5/6+z
x-y,-y,-z
-x,-x+y,2/3-z
y,x,1/3-z
-y,-x,5/6-z
-x+y,y,1/2-z
x,x-y,1/6-z
loop_
_atom_site_type_symbol
_atom_site_label
_atom_site_fract_x
_atom_site_fract_y
_atom_site_fract_z
Si Si1 0.230998 0.075843 0.254980
Si Si2 0.769164 0.577939 0.434932
Si Si3 0.602038 0.282870 0.675592
Si Si4 0.386997 0.074510 0.600814
Si Si5 0.975306 0.975306 0.666667
Si Si6 0.109040 0.459325 0.375849
O O1 0.139955 0.060684 0.207532
O O2 0.125390 0.028302 0.301023
O O3 0.359902 0.233077 0.247667
O O4 0.279737 0.962819 0.249014
O O5 0.756061 0.475872 0.391302
O O6 0.686945 0.479170 0.478500
O O7 0.926886 0.656181 0.449771
O O8 0.482960 0.180480 0.640622
O O9 0.685693 0.432957 0.651148
O O10 0.308368 0.154184 0.583334
O O11 0.499497 0.064574 0.566174
O O12 0.000000 0.373928 0.333334
#
# Coordination Sequence:
#
# PCOD9582888 Si02
#       6
#    12  12  12  12   6  12
#     4  11  26  44  72 102 143 183 235 301 358 437
#     4  11  25  43  68  99 139 187 234 304 357 432
#     4  10  25  44  65 104 135 185 245 284 363 430
#     4  10  24  42  69  96 134 183 232 288 359 428
#     4  10  26  46  62 110 136 180 236 280 376 424
#     4  11  22  46  72 102 141 188 243 295 357 439
#
# _framework density 22.082982999999999
#
# number of rings (size 3 to 8) (size 9 to 14) (size 15 to 20)
#    0.000    1.455    2.727    0.000   10.182    1.455 
#    6.545    0.000    0.000    0.000    0.000    0.000 
#    0.000    0.000    0.000    0.000    0.000    0.000 
#
# Total GULP energy -367931.564516 kJ/mol
# GULP energy per Si atom -5574.720674 kJ/mol
# Density = 2.203272 g / cm^3
# Si number density = 22.082983 Si / 1000 Ang^3
#
#
#
# Elastic Constant Matrix: (Units=GPa)
#
#
# Indices 1 2 3 4 5 6 
#
# 1 70.7664 11.8350 4.3165 0.0000 0.0000 0.0000
# 2 11.8350 70.7664 4.3165 0.0000 0.0000 0.0000
# 3 4.3165 4.3165 66.8365 0.0000 0.0000 0.0000
# 4 0.0000 0.0000 0.0000 26.9406 0.0000 0.0000
# 5 0.0000 0.0000 0.0000 0.0000 26.9406 0.0000
# 6 0.0000 0.0000 0.0000 0.0000 0.0000 29.4657
#
#
#
# Elastic Compliance Matrix: (Units=1/GPa)
#
#
# Indices 1 2 3 4 5 6 
#
# 1 0.014579 -0.002390 -0.000787 0.000000 0.000000 0.000000
# 2 -0.002390 0.014579 -0.000787 0.000000 0.000000 0.000000
# 3 -0.000787 -0.000787 0.015064 0.000000 0.000000 0.000000
# 4 0.000000 0.000000 0.000000 0.037119 0.000000 0.000000
# 5 0.000000 0.000000 0.000000 0.000000 0.037119 0.000000
# 6 0.000000 0.000000 0.000000 0.000000 0.000000 0.033938
#
#
# Mechanical properties :
#
#
# Convention : Reuss Voigt Hill
#
# Bulk Modulus (GPa) = 27.55423 27.70059 27.62741
# Shear Modulus (GPa) = 28.99854 29.19614 29.09734
#
# Velocity S-wave (km/s) = 3.62769 3.64003 3.63386
# Velocity P-wave (km/s) = 5.48193 5.49886 5.49040
#
# Compressibility (1/GPa) = 0.03629206
#
# Stress axis : x y z
#
# Youngs Moduli (GPa) = 68.59299 68.59299 66.38540
#
# Poissons Ratio (x) = 0.16395 0.05226
# Poissons Ratio (y) = 0.16395 0.05226
# Poissons Ratio (z) = 0.05399 0.05399
#
# Static dielectric constant tensor:
#      x y z
#    x 1.775130 0.000000 0.000000 
#    y 0.000000 1.775130 0.000000 
#    z 0.000000 0.000000 1.896860 
# 
# From -- ./inp_files/9524.got.cif
#   From: 2010.05.17/outbox.cif.g08.bks.cpg/sg178_5_cif.got.tgz:9524.got - 2010.05.20 11:30:59.
