data_PCOD9582138
_publ_section_title
;
Structure prediction by ZEFSAII (Michael W. Deem and Ramdas Pophale) SiO2 
 PCOD9582138
Probable space group: P 63/M
;
_chemical_formula_sum "Si O2"
_cell_formula_units_Z 64
_cell_length_a 22.369810
_cell_length_b 22.369810
_cell_length_c 7.404267
_cell_angle_alpha 90.000000
_cell_angle_beta 90.000000
_cell_angle_gamma 120.000000
_cell_volume 3208.760432
_symmetry_space_group_name_H-M "P 63/M"
_symmetry_group_IT_number 176
_symmetry_cell_setting 'hexagonal'
loop_
_space_group_symop_operation_xyz
x,y,z
x-y,x,1/2+z
-y,x-y,z
-x,-y,1/2+z
-x+y,-x,z
y,-x+y,1/2+z
-x,-y,-z
-x+y,-x,1/2-z
y,-x+y,-z
x,y,1/2-z
x-y,x,-z
-y,x-y,1/2-z
loop_
_atom_site_type_symbol
_atom_site_label
_atom_site_fract_x
_atom_site_fract_y
_atom_site_fract_z
Si Si1 0.212502 0.921149 0.034460
Si Si2 0.707601 0.554125 0.969720
Si Si3 0.586623 0.173244 0.529572
Si Si4 0.846528 0.554126 0.969720
Si Si5 0.708646 0.921147 0.465540
Si Si6 0.666668 0.333334 0.530524
O O1 0.211079 0.913933 0.250000
O O2 0.268081 0.899743 0.968279
O O3 0.137251 0.862751 0.967119
O O4 0.236466 0.000001 1.000000
O O5 0.705905 0.553815 0.750000
O O6 0.634027 0.492212 0.030900
O O7 0.769914 0.539824 0.018478
O O8 0.731921 0.631661 0.031721
O O9 0.585773 0.171545 0.750000
O O10 0.634024 0.141811 0.469101
O O11 0.626884 0.253763 0.475578
O O12 0.847913 0.553816 0.750000
O O13 0.702853 0.913930 0.250000
O O14 0.666667 0.333334 0.750000
#
# Coordination Sequence:
#
# PCOD9582138 Si02
#       6
#    12  12  12  12  12   4
#     4   9  18  32  49  69  92 117 145 177 214 258
#     4   8  13  21  34  55  85 118 150 185 223 259
#     4   9  12  16  29  53  84 118 154 192 230 259
#     4   8  13  21  34  55  85 118 150 185 223 259
#     4   9  18  32  49  69  92 117 145 177 214 258
#     4   9  12  12  24  51  81 114 154 194 229 261
#
# _framework density 19.945395999999999
#
# number of rings (size 3 to 8) (size 9 to 14) (size 15 to 20)
#    0.000    3.375    1.875    2.250    0.000    0.750 
#    0.000    0.938    0.000    0.375    0.000    0.000 
#    0.000    0.000    0.000    0.750    0.000    0.000 
#
# Total GULP energy -356693.998089 kJ/mol
# GULP energy per Si atom -5573.343720 kJ/mol
# Density = 1.990000 g / cm^3
# Si number density = 19.945396 Si / 1000 Ang^3
#
#
#
# Elastic Constant Matrix: (Units=GPa)
#
#
# Indices 1 2 3 4 5 6 
#
# 1 138.5793 95.8535 4.3897 0.0000 0.0000 0.0002
# 2 95.8535 138.5785 4.3897 0.0000 0.0000 0.0000
# 3 4.3897 4.3897 63.7523 0.0000 0.0000 0.0000
# 4 0.0000 0.0000 0.0000 -13.6353 -0.0001 0.0000
# 5 0.0000 0.0000 0.0000 -0.0001 -13.6356 0.0000
# 6 0.0002 0.0000 0.0000 0.0000 0.0000 21.3630
#
#
#
# Elastic Compliance Matrix: (Units=1/GPa)
#
#
# Indices 1 2 3 4 5 6 
#
# 1 0.013841 -0.009564 -0.000294 0.000000 0.000000 0.000000
# 2 -0.009564 0.013841 -0.000294 0.000000 0.000000 0.000000
# 3 -0.000294 -0.000294 0.015726 0.000000 0.000000 0.000000
# 4 0.000000 0.000000 0.000000 -0.073339 0.000001 0.000000
# 5 0.000000 0.000000 0.000000 0.000001 -0.073338 0.000000
# 6 0.000000 0.000000 0.000000 0.000000 0.000000 0.046810
#
#
# Mechanical properties :
#
#
# Convention : Reuss Voigt Hill
#
# Bulk Modulus (GPa) = 43.28691 61.13067 52.20879
# Shear Modulus (GPa) = -175.73656 14.57025 -80.58316
#
# Velocity S-wave (km/s) = -9.39681 2.70572 -6.36314
# Velocity P-wave (km/s) = 9.79713 6.36214 5.26815
#
# Compressibility (1/GPa) = 0.02310167
#
# Stress axis : x y z
#
# Youngs Moduli (GPa) = 72.24953 72.24909 63.58790
#
# Poissons Ratio (x) = 0.69101 0.01872
# Poissons Ratio (y) = 0.69102 0.01873
# Poissons Ratio (z) = 0.02128 0.02128
#
# Static dielectric constant tensor:
#      x y z
#    x 1.703890 0.000000 0.000000 
#    y 0.000000 1.703890 0.000000 
#    z 0.000000 0.000000 1.811730 
# 
# From -- ./inp_files/1967.got.cif
#   From: 2010.05.17/outbox.cif.g08.bks.cpg/sg176_1_cif.got.tgz:1967.got - 2010.06.03 11:36:45.
