data_PCOD9582190
_publ_section_title
;
Structure prediction by ZEFSAII (Michael W. Deem and Ramdas Pophale) SiO2 
 PCOD9582190
Probable space group: P 6 2 2
;
_chemical_formula_sum "Si O2"
_cell_formula_units_Z 74
_cell_length_a 12.259010
_cell_length_b 12.259010
_cell_length_c 28.091668
_cell_angle_alpha 90.000000
_cell_angle_beta 90.000000
_cell_angle_gamma 120.000000
_cell_volume 3656.107506
_symmetry_space_group_name_H-M "P 6 2 2"
_symmetry_group_IT_number 177
_symmetry_cell_setting 'hexagonal'
loop_
_space_group_symop_operation_xyz
x,y,z
x-y,x,z
-y,x-y,z
-x,-y,z
-x+y,-x,z
y,-x+y,z
x-y,-y,-z
-x,-x+y,-z
y,x,-z
-y,-x,-z
-x+y,y,-z
x,x-y,-z
loop_
_atom_site_type_symbol
_atom_site_label
_atom_site_fract_x
_atom_site_fract_y
_atom_site_fract_z
Si Si1 0.647452 0.575348 0.593403
Si Si2 0.333334 0.666668 0.284061
Si Si3 0.333334 0.666668 0.398339
Si Si4 0.301331 0.143123 0.050929
Si Si5 0.000000 0.259951 0.500000
Si Si6 0.126040 0.825068 0.155183
Si Si7 0.025592 0.269697 0.310183
Si Si8 0.451473 0.086546 0.233878
O O1 0.500000 0.500000 0.603798
O O2 0.688526 0.469646 0.586171
O O3 0.672811 0.659278 0.546739
O O4 0.711986 0.663764 0.638702
O O5 0.333334 0.666667 0.341016
O O6 0.357620 0.557223 0.264964
O O7 0.217137 0.209946 0.050912
O O8 0.364746 0.164343 0.102644
O O9 0.372372 0.186186 0.000000
O O10 0.123666 0.247332 0.500000
O O11 0.147619 0.748249 0.196251
O O12 0.976123 0.773697 0.159470
O O13 0.010077 0.352432 0.269526
O O14 0.140484 0.245189 0.304995
O O15 0.500000 0.000000 0.209245
#
# Coordination Sequence:
#
# PCOD9582190 Si02
#       8
#    12   4   4  12   6  12  12  12
#     4  12  25  43  68  97 129 167 210 263 320 379
#     4  12  24  42  66  91 122 163 207 261 313 362
#     4  12  24  45  73 100 129 169 220 273 322 374
#     4   8  13  22  40  69 105 145 186 232 289 356
#     4  12  26  46  68  94 128 166 210 258 314 380
#     4  10  19  32  51  80 117 155 195 245 306 374
#     4  12  24  41  63  90 123 160 204 255 314 381
#     4  12  24  39  59  85 116 156 204 254 309 374
#
# _framework density 20.240105
#
# number of rings (size 3 to 8) (size 9 to 14) (size 15 to 20)
#    0.000    0.973    0.000   10.054    0.000    1.946 
#    0.000    4.865    0.000    0.000    0.000   19.297 
#    0.000    0.000    0.000    0.000    0.000    0.000 
#
# Total GULP energy -413425.586252 kJ/mol
# GULP energy per Si atom -5586.832247 kJ/mol
# Density = 2.019404 g / cm^3
# Si number density = 20.240105 Si / 1000 Ang^3
#
#
#
# Elastic Constant Matrix: (Units=GPa)
#
#
# Indices 1 2 3 4 5 6 
#
# 1 91.6832 26.9627 26.3326 0.0000 0.0000 0.0000
# 2 26.9627 91.6832 26.3326 -0.0001 0.0003 0.0000
# 3 26.3326 26.3326 113.9027 0.0002 -0.0002 -0.0001
# 4 0.0000 -0.0001 0.0002 1.8700 -0.0001 -0.0001
# 5 0.0000 0.0003 -0.0002 -0.0001 1.8693 -0.0001
# 6 0.0000 0.0000 -0.0001 -0.0001 -0.0001 32.3603
#
#
#
# Elastic Compliance Matrix: (Units=1/GPa)
#
#
# Indices 1 2 3 4 5 6 
#
# 1 0.012422 -0.003029 -0.002171 0.000000 0.000000 0.000000
# 2 -0.003029 0.012422 -0.002171 0.000001 -0.000002 0.000000
# 3 -0.002171 -0.002171 0.009783 -0.000001 0.000001 0.000000
# 4 0.000000 0.000001 -0.000001 0.534757 0.000042 0.000002
# 5 0.000000 -0.000002 0.000001 0.000042 0.534958 0.000001
# 6 0.000000 0.000000 0.000000 0.000002 0.000001 0.030902
#
#
# Mechanical properties :
#
#
# Convention : Reuss Voigt Hill
#
# Bulk Modulus (GPa) = 50.29541 50.72498 50.51020
# Shear Modulus (GPa) = 4.32296 21.72933 13.02614
#
# Velocity S-wave (km/s) = 1.46304 3.28010 2.53964
# Velocity P-wave (km/s) = 5.26852 6.28184 5.79736
#
# Compressibility (1/GPa) = 0.01988253
#
# Stress axis : x y z
#
# Youngs Moduli (GPa) = 80.50450 80.50451 102.21401
#
# Poissons Ratio (x) = 0.24388 0.22194
# Poissons Ratio (y) = 0.24388 0.22194
# Poissons Ratio (z) = 0.17480 0.17480
#
# Static dielectric constant tensor:
#      x y z
#    x 1.687340 0.000000 0.000000 
#    y 0.000000 1.687340 0.000000 
#    z 0.000000 0.000000 1.697440 
# 
# From -- ./inp_files/3304.got.cif
#   From: 2010.05.17/outbox.cif.g08.bks.cpg/sg177_2_cif.got.tgz:3304.got - 2010.05.20 11:28:44.
