data_PCOD9582347
_publ_section_title
;
Structure prediction by ZEFSAII (Michael W. Deem and Ramdas Pophale) SiO2 
 PCOD9582347
Probable space group: P 61 2 2
;
_chemical_formula_sum "Si O2"
_cell_formula_units_Z 84
_cell_length_a 15.128519
_cell_length_b 15.128519
_cell_length_c 25.584238
_cell_angle_alpha 90.000000
_cell_angle_beta 90.000000
_cell_angle_gamma 120.000000
_cell_volume 5071.027296
_symmetry_space_group_name_H-M "P 61 2 2"
_symmetry_group_IT_number 178
_symmetry_cell_setting 'hexagonal'
loop_
_space_group_symop_operation_xyz
x,y,z
x-y,x,1/6+z
-y,x-y,1/3+z
-x,-y,1/2+z
-x+y,-x,2/3+z
y,-x+y,5/6+z
x-y,-y,-z
-x,-x+y,2/3-z
y,x,1/3-z
-y,-x,5/6-z
-x+y,y,1/2-z
x,x-y,1/6-z
loop_
_atom_site_type_symbol
_atom_site_label
_atom_site_fract_x
_atom_site_fract_y
_atom_site_fract_z
Si Si1 0.888313 0.490674 0.639394
Si Si2 0.674805 0.341758 0.186335
Si Si3 0.556416 0.103520 0.514121
Si Si4 0.895578 0.398305 0.196106
Si Si5 0.710886 0.904520 0.704078
Si Si6 0.739596 0.633917 0.714716
Si Si7 0.218231 0.928287 0.127928
O O1 0.898657 0.449329 0.583334
O O2 0.777197 0.405129 0.662342
O O3 0.888085 0.596545 0.630332
O O4 0.992477 0.525188 0.672176
O O5 0.668590 0.337180 0.250000
O O6 0.636740 0.419374 0.169089
O O7 0.793432 0.389536 0.171993
O O8 0.577023 0.101562 0.575767
O O9 0.641693 0.095538 0.479838
O O10 0.452257 0.000000 0.500000
O O11 0.874564 0.282946 0.191174
O O12 0.701343 0.818990 0.663345
O O13 0.736131 0.880515 0.761082
O O14 0.787734 0.012887 0.678449
O O15 0.793265 0.586530 0.750000
O O16 0.721332 0.704503 0.754538
#
# Coordination Sequence:
#
# PCOD9582347 Si02
#       7
#    12  12  12  12  12  12  12
#     4  10  19  31  46  60  87 130 173 199 246 292
#     4   9  18  31  46  64  92 129 164 193 241 301
#     4  11  17  27  46  67  95 120 164 202 248 302
#     4  10  19  30  45  64  90 128 169 209 245 292
#     4  10  17  27  42  64  89 130 168 202 245 305
#     4  10  17  24  40  66  96 123 157 198 243 300
#     4  10  17  26  42  64  95 126 167 208 245 302
#
# _framework density 16.564692000000001
#
# number of rings (size 3 to 8) (size 9 to 14) (size 15 to 20)
#    0.000    2.000    4.286    2.143    0.000    0.000 
#    0.000    2.143    0.000    0.000    0.000    0.000 
#    0.000    0.000    0.000  352.286    0.000   12.286 
#
# Total GULP energy -467607.053282 kJ/mol
# GULP energy per Si atom -5566.750634 kJ/mol
# Density = 1.652699 g / cm^3
# Si number density = 16.564692 Si / 1000 Ang^3
#
#
#
# Elastic Constant Matrix: (Units=GPa)
#
#
# Indices 1 2 3 4 5 6 
#
# 1 81.3119 48.6204 24.9577 0.0000 0.0000 0.0000
# 2 48.6204 81.3119 24.9577 0.0000 0.0000 0.0000
# 3 24.9577 24.9577 39.6291 0.0000 0.0000 0.0000
# 4 0.0000 0.0000 0.0000 25.9423 0.0000 0.0000
# 5 0.0000 0.0000 0.0000 0.0000 25.9423 0.0000
# 6 0.0000 0.0000 0.0000 0.0000 0.0000 16.3458
#
#
#
# Elastic Compliance Matrix: (Units=1/GPa)
#
#
# Indices 1 2 3 4 5 6 
#
# 1 0.020371 -0.010218 -0.006394 0.000000 0.000000 0.000000
# 2 -0.010218 0.020371 -0.006394 0.000000 0.000000 0.000000
# 3 -0.006394 -0.006394 0.033288 0.000000 0.000000 0.000000
# 4 0.000000 0.000000 0.000000 0.038547 0.000000 0.000000
# 5 0.000000 0.000000 0.000000 0.000000 0.038547 0.000000
# 6 0.000000 0.000000 0.000000 0.000000 0.000000 0.061178
#
#
# Mechanical properties :
#
#
# Convention : Reuss Voigt Hill
#
# Bulk Modulus (GPa) = 35.69256 44.36939 40.03097
# Shear Modulus (GPa) = 18.68094 20.56056 19.62075
#
# Velocity S-wave (km/s) = 3.36185 3.52693 3.44538
# Velocity P-wave (km/s) = 6.05504 6.59009 6.32822
#
# Compressibility (1/GPa) = 0.02801704
#
# Stress axis : x y z
#
# Youngs Moduli (GPa) = 49.08984 49.08984 30.04121
#
# Poissons Ratio (x) = 0.50161 0.19208
# Poissons Ratio (y) = 0.50161 0.19208
# Poissons Ratio (z) = 0.31388 0.31388
#
# Static dielectric constant tensor:
#      x y z
#    x 1.602860 0.000000 0.000000 
#    y 0.000000 1.602860 0.000000 
#    z 0.000000 0.000000 1.590420 
# 
# From -- ./inp_files/9653.got.cif
#   From: 2010.05.17/outbox.cif.g08.bks.cpg/sg178_5_cif.got.tgz:9653.got - 2010.05.20 11:30:59.
