data_PCOD9582429
_publ_section_title
;
Structure prediction by ZEFSAII (Michael W. Deem and Ramdas Pophale) SiO2 
 PCOD9582429
Probable space group: P 61 2 2
;
_chemical_formula_sum "Si O2"
_cell_formula_units_Z 78
_cell_length_a 17.807280
_cell_length_b 17.807280
_cell_length_c 15.611653
_cell_angle_alpha 90.000000
_cell_angle_beta 90.000000
_cell_angle_gamma 120.000000
_cell_volume 4287.209402
_symmetry_space_group_name_H-M "P 61 2 2"
_symmetry_group_IT_number 178
_symmetry_cell_setting 'hexagonal'
loop_
_space_group_symop_operation_xyz
x,y,z
x-y,x,1/6+z
-y,x-y,1/3+z
-x,-y,1/2+z
-x+y,-x,2/3+z
y,-x+y,5/6+z
x-y,-y,-z
-x,-x+y,2/3-z
y,x,1/3-z
-y,-x,5/6-z
-x+y,y,1/2-z
x,x-y,1/6-z
loop_
_atom_site_type_symbol
_atom_site_label
_atom_site_fract_x
_atom_site_fract_y
_atom_site_fract_z
Si Si1 0.299427 0.978894 0.595610
Si Si2 0.849500 0.549150 0.191022
Si Si3 0.000000 0.908733 0.333334
Si Si4 0.213377 0.798289 0.177730
Si Si5 0.003257 0.818669 0.568796
Si Si6 0.190755 0.250349 0.082712
Si Si7 0.387135 0.734665 0.344432
O O1 0.273492 0.881032 0.619439
O O2 0.283271 0.000000 0.500000
O O3 0.398669 0.052837 0.609179
O O4 0.240555 0.996269 0.660271
O O5 0.780980 0.561959 0.250000
O O6 0.813612 0.446547 0.186933
O O7 0.849834 0.587409 0.097327
O O8 0.088437 0.917470 0.294670
O O9 0.968967 0.937933 0.250000
O O10 0.203098 0.857386 0.104612
O O11 0.273834 0.760422 0.148178
O O12 0.010309 0.780231 0.659145
O O13 0.912735 0.817640 0.579815
O O14 0.234202 0.234202 0.166667
O O15 0.333086 0.666915 0.416667
O O16 0.349467 0.698933 0.250000
#
# Coordination Sequence:
#
# PCOD9582429 Si02
#       7
#    12  12   6  12  12  12  12
#     4  11  22  36  60  92 125 155 190 254 317 364
#     4  10  18  36  64  91 123 156 193 248 313 363
#     4  12  26  36  52  78 106 148 204 262 292 332
#     4  10  21  39  59  90 122 154 207 247 293 368
#     4  11  24  38  54  80 113 156 210 255 298 346
#     4  11  23  40  57  75 115 165 204 247 295 352
#     4   9  20  40  69  94 120 154 193 245 305 367
#
# _framework density 18.193653000000001
#
# number of rings (size 3 to 8) (size 9 to 14) (size 15 to 20)
#    0.000    1.538    4.615    0.462    2.154    0.615 
#    0.000    6.154    0.000    0.000    0.000    0.000 
#    0.000    0.000    0.000    0.000    0.000    0.000 
#
# Total GULP energy -434332.693997 kJ/mol
# GULP energy per Si atom -5568.367872 kJ/mol
# Density = 1.815224 g / cm^3
# Si number density = 18.193653 Si / 1000 Ang^3
#
#
#
# Elastic Constant Matrix: (Units=GPa)
#
#
# Indices 1 2 3 4 5 6 
#
# 1 89.9202 56.0787 51.5387 0.0000 0.0000 0.0000
# 2 56.0787 89.9202 51.5387 0.0000 0.0000 0.0000
# 3 51.5387 51.5387 155.2070 0.0000 0.0000 0.0000
# 4 0.0000 0.0000 0.0000 22.2354 0.0000 0.0000
# 5 0.0000 0.0000 0.0000 0.0000 22.2354 0.0000
# 6 0.0000 0.0000 0.0000 0.0000 0.0000 16.9207
#
#
#
# Elastic Compliance Matrix: (Units=1/GPa)
#
#
# Indices 1 2 3 4 5 6 
#
# 1 0.019248 -0.010301 -0.002971 0.000000 0.000000 0.000000
# 2 -0.010301 0.019248 -0.002971 0.000000 0.000000 0.000000
# 3 -0.002971 -0.002971 0.008416 0.000000 0.000000 0.000000
# 4 0.000000 0.000000 0.000000 0.044973 0.000000 0.000000
# 5 0.000000 0.000000 0.000000 0.000000 0.044973 0.000000
# 6 0.000000 0.000000 0.000000 0.000000 0.000000 0.059099
#
#
# Mechanical properties :
#
#
# Convention : Reuss Voigt Hill
#
# Bulk Modulus (GPa) = 69.31874 72.59551 70.95712
# Shear Modulus (GPa) = 21.43592 24.00440 22.72016
#
# Velocity S-wave (km/s) = 3.43623 3.63627 3.53766
# Velocity P-wave (km/s) = 7.34349 7.59066 7.46810
#
# Compressibility (1/GPa) = 0.01442611
#
# Stress axis : x y z
#
# Youngs Moduli (GPa) = 51.95288 51.95288 118.81989
#
# Poissons Ratio (x) = 0.53518 0.35301
# Poissons Ratio (y) = 0.53518 0.35301
# Poissons Ratio (z) = 0.15435 0.15435
#
# Static dielectric constant tensor:
#      x y z
#    x 1.662530 0.000000 0.000000 
#    y 0.000000 1.662530 0.000000 
#    z 0.000000 0.000000 1.574850 
# 
# From -- ./inp_files/5971.got.cif
#   From: 2010.05.17/outbox.cif.g08.bks.cpg/sg178_3_cif.got.tgz:5971.got - 2010.05.20 11:30:59.
