data_PCOD9582681
_publ_section_title
;
Structure prediction by ZEFSAII (Michael W. Deem and Ramdas Pophale) SiO2 
 PCOD9582681
Probable space group: P 61 2 2
;
_chemical_formula_sum "Si O2"
_cell_formula_units_Z 42
_cell_length_a 14.725895
_cell_length_b 14.725895
_cell_length_c 11.486809
_cell_angle_alpha 90.000000
_cell_angle_beta 90.000000
_cell_angle_gamma 120.000000
_cell_volume 2157.214995
_symmetry_space_group_name_H-M "P 61 2 2"
_symmetry_group_IT_number 178
_symmetry_cell_setting 'hexagonal'
loop_
_space_group_symop_operation_xyz
x,y,z
x-y,x,1/6+z
-y,x-y,1/3+z
-x,-y,1/2+z
-x+y,-x,2/3+z
y,-x+y,5/6+z
x-y,-y,-z
-x,-x+y,2/3-z
y,x,1/3-z
-y,-x,5/6-z
-x+y,y,1/2-z
x,x-y,1/6-z
loop_
_atom_site_type_symbol
_atom_site_label
_atom_site_fract_x
_atom_site_fract_y
_atom_site_fract_z
Si Si1 0.188057 0.555293 0.822352
Si Si2 0.079492 0.726542 0.481042
Si Si3 0.384456 0.225995 0.835847
Si Si4 0.455759 0.227880 0.083334
O O1 0.294572 0.589143 0.750000
O O2 0.100683 0.464481 0.738426
O O3 0.184799 0.656648 0.861420
O O4 0.186624 0.493859 0.939481
O O5 0.168000 0.832001 0.416667
O O6 0.115639 0.755679 0.614412
O O7 0.960705 0.695685 0.464870
O O8 0.391694 0.230932 0.973549
#
# Coordination Sequence:
#
# PCOD9582681 Si02
#       4
#    12  12  12   6
#     4   9  18  35  57  76 111 154 196 224 264 333
#     4   9  19  39  62  82 108 148 201 242 280 341
#     4  10  21  37  56  88 114 149 195 236 290 341
#     4  12  22  34  52  84 128 158 182 234 290 336
#
# _framework density 19.469549000000001
#
# number of rings (size 3 to 8) (size 9 to 14) (size 15 to 20)
#    0.000    2.857    0.000    6.000    0.000    4.571 
#   15.429    0.000    0.000    0.000   18.571    0.000 
#    0.000    0.000    0.000    0.000    0.000    0.000 
#
# Total GULP energy -234036.975239 kJ/mol
# GULP energy per Si atom -5572.308934 kJ/mol
# Density = 1.942523 g / cm^3
# Si number density = 19.469549 Si / 1000 Ang^3
#
#
#
# Elastic Constant Matrix: (Units=GPa)
#
#
# Indices 1 2 3 4 5 6 
#
# 1 47.5228 34.4404 27.7551 0.0000 0.0000 0.0000
# 2 34.4404 47.5228 27.7551 0.0000 0.0000 0.0000
# 3 27.7551 27.7551 125.5073 0.0000 0.0000 0.0000
# 4 0.0000 0.0000 0.0000 11.8806 0.0000 0.0000
# 5 0.0000 0.0000 0.0000 0.0000 11.8806 0.0000
# 6 0.0000 0.0000 0.0000 0.0000 0.0000 6.5412
#
#
#
# Elastic Compliance Matrix: (Units=1/GPa)
#
#
# Indices 1 2 3 4 5 6 
#
# 1 0.045394 -0.031044 -0.003173 0.000000 0.000000 0.000000
# 2 -0.031044 0.045394 -0.003173 0.000000 0.000000 0.000000
# 3 -0.003173 -0.003173 0.009371 0.000000 0.000000 0.000000
# 4 0.000000 0.000000 0.000000 0.084171 0.000000 0.000000
# 5 0.000000 0.000000 0.000000 0.000000 0.084171 0.000000
# 6 0.000000 0.000000 0.000000 0.000000 0.000000 0.152876
#
#
# Mechanical properties :
#
#
# Convention : Reuss Voigt Hill
#
# Bulk Modulus (GPa) = 39.40526 44.49491 41.95009
# Shear Modulus (GPa) = 9.90847 14.76729 12.33788
#
# Velocity S-wave (km/s) = 2.25838 2.75704 2.52007
# Velocity P-wave (km/s) = 5.20420 5.74789 5.48279
#
# Compressibility (1/GPa) = 0.02537732
#
# Stress axis : x y z
#
# Youngs Moduli (GPa) = 22.02936 22.02936 106.70990
#
# Poissons Ratio (x) = 0.68388 0.33863
# Poissons Ratio (y) = 0.68388 0.33863
# Poissons Ratio (z) = 0.06991 0.06991
#
# Static dielectric constant tensor:
#      x y z
#    x 1.697970 0.000000 0.000000 
#    y 0.000000 1.697970 0.000000 
#    z 0.000000 0.000000 1.746210 
# 
# From -- ./inp_files/3970.got.cif
#   From: 2010.05.17/outbox.cif.g08.bks.cpg/sg178_2_cif.got.tgz:3970.got - 2010.05.20 11:30:59.
