data_PCOD9582740
_publ_section_title
;
Structure prediction by ZEFSAII (Michael W. Deem and Ramdas Pophale) SiO2 
 PCOD9582740
Probable space group: P 61 2 2
;
_chemical_formula_sum "Si O2"
_cell_formula_units_Z 84
_cell_length_a 21.570018
_cell_length_b 21.570018
_cell_length_c 11.502854
_cell_angle_alpha 90.000000
_cell_angle_beta 90.000000
_cell_angle_gamma 120.000000
_cell_volume 4634.866764
_symmetry_space_group_name_H-M "P 61 2 2"
_symmetry_group_IT_number 178
_symmetry_cell_setting 'hexagonal'
loop_
_space_group_symop_operation_xyz
x,y,z
x-y,x,1/6+z
-y,x-y,1/3+z
-x,-y,1/2+z
-x+y,-x,2/3+z
y,-x+y,5/6+z
x-y,-y,-z
-x,-x+y,2/3-z
y,x,1/3-z
-y,-x,5/6-z
-x+y,y,1/2-z
x,x-y,1/6-z
loop_
_atom_site_type_symbol
_atom_site_label
_atom_site_fract_x
_atom_site_fract_y
_atom_site_fract_z
Si Si1 0.341176 0.737985 0.133444
Si Si2 0.886806 0.487838 0.892403
Si Si3 0.774038 0.143068 0.804581
Si Si4 0.531422 0.926630 0.695541
Si Si5 0.481742 0.293955 0.810980
Si Si6 0.316370 0.961680 0.128934
Si Si7 0.452486 0.374457 0.610810
O O1 0.386125 0.772250 0.250000
O O2 0.354812 0.677406 0.083334
O O3 0.363096 0.802083 0.045310
O O4 0.260766 0.705871 0.175488
O O5 0.926378 0.514679 0.771671
O O6 0.901673 0.562042 0.946533
O O7 0.917530 0.439992 0.947639
O O8 0.796401 0.216423 0.733748
O O9 0.756458 0.080249 0.707251
O O10 0.696603 0.110339 0.866875
O O11 0.830142 0.169859 0.916667
O O12 0.468244 0.936488 0.750000
O O13 0.526984 0.853333 0.735850
O O14 0.616063 0.982250 0.707122
O O15 0.483925 0.350053 0.717457
O O16 0.320820 0.000000 0.000000
O O17 0.401680 0.401680 0.666667
#
# Coordination Sequence:
#
# PCOD9582740 Si02
#       7
#    12  12  12  12  12  12  12
#     4  12  26  39  52  70 101 141 178 219 294 384
#     4  11  23  37  52  74 100 130 176 239 287 349
#     4  10  22  38  57  77 108 135 167 219 294 362
#     4  11  22  36  58  75  99 131 185 232 286 349
#     4  11  22  38  52  75 102 136 169 227 289 360
#     4  10  22  39  56  81 100 133 175 232 292 343
#     4  11  21  35  58  81  98 129 180 232 285 346
#
# _framework density 18.123498000000001
#
# number of rings (size 3 to 8) (size 9 to 14) (size 15 to 20)
#    0.000    1.143    2.857    4.286    4.000    1.143 
#    0.000    0.000    0.000    0.000    0.000    0.000 
#    0.000    0.000    0.000    0.000    0.000    0.000 
#
# Total GULP energy -467753.796760 kJ/mol
# GULP energy per Si atom -5568.497580 kJ/mol
# Density = 1.808225 g / cm^3
# Si number density = 18.123498 Si / 1000 Ang^3
#
#
#
# Elastic Constant Matrix: (Units=GPa)
#
#
# Indices 1 2 3 4 5 6 
#
# 1 65.3481 28.8533 24.2660 0.0000 0.0000 0.0000
# 2 28.8533 65.3481 24.2660 0.0000 0.0000 0.0000
# 3 24.2660 24.2660 52.2095 0.0000 0.0000 0.0000
# 4 0.0000 0.0000 0.0000 25.5318 0.0000 0.0000
# 5 0.0000 0.0000 0.0000 0.0000 25.5318 0.0000
# 6 0.0000 0.0000 0.0000 0.0000 0.0000 18.2474
#
#
#
# Elastic Compliance Matrix: (Units=1/GPa)
#
#
# Indices 1 2 3 4 5 6 
#
# 1 0.020679 -0.006722 -0.006487 0.000000 0.000000 0.000000
# 2 -0.006722 0.020679 -0.006487 0.000000 0.000000 0.000000
# 3 -0.006487 -0.006487 0.025184 0.000000 0.000000 0.000000
# 4 0.000000 0.000000 0.000000 0.039167 0.000000 0.000000
# 5 0.000000 0.000000 0.000000 0.000000 0.039167 0.000000
# 6 0.000000 0.000000 0.000000 0.000000 0.000000 0.054802
#
#
# Mechanical properties :
#
#
# Convention : Reuss Voigt Hill
#
# Bulk Modulus (GPa) = 36.83202 37.51956 37.17579
# Shear Modulus (GPa) = 20.15141 20.89691 20.52416
#
# Velocity S-wave (km/s) = 3.33813 3.39931 3.36886
# Velocity P-wave (km/s) = 5.93501 6.01284 5.97405
#
# Compressibility (1/GPa) = 0.02715029
#
# Stress axis : x y z
#
# Youngs Moduli (GPa) = 48.35714 48.35714 39.70779
#
# Poissons Ratio (x) = 0.32504 0.25760
# Poissons Ratio (y) = 0.32504 0.25760
# Poissons Ratio (z) = 0.31371 0.31371
#
# Static dielectric constant tensor:
#      x y z
#    x 1.653030 0.000000 0.000000 
#    y 0.000000 1.653030 0.000000 
#    z 0.000000 0.000000 1.780830 
# 
# From -- ./inp_files/4792.got.cif
#   From: 2010.05.17/outbox.cif.g08.bks.cpg/sg178_3_cif.got.tgz:4792.got - 2010.05.20 11:30:59.
