data_PCOD9582198
_publ_section_title
;
Structure prediction by ZEFSAII (Michael W. Deem and Ramdas Pophale) SiO2 
 PCOD9582198
Probable space group: P 6 2 2
;
_chemical_formula_sum "Si O2"
_cell_formula_units_Z 39
_cell_length_a 13.823314
_cell_length_b 13.823314
_cell_length_c 14.525929
_cell_angle_alpha 90.000000
_cell_angle_beta 90.000000
_cell_angle_gamma 120.000000
_cell_volume 2403.803124
_symmetry_space_group_name_H-M "P 6 2 2"
_symmetry_group_IT_number 177
_symmetry_cell_setting 'hexagonal'
loop_
_space_group_symop_operation_xyz
x,y,z
x-y,x,z
-y,x-y,z
-x,-y,z
-x+y,-x,z
y,-x+y,z
x-y,-y,-z
-x,-x+y,-z
y,x,-z
-y,-x,-z
-x+y,y,-z
x,x-y,-z
loop_
_atom_site_type_symbol
_atom_site_label
_atom_site_fract_x
_atom_site_fract_y
_atom_site_fract_z
Si Si1 0.000000 0.500000 0.500000
Si Si2 0.124028 0.669019 0.038156
Si Si3 0.544706 0.885860 0.666256
Si Si4 0.548251 0.675552 0.741808
O O1 0.921666 0.392765 0.563567
O O2 0.131207 0.679031 0.148137
O O3 0.211394 0.788607 0.000000
O O4 0.154544 0.577272 0.000000
O O5 0.000000 0.625130 0.000000
O O6 0.566995 0.785597 0.688631
O O7 0.426978 0.854420 0.713574
O O8 0.638514 0.001799 0.710676
#
# Coordination Sequence:
#
# PCOD9582198 Si02
#       4
#     3  12  12  12
#     4   8  20  36  52  80  94 134 164 204 256 310
#     4  11  20  31  49  72 101 134 173 208 246 300
#     4  10  20  33  53  71 104 128 169 207 257 307
#     4  10  19  33  48  74 100 136 164 211 255 297
#
# _framework density 16.22429
#
# number of rings (size 3 to 8) (size 9 to 14) (size 15 to 20)
#    0.000    2.154    0.000    8.308    0.000    4.923 
#    0.000    0.000    0.000    0.923    0.000    4.308 
#    0.000    9.846    0.000    0.000    0.000    0.000 
#
# Total GULP energy -217425.026685 kJ/mol
# GULP energy per Si atom -5575.000684 kJ/mol
# Density = 1.618736 g / cm^3
# Si number density = 16.224290 Si / 1000 Ang^3
#
#
#
# Elastic Constant Matrix: (Units=GPa)
#
#
# Indices 1 2 3 4 5 6 
#
# 1 95.5042 70.5612 44.5121 0.0000 0.0000 0.0000
# 2 70.5612 95.5042 44.5121 0.0000 0.0000 0.0000
# 3 44.5121 44.5121 157.2547 0.0000 0.0000 0.0000
# 4 0.0000 0.0000 0.0000 29.2165 0.0000 0.0000
# 5 0.0000 0.0000 0.0000 0.0000 29.2165 0.0000
# 6 0.0000 0.0000 0.0000 0.0000 0.0000 12.4715
#
#
#
# Elastic Compliance Matrix: (Units=1/GPa)
#
#
# Indices 1 2 3 4 5 6 
#
# 1 0.023595 -0.016496 -0.002009 0.000000 0.000000 0.000000
# 2 -0.016496 0.023595 -0.002009 0.000000 0.000000 0.000000
# 3 -0.002009 -0.002009 0.007497 0.000000 0.000000 0.000000
# 4 0.000000 0.000000 0.000000 0.034227 0.000000 0.000000
# 5 0.000000 0.000000 0.000000 0.000000 0.034227 0.000000
# 6 0.000000 0.000000 0.000000 0.000000 0.000000 0.080183
#
#
# Mechanical properties :
#
#
# Convention : Reuss Voigt Hill
#
# Bulk Modulus (GPa) = 73.22308 74.15934 73.69121
# Shear Modulus (GPa) = 20.08786 26.75940 23.42363
#
# Velocity S-wave (km/s) = 3.52253 4.06562 3.80378
# Velocity P-wave (km/s) = 7.85965 8.23693 8.05050
#
# Compressibility (1/GPa) = 0.01365690
#
# Stress axis : x y z
#
# Youngs Moduli (GPa) = 42.38163 42.38163 133.39270
#
# Poissons Ratio (x) = 0.69914 0.26804
# Poissons Ratio (y) = 0.69914 0.26804
# Poissons Ratio (z) = 0.08516 0.08516
#
# Static dielectric constant tensor:
#      x y z
#    x 1.534880 0.000000 0.000000 
#    y 0.000000 1.534880 0.000000 
#    z 0.000000 0.000000 1.578450 
# 
# From -- ./inp_files/1701.got.cif
#   From: 2010.05.17/outbox.cif.g08.bks.cpg/sg177_1_cif.got.tgz:1701.got - 2010.05.20 11:28:44.
