data_PCOD9582328
_publ_section_title
;
Structure prediction by ZEFSAII (Michael W. Deem and Ramdas Pophale) SiO2 
 PCOD9582328
Probable space group: P 6 2 2
;
_chemical_formula_sum "Si O2"
_cell_formula_units_Z 67
_cell_length_a 21.000000
_cell_length_b 21.000000
_cell_length_c 9.000000
_cell_angle_alpha 90.000000
_cell_angle_beta 90.000000
_cell_angle_gamma 120.000000
_cell_volume 3437.254828
_symmetry_space_group_name_H-M "P 6 2 2"
_symmetry_group_IT_number 177
_symmetry_cell_setting 'hexagonal'
loop_
_space_group_symop_operation_xyz
x,y,z
x-y,x,z
-y,x-y,z
-x,-y,z
-x+y,-x,z
y,-x+y,z
x-y,-y,-z
-x,-x+y,-z
y,x,-z
-y,-x,-z
-x+y,y,-z
x,x-y,-z
loop_
_atom_site_type_symbol
_atom_site_label
_atom_site_fract_x
_atom_site_fract_y
_atom_site_fract_z
Si Si1 0.999608 0.714919 0.819332
Si Si2 0.500000 0.000000 0.500000
Si Si3 0.240836 0.732264 0.178388
Si Si4 0.651192 0.094846 0.662717
Si Si5 0.988834 0.843421 0.674294
Si Si6 0.666668 0.333334 0.681261
Si Si7 0.757589 0.616445 0.617135
O O1 0.075829 0.745644 0.726103
O O2 0.948657 0.633979 0.749559
O O3 0.975741 0.773981 0.772276
O O4 0.000000 0.709311 0.000000
O O5 0.567947 0.046751 0.610157
O O6 0.161650 0.664701 0.229082
O O7 0.301450 0.716268 0.250880
O O8 0.239871 0.797960 0.270380
O O9 0.252995 0.747006 0.000000
O O10 0.693130 0.119752 0.503410
O O11 0.919420 0.854735 0.702222
O O12 0.000000 0.830223 0.500000
O O13 0.666668 0.333334 0.500000
O O14 0.826458 0.652915 0.500000
#
# Coordination Sequence:
#
# PCOD9582328 Si02
#       7
#    12   3  12  12  12   4  12
#     4  12  25  42  66 101 140 178 230 291 354 409
#     4  12  24  44  74 100 132 180 240 288 348 424
#     4  11  25  43  68 101 139 175 226 295 352 405
#     4  11  24  44  70  99 134 178 233 283 343 435
#     4  10  23  42  70 100 137 182 235 292 355 428
#     4  12  25  44  67  99 136 188 238 273 343 428
#     4  10  22  42  68  93 129 179 227 281 340 420
#
# _framework density 19.492298999999999
#
# number of rings (size 3 to 8) (size 9 to 14) (size 15 to 20)
#    0.000    1.075    1.791    4.478   11.284    1.433 
#    0.000    0.448    0.000    1.075    0.000    0.000 
#    0.000    0.000    0.000    0.000    0.000    0.000 
#
# Total GULP energy -374031.021650 kJ/mol
# GULP energy per Si atom -5582.552562 kJ/mol
# Density = 1.944793 g / cm^3
# Si number density = 19.492299 Si / 1000 Ang^3
#
#
#
# Elastic Constant Matrix: (Units=GPa)
#
#
# Indices 1 2 3 4 5 6 
#
# 1 82.6745 28.6365 51.6952 0.0001 -0.0001 -0.0002
# 2 28.6365 82.6727 51.6950 0.0001 0.0000 -0.0002
# 3 51.6952 51.6950 195.7770 0.0000 0.0001 -0.0001
# 4 0.0001 0.0001 0.0000 32.2205 0.0000 0.0000
# 5 -0.0001 0.0000 0.0001 0.0000 32.2206 0.0000
# 6 -0.0002 -0.0002 -0.0001 0.0000 0.0000 27.0184
#
#
#
# Elastic Compliance Matrix: (Units=1/GPa)
#
#
# Indices 1 2 3 4 5 6 
#
# 1 0.015204 -0.003301 -0.003143 0.000000 0.000000 0.000000
# 2 -0.003301 0.015205 -0.003143 0.000000 0.000000 0.000000
# 3 -0.003143 -0.003143 0.006768 0.000000 0.000000 0.000000
# 4 0.000000 0.000000 0.000000 0.031036 0.000000 0.000000
# 5 0.000000 0.000000 0.000000 0.000000 0.031036 0.000000
# 6 0.000000 0.000000 0.000000 0.000000 0.000000 0.037012
#
#
# Mechanical properties :
#
#
# Convention : Reuss Voigt Hill
#
# Bulk Modulus (GPa) = 55.54914 69.46420 62.50667
# Shear Modulus (GPa) = 30.97193 33.56505 32.26849
#
# Velocity S-wave (km/s) = 3.99047 4.15416 4.07313
# Velocity P-wave (km/s) = 7.05632 7.66312 7.36597
#
# Compressibility (1/GPa) = 0.01800208
#
# Stress axis : x y z
#
# Youngs Moduli (GPa) = 65.77041 65.76876 147.75998
#
# Poissons Ratio (x) = 0.21712 0.46442
# Poissons Ratio (y) = 0.21712 0.46443
# Poissons Ratio (z) = 0.20672 0.20672
#
# Static dielectric constant tensor:
#      x y z
#    x 1.738660 0.000000 0.000000 
#    y 0.000000 1.738660 0.000000 
#    z 0.000000 0.000000 1.628390 
# 
# From -- ./inp_files/1461.got.cif
#   From: 2010.05.17/outbox.ucp.g08.bks.cvg/sg177_1_cif.got.tgz:1461.got - 2010.06.11 15:19:11.
