data_PCOD9582160
_publ_section_title
;
Structure prediction by ZEFSAII (Michael W. Deem and Ramdas Pophale) SiO2 
 PCOD9582160
Probable space group: P 6 2 2
;
_chemical_formula_sum "Si O2"
_cell_formula_units_Z 90
_cell_length_a 18.547851
_cell_length_b 18.547851
_cell_length_c 16.483696
_cell_angle_alpha 90.000000
_cell_angle_beta 90.000000
_cell_angle_gamma 120.000000
_cell_volume 4911.028167
_symmetry_space_group_name_H-M "P 6 2 2"
_symmetry_group_IT_number 177
_symmetry_cell_setting 'hexagonal'
loop_
_space_group_symop_operation_xyz
x,y,z
x-y,x,z
-y,x-y,z
-x,-y,z
-x+y,-x,z
y,-x+y,z
x-y,-y,-z
-x,-x+y,-z
y,x,-z
-y,-x,-z
-x+y,y,-z
x,x-y,-z
loop_
_atom_site_type_symbol
_atom_site_label
_atom_site_fract_x
_atom_site_fract_y
_atom_site_fract_z
Si Si1 0.819060 0.180941 0.000000
Si Si2 0.374262 0.470967 0.970135
Si Si3 0.805142 0.877448 0.680977
Si Si4 0.861502 0.558635 0.730862
Si Si5 0.821903 0.636687 0.405234
Si Si6 0.096803 0.571899 0.791050
Si Si7 0.370913 0.054782 0.706321
Si Si8 0.309998 0.164599 0.177494
O O1 0.859104 0.280767 0.002254
O O2 0.855465 0.162444 0.918851
O O3 0.377196 0.487229 0.873940
O O4 0.418505 0.418505 0.000000
O O5 0.435387 0.564614 0.000000
O O6 0.870614 0.846810 0.668415
O O7 0.724367 0.829953 0.622979
O O8 0.766557 0.859104 0.772228
O O9 0.815416 0.564553 0.650027
O O10 0.852082 0.474279 0.768440
O O11 0.840823 0.608469 0.797861
O O12 0.958654 0.616630 0.708595
O O13 0.811413 0.622825 0.500000
O O14 0.908743 0.646751 0.373720
O O15 0.103604 0.634124 0.721102
O O16 0.000000 0.500000 0.798249
O O17 0.326178 0.076183 0.779614
#
# Coordination Sequence:
#
# PCOD9582160 Si02
#       8
#     6  12  12  12  12  12  12  12
#     4  12  24  32  56  86 117 150 203 248 290 344
#     4  11  22  36  54  82 117 158 196 245 299 344
#     4  10  21  37  57  80 110 149 193 237 292 350
#     4   9  19  33  56  79 102 141 183 223 276 336
#     4  10  20  36  57  82 114 143 175 228 291 351
#     4  10  17  33  55  75 107 144 182 223 271 331
#     4   9  18  33  52  78 105 136 181 223 272 335
#     4  10  19  33  50  76 111 147 185 233 279 334
#
# _framework density 18.326101000000001
#
# number of rings (size 3 to 8) (size 9 to 14) (size 15 to 20)
#    0.000    2.267    2.667    4.133    1.867    3.200 
#    0.400    0.667    0.000    7.467    0.000    0.933 
#    0.000    0.000    0.000    0.000    0.000    0.000 
#
# Total GULP energy -501390.923272 kJ/mol
# GULP energy per Si atom -5571.010259 kJ/mol
# Density = 1.828439 g / cm^3
# Si number density = 18.326101 Si / 1000 Ang^3
#
#
#
# Elastic Constant Matrix: (Units=GPa)
#
#
# Indices 1 2 3 4 5 6 
#
# 1 43.1712 -2.9196 -10.5233 0.0000 0.0000 0.0000
# 2 -2.9196 43.1712 -10.5233 0.0000 0.0000 0.0000
# 3 -10.5233 -10.5233 95.5839 0.0000 0.0000 0.0000
# 4 0.0000 0.0000 0.0000 -4.4521 0.0000 0.0000
# 5 0.0000 0.0000 0.0000 0.0000 -4.4521 0.0000
# 6 0.0000 0.0000 0.0000 0.0000 0.0000 23.0454
#
#
#
# Elastic Compliance Matrix: (Units=1/GPa)
#
#
# Indices 1 2 3 4 5 6 
#
# 1 0.024029 0.002332 0.002902 0.000000 0.000000 0.000000
# 2 0.002332 0.024029 0.002902 0.000000 0.000000 0.000000
# 3 0.002902 0.002902 0.011101 0.000000 0.000000 0.000000
# 4 0.000000 0.000000 0.000000 -0.224611 0.000000 0.000000
# 5 0.000000 0.000000 0.000000 0.000000 -0.224611 0.000000
# 6 0.000000 0.000000 0.000000 0.000000 0.000000 0.043393
#
#
# Mechanical properties :
#
#
# Convention : Reuss Voigt Hill
#
# Bulk Modulus (GPa) = 13.25689 14.88822 14.07256
# Shear Modulus (GPa) = -14.80161 16.55438 0.87638
#
# Velocity S-wave (km/s) = -2.84505 3.00879 0.69228
# Velocity P-wave (km/s) = 1.88224 4.49579 2.88698
#
# Compressibility (1/GPa) = 0.07543246
#
# Stress axis : x y z
#
# Youngs Moduli (GPa) = 41.61675 41.61675 90.08157
#
# Poissons Ratio (x) = -0.09707 -0.26144
# Poissons Ratio (y) = -0.09707 -0.26144
# Poissons Ratio (z) = -0.12078 -0.12078
#
# Static dielectric constant tensor:
#      x y z
#    x 1.687940 0.000000 0.000000 
#    y 0.000000 1.687940 0.000000 
#    z 0.000000 0.000000 1.672970 
# 
# From -- ./inp_files/2932.got.cif
#   From: 2010.05.17/outbox.cif.g08.bks.cpg/sg177_2_cif.got.tgz:2932.got - 2010.05.20 11:28:44.
