data_PCOD9582402
_publ_section_title
;
Structure prediction by ZEFSAII (Michael W. Deem and Ramdas Pophale) SiO2 
 PCOD9582402
Probable space group: P 61 2 2
;
_chemical_formula_sum "Si O2"
_cell_formula_units_Z 66
_cell_length_a 22.455268
_cell_length_b 22.455268
_cell_length_c 8.363470
_cell_angle_alpha 90.000000
_cell_angle_beta 90.000000
_cell_angle_gamma 120.000000
_cell_volume 3652.192165
_symmetry_space_group_name_H-M "P 61 2 2"
_symmetry_group_IT_number 178
_symmetry_cell_setting 'hexagonal'
loop_
_space_group_symop_operation_xyz
x,y,z
x-y,x,1/6+z
-y,x-y,1/3+z
-x,-y,1/2+z
-x+y,-x,2/3+z
y,-x+y,5/6+z
x-y,-y,-z
-x,-x+y,2/3-z
y,x,1/3-z
-y,-x,5/6-z
-x+y,y,1/2-z
x,x-y,1/6-z
loop_
_atom_site_type_symbol
_atom_site_label
_atom_site_fract_x
_atom_site_fract_y
_atom_site_fract_z
Si Si1 0.599266 0.675148 0.742667
Si Si2 0.091373 0.138466 0.931958
Si Si3 0.600692 0.451459 0.744275
Si Si4 0.624718 0.312359 0.083334
Si Si5 0.055835 0.580658 0.468383
Si Si6 0.919357 0.732869 0.881426
O O1 0.638334 0.638334 0.666667
O O2 0.531286 0.647958 0.634600
O O3 0.653766 0.756167 0.746269
O O4 0.571797 0.644566 0.918881
O O5 0.116917 0.083112 0.904603
O O6 0.068899 0.137798 0.750000
O O7 0.144392 0.217787 0.972010
O O8 0.649936 0.419496 0.744130
O O9 0.538675 0.417291 0.616115
O O10 0.564797 0.435204 0.916667
O O11 0.665950 0.331900 0.250000
O O12 0.027909 0.513955 0.583334
O O13 0.000000 0.566788 0.333334
O O14 0.867645 0.735289 0.750000
O O15 0.000000 0.770854 0.833334
#
# Coordination Sequence:
#
# PCOD9582402 Si02
#       6
#    12  12  12   6  12  12
#     4  10  22  36  58  92 118 154 201 244 299 366
#     4  10  21  41  61  90 122 156 207 266 307 352
#     4  10  20  38  61  86 116 157 193 254 298 352
#     4  10  24  38  58  84 118 156 198 240 308 362
#     4  10  18  33  60  87 119 147 197 249 298 350
#     4  11  22  40  61  84 120 165 203 244 302 368
#
# _framework density 18.071338999999998
#
# number of rings (size 3 to 8) (size 9 to 14) (size 15 to 20)
#    0.000    1.818    1.818    3.818    5.091    0.000 
#   13.091    1.818    0.000    0.000    0.000    0.000 
#    0.000    0.000    0.000    0.000    0.000    0.000 
#
# Total GULP energy -367528.830881 kJ/mol
# GULP energy per Si atom -5568.618650 kJ/mol
# Density = 1.803021 g / cm^3
# Si number density = 18.071339 Si / 1000 Ang^3
#
#
#
# Elastic Constant Matrix: (Units=GPa)
#
#
# Indices 1 2 3 4 5 6 
#
# 1 82.4461 74.6283 57.4420 0.0000 0.0000 0.0000
# 2 74.6283 82.4461 57.4420 0.0000 0.0000 0.0000
# 3 57.4420 57.4420 118.0818 0.0000 0.0000 0.0000
# 4 0.0000 0.0000 0.0000 29.5024 0.0000 0.0000
# 5 0.0000 0.0000 0.0000 0.0000 29.5024 0.0000
# 6 0.0000 0.0000 0.0000 0.0000 0.0000 3.9089
#
#
#
# Elastic Compliance Matrix: (Units=1/GPa)
#
#
# Indices 1 2 3 4 5 6 
#
# 1 0.068898 -0.059015 -0.004807 0.000000 0.000000 0.000000
# 2 -0.059015 0.068898 -0.004807 0.000000 0.000000 0.000000
# 3 -0.004807 -0.004807 0.013146 0.000000 0.000000 0.000000
# 4 0.000000 0.000000 0.000000 0.033896 0.000000 0.000000
# 5 0.000000 0.000000 0.000000 0.000000 0.033896 0.000000
# 6 0.000000 0.000000 0.000000 0.000000 0.000000 0.255825
#
#
# Mechanical properties :
#
#
# Convention : Reuss Voigt Hill
#
# Bulk Modulus (GPa) = 73.09269 73.55540 73.32405
# Shear Modulus (GPa) = 8.11192 18.81355 13.46273
#
# Velocity S-wave (km/s) = 2.12098 3.23006 2.73239
# Velocity P-wave (km/s) = 6.82148 7.39610 7.11459
#
# Compressibility (1/GPa) = 0.01368126
#
# Stress axis : x y z
#
# Youngs Moduli (GPa) = 14.51431 14.51431 76.06884
#
# Poissons Ratio (x) = 0.85656 0.36570
# Poissons Ratio (y) = 0.85656 0.36570
# Poissons Ratio (z) = 0.06978 0.06978
#
# Static dielectric constant tensor:
#      x y z
#    x 1.620810 0.000000 0.000000 
#    y 0.000000 1.620810 0.000000 
#    z 0.000000 0.000000 1.641360 
# 
# From -- ./inp_files/3251.got.cif
#   From: 2010.05.17/outbox.cif.g08.bks.cpg/sg178_2_cif.got.tgz:3251.got - 2010.05.20 11:30:59.
