data_PCOD9582351
_publ_section_title
;
Structure prediction by ZEFSAII (Michael W. Deem and Ramdas Pophale) SiO2 
 PCOD9582351
Probable space group: P 61 2 2
;
_chemical_formula_sum "Si O2"
_cell_formula_units_Z 60
_cell_length_a 15.067132
_cell_length_b 15.067132
_cell_length_c 15.964936
_cell_angle_alpha 90.000000
_cell_angle_beta 90.000000
_cell_angle_gamma 120.000000
_cell_volume 3138.766435
_symmetry_space_group_name_H-M "P 61 2 2"
_symmetry_group_IT_number 178
_symmetry_cell_setting 'hexagonal'
loop_
_space_group_symop_operation_xyz
x,y,z
x-y,x,1/6+z
-y,x-y,1/3+z
-x,-y,1/2+z
-x+y,-x,2/3+z
y,-x+y,5/6+z
x-y,-y,-z
-x,-x+y,2/3-z
y,x,1/3-z
-y,-x,5/6-z
-x+y,y,1/2-z
x,x-y,1/6-z
loop_
_atom_site_type_symbol
_atom_site_label
_atom_site_fract_x
_atom_site_fract_y
_atom_site_fract_z
Si Si1 0.420925 0.892083 0.032454
Si Si2 0.899116 0.206470 0.561416
Si Si3 0.604312 0.884141 0.313287
Si Si4 0.293713 0.587425 0.750000
Si Si5 0.230971 0.461942 0.250000
Si Si6 0.763630 0.381815 0.083334
Si Si7 0.896170 0.000000 0.500000
O O1 0.355749 0.908667 0.105814
O O2 0.469535 0.825011 0.063518
O O3 0.341686 0.825052 0.959803
O O4 0.503753 0.000000 0.000000
O O5 0.833451 0.184953 0.646636
O O6 0.843204 0.235584 0.490295
O O7 0.015683 0.299935 0.560104
O O8 0.888061 0.098673 0.529815
O O9 0.505620 0.828708 0.252441
O O10 0.299819 0.653176 0.668984
O O11 0.932014 0.966007 0.583334
#
# Coordination Sequence:
#
# PCOD9582351 Si02
#       7
#    12  12  12   6   6   6   6
#     4  10  19  34  57  92 128 169 211 272 326 414
#     4  11  18  33  59  96 127 168 208 284 333 401
#     4  10  21  36  59  91 131 165 217 261 347 406
#     4  10  22  42  65  88 132 168 223 272 336 388
#     4  10  17  28  56  92 126 154 210 259 346 384
#     4  10  23  46  63  94 128 178 219 281 330 424
#     4  12  22  34  62  96 146 170 220 294 352 396
#
# _framework density 19.115788999999999
#
# number of rings (size 3 to 8) (size 9 to 14) (size 15 to 20)
#    0.000    1.600    5.000    0.600    2.800    0.000 
#    7.200    4.000    2.200    0.000    0.000    0.000 
#    0.000    0.000    0.000    0.000    0.000    0.000 
#
# Total GULP energy -334120.181218 kJ/mol
# GULP energy per Si atom -5568.669687 kJ/mol
# Density = 1.907228 g / cm^3
# Si number density = 19.115789 Si / 1000 Ang^3
#
#
#
# Elastic Constant Matrix: (Units=GPa)
#
#
# Indices 1 2 3 4 5 6 
#
# 1 110.3938 64.9625 39.2186 0.0000 0.0000 0.0000
# 2 64.9625 110.3938 39.2186 0.0000 0.0000 0.0000
# 3 39.2186 39.2186 100.7132 0.0000 0.0000 0.0000
# 4 0.0000 0.0000 0.0000 26.8366 0.0000 0.0000
# 5 0.0000 0.0000 0.0000 0.0000 26.8366 0.0000
# 6 0.0000 0.0000 0.0000 0.0000 0.0000 22.7157
#
#
#
# Elastic Compliance Matrix: (Units=1/GPa)
#
#
# Indices 1 2 3 4 5 6 
#
# 1 0.014458 -0.007553 -0.002689 0.000000 0.000000 0.000000
# 2 -0.007553 0.014458 -0.002689 0.000000 0.000000 0.000000
# 3 -0.002689 -0.002689 0.012023 0.000000 0.000000 0.000000
# 4 0.000000 0.000000 0.000000 0.037263 0.000000 0.000000
# 5 0.000000 0.000000 0.000000 0.000000 0.037263 0.000000
# 6 0.000000 0.000000 0.000000 0.000000 0.000000 0.044022
#
#
# Mechanical properties :
#
#
# Convention : Reuss Voigt Hill
#
# Bulk Modulus (GPa) = 66.32082 67.58892 66.95487
# Shear Modulus (GPa) = 26.26385 27.15119 26.70752
#
# Velocity S-wave (km/s) = 3.71068 3.77285 3.74189
# Velocity P-wave (km/s) = 7.28893 7.37656 7.33287
#
# Compressibility (1/GPa) = 0.01507822
#
# Stress axis : x y z
#
# Youngs Moduli (GPa) = 69.16410 69.16410 83.17061
#
# Poissons Ratio (x) = 0.52239 0.22365
# Poissons Ratio (y) = 0.52239 0.22365
# Poissons Ratio (z) = 0.18599 0.18599
#
# Static dielectric constant tensor:
#      x y z
#    x 1.682410 0.000000 0.000000 
#    y 0.000000 1.682410 0.000000 
#    z 0.000000 0.000000 1.691260 
# 
# From -- ./inp_files/5790.got.cif
#   From: 2010.05.17/outbox.cif.g08.bks.cpg/sg178_3_cif.got.tgz:5790.got - 2010.05.20 11:30:59.
