data_PCOD9582657
_publ_section_title
;
Structure prediction by ZEFSAII (Michael W. Deem and Ramdas Pophale) SiO2 
 PCOD9582657
Probable space group: P 61 2 2
;
_chemical_formula_sum "Si O2"
_cell_formula_units_Z 42
_cell_length_a 14.865147
_cell_length_b 14.865147
_cell_length_c 10.283405
_cell_angle_alpha 90.000000
_cell_angle_beta 90.000000
_cell_angle_gamma 120.000000
_cell_volume 1967.913425
_symmetry_space_group_name_H-M "P 61 2 2"
_symmetry_group_IT_number 178
_symmetry_cell_setting 'hexagonal'
loop_
_space_group_symop_operation_xyz
x,y,z
x-y,x,1/6+z
-y,x-y,1/3+z
-x,-y,1/2+z
-x+y,-x,2/3+z
y,-x+y,5/6+z
x-y,-y,-z
-x,-x+y,2/3-z
y,x,1/3-z
-y,-x,5/6-z
-x+y,y,1/2-z
x,x-y,1/6-z
loop_
_atom_site_type_symbol
_atom_site_label
_atom_site_fract_x
_atom_site_fract_y
_atom_site_fract_z
Si Si1 0.101766 0.898235 0.416667
Si Si2 0.000000 0.585731 0.333334
Si Si3 0.794647 0.589294 0.750000
Si Si4 0.370932 0.843365 0.130084
Si Si5 0.309673 0.002386 0.254773
O O1 0.000000 0.864272 0.333334
O O2 0.070740 0.806047 0.522192
O O3 0.907224 0.477843 0.281758
O O4 0.953493 0.624487 0.446641
O O5 0.789404 0.511762 0.862868
O O6 0.756736 0.663622 0.817314
O O7 0.393258 0.786515 0.250000
O O8 0.349754 0.930043 0.193610
#
# Coordination Sequence:
#
# PCOD9582657 Si02
#       5
#     6   6   6  12  12
#     4  12  26  43  64 102 140 188 232 297 352 420
#     4  10  20  44  70  94 136 184 222 280 350 430
#     4  12  22  41  74 104 136 180 240 295 354 424
#     4  10  22  40  69 100 133 180 231 283 344 429
#     4  11  23  42  72  99 138 184 235 283 359 422
#
# _framework density 21.342402
#
# number of rings (size 3 to 8) (size 9 to 14) (size 15 to 20)
#    0.000    1.143    4.286    1.714    0.000    1.143 
#    0.000    0.000   12.571    0.000    0.000    0.000 
#    0.000    0.000    0.000    0.000    0.000    0.000 
#
# Total GULP energy -234401.919609 kJ/mol
# GULP energy per Si atom -5580.998086 kJ/mol
# Density = 2.129383 g / cm^3
# Si number density = 21.342402 Si / 1000 Ang^3
#
#
#
# Elastic Constant Matrix: (Units=GPa)
#
#
# Indices 1 2 3 4 5 6 
#
# 1 82.9560 40.8874 45.8047 0.0000 0.0000 0.0000
# 2 40.8874 82.9560 45.8047 0.0000 0.0000 0.0000
# 3 45.8047 45.8047 128.2938 0.0000 0.0000 0.0000
# 4 0.0000 0.0000 0.0000 26.7353 0.0000 0.0000
# 5 0.0000 0.0000 0.0000 0.0000 26.7353 0.0000
# 6 0.0000 0.0000 0.0000 0.0000 0.0000 21.0343
#
#
#
# Elastic Compliance Matrix: (Units=1/GPa)
#
#
# Indices 1 2 3 4 5 6 
#
# 1 0.017372 -0.006399 -0.003918 0.000000 0.000000 0.000000
# 2 -0.006399 0.017372 -0.003918 0.000000 0.000000 0.000000
# 3 -0.003918 -0.003918 0.010592 0.000000 0.000000 0.000000
# 4 0.000000 0.000000 0.000000 0.037404 0.000000 0.000000
# 5 0.000000 0.000000 0.000000 0.000000 0.037404 0.000000
# 6 0.000000 0.000000 0.000000 0.000000 0.000000 0.047541
#
#
# Mechanical properties :
#
#
# Convention : Reuss Voigt Hill
#
# Bulk Modulus (GPa) = 59.28743 62.13330 60.71036
# Shear Modulus (GPa) = 24.78009 25.68156 25.23083
#
# Velocity S-wave (km/s) = 3.41115 3.47264 3.44203
# Velocity P-wave (km/s) = 6.58438 6.72717 6.65616
#
# Compressibility (1/GPa) = 0.01686698
#
# Stress axis : x y z
#
# Youngs Moduli (GPa) = 57.56503 57.56503 94.41116
#
# Poissons Ratio (x) = 0.36836 0.36986
# Poissons Ratio (y) = 0.36836 0.36986
# Poissons Ratio (z) = 0.22551 0.22551
#
# Static dielectric constant tensor:
#      x y z
#    x 1.791590 0.000000 0.000000 
#    y 0.000000 1.791590 0.000000 
#    z 0.000000 0.000000 1.865470 
# 
# From -- ./inp_files/4015.got.cif
#   From: 2010.05.17/outbox.cif.g08.bks.cpg/sg178_3_cif.got.tgz:4015.got - 2010.05.20 11:30:59.
