data_PCOD9582202
_publ_section_title
;
Structure prediction by ZEFSAII (Michael W. Deem and Ramdas Pophale) SiO2 
 PCOD9582202
Probable space group: P 6 2 2
;
_chemical_formula_sum "Si O2"
_cell_formula_units_Z 84
_cell_length_a 18.407254
_cell_length_b 18.407254
_cell_length_c 16.985336
_cell_angle_alpha 90.000000
_cell_angle_beta 90.000000
_cell_angle_gamma 120.000000
_cell_volume 4984.054520
_symmetry_space_group_name_H-M "P 6 2 2"
_symmetry_group_IT_number 177
_symmetry_cell_setting 'hexagonal'
loop_
_space_group_symop_operation_xyz
x,y,z
x-y,x,z
-y,x-y,z
-x,-y,z
-x+y,-x,z
y,-x+y,z
x-y,-y,-z
-x,-x+y,-z
y,x,-z
-y,-x,-z
-x+y,y,-z
x,x-y,-z
loop_
_atom_site_type_symbol
_atom_site_label
_atom_site_fract_x
_atom_site_fract_y
_atom_site_fract_z
Si Si1 0.163351 0.666492 0.134636
Si Si2 0.388848 0.194424 0.594336
Si Si3 0.639967 0.904600 1.000000
Si Si4 0.099903 0.633929 0.313110
Si Si5 0.534026 0.900097 0.686890
Si Si6 0.503140 0.836649 0.865364
Si Si7 0.096675 0.193349 0.404238
O O1 0.112935 0.692764 0.075309
O O2 0.131500 0.660773 0.223744
O O3 0.153981 0.576991 0.114095
O O4 0.260136 0.739864 0.129662
O O5 0.392962 0.196481 0.500000
O O6 0.433077 0.287208 0.630063
O O7 0.433076 0.145868 0.630063
O O8 0.290735 0.145368 0.618479
O O9 0.666153 0.833077 0.000000
O O10 0.579829 0.887065 0.924691
O O11 0.713891 0.000000 0.000000
O O12 0.117986 0.558993 0.334067
O O13 0.000000 0.594564 0.316049
O O14 0.529273 0.868500 0.776256
O O15 0.145435 0.145434 0.377939
O O16 0.095652 0.191304 0.500000
#
# Coordination Sequence:
#
# PCOD9582202 Si02
#       7
#    12  12  12  12  12  12  12
#     4  10  19  33  54  82 115 149 180 214 255 311
#     4  11  22  37  54  76 103 137 182 233 281 332
#     4  10  21  35  55  84 115 147 184 224 267 317
#     4  10  21  37  56  77 105 142 183 227 274 325
#     4  10  21  37  56  77 105 142 183 227 274 325
#     4  10  19  33  54  82 115 149 180 214 255 311
#     4   9  17  30  51  78 105 131 161 207 271 341
#
# _framework density 16.853748
#
# number of rings (size 3 to 8) (size 9 to 14) (size 15 to 20)
#    0.000    2.000    1.429    2.571    0.000    5.143 
#    0.857    2.857    0.000    0.143    0.000    0.000 
#    0.000    0.000    0.000    0.000    0.000    0.000 
#
# Total GULP energy -468915.086012 kJ/mol
# GULP energy per Si atom -5582.322453 kJ/mol
# Density = 1.681539 g / cm^3
# Si number density = 16.853748 Si / 1000 Ang^3
#
#
#
# Elastic Constant Matrix: (Units=GPa)
#
#
# Indices 1 2 3 4 5 6 
#
# 1 122.8645 82.9342 50.6412 0.0000 0.0000 0.0000
# 2 82.9342 122.8645 50.6412 0.0000 0.0000 0.0000
# 3 50.6412 50.6412 61.1877 0.0000 0.0000 0.0000
# 4 0.0000 0.0000 0.0000 17.8474 0.0000 0.0000
# 5 0.0000 0.0000 0.0000 0.0000 17.8474 0.0000
# 6 0.0000 0.0000 0.0000 0.0000 0.0000 19.9651
#
#
#
# Elastic Compliance Matrix: (Units=1/GPa)
#
#
# Indices 1 2 3 4 5 6 
#
# 1 0.016621 -0.008423 -0.006785 0.000000 0.000000 0.000000
# 2 -0.008423 0.016621 -0.006785 0.000000 0.000000 0.000000
# 3 -0.006785 -0.006785 0.027575 0.000000 0.000000 0.000000
# 4 0.000000 0.000000 0.000000 0.056030 0.000000 0.000000
# 5 0.000000 0.000000 0.000000 0.000000 0.056030 0.000000
# 6 0.000000 0.000000 0.000000 0.000000 0.000000 0.050087
#
#
# Mechanical properties :
#
#
# Convention : Reuss Voigt Hill
#
# Bulk Modulus (GPa) = 59.41670 75.03890 67.22780
# Shear Modulus (GPa) = 18.34446 19.31201 18.82824
#
# Velocity S-wave (km/s) = 3.30275 3.38873 3.34601
# Velocity P-wave (km/s) = 7.06222 7.74154 7.40967
#
# Compressibility (1/GPa) = 0.01683028
#
# Stress axis : x y z
#
# Youngs Moduli (GPa) = 60.16461 60.16461 36.26502
#
# Poissons Ratio (x) = 0.50674 0.24607
# Poissons Ratio (y) = 0.50674 0.24607
# Poissons Ratio (z) = 0.40824 0.40824
#
# Static dielectric constant tensor:
#      x y z
#    x 1.553200 0.000000 0.000000 
#    y 0.000000 1.553200 0.000000 
#    z 0.000000 0.000000 1.550630 
# 
# From -- ./inp_files/2614.got.cif
#   From: 2010.05.17/outbox.cif.g08.bks.cpg/sg177_2_cif.got.tgz:2614.got - 2010.05.20 11:28:44.
