data_PCOD9582994
_publ_section_title
;
Structure prediction by ZEFSAII (Michael W. Deem and Ramdas Pophale) SiO2 
 PCOD9582994
Probable space group: P 61 2 2
;
_chemical_formula_sum "Si O2"
_cell_formula_units_Z 54
_cell_length_a 11.504976
_cell_length_b 11.504976
_cell_length_c 23.922556
_cell_angle_alpha 90.000000
_cell_angle_beta 90.000000
_cell_angle_gamma 120.000000
_cell_volume 2742.266420
_symmetry_space_group_name_H-M "P 61 2 2"
_symmetry_group_IT_number 178
_symmetry_cell_setting 'hexagonal'
loop_
_space_group_symop_operation_xyz
x,y,z
x-y,x,1/6+z
-y,x-y,1/3+z
-x,-y,1/2+z
-x+y,-x,2/3+z
y,-x+y,5/6+z
x-y,-y,-z
-x,-x+y,2/3-z
y,x,1/3-z
-y,-x,5/6-z
-x+y,y,1/2-z
x,x-y,1/6-z
loop_
_atom_site_type_symbol
_atom_site_label
_atom_site_fract_x
_atom_site_fract_y
_atom_site_fract_z
Si Si1 0.670337 0.340674 0.250000
Si Si2 0.204348 0.806041 0.141151
Si Si3 0.856777 0.511230 0.343209
Si Si4 0.597233 0.675993 0.927344
Si Si5 0.683744 0.626934 0.727689
O O1 0.554469 0.254988 0.294490
O O2 0.803065 0.430549 0.285658
O O3 0.236647 0.860827 0.204195
O O4 0.051017 0.726459 0.119543
O O5 0.296235 0.935816 0.103767
O O6 0.744090 0.541925 0.363453
O O7 0.887210 0.419611 0.385319
O O8 0.000000 0.642498 0.333334
O O9 0.476305 0.523696 0.916667
O O10 0.689946 0.689946 0.666667
O O11 0.821313 0.642625 0.750000
#
# Coordination Sequence:
#
# PCOD9582994 Si02
#       5
#     6  12  12  12  12
#     4  12  22  42  70 100 134 178 228 280 344 402
#     4  12  26  43  68 106 139 178 233 293 344 415
#     4  11  25  43  68  98 134 185 224 281 341 416
#     4  12  27  42  69 103 144 182 229 295 354 417
#     4  11  23  43  70  95 132 180 228 274 335 415
#
# _framework density 19.691742000000001
#
# number of rings (size 3 to 8) (size 9 to 14) (size 15 to 20)
#    0.000    0.444    7.778    2.000    6.222    0.000 
#    0.000    3.333    0.000    0.000    0.000    0.000 
#    0.000    0.000    0.000    0.000    0.000    0.000 
#
# Total GULP energy -301577.725796 kJ/mol
# GULP energy per Si atom -5584.772700 kJ/mol
# Density = 1.964692 g / cm^3
# Si number density = 19.691742 Si / 1000 Ang^3
#
#
#
# Elastic Constant Matrix: (Units=GPa)
#
#
# Indices 1 2 3 4 5 6 
#
# 1 87.7034 51.0346 17.8241 0.0000 0.0000 0.0000
# 2 51.0346 87.7034 17.8241 0.0000 0.0000 0.0000
# 3 17.8241 17.8241 67.3375 0.0000 0.0000 0.0000
# 4 0.0000 0.0000 0.0000 30.9142 0.0000 0.0000
# 5 0.0000 0.0000 0.0000 0.0000 30.9142 0.0000
# 6 0.0000 0.0000 0.0000 0.0000 0.0000 18.3344
#
#
#
# Elastic Compliance Matrix: (Units=1/GPa)
#
#
# Indices 1 2 3 4 5 6 
#
# 1 0.017503 -0.009769 -0.002047 0.000000 0.000000 0.000000
# 2 -0.009769 0.017503 -0.002047 0.000000 0.000000 0.000000
# 3 -0.002047 -0.002047 0.015934 0.000000 0.000000 0.000000
# 4 0.000000 0.000000 0.000000 0.032348 0.000000 0.000000
# 5 0.000000 0.000000 0.000000 0.000000 0.032348 0.000000
# 6 0.000000 0.000000 0.000000 0.000000 0.000000 0.054542
#
#
# Mechanical properties :
#
#
# Convention : Reuss Voigt Hill
#
# Bulk Modulus (GPa) = 43.07847 46.23444 44.65646
# Shear Modulus (GPa) = 24.31427 26.43664 25.37545
#
# Velocity S-wave (km/s) = 3.51771 3.66802 3.59365
# Velocity P-wave (km/s) = 6.19862 6.43966 6.32029
#
# Compressibility (1/GPa) = 0.02321345
#
# Stress axis : x y z
#
# Youngs Moduli (GPa) = 57.13469 57.13469 62.75770
#
# Poissons Ratio (x) = 0.55813 0.12847
# Poissons Ratio (y) = 0.55813 0.12847
# Poissons Ratio (z) = 0.11696 0.11696
#
# Static dielectric constant tensor:
#      x y z
#    x 1.766530 0.000000 0.000000 
#    y 0.000000 1.766530 0.000000 
#    z 0.000000 0.000000 1.738940 
# 
# From -- ./inp_files/7388.got.cif
#   From: 2010.05.17/outbox.cif.g08.bks.cpg/sg178_4_cif.got.tgz:7388.got - 2010.05.20 11:30:59.
