data_PCOD9582469
_publ_section_title
;
Structure prediction by ZEFSAII (Michael W. Deem and Ramdas Pophale) SiO2 
 PCOD9582469
Probable space group: P 61 2 2
;
_chemical_formula_sum "Si O2"
_cell_formula_units_Z 84
_cell_length_a 14.017296
_cell_length_b 14.017296
_cell_length_c 26.457723
_cell_angle_alpha 90.000000
_cell_angle_beta 90.000000
_cell_angle_gamma 120.000000
_cell_volume 4502.063182
_symmetry_space_group_name_H-M "P 61 2 2"
_symmetry_group_IT_number 178
_symmetry_cell_setting 'hexagonal'
loop_
_space_group_symop_operation_xyz
x,y,z
x-y,x,1/6+z
-y,x-y,1/3+z
-x,-y,1/2+z
-x+y,-x,2/3+z
y,-x+y,5/6+z
x-y,-y,-z
-x,-x+y,2/3-z
y,x,1/3-z
-y,-x,5/6-z
-x+y,y,1/2-z
x,x-y,1/6-z
loop_
_atom_site_type_symbol
_atom_site_label
_atom_site_fract_x
_atom_site_fract_y
_atom_site_fract_z
Si Si1 0.440429 0.998707 0.123446
Si Si2 0.233253 0.553815 0.398499
Si Si3 0.240605 0.845735 0.508952
Si Si4 0.365822 0.943125 0.769217
Si Si5 0.575268 0.383366 0.114575
Si Si6 0.228468 0.985955 0.426378
Si Si7 0.656176 0.639094 0.333158
O O1 0.376462 0.878141 0.098384
O O2 0.558631 0.023772 0.145677
O O3 0.384716 0.013581 0.174158
O O4 0.472727 0.093404 0.081596
O O5 0.322490 0.677511 0.416667
O O6 0.296130 0.484503 0.400798
O O7 0.205694 0.552762 0.339481
O O8 0.331328 0.842793 0.544217
O O9 0.275524 0.914140 0.456356
O O10 0.149294 0.722609 0.496967
O O11 0.185152 0.907932 0.538102
O O12 0.489714 0.979428 0.750000
O O13 0.323749 0.986885 0.723822
O O14 0.608592 0.304296 0.083334
O O15 0.100472 0.899529 0.416667
O O16 0.283993 0.021999 0.372342
#
# Coordination Sequence:
#
# PCOD9582469 Si02
#       7
#    12  12  12  12  12  12  12
#     4  11  21  38  53  77 115 147 190 250 282 336
#     4  11  23  38  58  81 110 153 196 237 287 351
#     4  10  20  32  54  84 110 154 192 229 286 354
#     4   9  21  37  51  76 112 149 188 239 287 342
#     4  12  23  36  55  79 112 150 197 235 289 352
#     4   9  18  33  52  80 119 147 183 236 283 348
#     4  10  19  34  53  76 114 145 185 232 290 334
#
# _framework density 18.658113
#
# number of rings (size 3 to 8) (size 9 to 14) (size 15 to 20)
#    0.000    1.714    2.857    2.143    2.000    5.143 
#    0.000    0.000    0.000    0.000    0.000    1.000 
#    8.571    0.000    0.000    0.000    0.000    0.000 
#
# Total GULP energy -467663.345895 kJ/mol
# GULP energy per Si atom -5567.420784 kJ/mol
# Density = 1.861565 g / cm^3
# Si number density = 18.658113 Si / 1000 Ang^3
#
#
#
# Elastic Constant Matrix: (Units=GPa)
#
#
# Indices 1 2 3 4 5 6 
#
# 1 45.1033 11.4227 32.0579 0.0000 0.0000 0.0000
# 2 11.4227 45.1033 32.0579 0.0000 0.0000 0.0000
# 3 32.0579 32.0579 157.8676 0.0000 0.0000 0.0000
# 4 0.0000 0.0000 0.0000 23.8055 0.0000 0.0000
# 5 0.0000 0.0000 0.0000 0.0000 23.8055 0.0000
# 6 0.0000 0.0000 0.0000 0.0000 0.0000 16.8403
#
#
#
# Elastic Compliance Matrix: (Units=1/GPa)
#
#
# Indices 1 2 3 4 5 6 
#
# 1 0.026338 -0.003353 -0.004668 0.000000 0.000000 0.000000
# 2 -0.003353 0.026338 -0.004668 0.000000 0.000000 0.000000
# 3 -0.004668 -0.004668 0.008230 0.000000 0.000000 0.000000
# 4 0.000000 0.000000 0.000000 0.042007 0.000000 0.000000
# 5 0.000000 0.000000 0.000000 0.000000 0.042007 0.000000
# 6 0.000000 0.000000 0.000000 0.000000 0.000000 0.059381
#
#
# Mechanical properties :
#
#
# Convention : Reuss Voigt Hill
#
# Bulk Modulus (GPa) = 28.14500 44.35012 36.24756
# Shear Modulus (GPa) = 20.70218 24.39266 22.54742
#
# Velocity S-wave (km/s) = 3.33461 3.61965 3.48005
# Velocity P-wave (km/s) = 5.47207 6.42578 5.96800
#
# Compressibility (1/GPa) = 0.03553029
#
# Stress axis : x y z
#
# Youngs Moduli (GPa) = 37.96804 37.96804 121.50536
#
# Poissons Ratio (x) = 0.12730 0.56713
# Poissons Ratio (y) = 0.12730 0.56713
# Poissons Ratio (z) = 0.17722 0.17722
#
# Static dielectric constant tensor:
#      x y z
#    x 1.679090 0.000000 0.000000 
#    y 0.000000 1.679090 0.000000 
#    z 0.000000 0.000000 1.716250 
# 
# From -- ./inp_files/8965.got.cif
#   From: 2010.05.17/outbox.cif.g08.bks.cpg/sg178_5_cif.got.tgz:8965.got - 2010.05.20 11:30:59.
