data_PCOD9582411
_publ_section_title
;
Structure prediction by ZEFSAII (Michael W. Deem and Ramdas Pophale) SiO2 
 PCOD9582411
Probable space group: P 61 2 2
;
_chemical_formula_sum "Si O2"
_cell_formula_units_Z 96
_cell_length_a 14.063040
_cell_length_b 14.063040
_cell_length_c 25.393642
_cell_angle_alpha 90.000000
_cell_angle_beta 90.000000
_cell_angle_gamma 120.000000
_cell_volume 4349.246758
_symmetry_space_group_name_H-M "P 61 2 2"
_symmetry_group_IT_number 178
_symmetry_cell_setting 'hexagonal'
loop_
_space_group_symop_operation_xyz
x,y,z
x-y,x,1/6+z
-y,x-y,1/3+z
-x,-y,1/2+z
-x+y,-x,2/3+z
y,-x+y,5/6+z
x-y,-y,-z
-x,-x+y,2/3-z
y,x,1/3-z
-y,-x,5/6-z
-x+y,y,1/2-z
x,x-y,1/6-z
loop_
_atom_site_type_symbol
_atom_site_label
_atom_site_fract_x
_atom_site_fract_y
_atom_site_fract_z
Si Si1 0.721143 0.499382 0.123032
Si Si2 0.139071 0.683424 0.444422
Si Si3 0.478986 0.117038 0.928841
Si Si4 0.182400 0.642258 0.032183
Si Si5 0.527409 0.874709 0.584787
Si Si6 0.089545 0.844872 0.289127
Si Si7 0.490949 0.219893 0.826100
Si Si8 0.960749 0.719294 0.487932
O O1 0.780608 0.482888 0.173184
O O2 0.592555 0.417411 0.110238
O O3 0.752471 0.626357 0.128009
O O4 0.783996 0.498973 0.069552
O O5 0.197311 0.802690 0.416667
O O6 0.127509 0.598137 0.399602
O O7 0.024508 0.657846 0.467462
O O8 0.486981 0.227933 0.952552
O O9 0.479626 0.128168 0.865514
O O10 0.384816 0.993272 0.940570
O O11 0.128539 0.564270 0.083334
O O12 0.256918 0.592258 0.011839
O O13 0.111762 0.628432 0.980751
O O14 0.559786 0.779893 0.583334
O O15 0.050080 0.833032 0.229166
O O16 0.000000 0.820924 0.333334
O O17 0.196054 0.962187 0.301450
O O18 0.376964 0.219180 0.836811
#
# Coordination Sequence:
#
# PCOD9582411 Si02
#       8
#    12  12  12  12  12  12  12  12
#     4   9  21  35  58  87 128 162 199 255 314 377
#     4  11  21  34  59  94 126 162 204 251 318 389
#     4  11  23  40  61  89 118 167 220 254 312 385
#     4   9  20  41  62  88 123 161 203 267 317 377
#     4  11  25  41  60  89 128 168 216 260 314 381
#     4  10  18  34  56  88 123 164 205 265 320 389
#     4   9  19  39  58  84 124 157 208 261 319 386
#     4  10  20  35  55  87 127 159 209 258 323 394
#
# _framework density 22.072787999999999
#
# number of rings (size 3 to 8) (size 9 to 14) (size 15 to 20)
#    0.000    2.000    0.000    5.250    7.000    0.500 
#   15.750    0.000    0.000    1.500    0.000    0.000 
#    0.000    0.000    0.000    0.000    0.000    0.000 
#
# Total GULP energy -535569.324488 kJ/mol
# GULP energy per Si atom -5578.847130 kJ/mol
# Density = 2.202255 g / cm^3
# Si number density = 22.072788 Si / 1000 Ang^3
#
#
#
# Elastic Constant Matrix: (Units=GPa)
#
#
# Indices 1 2 3 4 5 6 
#
# 1 77.8417 38.2512 21.8986 0.0000 0.0000 0.0000
# 2 38.2512 77.8417 21.8986 0.0000 0.0000 0.0000
# 3 21.8986 21.8986 105.7855 0.0000 0.0000 0.0000
# 4 0.0000 0.0000 0.0000 22.5599 0.0000 0.0000
# 5 0.0000 0.0000 0.0000 0.0000 22.5599 0.0000
# 6 0.0000 0.0000 0.0000 0.0000 0.0000 19.7952
#
#
#
# Elastic Compliance Matrix: (Units=1/GPa)
#
#
# Indices 1 2 3 4 5 6 
#
# 1 0.017301 -0.007958 -0.001934 0.000000 0.000000 0.000000
# 2 -0.007958 0.017301 -0.001934 0.000000 0.000000 0.000000
# 3 -0.001934 -0.001934 0.010254 0.000000 0.000000 0.000000
# 4 0.000000 0.000000 0.000000 0.044326 0.000000 0.000000
# 5 0.000000 0.000000 0.000000 0.000000 0.044326 0.000000
# 6 0.000000 0.000000 0.000000 0.000000 0.000000 0.050517
#
#
# Mechanical properties :
#
#
# Convention : Reuss Voigt Hill
#
# Bulk Modulus (GPa) = 47.16069 47.28506 47.22288
# Shear Modulus (GPa) = 23.28332 24.94437 24.11385
#
# Velocity S-wave (km/s) = 3.25136 3.36534 3.30884
# Velocity P-wave (km/s) = 5.95882 6.04727 6.00321
#
# Compressibility (1/GPa) = 0.02120410
#
# Stress axis : x y z
#
# Youngs Moduli (GPa) = 57.79995 57.79995 97.52407
#
# Poissons Ratio (x) = 0.45995 0.18863
# Poissons Ratio (y) = 0.45995 0.18863
# Poissons Ratio (z) = 0.11180 0.11180
#
# Static dielectric constant tensor:
#      x y z
#    x 1.864780 0.000000 0.000000 
#    y 0.000000 1.864780 0.000000 
#    z 0.000000 0.000000 1.926980 
# 
# From -- ./inp_files/9016.got.cif
#   From: 2010.05.17/outbox.cif.g08.bks.cpg/sg178_5_cif.got.tgz:9016.got - 2010.05.20 11:30:59.
