data_PCOD9582800
_publ_section_title
;
Structure prediction by ZEFSAII (Michael W. Deem and Ramdas Pophale) SiO2 
 PCOD9582800
Probable space group: P 61 2 2
;
_chemical_formula_sum "Si O2"
_cell_formula_units_Z 48
_cell_length_a 11.646373
_cell_length_b 11.646373
_cell_length_c 18.887470
_cell_angle_alpha 90.000000
_cell_angle_beta 90.000000
_cell_angle_gamma 120.000000
_cell_volume 2218.634743
_symmetry_space_group_name_H-M "P 61 2 2"
_symmetry_group_IT_number 178
_symmetry_cell_setting 'hexagonal'
loop_
_space_group_symop_operation_xyz
x,y,z
x-y,x,1/6+z
-y,x-y,1/3+z
-x,-y,1/2+z
-x+y,-x,2/3+z
y,-x+y,5/6+z
x-y,-y,-z
-x,-x+y,2/3-z
y,x,1/3-z
-y,-x,5/6-z
-x+y,y,1/2-z
x,x-y,1/6-z
loop_
_atom_site_type_symbol
_atom_site_label
_atom_site_fract_x
_atom_site_fract_y
_atom_site_fract_z
Si Si1 0.000000 0.717438 0.333334
Si Si2 0.141633 0.534724 0.731730
Si Si3 0.949709 0.664986 0.118533
Si Si4 0.663844 0.893847 0.374593
Si Si5 0.960907 0.921813 0.750000
O O1 0.056522 0.659165 0.392433
O O2 0.129391 0.854546 0.308651
O O3 0.293697 0.587394 0.750000
O O4 0.116301 0.480500 0.651731
O O5 0.109154 0.649723 0.746398
O O6 0.101835 0.751454 0.142225
O O7 0.956776 0.670964 0.034655
O O8 0.803337 0.970597 0.413401
O O9 0.984479 0.984479 0.666667
#
# Coordination Sequence:
#
# PCOD9582800 Si02
#       5
#     6  12  12  12   6
#     4  10  22  42  70 100 134 182 242 292 356 430
#     4  10  24  44  67 100 140 186 237 293 362 433
#     4  11  23  43  69 101 136 185 238 295 355 434
#     4  12  25  42  70 103 143 182 237 300 362 443
#     4  12  28  48  70 112 148 194 242 306 392 446
#
# _framework density 21.634927000000001
#
# number of rings (size 3 to 8) (size 9 to 14) (size 15 to 20)
#    0.000    1.000    5.000    0.750    3.500    2.000 
#    0.000    0.000    0.000    0.000    0.000    0.000 
#    0.000    0.000    0.000    0.000    0.000    0.000 
#
# Total GULP energy -267584.827482 kJ/mol
# GULP energy per Si atom -5574.683906 kJ/mol
# Density = 2.158568 g / cm^3
# Si number density = 21.634927 Si / 1000 Ang^3
#
#
#
# Elastic Constant Matrix: (Units=GPa)
#
#
# Indices 1 2 3 4 5 6 
#
# 1 94.7683 26.4300 7.1414 0.0000 0.0000 0.0000
# 2 26.4300 94.7683 7.1414 0.0000 0.0000 0.0000
# 3 7.1414 7.1414 91.9612 0.0000 0.0000 0.0000
# 4 0.0000 0.0000 0.0000 14.2041 0.0000 0.0000
# 5 0.0000 0.0000 0.0000 0.0000 14.2041 0.0000
# 6 0.0000 0.0000 0.0000 0.0000 0.0000 34.1692
#
#
#
# Elastic Compliance Matrix: (Units=1/GPa)
#
#
# Indices 1 2 3 4 5 6 
#
# 1 0.011480 -0.003153 -0.000647 0.000000 0.000000 0.000000
# 2 -0.003153 0.011480 -0.000647 0.000000 0.000000 0.000000
# 3 -0.000647 -0.000647 0.010975 0.000000 0.000000 0.000000
# 4 0.000000 0.000000 0.000000 0.070402 0.000000 0.000000
# 5 0.000000 0.000000 0.000000 0.000000 0.070402 0.000000
# 6 0.000000 0.000000 0.000000 0.000000 0.000000 0.029266
#
#
# Mechanical properties :
#
#
# Convention : Reuss Voigt Hill
#
# Bulk Modulus (GPa) = 39.93252 40.32483 40.12868
# Shear Modulus (GPa) = 22.59934 28.56780 25.58357
#
# Velocity S-wave (km/s) = 3.23550 3.63774 3.44250
# Velocity P-wave (km/s) = 5.69697 6.02689 5.86425
#
# Compressibility (1/GPa) = 0.02504224
#
# Stress axis : x y z
#
# Youngs Moduli (GPa) = 87.10716 87.10716 91.11960
#
# Poissons Ratio (x) = 0.27465 0.05892
# Poissons Ratio (y) = 0.27465 0.05892
# Poissons Ratio (z) = 0.05633 0.05633
#
# Static dielectric constant tensor:
#      x y z
#    x 1.794920 0.000000 0.000000 
#    y 0.000000 1.794920 0.000000 
#    z 0.000000 0.000000 1.986900 
# 
# From -- ./inp_files/7299.got.cif
#   From: 2010.05.17/outbox.cif.g08.bks.cpg/sg178_4_cif.got.tgz:7299.got - 2010.05.20 11:30:59.
