data_PCOD9582224
_publ_section_title
;
Structure prediction by ZEFSAII (Michael W. Deem and Ramdas Pophale) SiO2 
 PCOD9582224
Probable space group: P 6 2 2
;
_chemical_formula_sum "Si O2"
_cell_formula_units_Z 90
_cell_length_a 17.211612
_cell_length_b 17.211612
_cell_length_c 18.929015
_cell_angle_alpha 90.000000
_cell_angle_beta 90.000000
_cell_angle_gamma 120.000000
_cell_volume 4856.257888
_symmetry_space_group_name_H-M "P 6 2 2"
_symmetry_group_IT_number 177
_symmetry_cell_setting 'hexagonal'
loop_
_space_group_symop_operation_xyz
x,y,z
x-y,x,z
-y,x-y,z
-x,-y,z
-x+y,-x,z
y,-x+y,z
x-y,-y,-z
-x,-x+y,-z
y,x,-z
-y,-x,-z
-x+y,y,-z
x,x-y,-z
loop_
_atom_site_type_symbol
_atom_site_label
_atom_site_fract_x
_atom_site_fract_y
_atom_site_fract_z
Si Si1 0.144751 0.765313 0.223952
Si Si2 0.000000 0.500000 0.195214
Si Si3 0.726302 0.098930 0.521903
Si Si4 0.773764 0.542347 0.920997
Si Si5 0.492204 0.173129 0.352256
Si Si6 0.431690 0.862067 0.920970
Si Si7 0.314253 0.949774 0.271661
Si Si8 0.505812 0.652150 0.395798
O O1 0.160628 0.764477 0.140376
O O2 0.171153 0.701237 0.269725
O O3 0.220447 0.865751 0.245969
O O4 0.042219 0.725160 0.249902
O O5 0.925144 0.433501 0.140723
O O6 0.963292 0.555870 0.237535
O O7 0.826035 0.173966 0.500000
O O8 0.710978 0.112425 0.603382
O O9 0.661082 0.123680 0.476492
O O10 0.700797 0.000000 0.500000
O O11 0.670587 0.505698 0.902466
O O12 0.783135 0.453688 0.926109
O O13 0.791282 0.582563 0.000000
O O14 0.521980 0.272455 0.380238
O O15 0.560113 0.138533 0.370511
O O16 0.450756 0.901512 0.000000
O O17 0.323077 0.917919 0.350407
#
# Coordination Sequence:
#
# PCOD9582224 Si02
#       8
#    12   6  12  12  12  12  12  12
#     4  11  22  39  54  79 106 141 185 234 285 334
#     4  12  19  32  54  80 109 144 180 220 278 327
#     4  10  21  37  55  79 109 148 190 238 290 349
#     4  10  20  34  51  74 108 150 189 227 274 332
#     4  10  21  34  56  81 116 151 191 231 274 332
#     4  10  20  33  50  75 107 147 186 226 271 328
#     4  11  23  36  57  79 111 144 182 231 280 336
#     4  10  21  36  54  83 116 155 194 230 283 334
#
# _framework density 18.532789000000001
#
# number of rings (size 3 to 8) (size 9 to 14) (size 15 to 20)
#    0.000    1.600    2.667    2.733    0.000    3.200 
#    0.000    2.000    0.000    0.400    0.000    0.000 
#    0.000    6.400    0.000    1.200    0.000    0.533 
#
# Total GULP energy -501524.609181 kJ/mol
# GULP energy per Si atom -5572.495658 kJ/mol
# Density = 1.849061 g / cm^3
# Si number density = 18.532789 Si / 1000 Ang^3
#
#
#
# Elastic Constant Matrix: (Units=GPa)
#
#
# Indices 1 2 3 4 5 6 
#
# 1 81.4250 44.8108 18.9758 0.0000 0.0000 0.0000
# 2 44.8108 81.4250 18.9758 0.0000 0.0000 0.0000
# 3 18.9758 18.9758 105.9077 0.0000 0.0000 0.0000
# 4 0.0000 0.0000 0.0000 30.9063 0.0000 0.0000
# 5 0.0000 0.0000 0.0000 0.0000 30.9063 0.0000
# 6 0.0000 0.0000 0.0000 0.0000 0.0000 18.3071
#
#
#
# Elastic Compliance Matrix: (Units=1/GPa)
#
#
# Indices 1 2 3 4 5 6 
#
# 1 0.017842 -0.009470 -0.001500 0.000000 0.000000 0.000000
# 2 -0.009470 0.017842 -0.001500 0.000000 0.000000 0.000000
# 3 -0.001500 -0.001500 0.009980 0.000000 0.000000 0.000000
# 4 0.000000 0.000000 0.000000 0.032356 0.000000 0.000000
# 5 0.000000 0.000000 0.000000 0.000000 0.032356 0.000000
# 6 0.000000 0.000000 0.000000 0.000000 0.000000 0.054624
#
#
# Mechanical properties :
#
#
# Convention : Reuss Voigt Hill
#
# Bulk Modulus (GPa) = 48.25204 48.25359 48.25281
# Shear Modulus (GPa) = 25.40039 28.42364 26.91202
#
# Velocity S-wave (km/s) = 3.70613 3.92049 3.81482
# Velocity P-wave (km/s) = 6.66382 6.82547 6.74513
#
# Compressibility (1/GPa) = 0.02072451
#
# Stress axis : x y z
#
# Youngs Moduli (GPa) = 56.04680 56.04680 100.20277
#
# Poissons Ratio (x) = 0.53074 0.15032
# Poissons Ratio (y) = 0.53074 0.15032
# Poissons Ratio (z) = 0.08408 0.08408
#
# Static dielectric constant tensor:
#      x y z
#    x 1.510050 0.000000 0.000000 
#    y 0.000000 1.510050 0.000000 
#    z 0.000000 0.000000 1.695250 
# 
# From -- ./inp_files/2944.got.cif
#   From: 2010.05.17/outbox.cif.g08.bks.cpg/sg177_2_cif.got.tgz:2944.got - 2010.05.20 11:28:44.
