data_PCOD9582213
_publ_section_title
;
Structure prediction by ZEFSAII (Michael W. Deem and Ramdas Pophale) SiO2 
 PCOD9582213
Probable space group: P 6 2 2
;
_chemical_formula_sum "Si O2"
_cell_formula_units_Z 42
_cell_length_a 11.012280
_cell_length_b 11.012280
_cell_length_c 18.192436
_cell_angle_alpha 90.000000
_cell_angle_beta 90.000000
_cell_angle_gamma 120.000000
_cell_volume 1910.627296
_symmetry_space_group_name_H-M "P 6 2 2"
_symmetry_group_IT_number 177
_symmetry_cell_setting 'hexagonal'
loop_
_space_group_symop_operation_xyz
x,y,z
x-y,x,z
-y,x-y,z
-x,-y,z
-x+y,-x,z
y,-x+y,z
x-y,-y,-z
-x,-x+y,-z
y,x,-z
-y,-x,-z
-x+y,y,-z
x,x-y,-z
loop_
_atom_site_type_symbol
_atom_site_label
_atom_site_fract_x
_atom_site_fract_y
_atom_site_fract_z
Si Si1 0.000000 0.711261 0.500000
Si Si2 0.726228 0.027159 0.083134
Si Si3 0.036363 0.727725 0.660119
Si Si4 0.835606 0.483548 0.208471
O O1 0.864117 0.728233 0.500000
O O2 0.980281 0.638897 0.420984
O O3 0.647352 0.077815 0.138030
O O4 0.884574 0.154950 0.094316
O O5 0.666301 0.000000 0.000000
O O6 0.080473 0.652445 0.720957
O O7 0.889083 0.725459 0.667206
O O8 0.680619 0.469063 0.208465
#
# Coordination Sequence:
#
# PCOD9582213 Si02
#       4
#     6  12  12  12
#     4   8  15  28  52  89 126 158 198 257 333 392
#     4  10  21  40  66  95 126 163 209 275 342 393
#     4  10  19  34  62  96 129 165 214 276 339 387
#     4  10  24  42  60  91 131 179 224 262 303 389
#
# _framework density 21.982309000000001
#
# number of rings (size 3 to 8) (size 9 to 14) (size 15 to 20)
#    0.571    1.714    0.000    2.429    0.000    8.000 
#    0.000   12.857    0.000   25.714    0.000    0.000 
#    0.000    0.000    0.000    0.000    0.000    0.000 
#
# Total GULP energy -233907.352521 kJ/mol
# GULP energy per Si atom -5569.222679 kJ/mol
# Density = 2.193228 g / cm^3
# Si number density = 21.982309 Si / 1000 Ang^3
#
#
#
# Elastic Constant Matrix: (Units=GPa)
#
#
# Indices 1 2 3 4 5 6 
#
# 1 113.6892 84.0636 98.1254 0.0000 0.0000 0.0000
# 2 84.0636 113.6892 98.1254 0.0000 0.0000 0.0000
# 3 98.1254 98.1254 199.8724 0.0000 0.0000 0.0000
# 4 0.0000 0.0000 0.0000 227.4929 0.0000 0.0000
# 5 0.0000 0.0000 0.0000 0.0000 227.4929 0.0000
# 6 0.0000 0.0000 0.0000 0.0000 0.0000 14.8128
#
#
#
# Elastic Compliance Matrix: (Units=1/GPa)
#
#
# Indices 1 2 3 4 5 6 
#
# 1 0.021808 -0.011947 -0.004841 0.000000 0.000000 0.000000
# 2 -0.011947 0.021808 -0.004841 0.000000 0.000000 0.000000
# 3 -0.004841 -0.004841 0.009757 0.000000 0.000000 0.000000
# 4 0.000000 0.000000 0.000000 0.004396 0.000000 0.000000
# 5 0.000000 0.000000 0.000000 0.000000 0.004396 0.000000
# 6 0.000000 0.000000 0.000000 0.000000 0.000000 0.067509
#
#
# Mechanical properties :
#
#
# Convention : Reuss Voigt Hill
#
# Bulk Modulus (GPa) = 98.87087 109.76438 104.31763
# Shear Modulus (GPa) = 28.36015 103.75547 66.05781
#
# Velocity S-wave (km/s) = 3.59574 6.87764 5.48778
# Velocity P-wave (km/s) = 7.89394 10.63536 9.36550
#
# Compressibility (1/GPa) = 0.01011420
#
# Stress axis : x y z
#
# Youngs Moduli (GPa) = 45.85468 45.85468 102.49232
#
# Poissons Ratio (x) = 0.54781 0.49620
# Poissons Ratio (y) = 0.54781 0.49620
# Poissons Ratio (z) = 0.22200 0.22200
#
# Static dielectric constant tensor:
#      x y z
#    x 1.813090 0.000000 0.000000 
#    y 0.000000 1.813090 0.000000 
#    z 0.000000 0.000000 1.886570 
# 
# From -- ./inp_files/2753.got.cif
#   From: 2010.05.17/outbox.cif.g08.bks.cpg/sg177_2_cif.got.tgz:2753.got - 2010.05.20 11:28:44.
