data_PCOD9582744
_publ_section_title
;
Structure prediction by ZEFSAII (Michael W. Deem and Ramdas Pophale) SiO2 
 PCOD9582744
Probable space group: P 61 2 2
;
_chemical_formula_sum "Si O2"
_cell_formula_units_Z 66
_cell_length_a 17.256033
_cell_length_b 17.256033
_cell_length_c 13.541199
_cell_angle_alpha 90.000000
_cell_angle_beta 90.000000
_cell_angle_gamma 120.000000
_cell_volume 3491.963354
_symmetry_space_group_name_H-M "P 61 2 2"
_symmetry_group_IT_number 178
_symmetry_cell_setting 'hexagonal'
loop_
_space_group_symop_operation_xyz
x,y,z
x-y,x,1/6+z
-y,x-y,1/3+z
-x,-y,1/2+z
-x+y,-x,2/3+z
y,-x+y,5/6+z
x-y,-y,-z
-x,-x+y,2/3-z
y,x,1/3-z
-y,-x,5/6-z
-x+y,y,1/2-z
x,x-y,1/6-z
loop_
_atom_site_type_symbol
_atom_site_label
_atom_site_fract_x
_atom_site_fract_y
_atom_site_fract_z
Si Si1 0.660117 0.486715 0.480969
Si Si2 0.495697 0.897413 0.529593
Si Si3 0.693772 0.666394 0.380253
Si Si4 0.684038 0.751700 0.575497
Si Si5 0.814848 0.629696 0.250000
Si Si6 0.312256 0.856177 0.598230
O O1 0.602507 0.397494 0.416667
O O2 0.625998 0.473261 0.592056
O O3 0.651436 0.565990 0.426023
O O4 0.765452 0.522507 0.485862
O O5 0.577388 0.894996 0.582582
O O6 0.408122 0.863830 0.594153
O O7 0.531202 0.000000 0.500000
O O8 0.716635 0.731169 0.473419
O O9 0.780477 0.681929 0.319098
O O10 0.623640 0.677792 0.312601
O O11 0.726740 0.726740 0.666667
O O12 0.702000 0.851000 0.583334
O O13 0.840765 0.571352 0.321715
#
# Coordination Sequence:
#
# PCOD9582744 Si02
#       6
#    12  12  12  12   6  12
#     4  11  22  38  61  88 128 174 219 270 316 372
#     4  11  20  39  59  88 126 168 221 259 311 379
#     4  11  22  39  65  91 129 164 224 262 324 378
#     4  11  24  42  66  97 128 166 209 260 316 382
#     4  10  22  38  60  94 124 166 214 278 316 372
#     4  11  23  38  61  91 127 175 215 269 323 379
#
# _framework density 18.900542000000002
#
# number of rings (size 3 to 8) (size 9 to 14) (size 15 to 20)
#    0.000    1.091    3.636    6.000    2.545    0.727 
#    0.000    1.818    0.000    0.000    2.364    0.000 
#    0.000    0.000    0.000    0.000    0.000    0.000 
#
# Total GULP energy -368861.478756 kJ/mol
# GULP energy per Si atom -5588.810284 kJ/mol
# Density = 1.885752 g / cm^3
# Si number density = 18.900542 Si / 1000 Ang^3
#
#
#
# Elastic Constant Matrix: (Units=GPa)
#
#
# Indices 1 2 3 4 5 6 
#
# 1 81.7076 59.0112 31.5030 0.0000 0.0000 0.0000
# 2 59.0112 81.7076 31.5030 0.0000 0.0000 0.0000
# 3 31.5030 31.5030 86.4181 0.0000 0.0000 0.0000
# 4 0.0000 0.0000 0.0000 13.0973 0.0000 0.0000
# 5 0.0000 0.0000 0.0000 0.0000 13.0973 0.0000
# 6 0.0000 0.0000 0.0000 0.0000 0.0000 11.3482
#
#
#
# Elastic Compliance Matrix: (Units=1/GPa)
#
#
# Indices 1 2 3 4 5 6 
#
# 1 0.026276 -0.017784 -0.003096 0.000000 0.000000 0.000000
# 2 -0.017784 0.026276 -0.003096 0.000000 0.000000 0.000000
# 3 -0.003096 -0.003096 0.013829 0.000000 0.000000 0.000000
# 4 0.000000 0.000000 0.000000 0.076352 0.000000 0.000000
# 5 0.000000 0.000000 0.000000 0.000000 0.076352 0.000000
# 6 0.000000 0.000000 0.000000 0.000000 0.000000 0.088120
#
#
# Mechanical properties :
#
#
# Convention : Reuss Voigt Hill
#
# Bulk Modulus (GPa) = 54.25836 54.87420 54.56628
# Shear Modulus (GPa) = 13.83896 16.02962 14.93429
#
# Velocity S-wave (km/s) = 2.70885 2.91538 2.81401
# Velocity P-wave (km/s) = 6.20914 6.35836 6.28420
#
# Compressibility (1/GPa) = 0.01843034
#
# Stress axis : x y z
#
# Youngs Moduli (GPa) = 38.05723 38.05723 72.31276
#
# Poissons Ratio (x) = 0.67680 0.22387
# Poissons Ratio (y) = 0.67680 0.22387
# Poissons Ratio (z) = 0.11782 0.11782
#
# Static dielectric constant tensor:
#      x y z
#    x 1.642220 0.000000 0.000000 
#    y 0.000000 1.642220 0.000000 
#    z 0.000000 0.000000 1.669390 
# 
# From -- ./inp_files/5925.got.cif
#   From: 2010.05.17/outbox.cif.g08.bks.cpg/sg178_3_cif.got.tgz:5925.got - 2010.05.20 11:30:59.
