data_PCOD9582016
_publ_section_title
;
Structure prediction by ZEFSAII (Michael W. Deem and Ramdas Pophale) SiO2 
 PCOD9582016
Probable space group: P 63/M
;
_chemical_formula_sum "Si O2"
_cell_formula_units_Z 60
_cell_length_a 14.737789
_cell_length_b 14.737789
_cell_length_c 14.704104
_cell_angle_alpha 90.000000
_cell_angle_beta 90.000000
_cell_angle_gamma 120.000000
_cell_volume 2765.883391
_symmetry_space_group_name_H-M "P 63/M"
_symmetry_group_IT_number 176
_symmetry_cell_setting 'hexagonal'
loop_
_space_group_symop_operation_xyz
x,y,z
x-y,x,1/2+z
-y,x-y,z
-x,-y,1/2+z
-x+y,-x,z
y,-x+y,1/2+z
-x,-y,-z
-x+y,-x,1/2-z
y,-x+y,-z
x,y,1/2-z
x-y,x,-z
-y,x-y,1/2-z
loop_
_atom_site_type_symbol
_atom_site_label
_atom_site_fract_x
_atom_site_fract_y
_atom_site_fract_z
Si Si1 0.204940 0.624205 0.883347
Si Si2 0.726315 0.569912 0.851811
Si Si3 0.149859 0.536247 0.415114
Si Si4 0.079039 0.831845 0.504676
Si Si5 0.637624 0.972516 0.648160
O O1 0.258564 0.556348 0.858558
O O2 0.103581 0.617652 0.844810
O O3 0.186026 0.597906 0.990338
O O4 0.753161 0.612324 0.750000
O O5 0.763143 0.483244 0.867719
O O6 0.601466 0.494830 0.861424
O O7 0.778555 0.662921 0.925894
O O8 0.059592 0.415478 0.421748
O O9 0.082359 0.776810 0.599087
O O10 0.957249 0.800885 0.493148
O O11 0.678433 0.012242 0.750000
#
# Coordination Sequence:
#
# PCOD9582016 Si02
#       5
#    12  12  12  12  12
#     4  10  21  40  67  95 137 187 223 270 338 425
#     4  12  24  41  71 110 147 185 230 288 360 439
#     4  12  21  42  67 105 144 180 227 279 348 429
#     4  12  28  50  75  99 136 190 251 313 363 419
#     4  12  26  43  69 104 143 183 231 295 359 425
#
# _framework density 21.692889000000001
#
# number of rings (size 3 to 8) (size 9 to 14) (size 15 to 20)
#    0.400    0.000    6.000    3.000    0.000    1.600 
#    0.000    0.000    0.000    2.400    0.000    0.000 
#    0.000    0.000    0.000    0.000    0.000    0.000 
#
# Total GULP energy -334358.319019 kJ/mol
# GULP energy per Si atom -5572.638650 kJ/mol
# Density = 2.164351 g / cm^3
# Si number density = 21.692889 Si / 1000 Ang^3
#
#
#
# Elastic Constant Matrix: (Units=GPa)
#
#
# Indices 1 2 3 4 5 6 
#
# 1 118.9148 36.7627 33.3893 0.0000 0.0000 0.0000
# 2 36.7627 118.9148 33.3893 0.0000 0.0000 0.0000
# 3 33.3893 33.3893 121.3262 0.0000 0.0000 0.0000
# 4 0.0000 0.0000 0.0000 115.6235 0.0000 0.0000
# 5 0.0000 0.0000 0.0000 0.0000 115.6235 0.0000
# 6 0.0000 0.0000 0.0000 0.0000 0.0000 41.0760
#
#
#
# Elastic Compliance Matrix: (Units=1/GPa)
#
#
# Indices 1 2 3 4 5 6 
#
# 1 0.009728 -0.002445 -0.002004 0.000000 0.000000 0.000000
# 2 -0.002445 0.009728 -0.002004 0.000000 0.000000 0.000000
# 3 -0.002004 -0.002004 0.009345 0.000000 0.000000 0.000000
# 4 0.000000 0.000000 0.000000 0.008649 0.000000 0.000000
# 5 0.000000 0.000000 0.000000 0.000000 0.008649 0.000000
# 6 0.000000 0.000000 0.000000 0.000000 0.000000 0.024345
#
#
# Mechanical properties :
#
#
# Convention : Reuss Voigt Hill
#
# Bulk Modulus (GPa) = 62.91462 62.91539 62.91501
# Shear Modulus (GPa) = 56.40225 71.50558 63.95392
#
# Velocity S-wave (km/s) = 5.10458 5.74754 5.43558
# Velocity P-wave (km/s) = 7.98798 8.55052 8.27403
#
# Compressibility (1/GPa) = 0.01589456
#
# Stress axis : x y z
#
# Youngs Moduli (GPa) = 102.79669 102.79669 107.00372
#
# Poissons Ratio (x) = 0.25130 0.21448
# Poissons Ratio (y) = 0.25130 0.21448
# Poissons Ratio (z) = 0.20604 0.20604
#
# Static dielectric constant tensor:
#      x y z
#    x 1.830110 0.000000 0.000000 
#    y 0.000000 1.830110 0.000000 
#    z 0.000000 0.000000 1.817820 
# 
# From -- ./inp_files/2640.got.cif
#   From: 2010.05.17/outbox.cif.g08.bks.cpg/sg176_2_cif.got.tgz:2640.got - 2010.06.03 11:36:45.
