data_PCOD9582984
_publ_section_title
;
Structure prediction by ZEFSAII (Michael W. Deem and Ramdas Pophale) SiO2 
 PCOD9582984
Probable space group: P 61 2 2
;
_chemical_formula_sum "Si O2"
_cell_formula_units_Z 36
_cell_length_a 15.304519
_cell_length_b 15.304519
_cell_length_c 9.815741
_cell_angle_alpha 90.000000
_cell_angle_beta 90.000000
_cell_angle_gamma 120.000000
_cell_volume 1991.100090
_symmetry_space_group_name_H-M "P 61 2 2"
_symmetry_group_IT_number 178
_symmetry_cell_setting 'hexagonal'
loop_
_space_group_symop_operation_xyz
x,y,z
x-y,x,1/6+z
-y,x-y,1/3+z
-x,-y,1/2+z
-x+y,-x,2/3+z
y,-x+y,5/6+z
x-y,-y,-z
-x,-x+y,2/3-z
y,x,1/3-z
-y,-x,5/6-z
-x+y,y,1/2-z
x,x-y,1/6-z
loop_
_atom_site_type_symbol
_atom_site_label
_atom_site_fract_x
_atom_site_fract_y
_atom_site_fract_z
Si Si1 0.438758 0.515774 0.559422
Si Si2 0.511693 0.274919 0.425053
Si Si3 0.610587 0.723274 0.682451
O O1 0.433654 0.433654 0.666667
O O2 0.487790 0.512211 0.416667
O O3 0.337024 0.517163 0.529352
O O4 0.513277 0.622247 0.627818
O O5 0.618079 0.381922 0.416667
O O6 0.490823 0.245412 0.583334
O O7 0.421784 0.272582 0.337576
O O8 0.702716 0.702716 0.666667
O O9 0.624478 0.812239 0.583334
#
# Coordination Sequence:
#
# PCOD9582984 Si02
#       3
#    12  12  12
#     4  11  23  36  57  84 124 157 199 238 294 357
#     4  12  23  36  57  86 118 165 204 244 292 360
#     4  11  24  40  59  85 119 158 202 251 303 361
#
# _framework density 18.080456000000002
#
# number of rings (size 3 to 8) (size 9 to 14) (size 15 to 20)
#    0.000    0.667    6.667    2.000    9.333    0.000 
#    0.000    0.000    0.000    0.000    0.000    4.667 
#    0.000    0.000    0.000    0.000    0.000    0.000 
#
# Total GULP energy -200861.283270 kJ/mol
# GULP energy per Si atom -5579.480091 kJ/mol
# Density = 1.803930 g / cm^3
# Si number density = 18.080456 Si / 1000 Ang^3
#
#
#
# Elastic Constant Matrix: (Units=GPa)
#
#
# Indices 1 2 3 4 5 6 
#
# 1 77.7326 39.7020 29.2620 0.0000 0.0000 0.0000
# 2 39.7020 77.7326 29.2620 0.0000 0.0000 0.0000
# 3 29.2620 29.2620 165.1617 0.0000 0.0000 0.0000
# 4 0.0000 0.0000 0.0000 22.1653 0.0000 0.0000
# 5 0.0000 0.0000 0.0000 0.0000 22.1653 0.0000
# 6 0.0000 0.0000 0.0000 0.0000 0.0000 19.0153
#
#
#
# Elastic Compliance Matrix: (Units=1/GPa)
#
#
# Indices 1 2 3 4 5 6 
#
# 1 0.017817 -0.008477 -0.001655 0.000000 0.000000 0.000000
# 2 -0.008477 0.017817 -0.001655 0.000000 0.000000 0.000000
# 3 -0.001655 -0.001655 0.006641 0.000000 0.000000 0.000000
# 4 0.000000 0.000000 0.000000 0.045116 0.000000 0.000000
# 5 0.000000 0.000000 0.000000 0.000000 0.045116 0.000000
# 6 0.000000 0.000000 0.000000 0.000000 0.000000 0.052589
#
#
# Mechanical properties :
#
#
# Convention : Reuss Voigt Hill
#
# Bulk Modulus (GPa) = 53.47032 57.45321 55.46176
# Shear Modulus (GPa) = 23.26621 27.49590 25.38105
#
# Velocity S-wave (km/s) = 3.59111 3.90391 3.75078
# Velocity P-wave (km/s) = 6.84343 7.22261 7.03558
#
# Compressibility (1/GPa) = 0.01870196
#
# Stress axis : x y z
#
# Youngs Moduli (GPa) = 56.12505 56.12505 150.57892
#
# Poissons Ratio (x) = 0.47579 0.24918
# Poissons Ratio (y) = 0.47579 0.24918
# Poissons Ratio (z) = 0.09288 0.09288
#
# Static dielectric constant tensor:
#      x y z
#    x 1.661450 0.000000 0.000000 
#    y 0.000000 1.661450 0.000000 
#    z 0.000000 0.000000 1.723560 
# 
# From -- ./inp_files/2224.got.cif
#   From: 2010.05.17/outbox.cif.g08.bks.cpg/sg178_2_cif.got.tgz:2224.got - 2010.05.20 11:30:59.
