data_PCOD9582774
_publ_section_title
;
Structure prediction by ZEFSAII (Michael W. Deem and Ramdas Pophale) SiO2 
 PCOD9582774
Probable space group: P 61 2 2
;
_chemical_formula_sum "Si O2"
_cell_formula_units_Z 60
_cell_length_a 15.788100
_cell_length_b 15.788100
_cell_length_c 14.193674
_cell_angle_alpha 90.000000
_cell_angle_beta 90.000000
_cell_angle_gamma 120.000000
_cell_volume 3063.974841
_symmetry_space_group_name_H-M "P 61 2 2"
_symmetry_group_IT_number 178
_symmetry_cell_setting 'hexagonal'
loop_
_space_group_symop_operation_xyz
x,y,z
x-y,x,1/6+z
-y,x-y,1/3+z
-x,-y,1/2+z
-x+y,-x,2/3+z
y,-x+y,5/6+z
x-y,-y,-z
-x,-x+y,2/3-z
y,x,1/3-z
-y,-x,5/6-z
-x+y,y,1/2-z
x,x-y,1/6-z
loop_
_atom_site_type_symbol
_atom_site_label
_atom_site_fract_x
_atom_site_fract_y
_atom_site_fract_z
Si Si1 0.000000 0.368438 0.333334
Si Si2 0.266869 0.731542 0.589471
Si Si3 0.006534 0.701234 0.166558
Si Si4 0.616828 0.808414 0.083334
Si Si5 0.871301 0.647092 0.980354
Si Si6 0.083393 0.552187 0.194908
O O1 0.078368 0.345297 0.381050
O O2 0.034814 0.450828 0.251100
O O3 0.244958 0.622479 0.583334
O O4 0.227979 0.770099 0.504133
O O5 0.207459 0.739540 0.676661
O O6 0.380687 0.807348 0.600025
O O7 0.107133 0.804404 0.160406
O O8 0.031138 0.617878 0.201320
O O9 0.923612 0.687291 0.239845
O O10 0.951964 0.678555 0.064271
O O11 0.086345 0.543173 0.083334
#
# Coordination Sequence:
#
# PCOD9582774 Si02
#       6
#     6  12  12   6  12  12
#     4  12  24  40  70  90 130 192 204 282 346 390
#     4  10  24  37  61  96 136 176 218 266 315 392
#     4  10  22  44  64  98 124 173 229 285 328 412
#     4  10  22  40  70  90 132 176 224 286 340 386
#     4  10  24  41  66  93 132 170 223 274 339 410
#     4  11  23  39  61  94 136 169 230 260 322 413
#
# _framework density 19.582405999999999
#
# number of rings (size 3 to 8) (size 9 to 14) (size 15 to 20)
#    0.000    1.600    2.000    1.200    9.800    8.800 
#    0.000    0.000    0.000    4.800    0.000    0.000 
#    0.000    0.000    0.000    0.000    0.000    0.000 
#
# Total GULP energy -334587.517744 kJ/mol
# GULP energy per Si atom -5576.458629 kJ/mol
# Density = 1.953784 g / cm^3
# Si number density = 19.582406 Si / 1000 Ang^3
#
#
#
# Elastic Constant Matrix: (Units=GPa)
#
#
# Indices 1 2 3 4 5 6 
#
# 1 106.8933 65.6955 37.5912 0.0000 0.0000 0.0000
# 2 65.6955 106.8933 37.5912 0.0000 0.0000 0.0000
# 3 37.5912 37.5912 73.2110 0.0000 0.0000 0.0000
# 4 0.0000 0.0000 0.0000 60.8423 0.0000 0.0000
# 5 0.0000 0.0000 0.0000 0.0000 60.8423 0.0000
# 6 0.0000 0.0000 0.0000 0.0000 0.0000 20.5989
#
#
#
# Elastic Compliance Matrix: (Units=1/GPa)
#
#
# Indices 1 2 3 4 5 6 
#
# 1 0.015868 -0.008405 -0.003832 0.000000 0.000000 0.000000
# 2 -0.008405 0.015868 -0.003832 0.000000 0.000000 0.000000
# 3 -0.003832 -0.003832 0.017595 0.000000 0.000000 0.000000
# 4 0.000000 0.000000 0.000000 0.016436 0.000000 0.000000
# 5 0.000000 0.000000 0.000000 0.000000 0.016436 0.000000
# 6 0.000000 0.000000 0.000000 0.000000 0.000000 0.048546
#
#
# Mechanical properties :
#
#
# Convention : Reuss Voigt Hill
#
# Bulk Modulus (GPa) = 58.16447 63.19485 60.67966
# Shear Modulus (GPa) = 29.65267 38.19801 33.92534
#
# Velocity S-wave (km/s) = 3.89556 4.42138 4.16677
# Velocity P-wave (km/s) = 7.07112 7.64239 7.36230
#
# Compressibility (1/GPa) = 0.01719263
#
# Stress axis : x y z
#
# Youngs Moduli (GPa) = 63.01863 63.01863 56.83566
#
# Poissons Ratio (x) = 0.52966 0.21781
# Poissons Ratio (y) = 0.52966 0.21781
# Poissons Ratio (z) = 0.24150 0.24150
#
# Static dielectric constant tensor:
#      x y z
#    x 1.705240 0.000000 0.000000 
#    y 0.000000 1.705240 0.000000 
#    z 0.000000 0.000000 1.771070 
# 
# From -- ./inp_files/5735.got.cif
#   From: 2010.05.17/outbox.cif.g08.bks.cpg/sg178_3_cif.got.tgz:5735.got - 2010.05.20 11:30:59.
