data_PCOD9582757
_publ_section_title
;
Structure prediction by ZEFSAII (Michael W. Deem and Ramdas Pophale) SiO2 
 PCOD9582757
Probable space group: P 61 2 2
;
_chemical_formula_sum "Si O2"
_cell_formula_units_Z 84
_cell_length_a 16.617433
_cell_length_b 16.617433
_cell_length_c 15.388495
_cell_angle_alpha 90.000000
_cell_angle_beta 90.000000
_cell_angle_gamma 120.000000
_cell_volume 3680.057905
_symmetry_space_group_name_H-M "P 61 2 2"
_symmetry_group_IT_number 178
_symmetry_cell_setting 'hexagonal'
loop_
_space_group_symop_operation_xyz
x,y,z
x-y,x,1/6+z
-y,x-y,1/3+z
-x,-y,1/2+z
-x+y,-x,2/3+z
y,-x+y,5/6+z
x-y,-y,-z
-x,-x+y,2/3-z
y,x,1/3-z
-y,-x,5/6-z
-x+y,y,1/2-z
x,x-y,1/6-z
loop_
_atom_site_type_symbol
_atom_site_label
_atom_site_fract_x
_atom_site_fract_y
_atom_site_fract_z
Si Si1 0.573770 0.200497 0.589049
Si Si2 0.093288 0.418854 0.278856
Si Si3 0.447939 0.206305 0.889173
Si Si4 0.712793 0.737038 0.849650
Si Si5 0.869111 0.477807 0.439113
Si Si6 0.396978 0.953666 0.308002
Si Si7 0.970726 0.888252 0.618028
O O1 0.620915 0.310458 0.583334
O O2 0.649613 0.175578 0.623938
O O3 0.535979 0.167814 0.492346
O O4 0.490042 0.150684 0.656397
O O5 0.254367 0.431166 0.158259
O O6 0.128554 0.509907 0.217733
O O7 0.000000 0.402796 0.333334
O O8 0.045611 0.324485 0.225703
O O9 0.349169 0.131661 0.847692
O O10 0.492911 0.307461 0.842568
O O11 0.648714 0.665631 0.922227
O O12 0.814541 0.805028 0.882101
O O13 0.975587 0.557407 0.446360
O O14 0.482897 0.965793 0.250000
O O15 0.959892 0.911248 0.519184
O O16 0.878880 0.878880 0.666667
#
# Coordination Sequence:
#
# PCOD9582757 Si02
#       7
#    12  12  12  12  12  12  12
#     4  11  24  43  67  92 144 207 248 291 371 468
#     4   9  19  40  68  99 141 191 237 299 368 448
#     4  10  22  39  67 104 142 189 250 299 366 451
#     4  11  22  42  75 108 143 183 245 304 384 467
#     4  11  22  39  66  97 146 192 243 302 367 439
#     4  12  22  41  70 100 147 195 241 302 381 448
#     4  10  25  50  82 107 141 192 247 318 409 472
#
# _framework density 22.825726
#
# number of rings (size 3 to 8) (size 9 to 14) (size 15 to 20)
#    0.000    1.429    2.857    3.000    2.000    5.714 
#    0.000    1.429   18.857    0.000    0.000    0.000 
#    0.000    0.000    0.000    0.000    0.000    0.000 
#
# Total GULP energy -468371.672774 kJ/mol
# GULP energy per Si atom -5575.853247 kJ/mol
# Density = 2.277377 g / cm^3
# Si number density = 22.825726 Si / 1000 Ang^3
#
#
#
# Elastic Constant Matrix: (Units=GPa)
#
#
# Indices 1 2 3 4 5 6 
#
# 1 119.3016 41.9169 44.7614 0.0000 0.0000 0.0000
# 2 41.9169 119.3016 44.7614 0.0000 0.0000 0.0000
# 3 44.7614 44.7614 90.2796 0.0000 0.0000 0.0000
# 4 0.0000 0.0000 0.0000 30.3357 0.0000 0.0000
# 5 0.0000 0.0000 0.0000 0.0000 30.3357 0.0000
# 6 0.0000 0.0000 0.0000 0.0000 0.0000 38.6924
#
#
#
# Elastic Compliance Matrix: (Units=1/GPa)
#
#
# Indices 1 2 3 4 5 6 
#
# 1 0.010741 -0.002182 -0.004244 0.000000 0.000000 0.000000
# 2 -0.002182 0.010741 -0.004244 0.000000 0.000000 0.000000
# 3 -0.004244 -0.004244 0.015285 0.000000 0.000000 0.000000
# 4 0.000000 0.000000 0.000000 0.032964 0.000000 0.000000
# 5 0.000000 0.000000 0.000000 0.000000 0.032964 0.000000
# 6 0.000000 0.000000 0.000000 0.000000 0.000000 0.025845
#
#
# Mechanical properties :
#
#
# Convention : Reuss Voigt Hill
#
# Bulk Modulus (GPa) = 64.81558 65.75135 65.28346
# Shear Modulus (GPa) = 32.25363 33.03565 32.64464
#
# Velocity S-wave (km/s) = 3.76312 3.80847 3.78586
# Velocity P-wave (km/s) = 6.88033 6.94317 6.91182
#
# Compressibility (1/GPa) = 0.01542839
#
# Stress axis : x y z
#
# Youngs Moduli (GPa) = 93.10246 93.10246 65.42415
#
# Poissons Ratio (x) = 0.20311 0.27764
# Poissons Ratio (y) = 0.20311 0.27764
# Poissons Ratio (z) = 0.39510 0.39510
#
# Static dielectric constant tensor:
#      x y z
#    x 1.904990 0.000000 0.000000 
#    y 0.000000 1.904990 0.000000 
#    z 0.000000 0.000000 1.915450 
# 
# From -- ./inp_files/6031.got.cif
#   From: 2010.05.17/outbox.cif.g08.bks.cpg/sg178_4_cif.got.tgz:6031.got - 2010.05.20 11:30:59.
