data_PCOD9582103
_publ_section_title
;
Structure prediction by ZEFSAII (Michael W. Deem and Ramdas Pophale) SiO2 
 PCOD9582103
Probable space group: P 63/M
;
_chemical_formula_sum "Si O2"
_cell_formula_units_Z 64
_cell_length_a 16.436071
_cell_length_b 16.436071
_cell_length_c 18.296132
_cell_angle_alpha 90.000000
_cell_angle_beta 90.000000
_cell_angle_gamma 120.000000
_cell_volume 4280.415558
_symmetry_space_group_name_H-M "P 63/M"
_symmetry_group_IT_number 176
_symmetry_cell_setting 'hexagonal'
loop_
_space_group_symop_operation_xyz
x,y,z
x-y,x,1/2+z
-y,x-y,z
-x,-y,1/2+z
-x+y,-x,z
y,-x+y,1/2+z
-x,-y,-z
-x+y,-x,1/2-z
y,-x+y,-z
x,y,1/2-z
x-y,x,-z
-y,x-y,1/2-z
loop_
_atom_site_type_symbol
_atom_site_label
_atom_site_fract_x
_atom_site_fract_y
_atom_site_fract_z
Si Si1 0.476446 0.333321 0.335592
Si Si2 0.283383 0.240028 0.080682
Si Si3 0.107572 0.892428 0.337281
Si Si4 0.523554 0.856875 0.664408
Si Si5 0.043356 0.759972 0.919317
Si Si6 0.000000 0.000000 0.338577
O O1 0.449607 0.331607 0.250000
O O2 0.387681 0.303877 0.387445
O O3 0.503564 0.251782 0.343058
O O4 0.565723 0.434277 0.351469
O O5 0.210891 0.253427 0.131306
O O6 0.264860 0.132430 0.082334
O O7 0.267698 0.267698 1.000000
O O8 0.109917 0.890083 0.250000
O O9 0.210891 0.957464 0.368694
O O10 0.053305 0.946695 0.362479
O O11 0.550393 0.882000 0.750000
O O12 0.612319 0.916196 0.612555
O O13 0.000000 0.000000 0.250000
#
# Coordination Sequence:
#
# PCOD9582103 Si02
#       6
#    12  12  12  12  12   4
#     4   9  18  33  53  74  95 121 156 200 249 297
#     4  11  21  32  47  70 101 134 165 199 241 290
#     4  11  20  31  47  69  98 135 175 205 233 277
#     4   9  18  33  53  74  95 121 156 200 249 297
#     4  11  21  32  47  70 101 134 165 199 241 290
#     4   9  18  27  43  65  91 129 169 203 229 258
#
# _framework density 14.95182
#
# number of rings (size 3 to 8) (size 9 to 14) (size 15 to 20)
#    0.000    1.875    3.750    1.500    0.000    3.750 
#    0.000    1.875    0.000    0.000    0.000    0.000 
#    1.875    0.000    2.250    0.000    0.000    0.000 
#
# Total GULP energy -356713.136437 kJ/mol
# GULP energy per Si atom -5573.642757 kJ/mol
# Density = 1.491779 g / cm^3
# Si number density = 14.951820 Si / 1000 Ang^3
#
#
#
# Elastic Constant Matrix: (Units=GPa)
#
#
# Indices 1 2 3 4 5 6 
#
# 1 92.9683 49.1711 54.8367 0.0000 0.0000 0.0000
# 2 49.1711 92.9683 54.8367 0.0000 0.0000 0.0000
# 3 54.8367 54.8367 99.5266 0.0000 0.0000 0.0000
# 4 0.0000 0.0000 0.0000 23.0336 0.0000 0.0000
# 5 0.0000 0.0000 0.0000 0.0000 23.0336 0.0000
# 6 0.0000 0.0000 0.0000 0.0000 0.0000 21.8986
#
#
#
# Elastic Compliance Matrix: (Units=1/GPa)
#
#
# Indices 1 2 3 4 5 6 
#
# 1 0.017535 -0.005297 -0.006743 0.000000 0.000000 0.000000
# 2 -0.005297 0.017535 -0.006743 0.000000 0.000000 0.000000
# 3 -0.006743 -0.006743 0.017478 0.000000 0.000000 0.000000
# 4 0.000000 0.000000 0.000000 0.043415 0.000000 0.000000
# 5 0.000000 0.000000 0.000000 0.000000 0.043415 0.000000
# 6 0.000000 0.000000 0.000000 0.000000 0.000000 0.045665
#
#
# Mechanical properties :
#
#
# Convention : Reuss Voigt Hill
#
# Bulk Modulus (GPa) = 66.74438 67.01690 66.88064
# Shear Modulus (GPa) = 21.96804 22.03440 22.00122
#
# Velocity S-wave (km/s) = 3.83724 3.84304 3.84014
# Velocity P-wave (km/s) = 8.02304 8.03810 8.03057
#
# Compressibility (1/GPa) = 0.01498253
#
# Stress axis : x y z
#
# Youngs Moduli (GPa) = 57.02782 57.02782 57.21517
#
# Poissons Ratio (x) = 0.30209 0.38580
# Poissons Ratio (y) = 0.30209 0.38580
# Poissons Ratio (z) = 0.38453 0.38453
#
# Static dielectric constant tensor:
#      x y z
#    x 1.484150 0.000000 0.000000 
#    y 0.000000 1.484150 0.000000 
#    z 0.000000 0.000000 1.487540 
# 
# From -- ./inp_files/3291.got.cif
#   From: 2010.05.17/outbox.cif.g08.bks.cpg/sg176_2_cif.got.tgz:3291.got - 2010.06.03 11:36:45.
