data_PCOD9582548
_publ_section_title
;
Structure prediction by ZEFSAII (Michael W. Deem and Ramdas Pophale) SiO2 
 PCOD9582548
Probable space group: P 61 2 2
;
_chemical_formula_sum "Si O2"
_cell_formula_units_Z 66
_cell_length_a 15.413480
_cell_length_b 15.413480
_cell_length_c 15.479692
_cell_angle_alpha 90.000000
_cell_angle_beta 90.000000
_cell_angle_gamma 120.000000
_cell_volume 3184.889385
_symmetry_space_group_name_H-M "P 61 2 2"
_symmetry_group_IT_number 178
_symmetry_cell_setting 'hexagonal'
loop_
_space_group_symop_operation_xyz
x,y,z
x-y,x,1/6+z
-y,x-y,1/3+z
-x,-y,1/2+z
-x+y,-x,2/3+z
y,-x+y,5/6+z
x-y,-y,-z
-x,-x+y,2/3-z
y,x,1/3-z
-y,-x,5/6-z
-x+y,y,1/2-z
x,x-y,1/6-z
loop_
_atom_site_type_symbol
_atom_site_label
_atom_site_fract_x
_atom_site_fract_y
_atom_site_fract_z
Si Si1 0.120798 0.352265 0.437518
Si Si2 0.422797 0.340321 0.845452
Si Si3 0.194024 0.388048 0.250000
Si Si4 0.958516 0.229661 0.924968
Si Si5 0.947995 0.862195 0.998592
Si Si6 0.541926 0.951456 0.625247
O O1 0.229128 0.411880 0.486939
O O2 0.150060 0.331833 0.341001
O O3 0.055267 0.242973 0.480956
O O4 0.053373 0.406620 0.435018
O O5 0.312789 0.321471 0.829236
O O6 0.495675 0.430858 0.781754
O O7 0.449343 0.381941 0.941055
O O8 0.312995 0.453913 0.250425
O O9 0.842321 0.157680 0.916667
O O10 0.000000 0.279150 0.833334
O O11 0.012200 0.166961 0.950974
O O12 0.929498 0.896313 0.903083
#
# Coordination Sequence:
#
# PCOD9582548 Si02
#       6
#    12  12   6  12  12  12
#     4  10  20  38  68  91 127 166 219 266 328 396
#     4   9  22  38  61  94 118 170 208 258 330 393
#     4  10  20  34  64  94 126 164 220 270 324 388
#     4  11  21  35  62  85 122 162 207 261 322 391
#     4  11  22  39  64  87 126 175 213 264 323 386
#     4  10  20  40  64  86 130 166 209 268 324 386
#
# _framework density 20.722856
#
# number of rings (size 3 to 8) (size 9 to 14) (size 15 to 20)
#    0.000    1.818    1.818    3.818    2.545    1.455 
#    0.000    1.818   64.000    0.000    0.000    0.000 
#    0.000    0.000    0.000    0.000    0.000    0.000 
#
# Total GULP energy -367412.951514 kJ/mol
# GULP energy per Si atom -5566.862902 kJ/mol
# Density = 2.067569 g / cm^3
# Si number density = 20.722856 Si / 1000 Ang^3
#
#
#
# Elastic Constant Matrix: (Units=GPa)
#
#
# Indices 1 2 3 4 5 6 
#
# 1 102.8137 71.1018 15.1724 0.0000 0.0000 0.0000
# 2 71.1018 102.8137 15.1724 0.0000 0.0000 0.0000
# 3 15.1724 15.1724 60.1799 0.0000 0.0000 0.0000
# 4 0.0000 0.0000 0.0000 27.9171 0.0000 0.0000
# 5 0.0000 0.0000 0.0000 0.0000 27.9171 0.0000
# 6 0.0000 0.0000 0.0000 0.0000 0.0000 15.8560
#
#
#
# Elastic Compliance Matrix: (Units=1/GPa)
#
#
# Indices 1 2 3 4 5 6 
#
# 1 0.018774 -0.012760 -0.001516 0.000000 0.000000 0.000000
# 2 -0.012760 0.018774 -0.001516 0.000000 0.000000 0.000000
# 3 -0.001516 -0.001516 0.017381 0.000000 0.000000 0.000000
# 4 0.000000 0.000000 0.000000 0.035820 0.000000 0.000000
# 5 0.000000 0.000000 0.000000 0.000000 0.035820 0.000000
# 6 0.000000 0.000000 0.000000 0.000000 0.000000 0.063068
#
#
# Mechanical properties :
#
#
# Convention : Reuss Voigt Hill
#
# Bulk Modulus (GPa) = 42.83573 52.07783 47.45678
# Shear Modulus (GPa) = 21.83361 25.29542 23.56451
#
# Velocity S-wave (km/s) = 3.24944 3.49757 3.37579
# Velocity P-wave (km/s) = 5.89866 6.44173 6.17616
#
# Compressibility (1/GPa) = 0.02334500
#
# Stress axis : x y z
#
# Youngs Moduli (GPa) = 53.26464 53.26464 57.53265
#
# Poissons Ratio (x) = 0.67964 0.08724
# Poissons Ratio (y) = 0.67964 0.08724
# Poissons Ratio (z) = 0.08077 0.08077
#
# Static dielectric constant tensor:
#      x y z
#    x 1.776720 0.000000 0.000000 
#    y 0.000000 1.776720 0.000000 
#    z 0.000000 0.000000 1.549770 
# 
# From -- ./inp_files/6687.got.cif
#   From: 2010.05.17/outbox.cif.g08.bks.cpg/sg178_4_cif.got.tgz:6687.got - 2010.05.20 11:30:59.
