data_PCOD9582089
_publ_section_title
;
Structure prediction by ZEFSAII (Michael W. Deem and Ramdas Pophale) SiO2 
 PCOD9582089
Probable space group: P 63/M
;
_chemical_formula_sum "Si O2"
_cell_formula_units_Z 36
_cell_length_a 11.175852
_cell_length_b 11.175852
_cell_length_c 14.475353
_cell_angle_alpha 90.000000
_cell_angle_beta 90.000000
_cell_angle_gamma 120.000000
_cell_volume 1565.745163
_symmetry_space_group_name_H-M "P 63/M"
_symmetry_group_IT_number 176
_symmetry_cell_setting 'hexagonal'
loop_
_space_group_symop_operation_xyz
x,y,z
x-y,x,1/2+z
-y,x-y,z
-x,-y,1/2+z
-x+y,-x,z
y,-x+y,1/2+z
-x,-y,-z
-x+y,-x,1/2-z
y,-x+y,-z
x,y,1/2-z
x-y,x,-z
-y,x-y,1/2-z
loop_
_atom_site_type_symbol
_atom_site_label
_atom_site_fract_x
_atom_site_fract_y
_atom_site_fract_z
Si Si1 0.832327 0.352256 0.927923
Si Si2 0.981493 0.571205 0.250000
Si Si3 0.091555 0.744769 0.750000
Si Si4 0.724049 0.958775 0.953305
O O1 0.786654 0.467689 0.925164
O O2 0.922567 0.364767 0.839779
O O3 0.909782 0.343865 0.018153
O O4 0.928310 0.408164 0.250000
O O5 0.856861 0.602574 0.250000
O O6 0.026553 0.764682 0.843614
O O7 0.743217 0.833167 0.989484
#
# Coordination Sequence:
#
# PCOD9582089 Si02
#       4
#    12   6   6  12
#     4  10  24  44  77 106 148 196 252 302 375 444
#     4  12  23  48  70 116 151 195 243 315 367 445
#     4  12  29  42  76 110 151 189 251 305 373 445
#     4  12  27  50  75 107 152 203 248 310 371 450
#
# _framework density 22.992246000000002
#
# number of rings (size 3 to 8) (size 9 to 14) (size 15 to 20)
#    0.667    0.000    3.333    3.667    4.667    5.333 
#    0.000    0.000    0.000    0.000    0.000    0.000 
#    0.000    0.000    0.000    0.000    0.000    0.000 
#
# Total GULP energy -201588.689409 kJ/mol
# GULP energy per Si atom -5599.685817 kJ/mol
# Density = 2.293991 g / cm^3
# Si number density = 22.992246 Si / 1000 Ang^3
#
#
#
# Elastic Constant Matrix: (Units=GPa)
#
#
# Indices 1 2 3 4 5 6 
#
# 1 107.6577 26.3397 32.3021 0.0000 0.0000 0.0000
# 2 26.3397 107.6577 32.3021 0.0000 0.0000 0.0000
# 3 32.3021 32.3021 194.5343 0.0000 0.0000 0.0000
# 4 0.0000 0.0000 0.0000 32.9805 0.0000 0.0000
# 5 0.0000 0.0000 0.0000 0.0000 32.9805 0.0000
# 6 0.0000 0.0000 0.0000 0.0000 0.0000 40.6590
#
#
#
# Elastic Compliance Matrix: (Units=1/GPa)
#
#
# Indices 1 2 3 4 5 6 
#
# 1 0.010205 -0.002093 -0.001347 0.000000 0.000000 0.000000
# 2 -0.002093 0.010205 -0.001347 0.000000 0.000000 0.000000
# 3 -0.001347 -0.001347 0.005588 0.000000 0.000000 0.000000
# 4 0.000000 0.000000 0.000000 0.030321 0.000000 0.000000
# 5 0.000000 0.000000 0.000000 0.000000 0.030321 0.000000
# 6 0.000000 0.000000 0.000000 0.000000 0.000000 0.024595
#
#
# Mechanical properties :
#
#
# Convention : Reuss Voigt Hill
#
# Bulk Modulus (GPa) = 60.88555 65.74860 63.31708
# Shear Modulus (GPa) = 39.59385 42.58438 41.08911
#
# Velocity S-wave (km/s) = 4.15426 4.30829 4.23198
# Velocity P-wave (km/s) = 7.03910 7.30798 7.17480
#
# Compressibility (1/GPa) = 0.01642426
#
# Stress axis : x y z
#
# Youngs Moduli (GPa) = 97.99276 97.99276 178.96051
#
# Poissons Ratio (x) = 0.20506 0.24106
# Poissons Ratio (y) = 0.20506 0.24106
# Poissons Ratio (z) = 0.13200 0.13200
#
# Static dielectric constant tensor:
#      x y z
#    x 1.891880 0.000000 0.000000 
#    y 0.000000 1.891880 0.000000 
#    z 0.000000 0.000000 1.803930 
# 
# From -- ./inp_files/2346.got.cif
#   From: 2010.05.17/outbox.cif.g08.bks.cpg/sg176_2_cif.got.tgz:2346.got - 2010.06.03 11:36:45.
