data_PCOD9582124
_publ_section_title
;
Structure prediction by ZEFSAII (Michael W. Deem and Ramdas Pophale) SiO2 
 PCOD9582124
Probable space group: P 63/M
;
_chemical_formula_sum "Si O2"
_cell_formula_units_Z 36
_cell_length_a 14.880566
_cell_length_b 14.880566
_cell_length_c 8.481633
_cell_angle_alpha 90.000000
_cell_angle_beta 90.000000
_cell_angle_gamma 120.000000
_cell_volume 1626.481055
_symmetry_space_group_name_H-M "P 63/M"
_symmetry_group_IT_number 176
_symmetry_cell_setting 'hexagonal'
loop_
_space_group_symop_operation_xyz
x,y,z
x-y,x,1/2+z
-y,x-y,z
-x,-y,1/2+z
-x+y,-x,z
y,-x+y,1/2+z
-x,-y,-z
-x+y,-x,1/2-z
y,-x+y,-z
x,y,1/2-z
x-y,x,-z
-y,x-y,1/2-z
loop_
_atom_site_type_symbol
_atom_site_label
_atom_site_fract_x
_atom_site_fract_y
_atom_site_fract_z
Si Si1 0.258535 0.804510 0.563750
Si Si2 0.587258 0.477075 0.565887
Si Si3 0.781653 0.833362 0.934950
O O1 0.281270 0.809075 0.750000
O O2 0.354967 0.814697 0.466518
O O3 0.157179 0.696084 0.523388
O O4 0.237907 0.898358 0.524567
O O5 0.500000 0.500000 0.500000
O O6 0.603497 0.501604 0.750000
O O7 0.794948 0.819085 0.750000
O O8 0.858375 0.809464 0.033524
#
# Coordination Sequence:
#
# PCOD9582124 Si02
#       3
#    12  12  12
#     4  11  24  43  66  93 125 164 209 260 313 370
#     4  12  25  42  65  94 128 167 209 258 313 374
#     4  11  24  41  64  91 123 161 203 252 305 362
#
# _framework density 22.133672000000001
#
# number of rings (size 3 to 8) (size 9 to 14) (size 15 to 20)
#    0.000    0.667    0.000    8.000    0.000   10.667 
#    0.000    0.000    0.000    0.000    0.000    0.000 
#    0.000    0.000    0.000    0.000    0.000    0.000 
#
# Total GULP energy -201745.423361 kJ/mol
# GULP energy per Si atom -5604.039538 kJ/mol
# Density = 2.208329 g / cm^3
# Si number density = 22.133672 Si / 1000 Ang^3
#
#
#
# Elastic Constant Matrix: (Units=GPa)
#
#
# Indices 1 2 3 4 5 6 
#
# 1 63.9753 -16.4500 -2.6744 0.0000 0.0000 0.0000
# 2 -16.4500 63.9753 -2.6744 0.0000 0.0000 0.0000
# 3 -2.6744 -2.6744 44.6718 0.0000 0.0000 0.0000
# 4 0.0000 0.0000 0.0000 28.5194 0.0000 0.0000
# 5 0.0000 0.0000 0.0000 0.0000 28.5194 0.0000
# 6 0.0000 0.0000 0.0000 0.0000 0.0000 40.2126
#
#
#
# Elastic Compliance Matrix: (Units=1/GPa)
#
#
# Indices 1 2 3 4 5 6 
#
# 1 0.016809 0.004375 0.001268 0.000000 0.000000 0.000000
# 2 0.004375 0.016809 0.001268 0.000000 0.000000 0.000000
# 3 0.001268 0.001268 0.022537 0.000000 0.000000 0.000000
# 4 0.000000 0.000000 0.000000 0.035064 0.000000 0.000000
# 5 0.000000 0.000000 0.000000 0.000000 0.035064 0.000000
# 6 0.000000 0.000000 0.000000 0.000000 0.000000 0.024868
#
#
# Mechanical properties :
#
#
# Convention : Reuss Voigt Hill
#
# Bulk Modulus (GPa) = 14.29008 14.33610 14.31309
# Shear Modulus (GPa) = 31.12282 32.41170 31.76726
#
# Velocity S-wave (km/s) = 3.75391 3.83085 3.79257
# Velocity P-wave (km/s) = 5.02587 5.10474 5.06546
#
# Compressibility (1/GPa) = 0.06997861
#
# Stress axis : x y z
#
# Youngs Moduli (GPa) = 59.49183 59.49183 44.37079
#
# Poissons Ratio (x) = -0.26028 -0.05627
# Poissons Ratio (y) = -0.26028 -0.05627
# Poissons Ratio (z) = -0.07545 -0.07545
#
# Static dielectric constant tensor:
#      x y z
#    x 1.819590 0.000000 0.000000 
#    y 0.000000 1.819590 0.000000 
#    z 0.000000 0.000000 1.732430 
# 
# From -- ./inp_files/347.got.cif
#   From: 2010.05.17/outbox.cif.g08.bks.cpg/sg176_1_cif.got.tgz:347.got - 2010.06.03 11:36:45.
