data_PCOD9582640
_publ_section_title
;
Structure prediction by ZEFSAII (Michael W. Deem and Ramdas Pophale) SiO2 
 PCOD9582640
Probable space group: P 61 2 2
;
_chemical_formula_sum "Si O2"
_cell_formula_units_Z 90
_cell_length_a 18.057350
_cell_length_b 18.057350
_cell_length_c 16.194289
_cell_angle_alpha 90.000000
_cell_angle_beta 90.000000
_cell_angle_gamma 120.000000
_cell_volume 4572.993129
_symmetry_space_group_name_H-M "P 61 2 2"
_symmetry_group_IT_number 178
_symmetry_cell_setting 'hexagonal'
loop_
_space_group_symop_operation_xyz
x,y,z
x-y,x,1/6+z
-y,x-y,1/3+z
-x,-y,1/2+z
-x+y,-x,2/3+z
y,-x+y,5/6+z
x-y,-y,-z
-x,-x+y,2/3-z
y,x,1/3-z
-y,-x,5/6-z
-x+y,y,1/2-z
x,x-y,1/6-z
loop_
_atom_site_type_symbol
_atom_site_label
_atom_site_fract_x
_atom_site_fract_y
_atom_site_fract_z
Si Si1 0.106697 0.615377 0.011166
Si Si2 0.914578 0.000000 0.000000
Si Si3 0.269906 0.720508 0.753000
Si Si4 0.152815 0.276217 0.847205
Si Si5 0.305173 0.374102 0.611135
Si Si6 0.214219 0.519355 0.591349
Si Si7 0.160335 0.554627 0.846706
Si Si8 0.659562 0.634664 0.388382
O O1 0.101274 0.550637 0.083334
O O2 0.196819 0.702608 0.024257
O O3 0.025961 0.628121 0.032011
O O4 0.121783 0.579538 0.925443
O O5 0.900489 0.079162 0.023778
O O6 0.943823 0.971912 0.083334
O O7 0.356290 0.712579 0.750000
O O8 0.242842 0.737959 0.664992
O O9 0.191415 0.631819 0.783897
O O10 0.148838 0.297676 0.750000
O O11 0.139624 0.346167 0.897347
O O12 0.243105 0.288633 0.877171
O O13 0.297351 0.297351 0.666667
O O14 0.361768 0.455873 0.668797
O O15 0.350612 0.385410 0.524328
O O16 0.210188 0.605094 0.583334
O O17 0.300332 0.544990 0.641807
O O18 0.119863 0.447864 0.618707
#
# Coordination Sequence:
#
# PCOD9582640 Si02
#       8
#    12   6  12  12  12  12  12  12
#     4  11  21  41  59  83 124 172 215 265 317 375
#     4  10  20  40  68 100 134 164 208 260 336 412
#     4  11  22  38  62  86 117 168 229 272 316 383
#     4  11  21  39  64  99 137 166 204 257 337 423
#     4  12  23  36  56  92 133 165 199 261 336 389
#     4  12  23  36  57  89 119 160 220 266 319 386
#     4  12  23  39  62  86 123 174 219 269 325 382
#     4  12  25  38  62  90 132 173 208 264 332 400
#
# _framework density 19.680765999999998
#
# number of rings (size 3 to 8) (size 9 to 14) (size 15 to 20)
#    0.000    0.533    8.667    1.600    1.867    0.533 
#    0.000    0.000    0.000    1.600    0.000    0.000 
#    0.000    0.000    0.000    0.000    0.000    0.000 
#
# Total GULP energy -501501.225551 kJ/mol
# GULP energy per Si atom -5572.235839 kJ/mol
# Density = 1.963597 g / cm^3
# Si number density = 19.680766 Si / 1000 Ang^3
#
#
#
# Elastic Constant Matrix: (Units=GPa)
#
#
# Indices 1 2 3 4 5 6 
#
# 1 93.0816 25.1225 17.1891 0.0000 0.0000 0.0000
# 2 25.1225 93.0816 17.1891 0.0000 0.0000 0.0000
# 3 17.1891 17.1891 54.9496 0.0000 0.0000 0.0000
# 4 0.0000 0.0000 0.0000 20.8720 0.0000 0.0000
# 5 0.0000 0.0000 0.0000 0.0000 20.8720 0.0000
# 6 0.0000 0.0000 0.0000 0.0000 0.0000 33.9795
#
#
#
# Elastic Compliance Matrix: (Units=1/GPa)
#
#
# Indices 1 2 3 4 5 6 
#
# 1 0.012011 -0.002704 -0.002911 0.000000 0.000000 0.000000
# 2 -0.002704 0.012011 -0.002911 0.000000 0.000000 0.000000
# 3 -0.002911 -0.002911 0.020020 0.000000 0.000000 0.000000
# 4 0.000000 0.000000 0.000000 0.047911 0.000000 0.000000
# 5 0.000000 0.000000 0.000000 0.000000 0.047911 0.000000
# 6 0.000000 0.000000 0.000000 0.000000 0.000000 0.029429
#
#
# Mechanical properties :
#
#
# Convention : Reuss Voigt Hill
#
# Bulk Modulus (GPa) = 37.05335 40.01267 38.53301
# Shear Modulus (GPa) = 25.59615 27.25220 26.42417
#
# Velocity S-wave (km/s) = 3.61025 3.72521 3.66818
# Velocity P-wave (km/s) = 6.02051 6.23521 6.12880
#
# Compressibility (1/GPa) = 0.02698811
#
# Stress axis : x y z
#
# Youngs Moduli (GPa) = 83.25914 83.25914 49.95041
#
# Poissons Ratio (x) = 0.22514 0.14542
# Poissons Ratio (y) = 0.22514 0.14542
# Poissons Ratio (z) = 0.24239 0.24239
#
# Static dielectric constant tensor:
#      x y z
#    x 1.836420 0.000000 0.000000 
#    y 0.000000 1.836420 0.000000 
#    z 0.000000 0.000000 1.733150 
# 
# From -- ./inp_files/7008.got.cif
#   From: 2010.05.17/outbox.cif.g08.bks.cpg/sg178_4_cif.got.tgz:7008.got - 2010.05.20 11:30:59.
