data_PCOD9582504
_publ_section_title
;
Structure prediction by ZEFSAII (Michael W. Deem and Ramdas Pophale) SiO2 
 PCOD9582504
Probable space group: P 61 2 2
;
_chemical_formula_sum "Si O2"
_cell_formula_units_Z 42
_cell_length_a 14.307609
_cell_length_b 14.307609
_cell_length_c 12.150672
_cell_angle_alpha 90.000000
_cell_angle_beta 90.000000
_cell_angle_gamma 120.000000
_cell_volume 2154.096006
_symmetry_space_group_name_H-M "P 61 2 2"
_symmetry_group_IT_number 178
_symmetry_cell_setting 'hexagonal'
loop_
_space_group_symop_operation_xyz
x,y,z
x-y,x,1/6+z
-y,x-y,1/3+z
-x,-y,1/2+z
-x+y,-x,2/3+z
y,-x+y,5/6+z
x-y,-y,-z
-x,-x+y,2/3-z
y,x,1/3-z
-y,-x,5/6-z
-x+y,y,1/2-z
x,x-y,1/6-z
loop_
_atom_site_type_symbol
_atom_site_label
_atom_site_fract_x
_atom_site_fract_y
_atom_site_fract_z
Si Si1 0.143739 0.510235 0.753947
Si Si2 0.735083 0.253863 0.285698
Si Si3 0.685651 0.620774 0.029014
Si Si4 0.827714 0.827714 0.166667
O O1 0.256181 0.512361 0.750000
O O2 0.170237 0.632244 0.736945
O O3 0.106571 0.473763 0.879398
O O4 0.056226 0.414063 0.677696
O O5 0.624264 0.248528 0.250000
O O6 0.727976 0.146949 0.237246
O O7 0.514524 0.257262 0.083334
O O8 0.785377 0.722201 0.088710
O O9 0.923957 0.847914 0.250000
#
# Coordination Sequence:
#
# PCOD9582504 Si02
#       4
#    12  12  12   6
#     4   9  19  36  57  83 121 170 211 261 322 393
#     4  11  21  38  58  94 131 172 212 266 329 401
#     4  10  19  38  60  92 125 169 222 257 326 403
#     4  10  22  46  72  94 122 172 228 282 334 404
#
# _framework density 19.497738999999999
#
# number of rings (size 3 to 8) (size 9 to 14) (size 15 to 20)
#    0.000    2.286    2.857    3.429    0.000    0.000 
#   10.286    1.429    0.000    0.000    0.000    0.000 
#    0.000    0.000    0.000    0.000    0.000    0.000 
#
# Total GULP energy -234122.285296 kJ/mol
# GULP energy per Si atom -5574.340126 kJ/mol
# Density = 1.945336 g / cm^3
# Si number density = 19.497739 Si / 1000 Ang^3
#
#
#
# Elastic Constant Matrix: (Units=GPa)
#
#
# Indices 1 2 3 4 5 6 
#
# 1 99.8533 58.0855 57.1712 0.0000 0.0000 0.0000
# 2 58.0855 99.8533 57.1712 0.0000 0.0000 0.0000
# 3 57.1712 57.1712 118.7817 0.0000 0.0000 0.0000
# 4 0.0000 0.0000 0.0000 29.1330 0.0000 0.0000
# 5 0.0000 0.0000 0.0000 0.0000 29.1330 0.0000
# 6 0.0000 0.0000 0.0000 0.0000 0.0000 20.8839
#
#
#
# Elastic Compliance Matrix: (Units=1/GPa)
#
#
# Indices 1 2 3 4 5 6 
#
# 1 0.016830 -0.007112 -0.004677 0.000000 0.000000 0.000000
# 2 -0.007112 0.016830 -0.004677 0.000000 0.000000 0.000000
# 3 -0.004677 -0.004677 0.012921 0.000000 0.000000 0.000000
# 4 0.000000 0.000000 0.000000 0.034325 0.000000 0.000000
# 5 0.000000 0.000000 0.000000 0.000000 0.034325 0.000000
# 6 0.000000 0.000000 0.000000 0.000000 0.000000 0.047884
#
#
# Mechanical properties :
#
#
# Convention : Reuss Voigt Hill
#
# Bulk Modulus (GPa) = 73.27263 73.70491 73.48877
# Shear Modulus (GPa) = 24.92548 25.56733 25.24641
#
# Velocity S-wave (km/s) = 3.57932 3.62511 3.60229
# Velocity P-wave (km/s) = 7.39890 7.44350 7.42123
#
# Compressibility (1/GPa) = 0.01364766
#
# Stress axis : x y z
#
# Youngs Moduli (GPa) = 59.41830 59.41830 77.39156
#
# Poissons Ratio (x) = 0.42259 0.36198
# Poissons Ratio (y) = 0.42259 0.36198
# Poissons Ratio (z) = 0.27792 0.27792
#
# Static dielectric constant tensor:
#      x y z
#    x 1.783050 0.000000 0.000000 
#    y 0.000000 1.783050 0.000000 
#    z 0.000000 0.000000 1.699340 
# 
# From -- ./inp_files/5334.got.cif
#   From: 2010.05.17/outbox.cif.g08.bks.cpg/sg178_3_cif.got.tgz:5334.got - 2010.05.20 11:30:59.
