data_PCOD9582557
_publ_section_title
;
Structure prediction by ZEFSAII (Michael W. Deem and Ramdas Pophale) SiO2 
 PCOD9582557
Probable space group: P 61 2 2
;
_chemical_formula_sum "Si O2"
_cell_formula_units_Z 36
_cell_length_a 7.284007
_cell_length_b 7.284007
_cell_length_c 32.985073
_cell_angle_alpha 90.000000
_cell_angle_beta 90.000000
_cell_angle_gamma 120.000000
_cell_volume 1515.614635
_symmetry_space_group_name_H-M "P 61 2 2"
_symmetry_group_IT_number 178
_symmetry_cell_setting 'hexagonal'
loop_
_space_group_symop_operation_xyz
x,y,z
x-y,x,1/6+z
-y,x-y,1/3+z
-x,-y,1/2+z
-x+y,-x,2/3+z
y,-x+y,5/6+z
x-y,-y,-z
-x,-x+y,2/3-z
y,x,1/3-z
-y,-x,5/6-z
-x+y,y,1/2-z
x,x-y,1/6-z
loop_
_atom_site_type_symbol
_atom_site_label
_atom_site_fract_x
_atom_site_fract_y
_atom_site_fract_z
Si Si1 0.414710 0.635224 0.292515
Si Si2 0.452104 0.700040 0.038974
Si Si3 0.105858 0.037158 0.375164
O O1 0.302817 0.605633 0.250000
O O2 0.283918 0.628863 0.331778
O O3 0.486785 0.463627 0.298761
O O4 0.644451 0.854041 0.289545
O O5 0.353267 0.676634 0.083334
O O6 0.699825 0.882895 0.040975
O O7 0.000000 0.045826 0.333334
O O8 0.981673 0.018328 0.416667
#
# Coordination Sequence:
#
# PCOD9582557 Si02
#       3
#    12  12  12
#     4  10  20  35  60  81 115 153 193 241 292 344
#     4   9  21  35  57  85 113 152 195 241 289 343
#     4   9  18  35  59  83 111 153 196 231 284 348
#
# _framework density 23.752742000000001
#
# number of rings (size 3 to 8) (size 9 to 14) (size 15 to 20)
#    2.000    0.667    0.000    2.000    0.000    1.333 
#    0.000    1.667    0.000    0.000    0.000    0.000 
#    0.000    0.000    0.000    0.000    0.000    0.000 
#
# Total GULP energy -200591.472271 kJ/mol
# GULP energy per Si atom -5571.985341 kJ/mol
# Density = 2.369868 g / cm^3
# Si number density = 23.752742 Si / 1000 Ang^3
#
#
#
# Elastic Constant Matrix: (Units=GPa)
#
#
# Indices 1 2 3 4 5 6 
#
# 1 29.7482 -0.8528 20.5992 0.0000 0.0000 0.0000
# 2 -0.8528 29.7482 20.5992 0.0000 0.0000 0.0000
# 3 20.5992 20.5992 225.1922 0.0000 0.0000 0.0000
# 4 0.0000 0.0000 0.0000 34.7160 0.0000 0.0000
# 5 0.0000 0.0000 0.0000 0.0000 34.7160 0.0000
# 6 0.0000 0.0000 0.0000 0.0000 0.0000 15.3005
#
#
#
# Elastic Compliance Matrix: (Units=1/GPa)
#
#
# Indices 1 2 3 4 5 6 
#
# 1 0.036238 0.003560 -0.003640 0.000000 0.000000 0.000000
# 2 0.003560 0.036238 -0.003640 0.000000 0.000000 0.000000
# 3 -0.003640 -0.003640 0.005107 0.000000 0.000000 0.000000
# 4 0.000000 0.000000 0.000000 0.028805 0.000000 0.000000
# 5 0.000000 0.000000 0.000000 0.000000 0.028805 0.000000
# 6 0.000000 0.000000 0.000000 0.000000 0.000000 0.065357
#
#
# Mechanical properties :
#
#
# Convention : Reuss Voigt Hill
#
# Bulk Modulus (GPa) = 14.25701 40.59777 27.42739
# Shear Modulus (GPa) = 21.61001 33.23602 27.42302
#
# Velocity S-wave (km/s) = 3.01955 3.74471 3.40151
# Velocity P-wave (km/s) = 4.26288 5.98549 5.19607
#
# Compressibility (1/GPa) = 0.07014094
#
# Stress axis : x y z
#
# Youngs Moduli (GPa) = 27.59501 27.59501 195.82224
#
# Poissons Ratio (x) = -0.09823 0.71289
# Poissons Ratio (y) = -0.09823 0.71289
# Poissons Ratio (z) = 0.10046 0.10046
#
# Static dielectric constant tensor:
#      x y z
#    x 1.941600 0.000000 0.000000 
#    y 0.000000 1.941600 0.000000 
#    z 0.000000 0.000000 1.931040 
# 
# From -- ./inp_files/8516.got.cif
#   From: 2010.05.17/outbox.cif.g08.bks.cpg/sg178_5_cif.got.tgz:8516.got - 2010.05.20 11:30:59.
