data_PCOD9582992
_publ_section_title
;
Structure prediction by ZEFSAII (Michael W. Deem and Ramdas Pophale) SiO2 
 PCOD9582992
Probable space group: P 61 2 2
;
_chemical_formula_sum "Si O2"
_cell_formula_units_Z 36
_cell_length_a 10.665326
_cell_length_b 10.665326
_cell_length_c 17.431363
_cell_angle_alpha 90.000000
_cell_angle_beta 90.000000
_cell_angle_gamma 120.000000
_cell_volume 1717.157963
_symmetry_space_group_name_H-M "P 61 2 2"
_symmetry_group_IT_number 178
_symmetry_cell_setting 'hexagonal'
loop_
_space_group_symop_operation_xyz
x,y,z
x-y,x,1/6+z
-y,x-y,1/3+z
-x,-y,1/2+z
-x+y,-x,2/3+z
y,-x+y,5/6+z
x-y,-y,-z
-x,-x+y,2/3-z
y,x,1/3-z
-y,-x,5/6-z
-x+y,y,1/2-z
x,x-y,1/6-z
loop_
_atom_site_type_symbol
_atom_site_label
_atom_site_fract_x
_atom_site_fract_y
_atom_site_fract_z
Si Si1 0.398475 0.338633 0.879447
Si Si2 0.847296 0.261978 0.793075
Si Si3 0.693944 0.172949 0.497745
O O1 0.507471 0.492530 0.916667
O O2 0.247885 0.337202 0.874108
O O3 0.441190 0.319327 0.794129
O O4 0.417364 0.228781 0.934756
O O5 0.778072 0.350149 0.833827
O O6 0.000000 0.312446 0.833334
O O7 0.774415 0.225586 0.416667
O O8 0.602549 0.000000 0.500000
#
# Coordination Sequence:
#
# PCOD9582992 Si02
#       3
#    12  12  12
#     4  12  25  43  72 104 142 188 237 298 366 431
#     4  11  26  46  71 103 143 185 241 297 363 436
#     4  11  23  43  68 104 138 180 234 294 351 424
#
# _framework density 20.964876
#
# number of rings (size 3 to 8) (size 9 to 14) (size 15 to 20)
#    0.000    0.667    3.333    4.000    4.667    0.000 
#    0.000   10.000    0.000    0.000    0.000    0.000 
#    0.000    0.000    0.000    0.000    0.000    0.000 
#
# Total GULP energy -201397.330227 kJ/mol
# GULP energy per Si atom -5594.370284 kJ/mol
# Density = 2.091716 g / cm^3
# Si number density = 20.964876 Si / 1000 Ang^3
#
#
#
# Elastic Constant Matrix: (Units=GPa)
#
#
# Indices 1 2 3 4 5 6 
#
# 1 114.0799 53.8987 56.5096 0.0000 0.0000 0.0000
# 2 53.8987 114.0799 56.5096 0.0000 0.0000 0.0000
# 3 56.5096 56.5096 145.7729 0.0000 0.0000 0.0000
# 4 0.0000 0.0000 0.0000 35.4534 0.0000 0.0000
# 5 0.0000 0.0000 0.0000 0.0000 35.4534 0.0000
# 6 0.0000 0.0000 0.0000 0.0000 0.0000 30.0906
#
#
#
# Elastic Compliance Matrix: (Units=1/GPa)
#
#
# Indices 1 2 3 4 5 6 
#
# 1 0.012335 -0.004281 -0.003122 0.000000 0.000000 0.000000
# 2 -0.004281 0.012335 -0.003122 0.000000 0.000000 0.000000
# 3 -0.003122 -0.003122 0.009281 0.000000 0.000000 0.000000
# 4 0.000000 0.000000 0.000000 0.028206 0.000000 0.000000
# 5 0.000000 0.000000 0.000000 0.000000 0.028206 0.000000
# 6 0.000000 0.000000 0.000000 0.000000 0.000000 0.033233
#
#
# Mechanical properties :
#
#
# Convention : Reuss Voigt Hill
#
# Bulk Modulus (GPa) = 77.52097 78.64095 78.08096
# Shear Modulus (GPa) = 33.56904 34.00046 33.78475
#
# Velocity S-wave (km/s) = 4.00585 4.03150 4.01870
# Velocity P-wave (km/s) = 7.64543 7.69824 7.67188
#
# Compressibility (1/GPa) = 0.01289974
#
# Stress axis : x y z
#
# Youngs Moduli (GPa) = 81.06945 81.06945 107.75212
#
# Poissons Ratio (x) = 0.34709 0.33641
# Poissons Ratio (y) = 0.34709 0.33641
# Poissons Ratio (z) = 0.25310 0.25310
#
# Static dielectric constant tensor:
#      x y z
#    x 1.759660 0.000000 0.000000 
#    y 0.000000 1.759660 0.000000 
#    z 0.000000 0.000000 1.752970 
# 
# From -- ./inp_files/5131.got.cif
#   From: 2010.05.17/outbox.cif.g08.bks.cpg/sg178_3_cif.got.tgz:5131.got - 2010.05.20 11:30:59.
