data_PCOD9582796
_publ_section_title
;
Structure prediction by ZEFSAII (Michael W. Deem and Ramdas Pophale) SiO2 
 PCOD9582796
Probable space group: P 61 2 2
;
_chemical_formula_sum "Si O2"
_cell_formula_units_Z 36
_cell_length_a 8.809133
_cell_length_b 8.809133
_cell_length_c 23.366066
_cell_angle_alpha 90.000000
_cell_angle_beta 90.000000
_cell_angle_gamma 120.000000
_cell_volume 1570.299762
_symmetry_space_group_name_H-M "P 61 2 2"
_symmetry_group_IT_number 178
_symmetry_cell_setting 'hexagonal'
loop_
_space_group_symop_operation_xyz
x,y,z
x-y,x,1/6+z
-y,x-y,1/3+z
-x,-y,1/2+z
-x+y,-x,2/3+z
y,-x+y,5/6+z
x-y,-y,-z
-x,-x+y,2/3-z
y,x,1/3-z
-y,-x,5/6-z
-x+y,y,1/2-z
x,x-y,1/6-z
loop_
_atom_site_type_symbol
_atom_site_label
_atom_site_fract_x
_atom_site_fract_y
_atom_site_fract_z
Si Si1 0.445466 0.917779 0.936113
Si Si2 0.354977 0.281747 0.415739
Si Si3 0.035220 0.788687 0.706288
O O1 0.263243 0.736758 0.916667
O O2 0.589844 0.865124 0.921967
O O3 0.428366 0.057826 0.897042
O O4 0.474573 0.000000 0.000000
O O5 0.530469 0.469532 0.416667
O O6 0.244259 0.266657 0.358592
O O7 0.220131 0.256801 0.464815
O O8 0.907402 0.814803 0.750000
#
# Coordination Sequence:
#
# PCOD9582796 Si02
#       3
#    12  12  12
#     4  10  22  42  68 100 137 182 233 293 356 425
#     4  11  24  42  65  99 135 178 231 289 355 430
#     4  11  22  42  67  95 134 180 231 292 354 423
#
# _framework density 22.925557999999999
#
# number of rings (size 3 to 8) (size 9 to 14) (size 15 to 20)
#    0.000    1.333    0.000    7.000    0.000    5.333 
#    0.000    8.333    0.000    0.000    0.000    0.000 
#    0.000    0.000    0.000    0.000    0.000    0.000 
#
# Total GULP energy -200511.893045 kJ/mol
# GULP energy per Si atom -5569.774807 kJ/mol
# Density = 2.287338 g / cm^3
# Si number density = 22.925558 Si / 1000 Ang^3
#
#
#
# Elastic Constant Matrix: (Units=GPa)
#
#
# Indices 1 2 3 4 5 6 
#
# 1 107.2800 48.3643 22.9997 0.0000 0.0000 0.0000
# 2 48.3643 107.2800 22.9997 0.0000 0.0000 0.0000
# 3 22.9997 22.9997 115.3074 0.0000 0.0000 0.0000
# 4 0.0000 0.0000 0.0000 32.9561 0.0000 0.0000
# 5 0.0000 0.0000 0.0000 0.0000 32.9561 0.0000
# 6 0.0000 0.0000 0.0000 0.0000 0.0000 29.4579
#
#
#
# Elastic Compliance Matrix: (Units=1/GPa)
#
#
# Indices 1 2 3 4 5 6 
#
# 1 0.011900 -0.005073 -0.001362 0.000000 0.000000 0.000000
# 2 -0.005073 0.011900 -0.001362 0.000000 0.000000 0.000000
# 3 -0.001362 -0.001362 0.009216 0.000000 0.000000 0.000000
# 4 0.000000 0.000000 0.000000 0.030343 0.000000 0.000000
# 5 0.000000 0.000000 0.000000 0.000000 0.030343 0.000000
# 6 0.000000 0.000000 0.000000 0.000000 0.000000 0.033947
#
#
# Mechanical properties :
#
#
# Convention : Reuss Voigt Hill
#
# Bulk Modulus (GPa) = 57.39464 57.62164 57.50814
# Shear Modulus (GPa) = 33.54554 34.77428 34.15991
#
# Velocity S-wave (km/s) = 3.82938 3.89888 3.86429
# Velocity P-wave (km/s) = 6.68145 6.74219 6.71189
#
# Compressibility (1/GPa) = 0.01742323
#
# Stress axis : x y z
#
# Youngs Moduli (GPa) = 84.03086 84.03086 108.51001
#
# Poissons Ratio (x) = 0.42629 0.14777
# Poissons Ratio (y) = 0.42629 0.14777
# Poissons Ratio (z) = 0.11443 0.11443
#
# Static dielectric constant tensor:
#      x y z
#    x 1.895360 0.000000 0.000000 
#    y 0.000000 1.895360 0.000000 
#    z 0.000000 0.000000 1.945160 
# 
# From -- ./inp_files/8497.got.cif
#   From: 2010.05.17/outbox.cif.g08.bks.cpg/sg178_5_cif.got.tgz:8497.got - 2010.05.20 11:30:59.
