data_PCOD9582894
_publ_section_title
;
Structure prediction by ZEFSAII (Michael W. Deem and Ramdas Pophale) SiO2 
 PCOD9582894
Probable space group: P 61 2 2
;
_chemical_formula_sum "Si O2"
_cell_formula_units_Z 48
_cell_length_a 13.807976
_cell_length_b 13.807976
_cell_length_c 13.503374
_cell_angle_alpha 90.000000
_cell_angle_beta 90.000000
_cell_angle_gamma 120.000000
_cell_volume 2229.630903
_symmetry_space_group_name_H-M "P 61 2 2"
_symmetry_group_IT_number 178
_symmetry_cell_setting 'hexagonal'
loop_
_space_group_symop_operation_xyz
x,y,z
x-y,x,1/6+z
-y,x-y,1/3+z
-x,-y,1/2+z
-x+y,-x,2/3+z
y,-x+y,5/6+z
x-y,-y,-z
-x,-x+y,2/3-z
y,x,1/3-z
-y,-x,5/6-z
-x+y,y,1/2-z
x,x-y,1/6-z
loop_
_atom_site_type_symbol
_atom_site_label
_atom_site_fract_x
_atom_site_fract_y
_atom_site_fract_z
Si Si1 0.234293 0.379780 0.544425
Si Si2 0.330051 0.325678 0.988854
Si Si3 0.914450 0.828899 0.750000
Si Si4 0.158210 0.158210 0.666667
Si Si5 0.571096 0.180626 0.132400
O O1 0.290133 0.348598 0.453791
O O2 0.182764 0.274360 0.616857
O O3 0.331644 0.497556 0.584245
O O4 0.129401 0.393061 0.510487
O O5 0.249524 0.209196 0.042265
O O6 0.451905 0.385150 0.037811
O O7 0.902341 0.902341 0.666667
O O8 0.130491 0.065246 0.583334
O O9 0.602017 0.204034 0.250000
O O10 0.560260 0.280130 0.083334
#
# Coordination Sequence:
#
# PCOD9582894 Si02
#       5
#    12  12   6   6  12
#     4  11  24  45  69 101 143 188 233 301 354 421
#     4  11  22  45  69 101 137 183 243 293 345 423
#     4  12  24  42  72 106 136 178 234 286 346 410
#     4  12  26  50  72 104 152 190 246 290 374 448
#     4  10  24  45  71 104 140 184 242 295 355 425
#
# _framework density 21.528227999999999
#
# number of rings (size 3 to 8) (size 9 to 14) (size 15 to 20)
#    0.000    1.000    6.250    0.000    0.000    4.000 
#   20.250    0.000    0.000    0.000    0.000    0.000 
#    0.000    0.000    0.000    0.000    0.000    0.000 
#
# Total GULP energy -268607.188555 kJ/mol
# GULP energy per Si atom -5595.983095 kJ/mol
# Density = 2.147923 g / cm^3
# Si number density = 21.528228 Si / 1000 Ang^3
#
#
#
# Elastic Constant Matrix: (Units=GPa)
#
#
# Indices 1 2 3 4 5 6 
#
# 1 145.8669 68.1705 14.7043 0.0000 0.0000 0.0000
# 2 68.1705 145.8669 14.7043 0.0000 0.0000 0.0000
# 3 14.7043 14.7043 41.4981 0.0000 0.0000 0.0000
# 4 0.0000 0.0000 0.0000 25.2082 0.0000 0.0000
# 5 0.0000 0.0000 0.0000 0.0000 25.2082 0.0000
# 6 0.0000 0.0000 0.0000 0.0000 0.0000 38.8482
#
#
#
# Elastic Compliance Matrix: (Units=1/GPa)
#
#
# Indices 1 2 3 4 5 6 
#
# 1 0.008891 -0.003980 -0.001740 0.000000 0.000000 0.000000
# 2 -0.003980 0.008891 -0.001740 0.000000 0.000000 0.000000
# 3 -0.001740 -0.001740 0.025331 0.000000 0.000000 0.000000
# 4 0.000000 0.000000 0.000000 0.039670 0.000000 0.000000
# 5 0.000000 0.000000 0.000000 0.000000 0.039670 0.000000
# 6 0.000000 0.000000 0.000000 0.000000 0.000000 0.025741
#
#
# Mechanical properties :
#
#
# Convention : Reuss Voigt Hill
#
# Bulk Modulus (GPa) = 35.47076 58.71002 47.09039
# Shear Modulus (GPa) = 28.98373 33.56313 31.27343
#
# Velocity S-wave (km/s) = 3.67319 3.95274 3.81553
# Velocity P-wave (km/s) = 5.87384 6.93993 6.42902
#
# Compressibility (1/GPa) = 0.02819224
#
# Stress axis : x y z
#
# Youngs Moduli (GPa) = 112.47464 112.47464 39.47778
#
# Poissons Ratio (x) = 0.44762 0.06870
# Poissons Ratio (y) = 0.44762 0.06870
# Poissons Ratio (z) = 0.19573 0.19573
#
# Static dielectric constant tensor:
#      x y z
#    x 1.756160 0.000000 0.000000 
#    y 0.000000 1.756160 0.000000 
#    z 0.000000 0.000000 1.813430 
# 
# From -- ./inp_files/4212.got.cif
#   From: 2010.05.17/outbox.cif.g08.bks.cpg/sg178_3_cif.got.tgz:4212.got - 2010.05.20 11:30:59.
