data_PCOD9582602
_publ_section_title
;
Structure prediction by ZEFSAII (Michael W. Deem and Ramdas Pophale) SiO2 
 PCOD9582602
Probable space group: P 61 2 2
;
_chemical_formula_sum "Si O2"
_cell_formula_units_Z 54
_cell_length_a 12.599693
_cell_length_b 12.599693
_cell_length_c 21.248398
_cell_angle_alpha 90.000000
_cell_angle_beta 90.000000
_cell_angle_gamma 120.000000
_cell_volume 2921.303983
_symmetry_space_group_name_H-M "P 61 2 2"
_symmetry_group_IT_number 178
_symmetry_cell_setting 'hexagonal'
loop_
_space_group_symop_operation_xyz
x,y,z
x-y,x,1/6+z
-y,x-y,1/3+z
-x,-y,1/2+z
-x+y,-x,2/3+z
y,-x+y,5/6+z
x-y,-y,-z
-x,-x+y,2/3-z
y,x,1/3-z
-y,-x,5/6-z
-x+y,y,1/2-z
x,x-y,1/6-z
loop_
_atom_site_type_symbol
_atom_site_label
_atom_site_fract_x
_atom_site_fract_y
_atom_site_fract_z
Si Si1 0.743875 0.652969 0.307478
Si Si2 0.612282 0.224564 0.250000
Si Si3 0.852333 0.381815 0.441762
Si Si4 0.784990 0.603503 0.067748
Si Si5 0.386384 0.505896 0.035853
O O1 0.830564 0.661127 0.250000
O O2 0.687135 0.741061 0.300699
O O3 0.814934 0.675309 0.372009
O O4 0.628208 0.514694 0.311826
O O5 0.558336 0.155017 0.183974
O O6 0.757928 0.307606 0.242260
O O7 0.749538 0.250463 0.416667
O O8 0.823734 0.482313 0.411226
O O9 0.991425 0.416211 0.430319
O O10 0.859652 0.558110 0.024882
#
# Coordination Sequence:
#
# PCOD9582602 Si02
#       5
#    12   6  12  12  12
#     4  11  21  37  58  86 117 148 195 243 296 348
#     4  10  20  38  56  88 112 146 194 232 290 344
#     4  10  22  36  57  86 118 153 189 230 296 354
#     4  10  22  36  59  86 114 153 189 241 292 352
#     4  10  21  35  60  82 120 150 185 244 283 360
#
# _framework density 18.484895999999999
#
# number of rings (size 3 to 8) (size 9 to 14) (size 15 to 20)
#    0.000    1.778    1.111    4.000    9.333    0.889 
#    0.000    0.000    0.000    4.000    0.000    0.000 
#    0.000    0.000    0.000    0.000    0.000    0.000 
#
# Total GULP energy -301399.732809 kJ/mol
# GULP energy per Si atom -5581.476534 kJ/mol
# Density = 1.844282 g / cm^3
# Si number density = 18.484896 Si / 1000 Ang^3
#
#
#
# Elastic Constant Matrix: (Units=GPa)
#
#
# Indices 1 2 3 4 5 6 
#
# 1 73.4956 24.3014 10.6837 0.0000 0.0000 0.0000
# 2 24.3014 73.4956 10.6837 0.0000 0.0000 0.0000
# 3 10.6837 10.6837 43.8053 0.0000 0.0000 0.0000
# 4 0.0000 0.0000 0.0000 16.3086 0.0000 0.0000
# 5 0.0000 0.0000 0.0000 0.0000 16.3086 0.0000
# 6 0.0000 0.0000 0.0000 0.0000 0.0000 24.5971
#
#
#
# Elastic Compliance Matrix: (Units=1/GPa)
#
#
# Indices 1 2 3 4 5 6 
#
# 1 0.015564 -0.004763 -0.002634 0.000000 0.000000 0.000000
# 2 -0.004763 0.015564 -0.002634 0.000000 0.000000 0.000000
# 3 -0.002634 -0.002634 0.024113 0.000000 0.000000 0.000000
# 4 0.000000 0.000000 0.000000 0.061317 0.000000 0.000000
# 5 0.000000 0.000000 0.000000 0.000000 0.061317 0.000000
# 6 0.000000 0.000000 0.000000 0.000000 0.000000 0.040655
#
#
# Mechanical properties :
#
#
# Convention : Reuss Voigt Hill
#
# Bulk Modulus (GPa) = 28.42686 31.34821 29.88753
# Shear Modulus (GPa) = 19.97437 21.11806 20.54621
#
# Velocity S-wave (km/s) = 3.29078 3.38368 3.33755
# Velocity P-wave (km/s) = 5.46359 5.67991 5.57280
#
# Compressibility (1/GPa) = 0.03517800
#
# Stress axis : x y z
#
# Youngs Moduli (GPa) = 64.25000 64.25000 41.47101
#
# Poissons Ratio (x) = 0.30605 0.10924
# Poissons Ratio (y) = 0.30605 0.10924
# Poissons Ratio (z) = 0.16925 0.16925
#
# Static dielectric constant tensor:
#      x y z
#    x 1.639460 0.000000 0.000000 
#    y 0.000000 1.639460 0.000000 
#    z 0.000000 0.000000 1.691750 
# 
# From -- ./inp_files/7403.got.cif
#   From: 2010.05.17/outbox.cif.g08.bks.cpg/sg178_4_cif.got.tgz:7403.got - 2010.05.20 11:30:59.
