data_PCOD9582028
_publ_section_title
;
Structure prediction by ZEFSAII (Michael W. Deem and Ramdas Pophale) SiO2 
 PCOD9582028
Probable space group: P 63/M
;
_chemical_formula_sum "Si O2"
_cell_formula_units_Z 54
_cell_length_a 11.583728
_cell_length_b 11.583728
_cell_length_c 23.029016
_cell_angle_alpha 90.000000
_cell_angle_beta 90.000000
_cell_angle_gamma 120.000000
_cell_volume 2676.102327
_symmetry_space_group_name_H-M "P 63/M"
_symmetry_group_IT_number 176
_symmetry_cell_setting 'hexagonal'
loop_
_space_group_symop_operation_xyz
x,y,z
x-y,x,1/2+z
-y,x-y,z
-x,-y,1/2+z
-x+y,-x,z
y,-x+y,1/2+z
-x,-y,-z
-x+y,-x,1/2-z
y,-x+y,-z
x,y,1/2-z
x-y,x,-z
-y,x-y,1/2-z
loop_
_atom_site_type_symbol
_atom_site_label
_atom_site_fract_x
_atom_site_fract_y
_atom_site_fract_z
Si Si1 0.489794 0.817028 0.750000
Si Si2 0.095157 0.702410 0.545617
Si Si3 0.954422 0.586825 0.430648
Si Si4 0.713531 0.964645 0.186584
Si Si5 0.729403 0.965210 0.663802
O O1 0.339283 0.791274 0.750000
O O2 0.582969 0.894443 0.694723
O O3 0.047236 0.550896 0.562859
O O4 0.251304 0.804394 0.554613
O O5 0.034067 0.755016 0.594231
O O6 0.047626 0.692150 0.479666
O O7 0.002683 0.649814 0.367361
O O8 0.658645 0.966465 0.250000
O O9 0.709094 0.824879 0.181749
O O10 0.867473 0.083577 0.182754
#
# Coordination Sequence:
#
# PCOD9582028 Si02
#       5
#     6  12  12  12  12
#     4  10  24  36  60  98 132 158 208 260 318 376
#     4  10  22  38  59  87 116 165 208 265 316 373
#     4  10  22  39  60  87 123 161 215 264 318 387
#     4  11  21  37  58  90 120 163 202 251 320 369
#     4  11  22  38  62  90 127 165 207 263 311 384
#
# _framework density 20.178601
#
# number of rings (size 3 to 8) (size 9 to 14) (size 15 to 20)
#    0.222    1.333    2.222    2.222    6.222    0.000 
#    0.000    0.000    0.000    8.000    0.000    0.000 
#    0.000    0.000    0.000    0.000    0.000    0.000 
#
# Total GULP energy -301194.330919 kJ/mol
# GULP energy per Si atom -5577.672795 kJ/mol
# Density = 2.013267 g / cm^3
# Si number density = 20.178601 Si / 1000 Ang^3
#
#
#
# Elastic Constant Matrix: (Units=GPa)
#
#
# Indices 1 2 3 4 5 6 
#
# 1 38.8949 31.7751 30.2793 0.0000 0.0000 0.0000
# 2 31.7751 38.8949 30.2793 0.0000 0.0000 0.0000
# 3 30.2793 30.2793 170.1516 0.0000 0.0000 0.0000
# 4 0.0000 0.0000 0.0000 37.0778 0.0000 0.0000
# 5 0.0000 0.0000 0.0000 0.0000 37.0778 0.0000
# 6 0.0000 0.0000 0.0000 0.0000 0.0000 3.5599
#
#
#
# Elastic Compliance Matrix: (Units=1/GPa)
#
#
# Indices 1 2 3 4 5 6 
#
# 1 0.078575 -0.061879 -0.002971 0.000000 0.000000 0.000000
# 2 -0.061879 0.078575 -0.002971 0.000000 0.000000 0.000000
# 3 -0.002971 -0.002971 0.006935 0.000000 0.000000 0.000000
# 4 0.000000 0.000000 0.000000 0.026970 0.000000 0.000000
# 5 0.000000 0.000000 0.000000 0.000000 0.026970 0.000000
# 6 0.000000 0.000000 0.000000 0.000000 0.000000 0.280907
#
#
# Mechanical properties :
#
#
# Convention : Reuss Voigt Hill
#
# Bulk Modulus (GPa) = 35.15868 48.06766 41.61317
# Shear Modulus (GPa) = 7.76332 25.91693 16.84012
#
# Velocity S-wave (km/s) = 1.96358 3.58771 2.89200
# Velocity P-wave (km/s) = 4.75420 6.40586 5.64081
#
# Compressibility (1/GPa) = 0.02844248
#
# Stress axis : x y z
#
# Youngs Moduli (GPa) = 12.72671 12.72671 144.20465
#
# Poissons Ratio (x) = 0.78751 0.42846
# Poissons Ratio (y) = 0.78751 0.42846
# Poissons Ratio (z) = 0.03781 0.03781
#
# Static dielectric constant tensor:
#      x y z
#    x 1.718430 0.000000 0.000000 
#    y 0.000000 1.718430 0.000000 
#    z 0.000000 0.000000 1.773370 
# 
# From -- ./inp_files/4020.got.cif
#   From: 2010.05.17/outbox.cif.g08.bks.cpg/sg176_3_cif.got.tgz:4020.got - 2010.06.03 11:36:45.
