data_PCOD9582298
_publ_section_title
;
Structure prediction by ZEFSAII (Michael W. Deem and Ramdas Pophale) SiO2 
 PCOD9582298
Probable space group: P 6 2 2
;
_chemical_formula_sum "Si O2"
_cell_formula_units_Z 60
_cell_length_a 28.947442
_cell_length_b 28.947442
_cell_length_c 4.998102
_cell_angle_alpha 90.000000
_cell_angle_beta 90.000000
_cell_angle_gamma 120.000000
_cell_volume 3627.071622
_symmetry_space_group_name_H-M "P 6 2 2"
_symmetry_group_IT_number 177
_symmetry_cell_setting 'hexagonal'
loop_
_space_group_symop_operation_xyz
x,y,z
x-y,x,z
-y,x-y,z
-x,-y,z
-x+y,-x,z
y,-x+y,z
x-y,-y,-z
-x,-x+y,-z
y,x,-z
-y,-x,-z
-x+y,y,-z
x,x-y,-z
loop_
_atom_site_type_symbol
_atom_site_label
_atom_site_fract_x
_atom_site_fract_y
_atom_site_fract_z
Si Si1 0.651689 0.875153 0.104542
Si Si2 0.611220 0.123307 0.888359
Si Si3 0.448373 0.386821 0.412341
Si Si4 0.061526 0.339993 0.414789
Si Si5 0.268089 0.473169 0.232163
O O1 0.673247 0.903237 0.387001
O O2 0.588297 0.836758 0.154704
O O3 0.671825 0.835913 0.000000
O O4 0.662441 0.920447 0.885960
O O5 0.593406 0.089944 0.617617
O O6 0.668424 0.171680 0.798026
O O7 0.570102 0.140204 0.000000
O O8 0.612912 0.083573 0.115895
O O9 0.420966 0.420966 0.500000
O O10 0.401259 0.325684 0.459233
O O11 0.000000 0.303921 0.500000
O O12 0.236938 0.473875 0.500000
O O13 0.248202 0.496404 0.000000
#
# Coordination Sequence:
#
# PCOD9582298 Si02
#       5
#    12  12  12  12  12
#     4  11  20  33  54  78 102 132 179 219 253 296
#     4  12  24  38  55  78 104 129 171 207 247 314
#     4  11  22  37  53  74 109 144 170 197 243 310
#     4  11  20  34  52  75 109 142 170 209 266 314
#     4  11  21  36  56  75  98 123 157 209 264 304
#
# _framework density 16.542269000000001
#
# number of rings (size 3 to 8) (size 9 to 14) (size 15 to 20)
#    0.000    0.800    4.000    6.000    0.000    5.600 
#    0.000    0.000    0.000    0.400    0.000    2.800 
#    0.000    0.000    0.000    0.000    0.000    0.000 
#
# Total GULP energy -334467.183160 kJ/mol
# GULP energy per Si atom -5574.453053 kJ/mol
# Density = 1.650462 g / cm^3
# Si number density = 16.542269 Si / 1000 Ang^3
#
#
#
# Elastic Constant Matrix: (Units=GPa)
#
#
# Indices 1 2 3 4 5 6 
#
# 1 37.9218 25.3504 9.7561 0.0000 0.0000 0.0000
# 2 25.3504 37.9218 9.7561 0.0000 0.0000 0.0000
# 3 9.7561 9.7561 90.2632 0.0000 0.0000 0.0000
# 4 0.0000 0.0000 0.0000 35.9156 0.0000 0.0000
# 5 0.0000 0.0000 0.0000 0.0000 35.9156 0.0000
# 6 0.0000 0.0000 0.0000 0.0000 0.0000 6.2857
#
#
#
# Elastic Compliance Matrix: (Units=1/GPa)
#
#
# Indices 1 2 3 4 5 6 
#
# 1 0.047948 -0.031598 -0.001767 0.000000 0.000000 0.000000
# 2 -0.031598 0.047948 -0.001767 0.000000 0.000000 0.000000
# 3 -0.001767 -0.001767 0.011461 0.000000 0.000000 0.000000
# 4 0.000000 0.000000 0.000000 0.027843 0.000000 0.000000
# 5 0.000000 0.000000 0.000000 0.000000 0.027843 0.000000
# 6 0.000000 0.000000 0.000000 0.000000 0.000000 0.159091
#
#
# Mechanical properties :
#
#
# Convention : Reuss Voigt Hill
#
# Bulk Modulus (GPa) = 26.96034 28.42575 27.69304
# Shear Modulus (GPa) = 12.35295 23.70632 18.02964
#
# Velocity S-wave (km/s) = 2.73564 3.78970 3.30496
# Velocity P-wave (km/s) = 5.12948 6.03077 5.59829
#
# Compressibility (1/GPa) = 0.03709152
#
# Stress axis : x y z
#
# Youngs Moduli (GPa) = 20.85609 20.85609 87.25457
#
# Poissons Ratio (x) = 0.65901 0.15419
# Poissons Ratio (y) = 0.65901 0.15419
# Poissons Ratio (z) = 0.03686 0.03686
#
# Static dielectric constant tensor:
#      x y z
#    x 1.464250 0.000000 0.000000 
#    y 0.000000 1.464250 0.000000 
#    z 0.000000 0.000000 1.495460 
# 
# From -- ./inp_files/618.got.cif
#   From: 2010.05.17/outbox.cif.g08.bks.cpg/sg177_1_cif.got.tgz:618.got - 2010.05.20 11:28:44.
