data_PCOD9582472
_publ_section_title
;
Structure prediction by ZEFSAII (Michael W. Deem and Ramdas Pophale) SiO2 
 PCOD9582472
Probable space group: P 61 2 2
;
_chemical_formula_sum "Si O2"
_cell_formula_units_Z 84
_cell_length_a 20.083300
_cell_length_b 20.083300
_cell_length_c 11.086203
_cell_angle_alpha 90.000000
_cell_angle_beta 90.000000
_cell_angle_gamma 120.000000
_cell_volume 3872.430302
_symmetry_space_group_name_H-M "P 61 2 2"
_symmetry_group_IT_number 178
_symmetry_cell_setting 'hexagonal'
loop_
_space_group_symop_operation_xyz
x,y,z
x-y,x,1/6+z
-y,x-y,1/3+z
-x,-y,1/2+z
-x+y,-x,2/3+z
y,-x+y,5/6+z
x-y,-y,-z
-x,-x+y,2/3-z
y,x,1/3-z
-y,-x,5/6-z
-x+y,y,1/2-z
x,x-y,1/6-z
loop_
_atom_site_type_symbol
_atom_site_label
_atom_site_fract_x
_atom_site_fract_y
_atom_site_fract_z
Si Si1 0.415809 0.509396 0.535341
Si Si2 0.814746 0.128815 0.587668
Si Si3 0.000000 0.351266 0.333334
Si Si4 0.000000 0.791187 0.333334
Si Si5 0.503041 0.410402 0.531580
Si Si6 0.621139 0.699203 0.436295
Si Si7 0.083441 0.342119 0.667626
Si Si8 0.918050 0.062569 0.210336
O O1 0.438297 0.561704 0.416667
O O2 0.464096 0.464340 0.535149
O O3 0.420173 0.540883 0.669651
O O4 0.331014 0.441588 0.501443
O O5 0.729835 0.070515 0.541163
O O6 0.859043 0.214163 0.533595
O O7 0.799960 0.132780 0.730011
O O8 0.867801 0.090784 0.569899
O O9 0.039724 0.402906 0.214191
O O10 0.931868 0.709606 0.285058
O O11 0.975700 0.826850 0.442609
O O12 0.559906 0.440095 0.416667
O O13 0.430975 0.323688 0.519996
O O14 0.695570 0.699114 0.385741
O O15 0.902192 0.998299 0.308085
#
# Coordination Sequence:
#
# PCOD9582472 Si02
#       8
#    12  12   6   6  12  12  12  12
#     4   9  18  31  51  80 115 154 181 218 273 359
#     4  11  21  39  56  81 107 155 212 281 354 425
#     4  10  22  36  55  77 110 154 208 272 342 402
#     4  12  20  38  55  77 104 142 200 266 348 426
#     4   9  18  33  53  84 121 149 182 220 287 369
#     4  10  19  34  53  80 110 150 202 253 316 396
#     4  10  20  33  57  80 109 147 195 252 327 399
#     4  12  25  41  59  77 106 153 221 300 384 437
#
# _framework density 21.691804000000001
#
# number of rings (size 3 to 8) (size 9 to 14) (size 15 to 20)
#    0.000    1.714    2.857    3.429    0.000    4.571 
#    0.000    3.571    0.000    0.000    0.000    0.000 
#    0.000    4.571    0.000    0.143    0.000    0.143 
#
# Total GULP energy -468974.404145 kJ/mol
# GULP energy per Si atom -5583.028621 kJ/mol
# Density = 2.164243 g / cm^3
# Si number density = 21.691804 Si / 1000 Ang^3
#
#
#
# Elastic Constant Matrix: (Units=GPa)
#
#
# Indices 1 2 3 4 5 6 
#
# 1 55.3058 28.0845 37.7152 0.0000 0.0000 0.0000
# 2 28.0845 55.3058 37.7152 0.0000 0.0000 0.0000
# 3 37.7152 37.7152 150.6424 0.0000 0.0000 0.0000
# 4 0.0000 0.0000 0.0000 22.5472 0.0000 0.0000
# 5 0.0000 0.0000 0.0000 0.0000 22.5472 0.0000
# 6 0.0000 0.0000 0.0000 0.0000 0.0000 13.6106
#
#
#
# Elastic Compliance Matrix: (Units=1/GPa)
#
#
# Indices 1 2 3 4 5 6 
#
# 1 0.026119 -0.010617 -0.003881 0.000000 0.000000 0.000000
# 2 -0.010617 0.026119 -0.003881 0.000000 0.000000 0.000000
# 3 -0.003881 -0.003881 0.008582 0.000000 0.000000 0.000000
# 4 0.000000 0.000000 0.000000 0.044351 0.000000 0.000000
# 5 0.000000 0.000000 0.000000 0.000000 0.044351 0.000000
# 6 0.000000 0.000000 0.000000 0.000000 0.000000 0.073472
#
#
# Mechanical properties :
#
#
# Convention : Reuss Voigt Hill
#
# Bulk Modulus (GPa) = 41.55967 52.03154 46.79561
# Shear Modulus (GPa) = 18.67246 22.25695 20.46470
#
# Velocity S-wave (km/s) = 2.93713 3.20668 3.07486
# Velocity P-wave (km/s) = 5.54104 6.14404 5.85031
#
# Compressibility (1/GPa) = 0.02406179
#
# Stress axis : x y z
#
# Youngs Moduli (GPa) = 38.28588 38.28588 116.52726
#
# Poissons Ratio (x) = 0.40647 0.45227
# Poissons Ratio (y) = 0.40647 0.45227
# Poissons Ratio (z) = 0.14860 0.14860
#
# Static dielectric constant tensor:
#      x y z
#    x 1.791970 0.000000 0.000000 
#    y 0.000000 1.791970 0.000000 
#    z 0.000000 0.000000 1.970000 
# 
# From -- ./inp_files/4822.got.cif
#   From: 2010.05.17/outbox.cif.g08.bks.cpg/sg178_3_cif.got.tgz:4822.got - 2010.05.20 11:30:59.
