data_PCOD9582164
_publ_section_title
;
Structure prediction by ZEFSAII (Michael W. Deem and Ramdas Pophale) SiO2 
 PCOD9582164
Probable space group: P 6 2 2
;
_chemical_formula_sum "Si O2"
_cell_formula_units_Z 84
_cell_length_a 13.710549
_cell_length_b 13.710549
_cell_length_c 28.903386
_cell_angle_alpha 90.000000
_cell_angle_beta 90.000000
_cell_angle_gamma 120.000000
_cell_volume 4705.318707
_symmetry_space_group_name_H-M "P 6 2 2"
_symmetry_group_IT_number 177
_symmetry_cell_setting 'hexagonal'
loop_
_space_group_symop_operation_xyz
x,y,z
x-y,x,z
-y,x-y,z
-x,-y,z
-x+y,-x,z
y,-x+y,z
x-y,-y,-z
-x,-x+y,-z
y,x,-z
-y,-x,-z
-x+y,y,-z
x,x-y,-z
loop_
_atom_site_type_symbol
_atom_site_label
_atom_site_fract_x
_atom_site_fract_y
_atom_site_fract_z
Si Si1 0.101090 0.474255 0.624976
Si Si2 0.448199 0.867241 0.715889
Si Si3 0.049136 0.252701 0.680550
Si Si4 0.669167 0.127574 0.519142
Si Si5 0.728292 0.867110 0.848025
Si Si6 0.269122 0.133574 0.950349
Si Si7 0.586505 0.817608 0.241291
O O1 0.173870 0.562889 0.665632
O O2 0.062673 0.352338 0.646999
O O3 0.144785 0.472573 0.574249
O O4 0.000000 0.500000 0.616101
O O5 0.353721 0.828854 0.755498
O O6 0.544455 0.839986 0.728706
O O7 0.500000 0.000000 0.712793
O O8 0.145269 0.218836 0.674413
O O9 0.078855 0.311853 0.731195
O O10 0.792511 0.207490 0.500000
O O11 0.581761 0.163522 0.500000
O O12 0.619188 0.000000 0.500000
O O13 0.804178 0.806818 0.843444
O O14 0.674922 0.839736 0.899781
O O15 0.633751 0.819157 0.808519
O O16 0.191438 0.190499 0.950490
O O17 0.332541 0.166271 0.000000
#
# Coordination Sequence:
#
# PCOD9582164 Si02
#       7
#    12  12  12  12  12  12  12
#     4  10  21  40  61  83 113 148 190 226 274 320
#     4  10  21  36  55  76 106 137 180 227 267 333
#     4  11  23  37  59  87 121 155 186 223 273 346
#     4  11  24  42  65  93 121 147 186 238 290 341
#     4  10  18  28  46  73 111 149 185 224 278 347
#     4   8  13  21  35  60  96 141 186 226 268 327
#     4  11  21  36  54  79 105 143 187 233 290 332
#
# _framework density 17.852139000000001
#
# number of rings (size 3 to 8) (size 9 to 14) (size 15 to 20)
#    0.000    1.857    1.429    5.143    2.000    4.000 
#    0.000    1.429    0.000    0.714    0.000    1.000 
#    0.000    5.714    0.000    0.000    0.000    0.000 
#
# Total GULP energy -467904.895457 kJ/mol
# GULP energy per Si atom -5570.296374 kJ/mol
# Density = 1.781151 g / cm^3
# Si number density = 17.852139 Si / 1000 Ang^3
#
#
#
# Elastic Constant Matrix: (Units=GPa)
#
#
# Indices 1 2 3 4 5 6 
#
# 1 71.6906 32.1662 33.5313 0.0000 0.0000 0.0000
# 2 32.1662 71.6906 33.5313 0.0000 0.0000 0.0000
# 3 33.5313 33.5313 163.1633 0.0000 0.0000 0.0000
# 4 0.0000 0.0000 0.0000 52.8175 0.0000 0.0000
# 5 0.0000 0.0000 0.0000 0.0000 52.8175 0.0000
# 6 0.0000 0.0000 0.0000 0.0000 0.0000 19.7622
#
#
#
# Elastic Compliance Matrix: (Units=1/GPa)
#
#
# Indices 1 2 3 4 5 6 
#
# 1 0.018201 -0.007099 -0.002282 0.000000 0.000000 0.000000
# 2 -0.007099 0.018201 -0.002282 0.000000 0.000000 0.000000
# 3 -0.002282 -0.002282 0.007067 0.000000 0.000000 0.000000
# 4 0.000000 0.000000 0.000000 0.018933 0.000000 0.000000
# 5 0.000000 0.000000 0.000000 0.000000 0.018933 0.000000
# 6 0.000000 0.000000 0.000000 0.000000 0.000000 0.050602
#
#
# Mechanical properties :
#
#
# Convention : Reuss Voigt Hill
#
# Bulk Modulus (GPa) = 49.64203 56.11138 52.87670
# Shear Modulus (GPa) = 30.86860 38.90050 34.88455
#
# Velocity S-wave (km/s) = 4.16279 4.67308 4.42530
# Velocity P-wave (km/s) = 7.13952 7.78565 7.46957
#
# Compressibility (1/GPa) = 0.02014422
#
# Stress axis : x y z
#
# Youngs Moduli (GPa) = 54.94099 54.94099 141.51140
#
# Poissons Ratio (x) = 0.39005 0.32286
# Poissons Ratio (y) = 0.39005 0.32286
# Poissons Ratio (z) = 0.12535 0.12535
#
# Static dielectric constant tensor:
#      x y z
#    x 1.623670 0.000000 0.000000 
#    y 0.000000 1.623670 0.000000 
#    z 0.000000 0.000000 1.668250 
# 
# From -- ./inp_files/3257.got.cif
#   From: 2010.05.17/outbox.cif.g08.bks.cpg/sg177_2_cif.got.tgz:3257.got - 2010.05.20 11:28:44.
