data_PCOD9582341
_publ_section_title
;
Structure prediction by ZEFSAII (Michael W. Deem and Ramdas Pophale) SiO2 
 PCOD9582341
Probable space group: P 61 2 2
;
_chemical_formula_sum "Si O2"
_cell_formula_units_Z 60
_cell_length_a 10.500795
_cell_length_b 10.500795
_cell_length_c 30.531482
_cell_angle_alpha 90.000000
_cell_angle_beta 90.000000
_cell_angle_gamma 120.000000
_cell_volume 2915.566003
_symmetry_space_group_name_H-M "P 61 2 2"
_symmetry_group_IT_number 178
_symmetry_cell_setting 'hexagonal'
loop_
_space_group_symop_operation_xyz
x,y,z
x-y,x,1/6+z
-y,x-y,1/3+z
-x,-y,1/2+z
-x+y,-x,2/3+z
y,-x+y,5/6+z
x-y,-y,-z
-x,-x+y,2/3-z
y,x,1/3-z
-y,-x,5/6-z
-x+y,y,1/2-z
x,x-y,1/6-z
loop_
_atom_site_type_symbol
_atom_site_label
_atom_site_fract_x
_atom_site_fract_y
_atom_site_fract_z
Si Si1 0.776427 0.997528 0.203635
Si Si2 0.371037 0.685519 0.583334
Si Si3 0.006556 0.571671 0.240683
Si Si4 0.430367 0.894085 0.316748
Si Si5 0.324111 0.000000 0.500000
Si Si6 0.089394 0.273041 0.539012
O O1 0.627597 0.008331 0.200837
O O2 0.709931 0.835021 0.183071
O O3 0.821186 0.004406 0.253658
O O4 0.905984 0.107097 0.172709
O O5 0.460518 0.602008 0.574911
O O6 0.260636 0.600265 0.624156
O O7 0.086264 0.741906 0.223783
O O8 0.892458 0.477884 0.202711
O O9 0.954978 0.573286 0.290252
O O10 0.596290 0.942392 0.304307
#
# Coordination Sequence:
#
# PCOD9582341 Si02
#       6
#    12   6  12  12   6  12
#     4  10  18  31  53  77 108 140 170 223 277 312
#     4  10  16  36  48  74 108 138 168 214 266 322
#     4   9  19  29  53  70 105 143 161 218 270 307
#     4  10  16  32  50  72 100 140 174 209 261 325
#     4  10  18  34  50  82 108 136 170 230 276 320
#     4   9  18  31  51  74 105 139 174 215 260 321
#
# _framework density 20.579194000000001
#
# number of rings (size 3 to 8) (size 9 to 14) (size 15 to 20)
#    0.000    2.400    6.000    0.000    0.000    7.200 
#    0.000    2.000    8.800    2.400    0.000    0.000 
#    0.000    0.000    0.000    0.000    0.000    0.000 
#
# Total GULP energy -334218.961788 kJ/mol
# GULP energy per Si atom -5570.316030 kJ/mol
# Density = 2.053235 g / cm^3
# Si number density = 20.579194 Si / 1000 Ang^3
#
#
#
# Elastic Constant Matrix: (Units=GPa)
#
#
# Indices 1 2 3 4 5 6 
#
# 1 28.2698 14.3200 40.1304 0.0000 0.0000 0.0000
# 2 14.3200 28.2698 40.1304 0.0000 0.0000 0.0000
# 3 40.1304 40.1304 193.9607 0.0000 0.0000 0.0000
# 4 0.0000 0.0000 0.0000 27.5433 0.0000 0.0000
# 5 0.0000 0.0000 0.0000 0.0000 27.5433 0.0000
# 6 0.0000 0.0000 0.0000 0.0000 0.0000 6.9749
#
#
#
# Elastic Compliance Matrix: (Units=1/GPa)
#
#
# Indices 1 2 3 4 5 6 
#
# 1 0.055086 -0.016600 -0.007963 0.000000 0.000000 0.000000
# 2 -0.016600 0.055086 -0.007963 0.000000 0.000000 0.000000
# 3 -0.007963 -0.007963 0.008451 0.000000 0.000000 0.000000
# 4 0.000000 0.000000 0.000000 0.036306 0.000000 0.000000
# 5 0.000000 0.000000 0.000000 0.000000 0.036306 0.000000
# 6 0.000000 0.000000 0.000000 0.000000 0.000000 0.143372
#
#
# Mechanical properties :
#
#
# Convention : Reuss Voigt Hill
#
# Bulk Modulus (GPa) = 18.66683 48.85130 33.75906
# Shear Modulus (GPa) = 11.97564 22.80692 17.39128
#
# Velocity S-wave (km/s) = 2.41494 3.33265 2.91020
# Velocity P-wave (km/s) = 4.10686 6.21277 5.26616
#
# Compressibility (1/GPa) = 0.05357097
#
# Stress axis : x y z
#
# Youngs Moduli (GPa) = 18.15357 18.15357 118.33476
#
# Poissons Ratio (x) = 0.30135 0.94225
# Poissons Ratio (y) = 0.30135 0.94225
# Poissons Ratio (z) = 0.14455 0.14455
#
# Static dielectric constant tensor:
#      x y z
#    x 1.785680 0.000000 0.000000 
#    y 0.000000 1.785680 0.000000 
#    z 0.000000 0.000000 1.802350 
# 
# From -- ./inp_files/9472.got.cif
#   From: 2010.05.17/outbox.cif.g08.bks.cpg/sg178_5_cif.got.tgz:9472.got - 2010.05.20 11:30:59.
