data_PCOD9582293
_publ_section_title
;
Structure prediction by ZEFSAII (Michael W. Deem and Ramdas Pophale) SiO2 
 PCOD9582293
Probable space group: P 6 2 2
;
_chemical_formula_sum "Si O2"
_cell_formula_units_Z 58
_cell_length_a 13.995057
_cell_length_b 13.995057
_cell_length_c 15.006417
_cell_angle_alpha 90.000000
_cell_angle_beta 90.000000
_cell_angle_gamma 120.000000
_cell_volume 2545.405543
_symmetry_space_group_name_H-M "P 6 2 2"
_symmetry_group_IT_number 177
_symmetry_cell_setting 'hexagonal'
loop_
_space_group_symop_operation_xyz
x,y,z
x-y,x,z
-y,x-y,z
-x,-y,z
-x+y,-x,z
y,-x+y,z
x-y,-y,-z
-x,-x+y,-z
y,x,-z
-y,-x,-z
-x+y,y,-z
x,x-y,-z
loop_
_atom_site_type_symbol
_atom_site_label
_atom_site_fract_x
_atom_site_fract_y
_atom_site_fract_z
Si Si1 0.883505 0.390616 0.134926
Si Si2 0.175145 0.918739 0.177263
Si Si3 0.549892 0.780297 0.705239
Si Si4 0.870461 0.415112 0.398619
Si Si5 0.333334 0.666667 0.103684
Si Si6 0.383886 0.191943 0.000000
O O1 0.845657 0.308302 0.217991
O O2 0.787403 0.422558 0.134241
O O3 0.858927 0.311534 0.048983
O O4 0.000000 0.500000 0.137437
O O5 0.234812 0.888749 0.255647
O O6 0.205076 0.891608 0.079401
O O7 0.044491 0.837579 0.184085
O O8 0.550748 0.709283 0.621542
O O9 0.456547 0.808901 0.670913
O O10 0.837556 0.418778 0.500000
O O11 0.000000 0.500000 0.388817
O O12 0.333334 0.666667 0.000000
#
# Coordination Sequence:
#
# PCOD9582293 Si02
#       6
#    12  12  12  12   4   6
#     4  11  25  45  68  93 138 185 229 287 340 405
#     4  11  24  43  67  95 133 181 237 293 339 388
#     4  11  23  43  67  99 137 177 228 276 340 411
#     4  11  23  41  69 105 144 184 225 278 347 421
#     4  12  24  42  57  96 127 176 235 276 336 393
#     4  10  24  44  65  96 133 184 238 286 346 396
#
# _framework density 22.786154
#
# number of rings (size 3 to 8) (size 9 to 14) (size 15 to 20)
#    0.000    1.034    1.034    4.966    0.000   10.345 
#    0.000    5.172    0.000    0.000    0.000    0.000 
#    0.000    9.931    0.000    0.000    0.000    0.000 
#
# Total GULP energy -324057.006819 kJ/mol
# GULP energy per Si atom -5587.189773 kJ/mol
# Density = 2.273429 g / cm^3
# Si number density = 22.786154 Si / 1000 Ang^3
#
#
#
# Elastic Constant Matrix: (Units=GPa)
#
#
# Indices 1 2 3 4 5 6 
#
# 1 131.9811 45.9689 44.1471 0.0000 -0.0001 -0.0001
# 2 45.9689 131.9809 44.1470 0.0001 0.0000 0.0000
# 3 44.1471 44.1470 148.5339 0.0000 0.0000 0.0000
# 4 0.0000 0.0001 0.0000 29.1905 0.0000 0.0000
# 5 -0.0001 0.0000 0.0000 0.0000 29.1906 0.0000
# 6 -0.0001 0.0000 0.0000 0.0000 0.0000 43.0062
#
#
#
# Elastic Compliance Matrix: (Units=1/GPa)
#
#
# Indices 1 2 3 4 5 6 
#
# 1 0.009109 -0.002517 -0.001959 0.000000 0.000000 0.000000
# 2 -0.002517 0.009109 -0.001959 0.000000 0.000000 0.000000
# 3 -0.001959 -0.001959 0.007897 0.000000 0.000000 0.000000
# 4 0.000000 0.000000 0.000000 0.034258 0.000000 0.000000
# 5 0.000000 0.000000 0.000000 0.000000 0.034258 0.000000
# 6 0.000000 0.000000 0.000000 0.000000 0.000000 0.023252
#
#
# Mechanical properties :
#
#
# Convention : Reuss Voigt Hill
#
# Bulk Modulus (GPa) = 75.50751 75.66910 75.58830
# Shear Modulus (GPa) = 36.99084 38.82632 37.90858
#
# Velocity S-wave (km/s) = 4.03350 4.13236 4.08323
# Velocity P-wave (km/s) = 7.40956 7.48659 7.44818
#
# Compressibility (1/GPa) = 0.01324372
#
# Stress axis : x y z
#
# Youngs Moduli (GPa) = 109.78218 109.78198 126.62927
#
# Poissons Ratio (x) = 0.27636 0.24809
# Poissons Ratio (y) = 0.27636 0.24809
# Poissons Ratio (z) = 0.21508 0.21508
#
# Static dielectric constant tensor:
#      x y z
#    x 1.917690 0.000000 0.000000 
#    y 0.000000 1.917690 0.000000 
#    z 0.000000 0.000000 1.899900 
# 
# From -- ./inp_files/2471.got.cif
#   From: 2010.05.17/outbox.cif.g08.bks.cpg/sg177_2_cif.got.tgz:2471.got - 2010.05.20 11:28:44.
