data_PCOD9582817
_publ_section_title
;
Structure prediction by ZEFSAII (Michael W. Deem and Ramdas Pophale) SiO2 
 PCOD9582817
Probable space group: P 61 2 2
;
_chemical_formula_sum "Si O2"
_cell_formula_units_Z 54
_cell_length_a 15.030073
_cell_length_b 15.030073
_cell_length_c 13.620026
_cell_angle_alpha 90.000000
_cell_angle_beta 90.000000
_cell_angle_gamma 120.000000
_cell_volume 2664.592175
_symmetry_space_group_name_H-M "P 61 2 2"
_symmetry_group_IT_number 178
_symmetry_cell_setting 'hexagonal'
loop_
_space_group_symop_operation_xyz
x,y,z
x-y,x,1/6+z
-y,x-y,1/3+z
-x,-y,1/2+z
-x+y,-x,2/3+z
y,-x+y,5/6+z
x-y,-y,-z
-x,-x+y,2/3-z
y,x,1/3-z
-y,-x,5/6-z
-x+y,y,1/2-z
x,x-y,1/6-z
loop_
_atom_site_type_symbol
_atom_site_label
_atom_site_fract_x
_atom_site_fract_y
_atom_site_fract_z
Si Si1 0.117963 0.964902 0.210748
Si Si2 0.950949 0.476902 0.696812
Si Si3 0.320337 0.058694 0.097642
Si Si4 0.333947 0.862737 0.447857
Si Si5 0.241782 0.241782 0.666667
O O1 0.068263 0.856795 0.267065
O O2 0.048780 0.934413 0.113530
O O3 0.236815 0.009226 0.183612
O O4 0.917640 0.458820 0.583334
O O5 0.951635 0.580375 0.724198
O O6 0.882012 0.386743 0.776225
O O7 0.067185 0.497738 0.710723
O O8 0.352297 0.176149 0.083334
O O9 0.262293 0.000000 0.000000
O O10 0.254474 0.745527 0.416667
O O11 0.270348 0.923174 0.445614
#
# Coordination Sequence:
#
# PCOD9582817 Si02
#       5
#    12  12  12  12   6
#     4  12  26  40  64  97 139 182 227 274 332 416
#     4  10  24  46  71 102 141 185 242 306 363 442
#     4  12  25  45  68  97 137 185 232 290 365 431
#     4  10  22  44  75 101 142 187 240 301 372 432
#     4  10  24  40  64 106 138 180 234 278 346 416
#
# _framework density 20.265765999999999
#
# number of rings (size 3 to 8) (size 9 to 14) (size 15 to 20)
#    0.000    1.333    4.444    2.000    9.333    3.556 
#    0.000    2.222    0.000    0.000    0.000    0.000 
#    0.000    0.000    0.000    0.000    0.000    0.000 
#
# Total GULP energy -301481.652902 kJ/mol
# GULP energy per Si atom -5582.993572 kJ/mol
# Density = 2.021964 g / cm^3
# Si number density = 20.265766 Si / 1000 Ang^3
#
#
#
# Elastic Constant Matrix: (Units=GPa)
#
#
# Indices 1 2 3 4 5 6 
#
# 1 129.4488 92.0397 42.7115 0.0000 0.0000 0.0000
# 2 92.0397 129.4488 42.7115 0.0000 0.0000 0.0000
# 3 42.7115 42.7115 90.7464 0.0000 0.0000 0.0000
# 4 0.0000 0.0000 0.0000 28.3269 0.0000 0.0000
# 5 0.0000 0.0000 0.0000 0.0000 28.3269 0.0000
# 6 0.0000 0.0000 0.0000 0.0000 0.0000 18.7045
#
#
#
# Elastic Compliance Matrix: (Units=1/GPa)
#
#
# Indices 1 2 3 4 5 6 
#
# 1 0.016124 -0.010608 -0.002596 0.000000 0.000000 0.000000
# 2 -0.010608 0.016124 -0.002596 0.000000 0.000000 0.000000
# 3 -0.002596 -0.002596 0.013464 0.000000 0.000000 0.000000
# 4 0.000000 0.000000 0.000000 0.035302 0.000000 0.000000
# 5 0.000000 0.000000 0.000000 0.000000 0.035302 0.000000
# 6 0.000000 0.000000 0.000000 0.000000 0.000000 0.053463
#
#
# Mechanical properties :
#
#
# Convention : Reuss Voigt Hill
#
# Bulk Modulus (GPa) = 70.86704 78.28549 74.57626
# Shear Modulus (GPa) = 24.26209 26.55043 25.40626
#
# Velocity S-wave (km/s) = 3.46381 3.62347 3.54454
# Velocity P-wave (km/s) = 7.14437 7.49796 7.32330
#
# Compressibility (1/GPa) = 0.01411093
#
# Stress axis : x y z
#
# Youngs Moduli (GPa) = 62.01984 62.01984 74.27357
#
# Poissons Ratio (x) = 0.65788 0.19284
# Poissons Ratio (y) = 0.65788 0.19284
# Poissons Ratio (z) = 0.16102 0.16102
#
# Static dielectric constant tensor:
#      x y z
#    x 1.705350 0.000000 0.000000 
#    y 0.000000 1.705350 0.000000 
#    z 0.000000 0.000000 1.820190 
# 
# From -- ./inp_files/5554.got.cif
#   From: 2010.05.17/outbox.cif.g08.bks.cpg/sg178_3_cif.got.tgz:5554.got - 2010.05.20 11:30:59.
