data_PCOD9582083
_publ_section_title
;
Structure prediction by ZEFSAII (Michael W. Deem and Ramdas Pophale) SiO2 
 PCOD9582083
Probable space group: P 63/M
;
_chemical_formula_sum "Si O2"
_cell_formula_units_Z 28
_cell_length_a 9.339201
_cell_length_b 9.339201
_cell_length_c 12.758666
_cell_angle_alpha 90.000000
_cell_angle_beta 90.000000
_cell_angle_gamma 120.000000
_cell_volume 963.729926
_symmetry_space_group_name_H-M "P 63/M"
_symmetry_group_IT_number 176
_symmetry_cell_setting 'hexagonal'
loop_
_space_group_symop_operation_xyz
x,y,z
x-y,x,1/2+z
-y,x-y,z
-x,-y,1/2+z
-x+y,-x,z
y,-x+y,1/2+z
-x,-y,-z
-x+y,-x,1/2-z
y,-x+y,-z
x,y,1/2-z
x-y,x,-z
-y,x-y,1/2-z
loop_
_atom_site_type_symbol
_atom_site_label
_atom_site_fract_x
_atom_site_fract_y
_atom_site_fract_z
Si Si1 0.000000 0.000000 0.873609
Si Si2 0.490387 0.150055 0.589829
Si Si3 0.632993 0.831525 0.869628
O O1 0.146330 0.179569 0.900918
O O2 0.000000 0.000000 0.750000
O O3 0.671997 0.182769 0.622142
O O4 0.475009 0.157940 0.463403
O O5 0.337314 0.982061 0.629000
O O6 0.588849 0.848977 0.750000
#
# Coordination Sequence:
#
# PCOD9582083 Si02
#       3
#     4  12  12
#     4   9  21  37  62  91 115 152 214 265 305 367
#     4  10  24  40  62  92 130 166 210 274 320 380
#     4  11  22  41  66  91 124 172 217 266 329 384
#
# _framework density 29.053782999999999
#
# number of rings (size 3 to 8) (size 9 to 14) (size 15 to 20)
#    0.857    0.857    0.000    3.857    0.000    5.143 
#    0.000    4.286    0.000    0.000    0.000    0.000 
#    0.000    0.000    0.000    0.000    0.000    0.000 
#
# Total GULP energy -156845.565918 kJ/mol
# GULP energy per Si atom -5601.627354 kJ/mol
# Density = 2.898766 g / cm^3
# Si number density = 29.053783 Si / 1000 Ang^3
#
#
#
# Elastic Constant Matrix: (Units=GPa)
#
#
# Indices 1 2 3 4 5 6 
#
# 1 121.4462 33.9265 16.6028 0.0000 0.0000 0.0000
# 2 33.9265 121.4462 16.6028 0.0000 0.0000 0.0000
# 3 16.6028 16.6028 237.0201 0.0000 0.0000 0.0000
# 4 0.0000 0.0000 0.0000 17.5039 0.0000 0.0000
# 5 0.0000 0.0000 0.0000 0.0000 17.5039 0.0000
# 6 0.0000 0.0000 0.0000 0.0000 0.0000 43.7598
#
#
#
# Elastic Compliance Matrix: (Units=1/GPa)
#
#
# Indices 1 2 3 4 5 6 
#
# 1 0.008980 -0.002446 -0.000458 0.000000 0.000000 0.000000
# 2 -0.002446 0.008980 -0.000458 0.000000 0.000000 0.000000
# 3 -0.000458 -0.000458 0.004283 0.000000 0.000000 0.000000
# 4 0.000000 0.000000 0.000000 0.057130 0.000000 0.000000
# 5 0.000000 0.000000 0.000000 0.000000 0.057130 0.000000
# 6 0.000000 0.000000 0.000000 0.000000 0.000000 0.022852
#
#
# Mechanical properties :
#
#
# Convention : Reuss Voigt Hill
#
# Bulk Modulus (GPa) = 64.43168 68.24186 66.33677
# Shear Modulus (GPa) = 29.19677 43.27220 36.23449
#
# Velocity S-wave (km/s) = 3.17349 3.86344 3.53534
# Velocity P-wave (km/s) = 5.97100 6.59095 6.28862
#
# Compressibility (1/GPa) = 0.01552031
#
# Stress axis : x y z
#
# Youngs Moduli (GPa) = 111.35882 111.35882 233.47182
#
# Poissons Ratio (x) = 0.27239 0.10686
# Poissons Ratio (y) = 0.27239 0.10686
# Poissons Ratio (z) = 0.05097 0.05097
#
# Static dielectric constant tensor:
#      x y z
#    x 2.289340 0.000000 0.000000 
#    y 0.000000 2.289340 0.000000 
#    z 0.000000 0.000000 2.152550 
# 
# From -- ./inp_files/2261.got.cif
#   From: 2010.05.17/outbox.cif.g08.bks.cpg/sg176_2_cif.got.tgz:2261.got - 2010.06.03 11:36:45.
