data_PCOD9582767
_publ_section_title
;
Structure prediction by ZEFSAII (Michael W. Deem and Ramdas Pophale) SiO2 
 PCOD9582767
Probable space group: P 61 2 2
;
_chemical_formula_sum "Si O2"
_cell_formula_units_Z 54
_cell_length_a 11.609847
_cell_length_b 11.609847
_cell_length_c 21.784495
_cell_angle_alpha 90.000000
_cell_angle_beta 90.000000
_cell_angle_gamma 120.000000
_cell_volume 2542.910771
_symmetry_space_group_name_H-M "P 61 2 2"
_symmetry_group_IT_number 178
_symmetry_cell_setting 'hexagonal'
loop_
_space_group_symop_operation_xyz
x,y,z
x-y,x,1/6+z
-y,x-y,1/3+z
-x,-y,1/2+z
-x+y,-x,2/3+z
y,-x+y,5/6+z
x-y,-y,-z
-x,-x+y,2/3-z
y,x,1/3-z
-y,-x,5/6-z
-x+y,y,1/2-z
x,x-y,1/6-z
loop_
_atom_site_type_symbol
_atom_site_label
_atom_site_fract_x
_atom_site_fract_y
_atom_site_fract_z
Si Si1 0.125068 0.824935 0.547491
Si Si2 0.903601 0.096400 0.916667
Si Si3 0.830499 0.219705 0.605196
Si Si4 0.204523 0.652371 0.215603
Si Si5 0.726763 0.642786 0.800919
O O1 0.146740 0.863174 0.476421
O O2 0.249605 0.829624 0.580272
O O3 0.989005 0.686746 0.549309
O O4 0.104145 0.937729 0.580805
O O5 0.770909 0.294040 0.645519
O O6 0.833650 0.220960 0.531377
O O7 0.757959 0.069635 0.632032
O O8 0.330190 0.660380 0.250000
O O9 0.093153 0.497628 0.215285
O O10 0.837146 0.674291 0.750000
#
# Coordination Sequence:
#
# PCOD9582767 Si02
#       5
#    12   6  12  12  12
#     4  11  22  43  68 104 134 185 232 299 362 440
#     4  10  22  40  66 102 136 166 234 296 366 416
#     4  12  23  45  76  98 142 192 244 300 368 443
#     4  11  26  46  67 103 141 183 243 282 363 446
#     4  11  26  46  67 107 141 188 242 307 367 436
#
# _framework density 21.235507999999999
#
# number of rings (size 3 to 8) (size 9 to 14) (size 15 to 20)
#    0.000    0.889    4.444    1.333    4.667    0.000 
#   24.000    0.000    0.000    0.000    0.000    0.000 
#    0.000    0.000    0.000    0.000    0.000    0.000 
#
# Total GULP energy -301379.540234 kJ/mol
# GULP energy per Si atom -5581.102597 kJ/mol
# Density = 2.118717 g / cm^3
# Si number density = 21.235508 Si / 1000 Ang^3
#
#
#
# Elastic Constant Matrix: (Units=GPa)
#
#
# Indices 1 2 3 4 5 6 
#
# 1 52.5558 6.4188 14.3575 0.0000 0.0000 0.0000
# 2 6.4188 52.5558 14.3575 0.0000 0.0000 0.0000
# 3 14.3575 14.3575 129.9285 0.0000 0.0000 0.0000
# 4 0.0000 0.0000 0.0000 32.5060 0.0000 0.0000
# 5 0.0000 0.0000 0.0000 0.0000 32.5060 0.0000
# 6 0.0000 0.0000 0.0000 0.0000 0.0000 23.0685
#
#
#
# Elastic Compliance Matrix: (Units=1/GPa)
#
#
# Indices 1 2 3 4 5 6 
#
# 1 0.019798 -0.001877 -0.001980 0.000000 0.000000 0.000000
# 2 -0.001877 0.019798 -0.001980 0.000000 0.000000 0.000000
# 3 -0.001980 -0.001980 0.008134 0.000000 0.000000 0.000000
# 4 0.000000 0.000000 0.000000 0.030764 0.000000 0.000000
# 5 0.000000 0.000000 0.000000 0.000000 0.030764 0.000000
# 6 0.000000 0.000000 0.000000 0.000000 0.000000 0.043349
#
#
# Mechanical properties :
#
#
# Convention : Reuss Voigt Hill
#
# Bulk Modulus (GPa) = 27.73590 33.92308 30.82949
# Shear Modulus (GPa) = 28.36094 30.94319 29.65206
#
# Velocity S-wave (km/s) = 3.65847 3.82140 3.74082
# Velocity P-wave (km/s) = 5.56196 5.95652 5.76262
#
# Compressibility (1/GPa) = 0.03605436
#
# Stress axis : x y z
#
# Youngs Moduli (GPa) = 50.51117 50.51117 122.93783
#
# Poissons Ratio (x) = 0.09481 0.24345
# Poissons Ratio (y) = 0.09481 0.24345
# Poissons Ratio (z) = 0.10003 0.10003
#
# Static dielectric constant tensor:
#      x y z
#    x 1.763570 0.000000 0.000000 
#    y 0.000000 1.763570 0.000000 
#    z 0.000000 0.000000 1.839940 
# 
# From -- ./inp_files/7409.got.cif
#   From: 2010.05.17/outbox.cif.g08.bks.cpg/sg178_4_cif.got.tgz:7409.got - 2010.05.20 11:30:59.
