data_PCOD9582133
_publ_section_title
;
Structure prediction by ZEFSAII (Michael W. Deem and Ramdas Pophale) SiO2 
 PCOD9582133
Probable space group: P 63/M
;
_chemical_formula_sum "Si O2"
_cell_formula_units_Z 40
_cell_length_a 11.317645
_cell_length_b 11.317645
_cell_length_c 15.943863
_cell_angle_alpha 90.000000
_cell_angle_beta 90.000000
_cell_angle_gamma 120.000000
_cell_volume 1768.627283
_symmetry_space_group_name_H-M "P 63/M"
_symmetry_group_IT_number 176
_symmetry_cell_setting 'hexagonal'
loop_
_space_group_symop_operation_xyz
x,y,z
x-y,x,1/2+z
-y,x-y,z
-x,-y,1/2+z
-x+y,-x,z
y,-x+y,1/2+z
-x,-y,-z
-x+y,-x,1/2-z
y,-x+y,-z
x,y,1/2-z
x-y,x,-z
-y,x-y,1/2-z
loop_
_atom_site_type_symbol
_atom_site_label
_atom_site_fract_x
_atom_site_fract_y
_atom_site_fract_z
Si Si1 0.000000 0.000000 0.398971
Si Si2 0.087915 0.393419 0.417021
Si Si3 0.314972 0.182084 0.103881
Si Si4 0.452927 0.086518 0.842069
O O1 0.947825 0.845518 0.373700
O O2 0.000000 0.000000 0.500000
O O3 0.105718 0.339780 0.507146
O O4 0.208339 0.399824 0.360701
O O5 0.106507 0.543345 0.412188
O O6 0.934775 0.288920 0.386483
O O7 0.386947 0.322638 0.153616
O O8 0.517104 0.112595 0.750000
#
# Coordination Sequence:
#
# PCOD9582133 Si02
#       4
#     4  12  12  12
#     4  12  15  39  70 110 133 153 220 305 337 393
#     4  12  24  46  73 101 137 184 233 291 341 421
#     4  12  22  42  76 104 134 178 239 287 345 416
#     4  12  27  44  67 102 146 189 229 286 358 414
#
# _framework density 22.616412
#
# number of rings (size 3 to 8) (size 9 to 14) (size 15 to 20)
#    0.000    0.000    9.000    2.400    0.000    2.400 
#    1.800    0.000    0.000    0.000    0.000    0.000 
#    0.000    0.000    0.000    0.000    0.000    0.000 
#
# Total GULP energy -223640.698085 kJ/mol
# GULP energy per Si atom -5591.017452 kJ/mol
# Density = 2.256494 g / cm^3
# Si number density = 22.616412 Si / 1000 Ang^3
#
#
#
# Elastic Constant Matrix: (Units=GPa)
#
#
# Indices 1 2 3 4 5 6 
#
# 1 88.1775 15.1743 18.8150 0.0000 0.0000 0.0000
# 2 15.1743 88.1775 18.8150 0.0000 0.0000 0.0000
# 3 18.8150 18.8150 54.5314 0.0000 0.0000 0.0000
# 4 0.0000 0.0000 0.0000 13.0694 0.0000 0.0000
# 5 0.0000 0.0000 0.0000 0.0000 13.0694 0.0000
# 6 0.0000 0.0000 0.0000 0.0000 0.0000 36.5016
#
#
#
# Elastic Compliance Matrix: (Units=1/GPa)
#
#
# Indices 1 2 3 4 5 6 
#
# 1 0.012382 -0.001316 -0.003818 0.000000 0.000000 0.000000
# 2 -0.001316 0.012382 -0.003818 0.000000 0.000000 0.000000
# 3 -0.003818 -0.003818 0.020973 0.000000 0.000000 0.000000
# 4 0.000000 0.000000 0.000000 0.076515 0.000000 0.000000
# 5 0.000000 0.000000 0.000000 0.000000 0.076515 0.000000
# 6 0.000000 0.000000 0.000000 0.000000 0.000000 0.027396
#
#
# Mechanical properties :
#
#
# Convention : Reuss Voigt Hill
#
# Bulk Modulus (GPa) = 35.92961 37.38835 36.65898
# Shear Modulus (GPa) = 19.73600 24.40021 22.06811
#
# Velocity S-wave (km/s) = 2.95725 3.28818 3.12710
# Velocity P-wave (km/s) = 5.25181 5.56629 5.41133
#
# Compressibility (1/GPa) = 0.02783220
#
# Stress axis : x y z
#
# Youngs Moduli (GPa) = 80.76288 80.76288 47.68089
#
# Poissons Ratio (x) = 0.10629 0.18205
# Poissons Ratio (y) = 0.10629 0.18205
# Poissons Ratio (z) = 0.30836 0.30836
#
# Static dielectric constant tensor:
#      x y z
#    x 1.832030 0.000000 0.000000 
#    y 0.000000 1.832030 0.000000 
#    z 0.000000 0.000000 1.869050 
# 
# From -- ./inp_files/3120.got.cif
#   From: 2010.05.17/outbox.cif.g08.bks.cpg/sg176_2_cif.got.tgz:3120.got - 2010.06.03 11:36:45.
