data_PCOD9582705
_publ_section_title
;
Structure prediction by ZEFSAII (Michael W. Deem and Ramdas Pophale) SiO2 
 PCOD9582705
Probable space group: P 61 2 2
;
_chemical_formula_sum "Si O2"
_cell_formula_units_Z 84
_cell_length_a 17.917397
_cell_length_b 17.917397
_cell_length_c 14.223653
_cell_angle_alpha 90.000000
_cell_angle_beta 90.000000
_cell_angle_gamma 120.000000
_cell_volume 3954.500306
_symmetry_space_group_name_H-M "P 61 2 2"
_symmetry_group_IT_number 178
_symmetry_cell_setting 'hexagonal'
loop_
_space_group_symop_operation_xyz
x,y,z
x-y,x,1/6+z
-y,x-y,1/3+z
-x,-y,1/2+z
-x+y,-x,2/3+z
y,-x+y,5/6+z
x-y,-y,-z
-x,-x+y,2/3-z
y,x,1/3-z
-y,-x,5/6-z
-x+y,y,1/2-z
x,x-y,1/6-z
loop_
_atom_site_type_symbol
_atom_site_label
_atom_site_fract_x
_atom_site_fract_y
_atom_site_fract_z
Si Si1 0.936759 0.212272 0.619208
Si Si2 0.289555 0.818596 0.750214
Si Si3 0.216886 0.971711 0.103864
Si Si4 0.105991 0.365940 0.691235
Si Si5 0.434107 0.917370 0.437278
Si Si6 0.614932 0.401140 0.763637
Si Si7 0.567205 0.887118 0.349615
O O1 0.896298 0.274557 0.610730
O O2 0.862058 0.117174 0.646264
O O3 0.957537 0.194338 0.514765
O O4 0.024815 0.269121 0.676907
O O5 0.342151 0.801305 0.670501
O O6 0.334729 0.827963 0.849856
O O7 0.195745 0.734629 0.748292
O O8 0.299423 0.957859 0.108245
O O9 0.208493 0.000000 0.000000
O O10 0.182930 0.365859 0.750000
O O11 0.077027 0.428090 0.740682
O O12 0.132914 0.410099 0.587514
O O13 0.402311 0.832920 0.501601
O O14 0.493556 0.912381 0.355290
O O15 0.493907 0.000000 0.500000
O O16 0.685945 0.371889 0.750000
#
# Coordination Sequence:
#
# PCOD9582705 Si02
#       7
#    12  12  12  12  12  12  12
#     4  10  23  42  67  97 132 172 221 277 341 417
#     4  10  22  40  60  90 130 167 224 275 337 404
#     4  10  21  39  69 101 131 166 213 279 349 421
#     4  11  25  44  66  92 131 184 239 283 338 416
#     4  12  25  39  63  96 132 177 231 290 354 403
#     4  11  23  39  60  89 127 177 221 285 345 396
#     4  10  22  40  61  91 127 174 224 282 338 405
#
# _framework density 21.241622
#
# number of rings (size 3 to 8) (size 9 to 14) (size 15 to 20)
#    0.000    1.429    1.429    3.000    6.000    4.571 
#    0.000    0.000    0.000    3.429    0.000    0.000 
#    0.000    0.000    0.000    0.000    0.000    0.000 
#
# Total GULP energy -468963.293562 kJ/mol
# GULP energy per Si atom -5582.896352 kJ/mol
# Density = 2.119327 g / cm^3
# Si number density = 21.241622 Si / 1000 Ang^3
#
#
#
# Elastic Constant Matrix: (Units=GPa)
#
#
# Indices 1 2 3 4 5 6 
#
# 1 80.0224 27.3171 27.8488 0.0000 0.0000 0.0000
# 2 27.3171 80.0224 27.8488 0.0000 0.0000 0.0000
# 3 27.8488 27.8488 80.3685 0.0000 0.0000 0.0000
# 4 0.0000 0.0000 0.0000 28.9745 0.0000 0.0000
# 5 0.0000 0.0000 0.0000 0.0000 28.9745 0.0000
# 6 0.0000 0.0000 0.0000 0.0000 0.0000 26.3526
#
#
#
# Elastic Compliance Matrix: (Units=1/GPa)
#
#
# Indices 1 2 3 4 5 6 
#
# 1 0.015166 -0.003807 -0.003936 0.000000 0.000000 0.000000
# 2 -0.003807 0.015166 -0.003936 0.000000 0.000000 0.000000
# 3 -0.003936 -0.003936 0.015170 0.000000 0.000000 0.000000
# 4 0.000000 0.000000 0.000000 0.034513 0.000000 0.000000
# 5 0.000000 0.000000 0.000000 0.000000 0.034513 0.000000
# 6 0.000000 0.000000 0.000000 0.000000 0.000000 0.037947
#
#
# Mechanical properties :
#
#
# Convention : Reuss Voigt Hill
#
# Bulk Modulus (GPa) = 45.15922 45.16031 45.15977
# Shear Modulus (GPa) = 27.29030 27.35355 27.32193
#
# Velocity S-wave (km/s) = 3.58824 3.59239 3.59032
# Velocity P-wave (km/s) = 6.20268 6.20593 6.20430
#
# Compressibility (1/GPa) = 0.02214387
#
# Stress axis : x y z
#
# Youngs Moduli (GPa) = 65.93696 65.93696 65.91794
#
# Poissons Ratio (x) = 0.25105 0.25945
# Poissons Ratio (y) = 0.25105 0.25945
# Poissons Ratio (z) = 0.25952 0.25952
#
# Static dielectric constant tensor:
#      x y z
#    x 1.797520 0.000000 0.000000 
#    y 0.000000 1.797520 0.000000 
#    z 0.000000 0.000000 1.770180 
# 
# From -- ./inp_files/6025.got.cif
#   From: 2010.05.17/outbox.cif.g08.bks.cpg/sg178_4_cif.got.tgz:6025.got - 2010.05.20 11:30:59.
