data_PCOD9582546
_publ_section_title
;
Structure prediction by ZEFSAII (Michael W. Deem and Ramdas Pophale) SiO2 
 PCOD9582546
Probable space group: P 61 2 2
;
_chemical_formula_sum "Si O2"
_cell_formula_units_Z 60
_cell_length_a 18.609122
_cell_length_b 18.609122
_cell_length_c 9.408941
_cell_angle_alpha 90.000000
_cell_angle_beta 90.000000
_cell_angle_gamma 120.000000
_cell_volume 2821.779949
_symmetry_space_group_name_H-M "P 61 2 2"
_symmetry_group_IT_number 178
_symmetry_cell_setting 'hexagonal'
loop_
_space_group_symop_operation_xyz
x,y,z
x-y,x,1/6+z
-y,x-y,1/3+z
-x,-y,1/2+z
-x+y,-x,2/3+z
y,-x+y,5/6+z
x-y,-y,-z
-x,-x+y,2/3-z
y,x,1/3-z
-y,-x,5/6-z
-x+y,y,1/2-z
x,x-y,1/6-z
loop_
_atom_site_type_symbol
_atom_site_label
_atom_site_fract_x
_atom_site_fract_y
_atom_site_fract_z
Si Si1 0.903892 0.449591 0.867792
Si Si2 0.880129 0.311162 0.076349
Si Si3 0.304081 0.029966 0.165981
Si Si4 0.823055 0.911528 0.583334
Si Si5 0.805699 0.253810 0.570892
Si Si6 0.399256 0.798512 0.750000
O O1 0.854070 0.431095 0.723042
O O2 0.000000 0.489221 0.833334
O O3 0.873684 0.361992 0.945672
O O4 0.894677 0.517178 0.962603
O O5 0.802785 0.225557 0.125779
O O6 0.951692 0.287366 0.073692
O O7 0.241086 0.067289 0.170889
O O8 0.395815 0.095713 0.223903
O O9 0.297921 0.000000 0.000000
O O10 0.880270 0.880270 0.666667
O O11 0.787448 0.212553 0.416667
O O12 0.754163 0.301798 0.583041
#
# Coordination Sequence:
#
# PCOD9582546 Si02
#       6
#    12  12  12   6  12   6
#     4  11  22  39  60  89 120 166 212 268 327 399
#     4  11  23  39  63  93 128 162 218 280 339 391
#     4  11  18  34  65  97 123 159 213 276 334 387
#     4  10  20  34  60  96 126 166 218 264 326 402
#     4  12  21  39  59  89 126 164 208 270 331 390
#     4  12  24  38  60  84 122 172 212 250 328 402
#
# _framework density 21.263173999999999
#
# number of rings (size 3 to 8) (size 9 to 14) (size 15 to 20)
#    0.000    0.800    5.000    5.400    0.000    0.800 
#    3.600    0.000    0.000    6.000    0.000    0.000 
#    0.000    0.000    0.000    0.000    0.000    0.000 
#
# Total GULP energy -334111.119172 kJ/mol
# GULP energy per Si atom -5568.518653 kJ/mol
# Density = 2.121478 g / cm^3
# Si number density = 21.263174 Si / 1000 Ang^3
#
#
#
# Elastic Constant Matrix: (Units=GPa)
#
#
# Indices 1 2 3 4 5 6 
#
# 1 88.5693 3.0223 13.6427 0.0000 0.0000 0.0000
# 2 3.0223 88.5693 13.6427 0.0000 0.0000 0.0000
# 3 13.6427 13.6427 41.7750 0.0000 0.0000 0.0000
# 4 0.0000 0.0000 0.0000 18.4110 0.0000 0.0000
# 5 0.0000 0.0000 0.0000 0.0000 18.4110 0.0000
# 6 0.0000 0.0000 0.0000 0.0000 0.0000 42.7735
#
#
#
# Elastic Compliance Matrix: (Units=1/GPa)
#
#
# Indices 1 2 3 4 5 6 
#
# 1 0.011892 0.000203 -0.003950 0.000000 0.000000 0.000000
# 2 0.000203 0.011892 -0.003950 0.000000 0.000000 0.000000
# 3 -0.003950 -0.003950 0.026518 0.000000 0.000000 0.000000
# 4 0.000000 0.000000 0.000000 0.054315 0.000000 0.000000
# 5 0.000000 0.000000 0.000000 0.000000 0.054315 0.000000
# 6 0.000000 0.000000 0.000000 0.000000 0.000000 0.023379
#
#
# Mechanical properties :
#
#
# Convention : Reuss Voigt Hill
#
# Bulk Modulus (GPa) = 28.64701 31.05880 29.85290
# Shear Modulus (GPa) = 23.88442 28.49283 26.18862
#
# Velocity S-wave (km/s) = 3.35517 3.66458 3.51328
# Velocity P-wave (km/s) = 5.33960 5.70475 5.52519
#
# Compressibility (1/GPa) = 0.03490765
#
# Stress axis : x y z
#
# Youngs Moduli (GPa) = 84.08955 84.08955 37.71078
#
# Poissons Ratio (x) = -0.01704 0.14895
# Poissons Ratio (y) = -0.01704 0.14895
# Poissons Ratio (z) = 0.33214 0.33214
#
# Static dielectric constant tensor:
#      x y z
#    x 1.859450 0.000000 0.000000 
#    y 0.000000 1.859450 0.000000 
#    z 0.000000 0.000000 1.789010 
# 
# From -- ./inp_files/3165.got.cif
#   From: 2010.05.17/outbox.cif.g08.bks.cpg/sg178_2_cif.got.tgz:3165.got - 2010.05.20 11:30:59.
