data_PCOD9582907
_publ_section_title
;
Structure prediction by ZEFSAII (Michael W. Deem and Ramdas Pophale) SiO2 
 PCOD9582907
Probable space group: P 61 2 2
;
_chemical_formula_sum "Si O2"
_cell_formula_units_Z 84
_cell_length_a 16.754446
_cell_length_b 16.754446
_cell_length_c 15.871066
_cell_angle_alpha 90.000000
_cell_angle_beta 90.000000
_cell_angle_gamma 120.000000
_cell_volume 3858.307823
_symmetry_space_group_name_H-M "P 61 2 2"
_symmetry_group_IT_number 178
_symmetry_cell_setting 'hexagonal'
loop_
_space_group_symop_operation_xyz
x,y,z
x-y,x,1/6+z
-y,x-y,1/3+z
-x,-y,1/2+z
-x+y,-x,2/3+z
y,-x+y,5/6+z
x-y,-y,-z
-x,-x+y,2/3-z
y,x,1/3-z
-y,-x,5/6-z
-x+y,y,1/2-z
x,x-y,1/6-z
loop_
_atom_site_type_symbol
_atom_site_label
_atom_site_fract_x
_atom_site_fract_y
_atom_site_fract_z
Si Si1 0.609390 0.213754 0.589168
Si Si2 0.119147 0.380569 0.184522
Si Si3 0.442292 0.232877 0.840372
Si Si4 0.697263 0.747340 0.907025
Si Si5 0.878829 0.443753 0.425681
Si Si6 0.413302 0.948366 0.327818
Si Si7 0.885274 0.966831 0.214396
O O1 0.640580 0.320290 0.583334
O O2 0.685282 0.198225 0.634624
O O3 0.586911 0.169497 0.497363
O O4 0.518028 0.157395 0.644275
O O5 0.181571 0.363141 0.250000
O O6 0.160708 0.389948 0.092149
O O7 0.128399 0.479872 0.202225
O O8 0.013045 0.299437 0.176261
O O9 0.366048 0.158425 0.778691
O O10 0.506665 0.337174 0.807816
O O11 0.636657 0.661163 0.967426
O O12 0.793317 0.821660 0.946204
O O13 0.986211 0.520797 0.432146
O O14 0.480875 0.961750 0.250000
O O15 0.908670 0.954297 0.312567
O O16 0.877780 0.877780 0.166667
#
# Coordination Sequence:
#
# PCOD9582907 Si02
#       7
#    12  12  12  12  12  12  12
#     4  12  26  41  64 101 136 191 251 299 354 451
#     4  12  24  43  69 105 141 194 248 313 383 454
#     4  12  24  42  70  97 143 189 245 311 370 457
#     4  12  25  46  74 110 148 190 252 316 394 460
#     4  12  24  44  68  97 142 197 243 297 381 450
#     4  12  23  45  69  98 145 187 235 303 380 436
#     4  10  24  53  83 113 152 199 251 322 401 469
#
# _framework density 21.771201000000001
#
# number of rings (size 3 to 8) (size 9 to 14) (size 15 to 20)
#    0.000    0.286    5.714    3.429    0.000    0.571 
#   12.857    0.000    0.000    0.000    0.000    0.000 
#    0.000    0.000    0.000    0.000    0.000    0.000 
#
# Total GULP energy -469108.600191 kJ/mol
# GULP energy per Si atom -5584.626193 kJ/mol
# Density = 2.172165 g / cm^3
# Si number density = 21.771201 Si / 1000 Ang^3
#
#
#
# Elastic Constant Matrix: (Units=GPa)
#
#
# Indices 1 2 3 4 5 6 
#
# 1 76.8413 23.8836 14.4950 0.0000 0.0000 0.0000
# 2 23.8836 76.8413 14.4950 0.0000 0.0000 0.0000
# 3 14.4950 14.4950 61.2142 0.0000 0.0000 0.0000
# 4 0.0000 0.0000 0.0000 31.0880 0.0000 0.0000
# 5 0.0000 0.0000 0.0000 0.0000 31.0880 0.0000
# 6 0.0000 0.0000 0.0000 0.0000 0.0000 26.4789
#
#
#
# Elastic Compliance Matrix: (Units=1/GPa)
#
#
# Indices 1 2 3 4 5 6 
#
# 1 0.014769 -0.004114 -0.002523 0.000000 0.000000 0.000000
# 2 -0.004114 0.014769 -0.002523 0.000000 0.000000 0.000000
# 3 -0.002523 -0.002523 0.017531 0.000000 0.000000 0.000000
# 4 0.000000 0.000000 0.000000 0.032167 0.000000 0.000000
# 5 0.000000 0.000000 0.000000 0.000000 0.032167 0.000000
# 6 0.000000 0.000000 0.000000 0.000000 0.000000 0.037766
#
#
# Mechanical properties :
#
#
# Convention : Reuss Voigt Hill
#
# Bulk Modulus (GPa) = 34.78520 35.62713 35.20617
# Shear Modulus (GPa) = 28.23739 28.53251 28.38495
#
# Velocity S-wave (km/s) = 3.60530 3.62410 3.61471
# Velocity P-wave (km/s) = 5.77436 5.82340 5.79893
#
# Compressibility (1/GPa) = 0.02874785
#
# Stress axis : x y z
#
# Youngs Moduli (GPa) = 67.71144 67.71144 57.04232
#
# Poissons Ratio (x) = 0.27859 0.14391
# Poissons Ratio (y) = 0.27859 0.14391
# Poissons Ratio (z) = 0.17082 0.17082
#
# Static dielectric constant tensor:
#      x y z
#    x 1.823970 0.000000 0.000000 
#    y 0.000000 1.823970 0.000000 
#    z 0.000000 0.000000 2.001470 
# 
# From -- ./inp_files/6030.got.cif
#   From: 2010.05.17/outbox.cif.g08.bks.cpg/sg178_4_cif.got.tgz:6030.got - 2010.05.20 11:30:59.
