data_PCOD9582094
_publ_section_title
;
Structure prediction by ZEFSAII (Michael W. Deem and Ramdas Pophale) SiO2 
 PCOD9582094
Probable space group: P 63/M
;
_chemical_formula_sum "Si O2"
_cell_formula_units_Z 60
_cell_length_a 11.375785
_cell_length_b 11.375785
_cell_length_c 25.350642
_cell_angle_alpha 90.000000
_cell_angle_beta 90.000000
_cell_angle_gamma 120.000000
_cell_volume 2841.072685
_symmetry_space_group_name_H-M "P 63/M"
_symmetry_group_IT_number 176
_symmetry_cell_setting 'hexagonal'
loop_
_space_group_symop_operation_xyz
x,y,z
x-y,x,1/2+z
-y,x-y,z
-x,-y,1/2+z
-x+y,-x,z
y,-x+y,1/2+z
-x,-y,-z
-x+y,-x,1/2-z
y,-x+y,-z
x,y,1/2-z
x-y,x,-z
-y,x-y,1/2-z
loop_
_atom_site_type_symbol
_atom_site_label
_atom_site_fract_x
_atom_site_fract_y
_atom_site_fract_z
Si Si1 0.695833 0.077308 0.308112
Si Si2 0.040756 0.280986 0.581145
Si Si3 0.360887 0.398627 0.690393
Si Si4 0.050156 0.304483 0.419974
Si Si5 0.827944 0.480821 0.493104
O O1 0.710568 0.031362 0.250000
O O2 0.735783 0.017096 0.356516
O O3 0.542447 0.044463 0.314361
O O4 0.806364 0.237380 0.311816
O O5 0.167899 0.260122 0.570570
O O6 0.089689 0.428642 0.556537
O O7 0.896840 0.162954 0.562470
O O8 0.357143 0.344288 0.750000
O O9 0.342810 0.301393 0.641193
O O10 0.089497 0.435451 0.456023
O O11 0.676309 0.463111 0.492609
#
# Coordination Sequence:
#
# PCOD9582094 Si02
#       5
#    12  12  12  12  12
#     4   9  19  34  59  92 124 162 203 256 312 365
#     4  11  24  40  66  91 131 171 212 257 313 391
#     4   9  19  36  61  94 130 165 209 260 315 373
#     4  11  24  41  64  92 132 170 212 258 314 389
#     4  10  26  43  64  93 123 160 213 274 332 375
#
# _framework density 21.118783000000001
#
# number of rings (size 3 to 8) (size 9 to 14) (size 15 to 20)
#    0.400    1.600    0.000    2.000    8.400    4.000 
#    0.000    2.000    0.000    2.400    0.000    0.000 
#    0.000    0.000    0.000    0.000    0.000    0.000 
#
# Total GULP energy -334654.825313 kJ/mol
# GULP energy per Si atom -5577.580422 kJ/mol
# Density = 2.107072 g / cm^3
# Si number density = 21.118783 Si / 1000 Ang^3
#
#
#
# Elastic Constant Matrix: (Units=GPa)
#
#
# Indices 1 2 3 4 5 6 
#
# 1 87.2209 30.7236 28.8456 0.0000 0.0000 0.0000
# 2 30.7236 87.2209 28.8456 0.0000 0.0000 0.0000
# 3 28.8456 28.8456 114.9877 0.0000 0.0000 0.0000
# 4 0.0000 0.0000 0.0000 26.6909 0.0000 0.0000
# 5 0.0000 0.0000 0.0000 0.0000 26.6909 0.0000
# 6 0.0000 0.0000 0.0000 0.0000 0.0000 28.2487
#
#
#
# Elastic Compliance Matrix: (Units=1/GPa)
#
#
# Indices 1 2 3 4 5 6 
#
# 1 0.013682 -0.004018 -0.002424 0.000000 0.000000 0.000000
# 2 -0.004018 0.013682 -0.002424 0.000000 0.000000 0.000000
# 3 -0.002424 -0.002424 0.009913 0.000000 0.000000 0.000000
# 4 0.000000 0.000000 0.000000 0.037466 0.000000 0.000000
# 5 0.000000 0.000000 0.000000 0.000000 0.037466 0.000000
# 6 0.000000 0.000000 0.000000 0.000000 0.000000 0.035400
#
#
# Mechanical properties :
#
#
# Convention : Reuss Voigt Hill
#
# Bulk Modulus (GPa) = 51.16607 51.80657 51.48632
# Shear Modulus (GPa) = 29.09395 29.72707 29.41051
#
# Velocity S-wave (km/s) = 3.71568 3.75589 3.73584
# Velocity P-wave (km/s) = 6.53366 6.58735 6.56056
#
# Compressibility (1/GPa) = 0.01954420
#
# Stress axis : x y z
#
# Youngs Moduli (GPa) = 73.08771 73.08771 100.87818
#
# Poissons Ratio (x) = 0.29365 0.24457
# Poissons Ratio (y) = 0.29365 0.24457
# Poissons Ratio (z) = 0.17719 0.17719
#
# Static dielectric constant tensor:
#      x y z
#    x 1.752700 0.000000 0.000000 
#    y 0.000000 1.752700 0.000000 
#    z 0.000000 0.000000 1.802280 
# 
# From -- ./inp_files/4241.got.cif
#   From: 2010.05.17/outbox.cif.g08.bks.cpg/sg176_3_cif.got.tgz:4241.got - 2010.06.03 11:36:45.
