data_PCOD9582470
_publ_section_title
;
Structure prediction by ZEFSAII (Michael W. Deem and Ramdas Pophale) SiO2 
 PCOD9582470
Probable space group: P 61 2 2
;
_chemical_formula_sum "Si O2"
_cell_formula_units_Z 54
_cell_length_a 24.999510
_cell_length_b 24.999510
_cell_length_c 4.997078
_cell_angle_alpha 90.000000
_cell_angle_beta 90.000000
_cell_angle_gamma 120.000000
_cell_volume 2704.641783
_symmetry_space_group_name_H-M "P 61 2 2"
_symmetry_group_IT_number 178
_symmetry_cell_setting 'hexagonal'
loop_
_space_group_symop_operation_xyz
x,y,z
x-y,x,1/6+z
-y,x-y,1/3+z
-x,-y,1/2+z
-x+y,-x,2/3+z
y,-x+y,5/6+z
x-y,-y,-z
-x,-x+y,2/3-z
y,x,1/3-z
-y,-x,5/6-z
-x+y,y,1/2-z
x,x-y,1/6-z
loop_
_atom_site_type_symbol
_atom_site_label
_atom_site_fract_x
_atom_site_fract_y
_atom_site_fract_z
Si Si1 0.665833 0.737571 0.176476
Si Si2 0.810657 0.072045 0.510687
Si Si3 0.621854 0.487065 0.735980
Si Si4 0.700084 0.173589 0.940543
Si Si5 0.538340 0.538340 0.666667
O O1 0.684457 0.684457 0.166667
O O2 0.683775 0.766341 0.472257
O O3 0.596441 0.713930 0.086353
O O4 0.710245 0.791712 0.972478
O O5 0.879518 0.120483 0.416667
O O6 0.790990 0.000000 0.500000
O O7 0.645412 0.484432 0.437908
O O8 0.600719 0.538522 0.727820
O O9 0.567836 0.432165 0.916667
O O10 0.679563 0.507747 0.923361
O O11 0.761801 0.238200 0.916667
O O12 0.507792 0.492208 0.416667
#
# Coordination Sequence:
#
# PCOD9582470 Si02
#       5
#    12  12  12  12   6
#     4  10  22  36  57  85 120 158 195 240 297 363
#     4  10  19  34  53  78 112 155 202 248 295 355
#     4  11  24  41  64  89 123 157 199 250 300 365
#     4  12  24  39  63  91 125 161 200 248 304 357
#     4  10  20  38  62  92 118 152 194 246 310 366
#
# _framework density 19.965674
#
# number of rings (size 3 to 8) (size 9 to 14) (size 15 to 20)
#    0.000    1.333    0.000    7.333    3.111    0.000 
#    0.000    0.000    0.000    6.667    0.000    4.667 
#    0.000    0.000    0.000    0.000    0.000    0.000 
#
# Total GULP energy -301334.075193 kJ/mol
# GULP energy per Si atom -5580.260652 kJ/mol
# Density = 1.992023 g / cm^3
# Si number density = 19.965674 Si / 1000 Ang^3
#
#
#
# Elastic Constant Matrix: (Units=GPa)
#
#
# Indices 1 2 3 4 5 6 
#
# 1 57.4360 44.6186 8.3204 0.0000 0.0000 0.0000
# 2 44.6186 57.4360 8.3204 0.0000 0.0000 0.0000
# 3 8.3204 8.3204 95.8945 0.0000 0.0000 0.0000
# 4 0.0000 0.0000 0.0000 27.2453 0.0000 0.0000
# 5 0.0000 0.0000 0.0000 0.0000 27.2453 0.0000
# 6 0.0000 0.0000 0.0000 0.0000 0.0000 6.4087
#
#
#
# Elastic Compliance Matrix: (Units=1/GPa)
#
#
# Indices 1 2 3 4 5 6 
#
# 1 0.043979 -0.034040 -0.000862 0.000000 0.000000 0.000000
# 2 -0.034040 0.043979 -0.000862 0.000000 0.000000 0.000000
# 3 -0.000862 -0.000862 0.010578 0.000000 0.000000 0.000000
# 4 0.000000 0.000000 0.000000 0.036704 0.000000 0.000000
# 5 0.000000 0.000000 0.000000 0.000000 0.036704 0.000000
# 6 0.000000 0.000000 0.000000 0.000000 0.000000 0.156038
#
#
# Mechanical properties :
#
#
# Convention : Reuss Voigt Hill
#
# Bulk Modulus (GPa) = 37.02770 37.03168 37.02969
# Shear Modulus (GPa) = 12.23951 22.14701 17.19326
#
# Velocity S-wave (km/s) = 2.47863 3.33416 2.93770
# Velocity P-wave (km/s) = 5.17469 5.78015 5.48578
#
# Compressibility (1/GPa) = 0.02700681
#
# Stress axis : x y z
#
# Youngs Moduli (GPa) = 22.73803 22.73803 94.53777
#
# Poissons Ratio (x) = 0.77400 0.08153
# Poissons Ratio (y) = 0.77400 0.08153
# Poissons Ratio (z) = 0.01961 0.01961
#
# Static dielectric constant tensor:
#      x y z
#    x 1.712090 0.000000 0.000000 
#    y 0.000000 1.712090 0.000000 
#    z 0.000000 0.000000 1.708090 
# 
# From -- ./inp_files/1173.got.cif
#   From: 2010.05.17/outbox.cif.g08.bks.cpg/sg178_1_cif.got.tgz:1173.got - 2010.05.20 11:30:59.
