data_PCOD9582909
_publ_section_title
;
Structure prediction by ZEFSAII (Michael W. Deem and Ramdas Pophale) SiO2 
 PCOD9582909
Probable space group: P 61 2 2
;
_chemical_formula_sum "Si O2"
_cell_formula_units_Z 60
_cell_length_a 14.223452
_cell_length_b 14.223452
_cell_length_c 14.403921
_cell_angle_alpha 90.000000
_cell_angle_beta 90.000000
_cell_angle_gamma 120.000000
_cell_volume 2523.605036
_symmetry_space_group_name_H-M "P 61 2 2"
_symmetry_group_IT_number 178
_symmetry_cell_setting 'hexagonal'
loop_
_space_group_symop_operation_xyz
x,y,z
x-y,x,1/6+z
-y,x-y,1/3+z
-x,-y,1/2+z
-x+y,-x,2/3+z
y,-x+y,5/6+z
x-y,-y,-z
-x,-x+y,2/3-z
y,x,1/3-z
-y,-x,5/6-z
-x+y,y,1/2-z
x,x-y,1/6-z
loop_
_atom_site_type_symbol
_atom_site_label
_atom_site_fract_x
_atom_site_fract_y
_atom_site_fract_z
Si Si1 0.375800 0.572636 0.315857
Si Si2 0.798773 0.287587 0.096438
Si Si3 0.346601 0.348266 0.056255
Si Si4 0.697994 0.812617 0.173979
Si Si5 0.155590 0.025209 0.827365
O O1 0.377385 0.622616 0.416667
O O2 0.276156 0.552312 0.250000
O O3 0.482854 0.674576 0.274969
O O4 0.376890 0.461402 0.322180
O O5 0.797866 0.398933 0.083334
O O6 0.831442 0.236709 0.011814
O O7 0.879235 0.307812 0.181589
O O8 0.358891 0.358891 0.166667
O O9 0.254520 0.226925 0.029144
O O10 0.701060 0.701060 0.166667
O O11 0.760341 0.870362 0.267790
O O12 0.761113 0.880557 0.083334
O O13 0.122843 0.069170 0.917746
#
# Coordination Sequence:
#
# PCOD9582909 Si02
#       5
#    12  12  12  12  12
#     4  11  25  44  76 106 158 209 271 343 409 482
#     4  10  25  46  68 112 153 197 264 337 407 485
#     4  11  26  46  77 110 155 208 266 325 413 492
#     4  11  23  42  74 107 149 198 260 324 401 470
#     4  11  26  49  79 111 159 203 261 328 394 477
#
# _framework density 23.775511000000002
#
# number of rings (size 3 to 8) (size 9 to 14) (size 15 to 20)
#    0.000    1.200    2.000    1.800    8.400    7.200 
#    0.000    7.000    0.000    0.000    0.000    0.000 
#    0.000    0.000    0.000    0.000    0.000    0.000 
#
# Total GULP energy -334821.444466 kJ/mol
# GULP energy per Si atom -5580.357408 kJ/mol
# Density = 2.372140 g / cm^3
# Si number density = 23.775511 Si / 1000 Ang^3
#
#
#
# Elastic Constant Matrix: (Units=GPa)
#
#
# Indices 1 2 3 4 5 6 
#
# 1 116.5258 65.9422 30.1477 0.0000 0.0000 0.0000
# 2 65.9422 116.5258 30.1477 0.0000 0.0000 0.0000
# 3 30.1477 30.1477 117.8528 0.0000 0.0000 0.0000
# 4 0.0000 0.0000 0.0000 22.6747 0.0000 0.0000
# 5 0.0000 0.0000 0.0000 0.0000 22.6747 0.0000
# 6 0.0000 0.0000 0.0000 0.0000 0.0000 25.2918
#
#
#
# Elastic Compliance Matrix: (Units=1/GPa)
#
#
# Indices 1 2 3 4 5 6 
#
# 1 0.012878 -0.006891 -0.001531 0.000000 0.000000 0.000000
# 2 -0.006891 0.012878 -0.001531 0.000000 0.000000 0.000000
# 3 -0.001531 -0.001531 0.009269 0.000000 0.000000 0.000000
# 4 0.000000 0.000000 0.000000 0.044102 0.000000 0.000000
# 5 0.000000 0.000000 0.000000 0.000000 0.044102 0.000000
# 6 0.000000 0.000000 0.000000 0.000000 0.000000 0.039539
#
#
# Mechanical properties :
#
#
# Convention : Reuss Voigt Hill
#
# Bulk Modulus (GPa) = 66.15505 67.04220 66.59863
# Shear Modulus (GPa) = 26.63630 29.10604 27.87117
#
# Velocity S-wave (km/s) = 3.35076 3.50266 3.42755
# Velocity P-wave (km/s) = 6.54640 6.67962 6.61335
#
# Compressibility (1/GPa) = 0.01511600
#
# Stress axis : x y z
#
# Youngs Moduli (GPa) = 77.65268 77.65268 107.89069
#
# Poissons Ratio (x) = 0.53514 0.16522
# Poissons Ratio (y) = 0.53514 0.16522
# Poissons Ratio (z) = 0.11892 0.11892
#
# Static dielectric constant tensor:
#      x y z
#    x 1.974790 0.000000 0.000000 
#    y 0.000000 1.974790 0.000000 
#    z 0.000000 0.000000 1.988400 
# 
# From -- ./inp_files/5714.got.cif
#   From: 2010.05.17/outbox.cif.g08.bks.cpg/sg178_3_cif.got.tgz:5714.got - 2010.05.20 11:30:59.
