data_PCOD9582430
_publ_section_title
;
Structure prediction by ZEFSAII (Michael W. Deem and Ramdas Pophale) SiO2 
 PCOD9582430
Probable space group: P 61 2 2
;
_chemical_formula_sum "Si O2"
_cell_formula_units_Z 36
_cell_length_a 7.935234
_cell_length_b 7.935234
_cell_length_c 24.487874
_cell_angle_alpha 90.000000
_cell_angle_beta 90.000000
_cell_angle_gamma 120.000000
_cell_volume 1335.368692
_symmetry_space_group_name_H-M "P 61 2 2"
_symmetry_group_IT_number 178
_symmetry_cell_setting 'hexagonal'
loop_
_space_group_symop_operation_xyz
x,y,z
x-y,x,1/6+z
-y,x-y,1/3+z
-x,-y,1/2+z
-x+y,-x,2/3+z
y,-x+y,5/6+z
x-y,-y,-z
-x,-x+y,2/3-z
y,x,1/3-z
-y,-x,5/6-z
-x+y,y,1/2-z
x,x-y,1/6-z
loop_
_atom_site_type_symbol
_atom_site_label
_atom_site_fract_x
_atom_site_fract_y
_atom_site_fract_z
Si Si1 0.734195 0.768670 0.489329
Si Si2 0.359273 0.586424 0.688467
Si Si3 0.197321 0.263090 0.871146
O O1 0.507588 0.693973 0.486862
O O2 0.829001 0.733849 0.435353
O O3 0.831103 0.702831 0.535796
O O4 0.829122 0.000000 0.500000
O O5 0.480903 0.480903 0.666667
O O6 0.273814 0.547628 0.750000
O O7 0.170197 0.481567 0.650226
O O8 0.000000 0.157499 0.833334
#
# Coordination Sequence:
#
# PCOD9582430 Si02
#       3
#    12  12  12
#     4  10  20  36  66 102 138 188 255 312 380 471
#     4  10  21  40  66  99 143 188 249 319 377 465
#     4  10  18  36  67  96 135 198 245 305 395 459
#
# _framework density 26.958848
#
# number of rings (size 3 to 8) (size 9 to 14) (size 15 to 20)
#    0.000    2.000    0.000    8.000    0.000    0.000 
#    6.000    0.000   14.667    0.000    0.000    0.000 
#    0.000    0.000    0.000    0.000    0.000    0.000 
#
# Total GULP energy -200877.865255 kJ/mol
# GULP energy per Si atom -5579.940702 kJ/mol
# Density = 2.689749 g / cm^3
# Si number density = 26.958848 Si / 1000 Ang^3
#
#
#
# Elastic Constant Matrix: (Units=GPa)
#
#
# Indices 1 2 3 4 5 6 
#
# 1 153.9294 36.0507 6.5344 0.0000 0.0000 0.0000
# 2 36.0507 153.9294 6.5344 0.0000 0.0000 0.0000
# 3 6.5344 6.5344 53.0557 0.0000 0.0000 0.0000
# 4 0.0000 0.0000 0.0000 17.6210 0.0000 0.0000
# 5 0.0000 0.0000 0.0000 0.0000 17.6210 0.0000
# 6 0.0000 0.0000 0.0000 0.0000 0.0000 58.9393
#
#
#
# Elastic Compliance Matrix: (Units=1/GPa)
#
#
# Indices 1 2 3 4 5 6 
#
# 1 0.006896 -0.001587 -0.000654 0.000000 0.000000 0.000000
# 2 -0.001587 0.006896 -0.000654 0.000000 0.000000 0.000000
# 3 -0.000654 -0.000654 0.019009 0.000000 0.000000 0.000000
# 4 0.000000 0.000000 0.000000 0.056751 0.000000 0.000000
# 5 0.000000 0.000000 0.000000 0.000000 0.056751 0.000000
# 6 0.000000 0.000000 0.000000 0.000000 0.000000 0.016967
#
#
# Mechanical properties :
#
#
# Convention : Reuss Voigt Hill
#
# Bulk Modulus (GPa) = 37.02159 51.01703 44.01931
# Shear Modulus (GPa) = 28.08003 39.62259 33.85131
#
# Velocity S-wave (km/s) = 3.23087 3.83788 3.54738
# Velocity P-wave (km/s) = 5.26122 6.21323 5.75694
#
# Compressibility (1/GPa) = 0.02701126
#
# Stress axis : x y z
#
# Youngs Moduli (GPa) = 145.01175 145.01175 52.60620
#
# Poissons Ratio (x) = 0.23018 0.03439
# Poissons Ratio (y) = 0.23018 0.03439
# Poissons Ratio (z) = 0.09481 0.09481
#
# Static dielectric constant tensor:
#      x y z
#    x 2.392060 0.000000 0.000000 
#    y 0.000000 2.392060 0.000000 
#    z 0.000000 0.000000 2.034250 
# 
# From -- ./inp_files/8504.got.cif
#   From: 2010.05.17/outbox.cif.g08.bks.cpg/sg178_5_cif.got.tgz:8504.got - 2010.05.20 11:30:59.
