data_PCOD9582212
_publ_section_title
;
Structure prediction by ZEFSAII (Michael W. Deem and Ramdas Pophale) SiO2 
 PCOD9582212
Probable space group: P 6 2 2
;
_chemical_formula_sum "Si O2"
_cell_formula_units_Z 39
_cell_length_a 16.512159
_cell_length_b 16.512159
_cell_length_c 8.672529
_cell_angle_alpha 90.000000
_cell_angle_beta 90.000000
_cell_angle_gamma 120.000000
_cell_volume 2047.783863
_symmetry_space_group_name_H-M "P 6 2 2"
_symmetry_group_IT_number 177
_symmetry_cell_setting 'hexagonal'
loop_
_space_group_symop_operation_xyz
x,y,z
x-y,x,z
-y,x-y,z
-x,-y,z
-x+y,-x,z
y,-x+y,z
x-y,-y,-z
-x,-x+y,-z
y,x,-z
-y,-x,-z
-x+y,y,-z
x,x-y,-z
loop_
_atom_site_type_symbol
_atom_site_label
_atom_site_fract_x
_atom_site_fract_y
_atom_site_fract_z
Si Si1 0.806448 0.996521 0.685867
Si Si2 0.621297 0.630020 0.250861
Si Si3 0.149243 0.483822 0.527967
Si Si4 0.500000 0.000000 0.000000
O O1 0.813120 0.904047 0.718353
O O2 0.790855 0.000000 0.500000
O O3 0.718295 0.992202 0.772965
O O4 0.570529 0.645222 0.394911
O O5 0.648690 0.553333 0.309726
O O6 0.543950 0.588119 0.116886
O O7 0.230813 0.461626 0.500000
O O8 0.183768 0.591884 0.500000
#
# Coordination Sequence:
#
# PCOD9582212 Si02
#       4
#    12  12  12   3
#     4  10  19  34  61  99 133 164 206 263 321 382
#     4  11  21  38  63  87 120 169 211 261 316 387
#     4  11  20  37  62  88 114 153 210 267 324 380
#     4  12  24  42  60  88 126 162 220 264 324 386
#
# _framework density 19.044981
#
# number of rings (size 3 to 8) (size 9 to 14) (size 15 to 20)
#    0.000    1.231    6.154    3.385    0.000    1.231 
#    0.000    6.154    0.000    0.000    0.000    2.154 
#    0.000    0.000    0.000    0.000    0.000    0.000 
#
# Total GULP energy -217289.006211 kJ/mol
# GULP energy per Si atom -5571.512980 kJ/mol
# Density = 1.900163 g / cm^3
# Si number density = 19.044981 Si / 1000 Ang^3
#
#
#
# Elastic Constant Matrix: (Units=GPa)
#
#
# Indices 1 2 3 4 5 6 
#
# 1 96.3702 39.8934 34.4403 0.0000 0.0000 0.0000
# 2 39.8934 96.3702 34.4403 0.0000 0.0000 0.0000
# 3 34.4403 34.4403 46.2232 0.0000 0.0000 0.0000
# 4 0.0000 0.0000 0.0000 11.2557 0.0000 0.0000
# 5 0.0000 0.0000 0.0000 0.0000 11.2557 0.0000
# 6 0.0000 0.0000 0.0000 0.0000 0.0000 28.2384
#
#
#
# Elastic Compliance Matrix: (Units=1/GPa)
#
#
# Indices 1 2 3 4 5 6 
#
# 1 0.014740 -0.002967 -0.008772 0.000000 0.000000 0.000000
# 2 -0.002967 0.014740 -0.008772 0.000000 0.000000 0.000000
# 3 -0.008772 -0.008772 0.034706 0.000000 0.000000 0.000000
# 4 0.000000 0.000000 0.000000 0.088844 0.000000 0.000000
# 5 0.000000 0.000000 0.000000 0.000000 0.088844 0.000000
# 6 0.000000 0.000000 0.000000 0.000000 0.000000 0.035413
#
#
# Mechanical properties :
#
#
# Convention : Reuss Voigt Hill
#
# Bulk Modulus (GPa) = 43.17011 50.72352 46.94682
# Shear Modulus (GPa) = 15.33613 18.82925 17.08269
#
# Velocity S-wave (km/s) = 2.84079 3.14773 2.99819
# Velocity P-wave (km/s) = 5.78591 6.31682 6.05719
#
# Compressibility (1/GPa) = 0.02316417
#
# Stress axis : x y z
#
# Youngs Moduli (GPa) = 67.84439 67.84439 28.81371
#
# Poissons Ratio (x) = 0.20128 0.25275
# Poissons Ratio (y) = 0.20128 0.25275
# Poissons Ratio (z) = 0.59512 0.59512
#
# Static dielectric constant tensor:
#      x y z
#    x 1.681020 0.000000 0.000000 
#    y 0.000000 1.681020 0.000000 
#    z 0.000000 0.000000 1.682160 
# 
# From -- ./inp_files/1032.got.cif
#   From: 2010.05.17/outbox.cif.g08.bks.cpg/sg177_1_cif.got.tgz:1032.got - 2010.05.20 11:28:44.
