data_PCOD9582301
_publ_section_title
;
Structure prediction by ZEFSAII (Michael W. Deem and Ramdas Pophale) SiO2 
 PCOD9582301
Probable space group: P 6 2 2
;
_chemical_formula_sum "Si O2"
_cell_formula_units_Z 60
_cell_length_a 30.150233
_cell_length_b 30.150233
_cell_length_c 5.282616
_cell_angle_alpha 90.000000
_cell_angle_beta 90.000000
_cell_angle_gamma 120.000000
_cell_volume 4158.732818
_symmetry_space_group_name_H-M "P 6 2 2"
_symmetry_group_IT_number 177
_symmetry_cell_setting 'hexagonal'
loop_
_space_group_symop_operation_xyz
x,y,z
x-y,x,z
-y,x-y,z
-x,-y,z
-x+y,-x,z
y,-x+y,z
x-y,-y,-z
-x,-x+y,-z
y,x,-z
-y,-x,-z
-x+y,y,-z
x,x-y,-z
loop_
_atom_site_type_symbol
_atom_site_label
_atom_site_fract_x
_atom_site_fract_y
_atom_site_fract_z
Si Si1 0.262511 0.938228 0.016703
Si Si2 0.106298 0.000000 0.000000
Si Si3 0.937670 0.364960 0.000568
Si Si4 0.089992 0.284570 0.517503
Si Si5 0.582455 0.520020 0.500649
Si Si6 0.832665 0.000000 0.500000
O O1 0.305826 0.922041 0.003087
O O2 0.232061 0.921632 0.279588
O O3 0.224720 0.917461 0.778464
O O4 0.291771 0.000000 0.000000
O O5 0.101685 0.050843 0.000000
O O6 0.137353 0.000648 0.750199
O O7 0.921204 0.383296 0.751450
O O8 0.921211 0.382776 0.251449
O O9 0.000000 0.396107 0.000000
O O10 0.146249 0.292498 0.500000
O O11 0.049257 0.223971 0.507437
O O12 0.550890 0.550890 0.500000
O O13 0.539418 0.460583 0.500000
#
# Coordination Sequence:
#
# PCOD9582301 Si02
#       6
#    12   6  12  12  12   6
#     4  11  20  36  51  68  92 114 149 183 228 283
#     4  12  25  42  60  78  96 114 132 156 199 278
#     4   9  17  26  42  61  83 119 147 179 218 254
#     4  12  23  37  54  72  90 113 142 185 239 289
#     4   9  15  24  37  60  89 117 150 182 212 242
#     4  12  24  42  57  78  94 114 135 176 224 290
#
# _framework density 14.427472
#
# number of rings (size 3 to 8) (size 9 to 14) (size 15 to 20)
#    0.000    1.400    2.000    5.500    0.000    5.600 
#    0.000    1.000    0.000    0.000    0.000    0.000 
#    0.000    0.000    0.000    0.000    0.000    0.000 
#
# Total GULP energy -335054.592501 kJ/mol
# GULP energy per Si atom -5584.243208 kJ/mol
# Density = 1.439463 g / cm^3
# Si number density = 14.427472 Si / 1000 Ang^3
#
#
#
# Elastic Constant Matrix: (Units=GPa)
#
#
# Indices 1 2 3 4 5 6 
#
# 1 45.2835 35.1302 14.1250 0.0000 0.0000 0.0000
# 2 35.1302 45.2835 14.1250 0.0000 0.0000 0.0000
# 3 14.1250 14.1250 89.6413 0.0000 0.0000 0.0000
# 4 0.0000 0.0000 0.0000 -81.2975 0.0000 0.0000
# 5 0.0000 0.0000 0.0000 0.0000 -81.2975 0.0000
# 6 0.0000 0.0000 0.0000 0.0000 0.0000 5.0767
#
#
#
# Elastic Compliance Matrix: (Units=1/GPa)
#
#
# Indices 1 2 3 4 5 6 
#
# 1 0.055827 -0.042663 -0.002074 0.000000 0.000000 0.000000
# 2 -0.042663 0.055827 -0.002074 0.000000 0.000000 0.000000
# 3 -0.002074 -0.002074 0.011809 0.000000 0.000000 0.000000
# 4 0.000000 0.000000 0.000000 -0.012301 0.000000 0.000000
# 5 0.000000 0.000000 0.000000 0.000000 -0.012301 0.000000
# 6 0.000000 0.000000 0.000000 0.000000 0.000000 0.196980
#
#
# Mechanical properties :
#
#
# Convention : Reuss Voigt Hill
#
# Bulk Modulus (GPa) = 33.51123 34.10764 33.80944
# Shear Modulus (GPa) = 12.51840 -23.71511 -5.59836
#
# Velocity S-wave (km/s) = 2.94883 -4.05871 -1.97200
# Velocity P-wave (km/s) = 5.90525 1.31449 4.27784
#
# Compressibility (1/GPa) = 0.02984074
#
# Stress axis : x y z
#
# Youngs Moduli (GPa) = 17.91243 17.91243 84.67906
#
# Poissons Ratio (x) = 0.76419 0.17565
# Poissons Ratio (y) = 0.76419 0.17565
# Poissons Ratio (z) = 0.03716 0.03716
#
# Static dielectric constant tensor:
#      x y z
#    x 1.464120 0.000000 0.000000 
#    y 0.000000 1.464120 0.000000 
#    z 0.000000 0.000000 1.479250 
# 
# From -- ./inp_files/643.got.cif
#   From: 2010.05.17/outbox.cif.g08.bks.cpg/sg177_1_cif.got.tgz:643.got - 2010.05.20 11:28:44.
