data_PCOD9582936
_publ_section_title
;
Structure prediction by ZEFSAII (Michael W. Deem and Ramdas Pophale) SiO2 
 PCOD9582936
Probable space group: P 61 2 2
;
_chemical_formula_sum "Si O2"
_cell_formula_units_Z 66
_cell_length_a 20.593634
_cell_length_b 20.593634
_cell_length_c 11.801582
_cell_angle_alpha 90.000000
_cell_angle_beta 90.000000
_cell_angle_gamma 120.000000
_cell_volume 4334.478369
_symmetry_space_group_name_H-M "P 61 2 2"
_symmetry_group_IT_number 178
_symmetry_cell_setting 'hexagonal'
loop_
_space_group_symop_operation_xyz
x,y,z
x-y,x,1/6+z
-y,x-y,1/3+z
-x,-y,1/2+z
-x+y,-x,2/3+z
y,-x+y,5/6+z
x-y,-y,-z
-x,-x+y,2/3-z
y,x,1/3-z
-y,-x,5/6-z
-x+y,y,1/2-z
x,x-y,1/6-z
loop_
_atom_site_type_symbol
_atom_site_label
_atom_site_fract_x
_atom_site_fract_y
_atom_site_fract_z
Si Si1 0.400206 0.872386 0.541254
Si Si2 0.570689 0.581000 0.378773
Si Si3 0.427459 0.350500 0.106888
Si Si4 0.506965 0.348928 0.459431
Si Si5 0.565853 0.303893 0.868902
Si Si6 0.230608 0.769393 0.916667
O O1 0.398364 0.943972 0.594233
O O2 0.487503 0.898292 0.519254
O O3 0.351280 0.835922 0.428836
O O4 0.368336 0.808978 0.636533
O O5 0.495516 0.504485 0.416667
O O6 0.579089 0.639378 0.473753
O O7 0.640814 0.566290 0.386000
O O8 0.372309 0.372309 0.166667
O O9 0.415028 0.268924 0.125821
O O10 0.571849 0.428152 0.416667
O O11 0.528904 0.296550 0.384740
O O12 0.652910 0.347091 0.916667
O O13 0.514653 0.276637 0.979654
#
# Coordination Sequence:
#
# PCOD9582936 Si02
#       6
#    12  12  12  12  12   6
#     4  11  19  38  52  70  94 122 161 209 265 309
#     4   9  17  34  52  69  88 115 155 205 253 297
#     4  11  20  34  54  73  96 125 165 207 247 310
#     4  11  23  32  49  73  88 120 163 201 257 325
#     4  12  24  36  48  66  99 128 156 207 270 314
#     4  12  22  38  52  70  94 130 166 206 262 304
#
# _framework density 15.226744999999999
#
# number of rings (size 3 to 8) (size 9 to 14) (size 15 to 20)
#    0.000    1.091    3.636    7.091    1.273    0.000 
#    0.000    0.000    0.000    0.000    0.000    0.000 
#    0.000    0.000    0.000    0.000    0.000    0.000 
#
# Total GULP energy -367490.917385 kJ/mol
# GULP energy per Si atom -5568.044203 kJ/mol
# Density = 1.519209 g / cm^3
# Si number density = 15.226745 Si / 1000 Ang^3
#
#
#
# Elastic Constant Matrix: (Units=GPa)
#
#
# Indices 1 2 3 4 5 6 
#
# 1 67.3605 37.9152 23.4110 0.0000 0.0000 0.0000
# 2 37.9152 67.3605 23.4110 0.0000 0.0000 0.0000
# 3 23.4110 23.4110 98.7038 0.0000 0.0000 0.0000
# 4 0.0000 0.0000 0.0000 28.2971 0.0000 0.0000
# 5 0.0000 0.0000 0.0000 0.0000 28.2971 0.0000
# 6 0.0000 0.0000 0.0000 0.0000 0.0000 14.7227
#
#
#
# Elastic Compliance Matrix: (Units=1/GPa)
#
#
# Indices 1 2 3 4 5 6 
#
# 1 0.022290 -0.011671 -0.002519 0.000000 0.000000 0.000000
# 2 -0.011671 0.022290 -0.002519 0.000000 0.000000 0.000000
# 3 -0.002519 -0.002519 0.011326 0.000000 0.000000 0.000000
# 4 0.000000 0.000000 0.000000 0.035339 0.000000 0.000000
# 5 0.000000 0.000000 0.000000 0.000000 0.035339 0.000000
# 6 0.000000 0.000000 0.000000 0.000000 0.000000 0.067922
#
#
# Mechanical properties :
#
#
# Convention : Reuss Voigt Hill
#
# Bulk Modulus (GPa) = 44.46515 44.76659 44.61587
# Shear Modulus (GPa) = 21.23858 24.17589 22.70724
#
# Velocity S-wave (km/s) = 3.73878 3.98895 3.86589
# Velocity P-wave (km/s) = 6.92123 7.11895 7.02078
#
# Compressibility (1/GPa) = 0.02248952
#
# Stress axis : x y z
#
# Youngs Moduli (GPa) = 44.86292 44.86292 88.29155
#
# Poissons Ratio (x) = 0.52360 0.22238
# Poissons Ratio (y) = 0.52360 0.22238
# Poissons Ratio (z) = 0.11300 0.11300
#
# Static dielectric constant tensor:
#      x y z
#    x 1.534680 0.000000 0.000000 
#    y 0.000000 1.534680 0.000000 
#    z 0.000000 0.000000 1.533440 
# 
# From -- ./inp_files/4663.got.cif
#   From: 2010.05.17/outbox.cif.g08.bks.cpg/sg178_3_cif.got.tgz:4663.got - 2010.05.20 11:30:59.
