data_PCOD9582751
_publ_section_title
;
Structure prediction by ZEFSAII (Michael W. Deem and Ramdas Pophale) SiO2 
 PCOD9582751
Probable space group: P 61 2 2
;
_chemical_formula_sum "Si O2"
_cell_formula_units_Z 60
_cell_length_a 15.471437
_cell_length_b 15.471437
_cell_length_c 13.916872
_cell_angle_alpha 90.000000
_cell_angle_beta 90.000000
_cell_angle_gamma 120.000000
_cell_volume 2884.918648
_symmetry_space_group_name_H-M "P 61 2 2"
_symmetry_group_IT_number 178
_symmetry_cell_setting 'hexagonal'
loop_
_space_group_symop_operation_xyz
x,y,z
x-y,x,1/6+z
-y,x-y,1/3+z
-x,-y,1/2+z
-x+y,-x,2/3+z
y,-x+y,5/6+z
x-y,-y,-z
-x,-x+y,2/3-z
y,x,1/3-z
-y,-x,5/6-z
-x+y,y,1/2-z
x,x-y,1/6-z
loop_
_atom_site_type_symbol
_atom_site_label
_atom_site_fract_x
_atom_site_fract_y
_atom_site_fract_z
Si Si1 0.691861 0.730034 0.009173
Si Si2 0.798094 0.212773 0.683773
Si Si3 0.575795 0.142242 0.135469
Si Si4 0.611439 0.730222 0.644518
Si Si5 0.000000 0.404165 0.833334
Si Si6 0.066944 0.933057 0.416667
O O1 0.637647 0.756694 0.924560
O O2 0.730724 0.649926 0.997133
O O3 0.623285 0.694813 0.105774
O O4 0.792865 0.826525 0.038851
O O5 0.783309 0.305476 0.717119
O O6 0.747731 0.169580 0.581841
O O7 0.566768 0.133535 0.250000
O O8 0.487255 0.151601 0.087089
O O9 0.557393 0.042834 0.082020
O O10 0.676414 0.676414 0.666667
O O11 0.667384 0.833692 0.583334
O O12 0.000000 0.932283 0.333334
#
# Coordination Sequence:
#
# PCOD9582751 Si02
#       6
#    12  12  12  12   6   6
#     4  11  21  40  68 106 135 187 237 296 357 434
#     4  11  24  42  72 101 140 186 242 294 358 440
#     4  11  23  43  67  98 137 179 234 298 360 427
#     4  12  25  47  75 105 145 199 237 296 369 438
#     4  10  22  38  70  98 132 174 234 290 356 432
#     4  12  20  38  64  98 148 188 242 308 360 402
#
# _framework density 20.797813000000001
#
# number of rings (size 3 to 8) (size 9 to 14) (size 15 to 20)
#    0.000    0.800    6.000    2.400    2.800    0.000 
#    0.000    5.000    0.000    0.000    0.000    0.000 
#    0.000    0.000    0.000    0.000    0.000    0.000 
#
# Total GULP energy -334009.607907 kJ/mol
# GULP energy per Si atom -5566.826798 kJ/mol
# Density = 2.075048 g / cm^3
# Si number density = 20.797813 Si / 1000 Ang^3
#
#
#
# Elastic Constant Matrix: (Units=GPa)
#
#
# Indices 1 2 3 4 5 6 
#
# 1 82.2201 57.0022 55.9294 0.0000 0.0000 0.0000
# 2 57.0022 82.2201 55.9294 0.0000 0.0000 0.0000
# 3 55.9294 55.9294 172.0229 0.0000 0.0000 0.0000
# 4 0.0000 0.0000 0.0000 39.4809 0.0000 0.0000
# 5 0.0000 0.0000 0.0000 0.0000 39.4809 0.0000
# 6 0.0000 0.0000 0.0000 0.0000 0.0000 12.6089
#
#
#
# Elastic Compliance Matrix: (Units=1/GPa)
#
#
# Indices 1 2 3 4 5 6 
#
# 1 0.024688 -0.014966 -0.003161 0.000000 0.000000 0.000000
# 2 -0.014966 0.024688 -0.003161 0.000000 0.000000 0.000000
# 3 -0.003161 -0.003161 0.007869 0.000000 0.000000 0.000000
# 4 0.000000 0.000000 0.000000 0.025329 0.000000 0.000000
# 5 0.000000 0.000000 0.000000 0.000000 0.025329 0.000000
# 6 0.000000 0.000000 0.000000 0.000000 0.000000 0.079309
#
#
# Mechanical properties :
#
#
# Convention : Reuss Voigt Hill
#
# Bulk Modulus (GPa) = 68.16872 74.90946 71.53909
# Shear Modulus (GPa) = 21.30581 29.48761 25.39671
#
# Velocity S-wave (km/s) = 3.20414 3.76948 3.49825
# Velocity P-wave (km/s) = 6.82178 7.41899 7.12665
#
# Compressibility (1/GPa) = 0.01466948
#
# Stress axis : x y z
#
# Youngs Moduli (GPa) = 40.50474 40.50474 127.08616
#
# Poissons Ratio (x) = 0.60619 0.40173
# Poissons Ratio (y) = 0.60619 0.40173
# Poissons Ratio (z) = 0.12804 0.12804
#
# Static dielectric constant tensor:
#      x y z
#    x 1.800770 0.000000 0.000000 
#    y 0.000000 1.800770 0.000000 
#    z 0.000000 0.000000 1.755150 
# 
# From -- ./inp_files/5725.got.cif
#   From: 2010.05.17/outbox.cif.g08.bks.cpg/sg178_3_cif.got.tgz:5725.got - 2010.05.20 11:30:59.
