data_PCOD9582930
_publ_section_title
;
Structure prediction by ZEFSAII (Michael W. Deem and Ramdas Pophale) SiO2 
 PCOD9582930
Probable space group: P 61 2 2
;
_chemical_formula_sum "Si O2"
_cell_formula_units_Z 78
_cell_length_a 19.057130
_cell_length_b 19.057130
_cell_length_c 13.471831
_cell_angle_alpha 90.000000
_cell_angle_beta 90.000000
_cell_angle_gamma 120.000000
_cell_volume 4237.134508
_symmetry_space_group_name_H-M "P 61 2 2"
_symmetry_group_IT_number 178
_symmetry_cell_setting 'hexagonal'
loop_
_space_group_symop_operation_xyz
x,y,z
x-y,x,1/6+z
-y,x-y,1/3+z
-x,-y,1/2+z
-x+y,-x,2/3+z
y,-x+y,5/6+z
x-y,-y,-z
-x,-x+y,2/3-z
y,x,1/3-z
-y,-x,5/6-z
-x+y,y,1/2-z
x,x-y,1/6-z
loop_
_atom_site_type_symbol
_atom_site_label
_atom_site_fract_x
_atom_site_fract_y
_atom_site_fract_z
Si Si1 0.089174 0.768721 0.377522
Si Si2 0.486776 0.955300 0.855949
Si Si3 0.615219 0.000000 0.500000
Si Si4 0.463376 0.348368 0.488596
Si Si5 0.291142 0.455755 0.070615
Si Si6 0.237909 0.603553 0.800105
Si Si7 0.827600 0.292992 0.726866
O O1 0.139313 0.860688 0.416667
O O2 0.084025 0.709450 0.466358
O O3 0.149165 0.760313 0.298202
O O4 0.000000 0.736661 0.333334
O O5 0.456574 0.913147 0.750000
O O6 0.525939 0.907038 0.904671
O O7 0.420875 0.965730 0.916027
O O8 0.561382 0.043403 0.836703
O O9 0.612451 0.919546 0.454860
O O10 0.468277 0.328352 0.374271
O O11 0.529637 0.343307 0.556685
O O12 0.341475 0.537944 0.134374
O O13 0.203973 0.446553 0.042237
O O14 0.325474 0.650948 0.750000
O O15 0.236112 0.555890 0.899608
#
# Coordination Sequence:
#
# PCOD9582930 Si02
#       7
#    12  12   6  12  12  12  12
#     4  11  20  35  60  91 121 143 181 236 301 362
#     4  12  21  35  56  79 106 148 196 245 294 344
#     4  12  22  36  58  80 102 150 208 246 282 368
#     4  11  18  33  56  80 107 146 189 240 292 345
#     4  12  22  36  55  79 108 148 201 244 295 348
#     4  11  20  31  51  79 107 146 200 242 292 349
#     4  11  22  35  52  80 115 150 193 251 300 338
#
# _framework density 18.408667000000001
#
# number of rings (size 3 to 8) (size 9 to 14) (size 15 to 20)
#    0.000    0.615    9.231    2.308    0.000    0.615 
#    0.000    0.769    0.000    0.000    0.000    0.000 
#    2.308    0.000    0.000    0.000    0.000    0.000 
#
# Total GULP energy -434566.212386 kJ/mol
# GULP energy per Si atom -5571.361697 kJ/mol
# Density = 1.836677 g / cm^3
# Si number density = 18.408667 Si / 1000 Ang^3
#
#
#
# Elastic Constant Matrix: (Units=GPa)
#
#
# Indices 1 2 3 4 5 6 
#
# 1 52.6595 22.3297 6.8033 0.0000 0.0000 0.0000
# 2 22.3297 52.6595 6.8033 0.0000 0.0000 0.0000
# 3 6.8033 6.8033 42.8343 0.0000 0.0000 0.0000
# 4 0.0000 0.0000 0.0000 32.4031 0.0000 0.0000
# 5 0.0000 0.0000 0.0000 0.0000 32.4031 0.0000
# 6 0.0000 0.0000 0.0000 0.0000 0.0000 15.1649
#
#
#
# Elastic Compliance Matrix: (Units=1/GPa)
#
#
# Indices 1 2 3 4 5 6 
#
# 1 0.023351 -0.009620 -0.002181 0.000000 0.000000 0.000000
# 2 -0.009620 0.023351 -0.002181 0.000000 0.000000 0.000000
# 3 -0.002181 -0.002181 0.024039 0.000000 0.000000 0.000000
# 4 0.000000 0.000000 0.000000 0.030861 0.000000 0.000000
# 5 0.000000 0.000000 0.000000 0.000000 0.030861 0.000000
# 6 0.000000 0.000000 0.000000 0.000000 0.000000 0.065942
#
#
# Mechanical properties :
#
#
# Convention : Reuss Voigt Hill
#
# Bulk Modulus (GPa) = 23.37703 24.44731 23.91217
# Shear Modulus (GPa) = 20.77905 23.47534 22.12719
#
# Velocity S-wave (km/s) = 3.36335 3.57491 3.47075
# Velocity P-wave (km/s) = 5.27346 5.50901 5.39252
#
# Compressibility (1/GPa) = 0.04277704
#
# Stress axis : x y z
#
# Youngs Moduli (GPa) = 42.82489 42.82489 41.59982
#
# Poissons Ratio (x) = 0.41197 0.09072
# Poissons Ratio (y) = 0.41197 0.09072
# Poissons Ratio (z) = 0.09340 0.09340
#
# Static dielectric constant tensor:
#      x y z
#    x 1.714960 0.000000 0.000000 
#    y 0.000000 1.714960 0.000000 
#    z 0.000000 0.000000 1.749200 
# 
# From -- ./inp_files/6075.got.cif
#   From: 2010.05.17/outbox.cif.g08.bks.cpg/sg178_4_cif.got.tgz:6075.got - 2010.05.20 11:30:59.
