data_PCOD9582194
_publ_section_title
;
Structure prediction by ZEFSAII (Michael W. Deem and Ramdas Pophale) SiO2 
 PCOD9582194
Probable space group: P 6 2 2
;
_chemical_formula_sum "Si O2"
_cell_formula_units_Z 58
_cell_length_a 13.624786
_cell_length_b 13.624786
_cell_length_c 22.515096
_cell_angle_alpha 90.000000
_cell_angle_beta 90.000000
_cell_angle_gamma 120.000000
_cell_volume 3619.626958
_symmetry_space_group_name_H-M "P 6 2 2"
_symmetry_group_IT_number 177
_symmetry_cell_setting 'hexagonal'
loop_
_space_group_symop_operation_xyz
x,y,z
x-y,x,z
-y,x-y,z
-x,-y,z
-x+y,-x,z
y,-x+y,z
x-y,-y,-z
-x,-x+y,-z
y,x,-z
-y,-x,-z
-x+y,y,-z
x,x-y,-z
loop_
_atom_site_type_symbol
_atom_site_label
_atom_site_fract_x
_atom_site_fract_y
_atom_site_fract_z
Si Si1 0.373508 0.980414 0.694618
Si Si2 0.232152 0.989816 0.804526
Si Si3 0.134982 0.269963 0.500000
Si Si4 0.577029 0.771765 0.382750
Si Si5 0.767226 0.764052 0.063653
Si Si6 0.333334 0.666667 0.429484
O O1 0.313495 0.982103 0.755846
O O2 0.292034 0.865061 0.659296
O O3 0.500000 0.000000 0.702421
O O4 0.379591 0.081121 0.654633
O O5 0.278907 0.992571 0.871381
O O6 0.105946 0.879467 0.798137
O O7 0.193669 0.193669 0.500000
O O8 0.174521 0.346330 0.440710
O O9 0.451787 0.685951 0.405890
O O10 0.778247 0.886852 0.063344
O O11 0.709967 0.709967 0.000000
O O12 0.333334 0.666667 0.500000
#
# Coordination Sequence:
#
# PCOD9582194 Si02
#       6
#    12  12   6  12  12   4
#     4  12  24  38  57  78 109 144 179 223 274 319
#     4  10  19  32  53  82 113 146 180 217 266 330
#     4  12  25  40  60  84 112 141 176 210 266 332
#     4  12  24  39  59  82 107 140 176 220 272 325
#     4   8  13  22  40  70 108 144 176 212 257 311
#     4  12  24  39  63  90 102 129 181 230 277 330
#
# _framework density 16.023751000000001
#
# number of rings (size 3 to 8) (size 9 to 14) (size 15 to 20)
#    0.000    1.241    7.241    0.517    0.000    2.483 
#    0.000    3.103    0.000    0.621    0.000    0.000 
#    0.000    0.000    0.000    0.000    0.000    0.000 
#
# Total GULP energy -323213.707688 kJ/mol
# GULP energy per Si atom -5572.650133 kJ/mol
# Density = 1.598728 g / cm^3
# Si number density = 16.023751 Si / 1000 Ang^3
#
#
#
# Elastic Constant Matrix: (Units=GPa)
#
#
# Indices 1 2 3 4 5 6 
#
# 1 55.7366 -1.1260 32.9592 0.0000 -0.0003 -0.0002
# 2 -1.1260 55.7353 32.9588 0.0008 -0.0003 -0.0005
# 3 32.9592 32.9588 160.8996 0.0006 0.0003 -0.0003
# 4 0.0000 0.0008 0.0006 13.5306 -0.0020 0.0000
# 5 -0.0003 -0.0003 0.0003 -0.0020 13.5340 0.0004
# 6 -0.0002 -0.0005 -0.0003 0.0000 0.0004 28.4309
#
#
#
# Elastic Compliance Matrix: (Units=1/GPa)
#
#
# Indices 1 2 3 4 5 6 
#
# 1 0.020956 0.003370 -0.004983 0.000000 0.000001 0.000000
# 2 0.003370 0.020957 -0.004983 -0.000001 0.000001 0.000000
# 3 -0.004983 -0.004983 0.008257 0.000000 0.000000 0.000000
# 4 0.000000 -0.000001 0.000000 0.073907 0.000011 0.000000
# 5 0.000001 0.000001 0.000000 0.000011 0.073888 -0.000001
# 6 0.000000 0.000000 0.000000 0.000000 -0.000001 0.035173
#
#
# Mechanical properties :
#
#
# Convention : Reuss Voigt Hill
#
# Bulk Modulus (GPa) = 27.04354 44.66173 35.85264
# Shear Modulus (GPa) = 19.33072 24.93772 22.13422
#
# Velocity S-wave (km/s) = 3.47707 3.94927 3.72067
# Velocity P-wave (km/s) = 5.74750 6.98057 6.39383
#
# Compressibility (1/GPa) = 0.03697740
#
# Stress axis : x y z
#
# Youngs Moduli (GPa) = 47.71834 47.71716 121.11578
#
# Poissons Ratio (x) = -0.16081 0.60353
# Poissons Ratio (y) = -0.16082 0.60354
# Poissons Ratio (z) = 0.23778 0.23778
#
# Static dielectric constant tensor:
#      x y z
#    x 1.510100 0.000000 0.000000 
#    y 0.000000 1.510110 0.000000 
#    z 0.000000 0.000000 1.575750 
# 
# From -- ./inp_files/3041.got.cif
#   From: 2010.05.17/outbox.cif.g08.bks.cpg/sg177_2_cif.got.tgz:3041.got - 2010.05.20 11:28:44.
