data_PCOD9582118
_publ_section_title
;
Structure prediction by ZEFSAII (Michael W. Deem and Ramdas Pophale) SiO2 
 PCOD9582118
Probable space group: P 63/M
;
_chemical_formula_sum "Si O2"
_cell_formula_units_Z 60
_cell_length_a 14.278454
_cell_length_b 14.278454
_cell_length_c 15.661724
_cell_angle_alpha 90.000000
_cell_angle_beta 90.000000
_cell_angle_gamma 120.000000
_cell_volume 2765.238351
_symmetry_space_group_name_H-M "P 63/M"
_symmetry_group_IT_number 176
_symmetry_cell_setting 'hexagonal'
loop_
_space_group_symop_operation_xyz
x,y,z
x-y,x,1/2+z
-y,x-y,z
-x,-y,1/2+z
-x+y,-x,z
y,-x+y,1/2+z
-x,-y,-z
-x+y,-x,1/2-z
y,-x+y,-z
x,y,1/2-z
x-y,x,-z
-y,x-y,1/2-z
loop_
_atom_site_type_symbol
_atom_site_label
_atom_site_fract_x
_atom_site_fract_y
_atom_site_fract_z
Si Si1 0.584000 0.786737 0.154891
Si Si2 0.840873 0.250718 0.155305
Si Si3 0.251567 0.091136 0.998758
Si Si4 0.872401 0.435524 0.594999
Si Si5 0.597512 0.120114 0.402760
O O1 0.626278 0.823004 0.250000
O O2 0.479397 0.800167 0.138716
O O3 0.535987 0.658841 0.144049
O O4 0.670292 0.853875 0.082237
O O5 0.873345 0.235987 0.250000
O O6 0.901406 0.227056 0.079274
O O7 0.713356 0.169877 0.140027
O O8 0.855796 0.369445 0.145839
O O9 0.196250 0.163344 0.017866
O O10 0.835777 0.442372 0.499083
O O11 0.991232 0.449981 0.589582
#
# Coordination Sequence:
#
# PCOD9582118 Si02
#       5
#    12  12  12  12  12
#     4  12  25  42  69 103 139 176 214 267 334 404
#     4  12  25  42  69 103 139 176 214 267 334 404
#     4  12  27  48  70  94 128 176 237 296 344 390
#     4  11  22  41  67  96 133 173 213 258 315 390
#     4  11  22  41  67  96 133 173 213 258 315 390
#
# _framework density 21.697946999999999
#
# number of rings (size 3 to 8) (size 9 to 14) (size 15 to 20)
#    0.000    0.400    4.000    4.600    0.000    8.000 
#    0.000    0.000    0.000    2.400    0.000    0.000 
#    0.000    0.000    0.000    0.000    0.000    0.000 
#
# Total GULP energy -336079.791931 kJ/mol
# GULP energy per Si atom -5601.329866 kJ/mol
# Density = 2.164856 g / cm^3
# Si number density = 21.697947 Si / 1000 Ang^3
#
#
#
# Elastic Constant Matrix: (Units=GPa)
#
#
# Indices 1 2 3 4 5 6 
#
# 1 68.6900 -2.8766 7.6308 0.0000 0.0000 0.0000
# 2 -2.8766 68.6900 7.6308 0.0000 0.0000 0.0000
# 3 7.6308 7.6308 143.5359 0.0000 0.0000 0.0000
# 4 0.0000 0.0000 0.0000 -17.8526 0.0000 0.0000
# 5 0.0000 0.0000 0.0000 0.0000 -17.8526 0.0000
# 6 0.0000 0.0000 0.0000 0.0000 0.0000 35.7833
#
#
#
# Elastic Compliance Matrix: (Units=1/GPa)
#
#
# Indices 1 2 3 4 5 6 
#
# 1 0.014679 0.000706 -0.000818 0.000000 0.000000 0.000000
# 2 0.000706 0.014679 -0.000818 0.000000 0.000000 0.000000
# 3 -0.000818 -0.000818 0.007054 0.000000 0.000000 0.000000
# 4 0.000000 0.000000 0.000000 -0.056014 0.000000 0.000000
# 5 0.000000 0.000000 0.000000 0.000000 -0.056014 0.000000
# 6 0.000000 0.000000 0.000000 0.000000 0.000000 0.027946
#
#
# Mechanical properties :
#
#
# Convention : Reuss Voigt Hill
#
# Bulk Modulus (GPa) = 28.94303 33.96512 31.45408
# Shear Modulus (GPa) = -145.79774 17.91767 -63.94003
#
# Velocity S-wave (km/s) = -8.20610 2.87675 -5.43435
# Velocity P-wave (km/s) = 8.74179 5.16932 4.98482
#
# Compressibility (1/GPa) = 0.03455063
#
# Stress axis : x y z
#
# Youngs Moduli (GPa) = 68.12657 68.12657 141.76640
#
# Poissons Ratio (x) = -0.04807 0.11595
# Poissons Ratio (y) = -0.04807 0.11595
# Poissons Ratio (z) = 0.05572 0.05572
#
# Static dielectric constant tensor:
#      x y z
#    x 1.783730 0.000000 0.000000 
#    y 0.000000 1.783730 0.000000 
#    z 0.000000 0.000000 1.793100 
# 
# From -- ./inp_files/2621.got.cif
#   From: 2010.05.17/outbox.cif.g08.bks.cpg/sg176_2_cif.got.tgz:2621.got - 2010.06.03 11:36:45.
