data_PCOD9582973
_publ_section_title
;
Structure prediction by ZEFSAII (Michael W. Deem and Ramdas Pophale) SiO2 
 PCOD9582973
Probable space group: P 61 2 2
;
_chemical_formula_sum "Si O2"
_cell_formula_units_Z 66
_cell_length_a 13.913656
_cell_length_b 13.913656
_cell_length_c 19.151355
_cell_angle_alpha 90.000000
_cell_angle_beta 90.000000
_cell_angle_gamma 120.000000
_cell_volume 3210.795619
_symmetry_space_group_name_H-M "P 61 2 2"
_symmetry_group_IT_number 178
_symmetry_cell_setting 'hexagonal'
loop_
_space_group_symop_operation_xyz
x,y,z
x-y,x,1/6+z
-y,x-y,1/3+z
-x,-y,1/2+z
-x+y,-x,2/3+z
y,-x+y,5/6+z
x-y,-y,-z
-x,-x+y,2/3-z
y,x,1/3-z
-y,-x,5/6-z
-x+y,y,1/2-z
x,x-y,1/6-z
loop_
_atom_site_type_symbol
_atom_site_label
_atom_site_fract_x
_atom_site_fract_y
_atom_site_fract_z
Si Si1 0.762536 0.641547 0.518784
Si Si2 0.963653 0.963653 0.166667
Si Si3 0.711153 0.134576 0.862826
Si Si4 0.224892 0.003678 0.280661
Si Si5 0.470441 0.470313 0.084597
Si Si6 0.234325 0.542507 0.928651
O O1 0.797813 0.726985 0.454067
O O2 0.642438 0.613136 0.545190
O O3 0.753949 0.526630 0.492953
O O4 0.866206 0.708344 0.570350
O O5 0.003794 0.007588 0.250000
O O6 0.964964 0.850074 0.159741
O O7 0.811459 0.188542 0.916667
O O8 0.697274 0.024191 0.827972
O O9 0.748058 0.228578 0.804075
O O10 0.594337 0.097904 0.898804
O O11 0.452189 0.452189 0.166667
O O12 0.578678 0.461033 0.067458
O O13 0.332326 0.667675 0.916667
#
# Coordination Sequence:
#
# PCOD9582973 Si02
#       6
#    12   6  12  12  12  12
#     4  11  25  45  67 104 140 187 238 296 373 447
#     4  12  24  46  74 112 150 196 248 310 392 450
#     4  11  22  39  70 106 135 169 234 312 367 422
#     4  11  24  43  73 106 141 185 240 313 373 452
#     4  12  25  44  68 105 140 186 241 299 370 456
#     4  11  23  42  69  96 137 182 233 290 361 434
#
# _framework density 20.555653
#
# number of rings (size 3 to 8) (size 9 to 14) (size 15 to 20)
#    0.000    0.727    7.273    0.545    0.000    1.455 
#    3.273    2.727    0.000    0.000    0.000    0.000 
#    0.000    0.000    0.000    0.000    0.000    0.000 
#
# Total GULP energy -367648.956358 kJ/mol
# GULP energy per Si atom -5570.438733 kJ/mol
# Density = 2.050887 g / cm^3
# Si number density = 20.555653 Si / 1000 Ang^3
#
#
#
# Elastic Constant Matrix: (Units=GPa)
#
#
# Indices 1 2 3 4 5 6 
#
# 1 49.3367 116.5642 18.7135 0.0000 0.0000 0.0000
# 2 116.5642 49.3367 18.7135 0.0000 0.0000 0.0000
# 3 18.7135 18.7135 50.2896 0.0000 0.0000 0.0000
# 4 0.0000 0.0000 0.0000 23.5894 0.0000 0.0000
# 5 0.0000 0.0000 0.0000 0.0000 23.5894 0.0000
# 6 0.0000 0.0000 0.0000 0.0000 0.0000 -33.6138
#
#
#
# Elastic Compliance Matrix: (Units=1/GPa)
#
#
# Indices 1 2 3 4 5 6 
#
# 1 -0.004147 0.010727 -0.002449 0.000000 0.000000 0.000000
# 2 0.010727 -0.004147 -0.002449 0.000000 0.000000 0.000000
# 3 -0.002449 -0.002449 0.021707 0.000000 0.000000 0.000000
# 4 0.000000 0.000000 0.000000 0.042392 0.000000 0.000000
# 5 0.000000 0.000000 0.000000 0.000000 0.042392 0.000000
# 6 0.000000 0.000000 0.000000 0.000000 0.000000 -0.029750
#
#
# Mechanical properties :
#
#
# Convention : Reuss Voigt Hill
#
# Bulk Modulus (GPa) = 39.88339 50.77169 45.32754
# Shear Modulus (GPa) = 76.75385 2.37780 39.56582
#
# Velocity S-wave (km/s) = 6.11724 1.07669 4.39203
# Velocity P-wave (km/s) = 8.32700 5.12825 6.91512
#
# Compressibility (1/GPa) = 0.02507309
#
# Stress axis : x y z
#
# Youngs Moduli (GPa) = -241.11584 -241.11584 46.06792
#
# Poissons Ratio (x) = 2.58656 0.11280
# Poissons Ratio (y) = 2.58656 0.11280
# Poissons Ratio (z) = -0.59038 -0.59038
#
# Static dielectric constant tensor:
#      x y z
#    x 1.731580 0.000000 0.000000 
#    y 0.000000 1.731580 0.000000 
#    z 0.000000 0.000000 2.325890 
# 
# From -- ./inp_files/6710.got.cif
#   From: 2010.05.17/outbox.cif.g08.bks.cpg/sg178_4_cif.got.tgz:6710.got - 2010.05.20 11:30:59.
