data_PCOD9582373
_publ_section_title
;
Structure prediction by ZEFSAII (Michael W. Deem and Ramdas Pophale) SiO2 
 PCOD9582373
Probable space group: P 61 2 2
;
_chemical_formula_sum "Si O2"
_cell_formula_units_Z 54
_cell_length_a 23.944118
_cell_length_b 23.944118
_cell_length_c 5.498890
_cell_angle_alpha 90.000000
_cell_angle_beta 90.000000
_cell_angle_gamma 120.000000
_cell_volume 2730.255886
_symmetry_space_group_name_H-M "P 61 2 2"
_symmetry_group_IT_number 178
_symmetry_cell_setting 'hexagonal'
loop_
_space_group_symop_operation_xyz
x,y,z
x-y,x,1/6+z
-y,x-y,1/3+z
-x,-y,1/2+z
-x+y,-x,2/3+z
y,-x+y,5/6+z
x-y,-y,-z
-x,-x+y,2/3-z
y,x,1/3-z
-y,-x,5/6-z
-x+y,y,1/2-z
x,x-y,1/6-z
loop_
_atom_site_type_symbol
_atom_site_label
_atom_site_fract_x
_atom_site_fract_y
_atom_site_fract_z
Si Si1 0.642042 0.706544 0.069469
Si Si2 0.762277 0.109493 0.396461
Si Si3 0.649474 0.508338 0.767220
Si Si4 0.681714 0.184851 0.896901
Si Si5 0.533361 0.533361 0.666667
O O1 0.643469 0.643469 0.166667
O O2 0.676100 0.752249 0.301053
O O3 0.570129 0.694402 0.052720
O O4 0.670299 0.735786 0.805215
O O5 0.835707 0.164294 0.416667
O O6 0.719065 0.144769 0.383149
O O7 0.650156 0.469977 0.530496
O O8 0.599172 0.533599 0.726416
O O9 0.641233 0.472859 0.022441
O O10 0.748117 0.251884 0.916667
O O11 0.506800 0.493200 0.416667
#
# Coordination Sequence:
#
# PCOD9582373 Si02
#       5
#    12  12  12  12   6
#     4  10  18  25  41  63  92 118 153 196 239 296
#     4  10  19  31  46  68  93 119 160 212 255 280
#     4  10  20  32  53  64  95 134 168 206 252 309
#     4  10  19  31  50  76  99 121 165 219 263 290
#     4  12  26  40  50  72 104 146 192 220 252 328
#
# _framework density 19.778365999999998
#
# number of rings (size 3 to 8) (size 9 to 14) (size 15 to 20)
#    0.000    1.778    0.000    8.667   12.444    0.000 
#    0.000    0.000    0.000    0.000    0.000    0.000 
#    0.000    0.000    0.000  176.000    0.000    0.000 
#
# Total GULP energy -301176.727227 kJ/mol
# GULP energy per Si atom -5577.346801 kJ/mol
# Density = 1.973335 g / cm^3
# Si number density = 19.778366 Si / 1000 Ang^3
#
#
#
# Elastic Constant Matrix: (Units=GPa)
#
#
# Indices 1 2 3 4 5 6 
#
# 1 48.6594 25.9651 31.2086 0.0000 0.0000 0.0000
# 2 25.9651 48.6594 31.2086 0.0000 0.0000 0.0000
# 3 31.2086 31.2086 230.4071 0.0000 0.0000 0.0000
# 4 0.0000 0.0000 0.0000 25.8119 0.0000 0.0000
# 5 0.0000 0.0000 0.0000 0.0000 25.8119 0.0000
# 6 0.0000 0.0000 0.0000 0.0000 0.0000 11.3472
#
#
#
# Elastic Compliance Matrix: (Units=1/GPa)
#
#
# Indices 1 2 3 4 5 6 
#
# 1 0.029588 -0.014476 -0.002047 0.000000 0.000000 0.000000
# 2 -0.014476 0.029588 -0.002047 0.000000 0.000000 0.000000
# 3 -0.002047 -0.002047 0.004895 0.000000 0.000000 0.000000
# 4 0.000000 0.000000 0.000000 0.038742 0.000000 0.000000
# 5 0.000000 0.000000 0.000000 0.000000 0.038742 0.000000
# 6 0.000000 0.000000 0.000000 0.000000 0.000000 0.088128
#
#
# Mechanical properties :
#
#
# Convention : Reuss Voigt Hill
#
# Bulk Modulus (GPa) = 37.13075 56.05450 46.59262
# Shear Modulus (GPa) = 18.12913 28.55043 23.33978
#
# Velocity S-wave (km/s) = 3.03085 3.80349 3.43894
# Velocity P-wave (km/s) = 5.57335 6.90591 6.27510
#
# Compressibility (1/GPa) = 0.02693186
#
# Stress axis : x y z
#
# Youngs Moduli (GPa) = 33.79719 33.79719 204.30366
#
# Poissons Ratio (x) = 0.48924 0.41821
# Poissons Ratio (y) = 0.48924 0.41821
# Poissons Ratio (z) = 0.06918 0.06918
#
# Static dielectric constant tensor:
#      x y z
#    x 1.722980 0.000000 0.000000 
#    y 0.000000 1.722980 0.000000 
#    z 0.000000 0.000000 1.806540 
# 
# From -- ./inp_files/1174.got.cif
#   From: 2010.05.17/outbox.cif.g08.bks.cpg/sg178_1_cif.got.tgz:1174.got - 2010.05.20 11:30:59.
