data_PCOD9582609
_publ_section_title
;
Structure prediction by ZEFSAII (Michael W. Deem and Ramdas Pophale) SiO2 
 PCOD9582609
Probable space group: P 61 2 2
;
_chemical_formula_sum "Si O2"
_cell_formula_units_Z 78
_cell_length_a 18.469514
_cell_length_b 18.469514
_cell_length_c 13.881270
_cell_angle_alpha 90.000000
_cell_angle_beta 90.000000
_cell_angle_gamma 120.000000
_cell_volume 4100.820584
_symmetry_space_group_name_H-M "P 61 2 2"
_symmetry_group_IT_number 178
_symmetry_cell_setting 'hexagonal'
loop_
_space_group_symop_operation_xyz
x,y,z
x-y,x,1/6+z
-y,x-y,1/3+z
-x,-y,1/2+z
-x+y,-x,2/3+z
y,-x+y,5/6+z
x-y,-y,-z
-x,-x+y,2/3-z
y,x,1/3-z
-y,-x,5/6-z
-x+y,y,1/2-z
x,x-y,1/6-z
loop_
_atom_site_type_symbol
_atom_site_label
_atom_site_fract_x
_atom_site_fract_y
_atom_site_fract_z
Si Si1 0.353717 0.489862 0.879328
Si Si2 0.338782 0.338782 0.166667
Si Si3 0.715705 0.284296 0.916667
Si Si4 0.261553 0.333938 0.471034
Si Si5 0.878519 0.521554 0.690536
Si Si6 0.908021 0.674369 0.017100
Si Si7 0.697364 0.302637 0.416667
Si Si8 0.033583 0.451230 0.938229
O O1 0.418311 0.581690 0.916667
O O2 0.315755 0.507247 0.785782
O O3 0.285904 0.424258 0.952827
O O4 0.408129 0.449804 0.846727
O O5 0.422816 0.348692 0.118276
O O6 0.313905 0.271973 0.251631
O O7 0.712667 0.338777 0.827505
O O8 0.304167 0.407277 0.389044
O O9 0.278321 0.259984 0.431674
O O10 0.165650 0.304886 0.496130
O O11 0.318509 0.387220 0.561622
O O12 0.780661 0.458732 0.694204
O O13 0.911934 0.456013 0.688865
O O14 0.000000 0.453428 0.833334
#
# Coordination Sequence:
#
# PCOD9582609 Si02
#       8
#    12   6   6  12  12  12   6  12
#     4  11  24  41  56  84 122 166 216 271 313 378
#     4  10  20  38  62  92 118 166 200 270 316 386
#     4  12  28  40  54  83 122 174 225 268 330 362
#     4  10  23  40  61  90 123 162 201 272 318 388
#     4  11  22  36  57  82 118 163 218 255 320 365
#     4  10  23  40  64  90 128 157 209 260 332 393
#     4  12  28  38  54  85 118 174 215 276 320 378
#     4  11  22  37  62  85 117 167 215 259 312 371
#
# _framework density 19.020582000000001
#
# number of rings (size 3 to 8) (size 9 to 14) (size 15 to 20)
#    0.000    1.231    1.538    5.077   10.769    1.846 
#    0.000    0.000    0.000    0.000    0.000    0.000 
#   11.538    0.000    0.000    0.000    0.000    0.000 
#
# Total GULP energy -434790.516932 kJ/mol
# GULP energy per Si atom -5574.237397 kJ/mol
# Density = 1.897729 g / cm^3
# Si number density = 19.020582 Si / 1000 Ang^3
#
#
#
# Elastic Constant Matrix: (Units=GPa)
#
#
# Indices 1 2 3 4 5 6 
#
# 1 84.9510 48.8925 8.2108 0.0000 0.0000 0.0000
# 2 48.8925 84.9510 8.2108 0.0000 0.0000 0.0000
# 3 8.2108 8.2108 49.4482 0.0000 0.0000 0.0000
# 4 0.0000 0.0000 0.0000 36.8519 0.0000 0.0000
# 5 0.0000 0.0000 0.0000 0.0000 36.8519 0.0000
# 6 0.0000 0.0000 0.0000 0.0000 0.0000 18.0292
#
#
#
# Elastic Compliance Matrix: (Units=1/GPa)
#
#
# Indices 1 2 3 4 5 6 
#
# 1 0.017680 -0.010053 -0.001266 0.000000 0.000000 0.000000
# 2 -0.010053 0.017680 -0.001266 0.000000 0.000000 0.000000
# 3 -0.001266 -0.001266 0.020644 0.000000 0.000000 0.000000
# 4 0.000000 0.000000 0.000000 0.027136 0.000000 0.000000
# 5 0.000000 0.000000 0.000000 0.000000 0.027136 0.000000
# 6 0.000000 0.000000 0.000000 0.000000 0.000000 0.055466
#
#
# Mechanical properties :
#
#
# Convention : Reuss Voigt Hill
#
# Bulk Modulus (GPa) = 32.43417 38.88649 35.66033
# Shear Modulus (GPa) = 24.85226 28.61569 26.73397
#
# Velocity S-wave (km/s) = 3.61861 3.88294 3.75311
# Velocity P-wave (km/s) = 5.87778 6.37117 6.12944
#
# Compressibility (1/GPa) = 0.03083168
#
# Stress axis : x y z
#
# Youngs Moduli (GPa) = 56.56179 56.56179 48.44078
#
# Poissons Ratio (x) = 0.56862 0.06135
# Poissons Ratio (y) = 0.56862 0.06135
# Poissons Ratio (z) = 0.07163 0.07163
#
# Static dielectric constant tensor:
#      x y z
#    x 1.582370 0.000000 0.000000 
#    y 0.000000 1.582370 0.000000 
#    z 0.000000 0.000000 1.696420 
# 
# From -- ./inp_files/5996.got.cif
#   From: 2010.05.17/outbox.cif.g08.bks.cpg/sg178_3_cif.got.tgz:5996.got - 2010.05.20 11:30:59.
