data_PCOD9582086
_publ_section_title
;
Structure prediction by ZEFSAII (Michael W. Deem and Ramdas Pophale) SiO2 
 PCOD9582086
Probable space group: P 63/M
;
_chemical_formula_sum "Si O2"
_cell_formula_units_Z 42
_cell_length_a 7.906180
_cell_length_b 7.906180
_cell_length_c 30.609643
_cell_angle_alpha 90.000000
_cell_angle_beta 90.000000
_cell_angle_gamma 120.000000
_cell_volume 1656.999173
_symmetry_space_group_name_H-M "P 63/M"
_symmetry_group_IT_number 176
_symmetry_cell_setting 'hexagonal'
loop_
_space_group_symop_operation_xyz
x,y,z
x-y,x,1/2+z
-y,x-y,z
-x,-y,1/2+z
-x+y,-x,z
y,-x+y,1/2+z
-x,-y,-z
-x+y,-x,1/2-z
y,-x+y,-z
x,y,1/2-z
x-y,x,-z
-y,x-y,1/2-z
loop_
_atom_site_type_symbol
_atom_site_label
_atom_site_fract_x
_atom_site_fract_y
_atom_site_fract_z
Si Si1 0.666667 0.333334 0.567604
Si Si2 0.852558 0.742610 0.250000
Si Si3 0.318997 0.363903 0.660484
Si Si4 0.044144 0.356947 0.900545
Si Si5 0.666668 0.333334 0.802970
Si Si6 0.666668 0.333334 0.463885
O O1 0.450287 0.179401 0.584957
O O2 0.666668 0.333334 0.515591
O O3 0.772578 0.619979 0.206238
O O4 0.086130 0.880292 0.250000
O O5 0.113761 0.861466 0.627070
O O6 0.467337 0.552721 0.633014
O O7 0.457528 0.280826 0.677036
O O8 0.173293 0.458996 0.943567
O O9 0.666667 0.333334 0.750000
#
# Coordination Sequence:
#
# PCOD9582086 Si02
#       6
#     4   6  12  12   4   4
#     4  12  22  40  81 106 143 202 231 291 385 436
#     4  10  26  38  62  92 144 186 230 294 334 410
#     4  11  24  45  65  99 143 180 245 284 352 424
#     4  10  24  41  71 106 143 187 237 299 355 435
#     4  12  25  44  73  96 129 192 240 289 359 418
#     4   9  21  46  64 106 152 187 246 304 355 438
#
# _framework density 25.347028000000002
#
# number of rings (size 3 to 8) (size 9 to 14) (size 15 to 20)
#    0.286    1.143    1.429    3.143    8.000    1.143 
#    0.000    0.000    0.000    0.000    0.000   24.000 
#    0.000    0.000    0.000    0.000    0.000    0.000 
#
# Total GULP energy -234627.302938 kJ/mol
# GULP energy per Si atom -5586.364356 kJ/mol
# Density = 2.528934 g / cm^3
# Si number density = 25.347028 Si / 1000 Ang^3
#
#
#
# Elastic Constant Matrix: (Units=GPa)
#
#
# Indices 1 2 3 4 5 6 
#
# 1 112.7589 51.5606 61.3134 0.0000 0.0000 0.0000
# 2 51.5606 112.7606 61.3139 0.0000 0.0000 -0.0002
# 3 61.3134 61.3139 259.4731 0.0000 0.0000 0.0000
# 4 0.0000 0.0000 0.0000 25.0839 -0.0002 0.0000
# 5 0.0000 0.0000 0.0000 -0.0002 25.0833 0.0000
# 6 0.0000 -0.0002 0.0000 0.0000 0.0000 30.5997
#
#
#
# Elastic Compliance Matrix: (Units=1/GPa)
#
#
# Indices 1 2 3 4 5 6 
#
# 1 0.011864 -0.004476 -0.001746 0.000000 0.000000 0.000000
# 2 -0.004476 0.011864 -0.001746 0.000000 0.000000 0.000000
# 3 -0.001746 -0.001746 0.004679 0.000000 0.000000 0.000000
# 4 0.000000 0.000000 0.000000 0.039866 0.000000 0.000000
# 5 0.000000 0.000000 0.000000 0.000000 0.039867 0.000000
# 6 0.000000 0.000000 0.000000 0.000000 0.000000 0.032680
#
#
# Mechanical properties :
#
#
# Convention : Reuss Voigt Hill
#
# Bulk Modulus (GPa) = 80.17586 92.59648 86.38617
# Shear Modulus (GPa) = 31.07250 36.87369 33.97309
#
# Velocity S-wave (km/s) = 3.50506 3.81826 3.66501
# Velocity P-wave (km/s) = 6.93401 7.48663 7.21561
#
# Compressibility (1/GPa) = 0.01247258
#
# Stress axis : x y z
#
# Youngs Moduli (GPa) = 84.28542 84.28671 213.71653
#
# Poissons Ratio (x) = 0.37725 0.37314
# Poissons Ratio (y) = 0.37724 0.37313
# Poissons Ratio (z) = 0.14716 0.14716
#
# Static dielectric constant tensor:
#      x y z
#    x 2.079220 0.000000 0.000000 
#    y 0.000000 2.079210 0.000000 
#    z 0.000000 0.000000 1.917700 
# 
# From -- ./inp_files/4424.got.cif
#   From: 2010.05.17/outbox.cif.g08.bks.cpg/sg176_3_cif.got.tgz:4424.got - 2010.06.03 11:36:45.
