data_PCOD9582747
_publ_section_title
;
Structure prediction by ZEFSAII (Michael W. Deem and Ramdas Pophale) SiO2 
 PCOD9582747
Probable space group: P 61 2 2
;
_chemical_formula_sum "Si O2"
_cell_formula_units_Z 66
_cell_length_a 22.153947
_cell_length_b 22.153947
_cell_length_c 8.161068
_cell_angle_alpha 90.000000
_cell_angle_beta 90.000000
_cell_angle_gamma 120.000000
_cell_volume 3468.804732
_symmetry_space_group_name_H-M "P 61 2 2"
_symmetry_group_IT_number 178
_symmetry_cell_setting 'hexagonal'
loop_
_space_group_symop_operation_xyz
x,y,z
x-y,x,1/6+z
-y,x-y,1/3+z
-x,-y,1/2+z
-x+y,-x,2/3+z
y,-x+y,5/6+z
x-y,-y,-z
-x,-x+y,2/3-z
y,x,1/3-z
-y,-x,5/6-z
-x+y,y,1/2-z
x,x-y,1/6-z
loop_
_atom_site_type_symbol
_atom_site_label
_atom_site_fract_x
_atom_site_fract_y
_atom_site_fract_z
Si Si1 0.325067 0.325067 0.166667
Si Si2 0.260693 0.739308 0.416667
Si Si3 0.957287 0.100834 0.594658
Si Si4 0.042522 0.283670 0.998619
Si Si5 0.468575 0.328793 0.186052
Si Si6 0.176823 0.742510 0.144313
Si Si7 0.810019 0.405010 0.083334
O O1 0.280245 0.289128 0.329832
O O2 0.401005 0.336156 0.199437
O O3 0.191159 0.718891 0.316139
O O4 0.328259 0.759062 0.314562
O O5 0.919507 0.080494 0.416667
O O6 0.953985 0.166982 0.661774
O O7 0.035457 0.118379 0.549827
O O8 0.118119 0.353858 0.004792
O O9 0.000000 0.279834 0.833334
O O10 0.445507 0.252302 0.261176
O O11 0.536427 0.389064 0.277523
O O12 0.473910 0.316766 0.992658
#
# Coordination Sequence:
#
# PCOD9582747 Si02
#       7
#     6   6  12  12  12  12   6
#     4  10  22  42  64  90 132 168 206 268 324 390
#     4  10  22  38  62  92 129 166 204 260 306 383
#     4  10  23  43  60  84 125 172 215 273 337 392
#     4  11  25  39  65  98 120 164 223 269 323 393
#     4   9  20  40  63  89 124 169 206 259 327 369
#     4   9  21  38  62  90 127 162 205 268 322 371
#     4  10  22  38  62  92 125 166 208 252 308 381
#
# _framework density 19.026727999999999
#
# number of rings (size 3 to 8) (size 9 to 14) (size 15 to 20)
#    0.000    2.182    0.000    1.091   12.727    4.364 
#    9.818    3.636    0.000    0.000    0.000    0.000 
#    0.000    0.000    0.000    0.000    0.000    0.000 
#
# Total GULP energy -367913.200133 kJ/mol
# GULP energy per Si atom -5574.442426 kJ/mol
# Density = 1.898342 g / cm^3
# Si number density = 19.026728 Si / 1000 Ang^3
#
#
#
# Elastic Constant Matrix: (Units=GPa)
#
#
# Indices 1 2 3 4 5 6 
#
# 1 80.7017 62.2671 49.1185 0.0000 0.0000 0.0000
# 2 62.2671 80.7017 49.1185 0.0000 0.0000 0.0000
# 3 49.1185 49.1185 101.7141 0.0000 0.0000 0.0000
# 4 0.0000 0.0000 0.0000 -17.0890 0.0000 0.0000
# 5 0.0000 0.0000 0.0000 0.0000 -17.0890 0.0000
# 6 0.0000 0.0000 0.0000 0.0000 0.0000 9.2173
#
#
#
# Elastic Compliance Matrix: (Units=1/GPa)
#
#
# Indices 1 2 3 4 5 6 
#
# 1 0.032357 -0.021889 -0.005055 0.000000 0.000000 0.000000
# 2 -0.021889 0.032357 -0.005055 0.000000 0.000000 0.000000
# 3 -0.005055 -0.005055 0.014714 0.000000 0.000000 0.000000
# 4 0.000000 0.000000 0.000000 -0.058517 0.000000 0.000000
# 5 0.000000 0.000000 0.000000 0.000000 -0.058517 0.000000
# 6 0.000000 0.000000 0.000000 0.000000 0.000000 0.108492
#
#
# Mechanical properties :
#
#
# Convention : Reuss Voigt Hill
#
# Bulk Modulus (GPa) = 64.81122 64.90288 64.85705
# Shear Modulus (GPa) = 35.70766 1.84877 18.77822
#
# Velocity S-wave (km/s) = 4.33680 0.98680 3.14497
# Velocity P-wave (km/s) = 7.69508 5.95683 6.88107
#
# Compressibility (1/GPa) = 0.01542943
#
# Stress axis : x y z
#
# Youngs Moduli (GPa) = 30.90529 30.90529 67.96367
#
# Poissons Ratio (x) = 0.67648 0.34356
# Poissons Ratio (y) = 0.67648 0.34356
# Poissons Ratio (z) = 0.15623 0.15623
#
# Static dielectric constant tensor:
#      x y z
#    x 1.660080 0.000000 0.000000 
#    y 0.000000 1.660080 0.000000 
#    z 0.000000 0.000000 1.719150 
# 
# From -- ./inp_files/3319.got.cif
#   From: 2010.05.17/outbox.cif.g08.bks.cpg/sg178_2_cif.got.tgz:3319.got - 2010.05.20 11:30:59.
