data_PCOD9582637
_publ_section_title
;
Structure prediction by ZEFSAII (Michael W. Deem and Ramdas Pophale) SiO2 
 PCOD9582637
Probable space group: P 61 2 2
;
_chemical_formula_sum "Si O2"
_cell_formula_units_Z 72
_cell_length_a 15.850296
_cell_length_b 15.850296
_cell_length_c 16.927852
_cell_angle_alpha 90.000000
_cell_angle_beta 90.000000
_cell_angle_gamma 120.000000
_cell_volume 3683.046813
_symmetry_space_group_name_H-M "P 61 2 2"
_symmetry_group_IT_number 178
_symmetry_cell_setting 'hexagonal'
loop_
_space_group_symop_operation_xyz
x,y,z
x-y,x,1/6+z
-y,x-y,1/3+z
-x,-y,1/2+z
-x+y,-x,2/3+z
y,-x+y,5/6+z
x-y,-y,-z
-x,-x+y,2/3-z
y,x,1/3-z
-y,-x,5/6-z
-x+y,y,1/2-z
x,x-y,1/6-z
loop_
_atom_site_type_symbol
_atom_site_label
_atom_site_fract_x
_atom_site_fract_y
_atom_site_fract_z
Si Si1 0.390203 0.195102 0.583334
Si Si2 0.371229 0.056234 0.224537
Si Si3 0.321380 0.321380 0.666667
Si Si4 0.675800 0.152189 0.768363
Si Si5 0.516816 0.857538 0.877034
Si Si6 0.373459 0.466495 0.219221
Si Si7 0.694554 0.811514 0.667810
O O1 0.322698 0.229224 0.628176
O O2 0.460510 0.283037 0.524508
O O3 0.459137 0.108146 0.286956
O O4 0.406569 0.061281 0.134657
O O5 0.305912 0.109180 0.226945
O O6 0.319387 0.943839 0.247040
O O7 0.345114 0.399341 0.596180
O O8 0.568895 0.137789 0.750000
O O9 0.757386 0.241082 0.718546
O O10 0.419838 0.844260 0.917962
O O11 0.447101 0.447101 0.166667
O O12 0.274511 0.418548 0.169112
O O13 0.756235 0.756235 0.666667
O O14 0.722452 0.861226 0.583334
#
# Coordination Sequence:
#
# PCOD9582637 Si02
#       7
#     6  12   6  12  12  12  12
#     4  10  22  44  66  96 130 180 222 274 344 388
#     4  11  23  40  65  95 120 171 221 260 326 403
#     4  10  20  40  64  94 124 170 218 266 322 388
#     4  11  25  41  63  95 134 174 223 278 324 400
#     4  11  22  38  63  92 126 176 211 266 321 388
#     4  10  21  39  63  91 133 165 208 267 330 389
#     4   9  21  39  63  95 121 160 205 265 323 382
#
# _framework density 19.549032
#
# number of rings (size 3 to 8) (size 9 to 14) (size 15 to 20)
#    0.000    1.667    2.500    1.500    7.000    2.000 
#    3.000    0.000    0.000    0.000   28.167    0.000 
#    0.000    0.000    0.000    0.000    0.000    0.000 
#
# Total GULP energy -400907.480018 kJ/mol
# GULP energy per Si atom -5568.159445 kJ/mol
# Density = 1.950454 g / cm^3
# Si number density = 19.549032 Si / 1000 Ang^3
#
#
#
# Elastic Constant Matrix: (Units=GPa)
#
#
# Indices 1 2 3 4 5 6 
#
# 1 106.3342 67.8424 32.0682 0.0000 0.0000 0.0000
# 2 67.8424 106.3342 32.0682 0.0000 0.0000 0.0000
# 3 32.0682 32.0682 76.7497 0.0000 0.0000 0.0000
# 4 0.0000 0.0000 0.0000 22.1746 0.0000 0.0000
# 5 0.0000 0.0000 0.0000 0.0000 22.1746 0.0000
# 6 0.0000 0.0000 0.0000 0.0000 0.0000 19.2459
#
#
#
# Elastic Compliance Matrix: (Units=1/GPa)
#
#
# Indices 1 2 3 4 5 6 
#
# 1 0.016382 -0.009597 -0.002835 0.000000 0.000000 0.000000
# 2 -0.009597 0.016382 -0.002835 0.000000 0.000000 0.000000
# 3 -0.002835 -0.002835 0.015399 0.000000 0.000000 0.000000
# 4 0.000000 0.000000 0.000000 0.045097 0.000000 0.000000
# 5 0.000000 0.000000 0.000000 0.000000 0.045097 0.000000
# 6 0.000000 0.000000 0.000000 0.000000 0.000000 0.051959
#
#
# Mechanical properties :
#
#
# Convention : Reuss Voigt Hill
#
# Bulk Modulus (GPa) = 56.72557 61.48619 59.10588
# Shear Modulus (GPa) = 22.05299 23.21496 22.63398
#
# Velocity S-wave (km/s) = 3.36234 3.44979 3.40635
# Velocity P-wave (km/s) = 6.64484 6.88394 6.76544
#
# Compressibility (1/GPa) = 0.01762873
#
# Stress axis : x y z
#
# Youngs Moduli (GPa) = 61.04104 61.04104 64.94129
#
# Poissons Ratio (x) = 0.58582 0.18411
# Poissons Ratio (y) = 0.58582 0.18411
# Poissons Ratio (z) = 0.17306 0.17306
#
# Static dielectric constant tensor:
#      x y z
#    x 1.718720 0.000000 0.000000 
#    y 0.000000 1.718720 0.000000 
#    z 0.000000 0.000000 1.741180 
# 
# From -- ./inp_files/6858.got.cif
#   From: 2010.05.17/outbox.cif.g08.bks.cpg/sg178_4_cif.got.tgz:6858.got - 2010.05.20 11:30:59.
