data_PCOD9582694
_publ_section_title
;
Structure prediction by ZEFSAII (Michael W. Deem and Ramdas Pophale) SiO2 
 PCOD9582694
Probable space group: P 61 2 2
;
_chemical_formula_sum "Si O2"
_cell_formula_units_Z 48
_cell_length_a 18.809123
_cell_length_b 18.809123
_cell_length_c 8.282650
_cell_angle_alpha 90.000000
_cell_angle_beta 90.000000
_cell_angle_gamma 120.000000
_cell_volume 2537.681037
_symmetry_space_group_name_H-M "P 61 2 2"
_symmetry_group_IT_number 178
_symmetry_cell_setting 'hexagonal'
loop_
_space_group_symop_operation_xyz
x,y,z
x-y,x,1/6+z
-y,x-y,1/3+z
-x,-y,1/2+z
-x+y,-x,2/3+z
y,-x+y,5/6+z
x-y,-y,-z
-x,-x+y,2/3-z
y,x,1/3-z
-y,-x,5/6-z
-x+y,y,1/2-z
x,x-y,1/6-z
loop_
_atom_site_type_symbol
_atom_site_label
_atom_site_fract_x
_atom_site_fract_y
_atom_site_fract_z
Si Si1 0.731077 0.055217 0.779123
Si Si2 0.224790 0.347869 0.522296
Si Si3 0.810010 0.329105 0.499272
Si Si4 0.410853 0.931465 0.117065
O O1 0.808173 0.128683 0.686487
O O2 0.644498 0.039374 0.709996
O O3 0.717936 0.963784 0.775505
O O4 0.744566 0.092999 0.960343
O O5 0.275481 0.439564 0.446004
O O6 0.721251 0.278750 0.416667
O O7 0.822170 0.411085 0.583334
O O8 0.865643 0.352176 0.342101
O O9 0.450783 0.901565 0.250000
O O10 0.478907 0.000000 0.000000
#
# Coordination Sequence:
#
# PCOD9582694 Si02
#       4
#    12  12  12  12
#     4  10  21  38  65  89 127 155 206 254 310 375
#     4  10  21  40  62  93 123 162 203 256 312 373
#     4  12  25  42  58  82 123 165 213 256 311 369
#     4  12  24  37  60  88 119 163 203 263 307 365
#
# _framework density 18.914905999999998
#
# number of rings (size 3 to 8) (size 9 to 14) (size 15 to 20)
#    0.000    1.000    5.000    2.250    3.500    1.000 
#    4.500    0.000    0.000    0.000    0.000    0.000 
#   90.000    0.000    0.000    0.000    0.000    0.000 
#
# Total GULP energy -267512.081993 kJ/mol
# GULP energy per Si atom -5573.168375 kJ/mol
# Density = 1.887186 g / cm^3
# Si number density = 18.914906 Si / 1000 Ang^3
#
#
#
# Elastic Constant Matrix: (Units=GPa)
#
#
# Indices 1 2 3 4 5 6 
#
# 1 84.7462 49.4809 25.7073 0.0000 0.0000 0.0000
# 2 49.4809 84.7462 25.7073 0.0000 0.0000 0.0000
# 3 25.7073 25.7073 40.7137 0.0000 0.0000 0.0000
# 4 0.0000 0.0000 0.0000 21.7512 0.0000 0.0000
# 5 0.0000 0.0000 0.0000 0.0000 21.7512 0.0000
# 6 0.0000 0.0000 0.0000 0.0000 0.0000 17.6327
#
#
#
# Elastic Compliance Matrix: (Units=1/GPa)
#
#
# Indices 1 2 3 4 5 6 
#
# 1 0.019092 -0.009265 -0.006205 0.000000 0.000000 0.000000
# 2 -0.009265 0.019092 -0.006205 0.000000 0.000000 0.000000
# 3 -0.006205 -0.006205 0.032397 0.000000 0.000000 0.000000
# 4 0.000000 0.000000 0.000000 0.045974 0.000000 0.000000
# 5 0.000000 0.000000 0.000000 0.000000 0.045974 0.000000
# 6 0.000000 0.000000 0.000000 0.000000 0.000000 0.056713
#
#
# Mechanical properties :
#
#
# Convention : Reuss Voigt Hill
#
# Bulk Modulus (GPa) = 36.72180 45.77744 41.24962
# Shear Modulus (GPa) = 18.40480 19.51441 18.95961
#
# Velocity S-wave (km/s) = 3.12273 3.21549 3.16945
# Velocity P-wave (km/s) = 5.69722 6.16767 5.93710
#
# Compressibility (1/GPa) = 0.02723178
#
# Stress axis : x y z
#
# Youngs Moduli (GPa) = 52.37910 52.37910 30.86671
#
# Poissons Ratio (x) = 0.48528 0.19152
# Poissons Ratio (y) = 0.48528 0.19152
# Poissons Ratio (z) = 0.32500 0.32500
#
# Static dielectric constant tensor:
#      x y z
#    x 1.760800 0.000000 0.000000 
#    y 0.000000 1.760800 0.000000 
#    z 0.000000 0.000000 1.692520 
# 
# From -- ./inp_files/2567.got.cif
#   From: 2010.05.17/outbox.cif.g08.bks.cpg/sg178_2_cif.got.tgz:2567.got - 2010.05.20 11:30:59.
