data_PCOD9582227
_publ_section_title
;
Structure prediction by ZEFSAII (Michael W. Deem and Ramdas Pophale) SiO2 
 PCOD9582227
Probable space group: P 6 2 2
;
_chemical_formula_sum "Si O2"
_cell_formula_units_Z 66
_cell_length_a 16.609133
_cell_length_b 16.609133
_cell_length_c 14.597325
_cell_angle_alpha 90.000000
_cell_angle_beta 90.000000
_cell_angle_gamma 120.000000
_cell_volume 3487.368454
_symmetry_space_group_name_H-M "P 6 2 2"
_symmetry_group_IT_number 177
_symmetry_cell_setting 'hexagonal'
loop_
_space_group_symop_operation_xyz
x,y,z
x-y,x,z
-y,x-y,z
-x,-y,z
-x+y,-x,z
y,-x+y,z
x-y,-y,-z
-x,-x+y,-z
y,x,-z
-y,-x,-z
-x+y,y,-z
x,x-y,-z
loop_
_atom_site_type_symbol
_atom_site_label
_atom_site_fract_x
_atom_site_fract_y
_atom_site_fract_z
Si Si1 0.435428 0.564573 0.500000
Si Si2 0.680098 0.068897 0.622123
Si Si3 0.483086 0.160074 0.807407
Si Si4 0.284564 0.382472 0.996766
Si Si5 0.143151 0.732143 0.608815
Si Si6 0.517858 0.862312 0.186672
O O1 0.518101 0.597390 0.574327
O O2 0.339929 0.512609 0.562287
O O3 0.777736 0.160263 0.591679
O O4 0.676337 0.085051 0.731506
O O5 0.659993 0.966872 0.592115
O O6 0.421403 0.138159 0.717826
O O7 0.559896 0.132117 0.789994
O O8 0.516723 0.268967 0.818026
O O9 0.434608 0.111215 0.901453
O O10 0.339734 0.442222 0.085529
O O11 0.290563 0.290563 0.000000
O O12 0.181438 0.362875 0.000000
#
# Coordination Sequence:
#
# PCOD9582227 Si02
#       6
#     6  12  12  12  12  12
#     4  12  23  40  60  82 112 146 182 226 278 336
#     4  11  23  39  59  83 114 150 189 233 280 331
#     4  10  20  34  53  79 111 146 183 221 264 318
#     4  10  21  35  53  76 103 139 178 220 269 321
#     4  11  23  39  59  83 114 150 189 233 280 331
#     4  10  20  34  53  79 111 146 183 221 264 318
#
# _framework density 18.925443999999999
#
# number of rings (size 3 to 8) (size 9 to 14) (size 15 to 20)
#    0.000    1.455    1.818    4.182    0.000    2.909 
#    4.364    1.818    0.000    0.545    0.000    0.000 
#    0.000   11.636    0.000    0.000    0.000    1.818 
#
# Total GULP energy -367472.054377 kJ/mol
# GULP energy per Si atom -5567.758400 kJ/mol
# Density = 1.888237 g / cm^3
# Si number density = 18.925444 Si / 1000 Ang^3
#
#
#
# Elastic Constant Matrix: (Units=GPa)
#
#
# Indices 1 2 3 4 5 6 
#
# 1 76.6667 93.4440 17.3750 0.0000 0.0000 0.0000
# 2 93.4440 76.6667 17.3750 0.0000 0.0000 0.0000
# 3 17.3750 17.3750 118.0649 0.0000 0.0000 0.0000
# 4 0.0000 0.0000 0.0000 16.0950 0.0000 0.0000
# 5 0.0000 0.0000 0.0000 0.0000 16.0950 0.0000
# 6 0.0000 0.0000 0.0000 0.0000 0.0000 -8.3887
#
#
#
# Elastic Compliance Matrix: (Units=1/GPa)
#
#
# Indices 1 2 3 4 5 6 
#
# 1 -0.026772 0.032832 -0.000892 0.000000 0.000000 0.000000
# 2 0.032832 -0.026772 -0.000892 0.000000 0.000000 0.000000
# 3 -0.000892 -0.000892 0.008732 0.000000 0.000000 0.000000
# 4 0.000000 0.000000 0.000000 0.062131 0.000000 0.000000
# 5 0.000000 0.000000 0.000000 0.000000 0.062131 0.000000
# 6 0.000000 0.000000 0.000000 0.000000 0.000000 -0.119209
#
#
# Mechanical properties :
#
#
# Convention : Reuss Voigt Hill
#
# Bulk Modulus (GPa) = 57.84966 58.64293 58.24629
# Shear Modulus (GPa) = -52.03312 14.30722 -18.86295
#
# Velocity S-wave (km/s) = -5.24914 2.75249 -3.16048
# Velocity P-wave (km/s) = 2.47071 6.41523 4.18633
#
# Compressibility (1/GPa) = 0.01728619
#
# Stress axis : x y z
#
# Youngs Moduli (GPa) = -37.35278 -37.35278 114.51557
#
# Poissons Ratio (x) = 1.22638 0.10214
# Poissons Ratio (y) = 1.22638 0.10214
# Poissons Ratio (z) = -0.03332 -0.03332
#
# Static dielectric constant tensor:
#      x y z
#    x 1.692690 0.000000 0.000000 
#    y 0.000000 1.692690 0.000000 
#    z 0.000000 0.000000 1.794060 
# 
# From -- ./inp_files/2547.got.cif
#   From: 2010.05.17/outbox.cif.g08.bks.cpg/sg177_2_cif.got.tgz:2547.got - 2010.05.20 11:28:44.
