data_PCOD9582453
_publ_section_title
;
Structure prediction by ZEFSAII (Michael W. Deem and Ramdas Pophale) SiO2 
 PCOD9582453
Probable space group: P 61 2 2
;
_chemical_formula_sum "Si O2"
_cell_formula_units_Z 60
_cell_length_a 15.053585
_cell_length_b 15.053585
_cell_length_c 14.645260
_cell_angle_alpha 90.000000
_cell_angle_beta 90.000000
_cell_angle_gamma 120.000000
_cell_volume 2874.137864
_symmetry_space_group_name_H-M "P 61 2 2"
_symmetry_group_IT_number 178
_symmetry_cell_setting 'hexagonal'
loop_
_space_group_symop_operation_xyz
x,y,z
x-y,x,1/6+z
-y,x-y,1/3+z
-x,-y,1/2+z
-x+y,-x,2/3+z
y,-x+y,5/6+z
x-y,-y,-z
-x,-x+y,2/3-z
y,x,1/3-z
-y,-x,5/6-z
-x+y,y,1/2-z
x,x-y,1/6-z
loop_
_atom_site_type_symbol
_atom_site_label
_atom_site_fract_x
_atom_site_fract_y
_atom_site_fract_z
Si Si1 0.267644 0.384603 0.186971
Si Si2 0.317140 0.080077 0.707663
Si Si3 0.141819 0.390121 0.025971
Si Si4 0.416940 0.529021 0.619291
Si Si5 0.246226 0.753775 0.416667
Si Si6 0.146760 0.073380 0.583334
O O1 0.303681 0.303681 0.166667
O O2 0.168861 0.337721 0.250000
O O3 0.233141 0.423283 0.097936
O O4 0.364674 0.481118 0.233491
O O5 0.323492 0.156251 0.787000
O O6 0.419870 0.150909 0.649819
O O7 0.225945 0.049258 0.635591
O O8 0.296147 0.969834 0.739943
O O9 0.131734 0.474694 0.966493
O O10 0.454082 0.454082 0.666667
O O11 0.346982 0.550091 0.689474
O O12 0.084071 0.084071 0.666667
#
# Coordination Sequence:
#
# PCOD9582453 Si02
#       6
#    12  12  12  12   6   6
#     4  11  26  47  68  95 135 181 223 276 344 426
#     4  10  19  32  62  96 124 171 218 271 333 399
#     4  11  21  39  66  94 127 177 220 277 342 406
#     4  10  21  39  63  98 133 165 220 279 333 401
#     4   9  18  32  60  98 130 154 210 284 325 372
#     4  11  20  34  56  96 140 166 226 290 343 390
#
# _framework density 20.875826
#
# number of rings (size 3 to 8) (size 9 to 14) (size 15 to 20)
#    0.000    1.600    4.000    1.200    0.000    2.400 
#    0.000    4.000    0.000    0.000    0.000    0.000 
#    0.000    0.000    0.000    0.000    0.000    0.000 
#
# Total GULP energy -334473.482430 kJ/mol
# GULP energy per Si atom -5574.558040 kJ/mol
# Density = 2.082831 g / cm^3
# Si number density = 20.875826 Si / 1000 Ang^3
#
#
#
# Elastic Constant Matrix: (Units=GPa)
#
#
# Indices 1 2 3 4 5 6 
#
# 1 98.1202 61.5904 34.4191 0.0000 0.0000 0.0000
# 2 61.5904 98.1202 34.4191 0.0000 0.0000 0.0000
# 3 34.4191 34.4191 70.1417 0.0000 0.0000 0.0000
# 4 0.0000 0.0000 0.0000 23.8209 0.0000 0.0000
# 5 0.0000 0.0000 0.0000 0.0000 23.8209 0.0000
# 6 0.0000 0.0000 0.0000 0.0000 0.0000 18.2649
#
#
#
# Elastic Compliance Matrix: (Units=1/GPa)
#
#
# Indices 1 2 3 4 5 6 
#
# 1 0.017658 -0.009717 -0.003897 0.000000 0.000000 0.000000
# 2 -0.009717 0.017658 -0.003897 0.000000 0.000000 0.000000
# 3 -0.003897 -0.003897 0.018081 0.000000 0.000000 0.000000
# 4 0.000000 0.000000 0.000000 0.041980 0.000000 0.000000
# 5 0.000000 0.000000 0.000000 0.000000 0.041980 0.000000
# 6 0.000000 0.000000 0.000000 0.000000 0.000000 0.054750
#
#
# Mechanical properties :
#
#
# Convention : Reuss Voigt Hill
#
# Bulk Modulus (GPa) = 54.41815 58.58215 56.50015
# Shear Modulus (GPa) = 21.43597 22.24488 21.84042
#
# Velocity S-wave (km/s) = 3.20790 3.26786 3.23802
# Velocity P-wave (km/s) = 6.31229 6.50859 6.41119
#
# Compressibility (1/GPa) = 0.01837622
#
# Stress axis : x y z
#
# Youngs Moduli (GPa) = 56.63190 56.63190 55.30640
#
# Poissons Ratio (x) = 0.55029 0.21551
# Poissons Ratio (y) = 0.55029 0.21551
# Poissons Ratio (z) = 0.22067 0.22067
#
# Static dielectric constant tensor:
#      x y z
#    x 1.742310 0.000000 0.000000 
#    y 0.000000 1.742310 0.000000 
#    z 0.000000 0.000000 1.792140 
# 
# From -- ./inp_files/5740.got.cif
#   From: 2010.05.17/outbox.cif.g08.bks.cpg/sg178_3_cif.got.tgz:5740.got - 2010.05.20 11:30:59.
