data_PCOD9582714
_publ_section_title
;
Structure prediction by ZEFSAII (Michael W. Deem and Ramdas Pophale) SiO2 
 PCOD9582714
Probable space group: P 61 2 2
;
_chemical_formula_sum "Si O2"
_cell_formula_units_Z 48
_cell_length_a 16.495353
_cell_length_b 16.495353
_cell_length_c 8.869067
_cell_angle_alpha 90.000000
_cell_angle_beta 90.000000
_cell_angle_gamma 120.000000
_cell_volume 2089.930265
_symmetry_space_group_name_H-M "P 61 2 2"
_symmetry_group_IT_number 178
_symmetry_cell_setting 'hexagonal'
loop_
_space_group_symop_operation_xyz
x,y,z
x-y,x,1/6+z
-y,x-y,1/3+z
-x,-y,1/2+z
-x+y,-x,2/3+z
y,-x+y,5/6+z
x-y,-y,-z
-x,-x+y,2/3-z
y,x,1/3-z
-y,-x,5/6-z
-x+y,y,1/2-z
x,x-y,1/6-z
loop_
_atom_site_type_symbol
_atom_site_label
_atom_site_fract_x
_atom_site_fract_y
_atom_site_fract_z
Si Si1 0.470654 0.071660 0.874440
Si Si2 0.197939 0.806653 0.595307
Si Si3 0.941573 0.814593 0.489636
Si Si4 0.580227 0.229232 0.454623
O O1 0.518353 0.036705 0.750000
O O2 0.417844 0.119108 0.798528
O O3 0.557236 0.150747 0.969309
O O4 0.408552 0.000000 0.000000
O O5 0.183108 0.816893 0.416667
O O6 0.179284 0.881998 0.678734
O O7 0.297507 0.812581 0.643717
O O8 0.870834 0.853318 0.452336
O O9 0.000000 0.833418 0.333334
O O10 0.681774 0.318227 0.416667
O O11 0.547688 0.273844 0.583334
#
# Coordination Sequence:
#
# PCOD9582714 Si02
#       4
#    12  12  12  12
#     4  12  26  45  68 110 148 192 248 309 374 443
#     4  11  20  40  69  95 137 184 241 292 361 441
#     4  10  21  40  67  99 122 170 240 286 362 446
#     4  11  20  41  71  97 137 192 251 285 353 445
#
# _framework density 22.967272999999999
#
# number of rings (size 3 to 8) (size 9 to 14) (size 15 to 20)
#    0.000    1.000   10.000    0.000    0.000    4.000 
#    4.500    6.250    0.000    0.000    0.000    0.000 
#    0.000    0.000    0.000    0.000    0.000    0.000 
#
# Total GULP energy -267834.000006 kJ/mol
# GULP energy per Si atom -5579.875000 kJ/mol
# Density = 2.291500 g / cm^3
# Si number density = 22.967273 Si / 1000 Ang^3
#
#
#
# Elastic Constant Matrix: (Units=GPa)
#
#
# Indices 1 2 3 4 5 6 
#
# 1 113.8707 30.9824 38.2313 0.0000 0.0000 0.0000
# 2 30.9824 113.8707 38.2313 0.0000 0.0000 0.0000
# 3 38.2313 38.2313 55.5493 0.0000 0.0000 0.0000
# 4 0.0000 0.0000 0.0000 12.4556 0.0000 0.0000
# 5 0.0000 0.0000 0.0000 0.0000 12.4556 0.0000
# 6 0.0000 0.0000 0.0000 0.0000 0.0000 41.4442
#
#
#
# Elastic Compliance Matrix: (Units=1/GPa)
#
#
# Indices 1 2 3 4 5 6 
#
# 1 0.011454 -0.000611 -0.007462 0.000000 0.000000 0.000000
# 2 -0.000611 0.011454 -0.007462 0.000000 0.000000 0.000000
# 3 -0.007462 -0.007462 0.028274 0.000000 0.000000 0.000000
# 4 0.000000 0.000000 0.000000 0.080285 0.000000 0.000000
# 5 0.000000 0.000000 0.000000 0.000000 0.080285 0.000000
# 6 0.000000 0.000000 0.000000 0.000000 0.000000 0.024129
#
#
# Mechanical properties :
#
#
# Convention : Reuss Voigt Hill
#
# Bulk Modulus (GPa) = 49.72728 55.35345 52.54036
# Shear Modulus (GPa) = 18.27125 24.99414 21.63269
#
# Velocity S-wave (km/s) = 2.82358 3.30244 3.07236
# Velocity P-wave (km/s) = 5.68582 6.22052 5.95917
#
# Compressibility (1/GPa) = 0.02010969
#
# Stress axis : x y z
#
# Youngs Moduli (GPa) = 87.30927 87.30927 35.36841
#
# Poissons Ratio (x) = 0.05334 0.26393
# Poissons Ratio (y) = 0.05334 0.26393
# Poissons Ratio (z) = 0.65153 0.65153
#
# Static dielectric constant tensor:
#      x y z
#    x 1.878120 0.000000 0.000000 
#    y 0.000000 1.878120 0.000000 
#    z 0.000000 0.000000 1.959480 
# 
# From -- ./inp_files/2526.got.cif
#   From: 2010.05.17/outbox.cif.g08.bks.cpg/sg178_2_cif.got.tgz:2526.got - 2010.05.20 11:30:59.
