data_PCOD9582078
_publ_section_title
;
Structure prediction by ZEFSAII (Michael W. Deem and Ramdas Pophale) SiO2 
 PCOD9582078
Probable space group: P 63/M
;
_chemical_formula_sum "Si O2"
_cell_formula_units_Z 28
_cell_length_a 8.215162
_cell_length_b 8.215162
_cell_length_c 24.548402
_cell_angle_alpha 90.000000
_cell_angle_beta 90.000000
_cell_angle_gamma 120.000000
_cell_volume 1434.782669
_symmetry_space_group_name_H-M "P 63/M"
_symmetry_group_IT_number 176
_symmetry_cell_setting 'hexagonal'
loop_
_space_group_symop_operation_xyz
x,y,z
x-y,x,1/2+z
-y,x-y,z
-x,-y,1/2+z
-x+y,-x,z
y,-x+y,1/2+z
-x,-y,-z
-x+y,-x,1/2-z
y,-x+y,-z
x,y,1/2-z
x-y,x,-z
-y,x-y,1/2-z
loop_
_atom_site_type_symbol
_atom_site_label
_atom_site_fract_x
_atom_site_fract_y
_atom_site_fract_z
Si Si1 0.199529 0.773411 0.859475
Si Si2 0.047170 0.701166 0.979474
Si Si3 0.000000 0.000000 0.314963
O O1 0.130425 0.553167 0.845296
O O2 0.165733 0.762718 0.924519
O O3 0.094635 0.876897 0.834951
O O4 0.000000 0.500000 0.000000
O O5 0.850552 0.692925 0.973184
O O6 0.000000 0.000000 0.250000
#
# Coordination Sequence:
#
# PCOD9582078 Si02
#       3
#    12  12   4
#     4  10  23  46  67 100 139 178 228 291 344 417
#     4  12  21  37  61  96 139 183 223 264 336 420
#     4  12  27  48  73  95 130 183 234 303 364 398
#
# _framework density 19.515150999999999
#
# number of rings (size 3 to 8) (size 9 to 14) (size 15 to 20)
#    0.857    0.000    4.286    3.857    0.000    1.714 
#    2.571    0.000    0.000    0.000    0.000    0.000 
#    0.000    0.000    0.000    0.000    0.000    0.000 
#
# Total GULP energy -155912.782251 kJ/mol
# GULP energy per Si atom -5568.313652 kJ/mol
# Density = 1.947073 g / cm^3
# Si number density = 19.515151 Si / 1000 Ang^3
#
#
#
# Elastic Constant Matrix: (Units=GPa)
#
#
# Indices 1 2 3 4 5 6 
#
# 1 166.1247 84.1371 45.8567 0.0000 0.0000 0.0000
# 2 84.1371 166.1247 45.8567 0.0000 0.0000 0.0000
# 3 45.8567 45.8567 87.1283 0.0000 0.0000 0.0000
# 4 0.0000 0.0000 0.0000 18.4035 0.0000 0.0000
# 5 0.0000 0.0000 0.0000 0.0000 18.4035 0.0000
# 6 0.0000 0.0000 0.0000 0.0000 0.0000 40.9938
#
#
#
# Elastic Compliance Matrix: (Units=1/GPa)
#
#
# Indices 1 2 3 4 5 6 
#
# 1 0.008574 -0.003623 -0.002606 0.000000 0.000000 0.000000
# 2 -0.003623 0.008574 -0.002606 0.000000 0.000000 0.000000
# 3 -0.002606 -0.002606 0.014220 0.000000 0.000000 0.000000
# 4 0.000000 0.000000 0.000000 0.054337 0.000000 0.000000
# 5 0.000000 0.000000 0.000000 0.000000 0.054337 0.000000
# 6 0.000000 0.000000 0.000000 0.000000 0.000000 0.024394
#
#
# Mechanical properties :
#
#
# Convention : Reuss Voigt Hill
#
# Bulk Modulus (GPa) = 72.99804 85.67542 79.33673
# Shear Modulus (GPa) = 26.78504 31.79533 29.29019
#
# Velocity S-wave (km/s) = 3.70878 4.04079 3.87834
# Velocity P-wave (km/s) = 7.47175 8.10975 7.79728
#
# Compressibility (1/GPa) = 0.01369900
#
# Stress axis : x y z
#
# Youngs Moduli (GPa) = 116.63403 116.63403 70.32322
#
# Poissons Ratio (x) = 0.42258 0.18323
# Poissons Ratio (y) = 0.42258 0.18323
# Poissons Ratio (z) = 0.30390 0.30390
#
# Static dielectric constant tensor:
#      x y z
#    x 1.786020 0.000000 0.000000 
#    y 0.000000 1.786020 0.000000 
#    z 0.000000 0.000000 1.666650 
# 
# From -- ./inp_files/3924.got.cif
#   From: 2010.05.17/outbox.cif.g08.bks.cpg/sg176_2_cif.got.tgz:3924.got - 2010.06.03 11:36:45.
