data_PCOD9582494
_publ_section_title
;
Structure prediction by ZEFSAII (Michael W. Deem and Ramdas Pophale) SiO2 
 PCOD9582494
Probable space group: P 61 2 2
;
_chemical_formula_sum "Si O2"
_cell_formula_units_Z 54
_cell_length_a 13.210278
_cell_length_b 13.210278
_cell_length_c 14.569806
_cell_angle_alpha 90.000000
_cell_angle_beta 90.000000
_cell_angle_gamma 120.000000
_cell_volume 2201.954370
_symmetry_space_group_name_H-M "P 61 2 2"
_symmetry_group_IT_number 178
_symmetry_cell_setting 'hexagonal'
loop_
_space_group_symop_operation_xyz
x,y,z
x-y,x,1/6+z
-y,x-y,1/3+z
-x,-y,1/2+z
-x+y,-x,2/3+z
y,-x+y,5/6+z
x-y,-y,-z
-x,-x+y,2/3-z
y,x,1/3-z
-y,-x,5/6-z
-x+y,y,1/2-z
x,x-y,1/6-z
loop_
_atom_site_type_symbol
_atom_site_label
_atom_site_fract_x
_atom_site_fract_y
_atom_site_fract_z
Si Si1 0.858415 0.858415 0.166667
Si Si2 0.466638 0.490266 0.807073
Si Si3 0.277521 0.750066 0.125447
Si Si4 0.279610 0.374326 0.314260
Si Si5 0.879536 0.641644 0.105052
O O1 0.950375 0.900750 0.250000
O O2 0.846234 0.736051 0.135242
O O3 0.454971 0.596896 0.769996
O O4 0.595795 0.520466 0.773010
O O5 0.333304 0.384680 0.813682
O O6 0.492389 0.507611 0.916667
O O7 0.276518 0.638259 0.083334
O O8 0.253094 0.772169 0.231556
O O9 0.174047 0.750270 0.070284
O O10 0.169011 0.338022 0.250000
O O11 0.306193 0.275870 0.352017
#
# Coordination Sequence:
#
# PCOD9582494 Si02
#       5
#     6  12  12  12  12
#     4  12  28  50  78 106 138 200 268 326 400 484
#     4   8  19  38  59  90 134 178 225 291 363 433
#     4  10  19  36  63  94 136 187 234 287 355 439
#     4  10  20  35  64 102 138 178 228 295 367 437
#     4  10  23  45  67  96 145 188 235 305 377 455
#
# _framework density 24.523669000000002
#
# number of rings (size 3 to 8) (size 9 to 14) (size 15 to 20)
#    0.000    2.667    0.000    3.333    0.000    8.000 
#    0.000    6.667    0.000    0.000    0.000    0.000 
#    0.000    7.111    0.000    0.000    0.000    0.000 
#
# Total GULP energy -300789.704527 kJ/mol
# GULP energy per Si atom -5570.179713 kJ/mol
# Density = 2.446785 g / cm^3
# Si number density = 24.523669 Si / 1000 Ang^3
#
#
#
# Elastic Constant Matrix: (Units=GPa)
#
#
# Indices 1 2 3 4 5 6 
#
# 1 146.3744 67.9494 46.2714 0.0000 0.0000 0.0000
# 2 67.9494 146.3744 46.2714 0.0000 0.0000 0.0000
# 3 46.2714 46.2714 81.6837 0.0000 0.0000 0.0000
# 4 0.0000 0.0000 0.0000 32.0711 0.0000 0.0000
# 5 0.0000 0.0000 0.0000 0.0000 32.0711 0.0000
# 6 0.0000 0.0000 0.0000 0.0000 0.0000 39.2125
#
#
#
# Elastic Compliance Matrix: (Units=1/GPa)
#
#
# Indices 1 2 3 4 5 6 
#
# 1 0.009464 -0.003287 -0.003499 0.000000 0.000000 0.000000
# 2 -0.003287 0.009464 -0.003499 0.000000 0.000000 0.000000
# 3 -0.003499 -0.003499 0.016206 0.000000 0.000000 0.000000
# 4 0.000000 0.000000 0.000000 0.031181 0.000000 0.000000
# 5 0.000000 0.000000 0.000000 0.000000 0.031181 0.000000
# 6 0.000000 0.000000 0.000000 0.000000 0.000000 0.025502
#
#
# Mechanical properties :
#
#
# Convention : Reuss Voigt Hill
#
# Bulk Modulus (GPa) = 68.66193 77.26852 72.96523
# Shear Modulus (GPa) = 33.68770 34.93363 34.31067
#
# Velocity S-wave (km/s) = 3.71034 3.77833 3.74449
# Velocity P-wave (km/s) = 6.81282 7.11411 6.96509
#
# Compressibility (1/GPa) = 0.01456411
#
# Stress axis : x y z
#
# Youngs Moduli (GPa) = 105.66557 105.66557 61.70422
#
# Poissons Ratio (x) = 0.34734 0.21589
# Poissons Ratio (y) = 0.34734 0.21589
# Poissons Ratio (z) = 0.36971 0.36971
#
# Static dielectric constant tensor:
#      x y z
#    x 2.019740 0.000000 0.000000 
#    y 0.000000 2.019740 0.000000 
#    z 0.000000 0.000000 2.037580 
# 
# From -- ./inp_files/5585.got.cif
#   From: 2010.05.17/outbox.cif.g08.bks.cpg/sg178_3_cif.got.tgz:5585.got - 2010.05.20 11:30:59.
