data_PCOD9582847
_publ_section_title
;
Structure prediction by ZEFSAII (Michael W. Deem and Ramdas Pophale) SiO2 
 PCOD9582847
Probable space group: P 61 2 2
;
_chemical_formula_sum "Si O2"
_cell_formula_units_Z 42
_cell_length_a 14.179689
_cell_length_b 14.179689
_cell_length_c 10.041597
_cell_angle_alpha 90.000000
_cell_angle_beta 90.000000
_cell_angle_gamma 120.000000
_cell_volume 1748.504808
_symmetry_space_group_name_H-M "P 61 2 2"
_symmetry_group_IT_number 178
_symmetry_cell_setting 'hexagonal'
loop_
_space_group_symop_operation_xyz
x,y,z
x-y,x,1/6+z
-y,x-y,1/3+z
-x,-y,1/2+z
-x+y,-x,2/3+z
y,-x+y,5/6+z
x-y,-y,-z
-x,-x+y,2/3-z
y,x,1/3-z
-y,-x,5/6-z
-x+y,y,1/2-z
x,x-y,1/6-z
loop_
_atom_site_type_symbol
_atom_site_label
_atom_site_fract_x
_atom_site_fract_y
_atom_site_fract_z
Si Si1 0.768269 0.384135 0.083334
Si Si2 0.797228 0.830470 0.377899
Si Si3 0.193322 0.386644 0.250000
Si Si4 0.000000 0.664137 0.333334
Si Si5 0.568481 0.414167 0.710109
O O1 0.832102 0.437530 0.216835
O O2 0.682402 0.422828 0.052778
O O3 0.836379 0.941270 0.296425
O O4 0.695807 0.819272 0.465228
O O5 0.753034 0.723892 0.283130
O O6 0.323707 0.469665 0.230398
O O7 0.932290 0.552356 0.415631
#
# Coordination Sequence:
#
# PCOD9582847 Si02
#       5
#     6  12   6   6  12
#     4   9  20  40  68  94 158 196 248 289 384 474
#     4  12  30  56  81 114 156 214 288 352 417 477
#     4  11  26  50  78 120 162 214 260 335 414 496
#     4  12  28  44  80 114 154 200 266 342 412 498
#     4  10  23  41  71 113 152 206 246 316 393 496
#
# _framework density 24.020524000000002
#
# number of rings (size 3 to 8) (size 9 to 14) (size 15 to 20)
#    0.000    1.143    0.000    3.429   16.000    3.429 
#   15.429    0.000    0.000    0.000    0.000    0.000 
#    0.000    0.000    0.000    0.000    0.000    0.000 
#
# Total GULP energy -234214.302672 kJ/mol
# GULP energy per Si atom -5576.531016 kJ/mol
# Density = 2.396585 g / cm^3
# Si number density = 24.020524 Si / 1000 Ang^3
#
#
#
# Elastic Constant Matrix: (Units=GPa)
#
#
# Indices 1 2 3 4 5 6 
#
# 1 139.2753 104.3385 35.1108 0.0000 0.0000 0.0000
# 2 104.3385 139.2753 35.1108 0.0000 0.0000 0.0000
# 3 35.1108 35.1108 89.5965 0.0000 0.0000 0.0000
# 4 0.0000 0.0000 0.0000 33.6035 0.0000 0.0000
# 5 0.0000 0.0000 0.0000 0.0000 33.6035 0.0000
# 6 0.0000 0.0000 0.0000 0.0000 0.0000 17.4684
#
#
#
# Elastic Compliance Matrix: (Units=1/GPa)
#
#
# Indices 1 2 3 4 5 6 
#
# 1 0.016625 -0.011998 -0.001813 0.000000 0.000000 0.000000
# 2 -0.011998 0.016625 -0.001813 0.000000 0.000000 0.000000
# 3 -0.001813 -0.001813 0.012582 0.000000 0.000000 0.000000
# 4 0.000000 0.000000 0.000000 0.029759 0.000000 0.000000
# 5 0.000000 0.000000 0.000000 0.000000 0.029759 0.000000
# 6 0.000000 0.000000 0.000000 0.000000 0.000000 0.057246
#
#
# Mechanical properties :
#
#
# Convention : Reuss Voigt Hill
#
# Bulk Modulus (GPa) = 68.56908 79.69639 74.13273
# Shear Modulus (GPa) = 25.16260 29.84088 27.50174
#
# Velocity S-wave (km/s) = 3.24009 3.52846 3.38735
# Velocity P-wave (km/s) = 6.52730 7.06049 6.79912
#
# Compressibility (1/GPa) = 0.01458383
#
# Stress axis : x y z
#
# Youngs Moduli (GPa) = 60.14910 60.14910 79.47580
#
# Poissons Ratio (x) = 0.72166 0.14412
# Poissons Ratio (y) = 0.72166 0.14412
# Poissons Ratio (z) = 0.10908 0.10908
#
# Static dielectric constant tensor:
#      x y z
#    x 0.782980 0.000000 0.000000 
#    y 0.000000 0.782980 0.000000 
#    z 0.000000 0.000000 1.980640 
# 
# From -- ./inp_files/4053.got.cif
#   From: 2010.05.17/outbox.cif.g08.bks.cpg/sg178_3_cif.got.tgz:4053.got - 2010.05.20 11:30:59.
