data_PCOD9582014
_publ_section_title
;
Structure prediction by ZEFSAII (Michael W. Deem and Ramdas Pophale) SiO2 
 PCOD9582014
Probable space group: P 63/M
;
_chemical_formula_sum "Si O2"
_cell_formula_units_Z 64
_cell_length_a 14.153813
_cell_length_b 14.153813
_cell_length_c 18.540564
_cell_angle_alpha 90.000000
_cell_angle_beta 90.000000
_cell_angle_gamma 120.000000
_cell_volume 3216.625346
_symmetry_space_group_name_H-M "P 63/M"
_symmetry_group_IT_number 176
_symmetry_cell_setting 'hexagonal'
loop_
_space_group_symop_operation_xyz
x,y,z
x-y,x,1/2+z
-y,x-y,z
-x,-y,1/2+z
-x+y,-x,z
y,-x+y,1/2+z
-x,-y,-z
-x+y,-x,1/2-z
y,-x+y,-z
x,y,1/2-z
x-y,x,-z
-y,x-y,1/2-z
loop_
_atom_site_type_symbol
_atom_site_label
_atom_site_fract_x
_atom_site_fract_y
_atom_site_fract_z
Si Si1 0.329940 0.165952 0.013136
Si Si2 0.142541 0.048077 0.896280
Si Si3 0.333334 0.666667 0.837945
Si Si4 0.308194 0.251235 0.168739
Si Si5 0.080898 0.538018 0.666755
Si Si6 0.603493 0.009683 0.540345
O O1 0.322613 0.194867 0.096819
O O2 0.379683 0.087745 0.012096
O O3 0.216942 0.099329 0.967478
O O4 0.400190 0.282563 0.974896
O O5 0.226605 0.042555 0.840361
O O6 0.075233 0.111733 0.889412
O O7 0.333334 0.666668 0.750000
O O8 0.391468 0.793170 0.860876
O O9 0.320021 0.215421 0.250000
O O10 0.407872 0.374833 0.161875
O O11 0.086199 0.567077 0.750000
O O12 0.012047 0.578742 0.622736
O O13 0.500000 0.000000 0.500000
#
# Coordination Sequence:
#
# PCOD9582014 Si02
#       6
#    12  12   4  12  12  12
#     4  12  23  41  70  97 129 180 220 275 336 407
#     4  10  24  40  65  92 136 183 217 263 330 397
#     4   9  18  33  60  93 123 165 205 263 343 387
#     4  11  23  41  64  95 132 174 223 274 330 398
#     4  10  21  40  64  93 131 167 214 278 337 394
#     4  12  25  43  66 100 131 168 227 271 337 403
#
# _framework density 19.896626999999999
#
# number of rings (size 3 to 8) (size 9 to 14) (size 15 to 20)
#    0.375    0.750    3.750    2.250    0.000    3.750 
#    1.125    0.938    0.000    0.000    0.000    0.000 
#    0.000    0.000    0.000    0.000    0.000    0.000 
#
# Total GULP energy -356314.834290 kJ/mol
# GULP energy per Si atom -5567.419286 kJ/mol
# Density = 1.985134 g / cm^3
# Si number density = 19.896627 Si / 1000 Ang^3
#
#
#
# Elastic Constant Matrix: (Units=GPa)
#
#
# Indices 1 2 3 4 5 6 
#
# 1 45.8513 3.4943 9.5983 0.0000 0.0000 0.0002
# 2 3.4943 45.8519 9.5982 0.0000 0.0000 0.0002
# 3 9.5983 9.5982 74.4121 0.0000 0.0000 0.0001
# 4 0.0000 0.0000 0.0000 30.8155 0.0000 0.0000
# 5 0.0000 0.0000 0.0000 0.0000 30.8154 0.0000
# 6 0.0002 0.0002 0.0001 0.0000 0.0000 21.1786
#
#
#
# Elastic Compliance Matrix: (Units=1/GPa)
#
#
# Indices 1 2 3 4 5 6 
#
# 1 0.022472 -0.001137 -0.002752 0.000000 0.000000 0.000000
# 2 -0.001137 0.022472 -0.002752 0.000000 0.000000 0.000000
# 3 -0.002752 -0.002752 0.014149 0.000000 0.000000 0.000000
# 4 0.000000 0.000000 0.000000 0.032451 0.000000 0.000000
# 5 0.000000 0.000000 0.000000 0.000000 0.032451 0.000000
# 6 0.000000 0.000000 0.000000 0.000000 0.000000 0.047218
#
#
# Mechanical properties :
#
#
# Convention : Reuss Voigt Hill
#
# Bulk Modulus (GPa) = 21.82842 23.49967 22.66404
# Shear Modulus (GPa) = 25.02943 26.12353 25.57648
#
# Velocity S-wave (km/s) = 3.55064 3.62741 3.58923
# Velocity P-wave (km/s) = 5.27296 5.42040 5.34719
#
# Compressibility (1/GPa) = 0.04581184
#
# Stress axis : x y z
#
# Youngs Moduli (GPa) = 44.49917 44.49969 70.67820
#
# Poissons Ratio (x) = 0.05057 0.19451
# Poissons Ratio (y) = 0.05057 0.19451
# Poissons Ratio (z) = 0.12246 0.12246
#
# Static dielectric constant tensor:
#      x y z
#    x 1.738420 0.000000 0.000000 
#    y 0.000000 1.738420 0.000000 
#    z 0.000000 0.000000 1.764470 
# 
# From -- ./inp_files/3331.got.cif
#   From: 2010.05.17/outbox.cif.g08.bks.cpg/sg176_2_cif.got.tgz:3331.got - 2010.06.03 11:36:45.
