data_PCOD9582718
_publ_section_title
;
Structure prediction by ZEFSAII (Michael W. Deem and Ramdas Pophale) SiO2 
 PCOD9582718
Probable space group: P 61 2 2
;
_chemical_formula_sum "Si O2"
_cell_formula_units_Z 36
_cell_length_a 13.284391
_cell_length_b 13.284391
_cell_length_c 9.347704
_cell_angle_alpha 90.000000
_cell_angle_beta 90.000000
_cell_angle_gamma 120.000000
_cell_volume 1428.627096
_symmetry_space_group_name_H-M "P 61 2 2"
_symmetry_group_IT_number 178
_symmetry_cell_setting 'hexagonal'
loop_
_space_group_symop_operation_xyz
x,y,z
x-y,x,1/6+z
-y,x-y,1/3+z
-x,-y,1/2+z
-x+y,-x,2/3+z
y,-x+y,5/6+z
x-y,-y,-z
-x,-x+y,2/3-z
y,x,1/3-z
-y,-x,5/6-z
-x+y,y,1/2-z
x,x-y,1/6-z
loop_
_atom_site_type_symbol
_atom_site_label
_atom_site_fract_x
_atom_site_fract_y
_atom_site_fract_z
Si Si1 0.730097 0.525645 0.586587
Si Si2 0.152929 0.938118 0.154575
Si Si3 0.525090 0.863086 0.004878
O O1 0.772429 0.544857 0.750000
O O2 0.757470 0.648887 0.523388
O O3 0.594923 0.430803 0.586423
O O4 0.807277 0.492915 0.486327
O O5 0.180582 0.019174 0.293301
O O6 0.171249 0.000000 0.000000
O O7 0.569459 0.784730 0.083334
O O8 0.612136 0.000000 0.000000
#
# Coordination Sequence:
#
# PCOD9582718 Si02
#       3
#    12  12  12
#     4  12  25  48  77 113 153 210 273 332 425 502
#     4  10  21  41  72 107 144 204 264 326 405 494
#     4  12  30  51  78 120 161 213 276 348 422 508
#
# _framework density 25.199016
#
# number of rings (size 3 to 8) (size 9 to 14) (size 15 to 20)
#    0.000    0.667    3.333    5.000    4.667    2.667 
#    0.000    8.333    0.000    0.000    0.000    0.000 
#    0.000    0.000    0.000    0.000    0.000    0.000 
#
# Total GULP energy -201507.601514 kJ/mol
# GULP energy per Si atom -5597.433375 kJ/mol
# Density = 2.514166 g / cm^3
# Si number density = 25.199016 Si / 1000 Ang^3
#
#
#
# Elastic Constant Matrix: (Units=GPa)
#
#
# Indices 1 2 3 4 5 6 
#
# 1 148.7319 106.3847 43.3334 0.0000 0.0000 0.0000
# 2 106.3847 148.7319 43.3334 0.0000 0.0000 0.0000
# 3 43.3334 43.3334 127.0997 0.0000 0.0000 0.0000
# 4 0.0000 0.0000 0.0000 7.4572 0.0000 0.0000
# 5 0.0000 0.0000 0.0000 0.0000 7.4572 0.0000
# 6 0.0000 0.0000 0.0000 0.0000 0.0000 21.1736
#
#
#
# Elastic Compliance Matrix: (Units=1/GPa)
#
#
# Indices 1 2 3 4 5 6 
#
# 1 0.014024 -0.009591 -0.001511 0.000000 0.000000 0.000000
# 2 -0.009591 0.014024 -0.001511 0.000000 0.000000 0.000000
# 3 -0.001511 -0.001511 0.008898 0.000000 0.000000 0.000000
# 4 0.000000 0.000000 0.000000 0.134099 0.000000 0.000000
# 5 0.000000 0.000000 0.000000 0.000000 0.134099 0.000000
# 6 0.000000 0.000000 0.000000 0.000000 0.000000 0.047229
#
#
# Mechanical properties :
#
#
# Convention : Reuss Voigt Hill
#
# Bulk Modulus (GPa) = 85.33089 90.07406 87.70247
# Shear Modulus (GPa) = 13.10594 22.65171 17.87883
#
# Velocity S-wave (km/s) = 2.28304 3.00144 2.66654
# Velocity P-wave (km/s) = 6.39421 6.91623 6.66034
#
# Compressibility (1/GPa) = 0.01171909
#
# Stress axis : x y z
#
# Youngs Moduli (GPa) = 71.30738 71.30738 112.37868
#
# Poissons Ratio (x) = 0.68388 0.16986
# Poissons Ratio (y) = 0.68388 0.16986
# Poissons Ratio (z) = 0.10778 0.10778
#
# Static dielectric constant tensor:
#      x y z
#    x 2.067820 0.000000 0.000000 
#    y 0.000000 2.067820 0.000000 
#    z 0.000000 0.000000 2.156960 
# 
# From -- ./inp_files/2133.got.cif
#   From: 2010.05.17/outbox.cif.g08.bks.cpg/sg178_2_cif.got.tgz:2133.got - 2010.05.20 11:30:59.
