data_PCOD9582488
_publ_section_title
;
Structure prediction by ZEFSAII (Michael W. Deem and Ramdas Pophale) SiO2 
 PCOD9582488
Probable space group: P 61 2 2
;
_chemical_formula_sum "Si O2"
_cell_formula_units_Z 60
_cell_length_a 11.747236
_cell_length_b 11.747236
_cell_length_c 25.254483
_cell_angle_alpha 90.000000
_cell_angle_beta 90.000000
_cell_angle_gamma 120.000000
_cell_volume 3018.147785
_symmetry_space_group_name_H-M "P 61 2 2"
_symmetry_group_IT_number 178
_symmetry_cell_setting 'hexagonal'
loop_
_space_group_symop_operation_xyz
x,y,z
x-y,x,1/6+z
-y,x-y,1/3+z
-x,-y,1/2+z
-x+y,-x,2/3+z
y,-x+y,5/6+z
x-y,-y,-z
-x,-x+y,2/3-z
y,x,1/3-z
-y,-x,5/6-z
-x+y,y,1/2-z
x,x-y,1/6-z
loop_
_atom_site_type_symbol
_atom_site_label
_atom_site_fract_x
_atom_site_fract_y
_atom_site_fract_z
Si Si1 0.139101 0.391170 0.955017
Si Si2 0.313159 0.802487 0.866856
Si Si3 0.857325 0.249461 0.009615
Si Si4 0.574247 0.391009 0.618924
Si Si5 0.387439 0.919359 0.151191
O O1 0.177900 0.544980 0.948150
O O2 0.181715 0.350345 0.900386
O O3 0.236486 0.406859 0.002522
O O4 0.990828 0.293617 0.975953
O O5 0.220723 0.779278 0.916667
O O6 0.225326 0.675160 0.832419
O O7 0.361286 0.933806 0.833572
O O8 0.724817 0.161499 0.975096
O O9 0.868768 0.393682 0.014951
O O10 0.626372 0.313186 0.583334
O O11 0.576422 0.494605 0.577520
#
# Coordination Sequence:
#
# PCOD9582488 Si02
#       5
#    12  12  12  12  12
#     4  11  20  37  58  89 121 164 208 246 320 374
#     4  11  20  35  56  83 126 159 199 263 317 386
#     4  10  21  36  58  83 126 160 202 258 300 381
#     4  10  19  36  51  85 120 153 204 247 314 364
#     4  10  22  33  57  89 119 165 202 262 321 370
#
# _framework density 19.879742
#
# number of rings (size 3 to 8) (size 9 to 14) (size 15 to 20)
#    0.000    1.600    6.000    0.600    2.800    0.800 
#    3.600    3.000    0.000    0.000    0.000   21.000 
#    0.000    0.000    0.000    0.000    0.000    0.000 
#
# Total GULP energy -334035.547293 kJ/mol
# GULP energy per Si atom -5567.259122 kJ/mol
# Density = 1.983450 g / cm^3
# Si number density = 19.879742 Si / 1000 Ang^3
#
#
#
# Elastic Constant Matrix: (Units=GPa)
#
#
# Indices 1 2 3 4 5 6 
#
# 1 62.6137 42.7409 38.0807 0.0000 0.0000 0.0000
# 2 42.7409 62.6137 38.0807 0.0000 0.0000 0.0000
# 3 38.0807 38.0807 99.9268 0.0000 0.0000 0.0000
# 4 0.0000 0.0000 0.0000 21.7592 0.0000 0.0000
# 5 0.0000 0.0000 0.0000 0.0000 21.7592 0.0000
# 6 0.0000 0.0000 0.0000 0.0000 0.0000 9.9364
#
#
#
# Elastic Compliance Matrix: (Units=1/GPa)
#
#
# Indices 1 2 3 4 5 6 
#
# 1 0.031711 -0.018610 -0.004993 0.000000 0.000000 0.000000
# 2 -0.018610 0.031711 -0.004993 0.000000 0.000000 0.000000
# 3 -0.004993 -0.004993 0.013813 0.000000 0.000000 0.000000
# 4 0.000000 0.000000 0.000000 0.045958 0.000000 0.000000
# 5 0.000000 0.000000 0.000000 0.000000 0.045958 0.000000
# 6 0.000000 0.000000 0.000000 0.000000 0.000000 0.100640
#
#
# Mechanical properties :
#
#
# Convention : Reuss Voigt Hill
#
# Bulk Modulus (GPa) = 49.89012 51.43988 50.66500
# Shear Modulus (GPa) = 14.98531 17.77441 16.37986
#
# Velocity S-wave (km/s) = 2.74852 2.99339 2.87356
# Velocity P-wave (km/s) = 5.93489 6.15458 6.04573
#
# Compressibility (1/GPa) = 0.02004405
#
# Stress axis : x y z
#
# Youngs Moduli (GPa) = 31.53524 31.53524 72.39798
#
# Poissons Ratio (x) = 0.58686 0.36145
# Poissons Ratio (y) = 0.58686 0.36145
# Poissons Ratio (z) = 0.15744 0.15744
#
# Static dielectric constant tensor:
#      x y z
#    x 1.723630 0.000000 0.000000 
#    y 0.000000 1.723630 0.000000 
#    z 0.000000 0.000000 1.780930 
# 
# From -- ./inp_files/8768.got.cif
#   From: 2010.05.17/outbox.cif.g08.bks.cpg/sg178_5_cif.got.tgz:8768.got - 2010.05.20 11:30:59.
