data_PCOD9582398
_publ_section_title
;
Structure prediction by ZEFSAII (Michael W. Deem and Ramdas Pophale) SiO2 
 PCOD9582398
Probable space group: P 61 2 2
;
_chemical_formula_sum "Si O2"
_cell_formula_units_Z 48
_cell_length_a 17.541933
_cell_length_b 17.541933
_cell_length_c 8.280449
_cell_angle_alpha 90.000000
_cell_angle_beta 90.000000
_cell_angle_gamma 120.000000
_cell_volume 2206.680281
_symmetry_space_group_name_H-M "P 61 2 2"
_symmetry_group_IT_number 178
_symmetry_cell_setting 'hexagonal'
loop_
_space_group_symop_operation_xyz
x,y,z
x-y,x,1/6+z
-y,x-y,1/3+z
-x,-y,1/2+z
-x+y,-x,2/3+z
y,-x+y,5/6+z
x-y,-y,-z
-x,-x+y,2/3-z
y,x,1/3-z
-y,-x,5/6-z
-x+y,y,1/2-z
x,x-y,1/6-z
loop_
_atom_site_type_symbol
_atom_site_label
_atom_site_fract_x
_atom_site_fract_y
_atom_site_fract_z
Si Si1 0.943814 0.118005 0.169155
Si Si2 0.096818 0.588681 0.762840
Si Si3 0.669217 0.105063 0.015103
Si Si4 0.775191 0.615501 0.488254
O O1 0.898958 0.178500 0.168428
O O2 0.014589 0.142446 0.025320
O O3 0.000000 0.143087 0.333334
O O4 0.090265 0.545133 0.583334
O O5 0.138161 0.539062 0.861222
O O6 0.143281 0.693596 0.766232
O O7 0.000000 0.553504 0.833334
O O8 0.725170 0.136091 0.850776
O O9 0.740320 0.145689 0.155595
O O10 0.615437 0.000000 0.000000
#
# Coordination Sequence:
#
# PCOD9582398 Si02
#       4
#    12  12  12  12
#     4  10  21  37  53  77 113 152 194 247 299 347
#     4   9  18  33  56  87 114 152 189 245 298 349
#     4   9  18  32  52  86 114 143 188 234 289 345
#     4  10  18  32  57  86 107 151 192 236 288 354
#
# _framework density 21.752132
#
# number of rings (size 3 to 8) (size 9 to 14) (size 15 to 20)
#    0.000    2.500    0.000    2.250    0.000    0.000 
#    0.000   21.250    0.000    0.000  383.500    0.000 
#    0.000    0.000    0.000    0.000    0.000    0.000 
#
# Total GULP energy -267525.856460 kJ/mol
# GULP energy per Si atom -5573.455343 kJ/mol
# Density = 2.170262 g / cm^3
# Si number density = 21.752132 Si / 1000 Ang^3
#
#
#
# Elastic Constant Matrix: (Units=GPa)
#
#
# Indices 1 2 3 4 5 6 
#
# 1 158.4837 100.0749 19.2624 0.0000 0.0000 0.0000
# 2 100.0749 158.4837 19.2624 0.0000 0.0000 0.0000
# 3 19.2624 19.2624 32.4488 0.0000 0.0000 0.0000
# 4 0.0000 0.0000 0.0000 2.2889 0.0000 0.0000
# 5 0.0000 0.0000 0.0000 0.0000 2.2889 0.0000
# 6 0.0000 0.0000 0.0000 0.0000 0.0000 29.2044
#
#
#
# Elastic Compliance Matrix: (Units=1/GPa)
#
#
# Indices 1 2 3 4 5 6 
#
# 1 0.010682 -0.006439 -0.002519 0.000000 0.000000 0.000000
# 2 -0.006439 0.010682 -0.002519 0.000000 0.000000 0.000000
# 3 -0.002519 -0.002519 0.033808 0.000000 0.000000 0.000000
# 4 0.000000 0.000000 0.000000 0.436900 0.000000 0.000000
# 5 0.000000 0.000000 0.000000 0.000000 0.436900 0.000000
# 6 0.000000 0.000000 0.000000 0.000000 0.000000 0.034241
#
#
# Mechanical properties :
#
#
# Convention : Reuss Voigt Hill
#
# Bulk Modulus (GPa) = 31.03747 69.62398 50.33073
# Shear Modulus (GPa) = 5.01552 20.81085 12.91319
#
# Velocity S-wave (km/s) = 1.52012 3.09646 2.43914
# Velocity P-wave (km/s) = 4.16902 6.69787 5.57863
#
# Compressibility (1/GPa) = 0.03221912
#
# Stress axis : x y z
#
# Youngs Moduli (GPa) = 93.61728 93.61728 29.57872
#
# Poissons Ratio (x) = 0.60279 0.07450
# Poissons Ratio (y) = 0.60279 0.07450
# Poissons Ratio (z) = 0.23579 0.23579
#
# Static dielectric constant tensor:
#      x y z
#    x 1.828800 0.000000 0.000000 
#    y 0.000000 1.828800 0.000000 
#    z 0.000000 0.000000 1.943770 
# 
# From -- ./inp_files/2524.got.cif
#   From: 2010.05.17/outbox.cif.g08.bks.cpg/sg178_2_cif.got.tgz:2524.got - 2010.05.20 11:30:59.
