data_PCOD9582169
_publ_section_title
;
Structure prediction by ZEFSAII (Michael W. Deem and Ramdas Pophale) SiO2 
 PCOD9582169
Probable space group: P 6 2 2
;
_chemical_formula_sum "Si O2"
_cell_formula_units_Z 82
_cell_length_a 22.312301
_cell_length_b 22.312301
_cell_length_c 11.710560
_cell_angle_alpha 90.000000
_cell_angle_beta 90.000000
_cell_angle_gamma 120.000000
_cell_volume 5048.902864
_symmetry_space_group_name_H-M "P 6 2 2"
_symmetry_group_IT_number 177
_symmetry_cell_setting 'hexagonal'
loop_
_space_group_symop_operation_xyz
x,y,z
x-y,x,z
-y,x-y,z
-x,-y,z
-x+y,-x,z
y,-x+y,z
x-y,-y,-z
-x,-x+y,-z
y,x,-z
-y,-x,-z
-x+y,y,-z
x,x-y,-z
loop_
_atom_site_type_symbol
_atom_site_label
_atom_site_fract_x
_atom_site_fract_y
_atom_site_fract_z
Si Si1 0.874301 0.361257 0.885722
Si Si2 0.912902 0.274554 0.192634
Si Si3 0.740087 0.068584 0.180869
Si Si4 0.741359 0.476371 0.245086
Si Si5 0.819335 0.194675 0.634847
Si Si6 0.170274 0.829727 0.000000
Si Si7 0.333334 0.666668 0.365077
Si Si8 0.383119 0.505785 0.155165
O O1 0.913104 0.319785 0.851900
O O2 0.794105 0.309148 0.855156
O O3 0.895099 0.433647 0.822226
O O4 0.883097 0.377376 0.019290
O O5 0.878245 0.227974 0.302682
O O6 0.921225 0.350248 0.207109
O O7 0.986752 0.282184 0.171584
O O8 0.857428 0.234876 0.089137
O O9 0.769145 0.105637 0.303228
O O10 0.801704 0.107049 0.088547
O O11 0.782439 0.544407 0.324103
O O12 0.720542 0.408407 0.316982
O O13 0.671604 0.471448 0.196600
O O14 0.815403 0.184598 0.500000
O O15 0.333334 0.666667 0.500000
#
# Coordination Sequence:
#
# PCOD9582169 Si02
#       8
#    12  12  12  12  12   6   4  12
#     4  10  19  29  46  69  97 126 161 208 258 310
#     4  10  20  33  52  73 100 132 163 202 246 298
#     4  10  20  33  52  73 100 132 163 202 246 298
#     4  10  19  33  44  67  93 123 168 214 271 312
#     4   9  20  36  54  72  95 127 166 210 250 297
#     4  10  18  32  50  72 100 128 163 186 236 294
#     4  12  21  30  46  62  82 123 174 228 277 317
#     4  10  19  29  46  69  97 126 161 208 258 310
#
# _framework density 16.241152
#
# number of rings (size 3 to 8) (size 9 to 14) (size 15 to 20)
#    0.000    2.049    2.927    2.195    0.000    1.171 
#    0.000    1.463    0.000    0.000    0.000    4.098 
#    0.000    0.000    0.000  160.244    0.000   48.878 
#
# Total GULP energy -456566.120066 kJ/mol
# GULP energy per Si atom -5567.879513 kJ/mol
# Density = 1.620419 g / cm^3
# Si number density = 16.241152 Si / 1000 Ang^3
#
#
#
# Elastic Constant Matrix: (Units=GPa)
#
#
# Indices 1 2 3 4 5 6 
#
# 1 58.8613 32.3836 14.6884 -0.0001 0.0000 0.0000
# 2 32.3836 58.8614 14.6883 0.0000 0.0001 0.0000
# 3 14.6884 14.6883 74.7144 -0.0001 0.0000 0.0000
# 4 -0.0001 0.0000 -0.0001 10.6592 -0.0001 -0.0001
# 5 0.0000 0.0001 0.0000 -0.0001 10.6596 0.0000
# 6 0.0000 0.0000 0.0000 -0.0001 0.0000 13.2387
#
#
#
# Elastic Compliance Matrix: (Units=1/GPa)
#
#
# Indices 1 2 3 4 5 6 
#
# 1 0.024734 -0.013034 -0.002300 0.000000 0.000000 0.000000
# 2 -0.013034 0.024734 -0.002300 0.000000 0.000000 0.000000
# 3 -0.002300 -0.002300 0.014289 0.000000 0.000000 0.000000
# 4 0.000000 0.000000 0.000000 0.093816 0.000001 0.000000
# 5 0.000000 0.000000 0.000000 0.000001 0.093812 0.000000
# 6 0.000000 0.000000 0.000000 0.000000 0.000000 0.075536
#
#
# Mechanical properties :
#
#
# Convention : Reuss Voigt Hill
#
# Bulk Modulus (GPa) = 35.10226 35.10641 35.10433
# Shear Modulus (GPa) = 13.45227 15.62329 14.53778
#
# Velocity S-wave (km/s) = 2.88111 3.10491 2.99510
# Velocity P-wave (km/s) = 5.72082 5.87508 5.79847
#
# Compressibility (1/GPa) = 0.02848819
#
# Stress axis : x y z
#
# Youngs Moduli (GPa) = 40.43053 40.43059 69.98541
#
# Poissons Ratio (x) = 0.52696 0.16098
# Poissons Ratio (y) = 0.52696 0.16098
# Poissons Ratio (z) = 0.09300 0.09300
#
# Static dielectric constant tensor:
#      x y z
#    x 1.561940 0.000000 0.000000 
#    y 0.000000 1.561940 0.000000 
#    z 0.000000 0.000000 1.541040 
# 
# From -- ./inp_files/2126.got.cif
#   From: 2010.05.17/outbox.cif.g08.bks.cpg/sg177_2_cif.got.tgz:2126.got - 2010.05.20 11:28:44.
