data_PCOD9582296
_publ_section_title
;
Structure prediction by ZEFSAII (Michael W. Deem and Ramdas Pophale) SiO2 
 PCOD9582296
Probable space group: P 6 2 2
;
_chemical_formula_sum "Si O2"
_cell_formula_units_Z 69
_cell_length_a 14.186484
_cell_length_b 14.186484
_cell_length_c 18.238621
_cell_angle_alpha 90.000000
_cell_angle_beta 90.000000
_cell_angle_gamma 120.000000
_cell_volume 3178.865666
_symmetry_space_group_name_H-M "P 6 2 2"
_symmetry_group_IT_number 177
_symmetry_cell_setting 'hexagonal'
loop_
_space_group_symop_operation_xyz
x,y,z
x-y,x,z
-y,x-y,z
-x,-y,z
-x+y,-x,z
y,-x+y,z
x-y,-y,-z
-x,-x+y,-z
y,x,-z
-y,-x,-z
-x+y,y,-z
x,x-y,-z
loop_
_atom_site_type_symbol
_atom_site_label
_atom_site_fract_x
_atom_site_fract_y
_atom_site_fract_z
Si Si1 0.000000 0.781730 0.500000
Si Si2 0.128863 0.573955 0.175262
Si Si3 0.147871 0.440649 0.296019
Si Si4 0.747641 0.834704 0.176980
Si Si5 0.000000 0.500000 0.500000
Si Si6 0.791124 0.557000 0.085624
Si Si7 0.673463 0.598587 0.381876
O O1 0.896350 0.792699 0.500000
O O2 0.979261 0.711186 0.572761
O O3 0.178055 0.551481 0.250246
O O4 0.160829 0.691466 0.142255
O O5 0.169211 0.524316 0.112296
O O6 0.000000 0.500000 0.182625
O O7 0.118146 0.344897 0.237798
O O8 0.242724 0.436037 0.345653
O O9 0.029159 0.404016 0.331215
O O10 0.837188 0.799931 0.184485
O O11 0.680290 0.796210 0.101588
O O12 0.079097 0.597824 0.446122
O O13 0.770155 0.540310 0.000000
#
# Coordination Sequence:
#
# PCOD9582296 Si02
#       7
#     6  12  12  12   3  12  12
#     4  11  21  37  63 102 136 176 223 269 331 417
#     4  11  26  43  69 103 133 173 238 291 355 417
#     4  11  23  41  76  98 136 178 232 289 359 406
#     4  11  23  40  65 104 142 182 234 283 349 426
#     4  10  28  40  70 104 142 180 236 268 352 430
#     4  11  24  44  68  97 139 186 234 294 355 420
#     4  11  23  44  68 102 137 184 225 287 346 426
#
# _framework density 21.705857000000002
#
# number of rings (size 3 to 8) (size 9 to 14) (size 15 to 20)
#    0.000    1.043    3.478    3.217    3.652    3.478 
#    0.000    0.000    0.000    8.000    0.000    0.000 
#    0.000    0.000    0.000    0.000    0.000    0.000 
#
# Total GULP energy -384790.149842 kJ/mol
# GULP energy per Si atom -5576.668838 kJ/mol
# Density = 2.165645 g / cm^3
# Si number density = 21.705857 Si / 1000 Ang^3
#
#
#
# Elastic Constant Matrix: (Units=GPa)
#
#
# Indices 1 2 3 4 5 6 
#
# 1 94.7514 20.3943 42.1425 0.0000 0.0000 0.0000
# 2 20.3943 94.7514 42.1425 0.0000 0.0000 0.0000
# 3 42.1425 42.1425 125.1969 0.0000 0.0000 0.0000
# 4 0.0000 0.0000 0.0000 48.0768 0.0000 0.0000
# 5 0.0000 0.0000 0.0000 0.0000 48.0768 0.0000
# 6 0.0000 0.0000 0.0000 0.0000 0.0000 37.1785
#
#
#
# Elastic Compliance Matrix: (Units=1/GPa)
#
#
# Indices 1 2 3 4 5 6 
#
# 1 0.012486 -0.000962 -0.003879 0.000000 0.000000 0.000000
# 2 -0.000962 0.012486 -0.003879 0.000000 0.000000 0.000000
# 3 -0.003879 -0.003879 0.010599 0.000000 0.000000 0.000000
# 4 0.000000 0.000000 0.000000 0.020800 0.000000 0.000000
# 5 0.000000 0.000000 0.000000 0.000000 0.020800 0.000000
# 6 0.000000 0.000000 0.000000 0.000000 0.000000 0.026897
#
#
# Mechanical properties :
#
#
# Convention : Reuss Voigt Hill
#
# Bulk Modulus (GPa) = 55.15525 58.22871 56.69198
# Shear Modulus (GPa) = 39.19919 40.66776 39.93348
#
# Velocity S-wave (km/s) = 4.25423 4.33319 4.29389
# Velocity P-wave (km/s) = 7.04250 7.20554 7.12449
#
# Compressibility (1/GPa) = 0.01813064
#
# Stress axis : x y z
#
# Youngs Moduli (GPa) = 80.08730 80.08730 94.34916
#
# Poissons Ratio (x) = 0.07706 0.36599
# Poissons Ratio (y) = 0.07706 0.36599
# Poissons Ratio (z) = 0.31067 0.31067
#
# Static dielectric constant tensor:
#      x y z
#    x 1.826490 0.000000 0.000000 
#    y 0.000000 1.826490 0.000000 
#    z 0.000000 0.000000 1.854330 
# 
# From -- ./inp_files/2866.got.cif
#   From: 2010.05.17/outbox.cif.g08.bks.cpg/sg177_2_cif.got.tgz:2866.got - 2010.05.20 11:28:44.
