data_PCOD9582687
_publ_section_title
;
Structure prediction by ZEFSAII (Michael W. Deem and Ramdas Pophale) SiO2 
 PCOD9582687
Probable space group: P 61 2 2
;
_chemical_formula_sum "Si O2"
_cell_formula_units_Z 66
_cell_length_a 21.823553
_cell_length_b 21.823553
_cell_length_c 7.787817
_cell_angle_alpha 90.000000
_cell_angle_beta 90.000000
_cell_angle_gamma 120.000000
_cell_volume 3212.160852
_symmetry_space_group_name_H-M "P 61 2 2"
_symmetry_group_IT_number 178
_symmetry_cell_setting 'hexagonal'
loop_
_space_group_symop_operation_xyz
x,y,z
x-y,x,1/6+z
-y,x-y,1/3+z
-x,-y,1/2+z
-x+y,-x,2/3+z
y,-x+y,5/6+z
x-y,-y,-z
-x,-x+y,2/3-z
y,x,1/3-z
-y,-x,5/6-z
-x+y,y,1/2-z
x,x-y,1/6-z
loop_
_atom_site_type_symbol
_atom_site_label
_atom_site_fract_x
_atom_site_fract_y
_atom_site_fract_z
Si Si1 0.829765 0.414883 0.583334
Si Si2 0.512327 0.256423 0.788115
Si Si3 0.607220 0.492386 0.560863
Si Si4 0.195752 0.272853 0.733700
Si Si5 0.016435 0.339123 0.509421
Si Si6 0.774983 0.635256 0.909181
O O1 0.775813 0.438107 0.506009
O O2 0.878036 0.414487 0.423229
O O3 0.503075 0.251538 0.583334
O O4 0.528329 0.195405 0.847390
O O5 0.441545 0.238232 0.887589
O O6 0.546694 0.453307 0.416667
O O7 0.638045 0.577172 0.536058
O O8 0.224924 0.224924 0.666667
O O9 0.112142 0.224284 0.750000
O O10 0.193163 0.321391 0.581899
O O11 0.257273 0.321288 0.868514
O O12 0.000000 0.295482 0.333334
O O13 0.934386 0.301376 0.570715
O O14 0.831001 0.662001 0.750000
#
# Coordination Sequence:
#
# PCOD9582687 Si02
#       6
#     6  12  12  12  12  12
#     4  12  26  44  70  96 130 186 240 296 362 420
#     4  12  24  45  70  92 129 173 232 294 349 415
#     4  12  26  47  67 100 138 178 233 293 358 432
#     4  10  21  37  65 100 132 174 222 276 338 410
#     4  11  23  43  65  99 135 173 223 282 348 419
#     4  11  22  41  72  95 131 174 221 281 351 420
#
# _framework density 20.546914999999998
#
# number of rings (size 3 to 8) (size 9 to 14) (size 15 to 20)
#    0.000    0.727    1.818    7.636    0.000    1.455 
#   11.455    0.000    0.000    0.000    0.000    6.364 
#    0.000    0.000    0.000    0.000    0.000    0.000 
#
# Total GULP energy -367455.811697 kJ/mol
# GULP energy per Si atom -5567.512298 kJ/mol
# Density = 2.050015 g / cm^3
# Si number density = 20.546915 Si / 1000 Ang^3
#
#
#
# Elastic Constant Matrix: (Units=GPa)
#
#
# Indices 1 2 3 4 5 6 
#
# 1 59.0703 88.1748 44.2006 0.0000 0.0000 0.0000
# 2 88.1748 59.0703 44.2006 0.0000 0.0000 0.0000
# 3 44.2006 44.2006 149.5129 0.0000 0.0000 0.0000
# 4 0.0000 0.0000 0.0000 28.9662 0.0000 0.0000
# 5 0.0000 0.0000 0.0000 0.0000 28.9662 0.0000
# 6 0.0000 0.0000 0.0000 0.0000 0.0000 -14.5522
#
#
#
# Elastic Compliance Matrix: (Units=1/GPa)
#
#
# Indices 1 2 3 4 5 6 
#
# 1 -0.013051 0.021308 -0.002441 0.000000 0.000000 0.000000
# 2 0.021308 -0.013051 -0.002441 0.000000 0.000000 0.000000
# 3 -0.002441 -0.002441 0.008132 0.000000 0.000000 0.000000
# 4 0.000000 0.000000 0.000000 0.034523 0.000000 0.000000
# 5 0.000000 0.000000 0.000000 0.000000 0.034523 0.000000
# 6 0.000000 0.000000 0.000000 0.000000 0.000000 -0.068718
#
#
# Mechanical properties :
#
#
# Convention : Reuss Voigt Hill
#
# Bulk Modulus (GPa) = 67.19767 68.97839 68.08803
# Shear Modulus (GPa) = -109.80820 14.74788 -47.53016
#
# Velocity S-wave (km/s) = -7.31838 2.68202 -4.81484
# Velocity P-wave (km/s) = 6.21579 6.57534 1.51640
#
# Compressibility (1/GPa) = 0.01488147
#
# Stress axis : x y z
#
# Youngs Moduli (GPa) = -76.62216 -76.62216 122.97633
#
# Poissons Ratio (x) = 1.63266 0.30018
# Poissons Ratio (y) = 1.63266 0.30018
# Poissons Ratio (z) = -0.18703 -0.18703
#
# Static dielectric constant tensor:
#      x y z
#    x 2.776510 0.000000 0.000000 
#    y 0.000000 2.776510 0.000000 
#    z 0.000000 0.000000 1.666280 
# 
# From -- ./inp_files/3260.got.cif
#   From: 2010.05.17/outbox.cif.g08.bks.cpg/sg178_2_cif.got.tgz:3260.got - 2010.05.20 11:30:59.
