data_PCOD9582588
_publ_section_title
;
Structure prediction by ZEFSAII (Michael W. Deem and Ramdas Pophale) SiO2 
 PCOD9582588
Probable space group: P 61 2 2
;
_chemical_formula_sum "Si O2"
_cell_formula_units_Z 90
_cell_length_a 18.255543
_cell_length_b 18.255543
_cell_length_c 16.073122
_cell_angle_alpha 90.000000
_cell_angle_beta 90.000000
_cell_angle_gamma 120.000000
_cell_volume 4638.957390
_symmetry_space_group_name_H-M "P 61 2 2"
_symmetry_group_IT_number 178
_symmetry_cell_setting 'hexagonal'
loop_
_space_group_symop_operation_xyz
x,y,z
x-y,x,1/6+z
-y,x-y,1/3+z
-x,-y,1/2+z
-x+y,-x,2/3+z
y,-x+y,5/6+z
x-y,-y,-z
-x,-x+y,2/3-z
y,x,1/3-z
-y,-x,5/6-z
-x+y,y,1/2-z
x,x-y,1/6-z
loop_
_atom_site_type_symbol
_atom_site_label
_atom_site_fract_x
_atom_site_fract_y
_atom_site_fract_z
Si Si1 0.910851 0.583941 0.373449
Si Si2 0.513382 0.092941 0.101660
Si Si3 0.199849 0.869531 0.693954
Si Si4 0.300118 0.240203 0.435455
Si Si5 0.291968 0.842986 0.034615
Si Si6 0.279188 0.668201 0.996953
Si Si7 0.394858 0.926261 0.199526
Si Si8 0.369748 0.184874 0.583334
O O1 0.917810 0.500390 0.382922
O O2 0.886944 0.610779 0.461788
O O3 0.840247 0.574982 0.308335
O O4 0.000000 0.654917 0.333334
O O5 0.573110 0.180035 0.149995
O O6 0.464677 0.017450 0.165459
O O7 0.442741 0.095909 0.041611
O O8 0.115736 0.825095 0.636954
O O9 0.181898 0.802211 0.768208
O O10 0.228203 0.962358 0.728256
O O11 0.390138 0.325613 0.419616
O O12 0.311455 0.203340 0.521905
O O13 0.346419 0.873643 0.118440
O O14 0.288509 0.759261 0.002660
O O15 0.331076 0.668925 0.916667
O O16 0.311037 0.655519 0.083334
O O17 0.444954 0.889908 0.250000
#
# Coordination Sequence:
#
# PCOD9582588 Si02
#       8
#    12  12  12  12  12  12  12   6
#     4  11  20  35  60  83 121 156 202 259 317 380
#     4  11  22  37  59  83 115 160 213 257 306 370
#     4  10  20  37  58  88 124 155 202 255 319 387
#     4  10  21  36  59  88 124 155 199 259 317 385
#     4  10  22  37  54  79 117 154 205 255 304 369
#     4  10  21  38  54  75 106 156 204 252 307 362
#     4  11  22  35  58  86 118 159 207 260 312 370
#     4  10  22  36  56  92 120 156 198 252 334 376
#
# _framework density 19.40091
#
# number of rings (size 3 to 8) (size 9 to 14) (size 15 to 20)
#    0.000    1.600    1.333    4.000    1.867    0.533 
#    4.800    0.000    0.000    0.000    0.000    0.000 
#   36.000    0.000    0.000    0.000    0.000    0.000 
#
# Total GULP energy -502138.552595 kJ/mol
# GULP energy per Si atom -5579.317251 kJ/mol
# Density = 1.935675 g / cm^3
# Si number density = 19.400910 Si / 1000 Ang^3
#
#
#
# Elastic Constant Matrix: (Units=GPa)
#
#
# Indices 1 2 3 4 5 6 
#
# 1 70.0207 28.9318 26.5885 0.0000 0.0000 0.0000
# 2 28.9318 70.0207 26.5885 0.0000 0.0000 0.0000
# 3 26.5885 26.5885 97.2355 0.0000 0.0000 0.0000
# 4 0.0000 0.0000 0.0000 -2.4088 0.0000 0.0000
# 5 0.0000 0.0000 0.0000 0.0000 -2.4088 0.0000
# 6 0.0000 0.0000 0.0000 0.0000 0.0000 20.5444
#
#
#
# Elastic Compliance Matrix: (Units=1/GPa)
#
#
# Indices 1 2 3 4 5 6 
#
# 1 0.018092 -0.006245 -0.003239 0.000000 0.000000 0.000000
# 2 -0.006245 0.018092 -0.003239 0.000000 0.000000 0.000000
# 3 -0.003239 -0.003239 0.012056 0.000000 0.000000 0.000000
# 4 0.000000 0.000000 0.000000 -0.415138 0.000000 0.000000
# 5 0.000000 0.000000 0.000000 0.000000 -0.415138 0.000000
# 6 0.000000 0.000000 0.000000 0.000000 0.000000 0.048675
#
#
# Mechanical properties :
#
#
# Convention : Reuss Voigt Hill
#
# Bulk Modulus (GPa) = 43.87565 44.61049 44.24307
# Shear Modulus (GPa) = -7.13964 13.48989 3.17513
#
# Velocity S-wave (km/s) = -1.92043 2.63976 1.28068
# Velocity P-wave (km/s) = 4.21271 5.68639 5.00410
#
# Compressibility (1/GPa) = 0.02279168
#
# Stress axis : x y z
#
# Youngs Moduli (GPa) = 55.27270 55.27270 82.94694
#
# Poissons Ratio (x) = 0.34520 0.26870
# Poissons Ratio (y) = 0.34520 0.26870
# Poissons Ratio (z) = 0.17905 0.17905
#
# Static dielectric constant tensor:
#      x y z
#    x 1.784250 0.000000 0.000000 
#    y 0.000000 1.784250 0.000000 
#    z 0.000000 0.000000 1.725330 
# 
# From -- ./inp_files/6996.got.cif
#   From: 2010.05.17/outbox.cif.g08.bks.cpg/sg178_4_cif.got.tgz:6996.got - 2010.05.20 11:30:59.
