data_PCOD9582474
_publ_section_title
;
Structure prediction by ZEFSAII (Michael W. Deem and Ramdas Pophale) SiO2 
 PCOD9582474
Probable space group: P 61 2 2
;
_chemical_formula_sum "Si O2"
_cell_formula_units_Z 36
_cell_length_a 21.189096
_cell_length_b 21.189096
_cell_length_c 5.169160
_cell_angle_alpha 90.000000
_cell_angle_beta 90.000000
_cell_angle_gamma 120.000000
_cell_volume 2009.904691
_symmetry_space_group_name_H-M "P 61 2 2"
_symmetry_group_IT_number 178
_symmetry_cell_setting 'hexagonal'
loop_
_space_group_symop_operation_xyz
x,y,z
x-y,x,1/6+z
-y,x-y,1/3+z
-x,-y,1/2+z
-x+y,-x,2/3+z
y,-x+y,5/6+z
x-y,-y,-z
-x,-x+y,2/3-z
y,x,1/3-z
-y,-x,5/6-z
-x+y,y,1/2-z
x,x-y,1/6-z
loop_
_atom_site_type_symbol
_atom_site_label
_atom_site_fract_x
_atom_site_fract_y
_atom_site_fract_z
Si Si1 0.439935 0.794329 0.006634
Si Si2 0.878701 0.273099 0.908807
Si Si3 0.076874 0.771888 0.910891
O O1 0.406655 0.813310 0.250000
O O2 0.436243 0.718122 0.083334
O O3 0.524430 0.856560 0.989543
O O4 0.393131 0.786262 0.750000
O O5 0.801866 0.198135 0.916667
O O6 0.925177 0.262313 0.688511
O O7 0.909505 0.275533 0.194020
O O8 0.146098 0.853903 0.916667
O O9 0.000000 0.764092 0.833334
#
# Coordination Sequence:
#
# PCOD9582474 Si02
#       3
#    12  12  12
#     4  11  20  31  48  71 100 133 174 221 268 308
#     4   9  19  33  50  73 101 135 171 209 250 294
#     4  10  19  34  56  80 102 128 164 204 246 294
#
# _framework density 17.911297000000001
#
# number of rings (size 3 to 8) (size 9 to 14) (size 15 to 20)
#    0.000    2.000    0.000    5.000    0.000    5.333 
#    0.000    0.000    0.000   20.000    0.000    7.000 
#    0.000    0.000    0.000    0.000    0.000    0.000 
#
# Total GULP energy -200632.576881 kJ/mol
# GULP energy per Si atom -5573.127136 kJ/mol
# Density = 1.787053 g / cm^3
# Si number density = 17.911297 Si / 1000 Ang^3
#
#
#
# Elastic Constant Matrix: (Units=GPa)
#
#
# Indices 1 2 3 4 5 6 
#
# 1 77.4099 49.4519 37.2096 0.0000 0.0000 0.0000
# 2 49.4519 77.4099 37.2096 0.0000 0.0000 0.0000
# 3 37.2096 37.2096 133.7733 0.0000 0.0000 0.0000
# 4 0.0000 0.0000 0.0000 20.3537 0.0000 0.0000
# 5 0.0000 0.0000 0.0000 0.0000 20.3537 0.0000
# 6 0.0000 0.0000 0.0000 0.0000 0.0000 13.9790
#
#
#
# Elastic Compliance Matrix: (Units=1/GPa)
#
#
# Indices 1 2 3 4 5 6 
#
# 1 0.022594 -0.013174 -0.002620 0.000000 0.000000 0.000000
# 2 -0.013174 0.022594 -0.002620 0.000000 0.000000 0.000000
# 3 -0.002620 -0.002620 0.008933 0.000000 0.000000 0.000000
# 4 0.000000 0.000000 0.000000 0.049131 0.000000 0.000000
# 5 0.000000 0.000000 0.000000 0.000000 0.049131 0.000000
# 6 0.000000 0.000000 0.000000 0.000000 0.000000 0.071536
#
#
# Mechanical properties :
#
#
# Convention : Reuss Voigt Hill
#
# Bulk Modulus (GPa) = 57.83124 59.59283 58.71204
# Shear Modulus (GPa) = 18.76095 21.91876 20.33985
#
# Velocity S-wave (km/s) = 3.23992 3.50199 3.37350
# Velocity P-wave (km/s) = 6.80836 7.04949 6.92997
#
# Compressibility (1/GPa) = 0.01729169
#
# Stress axis : x y z
#
# Youngs Moduli (GPa) = 44.26002 44.26002 111.94556
#
# Poissons Ratio (x) = 0.58309 0.29331
# Poissons Ratio (y) = 0.58309 0.29331
# Poissons Ratio (z) = 0.11597 0.11597
#
# Static dielectric constant tensor:
#      x y z
#    x 1.694170 0.000000 0.000000 
#    y 0.000000 1.694170 0.000000 
#    z 0.000000 0.000000 1.635890 
# 
# From -- ./inp_files/512.got.cif
#   From: 2010.05.17/outbox.cif.g08.bks.cpg/sg178_1_cif.got.tgz:512.got - 2010.05.20 11:30:59.
