data_PCOD9582489
_publ_section_title
;
Structure prediction by ZEFSAII (Michael W. Deem and Ramdas Pophale) SiO2 
 PCOD9582489
Probable space group: P 61 2 2
;
_chemical_formula_sum "Si O2"
_cell_formula_units_Z 84
_cell_length_a 18.273120
_cell_length_b 18.273120
_cell_length_c 14.868414
_cell_angle_alpha 90.000000
_cell_angle_beta 90.000000
_cell_angle_gamma 120.000000
_cell_volume 4299.527088
_symmetry_space_group_name_H-M "P 61 2 2"
_symmetry_group_IT_number 178
_symmetry_cell_setting 'hexagonal'
loop_
_space_group_symop_operation_xyz
x,y,z
x-y,x,1/6+z
-y,x-y,1/3+z
-x,-y,1/2+z
-x+y,-x,2/3+z
y,-x+y,5/6+z
x-y,-y,-z
-x,-x+y,2/3-z
y,x,1/3-z
-y,-x,5/6-z
-x+y,y,1/2-z
x,x-y,1/6-z
loop_
_atom_site_type_symbol
_atom_site_label
_atom_site_fract_x
_atom_site_fract_y
_atom_site_fract_z
Si Si1 0.119163 0.672142 0.775888
Si Si2 0.482144 0.257070 0.683917
Si Si3 0.283104 0.671720 0.820464
Si Si4 0.455221 0.049253 0.413024
Si Si5 0.287516 0.317491 0.458435
Si Si6 0.611532 0.557841 0.807787
Si Si7 0.200697 0.862214 0.189455
O O1 0.200315 0.660769 0.771860
O O2 0.090909 0.655943 0.879246
O O3 0.129180 0.759988 0.742524
O O4 0.047184 0.607955 0.708128
O O5 0.451582 0.225791 0.583334
O O6 0.583787 0.303808 0.679619
O O7 0.464672 0.330603 0.713828
O O8 0.426388 0.184541 0.754171
O O9 0.287452 0.712549 0.916667
O O10 0.359177 0.718354 0.750000
O O11 0.364872 0.000673 0.363793
O O12 0.535988 0.074039 0.350826
O O13 0.459723 0.000000 0.500000
O O14 0.319742 0.393583 0.384571
O O15 0.285541 0.237795 0.407966
O O16 0.201722 0.302006 0.507916
#
# Coordination Sequence:
#
# PCOD9582489 Si02
#       7
#    12  12  12  12  12  12  12
#     4  10  20  35  53  74 111 147 197 241 291 342
#     4  10  20  34  50  73 109 148 193 237 289 342
#     4  11  22  34  48  74 107 154 198 249 293 340
#     4  11  18  33  55  79 110 150 194 244 285 351
#     4  10  23  36  57  84 113 154 199 251 306 368
#     4  10  19  36  54  79 105 151 197 241 292 345
#     4  10  22  38  56  83 111 156 197 251 306 368
#
# _framework density 19.537030999999999
#
# number of rings (size 3 to 8) (size 9 to 14) (size 15 to 20)
#    0.000    1.714    2.857    2.143    2.000    1.143 
#    0.000    2.857    0.000    0.000    0.000    0.000 
#    0.000    0.000  262.286    0.000    0.000    0.000 
#
# Total GULP energy -468036.596231 kJ/mol
# GULP energy per Si atom -5571.864241 kJ/mol
# Density = 1.949256 g / cm^3
# Si number density = 19.537031 Si / 1000 Ang^3
#
#
#
# Elastic Constant Matrix: (Units=GPa)
#
#
# Indices 1 2 3 4 5 6 
#
# 1 65.2158 26.8195 24.3479 0.0000 0.0000 0.0000
# 2 26.8195 65.2158 24.3479 0.0000 0.0000 0.0000
# 3 24.3479 24.3479 76.2999 0.0000 0.0000 0.0000
# 4 0.0000 0.0000 0.0000 27.8574 0.0000 0.0000
# 5 0.0000 0.0000 0.0000 0.0000 27.8574 0.0000
# 6 0.0000 0.0000 0.0000 0.0000 0.0000 19.1981
#
#
#
# Elastic Compliance Matrix: (Units=1/GPa)
#
#
# Indices 1 2 3 4 5 6 
#
# 1 0.019558 -0.006486 -0.004172 0.000000 0.000000 0.000000
# 2 -0.006486 0.019558 -0.004172 0.000000 0.000000 0.000000
# 3 -0.004172 -0.004172 0.015769 0.000000 0.000000 0.000000
# 4 0.000000 0.000000 0.000000 0.035897 0.000000 0.000000
# 5 0.000000 0.000000 0.000000 0.000000 0.035897 0.000000
# 6 0.000000 0.000000 0.000000 0.000000 0.000000 0.052088
#
#
# Mechanical properties :
#
#
# Convention : Reuss Voigt Hill
#
# Bulk Modulus (GPa) = 39.63941 39.75136 39.69539
# Shear Modulus (GPa) = 23.05902 23.73034 23.39468
#
# Velocity S-wave (km/s) = 3.43924 3.48894 3.46418
# Velocity P-wave (km/s) = 6.00871 6.05154 6.03016
#
# Compressibility (1/GPa) = 0.02522742
#
# Stress axis : x y z
#
# Youngs Moduli (GPa) = 51.12897 51.12897 63.41737
#
# Poissons Ratio (x) = 0.33161 0.26455
# Poissons Ratio (y) = 0.33161 0.26455
# Poissons Ratio (z) = 0.21329 0.21329
#
# Static dielectric constant tensor:
#      x y z
#    x 1.747520 0.000000 0.000000 
#    y 0.000000 1.747520 0.000000 
#    z 0.000000 0.000000 1.758260 
# 
# From -- ./inp_files/6038.got.cif
#   From: 2010.05.17/outbox.cif.g08.bks.cpg/sg178_4_cif.got.tgz:6038.got - 2010.05.20 11:30:59.
