data_PCOD9582717
_publ_section_title
;
Structure prediction by ZEFSAII (Michael W. Deem and Ramdas Pophale) SiO2 
 PCOD9582717
Probable space group: P 61 2 2
;
_chemical_formula_sum "Si O2"
_cell_formula_units_Z 60
_cell_length_a 17.266434
_cell_length_b 17.266434
_cell_length_c 10.310565
_cell_angle_alpha 90.000000
_cell_angle_beta 90.000000
_cell_angle_gamma 120.000000
_cell_volume 2662.063446
_symmetry_space_group_name_H-M "P 61 2 2"
_symmetry_group_IT_number 178
_symmetry_cell_setting 'hexagonal'
loop_
_space_group_symop_operation_xyz
x,y,z
x-y,x,1/6+z
-y,x-y,1/3+z
-x,-y,1/2+z
-x+y,-x,2/3+z
y,-x+y,5/6+z
x-y,-y,-z
-x,-x+y,2/3-z
y,x,1/3-z
-y,-x,5/6-z
-x+y,y,1/2-z
x,x-y,1/6-z
loop_
_atom_site_type_symbol
_atom_site_label
_atom_site_fract_x
_atom_site_fract_y
_atom_site_fract_z
Si Si1 0.724703 0.661281 0.056672
Si Si2 0.466507 0.682240 0.215665
Si Si3 0.091218 0.910447 0.186947
Si Si4 0.951000 0.279034 0.207500
Si Si5 0.177080 0.642087 0.699008
O O1 0.660758 0.660758 0.166667
O O2 0.706621 0.562137 0.061791
O O3 0.824434 0.740849 0.095744
O O4 0.702632 0.689431 0.919461
O O5 0.405886 0.581051 0.166301
O O6 0.428395 0.720416 0.324034
O O7 0.480660 0.740330 0.083334
O O8 0.176928 0.927781 0.101002
O O9 0.120332 0.999090 0.274053
O O10 0.870634 0.298999 0.191814
O O11 0.000000 0.333606 0.333334
O O12 0.137302 0.568651 0.583334
#
# Coordination Sequence:
#
# PCOD9582717 Si02
#       5
#    12  12  12  12  12
#     4  11  23  42  75 105 138 192 248 301 366 433
#     4  10  21  41  70 102 142 187 240 311 373 436
#     4  10  24  46  74 106 149 196 249 303 369 437
#     4  11  25  46  69 104 146 192 239 302 378 441
#     4  10  21  42  71 100 142 184 241 307 367 440
#
# _framework density 22.538907999999999
#
# number of rings (size 3 to 8) (size 9 to 14) (size 15 to 20)
#    0.000    1.600    2.000    2.400    2.800    5.600 
#    0.000   19.000    0.000    0.000    0.000    0.000 
#    0.000    0.000    0.000    0.000    0.000    0.000 
#
# Total GULP energy -334721.148030 kJ/mol
# GULP energy per Si atom -5578.685800 kJ/mol
# Density = 2.248761 g / cm^3
# Si number density = 22.538908 Si / 1000 Ang^3
#
#
#
# Elastic Constant Matrix: (Units=GPa)
#
#
# Indices 1 2 3 4 5 6 
#
# 1 137.6787 64.5015 38.7202 0.0000 0.0000 0.0000
# 2 64.5015 137.6787 38.7202 0.0000 0.0000 0.0000
# 3 38.7202 38.7202 71.8588 0.0000 0.0000 0.0000
# 4 0.0000 0.0000 0.0000 28.6054 0.0000 0.0000
# 5 0.0000 0.0000 0.0000 0.0000 28.6054 0.0000
# 6 0.0000 0.0000 0.0000 0.0000 0.0000 36.5886
#
#
#
# Elastic Compliance Matrix: (Units=1/GPa)
#
#
# Indices 1 2 3 4 5 6 
#
# 1 0.009949 -0.003717 -0.003358 0.000000 0.000000 0.000000
# 2 -0.003717 0.009949 -0.003358 0.000000 0.000000 0.000000
# 3 -0.003358 -0.003358 0.017535 0.000000 0.000000 0.000000
# 4 0.000000 0.000000 0.000000 0.034958 0.000000 0.000000
# 5 0.000000 0.000000 0.000000 0.000000 0.034958 0.000000
# 6 0.000000 0.000000 0.000000 0.000000 0.000000 0.027331
#
#
# Mechanical properties :
#
#
# Convention : Reuss Voigt Hill
#
# Bulk Modulus (GPa) = 60.36068 70.12223 65.24145
# Shear Modulus (GPa) = 31.04254 32.44483 31.74368
#
# Velocity S-wave (km/s) = 3.71521 3.79819 3.75693
# Velocity P-wave (km/s) = 6.72625 7.10030 6.91580
#
# Compressibility (1/GPa) = 0.01656708
#
# Stress axis : x y z
#
# Youngs Moduli (GPa) = 100.51349 100.51349 57.02792
#
# Poissons Ratio (x) = 0.37356 0.19151
# Poissons Ratio (y) = 0.37356 0.19151
# Poissons Ratio (z) = 0.33755 0.33755
#
# Static dielectric constant tensor:
#      x y z
#    x 1.850950 0.000000 0.000000 
#    y 0.000000 1.850950 0.000000 
#    z 0.000000 0.000000 1.812470 
# 
# From -- ./inp_files/4507.got.cif
#   From: 2010.05.17/outbox.cif.g08.bks.cpg/sg178_3_cif.got.tgz:4507.got - 2010.05.20 11:30:59.
