data_PCOD9582542
_publ_section_title
;
Structure prediction by ZEFSAII (Michael W. Deem and Ramdas Pophale) SiO2 
 PCOD9582542
Probable space group: P 61 2 2
;
_chemical_formula_sum "Si O2"
_cell_formula_units_Z 48
_cell_length_a 24.581345
_cell_length_b 24.581345
_cell_length_c 4.948400
_cell_angle_alpha 90.000000
_cell_angle_beta 90.000000
_cell_angle_gamma 120.000000
_cell_volume 2589.445139
_symmetry_space_group_name_H-M "P 61 2 2"
_symmetry_group_IT_number 178
_symmetry_cell_setting 'hexagonal'
loop_
_space_group_symop_operation_xyz
x,y,z
x-y,x,1/6+z
-y,x-y,1/3+z
-x,-y,1/2+z
-x+y,-x,2/3+z
y,-x+y,5/6+z
x-y,-y,-z
-x,-x+y,2/3-z
y,x,1/3-z
-y,-x,5/6-z
-x+y,y,1/2-z
x,x-y,1/6-z
loop_
_atom_site_type_symbol
_atom_site_label
_atom_site_fract_x
_atom_site_fract_y
_atom_site_fract_z
Si Si1 0.425921 0.649802 0.658559
Si Si2 0.742590 0.179548 0.662734
Si Si3 0.320420 0.275040 0.406098
Si Si4 0.154244 0.197258 0.915455
O O1 0.399944 0.600057 0.416667
O O2 0.416058 0.708029 0.583334
O O3 0.499555 0.682386 0.725089
O O4 0.385112 0.614889 0.916667
O O5 0.793022 0.206979 0.416667
O O6 0.724588 0.109981 0.753072
O O7 0.773817 0.226184 0.916667
O O8 0.300873 0.300873 0.666667
O O9 0.268785 0.201570 0.331260
O O10 0.316240 0.316240 0.166667
O O11 0.190458 0.190458 0.666667
O O12 0.092423 0.184845 0.750000
O O13 0.153607 0.153607 0.166667
#
# Coordination Sequence:
#
# PCOD9582542 Si02
#       4
#    12  12  12  12
#     4  11  21  34  54  81 112 144 180 228 282 336
#     4  11  22  36  57  85 115 149 189 235 287 343
#     4  10  21  36  56  82 114 151 188 231 282 337
#     4  10  20  34  54  80 110 144 180 222 272 326
#
# _framework density 18.536788999999999
#
# number of rings (size 3 to 8) (size 9 to 14) (size 15 to 20)
#    0.000    1.500    0.000    7.500    0.000    4.000 
#    0.000    0.000    0.000    4.500    0.000    0.000 
#    0.000    0.000    0.000    0.000    0.000    0.000 
#
# Total GULP energy -267350.176275 kJ/mol
# GULP energy per Si atom -5569.795339 kJ/mol
# Density = 1.849460 g / cm^3
# Si number density = 18.536789 Si / 1000 Ang^3
#
#
#
# Elastic Constant Matrix: (Units=GPa)
#
#
# Indices 1 2 3 4 5 6 
#
# 1 102.1862 56.1952 41.1296 0.0000 0.0000 0.0000
# 2 56.1952 102.1862 41.1296 0.0000 0.0000 0.0000
# 3 41.1296 41.1296 132.0611 0.0000 0.0000 0.0000
# 4 0.0000 0.0000 0.0000 28.0223 0.0000 0.0000
# 5 0.0000 0.0000 0.0000 0.0000 28.0223 0.0000
# 6 0.0000 0.0000 0.0000 0.0000 0.0000 22.9955
#
#
#
# Elastic Compliance Matrix: (Units=1/GPa)
#
#
# Indices 1 2 3 4 5 6 
#
# 1 0.014638 -0.007106 -0.002346 0.000000 0.000000 0.000000
# 2 -0.007106 0.014638 -0.002346 0.000000 0.000000 0.000000
# 3 -0.002346 -0.002346 0.009033 0.000000 0.000000 0.000000
# 4 0.000000 0.000000 0.000000 0.035686 0.000000 0.000000
# 5 0.000000 0.000000 0.000000 0.000000 0.035686 0.000000
# 6 0.000000 0.000000 0.000000 0.000000 0.000000 0.043487
#
#
# Mechanical properties :
#
#
# Convention : Reuss Voigt Hill
#
# Bulk Modulus (GPa) = 67.96026 68.14918 68.05472
# Shear Modulus (GPa) = 27.52286 29.00661 28.26474
#
# Velocity S-wave (km/s) = 3.85745 3.96006 3.90909
# Velocity P-wave (km/s) = 7.52209 7.59958 7.56093
#
# Compressibility (1/GPa) = 0.01471448
#
# Stress axis : x y z
#
# Youngs Moduli (GPa) = 68.31620 68.31620 110.69947
#
# Poissons Ratio (x) = 0.48542 0.25969
# Poissons Ratio (y) = 0.48542 0.25969
# Poissons Ratio (z) = 0.16026 0.16026
#
# Static dielectric constant tensor:
#      x y z
#    x 1.638790 0.000000 0.000000 
#    y 0.000000 1.638790 0.000000 
#    z 0.000000 0.000000 1.665830 
# 
# From -- ./inp_files/1048.got.cif
#   From: 2010.05.17/outbox.cif.g08.bks.cpg/sg178_1_cif.got.tgz:1048.got - 2010.05.20 11:30:59.
