data_PCOD9582634
_publ_section_title
;
Structure prediction by ZEFSAII (Michael W. Deem and Ramdas Pophale) SiO2 
 PCOD9582634
Probable space group: P 61 2 2
;
_chemical_formula_sum "Si O2"
_cell_formula_units_Z 54
_cell_length_a 11.805070
_cell_length_b 11.805070
_cell_length_c 17.686784
_cell_angle_alpha 90.000000
_cell_angle_beta 90.000000
_cell_angle_gamma 120.000000
_cell_volume 2134.600648
_symmetry_space_group_name_H-M "P 61 2 2"
_symmetry_group_IT_number 178
_symmetry_cell_setting 'hexagonal'
loop_
_space_group_symop_operation_xyz
x,y,z
x-y,x,1/6+z
-y,x-y,1/3+z
-x,-y,1/2+z
-x+y,-x,2/3+z
y,-x+y,5/6+z
x-y,-y,-z
-x,-x+y,2/3-z
y,x,1/3-z
-y,-x,5/6-z
-x+y,y,1/2-z
x,x-y,1/6-z
loop_
_atom_site_type_symbol
_atom_site_label
_atom_site_fract_x
_atom_site_fract_y
_atom_site_fract_z
Si Si1 0.281823 0.247879 0.331488
Si Si2 0.041943 0.336180 0.916588
Si Si3 0.560228 0.430170 0.306915
Si Si4 0.206193 0.206193 0.166667
Si Si5 0.219657 0.592971 0.309227
O O1 0.299165 0.128386 0.363463
O O2 0.423292 0.376498 0.351574
O O3 0.270119 0.276830 0.243777
O O4 0.132727 0.203548 0.353179
O O5 0.125376 0.488039 0.894312
O O6 0.000000 0.265898 0.833334
O O7 0.925201 0.339529 0.962825
O O8 0.529209 0.371251 0.221945
O O9 0.645110 0.370142 0.339140
O O10 0.258621 0.517241 0.250000
#
# Coordination Sequence:
#
# PCOD9582634 Si02
#       5
#    12  12  12   6  12
#     4  11  24  51  68 103 146 195 255 313 367 462
#     4  10  23  42  73 108 144 192 242 317 380 450
#     4  10  23  40  70 106 145 189 248 306 393 456
#     4  10  28  48  70  98 142 204 264 296 366 466
#     4  10  20  40  63 106 145 186 238 306 385 469
#
# _framework density 25.297471000000002
#
# number of rings (size 3 to 8) (size 9 to 14) (size 15 to 20)
#    0.000    1.778    2.222    0.000    7.778    1.778 
#    8.000    0.000    0.000    0.000    0.000    0.000 
#    0.000    0.000    0.000    0.000    0.000    0.000 
#
# Total GULP energy -301100.421453 kJ/mol
# GULP energy per Si atom -5575.933731 kJ/mol
# Density = 2.523989 g / cm^3
# Si number density = 25.297471 Si / 1000 Ang^3
#
#
#
# Elastic Constant Matrix: (Units=GPa)
#
#
# Indices 1 2 3 4 5 6 
#
# 1 127.5602 57.5830 25.9353 0.0000 0.0000 0.0000
# 2 57.5830 127.5602 25.9353 0.0000 0.0000 0.0000
# 3 25.9353 25.9353 121.3103 0.0000 0.0000 0.0000
# 4 0.0000 0.0000 0.0000 19.7234 0.0000 0.0000
# 5 0.0000 0.0000 0.0000 0.0000 19.7234 0.0000
# 6 0.0000 0.0000 0.0000 0.0000 0.0000 34.9886
#
#
#
# Elastic Compliance Matrix: (Units=1/GPa)
#
#
# Indices 1 2 3 4 5 6 
#
# 1 0.010018 -0.004273 -0.001228 0.000000 0.000000 0.000000
# 2 -0.004273 0.010018 -0.001228 0.000000 0.000000 0.000000
# 3 -0.001228 -0.001228 0.008769 0.000000 0.000000 0.000000
# 4 0.000000 0.000000 0.000000 0.050701 0.000000 0.000000
# 5 0.000000 0.000000 0.000000 0.000000 0.050701 0.000000
# 6 0.000000 0.000000 0.000000 0.000000 0.000000 0.028581
#
#
# Mechanical properties :
#
#
# Convention : Reuss Voigt Hill
#
# Bulk Modulus (GPa) = 65.16366 66.14865 65.65615
# Shear Modulus (GPa) = 28.19109 32.68556 30.43832
#
# Velocity S-wave (km/s) = 3.34186 3.59841 3.47250
# Velocity P-wave (km/s) = 6.38009 6.59316 6.48750
#
# Compressibility (1/GPa) = 0.01534598
#
# Stress axis : x y z
#
# Youngs Moduli (GPa) = 99.82173 99.82173 114.04420
#
# Poissons Ratio (x) = 0.42649 0.14008
# Poissons Ratio (y) = 0.42649 0.14008
# Poissons Ratio (z) = 0.12261 0.12261
#
# Static dielectric constant tensor:
#      x y z
#    x 2.057720 0.000000 0.000000 
#    y 0.000000 2.057720 0.000000 
#    z 0.000000 0.000000 2.095440 
# 
# From -- ./inp_files/7433.got.cif
#   From: 2010.05.17/outbox.cif.g08.bks.cpg/sg178_4_cif.got.tgz:7433.got - 2010.05.20 11:30:59.
