data_PCOD9582978
_publ_section_title
;
Structure prediction by ZEFSAII (Michael W. Deem and Ramdas Pophale) SiO2 
 PCOD9582978
Probable space group: P 61 2 2
;
_chemical_formula_sum "Si O2"
_cell_formula_units_Z 78
_cell_length_a 16.770977
_cell_length_b 16.770977
_cell_length_c 14.108912
_cell_angle_alpha 90.000000
_cell_angle_beta 90.000000
_cell_angle_gamma 120.000000
_cell_volume 3436.694146
_symmetry_space_group_name_H-M "P 61 2 2"
_symmetry_group_IT_number 178
_symmetry_cell_setting 'hexagonal'
loop_
_space_group_symop_operation_xyz
x,y,z
x-y,x,1/6+z
-y,x-y,1/3+z
-x,-y,1/2+z
-x+y,-x,2/3+z
y,-x+y,5/6+z
x-y,-y,-z
-x,-x+y,2/3-z
y,x,1/3-z
-y,-x,5/6-z
-x+y,y,1/2-z
x,x-y,1/6-z
loop_
_atom_site_type_symbol
_atom_site_label
_atom_site_fract_x
_atom_site_fract_y
_atom_site_fract_z
Si Si1 0.872926 0.597227 0.429086
Si Si2 0.327152 0.227145 0.287337
Si Si3 0.605856 0.585004 0.409014
Si Si4 0.502980 0.662876 0.075559
Si Si5 0.860533 0.000000 0.500000
Si Si6 0.380343 0.769080 0.640275
Si Si7 0.890149 0.363110 0.336584
O O1 0.837004 0.663175 0.467632
O O2 0.886873 0.588767 0.317086
O O3 0.797952 0.491926 0.450175
O O4 0.955816 0.609888 0.495235
O O5 0.353625 0.324815 0.339665
O O6 0.231125 0.171247 0.231510
O O7 0.407875 0.263389 0.207749
O O8 0.498796 0.501205 0.416667
O O9 0.656002 0.534502 0.361728
O O10 0.467452 0.733726 0.083334
O O11 0.424099 0.562338 0.105653
O O12 0.939162 0.060839 0.416667
O O13 0.377777 0.755553 0.750000
O O14 0.360941 0.680471 0.583334
O O15 0.481440 0.848231 0.604109
O O16 0.000000 0.417613 0.333334
#
# Coordination Sequence:
#
# PCOD9582978 Si02
#       7
#    12  12  12  12   6  12  12
#     4  11  25  40  68 100 148 192 254 315 376 444
#     4  12  25  45  77 118 150 196 252 321 390 480
#     4  12  24  42  71 101 155 215 265 305 379 440
#     4  11  22  41  61  96 148 216 265 312 350 425
#     4  12  30  58  94 120 154 184 250 346 454 544
#     4  11  25  42  64  96 143 206 263 318 370 429
#     4  11  24  42  65 100 150 198 256 308 373 444
#
# _framework density 22.696228999999999
#
# number of rings (size 3 to 8) (size 9 to 14) (size 15 to 20)
#    0.000    0.615    3.846    4.615    2.154    7.385 
#    0.000    0.000    6.769    0.000    0.000    0.000 
#    0.000    0.000    0.000    0.000    0.000    0.000 
#
# Total GULP energy -435800.345367 kJ/mol
# GULP energy per Si atom -5587.183915 kJ/mol
# Density = 2.264457 g / cm^3
# Si number density = 22.696229 Si / 1000 Ang^3
#
#
#
# Elastic Constant Matrix: (Units=GPa)
#
#
# Indices 1 2 3 4 5 6 
#
# 1 85.2575 21.8238 32.3611 0.0000 0.0000 0.0000
# 2 21.8238 85.2575 32.3611 0.0000 0.0000 0.0000
# 3 32.3611 32.3611 127.7248 0.0000 0.0000 0.0000
# 4 0.0000 0.0000 0.0000 36.3633 0.0000 0.0000
# 5 0.0000 0.0000 0.0000 0.0000 36.3633 0.0000
# 6 0.0000 0.0000 0.0000 0.0000 0.0000 31.7168
#
#
#
# Elastic Compliance Matrix: (Units=1/GPa)
#
#
# Indices 1 2 3 4 5 6 
#
# 1 0.013396 -0.002369 -0.002794 0.000000 0.000000 0.000000
# 2 -0.002369 0.013396 -0.002794 0.000000 0.000000 0.000000
# 3 -0.002794 -0.002794 0.009245 0.000000 0.000000 0.000000
# 4 0.000000 0.000000 0.000000 0.027500 0.000000 0.000000
# 5 0.000000 0.000000 0.000000 0.000000 0.027500 0.000000
# 6 0.000000 0.000000 0.000000 0.000000 0.000000 0.031529
#
#
# Mechanical properties :
#
#
# Convention : Reuss Voigt Hill
#
# Bulk Modulus (GPa) = 49.69165 52.37018 51.03091
# Shear Modulus (GPa) = 34.43819 35.00158 34.71989
#
# Velocity S-wave (km/s) = 3.89955 3.93132 3.91546
# Velocity P-wave (km/s) = 6.49747 6.61298 6.55548
#
# Compressibility (1/GPa) = 0.02012411
#
# Stress axis : x y z
#
# Youngs Moduli (GPa) = 74.64931 74.64932 108.16506
#
# Poissons Ratio (x) = 0.17681 0.30221
# Poissons Ratio (y) = 0.17681 0.30221
# Poissons Ratio (z) = 0.20857 0.20857
#
# Static dielectric constant tensor:
#      x y z
#    x 1.869380 0.000000 0.000000 
#    y 0.000000 1.869380 0.000000 
#    z 0.000000 0.000000 2.027840 
# 
# From -- ./inp_files/5962.got.cif
#   From: 2010.05.17/outbox.cif.g08.bks.cpg/sg178_3_cif.got.tgz:5962.got - 2010.05.20 11:30:59.
