data_PCOD9582051
_publ_section_title
;
Structure prediction by ZEFSAII (Michael W. Deem and Ramdas Pophale) SiO2 
 PCOD9582051
Probable space group: P 63/M
;
_chemical_formula_sum "Si O2"
_cell_formula_units_Z 48
_cell_length_a 13.749269
_cell_length_b 13.749269
_cell_length_c 14.354636
_cell_angle_alpha 90.000000
_cell_angle_beta 90.000000
_cell_angle_gamma 120.000000
_cell_volume 2350.076684
_symmetry_space_group_name_H-M "P 63/M"
_symmetry_group_IT_number 176
_symmetry_cell_setting 'hexagonal'
loop_
_space_group_symop_operation_xyz
x,y,z
x-y,x,1/2+z
-y,x-y,z
-x,-y,1/2+z
-x+y,-x,z
y,-x+y,1/2+z
-x,-y,-z
-x+y,-x,1/2-z
y,-x+y,-z
x,y,1/2-z
x-y,x,-z
-y,x-y,1/2-z
loop_
_atom_site_type_symbol
_atom_site_label
_atom_site_fract_x
_atom_site_fract_y
_atom_site_fract_z
Si Si1 0.981671 0.214870 0.360373
Si Si2 0.469865 0.688073 0.145688
Si Si3 0.399536 0.373548 0.510435
Si Si4 0.235386 0.016554 0.860672
O O1 0.979167 0.229210 0.250000
O O2 0.955775 0.301496 0.414331
O O3 0.105285 0.236391 0.385778
O O4 0.887933 0.087666 0.381279
O O5 0.428563 0.778841 0.141629
O O6 0.518318 0.695800 0.250000
O O7 0.542103 0.690922 0.059093
O O8 0.500000 0.500000 0.500000
O O9 0.329367 0.321474 0.416885
O O10 0.255800 0.020231 0.750000
#
# Coordination Sequence:
#
# PCOD9582051 Si02
#       4
#    12  12  12  12
#     4  10  22  42  68  97 127 165 212 267 328 392
#     4   8  19  38  62  84 111 158 215 264 304 359
#     4  12  25  36  59  93 129 167 209 262 318 380
#     4  10  23  42  68  97 130 167 212 268 331 394
#
# _framework density 20.424866000000002
#
# number of rings (size 3 to 8) (size 9 to 14) (size 15 to 20)
#    0.500    1.500    0.000    2.750    7.000    4.000 
#    0.000    2.500    0.000    0.000    0.000    0.000 
#    0.000    0.000    0.000    0.000    0.000    0.000 
#
# Total GULP energy -267784.121024 kJ/mol
# GULP energy per Si atom -5578.835855 kJ/mol
# Density = 2.037838 g / cm^3
# Si number density = 20.424866 Si / 1000 Ang^3
#
#
#
# Elastic Constant Matrix: (Units=GPa)
#
#
# Indices 1 2 3 4 5 6 
#
# 1 131.3522 55.6140 56.5113 0.0000 0.0000 0.0000
# 2 55.6140 131.3522 56.5113 0.0000 0.0000 0.0000
# 3 56.5113 56.5113 112.8950 0.0000 0.0000 0.0000
# 4 0.0000 0.0000 0.0000 2.5011 0.0000 0.0000
# 5 0.0000 0.0000 0.0000 0.0000 2.5011 0.0000
# 6 0.0000 0.0000 0.0000 0.0000 0.0000 37.8691
#
#
#
# Elastic Compliance Matrix: (Units=1/GPa)
#
#
# Indices 1 2 3 4 5 6 
#
# 1 0.010436 -0.002767 -0.003839 0.000000 0.000000 0.000000
# 2 -0.002767 0.010436 -0.003839 0.000000 0.000000 0.000000
# 3 -0.003839 -0.003839 0.012701 0.000000 0.000000 0.000000
# 4 0.000000 0.000000 0.000000 0.399820 0.000000 0.000000
# 5 0.000000 0.000000 0.000000 0.000000 0.399820 0.000000
# 6 0.000000 0.000000 0.000000 0.000000 0.000000 0.026407
#
#
# Mechanical properties :
#
#
# Convention : Reuss Voigt Hill
#
# Bulk Modulus (GPa) = 78.84109 79.20808 79.02458
# Shear Modulus (GPa) = 5.65139 22.37178 14.01158
#
# Velocity S-wave (km/s) = 1.66521 3.31315 2.62201
# Velocity P-wave (km/s) = 6.51011 7.31440 6.92394
#
# Compressibility (1/GPa) = 0.01268374
#
# Stress axis : x y z
#
# Youngs Moduli (GPa) = 95.81926 95.81926 78.73344
#
# Poissons Ratio (x) = 0.26514 0.30225
# Poissons Ratio (y) = 0.26514 0.30225
# Poissons Ratio (z) = 0.36785 0.36785
#
# Static dielectric constant tensor:
#      x y z
#    x 1.762670 0.000000 0.000000 
#    y 0.000000 1.762670 0.000000 
#    z 0.000000 0.000000 1.734110 
# 
# From -- ./inp_files/2464.got.cif
#   From: 2010.05.17/outbox.cif.g08.bks.cpg/sg176_2_cif.got.tgz:2464.got - 2010.06.03 11:36:45.
