data_PCOD9582596
_publ_section_title
;
Structure prediction by ZEFSAII (Michael W. Deem and Ramdas Pophale) SiO2 
 PCOD9582596
Probable space group: P 61 2 2
;
_chemical_formula_sum "Si O2"
_cell_formula_units_Z 72
_cell_length_a 14.854904
_cell_length_b 14.854904
_cell_length_c 17.099501
_cell_angle_alpha 90.000000
_cell_angle_beta 90.000000
_cell_angle_gamma 120.000000
_cell_volume 3267.787203
_symmetry_space_group_name_H-M "P 61 2 2"
_symmetry_group_IT_number 178
_symmetry_cell_setting 'hexagonal'
loop_
_space_group_symop_operation_xyz
x,y,z
x-y,x,1/6+z
-y,x-y,1/3+z
-x,-y,1/2+z
-x+y,-x,2/3+z
y,-x+y,5/6+z
x-y,-y,-z
-x,-x+y,2/3-z
y,x,1/3-z
-y,-x,5/6-z
-x+y,y,1/2-z
x,x-y,1/6-z
loop_
_atom_site_type_symbol
_atom_site_label
_atom_site_fract_x
_atom_site_fract_y
_atom_site_fract_z
Si Si1 0.990268 0.757864 0.584491
Si Si2 0.806323 0.756500 0.086908
Si Si3 0.771504 0.434646 0.889621
Si Si4 0.202432 0.459479 0.839499
Si Si5 0.122334 0.784730 0.835414
Si Si6 0.629907 0.093512 0.710893
O O1 0.009697 0.756906 0.491012
O O2 0.872790 0.722769 0.603468
O O3 0.077043 0.872443 0.608115
O O4 0.020412 0.679942 0.627311
O O5 0.816882 0.816882 0.166667
O O6 0.747793 0.637977 0.117613
O O7 0.653201 0.346800 0.916667
O O8 0.806936 0.368459 0.836369
O O9 0.797856 0.539937 0.845499
O O10 0.846932 0.481481 0.965080
O O11 0.216939 0.433878 0.750000
O O12 0.300395 0.483077 0.892828
O O13 0.153514 0.846486 0.916667
O O14 0.000000 0.698151 0.833334
O O15 0.517052 0.034103 0.750000
#
# Coordination Sequence:
#
# PCOD9582596 Si02
#       6
#    12  12  12  12  12  12
#     4  11  25  46  67  97 137 185 233 298 358 421
#     4  11  22  41  71 100 136 170 232 298 371 421
#     4  11  24  40  70 103 140 182 232 288 348 427
#     4  10  20  37  63  98 139 179 214 279 350 422
#     4  12  27  50  70  96 142 194 247 297 357 431
#     4  11  20  39  66  96 140 177 224 273 354 425
#
# _framework density 22.033259000000001
#
# number of rings (size 3 to 8) (size 9 to 14) (size 15 to 20)
#    0.000    1.000    3.333    6.500    2.333    1.333 
#    3.000    5.000    0.000    0.000    0.000    0.000 
#    0.000    0.000    0.000    0.000    0.000    0.000 
#
# Total GULP energy -401876.606907 kJ/mol
# GULP energy per Si atom -5581.619540 kJ/mol
# Density = 2.198311 g / cm^3
# Si number density = 22.033259 Si / 1000 Ang^3
#
#
#
# Elastic Constant Matrix: (Units=GPa)
#
#
# Indices 1 2 3 4 5 6 
#
# 1 88.2478 29.4265 4.2746 0.0000 0.0000 0.0000
# 2 29.4265 88.2478 4.2746 0.0000 0.0000 0.0000
# 3 4.2746 4.2746 73.6038 0.0000 0.0000 0.0000
# 4 0.0000 0.0000 0.0000 26.1312 0.0000 0.0000
# 5 0.0000 0.0000 0.0000 0.0000 26.1312 0.0000
# 6 0.0000 0.0000 0.0000 0.0000 0.0000 29.4106
#
#
#
# Elastic Compliance Matrix: (Units=1/GPa)
#
#
# Indices 1 2 3 4 5 6 
#
# 1 0.012767 -0.004233 -0.000496 0.000000 0.000000 0.000000
# 2 -0.004233 0.012767 -0.000496 0.000000 0.000000 0.000000
# 3 -0.000496 -0.000496 0.013644 0.000000 0.000000 0.000000
# 4 0.000000 0.000000 0.000000 0.038268 0.000000 0.000000
# 5 0.000000 0.000000 0.000000 0.000000 0.038268 0.000000
# 6 0.000000 0.000000 0.000000 0.000000 0.000000 0.034001
#
#
# Mechanical properties :
#
#
# Convention : Reuss Voigt Hill
#
# Bulk Modulus (GPa) = 34.80753 36.22787 35.51770
# Shear Modulus (GPa) = 29.45644 30.47619 29.96631
#
# Velocity S-wave (km/s) = 3.66034 3.72316 3.69189
# Velocity P-wave (km/s) = 5.80484 5.91275 5.85904
#
# Compressibility (1/GPa) = 0.02872942
#
# Stress axis : x y z
#
# Youngs Moduli (GPa) = 78.32477 78.32477 73.29326
#
# Poissons Ratio (x) = 0.33157 0.03633
# Poissons Ratio (y) = 0.33157 0.03633
# Poissons Ratio (z) = 0.03882 0.03882
#
# Static dielectric constant tensor:
#      x y z
#    x 1.845830 0.000000 0.000000 
#    y 0.000000 1.845830 0.000000 
#    z 0.000000 0.000000 1.871950 
# 
# From -- ./inp_files/6768.got.cif
#   From: 2010.05.17/outbox.cif.g08.bks.cpg/sg178_4_cif.got.tgz:6768.got - 2010.05.20 11:30:59.
