data_PCOD9582404
_publ_section_title
;
Structure prediction by ZEFSAII (Michael W. Deem and Ramdas Pophale) SiO2 
 PCOD9582404
Probable space group: P 61 2 2
;
_chemical_formula_sum "Si O2"
_cell_formula_units_Z 66
_cell_length_a 22.029315
_cell_length_b 22.029315
_cell_length_c 8.559135
_cell_angle_alpha 90.000000
_cell_angle_beta 90.000000
_cell_angle_gamma 120.000000
_cell_volume 3597.182684
_symmetry_space_group_name_H-M "P 61 2 2"
_symmetry_group_IT_number 178
_symmetry_cell_setting 'hexagonal'
loop_
_space_group_symop_operation_xyz
x,y,z
x-y,x,1/6+z
-y,x-y,1/3+z
-x,-y,1/2+z
-x+y,-x,2/3+z
y,-x+y,5/6+z
x-y,-y,-z
-x,-x+y,2/3-z
y,x,1/3-z
-y,-x,5/6-z
-x+y,y,1/2-z
x,x-y,1/6-z
loop_
_atom_site_type_symbol
_atom_site_label
_atom_site_fract_x
_atom_site_fract_y
_atom_site_fract_z
Si Si1 0.601147 0.677078 0.747657
Si Si2 0.135375 0.075523 0.800258
Si Si3 0.600431 0.452198 0.747951
Si Si4 0.628469 0.314235 0.083334
Si Si5 0.056024 0.581276 0.467829
Si Si6 0.917950 0.738208 0.887110
O O1 0.639888 0.639888 0.666667
O O2 0.532507 0.650814 0.638827
O O3 0.659945 0.758541 0.760016
O O4 0.572681 0.645431 0.919280
O O5 0.102215 0.094679 0.943797
O O6 0.116475 0.116475 0.666667
O O7 0.215516 0.094712 0.817134
O O8 0.648448 0.417462 0.753368
O O9 0.538556 0.416824 0.619613
O O10 0.563030 0.436971 0.916667
O O11 0.668373 0.336746 0.250000
O O12 0.028921 0.514461 0.583334
O O13 0.000000 0.567390 0.333334
O O14 0.866481 0.732961 0.750000
O O15 0.000000 0.782199 0.833334
#
# Coordination Sequence:
#
# PCOD9582404 Si02
#       6
#    12  12  12   6  12  12
#     4  10  22  36  59  95 121 159 202 245 305 381
#     4  10  21  36  60  87 115 153 213 274 316 365
#     4  10  20  38  63  88 120 161 199 255 298 358
#     4  10  24  38  58  86 122 156 202 246 314 364
#     4  10  18  33  62  91 121 152 203 250 296 357
#     4  11  22  38  61  85 120 161 203 251 319 383
#
# _framework density 18.347691999999999
#
# number of rings (size 3 to 8) (size 9 to 14) (size 15 to 20)
#    0.000    1.818    1.818    3.818    5.091    3.636 
#    0.000    2.727    8.000    0.000    0.000    0.000 
#    0.000    0.000    0.000    0.000    0.000    0.000 
#
# Total GULP energy -367606.470789 kJ/mol
# GULP energy per Si atom -5569.795012 kJ/mol
# Density = 1.830593 g / cm^3
# Si number density = 18.347692 Si / 1000 Ang^3
#
#
#
# Elastic Constant Matrix: (Units=GPa)
#
#
# Indices 1 2 3 4 5 6 
#
# 1 123.0596 60.4072 59.5614 0.0000 0.0000 0.0000
# 2 60.4072 123.0596 59.5614 0.0000 0.0000 0.0000
# 3 59.5614 59.5614 117.8757 0.0000 0.0000 0.0000
# 4 0.0000 0.0000 0.0000 29.3197 0.0000 0.0000
# 5 0.0000 0.0000 0.0000 0.0000 29.3197 0.0000
# 6 0.0000 0.0000 0.0000 0.0000 0.0000 31.3262
#
#
#
# Elastic Compliance Matrix: (Units=1/GPa)
#
#
# Indices 1 2 3 4 5 6 
#
# 1 0.012037 -0.003925 -0.004099 0.000000 0.000000 0.000000
# 2 -0.003925 0.012037 -0.004099 0.000000 0.000000 0.000000
# 3 -0.004099 -0.004099 0.012626 0.000000 0.000000 0.000000
# 4 0.000000 0.000000 0.000000 0.034107 0.000000 0.000000
# 5 0.000000 0.000000 0.000000 0.000000 0.034107 0.000000
# 6 0.000000 0.000000 0.000000 0.000000 0.000000 0.031922
#
#
# Mechanical properties :
#
#
# Convention : Reuss Voigt Hill
#
# Bulk Modulus (GPa) = 80.29481 80.33945 80.31713
# Shear Modulus (GPa) = 30.26075 30.29077 30.27576
#
# Velocity S-wave (km/s) = 4.06556 4.06757 4.06656
# Velocity P-wave (km/s) = 8.11765 8.12050 8.11907
#
# Compressibility (1/GPa) = 0.01245411
#
# Stress axis : x y z
#
# Youngs Moduli (GPa) = 83.08062 83.08062 79.20316
#
# Poissons Ratio (x) = 0.32606 0.32464
# Poissons Ratio (y) = 0.32606 0.32464
# Poissons Ratio (z) = 0.34054 0.34054
#
# Static dielectric constant tensor:
#      x y z
#    x 1.636920 0.000000 0.000000 
#    y 0.000000 1.636920 0.000000 
#    z 0.000000 0.000000 1.749360 
# 
# From -- ./inp_files/3240.got.cif
#   From: 2010.05.17/outbox.cif.g08.bks.cpg/sg178_2_cif.got.tgz:3240.got - 2010.05.20 11:30:59.
