data_PCOD9582319
_publ_section_title
;
Structure prediction by ZEFSAII (Michael W. Deem and Ramdas Pophale) SiO2 
 PCOD9582319
Probable space group: P 6 2 2
;
_chemical_formula_sum "Si O2"
_cell_formula_units_Z 60
_cell_length_a 14.394743
_cell_length_b 14.394743
_cell_length_c 14.521367
_cell_angle_alpha 90.000000
_cell_angle_beta 90.000000
_cell_angle_gamma 120.000000
_cell_volume 2605.829307
_symmetry_space_group_name_H-M "P 6 2 2"
_symmetry_group_IT_number 177
_symmetry_cell_setting 'hexagonal'
loop_
_space_group_symop_operation_xyz
x,y,z
x-y,x,z
-y,x-y,z
-x,-y,z
-x+y,-x,z
y,-x+y,z
x-y,-y,-z
-x,-x+y,-z
y,x,-z
-y,-x,-z
-x+y,y,-z
x,x-y,-z
loop_
_atom_site_type_symbol
_atom_site_label
_atom_site_fract_x
_atom_site_fract_y
_atom_site_fract_z
Si Si1 0.802360 0.037305 0.786565
Si Si2 0.422520 0.582626 0.397145
Si Si3 0.540623 0.411879 0.195277
Si Si4 0.565047 0.810865 0.104899
Si Si5 0.323110 0.334298 0.400529
O O1 0.744287 0.080401 0.854784
O O2 0.751597 0.025771 0.684819
O O3 0.924212 0.130133 0.800174
O O4 0.396097 0.603904 0.500000
O O5 0.412027 0.604802 0.290897
O O6 0.345025 0.454500 0.397496
O O7 0.552571 0.637146 0.397512
O O8 0.500000 0.500000 0.209396
O O9 0.636910 0.462762 0.121963
O O10 0.452618 0.293681 0.162062
O O11 0.580050 0.790025 0.000000
O O12 0.280994 0.280994 0.500000
#
# Coordination Sequence:
#
# PCOD9582319 Si02
#       5
#    12  12  12  12  12
#     4  12  26  45  66  96 138 194 256 308 357 417
#     4   9  16  34  67 104 138 175 215 278 352 441
#     4  12  23  44  72 101 141 181 222 286 369 443
#     4  12  27  45  70 105 139 179 240 304 376 449
#     4   9  17  35  65  99 134 179 228 282 357 428
#
# _framework density 23.025300999999999
#
# number of rings (size 3 to 8) (size 9 to 14) (size 15 to 20)
#    0.000    1.200    4.000    4.800    0.000    4.800 
#    0.000    1.000    0.000    2.400    0.000    0.000 
#    0.000    0.000    0.000    0.000    0.000    0.000 
#
# Total GULP energy -334410.632993 kJ/mol
# GULP energy per Si atom -5573.510550 kJ/mol
# Density = 2.297289 g / cm^3
# Si number density = 23.025301 Si / 1000 Ang^3
#
#
#
# Elastic Constant Matrix: (Units=GPa)
#
#
# Indices 1 2 3 4 5 6 
#
# 1 121.0429 11.0726 17.9240 0.0000 0.0000 0.0000
# 2 11.0726 121.0429 17.9240 0.0000 0.0000 0.0000
# 3 17.9240 17.9240 168.7562 0.0000 0.0000 0.0000
# 4 0.0000 0.0000 0.0000 52.7290 0.0000 0.0000
# 5 0.0000 0.0000 0.0000 0.0000 52.7290 0.0000
# 6 0.0000 0.0000 0.0000 0.0000 0.0000 54.9851
#
#
#
# Elastic Compliance Matrix: (Units=1/GPa)
#
#
# Indices 1 2 3 4 5 6 
#
# 1 0.008444 -0.000650 -0.000828 0.000000 0.000000 0.000000
# 2 -0.000650 0.008444 -0.000828 0.000000 0.000000 0.000000
# 3 -0.000828 -0.000828 0.006102 0.000000 0.000000 0.000000
# 4 0.000000 0.000000 0.000000 0.018965 0.000000 0.000000
# 5 0.000000 0.000000 0.000000 0.000000 0.018965 0.000000
# 6 0.000000 0.000000 0.000000 0.000000 0.000000 0.018187
#
#
# Mechanical properties :
#
#
# Convention : Reuss Voigt Hill
#
# Bulk Modulus (GPa) = 54.41328 56.07594 55.24461
# Shear Modulus (GPa) = 55.65329 56.35004 56.00167
#
# Velocity S-wave (km/s) = 4.92168 4.95240 4.93706
# Velocity P-wave (km/s) = 7.48201 7.55702 7.51961
#
# Compressibility (1/GPa) = 0.01837787
#
# Stress axis : x y z
#
# Youngs Moduli (GPa) = 118.43350 118.43350 163.89275
#
# Poissons Ratio (x) = 0.07696 0.13567
# Poissons Ratio (y) = 0.07696 0.13567
# Poissons Ratio (z) = 0.09804 0.09804
#
# Static dielectric constant tensor:
#      x y z
#    x 1.895600 0.000000 0.000000 
#    y 0.000000 1.895600 0.000000 
#    z 0.000000 0.000000 1.838550 
# 
# From -- ./inp_files/2416.got.cif
#   From: 2010.05.17/outbox.cif.g08.bks.cpg/sg177_2_cif.got.tgz:2416.got - 2010.05.20 11:28:44.
