data_PCOD9582239
_publ_section_title
;
Structure prediction by ZEFSAII (Michael W. Deem and Ramdas Pophale) SiO2 
 PCOD9582239
Probable space group: P 6 2 2
;
_chemical_formula_sum "Si O2"
_cell_formula_units_Z 60
_cell_length_a 13.799413
_cell_length_b 13.799413
_cell_length_c 17.624183
_cell_angle_alpha 90.000000
_cell_angle_beta 90.000000
_cell_angle_gamma 120.000000
_cell_volume 2906.436580
_symmetry_space_group_name_H-M "P 6 2 2"
_symmetry_group_IT_number 177
_symmetry_cell_setting 'hexagonal'
loop_
_space_group_symop_operation_xyz
x,y,z
x-y,x,z
-y,x-y,z
-x,-y,z
-x+y,-x,z
y,-x+y,z
x-y,-y,-z
-x,-x+y,-z
y,x,-z
-y,-x,-z
-x+y,y,-z
x,x-y,-z
loop_
_atom_site_type_symbol
_atom_site_label
_atom_site_fract_x
_atom_site_fract_y
_atom_site_fract_z
Si Si1 0.149524 0.661182 0.948793
Si Si2 0.057551 0.802113 0.870284
Si Si3 0.554681 0.424449 0.796058
Si Si4 0.131870 0.266575 0.586489
Si Si5 0.590612 0.771605 0.267600
O O1 0.076442 0.717614 0.923559
O O2 0.186605 0.628121 0.870672
O O3 0.247505 0.752496 0.000000
O O4 0.104455 0.552228 0.000000
O O5 0.087429 0.776069 0.785885
O O6 0.932860 0.781362 0.881541
O O7 0.500000 0.500000 0.813649
O O8 0.461272 0.300716 0.774303
O O9 0.644876 0.487674 0.729934
O O10 0.190091 0.191286 0.595746
O O11 0.155259 0.310517 0.500000
O O12 0.179141 0.359913 0.651131
#
# Coordination Sequence:
#
# PCOD9582239 Si02
#       5
#    12  12  12  12  12
#     4  11  24  41  62  90 121 160 212 269 332 390
#     4  11  24  42  65  95 132 175 219 266 327 399
#     4  11  23  39  61  87 118 158 206 265 316 367
#     4  10  20  36  62  97 134 168 203 248 305 375
#     4  11  22  40  62  90 124 166 217 264 319 376
#
# _framework density 20.643836
#
# number of rings (size 3 to 8) (size 9 to 14) (size 15 to 20)
#    0.000    1.200    0.000    8.200    0.000    5.200 
#    0.000    4.000    0.000    4.800    0.000    0.000 
#    0.000    0.000    0.000    0.000    0.000    0.000 
#
# Total GULP energy -335351.675257 kJ/mol
# GULP energy per Si atom -5589.194588 kJ/mol
# Density = 2.059685 g / cm^3
# Si number density = 20.643836 Si / 1000 Ang^3
#
#
#
# Elastic Constant Matrix: (Units=GPa)
#
#
# Indices 1 2 3 4 5 6 
#
# 1 106.2694 44.6259 45.7421 0.0000 0.0000 0.0000
# 2 44.6259 106.2694 45.7421 0.0000 0.0000 0.0000
# 3 45.7421 45.7421 133.9896 0.0000 0.0000 0.0000
# 4 0.0000 0.0000 0.0000 38.6891 0.0000 0.0000
# 5 0.0000 0.0000 0.0000 0.0000 38.6891 0.0000
# 6 0.0000 0.0000 0.0000 0.0000 0.0000 30.8218
#
#
#
# Elastic Compliance Matrix: (Units=1/GPa)
#
#
# Indices 1 2 3 4 5 6 
#
# 1 0.012290 -0.003933 -0.002853 0.000000 0.000000 0.000000
# 2 -0.003933 0.012290 -0.002853 0.000000 0.000000 0.000000
# 3 -0.002853 -0.002853 0.009411 0.000000 0.000000 0.000000
# 4 0.000000 0.000000 0.000000 0.025847 0.000000 0.000000
# 5 0.000000 0.000000 0.000000 0.000000 0.025847 0.000000
# 6 0.000000 0.000000 0.000000 0.000000 0.000000 0.032445
#
#
# Mechanical properties :
#
#
# Convention : Reuss Voigt Hill
#
# Bulk Modulus (GPa) = 67.96655 68.74986 68.35820
# Shear Modulus (GPa) = 35.13448 35.66788 35.40118
#
# Velocity S-wave (km/s) = 4.12993 4.16116 4.14557
# Velocity P-wave (km/s) = 7.46570 7.51413 7.48995
#
# Compressibility (1/GPa) = 0.01471312
#
# Stress axis : x y z
#
# Youngs Moduli (GPa) = 81.37012 81.37012 106.25724
#
# Poissons Ratio (x) = 0.32001 0.30314
# Poissons Ratio (y) = 0.32001 0.30314
# Poissons Ratio (z) = 0.23214 0.23214
#
# Static dielectric constant tensor:
#      x y z
#    x 1.761570 0.000000 0.000000 
#    y 0.000000 1.761570 0.000000 
#    z 0.000000 0.000000 1.664230 
# 
# From -- ./inp_files/2443.got.cif
#   From: 2010.05.17/outbox.cif.g08.bks.cpg/sg177_2_cif.got.tgz:2443.got - 2010.05.20 11:28:44.
