data_PCOD9582119
_publ_section_title
;
Structure prediction by ZEFSAII (Michael W. Deem and Ramdas Pophale) SiO2 
 PCOD9582119
Probable space group: P 63/M
;
_chemical_formula_sum "Si O2"
_cell_formula_units_Z 40
_cell_length_a 11.454563
_cell_length_b 11.454563
_cell_length_c 18.249132
_cell_angle_alpha 90.000000
_cell_angle_beta 90.000000
_cell_angle_gamma 120.000000
_cell_volume 2073.623446
_symmetry_space_group_name_H-M "P 63/M"
_symmetry_group_IT_number 176
_symmetry_cell_setting 'hexagonal'
loop_
_space_group_symop_operation_xyz
x,y,z
x-y,x,1/2+z
-y,x-y,z
-x,-y,1/2+z
-x+y,-x,z
y,-x+y,1/2+z
-x,-y,-z
-x+y,-x,1/2-z
y,-x+y,-z
x,y,1/2-z
x-y,x,-z
-y,x-y,1/2-z
loop_
_atom_site_type_symbol
_atom_site_label
_atom_site_fract_x
_atom_site_fract_y
_atom_site_fract_z
Si Si1 0.709638 0.854819 0.336385
Si Si2 0.000000 0.000000 0.412412
Si Si3 0.392490 0.334777 0.081554
Si Si4 0.942286 0.334777 0.418446
O O1 0.732745 0.866372 0.250000
O O2 0.639634 0.700830 0.362603
O O3 0.639634 0.938803 0.362603
O O4 0.850136 0.925068 0.380562
O O5 0.000000 0.000000 0.500000
O O6 0.380067 0.190033 0.093985
O O7 0.546337 0.453663 0.086672
O O8 0.340878 0.340878 0.000000
#
# Coordination Sequence:
#
# PCOD9582119 Si02
#       4
#    12   4  12  12
#     4  12  24  40  64  96 128 164 208 267 328 382
#     4  12  22  38  70  96 124 155 211 273 322 377
#     4  11  23  41  66  94 128 170 217 265 316 382
#     4  11  23  41  66  94 128 170 217 265 316 382
#
# _framework density 19.289904
#
# number of rings (size 3 to 8) (size 9 to 14) (size 15 to 20)
#    0.000    0.600    6.000    3.300    0.000    1.200 
#    1.800    0.000    0.000    3.600    0.000    0.000 
#    0.000    0.000    0.000    0.000    0.000    0.000 
#
# Total GULP energy -223659.935856 kJ/mol
# GULP energy per Si atom -5591.498396 kJ/mol
# Density = 1.924600 g / cm^3
# Si number density = 19.289904 Si / 1000 Ang^3
#
#
#
# Elastic Constant Matrix: (Units=GPa)
#
#
# Indices 1 2 3 4 5 6 
#
# 1 88.2720 38.9722 27.5966 0.0000 0.0000 0.0000
# 2 38.9722 88.2720 27.5966 0.0000 0.0000 0.0000
# 3 27.5966 27.5966 154.3945 0.0000 0.0000 0.0000
# 4 0.0000 0.0000 0.0000 10.7988 0.0000 0.0000
# 5 0.0000 0.0000 0.0000 0.0000 10.7988 0.0000
# 6 0.0000 0.0000 0.0000 0.0000 0.0000 24.6499
#
#
#
# Elastic Compliance Matrix: (Units=1/GPa)
#
#
# Indices 1 2 3 4 5 6 
#
# 1 0.014402 -0.005882 -0.001523 0.000000 0.000000 0.000000
# 2 -0.005882 0.014402 -0.001523 0.000000 0.000000 0.000000
# 3 -0.001523 -0.001523 0.007021 0.000000 0.000000 0.000000
# 4 0.000000 0.000000 0.000000 0.092603 0.000000 0.000000
# 5 0.000000 0.000000 0.000000 0.000000 0.092603 0.000000
# 6 0.000000 0.000000 0.000000 0.000000 0.000000 0.040568
#
#
# Mechanical properties :
#
#
# Convention : Reuss Voigt Hill
#
# Bulk Modulus (GPa) = 55.65127 57.69658 56.67393
# Shear Modulus (GPa) = 17.51657 25.03438 21.27547
#
# Velocity S-wave (km/s) = 3.01669 3.60640 3.32465
# Velocity P-wave (km/s) = 6.40675 6.87871 6.64692
#
# Compressibility (1/GPa) = 0.01796904
#
# Stress axis : x y z
#
# Youngs Moduli (GPa) = 69.43609 69.43609 142.42423
#
# Poissons Ratio (x) = 0.40844 0.21688
# Poissons Ratio (y) = 0.40844 0.21688
# Poissons Ratio (z) = 0.10574 0.10574
#
# Static dielectric constant tensor:
#      x y z
#    x 1.680280 0.000000 0.000000 
#    y 0.000000 1.680280 0.000000 
#    z 0.000000 0.000000 1.640690 
# 
# From -- ./inp_files/3128.got.cif
#   From: 2010.05.17/outbox.cif.g08.bks.cpg/sg176_2_cif.got.tgz:3128.got - 2010.06.03 11:36:45.
