data_PCOD9582092
_publ_section_title
;
Structure prediction by ZEFSAII (Michael W. Deem and Ramdas Pophale) SiO2 
 PCOD9582092
Probable space group: P 63/M
;
_chemical_formula_sum "Si O2"
_cell_formula_units_Z 58
_cell_length_a 14.454576
_cell_length_b 14.454576
_cell_length_c 15.316002
_cell_angle_alpha 90.000000
_cell_angle_beta 90.000000
_cell_angle_gamma 120.000000
_cell_volume 2771.320536
_symmetry_space_group_name_H-M "P 63/M"
_symmetry_group_IT_number 176
_symmetry_cell_setting 'hexagonal'
loop_
_space_group_symop_operation_xyz
x,y,z
x-y,x,1/2+z
-y,x-y,z
-x,-y,1/2+z
-x+y,-x,z
y,-x+y,1/2+z
-x,-y,-z
-x+y,-x,1/2-z
y,-x+y,-z
x,y,1/2-z
x-y,x,-z
-y,x-y,1/2-z
loop_
_atom_site_type_symbol
_atom_site_label
_atom_site_fract_x
_atom_site_fract_y
_atom_site_fract_z
Si Si1 0.101312 0.613154 0.102527
Si Si2 0.632710 0.599006 0.091061
Si Si3 0.020776 0.189057 0.442166
Si Si4 0.333334 0.666668 0.146328
Si Si5 0.989262 0.298958 0.750000
Si Si6 0.240856 0.377648 0.750000
Si Si7 0.816771 0.860054 0.250000
O O1 0.227076 0.666201 0.116472
O O2 0.048242 0.662560 0.165458
O O3 0.044793 0.486867 0.123619
O O4 0.078943 0.625353 0.002231
O O5 0.698297 0.726270 0.075085
O O6 0.697164 0.568721 0.161092
O O7 0.118375 0.200844 0.498928
O O8 0.011934 0.133967 0.347645
O O9 0.333334 0.666668 0.250000
O O10 0.925485 0.170708 0.750000
O O11 0.116928 0.344716 0.750000
O O12 0.246906 0.268546 0.750000
#
# Coordination Sequence:
#
# PCOD9582092 Si02
#       7
#    12  12  12   4   6   6   6
#     4  11  26  44  74 104 144 183 243 299 370 421
#     4  10  25  45  70 105 141 185 237 300 353 443
#     4  11  25  42  68 101 145 191 234 291 354 428
#     4  12  27  42  72 106 140 187 240 318 354 430
#     4  12  25  47  71 103 140 192 231 297 358 434
#     4  10  25  45  74  97 141 188 232 284 361 424
#     4  10  26  40  65 102 137 178 233 279 339 428
#
# _framework density 20.928650000000001
#
# number of rings (size 3 to 8) (size 9 to 14) (size 15 to 20)
#    0.000    1.241    1.034    2.069   20.276    1.655 
#    0.621    0.000    0.000    3.310    0.000    0.000 
#    0.000    0.000    0.000    0.000    0.000    0.000 
#
# Total GULP energy -323949.369438 kJ/mol
# GULP energy per Si atom -5585.333956 kJ/mol
# Density = 2.088102 g / cm^3
# Si number density = 20.928650 Si / 1000 Ang^3
#
#
#
# Elastic Constant Matrix: (Units=GPa)
#
#
# Indices 1 2 3 4 5 6 
#
# 1 79.2452 11.6865 24.9739 0.0000 0.0000 0.0002
# 2 11.6865 79.2500 24.9732 0.0000 0.0000 0.0025
# 3 24.9739 24.9732 144.8126 0.0000 0.0000 0.0010
# 4 0.0000 0.0000 0.0000 152.9124 -0.0006 0.0000
# 5 0.0000 0.0000 0.0000 -0.0006 152.9208 0.0000
# 6 0.0002 0.0025 0.0010 0.0000 0.0000 33.7686
#
#
#
# Elastic Compliance Matrix: (Units=1/GPa)
#
#
# Indices 1 2 3 4 5 6 
#
# 1 0.013475 -0.001327 -0.002095 0.000000 0.000000 0.000000
# 2 -0.001327 0.013474 -0.002095 0.000000 0.000000 -0.000001
# 3 -0.002095 -0.002095 0.007628 0.000000 0.000000 0.000000
# 4 0.000000 0.000000 0.000000 0.006540 0.000000 0.000000
# 5 0.000000 0.000000 0.000000 0.000000 0.006539 0.000000
# 6 0.000000 -0.000001 0.000000 0.000000 0.000000 0.029613
#
#
# Mechanical properties :
#
#
# Convention : Reuss Voigt Hill
#
# Bulk Modulus (GPa) = 42.47429 47.39724 44.93576
# Shear Modulus (GPa) = 52.00171 84.03198 68.01684
#
# Velocity S-wave (km/s) = 4.99010 6.34341 5.70701
# Velocity P-wave (km/s) = 7.31712 8.73773 8.05879
#
# Compressibility (1/GPa) = 0.02354366
#
# Stress axis : x y z
#
# Youngs Moduli (GPa) = 74.21163 74.21658 131.09546
#
# Poissons Ratio (x) = 0.09848 0.27465
# Poissons Ratio (y) = 0.09847 0.27462
# Poissons Ratio (z) = 0.15548 0.15547
#
# Static dielectric constant tensor:
#      x y z
#    x 1.717050 0.000000 0.000000 
#    y 0.000000 1.717060 0.000000 
#    z 0.000000 0.000000 1.903190 
# 
# From -- ./inp_files/2711.got.cif
#   From: 2010.05.17/outbox.cif.g08.bks.cpg/sg176_2_cif.got.tgz:2711.got - 2010.06.03 11:36:45.
