data_PCOD9582106
_publ_section_title
;
Structure prediction by ZEFSAII (Michael W. Deem and Ramdas Pophale) SiO2 
 PCOD9582106
Probable space group: P 63/M
;
_chemical_formula_sum "Si O2"
_cell_formula_units_Z 72
_cell_length_a 23.591744
_cell_length_b 23.591744
_cell_length_c 8.350843
_cell_angle_alpha 90.000000
_cell_angle_beta 90.000000
_cell_angle_gamma 120.000000
_cell_volume 4025.140501
_symmetry_space_group_name_H-M "P 63/M"
_symmetry_group_IT_number 176
_symmetry_cell_setting 'hexagonal'
loop_
_space_group_symop_operation_xyz
x,y,z
x-y,x,1/2+z
-y,x-y,z
-x,-y,1/2+z
-x+y,-x,z
y,-x+y,1/2+z
-x,-y,-z
-x+y,-x,1/2-z
y,-x+y,-z
x,y,1/2-z
x-y,x,-z
-y,x-y,1/2-z
loop_
_atom_site_type_symbol
_atom_site_label
_atom_site_fract_x
_atom_site_fract_y
_atom_site_fract_z
Si Si1 0.334541 0.047953 0.055854
Si Si2 0.084888 0.492038 0.057704
Si Si3 0.862395 0.142757 0.439391
Si Si4 0.379465 0.274313 0.943221
Si Si5 0.954505 0.858586 0.934320
Si Si6 0.399215 0.466230 0.557383
O O1 0.335636 0.052426 0.250000
O O2 0.292769 0.080152 0.998022
O O3 0.410689 0.083555 0.002784
O O4 0.301937 0.971511 0.018286
O O5 0.085024 0.492225 0.250000
O O6 0.120795 0.452037 0.006995
O O7 0.008975 0.445751 0.005905
O O8 0.105477 0.564583 0.000591
O O9 0.870445 0.137575 0.250000
O O10 0.795380 0.142494 0.473676
O O11 0.864898 0.082924 0.522122
O O12 0.378857 0.266554 0.750000
O O13 0.975025 0.867227 0.750000
O O14 0.902580 0.882964 0.964113
O O15 0.399113 0.467239 0.750000
#
# Coordination Sequence:
#
# PCOD9582106 Si02
#       6
#    12  12  12  12  12  12
#     4   8  16  30  46  63  89 124 156 189 233 285
#     4   8  14  24  40  63  89 116 145 178 217 264
#     4  11  21  33  50  73  99 129 166 205 248 300
#     4   9  17  31  47  63  91 129 160 190 237 291
#     4  12  25  42  60  78  98 124 164 215 271 323
#     4   8  13  24  42  62  85 115 146 175 214 262
#
# _framework density 17.887574000000001
#
# number of rings (size 3 to 8) (size 9 to 14) (size 15 to 20)
#    0.000    2.667    0.000    5.167    0.000    2.000 
#    0.000    5.000    0.000    0.000    0.000    0.000 
#    1.667    0.000    1.000    0.000    1.333    0.000 
#
# Total GULP energy -401056.331156 kJ/mol
# GULP energy per Si atom -5570.226822 kJ/mol
# Density = 1.784686 g / cm^3
# Si number density = 17.887574 Si / 1000 Ang^3
#
#
#
# Elastic Constant Matrix: (Units=GPa)
#
#
# Indices 1 2 3 4 5 6 
#
# 1 37.2776 -7.4118 -1.3349 0.0000 0.0000 0.0000
# 2 -7.4118 37.2776 -1.3349 0.0000 0.0000 0.0000
# 3 -1.3349 -1.3349 13.2809 0.0000 0.0000 0.0000
# 4 0.0000 0.0000 0.0000 19.5662 0.0000 0.0000
# 5 0.0000 0.0000 0.0000 0.0000 19.5662 0.0000
# 6 0.0000 0.0000 0.0000 0.0000 0.0000 22.3447
#
#
#
# Elastic Compliance Matrix: (Units=1/GPa)
#
#
# Indices 1 2 3 4 5 6 
#
# 1 0.028082 0.005705 0.003396 0.000000 0.000000 0.000000
# 2 0.005705 0.028082 0.003396 0.000000 0.000000 0.000000
# 3 0.003396 0.003396 0.075979 0.000000 0.000000 0.000000
# 4 0.000000 0.000000 0.000000 0.051109 0.000000 0.000000
# 5 0.000000 0.000000 0.000000 0.000000 0.051109 0.000000
# 6 0.000000 0.000000 0.000000 0.000000 0.000000 0.044753
#
#
# Mechanical properties :
#
#
# Convention : Reuss Voigt Hill
#
# Bulk Modulus (GPa) = 6.36392 7.51923 6.94157
# Shear Modulus (GPa) = 16.31337 18.82327 17.56832
#
# Velocity S-wave (km/s) = 3.02320 3.24745 3.13733
# Velocity P-wave (km/s) = 3.96885 4.27481 4.12467
#
# Compressibility (1/GPa) = 0.15713582
#
# Stress axis : x y z
#
# Youngs Moduli (GPa) = 35.61045 35.61045 13.16160
#
# Poissons Ratio (x) = -0.20316 -0.04470
# Poissons Ratio (y) = -0.20316 -0.04470
# Poissons Ratio (z) = -0.12093 -0.12093
#
# Static dielectric constant tensor:
#      x y z
#    x 1.643090 0.000000 0.000000 
#    y 0.000000 1.643090 0.000000 
#    z 0.000000 0.000000 1.620330 
# 
# From -- ./inp_files/1193.got.cif
#   From: 2010.05.17/outbox.cif.g08.bks.cpg/sg176_1_cif.got.tgz:1193.got - 2010.06.03 11:36:45.
