data_PCOD9582330
_publ_section_title
;
Structure prediction by ZEFSAII (Michael W. Deem and Ramdas Pophale) SiO2 
 PCOD9582330
Probable space group: P 61 2 2
;
_chemical_formula_sum "Si O2"
_cell_formula_units_Z 66
_cell_length_a 19.059334
_cell_length_b 19.059334
_cell_length_c 11.655105
_cell_angle_alpha 90.000000
_cell_angle_beta 90.000000
_cell_angle_gamma 120.000000
_cell_volume 3666.589274
_symmetry_space_group_name_H-M "P 61 2 2"
_symmetry_group_IT_number 178
_symmetry_cell_setting 'hexagonal'
loop_
_space_group_symop_operation_xyz
x,y,z
x-y,x,1/6+z
-y,x-y,1/3+z
-x,-y,1/2+z
-x+y,-x,2/3+z
y,-x+y,5/6+z
x-y,-y,-z
-x,-x+y,2/3-z
y,x,1/3-z
-y,-x,5/6-z
-x+y,y,1/2-z
x,x-y,1/6-z
loop_
_atom_site_type_symbol
_atom_site_label
_atom_site_fract_x
_atom_site_fract_y
_atom_site_fract_z
Si Si1 0.253371 0.999218 0.361768
Si Si2 0.904491 0.499857 0.336349
Si Si3 0.072730 0.145460 0.750000
Si Si4 0.258484 0.848137 0.683045
Si Si5 0.726198 0.577908 0.342439
Si Si6 0.798376 0.344847 0.477287
O O1 0.156564 0.956547 0.347433
O O2 0.280833 0.938531 0.312769
O O3 0.262514 0.000000 0.500000
O O4 0.313847 0.089656 0.316868
O O5 0.889081 0.554627 0.428311
O O6 0.867636 0.510941 0.216919
O O7 0.857349 0.409955 0.385409
O O8 0.000000 0.535311 0.333334
O O9 0.092337 0.092337 0.666667
O O10 0.197094 0.761210 0.626357
O O11 0.292146 0.834812 0.801398
O O12 0.797505 0.595009 0.250000
O O13 0.714093 0.285907 0.416667
O O14 0.788641 0.394321 0.583334
#
# Coordination Sequence:
#
# PCOD9582330 Si02
#       6
#    12  12   6  12  12  12
#     4  11  15  29  55  89 114 136 179 238 289 324
#     4  10  18  35  59  83 111 142 186 238 283 334
#     4  10  20  30  52  84 112 150 184 224 278 328
#     4  10  19  33  54  85 119 142 179 236 290 335
#     4  10  15  27  54  88 110 138 174 228 285 339
#     4  10  24  42  57  76 114 154 189 238 286 344
#
# _framework density 18.00038
#
# number of rings (size 3 to 8) (size 9 to 14) (size 15 to 20)
#    0.000    1.818    6.364    1.091    0.000    3.636 
#    3.273    0.000    2.000    0.000    0.000    0.000 
#    0.000    0.000    0.000    0.000    0.000    0.000 
#
# Total GULP energy -367848.868648 kJ/mol
# GULP energy per Si atom -5573.467707 kJ/mol
# Density = 1.795941 g / cm^3
# Si number density = 18.000380 Si / 1000 Ang^3
#
#
#
# Elastic Constant Matrix: (Units=GPa)
#
#
# Indices 1 2 3 4 5 6 
#
# 1 99.5017 49.5670 48.5813 0.0000 0.0000 0.0000
# 2 49.5670 99.5017 48.5813 0.0000 0.0000 0.0000
# 3 48.5813 48.5813 46.9251 0.0000 0.0000 0.0000
# 4 0.0000 0.0000 0.0000 13.5566 0.0000 0.0000
# 5 0.0000 0.0000 0.0000 0.0000 13.5566 0.0000
# 6 0.0000 0.0000 0.0000 0.0000 0.0000 24.9673
#
#
#
# Elastic Compliance Matrix: (Units=1/GPa)
#
#
# Indices 1 2 3 4 5 6 
#
# 1 0.020327 0.000301 -0.021356 0.000000 0.000000 0.000000
# 2 0.000301 0.020327 -0.021356 0.000000 0.000000 0.000000
# 3 -0.021356 -0.021356 0.065531 0.000000 0.000000 0.000000
# 4 0.000000 0.000000 0.000000 0.073765 0.000000 0.000000
# 5 0.000000 0.000000 0.000000 0.000000 0.073765 0.000000
# 6 0.000000 0.000000 0.000000 0.000000 0.000000 0.040052
#
#
# Mechanical properties :
#
#
# Convention : Reuss Voigt Hill
#
# Bulk Modulus (GPa) = 46.81225 59.93195 53.37210
# Shear Modulus (GPa) = 12.96307 17.02937 14.99622
#
# Velocity S-wave (km/s) = 2.68648 3.07914 2.88949
# Velocity P-wave (km/s) = 5.97375 6.78296 6.39117
#
# Compressibility (1/GPa) = 0.02136193
#
# Stress axis : x y z
#
# Youngs Moduli (GPa) = 49.19503 49.19503 15.26001
#
# Poissons Ratio (x) = -0.01481 0.32590
# Poissons Ratio (y) = -0.01481 0.32590
# Poissons Ratio (z) = 1.05063 1.05063
#
# Static dielectric constant tensor:
#      x y z
#    x 1.638140 0.000000 0.000000 
#    y 0.000000 1.638140 0.000000 
#    z 0.000000 0.000000 1.399640 
# 
# From -- ./inp_files/4668.got.cif
#   From: 2010.05.17/outbox.cif.g08.bks.cpg/sg178_3_cif.got.tgz:4668.got - 2010.05.20 11:30:59.
