data_PCOD9582799
_publ_section_title
;
Structure prediction by ZEFSAII (Michael W. Deem and Ramdas Pophale) SiO2 
 PCOD9582799
Probable space group: P 61 2 2
;
_chemical_formula_sum "Si O2"
_cell_formula_units_Z 42
_cell_length_a 9.549947
_cell_length_b 9.549947
_cell_length_c 25.112469
_cell_angle_alpha 90.000000
_cell_angle_beta 90.000000
_cell_angle_gamma 120.000000
_cell_volume 1983.453247
_symmetry_space_group_name_H-M "P 61 2 2"
_symmetry_group_IT_number 178
_symmetry_cell_setting 'hexagonal'
loop_
_space_group_symop_operation_xyz
x,y,z
x-y,x,1/6+z
-y,x-y,1/3+z
-x,-y,1/2+z
-x+y,-x,2/3+z
y,-x+y,5/6+z
x-y,-y,-z
-x,-x+y,2/3-z
y,x,1/3-z
-y,-x,5/6-z
-x+y,y,1/2-z
x,x-y,1/6-z
loop_
_atom_site_type_symbol
_atom_site_label
_atom_site_fract_x
_atom_site_fract_y
_atom_site_fract_z
Si Si1 0.689930 0.552475 0.460122
Si Si2 0.512921 0.691142 0.525085
Si Si3 0.272810 0.259002 0.725219
Si Si4 0.458094 0.458094 0.166667
O O1 0.551075 0.448926 0.416667
O O2 0.615903 0.610436 0.506320
O O3 0.756741 0.435326 0.479371
O O4 0.839207 0.699748 0.428863
O O5 0.551807 0.775904 0.583334
O O6 0.552813 0.843359 0.487233
O O7 0.198451 0.198451 0.666667
O O8 0.451006 0.409528 0.713226
O O9 0.159560 0.319120 0.750000
#
# Coordination Sequence:
#
# PCOD9582799 Si02
#       4
#    12  12  12   6
#     4  11  24  44  71 104 141 193 241 296 363 439
#     4  11  24  45  69 106 145 185 243 294 362 437
#     4  10  22  43  70  94 133 186 236 281 349 426
#     4  10  22  42  68  98 136 182 224 288 346 420
#
# _framework density 21.175187999999999
#
# number of rings (size 3 to 8) (size 9 to 14) (size 15 to 20)
#    0.857    0.571    5.714    0.000    8.000    3.429 
#    2.571    0.000    0.000    0.000    0.000    0.000 
#    0.000    0.000    0.000    0.000    0.000    0.000 
#
# Total GULP energy -234186.784891 kJ/mol
# GULP energy per Si atom -5575.875831 kJ/mol
# Density = 2.112699 g / cm^3
# Si number density = 21.175188 Si / 1000 Ang^3
#
#
#
# Elastic Constant Matrix: (Units=GPa)
#
#
# Indices 1 2 3 4 5 6 
#
# 1 97.9460 37.1815 45.9584 0.0000 0.0000 0.0000
# 2 37.1815 97.9460 45.9584 0.0000 0.0000 0.0000
# 3 45.9584 45.9584 75.0319 0.0000 0.0000 0.0000
# 4 0.0000 0.0000 0.0000 31.6541 0.0000 0.0000
# 5 0.0000 0.0000 0.0000 0.0000 31.6541 0.0000
# 6 0.0000 0.0000 0.0000 0.0000 0.0000 30.3822
#
#
#
# Elastic Compliance Matrix: (Units=1/GPa)
#
#
# Indices 1 2 3 4 5 6 
#
# 1 0.014572 -0.001885 -0.007770 0.000000 0.000000 0.000000
# 2 -0.001885 0.014572 -0.007770 0.000000 0.000000 0.000000
# 3 -0.007770 -0.007770 0.022847 0.000000 0.000000 0.000000
# 4 0.000000 0.000000 0.000000 0.031591 0.000000 0.000000
# 5 0.000000 0.000000 0.000000 0.000000 0.031591 0.000000
# 6 0.000000 0.000000 0.000000 0.000000 0.000000 0.032914
#
#
# Mechanical properties :
#
#
# Convention : Reuss Voigt Hill
#
# Bulk Modulus (GPa) = 58.35298 58.79116 58.57207
# Shear Modulus (GPa) = 26.50387 28.19313 27.34850
#
# Velocity S-wave (km/s) = 3.54170 3.65283 3.59769
# Velocity P-wave (km/s) = 6.65897 6.75391 6.70661
#
# Compressibility (1/GPa) = 0.01713709
#
# Stress axis : x y z
#
# Youngs Moduli (GPa) = 68.62705 68.62705 43.76994
#
# Poissons Ratio (x) = 0.12939 0.34011
# Poissons Ratio (y) = 0.12939 0.34011
# Poissons Ratio (z) = 0.53326 0.53326
#
# Static dielectric constant tensor:
#      x y z
#    x 1.756460 0.000000 0.000000 
#    y 0.000000 1.756460 0.000000 
#    z 0.000000 0.000000 1.952590 
# 
# From -- ./inp_files/9266.got.cif
#   From: 2010.05.17/outbox.cif.g08.bks.cpg/sg178_5_cif.got.tgz:9266.got - 2010.05.20 11:30:59.
