data_PCOD9582962
_publ_section_title
;
Structure prediction by ZEFSAII (Michael W. Deem and Ramdas Pophale) SiO2 
 PCOD9582962
Probable space group: P 61 2 2
;
_chemical_formula_sum "Si O2"
_cell_formula_units_Z 48
_cell_length_a 16.705728
_cell_length_b 16.705728
_cell_length_c 9.879119
_cell_angle_alpha 90.000000
_cell_angle_beta 90.000000
_cell_angle_gamma 120.000000
_cell_volume 2387.699456
_symmetry_space_group_name_H-M "P 61 2 2"
_symmetry_group_IT_number 178
_symmetry_cell_setting 'hexagonal'
loop_
_space_group_symop_operation_xyz
x,y,z
x-y,x,1/6+z
-y,x-y,1/3+z
-x,-y,1/2+z
-x+y,-x,2/3+z
y,-x+y,5/6+z
x-y,-y,-z
-x,-x+y,2/3-z
y,x,1/3-z
-y,-x,5/6-z
-x+y,y,1/2-z
x,x-y,1/6-z
loop_
_atom_site_type_symbol
_atom_site_label
_atom_site_fract_x
_atom_site_fract_y
_atom_site_fract_z
Si Si1 0.165734 0.640137 0.211154
Si Si2 0.308994 0.075832 0.890747
Si Si3 0.306173 0.255483 0.802806
Si Si4 0.683849 0.479523 0.616963
O O1 0.100676 0.684426 0.221071
O O2 0.167165 0.589253 0.347773
O O3 0.267683 0.725116 0.172974
O O4 0.138153 0.569077 0.083334
O O5 0.286310 0.156596 0.858693
O O6 0.414547 0.124668 0.941984
O O7 0.302402 0.024432 0.752245
O O8 0.244154 0.000000 0.000000
O O9 0.253325 0.253325 0.666667
O O10 0.736110 0.472219 0.750000
#
# Coordination Sequence:
#
# PCOD9582962 Si02
#       4
#    12  12  12  12
#     4   9  18  35  56  84 121 164 207 246 287 344
#     4  11  21  40  66  88 115 159 203 244 303 376
#     4  11  24  40  61  91 123 153 197 256 313 357
#     4   9  18  35  57  85 122 162 208 248 286 341
#
# _framework density 20.103033
#
# number of rings (size 3 to 8) (size 9 to 14) (size 15 to 20)
#    0.000    2.000    0.000    6.000    0.000    3.000 
#    0.000   27.500    0.000    7.500    0.000    0.000 
#    0.000    0.000    0.000    0.000    0.000    0.000 
#
# Total GULP energy -268184.428623 kJ/mol
# GULP energy per Si atom -5587.175596 kJ/mol
# Density = 2.005728 g / cm^3
# Si number density = 20.103033 Si / 1000 Ang^3
#
#
#
# Elastic Constant Matrix: (Units=GPa)
#
#
# Indices 1 2 3 4 5 6 
#
# 1 42.7911 41.4920 -8.0953 0.0000 0.0000 0.0000
# 2 41.4920 42.7911 -8.0953 0.0000 0.0000 0.0000
# 3 -8.0953 -8.0953 24.3196 0.0000 0.0000 0.0000
# 4 0.0000 0.0000 0.0000 13.9611 0.0000 0.0000
# 5 0.0000 0.0000 0.0000 0.0000 13.9611 0.0000
# 6 0.0000 0.0000 0.0000 0.0000 0.0000 0.6495
#
#
#
# Elastic Compliance Matrix: (Units=1/GPa)
#
#
# Indices 1 2 3 4 5 6 
#
# 1 0.391231 -0.378556 0.004219 0.000000 0.000000 0.000000
# 2 -0.378556 0.391231 0.004219 0.000000 0.000000 0.000000
# 3 0.004219 0.004219 0.043928 0.000000 0.000000 0.000000
# 4 0.000000 0.000000 0.000000 0.071627 0.000000 0.000000
# 5 0.000000 0.000000 0.000000 0.000000 0.071627 0.000000
# 6 0.000000 0.000000 0.000000 0.000000 0.000000 1.539573
#
#
# Mechanical properties :
#
#
# Convention : Reuss Voigt Hill
#
# Bulk Modulus (GPa) = 11.60691 17.83383 14.72037
# Shear Modulus (GPa) = 1.52524 11.35439 6.43982
#
# Velocity S-wave (km/s) = 0.87199 2.37915 1.79175
# Velocity P-wave (km/s) = 2.60769 4.05433 3.40864
#
# Compressibility (1/GPa) = 0.08615558
#
# Stress axis : x y z
#
# Youngs Moduli (GPa) = 2.55603 2.55603 22.76452
#
# Poissons Ratio (x) = 0.96760 -0.09605
# Poissons Ratio (y) = 0.96760 -0.09605
# Poissons Ratio (z) = -0.01078 -0.01078
#
# Static dielectric constant tensor:
#      x y z
#    x 1.715820 0.000000 0.000000 
#    y 0.000000 1.715820 0.000000 
#    z 0.000000 0.000000 1.727730 
# 
# From -- ./inp_files/2580.got.cif
#   From: 2010.05.17/outbox.cif.g08.bks.cpg/sg178_2_cif.got.tgz:2580.got - 2010.05.20 11:30:59.
