data_PCOD9582277
_publ_section_title
;
Structure prediction by ZEFSAII (Michael W. Deem and Ramdas Pophale) SiO2 
 PCOD9582277
Probable space group: P 6 2 2
;
_chemical_formula_sum "Si O2"
_cell_formula_units_Z 30
_cell_length_a 17.009413
_cell_length_b 17.009413
_cell_length_c 5.346400
_cell_angle_alpha 90.000000
_cell_angle_beta 90.000000
_cell_angle_gamma 120.000000
_cell_volume 1339.586408
_symmetry_space_group_name_H-M "P 6 2 2"
_symmetry_group_IT_number 177
_symmetry_cell_setting 'hexagonal'
loop_
_space_group_symop_operation_xyz
x,y,z
x-y,x,z
-y,x-y,z
-x,-y,z
-x+y,-x,z
y,-x+y,z
x-y,-y,-z
-x,-x+y,-z
y,x,-z
-y,-x,-z
-x+y,y,-z
x,x-y,-z
loop_
_atom_site_type_symbol
_atom_site_label
_atom_site_fract_x
_atom_site_fract_y
_atom_site_fract_z
Si Si1 0.968385 0.686998 0.246476
Si Si2 0.222112 0.444224 0.000000
Si Si3 0.500530 0.396209 0.751831
O O1 0.000000 0.743202 0.500000
O O2 0.030092 0.637352 0.255575
O O3 0.863969 0.615917 0.183569
O O4 0.000000 0.747696 0.000000
O O5 0.196931 0.501474 0.813572
O O6 0.551934 0.448067 0.500000
O O7 0.545569 0.454432 0.000000
#
# Coordination Sequence:
#
# PCOD9582277 Si02
#       3
#    12   6  12
#     4  10  22  38  62  91 114 161 214 274 343 420
#     4  10  24  42  66  94 124 162 228 298 346 422
#     4  11  24  42  66  90 122 174 225 279 359 437
#
# _framework density 22.394971000000002
#
# number of rings (size 3 to 8) (size 9 to 14) (size 15 to 20)
#    0.000    1.600    0.000    4.800    0.000   32.000 
#    1.200    0.000   17.600    0.000    0.000    0.000 
#    0.000    0.000    0.000  437.400    0.000 2656.800 
#
# Total GULP energy -167357.211472 kJ/mol
# GULP energy per Si atom -5578.573716 kJ/mol
# Density = 2.234400 g / cm^3
# Si number density = 22.394971 Si / 1000 Ang^3
#
#
#
# Elastic Constant Matrix: (Units=GPa)
#
#
# Indices 1 2 3 4 5 6 
#
# 1 85.0315 16.0200 31.5920 0.0000 0.0000 0.0000
# 2 16.0200 85.0315 31.5920 0.0000 0.0000 0.0000
# 3 31.5920 31.5920 228.4779 0.0000 0.0000 0.0000
# 4 0.0000 0.0000 0.0000 23.7469 0.0000 0.0000
# 5 0.0000 0.0000 0.0000 0.0000 23.7469 0.0000
# 6 0.0000 0.0000 0.0000 0.0000 0.0000 34.5058
#
#
#
# Elastic Compliance Matrix: (Units=1/GPa)
#
#
# Indices 1 2 3 4 5 6 
#
# 1 0.012661 -0.001829 -0.001498 0.000000 0.000000 0.000000
# 2 -0.001829 0.012661 -0.001498 0.000000 0.000000 0.000000
# 3 -0.001498 -0.001498 0.004791 0.000000 0.000000 0.000000
# 4 0.000000 0.000000 0.000000 0.042111 0.000000 0.000000
# 5 0.000000 0.000000 0.000000 0.000000 0.042111 0.000000
# 6 0.000000 0.000000 0.000000 0.000000 0.000000 0.028981
#
#
# Mechanical properties :
#
#
# Convention : Reuss Voigt Hill
#
# Bulk Modulus (GPa) = 48.86471 61.88322 55.37397
# Shear Modulus (GPa) = 31.29169 37.68902 34.49036
#
# Velocity S-wave (km/s) = 3.74205 4.10680 3.92866
# Velocity P-wave (km/s) = 6.36691 7.08381 6.73490
#
# Compressibility (1/GPa) = 0.02046467
#
# Stress axis : x y z
#
# Youngs Moduli (GPa) = 78.98016 78.98016 208.72445
#
# Poissons Ratio (x) = 0.14445 0.31263
# Poissons Ratio (y) = 0.14445 0.31263
# Poissons Ratio (z) = 0.11830 0.11830
#
# Static dielectric constant tensor:
#      x y z
#    x 1.895570 0.000000 0.000000 
#    y 0.000000 1.895570 0.000000 
#    z 0.000000 0.000000 2.009220 
# 
# From -- ./inp_files/175.got.cif
#   From: 2010.05.17/outbox.cif.g08.bks.cpg/sg177_1_cif.got.tgz:175.got - 2010.05.20 11:28:44.
