data_PCOD9582073
_publ_section_title
;
Structure prediction by ZEFSAII (Michael W. Deem and Ramdas Pophale) SiO2 
 PCOD9582073
Probable space group: P 63/M
;
_chemical_formula_sum "Si O2"
_cell_formula_units_Z 52
_cell_length_a 18.874762
_cell_length_b 18.874762
_cell_length_c 8.743856
_cell_angle_alpha 90.000000
_cell_angle_beta 90.000000
_cell_angle_gamma 120.000000
_cell_volume 2697.718292
_symmetry_space_group_name_H-M "P 63/M"
_symmetry_group_IT_number 176
_symmetry_cell_setting 'hexagonal'
loop_
_space_group_symop_operation_xyz
x,y,z
x-y,x,1/2+z
-y,x-y,z
-x,-y,1/2+z
-x+y,-x,z
y,-x+y,1/2+z
-x,-y,-z
-x+y,-x,1/2-z
y,-x+y,-z
x,y,1/2-z
x-y,x,-z
-y,x-y,1/2-z
loop_
_atom_site_type_symbol
_atom_site_label
_atom_site_fract_x
_atom_site_fract_y
_atom_site_fract_z
Si Si1 0.282910 0.490158 0.433274
Si Si2 0.901964 0.649695 0.933085
Si Si3 0.948472 0.823733 0.068402
Si Si4 0.440954 0.030624 0.433346
Si Si5 0.666668 0.333335 0.067414
O O1 0.290898 0.499025 0.250000
O O2 0.190341 0.420211 0.469092
O O3 0.346302 0.464314 0.496843
O O4 0.302367 0.575813 0.505465
O O5 0.906643 0.665362 0.750000
O O6 0.964880 0.618092 0.969540
O O7 0.925612 0.732679 0.020447
O O8 0.942371 0.829364 0.250000
O O9 0.886363 0.846520 0.987170
O O10 0.449399 0.037169 0.250000
O O11 0.500000 0.000000 0.500000
O O12 0.666667 0.333334 0.250000
#
# Coordination Sequence:
#
# PCOD9582073 Si02
#       5
#    12  12  12  12   4
#     4  11  23  41  64  91 126 165 205 253 309 367
#     4  10  23  42  64  92 125 162 204 250 304 364
#     4  12  25  42  65  92 125 162 204 253 305 363
#     4  11  23  40  63  92 126 164 208 256 306 365
#     4  12  25  41  64  93 124 161 208 258 310 371
#
# _framework density 19.275549000000002
#
# number of rings (size 3 to 8) (size 9 to 14) (size 15 to 20)
#    0.000    0.923    0.000    7.154    0.000    9.231 
#    0.000    0.000    0.000    0.000    0.000    0.000 
#    0.000    0.000    0.000    0.000    0.000    0.000 
#
# Total GULP energy -291154.083852 kJ/mol
# GULP energy per Si atom -5599.116997 kJ/mol
# Density = 1.923168 g / cm^3
# Si number density = 19.275549 Si / 1000 Ang^3
#
#
#
# Elastic Constant Matrix: (Units=GPa)
#
#
# Indices 1 2 3 4 5 6 
#
# 1 120.2559 36.9729 32.1253 0.0000 0.0000 0.0011
# 2 36.9729 120.2661 32.1268 0.0000 0.0000 0.0009
# 3 32.1253 32.1268 47.6310 0.0000 0.0000 0.0007
# 4 0.0000 0.0000 0.0000 35.4265 -0.0003 0.0000
# 5 0.0000 0.0000 0.0000 -0.0003 35.4262 0.0000
# 6 0.0011 0.0009 0.0007 0.0000 0.0000 41.6432
#
#
#
# Elastic Compliance Matrix: (Units=1/GPa)
#
#
# Indices 1 2 3 4 5 6 
#
# 1 0.010394 -0.001613 -0.005922 0.000000 0.000000 0.000000
# 2 -0.001613 0.010393 -0.005922 0.000000 0.000000 0.000000
# 3 -0.005922 -0.005922 0.028983 0.000000 0.000000 0.000000
# 4 0.000000 0.000000 0.000000 0.028227 0.000000 0.000000
# 5 0.000000 0.000000 0.000000 0.000000 0.028228 0.000000
# 6 0.000000 0.000000 0.000000 0.000000 0.000000 0.024014
#
#
# Mechanical properties :
#
#
# Convention : Reuss Voigt Hill
#
# Bulk Modulus (GPa) = 43.75325 54.51142 49.13234
# Shear Modulus (GPa) = 30.34526 34.96105 32.65316
#
# Velocity S-wave (km/s) = 3.97203 4.26344 4.12031
# Velocity P-wave (km/s) = 6.61696 7.25102 6.94124
#
# Compressibility (1/GPa) = 0.02285544
#
# Stress axis : x y z
#
# Youngs Moduli (GPa) = 96.21297 96.22101 34.50302
#
# Poissons Ratio (x) = 0.15524 0.20432
# Poissons Ratio (y) = 0.15522 0.20432
# Poissons Ratio (z) = 0.56976 0.56979
#
# Static dielectric constant tensor:
#      x y z
#    x 1.630770 0.000000 0.000000 
#    y 0.000000 1.630760 0.000000 
#    z 0.000000 0.000000 1.647960 
# 
# From -- ./inp_files/678.got.cif
#   From: 2010.05.17/outbox.cif.g08.bks.cpg/sg176_1_cif.got.tgz:678.got - 2010.06.03 11:36:45.
