data_PCOD9582728
_publ_section_title
;
Structure prediction by ZEFSAII (Michael W. Deem and Ramdas Pophale) SiO2 
 PCOD9582728
Probable space group: P 61 2 2
;
_chemical_formula_sum "Si O2"
_cell_formula_units_Z 60
_cell_length_a 11.697071
_cell_length_b 11.697071
_cell_length_c 25.610666
_cell_angle_alpha 90.000000
_cell_angle_beta 90.000000
_cell_angle_gamma 120.000000
_cell_volume 3034.630065
_symmetry_space_group_name_H-M "P 61 2 2"
_symmetry_group_IT_number 178
_symmetry_cell_setting 'hexagonal'
loop_
_space_group_symop_operation_xyz
x,y,z
x-y,x,1/6+z
-y,x-y,1/3+z
-x,-y,1/2+z
-x+y,-x,2/3+z
y,-x+y,5/6+z
x-y,-y,-z
-x,-x+y,2/3-z
y,x,1/3-z
-y,-x,5/6-z
-x+y,y,1/2-z
x,x-y,1/6-z
loop_
_atom_site_type_symbol
_atom_site_label
_atom_site_fract_x
_atom_site_fract_y
_atom_site_fract_z
Si Si1 0.622879 0.762726 0.188841
Si Si2 0.959911 0.959911 0.666667
Si Si3 0.977371 0.792620 0.575488
Si Si4 0.141896 0.641927 0.884223
Si Si5 0.524838 0.262419 0.583334
Si Si6 0.140506 0.432326 0.402398
O O1 0.734953 0.734953 0.166667
O O2 0.506206 0.623331 0.211348
O O3 0.562195 0.784498 0.135805
O O4 0.683605 0.882705 0.230316
O O5 0.944892 0.842095 0.629636
O O6 0.082098 0.982095 0.701900
O O7 0.850588 0.647280 0.571013
O O8 0.272273 0.727728 0.916667
O O9 0.156608 0.706067 0.827130
O O10 0.017049 0.640288 0.911167
O O11 0.619349 0.200770 0.587356
#
# Coordination Sequence:
#
# PCOD9582728 Si02
#       6
#    12   6  12  12   6  12
#     4  11  22  44  70  94 133 177 228 272 343 415
#     4  10  24  40  60  98 138 164 214 276 348 394
#     4  11  24  40  65 101 131 172 223 279 340 407
#     4  10  21  43  70  90 126 183 226 264 342 417
#     4  10  22  46  66  92 132 184 216 272 338 404
#     4  10  22  42  64  94 133 172 219 280 336 398
#
# _framework density 19.771768999999999
#
# number of rings (size 3 to 8) (size 9 to 14) (size 15 to 20)
#    0.000    1.600    5.000    1.200    8.400    0.000 
#   16.200    0.000    0.000    0.000    0.000    0.000 
#    0.000    0.000    0.000    0.000    0.000    0.000 
#
# Total GULP energy -334420.118487 kJ/mol
# GULP energy per Si atom -5573.668641 kJ/mol
# Density = 1.972677 g / cm^3
# Si number density = 19.771769 Si / 1000 Ang^3
#
#
#
# Elastic Constant Matrix: (Units=GPa)
#
#
# Indices 1 2 3 4 5 6 
#
# 1 112.4987 34.4100 33.2755 0.0000 0.0000 0.0000
# 2 34.4100 112.4987 33.2755 0.0000 0.0000 0.0000
# 3 33.2755 33.2755 40.2869 0.0000 0.0000 0.0000
# 4 0.0000 0.0000 0.0000 26.8211 0.0000 0.0000
# 5 0.0000 0.0000 0.0000 0.0000 26.8211 0.0000
# 6 0.0000 0.0000 0.0000 0.0000 0.0000 39.0443
#
#
#
# Elastic Compliance Matrix: (Units=1/GPa)
#
#
# Indices 1 2 3 4 5 6 
#
# 1 0.011841 -0.000965 -0.008984 0.000000 0.000000 0.000000
# 2 -0.000965 0.011841 -0.008984 0.000000 0.000000 0.000000
# 3 -0.008984 -0.008984 0.039662 0.000000 0.000000 0.000000
# 4 0.000000 0.000000 0.000000 0.037284 0.000000 0.000000
# 5 0.000000 0.000000 0.000000 0.000000 0.037284 0.000000
# 6 0.000000 0.000000 0.000000 0.000000 0.000000 0.025612
#
#
# Mechanical properties :
#
#
# Convention : Reuss Voigt Hill
#
# Bulk Modulus (GPa) = 39.24519 51.91179 45.57849
# Shear Modulus (GPa) = 23.82284 29.49219 26.65751
#
# Velocity S-wave (km/s) = 3.47492 3.86635 3.67585
# Velocity P-wave (km/s) = 5.99936 6.80030 6.41235
#
# Compressibility (1/GPa) = 0.02548083
#
# Stress axis : x y z
#
# Youngs Moduli (GPa) = 84.45020 84.45020 25.21287
#
# Poissons Ratio (x) = 0.08147 0.22650
# Poissons Ratio (y) = 0.08147 0.22650
# Poissons Ratio (z) = 0.75867 0.75867
#
# Static dielectric constant tensor:
#      x y z
#    x 1.724400 0.000000 0.000000 
#    y 0.000000 1.724400 0.000000 
#    z 0.000000 0.000000 1.739940 
# 
# From -- ./inp_files/8847.got.cif
#   From: 2010.05.17/outbox.cif.g08.bks.cpg/sg178_5_cif.got.tgz:8847.got - 2010.05.20 11:30:59.
