data_PCOD9582864
_publ_section_title
;
Structure prediction by ZEFSAII (Michael W. Deem and Ramdas Pophale) SiO2 
 PCOD9582864
Probable space group: P 61 2 2
;
_chemical_formula_sum "Si O2"
_cell_formula_units_Z 36
_cell_length_a 10.655443
_cell_length_b 10.655443
_cell_length_c 13.999102
_cell_angle_alpha 90.000000
_cell_angle_beta 90.000000
_cell_angle_gamma 120.000000
_cell_volume 1376.492439
_symmetry_space_group_name_H-M "P 61 2 2"
_symmetry_group_IT_number 178
_symmetry_cell_setting 'hexagonal'
loop_
_space_group_symop_operation_xyz
x,y,z
x-y,x,1/6+z
-y,x-y,1/3+z
-x,-y,1/2+z
-x+y,-x,2/3+z
y,-x+y,5/6+z
x-y,-y,-z
-x,-x+y,2/3-z
y,x,1/3-z
-y,-x,5/6-z
-x+y,y,1/2-z
x,x-y,1/6-z
loop_
_atom_site_type_symbol
_atom_site_label
_atom_site_fract_x
_atom_site_fract_y
_atom_site_fract_z
Si Si1 0.080414 0.225368 0.082617
Si Si2 0.523198 0.205130 0.877919
Si Si3 0.031267 0.401421 0.943206
O O1 0.141367 0.154209 0.007182
O O2 0.984063 0.265965 0.013641
O O3 0.216008 0.382904 0.110584
O O4 0.680157 0.319844 0.916667
O O5 0.495814 0.292513 0.794356
O O6 0.517912 0.055279 0.859442
O O7 0.000000 0.363179 0.833334
#
# Coordination Sequence:
#
# PCOD9582864 Si02
#       3
#    12  12  12
#     4  10  24  45  78 118 170 221 290 348 438 524
#     4  10  23  43  77 117 161 211 277 353 431 517
#     4  10  25  42  76 114 163 209 276 356 434 511
#
# _framework density 26.153431000000001
#
# number of rings (size 3 to 8) (size 9 to 14) (size 15 to 20)
#    2.000    0.000    0.000    2.000    4.667    4.000 
#    0.000    0.000    7.333    0.000    0.000    0.000 
#    0.000    0.000    0.000    0.000    0.000    0.000 
#
# Total GULP energy -201292.245409 kJ/mol
# GULP energy per Si atom -5591.451261 kJ/mol
# Density = 2.609390 g / cm^3
# Si number density = 26.153431 Si / 1000 Ang^3
#
#
#
# Elastic Constant Matrix: (Units=GPa)
#
#
# Indices 1 2 3 4 5 6 
#
# 1 163.1507 57.8592 55.6585 0.0000 0.0000 0.0000
# 2 57.8592 163.1507 55.6585 0.0000 0.0000 0.0000
# 3 55.6585 55.6585 118.0610 0.0000 0.0000 0.0000
# 4 0.0000 0.0000 0.0000 39.8034 0.0000 0.0000
# 5 0.0000 0.0000 0.0000 0.0000 39.8034 0.0000
# 6 0.0000 0.0000 0.0000 0.0000 0.0000 52.6457
#
#
#
# Elastic Compliance Matrix: (Units=1/GPa)
#
#
# Indices 1 2 3 4 5 6 
#
# 1 0.007716 -0.001782 -0.002797 0.000000 0.000000 0.000000
# 2 -0.001782 0.007716 -0.002797 0.000000 0.000000 0.000000
# 3 -0.002797 -0.002797 0.011108 0.000000 0.000000 0.000000
# 4 0.000000 0.000000 0.000000 0.025123 0.000000 0.000000
# 5 0.000000 0.000000 0.000000 0.000000 0.025123 0.000000
# 6 0.000000 0.000000 0.000000 0.000000 0.000000 0.018995
#
#
# Mechanical properties :
#
#
# Convention : Reuss Voigt Hill
#
# Bulk Modulus (GPa) = 84.84898 86.96829 85.90864
# Shear Modulus (GPa) = 43.68245 44.79624 44.23934
#
# Velocity S-wave (km/s) = 4.09129 4.14312 4.11728
# Velocity P-wave (km/s) = 7.40482 7.49750 7.45131
#
# Compressibility (1/GPa) = 0.01178564
#
# Stress axis : x y z
#
# Youngs Moduli (GPa) = 129.60856 129.60856 90.02721
#
# Poissons Ratio (x) = 0.23095 0.25184
# Poissons Ratio (y) = 0.23095 0.25184
# Poissons Ratio (z) = 0.36256 0.36256
#
# Static dielectric constant tensor:
#      x y z
#    x 2.090520 0.000000 0.000000 
#    y 0.000000 2.090520 0.000000 
#    z 0.000000 0.000000 2.091550 
# 
# From -- ./inp_files/6293.got.cif
#   From: 2010.05.17/outbox.cif.g08.bks.cpg/sg178_4_cif.got.tgz:6293.got - 2010.05.20 11:30:59.
