data_PCOD9582664
_publ_section_title
;
Structure prediction by ZEFSAII (Michael W. Deem and Ramdas Pophale) SiO2 
 PCOD9582664
Probable space group: P 61 2 2
;
_chemical_formula_sum "Si O2"
_cell_formula_units_Z 84
_cell_length_a 18.296136
_cell_length_b 18.296136
_cell_length_c 15.286911
_cell_angle_alpha 90.000000
_cell_angle_beta 90.000000
_cell_angle_gamma 120.000000
_cell_volume 4431.687499
_symmetry_space_group_name_H-M "P 61 2 2"
_symmetry_group_IT_number 178
_symmetry_cell_setting 'hexagonal'
loop_
_space_group_symop_operation_xyz
x,y,z
x-y,x,1/6+z
-y,x-y,1/3+z
-x,-y,1/2+z
-x+y,-x,2/3+z
y,-x+y,5/6+z
x-y,-y,-z
-x,-x+y,2/3-z
y,x,1/3-z
-y,-x,5/6-z
-x+y,y,1/2-z
x,x-y,1/6-z
loop_
_atom_site_type_symbol
_atom_site_label
_atom_site_fract_x
_atom_site_fract_y
_atom_site_fract_z
Si Si1 0.794400 0.612512 0.647852
Si Si2 0.148760 0.691684 0.242114
Si Si3 0.961593 0.311017 0.594981
Si Si4 0.636285 0.860354 0.168982
Si Si5 0.467604 0.851392 0.094463
Si Si6 0.716530 0.277822 0.229213
Si Si7 0.421721 0.381681 0.259984
O O1 0.816464 0.632928 0.750000
O O2 0.881919 0.661251 0.595832
O O3 0.757981 0.512651 0.633709
O O4 0.717398 0.616801 0.600963
O O5 0.073016 0.653543 0.172319
O O6 0.164777 0.783765 0.268008
O O7 0.134483 0.635315 0.327425
O O8 0.236934 0.716308 0.196150
O O9 0.045743 0.311968 0.626969
O O10 0.983202 0.366040 0.506453
O O11 0.544355 0.851348 0.145944
O O12 0.669290 0.834645 0.083334
O O13 0.378496 0.765556 0.103539
O O14 0.434869 0.915218 0.121637
O O15 0.620588 0.241175 0.250000
O O16 0.419700 0.419700 0.166667
#
# Coordination Sequence:
#
# PCOD9582664 Si02
#       7
#    12  12  12  12  12  12  12
#     4  10  21  39  54  83 117 152 197 251 304 360
#     4  10  23  39  57  82 118 153 203 258 309 362
#     4  11  22  39  61  83 114 158 197 250 311 373
#     4  10  22  41  60  83 116 158 200 257 309 360
#     4  10  23  37  54  82 117 156 211 253 309 364
#     4  10  21  32  53  75 105 156 202 257 300 354
#     4  11  23  38  60  86 119 163 202 257 304 363
#
# _framework density 18.954405999999999
#
# number of rings (size 3 to 8) (size 9 to 14) (size 15 to 20)
#    0.000    1.714    1.429    3.857    6.000    5.143 
#    5.143    0.000    0.000    0.000    0.000    0.000 
#    0.000    0.000   77.714    0.000    0.000    0.000 
#
# Total GULP energy -468076.625107 kJ/mol
# GULP energy per Si atom -5572.340775 kJ/mol
# Density = 1.891127 g / cm^3
# Si number density = 18.954406 Si / 1000 Ang^3
#
#
#
# Elastic Constant Matrix: (Units=GPa)
#
#
# Indices 1 2 3 4 5 6 
#
# 1 45.3997 16.2894 6.1812 0.0000 0.0000 0.0000
# 2 16.2894 45.3997 6.1812 0.0000 0.0000 0.0000
# 3 6.1812 6.1812 60.2128 0.0000 0.0000 0.0000
# 4 0.0000 0.0000 0.0000 55.1059 0.0000 0.0000
# 5 0.0000 0.0000 0.0000 0.0000 55.1059 0.0000
# 6 0.0000 0.0000 0.0000 0.0000 0.0000 14.5551
#
#
#
# Elastic Compliance Matrix: (Units=1/GPa)
#
#
# Indices 1 2 3 4 5 6 
#
# 1 0.025451 -0.008901 -0.001699 0.000000 0.000000 0.000000
# 2 -0.008901 0.025451 -0.001699 0.000000 0.000000 0.000000
# 3 -0.001699 -0.001699 0.016957 0.000000 0.000000 0.000000
# 4 0.000000 0.000000 0.000000 0.018147 0.000000 0.000000
# 5 0.000000 0.000000 0.000000 0.000000 0.018147 0.000000
# 6 0.000000 0.000000 0.000000 0.000000 0.000000 0.068704
#
#
# Mechanical properties :
#
#
# Convention : Reuss Voigt Hill
#
# Bulk Modulus (GPa) = 23.11492 23.14618 23.13055
# Shear Modulus (GPa) = 23.59875 33.11076 28.35475
#
# Velocity S-wave (km/s) = 3.53232 4.18408 3.87194
# Velocity P-wave (km/s) = 5.37195 5.96490 5.67618
#
# Compressibility (1/GPa) = 0.04326209
#
# Stress axis : x y z
#
# Youngs Moduli (GPa) = 39.29046 39.29046 58.97412
#
# Poissons Ratio (x) = 0.34971 0.10020
# Poissons Ratio (y) = 0.34971 0.10020
# Poissons Ratio (z) = 0.06676 0.06676
#
# Static dielectric constant tensor:
#      x y z
#    x 1.676260 0.000000 0.000000 
#    y 0.000000 1.676260 0.000000 
#    z 0.000000 0.000000 1.738190 
# 
# From -- ./inp_files/6023.got.cif
#   From: 2010.05.17/outbox.cif.g08.bks.cpg/sg178_4_cif.got.tgz:6023.got - 2010.05.20 11:30:59.
