data_PCOD9582179
_publ_section_title
;
Structure prediction by ZEFSAII (Michael W. Deem and Ramdas Pophale) SiO2 
 PCOD9582179
Probable space group: P 6 2 2
;
_chemical_formula_sum "Si O2"
_cell_formula_units_Z 60
_cell_length_a 17.975956
_cell_length_b 17.975956
_cell_length_c 14.929039
_cell_angle_alpha 90.000000
_cell_angle_beta 90.000000
_cell_angle_gamma 120.000000
_cell_volume 4177.788759
_symmetry_space_group_name_H-M "P 6 2 2"
_symmetry_group_IT_number 177
_symmetry_cell_setting 'hexagonal'
loop_
_space_group_symop_operation_xyz
x,y,z
x-y,x,z
-y,x-y,z
-x,-y,z
-x+y,-x,z
y,-x+y,z
x-y,-y,-z
-x,-x+y,-z
y,x,-z
-y,-x,-z
-x+y,y,-z
x,x-y,-z
loop_
_atom_site_type_symbol
_atom_site_label
_atom_site_fract_x
_atom_site_fract_y
_atom_site_fract_z
Si Si1 0.409748 0.000000 0.102267
Si Si2 0.489539 0.332450 0.770028
Si Si3 0.367363 0.268714 0.603687
Si Si4 0.098649 0.367363 0.396313
Si Si5 0.667550 0.157089 0.229972
O O1 0.430939 0.085045 0.157376
O O2 0.500000 0.000000 0.100171
O O3 0.345894 0.914955 0.157376
O O4 0.383028 0.000000 0.000000
O O5 0.443907 0.319908 0.673750
O O6 0.495983 0.247991 0.788380
O O7 0.582752 0.417248 0.770276
O O8 0.395856 0.289676 0.500000
O O9 0.336811 0.168405 0.616660
O O10 0.295478 0.295478 0.618718
O O11 0.123998 0.443907 0.326250
#
# Coordination Sequence:
#
# PCOD9582179 Si02
#       5
#    12  12  12  12  12
#     4   9  18  32  47  63  85 113 147 188 230 268
#     4  10  19  31  46  66  91 120 152 186 225 269
#     4   9  17  29  46  68  93 121 151 183 221 266
#     4   9  17  29  46  68  93 121 151 183 221 266
#     4  10  19  31  46  66  91 120 152 186 225 269
#
# _framework density 14.361663999999999
#
# number of rings (size 3 to 8) (size 9 to 14) (size 15 to 20)
#    0.000    2.600    2.000    0.400    0.000    1.600 
#    0.000    2.000    0.000    5.200    0.000    2.800 
#    0.000    0.000    0.000    0.000    0.000   18.200 
#
# Total GULP energy -334034.525695 kJ/mol
# GULP energy per Si atom -5567.242095 kJ/mol
# Density = 1.432898 g / cm^3
# Si number density = 14.361664 Si / 1000 Ang^3
#
#
#
# Elastic Constant Matrix: (Units=GPa)
#
#
# Indices 1 2 3 4 5 6 
#
# 1 96.6222 63.5808 61.1097 0.0000 0.0000 0.0000
# 2 63.5808 96.6222 61.1097 0.0000 0.0000 0.0000
# 3 61.1097 61.1097 100.6306 0.0000 0.0000 0.0000
# 4 0.0000 0.0000 0.0000 15.9740 0.0000 0.0000
# 5 0.0000 0.0000 0.0000 0.0000 15.9740 0.0000
# 6 0.0000 0.0000 0.0000 0.0000 0.0000 16.5207
#
#
#
# Elastic Compliance Matrix: (Units=1/GPa)
#
#
# Indices 1 2 3 4 5 6 
#
# 1 0.020948 -0.009317 -0.007063 0.000000 0.000000 0.000000
# 2 -0.009317 0.020948 -0.007063 0.000000 0.000000 0.000000
# 3 -0.007063 -0.007063 0.018515 0.000000 0.000000 0.000000
# 4 0.000000 0.000000 0.000000 0.062602 0.000000 0.000000
# 5 0.000000 0.000000 0.000000 0.000000 0.062602 0.000000
# 6 0.000000 0.000000 0.000000 0.000000 0.000000 0.060530
#
#
# Mechanical properties :
#
#
# Convention : Reuss Voigt Hill
#
# Bulk Modulus (GPa) = 73.93724 73.94173 73.93948
# Shear Modulus (GPa) = 16.80458 16.89871 16.85164
#
# Velocity S-wave (km/s) = 3.42438 3.43396 3.42918
# Velocity P-wave (km/s) = 8.19935 8.20488 8.20211
#
# Compressibility (1/GPa) = 0.01352498
#
# Stress axis : x y z
#
# Youngs Moduli (GPa) = 47.73813 47.73813 54.00986
#
# Poissons Ratio (x) = 0.44480 0.38145
# Poissons Ratio (y) = 0.44480 0.38145
# Poissons Ratio (z) = 0.33716 0.33716
#
# Static dielectric constant tensor:
#      x y z
#    x 1.458430 0.000000 0.000000 
#    y 0.000000 1.458430 0.000000 
#    z 0.000000 0.000000 1.482370 
# 
# From -- ./inp_files/2494.got.cif
#   From: 2010.05.17/outbox.cif.g08.bks.cpg/sg177_2_cif.got.tgz:2494.got - 2010.05.20 11:28:44.
