data_PCOD9582692
_publ_section_title
;
Structure prediction by ZEFSAII (Michael W. Deem and Ramdas Pophale) SiO2 
 PCOD9582692
Probable space group: P 61 2 2
;
_chemical_formula_sum "Si O2"
_cell_formula_units_Z 84
_cell_length_a 21.447848
_cell_length_b 21.447848
_cell_length_c 10.410989
_cell_angle_alpha 90.000000
_cell_angle_beta 90.000000
_cell_angle_gamma 120.000000
_cell_volume 4147.535057
_symmetry_space_group_name_H-M "P 61 2 2"
_symmetry_group_IT_number 178
_symmetry_cell_setting 'hexagonal'
loop_
_space_group_symop_operation_xyz
x,y,z
x-y,x,1/6+z
-y,x-y,1/3+z
-x,-y,1/2+z
-x+y,-x,2/3+z
y,-x+y,5/6+z
x-y,-y,-z
-x,-x+y,2/3-z
y,x,1/3-z
-y,-x,5/6-z
-x+y,y,1/2-z
x,x-y,1/6-z
loop_
_atom_site_type_symbol
_atom_site_label
_atom_site_fract_x
_atom_site_fract_y
_atom_site_fract_z
Si Si1 0.078553 0.685585 0.803222
Si Si2 0.079883 0.837602 0.537979
Si Si3 0.917386 0.752348 0.625377
Si Si4 0.119189 0.488911 0.113468
Si Si5 0.170466 0.778750 0.120573
Si Si6 0.592303 0.550940 0.382036
Si Si7 0.082166 0.716546 0.377580
O O1 0.147621 0.762303 0.764711
O O2 0.062302 0.640898 0.673265
O O3 0.000000 0.678045 0.833334
O O4 0.096912 0.641736 0.910008
O O5 0.107150 0.892851 0.416667
O O6 0.125234 0.874944 0.663597
O O7 0.998950 0.805395 0.587791
O O8 0.090087 0.772320 0.488510
O O9 0.885496 0.770991 0.750000
O O10 0.896804 0.668757 0.631517
O O11 0.140425 0.570213 0.083334
O O12 0.045022 0.442937 0.031544
O O13 0.179404 0.468829 0.077155
O O14 0.139343 0.759745 0.266022
O O15 0.527441 0.472560 0.416667
O O16 0.647191 0.564034 0.266766
O O17 0.000000 0.687139 0.333334
#
# Coordination Sequence:
#
# PCOD9582692 Si02
#       7
#    12  12  12  12  12  12  12
#     4  10  23  40  59  95 133 171 221 279 354 410
#     4  12  23  44  64  96 131 179 229 287 361 441
#     4  12  25  40  66  97 134 173 225 292 364 434
#     4  10  21  38  63  90 125 175 220 274 340 420
#     4  12  23  39  63  95 136 177 224 280 349 418
#     4  10  22  36  61  91 127 167 219 283 331 406
#     4  12  22  39  63  94 133 177 230 273 346 431
#
# _framework density 20.252993
#
# number of rings (size 3 to 8) (size 9 to 14) (size 15 to 20)
#    0.000    0.857    4.286    3.000    2.000    4.000 
#    0.000    0.000    0.000    6.000    0.000    0.000 
#    0.000    0.000    0.000    0.000    0.000    0.000 
#
# Total GULP energy -468574.528635 kJ/mol
# GULP energy per Si atom -5578.268198 kJ/mol
# Density = 2.020690 g / cm^3
# Si number density = 20.252993 Si / 1000 Ang^3
#
#
#
# Elastic Constant Matrix: (Units=GPa)
#
#
# Indices 1 2 3 4 5 6 
#
# 1 119.3458 61.2070 47.2318 0.0000 0.0000 0.0000
# 2 61.2070 119.3458 47.2318 0.0000 0.0000 0.0000
# 3 47.2318 47.2318 135.1276 0.0000 0.0000 0.0000
# 4 0.0000 0.0000 0.0000 32.1262 0.0000 0.0000
# 5 0.0000 0.0000 0.0000 0.0000 32.1262 0.0000
# 6 0.0000 0.0000 0.0000 0.0000 0.0000 29.0694
#
#
#
# Elastic Compliance Matrix: (Units=1/GPa)
#
#
# Indices 1 2 3 4 5 6 
#
# 1 0.011989 -0.005211 -0.002369 0.000000 0.000000 0.000000
# 2 -0.005211 0.011989 -0.002369 0.000000 0.000000 0.000000
# 3 -0.002369 -0.002369 0.009057 0.000000 0.000000 0.000000
# 4 0.000000 0.000000 0.000000 0.031127 0.000000 0.000000
# 5 0.000000 0.000000 0.000000 0.000000 0.031127 0.000000
# 6 0.000000 0.000000 0.000000 0.000000 0.000000 0.034400
#
#
# Mechanical properties :
#
#
# Convention : Reuss Voigt Hill
#
# Bulk Modulus (GPa) = 76.12618 76.12895 76.12756
# Shear Modulus (GPa) = 32.47443 33.20761 32.84102
#
# Velocity S-wave (km/s) = 4.00864 4.05364 4.03120
# Velocity P-wave (km/s) = 7.68731 7.71880 7.70307
#
# Compressibility (1/GPa) = 0.01313609
#
# Stress axis : x y z
#
# Youngs Moduli (GPa) = 83.40884 83.40884 110.41634
#
# Poissons Ratio (x) = 0.43465 0.26160
# Poissons Ratio (y) = 0.43465 0.26160
# Poissons Ratio (z) = 0.19761 0.19761
#
# Static dielectric constant tensor:
#      x y z
#    x 1.773430 0.000000 0.000000 
#    y 0.000000 1.773430 0.000000 
#    z 0.000000 0.000000 1.818540 
# 
# From -- ./inp_files/4895.got.cif
#   From: 2010.05.17/outbox.cif.g08.bks.cpg/sg178_3_cif.got.tgz:4895.got - 2010.05.20 11:30:59.
