data_PCOD9582009
_publ_section_title
;
Structure prediction by ZEFSAII (Michael W. Deem and Ramdas Pophale) SiO2 
 PCOD9582009
Probable space group: P 63/M
;
_chemical_formula_sum "Si O2"
_cell_formula_units_Z 52
_cell_length_a 14.410431
_cell_length_b 14.410431
_cell_length_c 14.166288
_cell_angle_alpha 90.000000
_cell_angle_beta 90.000000
_cell_angle_gamma 120.000000
_cell_volume 2547.655134
_symmetry_space_group_name_H-M "P 63/M"
_symmetry_group_IT_number 176
_symmetry_cell_setting 'hexagonal'
loop_
_space_group_symop_operation_xyz
x,y,z
x-y,x,1/2+z
-y,x-y,z
-x,-y,1/2+z
-x+y,-x,z
y,-x+y,1/2+z
-x,-y,-z
-x+y,-x,1/2-z
y,-x+y,-z
x,y,1/2-z
x-y,x,-z
-y,x-y,1/2-z
loop_
_atom_site_type_symbol
_atom_site_label
_atom_site_fract_x
_atom_site_fract_y
_atom_site_fract_z
Si Si1 0.137659 0.435773 0.863934
Si Si2 0.597795 0.504883 0.864399
Si Si3 0.265788 0.838326 0.363391
Si Si4 0.666667 0.333333 0.364596
Si Si5 0.918715 0.754264 0.000007
O O1 0.139602 0.425568 0.750000
O O2 0.241055 0.547809 0.892509
O O3 0.027779 0.434933 0.889937
O O4 0.129151 0.333201 0.916079
O O5 0.598726 0.502521 0.750000
O O6 0.514236 0.384898 0.894689
O O7 0.717987 0.539376 0.894461
O O8 0.264295 0.842011 0.250000
O O9 0.230346 0.916192 0.409509
O O10 0.666667 0.333334 0.250000
O O11 0.844456 0.805040 0.979973
#
# Coordination Sequence:
#
# PCOD9582009 Si02
#       5
#    12  12  12   4  12
#     4  10  22  42  65  93 128 164 203 254 314 381
#     4   9  18  36  63  93 126 160 199 247 306 371
#     4  10  21  39  65  96 127 162 203 255 315 374
#     4   9  21  39  63  96 133 167 199 246 312 384
#     4  12  27  44  64  88 121 166 219 269 313 365
#
# _framework density 20.410924999999999
#
# number of rings (size 3 to 8) (size 9 to 14) (size 15 to 20)
#    0.000    1.846    2.308    0.692    3.231    5.538 
#    0.000    0.000    0.000    2.769    0.000    0.000 
#    0.000    0.000    0.000    0.000    0.000    0.000 
#
# Total GULP energy -290675.818398 kJ/mol
# GULP energy per Si atom -5589.919585 kJ/mol
# Density = 2.036447 g / cm^3
# Si number density = 20.410925 Si / 1000 Ang^3
#
#
#
# Elastic Constant Matrix: (Units=GPa)
#
#
# Indices 1 2 3 4 5 6 
#
# 1 94.4081 38.6939 21.9734 0.0000 0.0000 -0.0001
# 2 38.6939 94.4078 21.9735 0.0000 0.0000 -0.0002
# 3 21.9734 21.9735 71.6887 0.0000 0.0000 0.0000
# 4 0.0000 0.0000 0.0000 22.0013 0.0000 0.0000
# 5 0.0000 0.0000 0.0000 0.0000 22.0012 0.0000
# 6 -0.0001 -0.0002 0.0000 0.0000 0.0000 27.8571
#
#
#
# Elastic Compliance Matrix: (Units=1/GPa)
#
#
# Indices 1 2 3 4 5 6 
#
# 1 0.013154 -0.004795 -0.002562 0.000000 0.000000 0.000000
# 2 -0.004795 0.013154 -0.002562 0.000000 0.000000 0.000000
# 3 -0.002562 -0.002562 0.015520 0.000000 0.000000 0.000000
# 4 0.000000 0.000000 0.000000 0.045452 0.000000 0.000000
# 5 0.000000 0.000000 0.000000 0.000000 0.045452 0.000000
# 6 0.000000 0.000000 0.000000 0.000000 0.000000 0.035898
#
#
# Mechanical properties :
#
#
# Convention : Reuss Voigt Hill
#
# Bulk Modulus (GPa) = 45.47665 47.30958 46.39312
# Shear Modulus (GPa) = 25.53664 26.22951 25.88307
#
# Velocity S-wave (km/s) = 3.54096 3.58868 3.56490
# Velocity P-wave (km/s) = 6.24874 6.35613 6.30266
#
# Compressibility (1/GPa) = 0.02198931
#
# Stress axis : x y z
#
# Youngs Moduli (GPa) = 76.02328 76.02299 64.43362
#
# Poissons Ratio (x) = 0.36452 0.16509
# Poissons Ratio (y) = 0.36452 0.16509
# Poissons Ratio (z) = 0.19478 0.19478
#
# Static dielectric constant tensor:
#      x y z
#    x 1.699310 0.000000 0.000000 
#    y 0.000000 1.699310 0.000000 
#    z 0.000000 0.000000 1.758690 
# 
# From -- ./inp_files/2578.got.cif
#   From: 2010.05.17/outbox.cif.g08.bks.cpg/sg176_2_cif.got.tgz:2578.got - 2010.06.03 11:36:45.
