data_PCOD9582401
_publ_section_title
;
Structure prediction by ZEFSAII (Michael W. Deem and Ramdas Pophale) SiO2 
 PCOD9582401
Probable space group: P 61 2 2
;
_chemical_formula_sum "Si O2"
_cell_formula_units_Z 42
_cell_length_a 8.186272
_cell_length_b 8.186272
_cell_length_c 24.878594
_cell_angle_alpha 90.000000
_cell_angle_beta 90.000000
_cell_angle_gamma 120.000000
_cell_volume 1443.872369
_symmetry_space_group_name_H-M "P 61 2 2"
_symmetry_group_IT_number 178
_symmetry_cell_setting 'hexagonal'
loop_
_space_group_symop_operation_xyz
x,y,z
x-y,x,1/6+z
-y,x-y,1/3+z
-x,-y,1/2+z
-x+y,-x,2/3+z
y,-x+y,5/6+z
x-y,-y,-z
-x,-x+y,2/3-z
y,x,1/3-z
-y,-x,5/6-z
-x+y,y,1/2-z
x,x-y,1/6-z
loop_
_atom_site_type_symbol
_atom_site_label
_atom_site_fract_x
_atom_site_fract_y
_atom_site_fract_z
Si Si1 0.000000 0.576189 0.333334
Si Si2 0.873768 0.936884 0.583334
Si Si3 0.213212 0.325458 0.558919
Si Si4 0.493572 0.506429 0.416667
Si Si5 0.358797 0.474658 0.060454
O O1 0.894950 0.639881 0.376244
O O2 0.884000 0.401400 0.292625
O O3 0.722709 0.746912 0.553488
O O4 0.031632 0.911081 0.615558
O O5 0.128041 0.459719 0.546096
O O6 0.425560 0.383775 0.542209
O O7 0.525529 0.690385 0.384717
#
# Coordination Sequence:
#
# PCOD9582401 Si02
#       5
#     6   6  12   6  12
#     4   8  20  34  48  70 118 130 164 238 276 282
#     4  10  18  32  60  72  96 148 186 198 280 322
#     4   9  19  35  52  79 105 139 172 233 252 324
#     4  10  18  34  60  78 100 146 194 190 284 322
#     4   9  19  35  52  79 105 139 172 233 252 324
#
# _framework density 29.088443999999999
#
# number of rings (size 3 to 8) (size 9 to 14) (size 15 to 20)
#    1.714    1.143    0.000    1.714    0.000    1.143 
#    0.000   11.429    0.000    0.000    0.000    0.000 
#    0.000    0.000    0.000    0.000    0.000    0.000 
#
# Total GULP energy -233847.458477 kJ/mol
# GULP energy per Si atom -5567.796630 kJ/mol
# Density = 2.902224 g / cm^3
# Si number density = 29.088444 Si / 1000 Ang^3
#
#
#
# Elastic Constant Matrix: (Units=GPa)
#
#
# Indices 1 2 3 4 5 6 
#
# 1 153.5273 31.5262 19.7174 0.0000 0.0000 0.0000
# 2 31.5262 153.5273 19.7174 0.0000 0.0000 0.0000
# 3 19.7174 19.7174 110.5127 0.0000 0.0000 0.0000
# 4 0.0000 0.0000 0.0000 50.1932 0.0000 0.0000
# 5 0.0000 0.0000 0.0000 0.0000 50.1932 0.0000
# 6 0.0000 0.0000 0.0000 0.0000 0.0000 61.0006
#
#
#
# Elastic Compliance Matrix: (Units=1/GPa)
#
#
# Indices 1 2 3 4 5 6 
#
# 1 0.006907 -0.001290 -0.001002 0.000000 0.000000 0.000000
# 2 -0.001290 0.006907 -0.001002 0.000000 0.000000 0.000000
# 3 -0.001002 -0.001002 0.009406 0.000000 0.000000 0.000000
# 4 0.000000 0.000000 0.000000 0.019923 0.000000 0.000000
# 5 0.000000 0.000000 0.000000 0.000000 0.019923 0.000000
# 6 0.000000 0.000000 0.000000 0.000000 0.000000 0.016393
#
#
# Mechanical properties :
#
#
# Convention : Reuss Voigt Hill
#
# Bulk Modulus (GPa) = 60.12423 62.16547 61.14485
# Shear Modulus (GPa) = 54.58988 55.38447 54.98718
#
# Velocity S-wave (km/s) = 4.33677 4.36822 4.35253
# Velocity P-wave (km/s) = 6.76691 6.84539 6.80627
#
# Compressibility (1/GPa) = 0.01663223
#
# Stress axis : x y z
#
# Youngs Moduli (GPa) = 144.77997 144.77997 106.31090
#
# Poissons Ratio (x) = 0.18671 0.10655
# Poissons Ratio (y) = 0.18671 0.10655
# Poissons Ratio (z) = 0.14511 0.14511
#
# Static dielectric constant tensor:
#      x y z
#    x 2.256960 0.000000 0.000000 
#    y 0.000000 2.256960 0.000000 
#    z 0.000000 0.000000 2.709920 
# 
# From -- ./inp_files/9329.got.cif
#   From: 2010.05.17/outbox.cif.g08.bks.cpg/sg178_5_cif.got.tgz:9329.got - 2010.05.20 11:30:59.
