data_PCOD9582120
_publ_section_title
;
Structure prediction by ZEFSAII (Michael W. Deem and Ramdas Pophale) SiO2 
 PCOD9582120
Probable space group: P 63/M
;
_chemical_formula_sum "Si O2"
_cell_formula_units_Z 46
_cell_length_a 16.853117
_cell_length_b 16.853117
_cell_length_c 7.537043
_cell_angle_alpha 90.000000
_cell_angle_beta 90.000000
_cell_angle_gamma 120.000000
_cell_volume 1853.924724
_symmetry_space_group_name_H-M "P 63/M"
_symmetry_group_IT_number 176
_symmetry_cell_setting 'hexagonal'
loop_
_space_group_symop_operation_xyz
x,y,z
x-y,x,1/2+z
-y,x-y,z
-x,-y,1/2+z
-x+y,-x,z
y,-x+y,1/2+z
-x,-y,-z
-x+y,-x,1/2-z
y,-x+y,-z
x,y,1/2-z
x-y,x,-z
-y,x-y,1/2-z
loop_
_atom_site_type_symbol
_atom_site_label
_atom_site_fract_x
_atom_site_fract_y
_atom_site_fract_z
Si Si1 0.666667 0.333334 0.535126
Si Si2 0.674071 0.538343 0.750000
Si Si3 0.986084 0.176994 0.455110
Si Si4 0.282581 0.805488 0.954775
Si Si5 0.643029 0.627759 0.045276
O O1 0.666667 0.333334 0.750000
O O2 0.586394 0.349105 0.466534
O O3 0.742111 0.537838 0.592886
O O4 0.611370 0.547209 0.593607
O O5 0.009314 0.200489 0.250000
O O6 0.076278 0.179468 0.532626
O O7 0.967057 0.256301 0.524448
O O8 0.253590 0.802695 0.750000
O O9 0.328416 0.907274 0.025703
O O10 0.649493 0.606490 0.250000
#
# Coordination Sequence:
#
# PCOD9582120 Si02
#       5
#     4   6  12  12  12
#     4  12  25  53  88 112 149 199 244 299 379 478
#     4  12  24  42  74 102 154 190 250 316 370 446
#     4  11  24  37  57  84 126 179 243 305 362 419
#     4  12  25  47  79 113 151 197 255 305 378 465
#     4  11  24  43  69 102 145 194 250 310 379 445
#
# _framework density 24.812225000000002
#
# number of rings (size 3 to 8) (size 9 to 14) (size 15 to 20)
#    0.000    0.522    3.913    4.174    7.304    2.087 
#    0.000    1.304    0.000    0.000    0.000    0.000 
#    0.000    0.000    0.000    0.000    0.000    0.000 
#
# Total GULP energy -256109.600072 kJ/mol
# GULP energy per Si atom -5567.600002 kJ/mol
# Density = 2.475575 g / cm^3
# Si number density = 24.812225 Si / 1000 Ang^3
#
#
#
# Elastic Constant Matrix: (Units=GPa)
#
#
# Indices 1 2 3 4 5 6 
#
# 1 60.3841 29.5216 10.5718 0.0000 0.0000 0.0000
# 2 29.5216 60.3827 10.5724 0.0000 0.0000 0.0003
# 3 10.5718 10.5724 203.7360 0.0000 0.0000 0.0000
# 4 0.0000 0.0000 0.0000 10.6824 -0.0005 0.0000
# 5 0.0000 0.0000 0.0000 -0.0005 10.6813 0.0000
# 6 0.0000 0.0003 0.0000 0.0000 0.0000 15.4306
#
#
#
# Elastic Compliance Matrix: (Units=1/GPa)
#
#
# Indices 1 2 3 4 5 6 
#
# 1 0.021831 -0.010571 -0.000584 0.000000 0.000000 0.000000
# 2 -0.010571 0.021832 -0.000584 0.000000 0.000000 -0.000001
# 3 -0.000584 -0.000584 0.004969 0.000000 0.000000 0.000000
# 4 0.000000 0.000000 0.000000 0.093612 0.000005 0.000000
# 5 0.000000 0.000000 0.000000 0.000005 0.093622 0.000000
# 6 0.000000 -0.000001 0.000000 0.000000 0.000000 0.064806
#
#
# Mechanical properties :
#
#
# Convention : Reuss Voigt Hill
#
# Bulk Modulus (GPa) = 39.75785 47.31493 43.53639
# Shear Modulus (GPa) = 15.03602 25.61467 20.32534
#
# Velocity S-wave (km/s) = 2.46436 3.21649 2.86521
# Velocity P-wave (km/s) = 4.91485 5.73629 5.34138
#
# Compressibility (1/GPa) = 0.02515226
#
# Stress axis : x y z
#
# Youngs Moduli (GPa) = 45.80623 45.80506 201.24959
#
# Poissons Ratio (x) = 0.48421 0.11758
# Poissons Ratio (y) = 0.48422 0.11761
# Poissons Ratio (z) = 0.02676 0.02677
#
# Static dielectric constant tensor:
#      x y z
#    x 2.049080 0.000000 0.000000 
#    y 0.000000 2.049090 0.000000 
#    z 0.000000 0.000000 1.856290 
# 
# From -- ./inp_files/600.got.cif
#   From: 2010.05.17/outbox.cif.g08.bks.cpg/sg176_1_cif.got.tgz:600.got - 2010.06.03 11:36:45.
