data_PCOD9582180
_publ_section_title
;
Structure prediction by ZEFSAII (Michael W. Deem and Ramdas Pophale) SiO2 
 PCOD9582180
Probable space group: P 6 2 2
;
_chemical_formula_sum "Si O2"
_cell_formula_units_Z 72
_cell_length_a 17.702957
_cell_length_b 17.702957
_cell_length_c 17.708422
_cell_angle_alpha 90.000000
_cell_angle_beta 90.000000
_cell_angle_gamma 120.000000
_cell_volume 4806.203147
_symmetry_space_group_name_H-M "P 6 2 2"
_symmetry_group_IT_number 177
_symmetry_cell_setting 'hexagonal'
loop_
_space_group_symop_operation_xyz
x,y,z
x-y,x,z
-y,x-y,z
-x,-y,z
-x+y,-x,z
y,-x+y,z
x-y,-y,-z
-x,-x+y,-z
y,x,-z
-y,-x,-z
-x+y,y,-z
x,x-y,-z
loop_
_atom_site_type_symbol
_atom_site_label
_atom_site_fract_x
_atom_site_fract_y
_atom_site_fract_z
Si Si1 0.626371 0.900558 0.149688
Si Si2 0.486470 0.332081 0.301426
Si Si3 0.099442 0.725813 0.850312
Si Si4 0.000000 0.408440 0.586002
Si Si5 0.332605 0.488399 0.000000
Si Si6 0.486470 0.154389 0.301426
O O1 0.569556 0.885570 0.074424
O O2 0.564194 0.880301 0.222312
O O3 0.702773 0.000000 0.152725
O O4 0.655626 0.827813 0.149000
O O5 0.435806 0.316107 0.222312
O O6 0.430034 0.344297 0.366530
O O7 0.498229 0.249115 0.315563
O O8 0.579548 0.420452 0.297340
O O9 0.114430 0.683986 0.925576
O O10 0.085737 0.430034 0.633470
O O11 0.000000 0.500000 0.583428
O O12 0.000000 0.380584 0.500000
O O13 0.427405 0.572596 0.000000
O O14 0.257783 0.515565 0.000000
#
# Coordination Sequence:
#
# PCOD9582180 Si02
#       6
#    12  12  12  12  12  12
#     4  10  20  33  49  70  95 126 160 197 238 281
#     4  10  19  31  48  69  95 125 159 196 236 281
#     4  10  20  33  49  70  95 126 160 197 238 281
#     4   9  18  32  48  65  89 121 154 193 238 281
#     4  10  20  31  46  69 100 134 167 198 230 269
#     4  10  19  31  48  69  95 125 159 196 236 281
#
# _framework density 14.980641
#
# number of rings (size 3 to 8) (size 9 to 14) (size 15 to 20)
#    0.000    2.167    1.667    2.000    0.000    3.333 
#    0.000    3.333    0.000    2.333    0.000    0.000 
#    0.000    4.000    0.000    0.000    0.000   15.167 
#
# Total GULP energy -401574.436814 kJ/mol
# GULP energy per Si atom -5577.422734 kJ/mol
# Density = 1.494654 g / cm^3
# Si number density = 14.980641 Si / 1000 Ang^3
#
#
#
# Elastic Constant Matrix: (Units=GPa)
#
#
# Indices 1 2 3 4 5 6 
#
# 1 100.1475 76.9935 52.8916 0.0000 0.0000 0.0000
# 2 76.9935 100.1475 52.8916 0.0000 0.0000 0.0000
# 3 52.8916 52.8916 137.1091 0.0000 0.0000 0.0000
# 4 0.0000 0.0000 0.0000 15.7177 0.0000 0.0000
# 5 0.0000 0.0000 0.0000 0.0000 15.7177 0.0000
# 6 0.0000 0.0000 0.0000 0.0000 0.0000 11.5770
#
#
#
# Elastic Compliance Matrix: (Units=1/GPa)
#
#
# Indices 1 2 3 4 5 6 
#
# 1 0.025262 -0.017927 -0.002830 0.000000 0.000000 0.000000
# 2 -0.017927 0.025262 -0.002830 0.000000 0.000000 0.000000
# 3 -0.002830 -0.002830 0.009477 0.000000 0.000000 0.000000
# 4 0.000000 0.000000 0.000000 0.063623 0.000000 0.000000
# 5 0.000000 0.000000 0.000000 0.000000 0.063623 0.000000
# 6 0.000000 0.000000 0.000000 0.000000 0.000000 0.086378
#
#
# Mechanical properties :
#
#
# Convention : Reuss Voigt Hill
#
# Bulk Modulus (GPa) = 77.95312 78.10637 78.02974
# Shear Modulus (GPa) = 15.38117 18.91096 17.14607
#
# Velocity S-wave (km/s) = 3.20775 3.55682 3.38679
# Velocity P-wave (km/s) = 8.11594 8.31381 8.21547
#
# Compressibility (1/GPa) = 0.01282822
#
# Stress axis : x y z
#
# Youngs Moduli (GPa) = 39.58503 39.58503 105.52385
#
# Poissons Ratio (x) = 0.70965 0.29858
# Poissons Ratio (y) = 0.70965 0.29858
# Poissons Ratio (z) = 0.11201 0.11201
#
# Static dielectric constant tensor:
#      x y z
#    x 1.479180 0.000000 0.000000 
#    y 0.000000 1.479180 0.000000 
#    z 0.000000 0.000000 1.496460 
# 
# From -- ./inp_files/2843.got.cif
#   From: 2010.05.17/outbox.cif.g08.bks.cpg/sg177_2_cif.got.tgz:2843.got - 2010.05.20 11:28:44.
