data_PCOD9582143
_publ_section_title
;
Structure prediction by ZEFSAII (Michael W. Deem and Ramdas Pophale) SiO2 
 PCOD9582143
Probable space group: P 63/M
;
_chemical_formula_sum "Si O2"
_cell_formula_units_Z 48
_cell_length_a 14.480146
_cell_length_b 14.480146
_cell_length_c 11.331564
_cell_angle_alpha 90.000000
_cell_angle_beta 90.000000
_cell_angle_gamma 120.000000
_cell_volume 2057.625670
_symmetry_space_group_name_H-M "P 63/M"
_symmetry_group_IT_number 176
_symmetry_cell_setting 'hexagonal'
loop_
_space_group_symop_operation_xyz
x,y,z
x-y,x,1/2+z
-y,x-y,z
-x,-y,1/2+z
-x+y,-x,z
y,-x+y,1/2+z
-x,-y,-z
-x+y,-x,1/2-z
y,-x+y,-z
x,y,1/2-z
x-y,x,-z
-y,x-y,1/2-z
loop_
_atom_site_type_symbol
_atom_site_label
_atom_site_fract_x
_atom_site_fract_y
_atom_site_fract_z
Si Si1 0.297335 0.796563 0.622089
Si Si2 0.696985 0.642408 0.377261
Si Si3 0.034738 0.697852 0.124138
Si Si4 0.861291 0.452857 0.619857
O O1 0.342462 0.789287 0.750000
O O2 0.172251 0.713334 0.622778
O O3 0.349096 0.796099 0.496932
O O4 0.305149 0.911772 0.625957
O O5 0.736131 0.697019 0.250000
O O6 0.753584 0.702453 0.497926
O O7 0.571459 0.604665 0.384828
O O8 0.062127 0.756703 0.250000
O O9 0.100176 0.633816 0.118617
O O10 0.812166 0.446881 0.750000
#
# Coordination Sequence:
#
# PCOD9582143 Si02
#       4
#    12  12  12  12
#     4   9  16  25  39  59  79  99 128 167 205 239
#     4   9  16  25  39  59  79  99 128 167 205 239
#     4   9  17  29  44  60  80 109 141 170 206 254
#     4   9  17  29  44  60  80 109 141 170 206 254
#
# _framework density 23.327859
#
# number of rings (size 3 to 8) (size 9 to 14) (size 15 to 20)
#    0.000    3.000    0.000    3.000    0.000    4.000 
#    0.000    0.000    0.000    8.000    0.000   28.000 
#    0.000    0.000    0.000   48.000    0.000  632.000 
#
# Total GULP energy -267671.090102 kJ/mol
# GULP energy per Si atom -5576.481044 kJ/mol
# Density = 2.327476 g / cm^3
# Si number density = 23.327859 Si / 1000 Ang^3
#
#
#
# Elastic Constant Matrix: (Units=GPa)
#
#
# Indices 1 2 3 4 5 6 
#
# 1 41.3970 30.4120 26.0122 0.0000 0.0000 0.0000
# 2 30.4120 41.3970 26.0122 0.0000 0.0000 0.0000
# 3 26.0122 26.0122 324.2188 0.0000 0.0000 0.0000
# 4 0.0000 0.0000 0.0000 0.6672 0.0000 0.0000
# 5 0.0000 0.0000 0.0000 0.0000 0.6672 0.0000
# 6 0.0000 0.0000 0.0000 0.0000 0.0000 5.4925
#
#
#
# Elastic Compliance Matrix: (Units=1/GPa)
#
#
# Indices 1 2 3 4 5 6 
#
# 1 0.052909 -0.038124 -0.001186 0.000000 0.000000 0.000000
# 2 -0.038124 0.052909 -0.001186 0.000000 0.000000 0.000000
# 3 -0.001186 -0.001186 0.003275 0.000000 0.000000 0.000000
# 4 0.000000 0.000000 0.000000 1.498830 0.000000 0.000000
# 5 0.000000 0.000000 0.000000 0.000000 1.498830 0.000000
# 6 0.000000 0.000000 0.000000 0.000000 0.000000 0.182066
#
#
# Mechanical properties :
#
#
# Convention : Reuss Voigt Hill
#
# Bulk Modulus (GPa) = 35.58686 63.54283 49.56485
# Shear Modulus (GPa) = 1.47965 23.00380 12.24173
#
# Velocity S-wave (km/s) = 0.79728 3.14364 2.29327
# Velocity P-wave (km/s) = 4.01693 6.36198 5.32027
#
# Compressibility (1/GPa) = 0.02810026
#
# Stress axis : x y z
#
# Youngs Moduli (GPa) = 18.90030 18.90030 305.37340
#
# Poissons Ratio (x) = 0.72055 0.36224
# Poissons Ratio (y) = 0.72055 0.36224
# Poissons Ratio (z) = 0.02242 0.02242
#
# Static dielectric constant tensor:
#      x y z
#    x 1.862600 0.000000 0.000000 
#    y 0.000000 1.862600 0.000000 
#    z 0.000000 0.000000 2.066890 
# 
# From -- ./inp_files/1678.got.cif
#   From: 2010.05.17/outbox.cif.g08.bks.cpg/sg176_1_cif.got.tgz:1678.got - 2010.06.03 11:36:45.
