data_PCOD9582312
_publ_section_title
;
Structure prediction by ZEFSAII (Michael W. Deem and Ramdas Pophale) SiO2 
 PCOD9582312
Probable space group: P 6 2 2
;
_chemical_formula_sum "Si O2"
_cell_formula_units_Z 60
_cell_length_a 14.192164
_cell_length_b 14.192164
_cell_length_c 17.592651
_cell_angle_alpha 90.000000
_cell_angle_beta 90.000000
_cell_angle_gamma 120.000000
_cell_volume 3068.733407
_symmetry_space_group_name_H-M "P 6 2 2"
_symmetry_group_IT_number 177
_symmetry_cell_setting 'hexagonal'
loop_
_space_group_symop_operation_xyz
x,y,z
x-y,x,z
-y,x-y,z
-x,-y,z
-x+y,-x,z
y,-x+y,z
x-y,-y,-z
-x,-x+y,-z
y,x,-z
-y,-x,-z
-x+y,y,-z
x,x-y,-z
loop_
_atom_site_type_symbol
_atom_site_label
_atom_site_fract_x
_atom_site_fract_y
_atom_site_fract_z
Si Si1 0.879650 0.546973 0.470628
Si Si2 0.928832 0.559647 0.293793
Si Si3 0.918743 0.670808 0.056247
Si Si4 0.779058 0.999499 0.782897
Si Si5 0.307126 0.534418 0.844766
O O1 0.782093 0.564186 0.500000
O O2 0.860532 0.430266 0.500000
O O3 0.888098 0.549138 0.379594
O O4 0.000000 0.635700 0.500000
O O5 0.999781 0.683724 0.265668
O O6 0.826122 0.511077 0.236756
O O7 0.000000 0.500000 0.286340
O O8 0.985239 0.747157 0.127434
O O9 0.835114 0.557581 0.093997
O O10 0.855861 0.711721 0.000000
O O11 0.000000 0.658823 0.000000
O O12 0.784665 0.891500 0.766371
O O13 0.422667 0.644916 0.852593
#
# Coordination Sequence:
#
# PCOD9582312 Si02
#       5
#    12  12  12  12  12
#     4  11  25  44  69 108 142 181 232 281 347 405
#     4  11  25  42  71  98 142 175 229 277 346 408
#     4  11  22  41  67  91 127 170 221 285 349 405
#     4  11  25  43  70 100 133 180 228 283 350 414
#     4   9  24  41  64  93 131 171 227 273 347 415
#
# _framework density 19.552040000000002
#
# number of rings (size 3 to 8) (size 9 to 14) (size 15 to 20)
#    0.400    1.000    4.000    0.400   11.200    0.800 
#    0.000    5.000    0.000    0.200    0.000    0.000 
#    0.000    0.000    0.000    0.000    0.000    0.000 
#
# Total GULP energy -334918.461955 kJ/mol
# GULP energy per Si atom -5581.974366 kJ/mol
# Density = 1.950754 g / cm^3
# Si number density = 19.552040 Si / 1000 Ang^3
#
#
#
# Elastic Constant Matrix: (Units=GPa)
#
#
# Indices 1 2 3 4 5 6 
#
# 1 97.9269 48.8679 33.5832 0.0000 0.0000 0.0000
# 2 48.8679 97.9269 33.5832 0.0000 0.0000 0.0000
# 3 33.5832 33.5832 118.5826 0.0000 0.0000 0.0000
# 4 0.0000 0.0000 0.0000 15.3754 0.0000 0.0000
# 5 0.0000 0.0000 0.0000 0.0000 15.3754 0.0000
# 6 0.0000 0.0000 0.0000 0.0000 0.0000 24.5295
#
#
#
# Elastic Compliance Matrix: (Units=1/GPa)
#
#
# Indices 1 2 3 4 5 6 
#
# 1 0.014105 -0.006279 -0.002216 0.000000 0.000000 0.000000
# 2 -0.006279 0.014105 -0.002216 0.000000 0.000000 0.000000
# 3 -0.002216 -0.002216 0.009688 0.000000 0.000000 0.000000
# 4 0.000000 0.000000 0.000000 0.065039 0.000000 0.000000
# 5 0.000000 0.000000 0.000000 0.000000 0.065039 0.000000
# 6 0.000000 0.000000 0.000000 0.000000 0.000000 0.040767
#
#
# Mechanical properties :
#
#
# Convention : Reuss Voigt Hill
#
# Bulk Modulus (GPa) = 60.69714 60.72282 60.70998
# Shear Modulus (GPa) = 21.21712 24.28284 22.74998
#
# Velocity S-wave (km/s) = 3.29775 3.52797 3.41480
# Velocity P-wave (km/s) = 6.75363 6.90796 6.83123
#
# Compressibility (1/GPa) = 0.01647524
#
# Stress axis : x y z
#
# Youngs Moduli (GPa) = 70.89682 70.89682 103.21649
#
# Poissons Ratio (x) = 0.44513 0.22878
# Poissons Ratio (y) = 0.44513 0.22878
# Poissons Ratio (z) = 0.15714 0.15714
#
# Static dielectric constant tensor:
#      x y z
#    x 1.718000 0.000000 0.000000 
#    y 0.000000 1.718000 0.000000 
#    z 0.000000 0.000000 1.690250 
# 
# From -- ./inp_files/2429.got.cif
#   From: 2010.05.17/outbox.cif.g08.bks.cpg/sg177_2_cif.got.tgz:2429.got - 2010.05.20 11:28:44.
