data_PCOD9582881
_publ_section_title
;
Structure prediction by ZEFSAII (Michael W. Deem and Ramdas Pophale) SiO2 
 PCOD9582881
Probable space group: P 61 2 2
;
_chemical_formula_sum "Si O2"
_cell_formula_units_Z 36
_cell_length_a 8.022909
_cell_length_b 8.022909
_cell_length_c 24.199408
_cell_angle_alpha 90.000000
_cell_angle_beta 90.000000
_cell_angle_gamma 120.000000
_cell_volume 1348.960106
_symmetry_space_group_name_H-M "P 61 2 2"
_symmetry_group_IT_number 178
_symmetry_cell_setting 'hexagonal'
loop_
_space_group_symop_operation_xyz
x,y,z
x-y,x,1/6+z
-y,x-y,1/3+z
-x,-y,1/2+z
-x+y,-x,2/3+z
y,-x+y,5/6+z
x-y,-y,-z
-x,-x+y,2/3-z
y,x,1/3-z
-y,-x,5/6-z
-x+y,y,1/2-z
x,x-y,1/6-z
loop_
_atom_site_type_symbol
_atom_site_label
_atom_site_fract_x
_atom_site_fract_y
_atom_site_fract_z
Si Si1 0.794839 0.713288 0.324737
Si Si2 0.078530 0.283592 0.110078
Si Si3 0.395384 0.476570 0.277072
O O1 0.703257 0.693659 0.385174
O O2 0.623621 0.569770 0.284900
O O3 0.845653 0.920593 0.299424
O O4 0.000000 0.725494 0.333334
O O5 0.286481 0.318047 0.093611
O O6 0.104480 0.422062 0.160509
O O7 0.294836 0.589671 0.250000
#
# Coordination Sequence:
#
# PCOD9582881 Si02
#       3
#    12  12  12
#     4  11  23  43  72 105 146 195 236 288 362 438
#     4  10  23  48  74 101 143 186 235 304 365 426
#     4  11  23  43  75 110 145 187 241 300 365 434
#
# _framework density 26.687221000000001
#
# number of rings (size 3 to 8) (size 9 to 14) (size 15 to 20)
#    0.000    1.333    0.000    7.000    0.000    5.333 
#    0.000   30.000    0.000    8.000    0.000    0.000 
#    0.000    0.000    0.000    0.000    0.000    0.000 
#
# Total GULP energy -201461.035807 kJ/mol
# GULP energy per Si atom -5596.139884 kJ/mol
# Density = 2.662648 g / cm^3
# Si number density = 26.687221 Si / 1000 Ang^3
#
#
#
# Elastic Constant Matrix: (Units=GPa)
#
#
# Indices 1 2 3 4 5 6 
#
# 1 114.2531 72.5911 58.3573 0.0000 0.0000 0.0000
# 2 72.5911 114.2531 58.3573 0.0000 0.0000 0.0000
# 3 58.3573 58.3573 193.2745 0.0000 0.0000 0.0000
# 4 0.0000 0.0000 0.0000 22.5552 0.0000 0.0000
# 5 0.0000 0.0000 0.0000 0.0000 22.5552 0.0000
# 6 0.0000 0.0000 0.0000 0.0000 0.0000 20.8310
#
#
#
# Elastic Compliance Matrix: (Units=1/GPa)
#
#
# Indices 1 2 3 4 5 6 
#
# 1 0.015299 -0.008703 -0.001992 0.000000 0.000000 0.000000
# 2 -0.008703 0.015299 -0.001992 0.000000 0.000000 0.000000
# 3 -0.001992 -0.001992 0.006377 0.000000 0.000000 0.000000
# 4 0.000000 0.000000 0.000000 0.044336 0.000000 0.000000
# 5 0.000000 0.000000 0.000000 0.000000 0.044336 0.000000
# 6 0.000000 0.000000 0.000000 0.000000 0.000000 0.048005
#
#
# Mechanical properties :
#
#
# Convention : Reuss Voigt Hill
#
# Bulk Modulus (GPa) = 86.18874 88.93244 87.56059
# Shear Modulus (GPa) = 24.64355 28.68662 26.66508
#
# Velocity S-wave (km/s) = 3.04208 3.28215 3.16440
# Velocity P-wave (km/s) = 6.68618 6.91084 6.79944
#
# Compressibility (1/GPa) = 0.01160244
#
# Stress axis : x y z
#
# Youngs Moduli (GPa) = 65.36194 65.36194 156.82097
#
# Poissons Ratio (x) = 0.56886 0.31233
# Poissons Ratio (y) = 0.56886 0.31233
# Poissons Ratio (z) = 0.13018 0.13018
#
# Static dielectric constant tensor:
#      x y z
#    x 2.157960 0.000000 0.000000 
#    y 0.000000 2.157960 0.000000 
#    z 0.000000 0.000000 2.101640 
# 
# From -- ./inp_files/8517.got.cif
#   From: 2010.05.17/outbox.cif.g08.bks.cpg/sg178_5_cif.got.tgz:8517.got - 2010.05.20 11:30:59.
