data_PCOD9582440
_publ_section_title
;
Structure prediction by ZEFSAII (Michael W. Deem and Ramdas Pophale) SiO2 
 PCOD9582440
Probable space group: P 61 2 2
;
_chemical_formula_sum "Si O2"
_cell_formula_units_Z 54
_cell_length_a 18.518976
_cell_length_b 18.518976
_cell_length_c 8.675320
_cell_angle_alpha 90.000000
_cell_angle_beta 90.000000
_cell_angle_gamma 120.000000
_cell_volume 2576.618215
_symmetry_space_group_name_H-M "P 61 2 2"
_symmetry_group_IT_number 178
_symmetry_cell_setting 'hexagonal'
loop_
_space_group_symop_operation_xyz
x,y,z
x-y,x,1/6+z
-y,x-y,1/3+z
-x,-y,1/2+z
-x+y,-x,2/3+z
y,-x+y,5/6+z
x-y,-y,-z
-x,-x+y,2/3-z
y,x,1/3-z
-y,-x,5/6-z
-x+y,y,1/2-z
x,x-y,1/6-z
loop_
_atom_site_type_symbol
_atom_site_label
_atom_site_fract_x
_atom_site_fract_y
_atom_site_fract_z
Si Si1 0.721986 0.075786 0.640010
Si Si2 0.478452 0.567490 0.738320
Si Si3 0.152077 0.152077 0.666667
Si Si4 0.220164 0.909811 0.722719
Si Si5 0.553584 0.696824 0.132707
O O1 0.658821 0.100675 0.557254
O O2 0.816588 0.140404 0.587657
O O3 0.705188 0.091587 0.820823
O O4 0.699218 0.978626 0.650418
O O5 0.507461 0.507461 0.666667
O O6 0.387494 0.532764 0.668984
O O7 0.455921 0.544080 0.916667
O O8 0.139275 0.069638 0.583334
O O9 0.225557 0.182006 0.790987
O O10 0.279241 0.890431 0.615449
O O11 0.530507 0.765254 0.083334
#
# Coordination Sequence:
#
# PCOD9582440 Si02
#       5
#    12  12   6  12  12
#     4  10  19  30  52  80 112 145 191 243 296 344
#     4  10  20  35  56  84 116 153 194 245 297 358
#     4  12  20  32  58  90 120 148 202 258 310 360
#     4  11  17  31  55  87 109 146 198 258 293 348
#     4   9  16  28  52  83 111 138 186 246 297 341
#
# _framework density 20.957705000000001
#
# number of rings (size 3 to 8) (size 9 to 14) (size 15 to 20)
#    0.000    1.778    4.444    3.333    0.000    0.000 
#    0.000    1.111    2.444   17.333    0.000    0.000 
#    0.000    0.000    0.000    0.000    0.000    0.000 
#
# Total GULP energy -300899.809352 kJ/mol
# GULP energy per Si atom -5572.218692 kJ/mol
# Density = 2.091000 g / cm^3
# Si number density = 20.957705 Si / 1000 Ang^3
#
#
#
# Elastic Constant Matrix: (Units=GPa)
#
#
# Indices 1 2 3 4 5 6 
#
# 1 200.2804 83.2260 37.7091 0.0000 0.0000 0.0000
# 2 83.2260 200.2804 37.7091 0.0000 0.0000 0.0000
# 3 37.7091 37.7091 39.7120 0.0000 0.0000 0.0000
# 4 0.0000 0.0000 0.0000 27.3894 0.0000 0.0000
# 5 0.0000 0.0000 0.0000 0.0000 27.3894 0.0000
# 6 0.0000 0.0000 0.0000 0.0000 0.0000 58.5272
#
#
#
# Elastic Compliance Matrix: (Units=1/GPa)
#
#
# Indices 1 2 3 4 5 6 
#
# 1 0.006631 -0.001912 -0.004481 0.000000 0.000000 0.000000
# 2 -0.001912 0.006631 -0.004481 0.000000 0.000000 0.000000
# 3 -0.004481 -0.004481 0.033692 0.000000 0.000000 0.000000
# 4 0.000000 0.000000 0.000000 0.036510 0.000000 0.000000
# 5 0.000000 0.000000 0.000000 0.000000 0.036510 0.000000
# 6 0.000000 0.000000 0.000000 0.000000 0.000000 0.017086
#
#
# Mechanical properties :
#
#
# Convention : Reuss Voigt Hill
#
# Bulk Modulus (GPa) = 39.67417 84.17349 61.92383
# Shear Modulus (GPa) = 29.90210 41.43645 35.66927
#
# Velocity S-wave (km/s) = 3.78138 4.45134 4.12996
# Velocity P-wave (km/s) = 6.16739 8.16516 7.23556
#
# Compressibility (1/GPa) = 0.02520532
#
# Stress axis : x y z
#
# Youngs Moduli (GPa) = 150.80201 150.80201 29.68062
#
# Poissons Ratio (x) = 0.28831 0.13301
# Poissons Ratio (y) = 0.28831 0.13301
# Poissons Ratio (z) = 0.67580 0.67580
#
# Static dielectric constant tensor:
#      x y z
#    x 1.771090 0.000000 0.000000 
#    y 0.000000 1.771090 0.000000 
#    z 0.000000 0.000000 1.817220 
# 
# From -- ./inp_files/4412.got.cif
#   From: 2010.05.17/outbox.cif.g08.bks.cpg/sg178_3_cif.got.tgz:4412.got - 2010.05.20 11:30:59.
