data_PCOD9582547
_publ_section_title
;
Structure prediction by ZEFSAII (Michael W. Deem and Ramdas Pophale) SiO2 
 PCOD9582547
Probable space group: P 61 2 2
;
_chemical_formula_sum "Si O2"
_cell_formula_units_Z 54
_cell_length_a 14.113684
_cell_length_b 14.113684
_cell_length_c 13.036726
_cell_angle_alpha 90.000000
_cell_angle_beta 90.000000
_cell_angle_gamma 120.000000
_cell_volume 2248.950769
_symmetry_space_group_name_H-M "P 61 2 2"
_symmetry_group_IT_number 178
_symmetry_cell_setting 'hexagonal'
loop_
_space_group_symop_operation_xyz
x,y,z
x-y,x,1/6+z
-y,x-y,1/3+z
-x,-y,1/2+z
-x+y,-x,2/3+z
y,-x+y,5/6+z
x-y,-y,-z
-x,-x+y,2/3-z
y,x,1/3-z
-y,-x,5/6-z
-x+y,y,1/2-z
x,x-y,1/6-z
loop_
_atom_site_type_symbol
_atom_site_label
_atom_site_fract_x
_atom_site_fract_y
_atom_site_fract_z
Si Si1 0.732688 0.690016 0.770012
Si Si2 0.933903 0.111790 0.682433
Si Si3 0.343843 0.580023 0.526437
Si Si4 0.344303 0.376886 0.501162
Si Si5 0.133604 0.566802 0.583334
O O1 0.659705 0.659705 0.666667
O O2 0.841649 0.683298 0.750000
O O3 0.766062 0.817017 0.789733
O O4 0.681524 0.628370 0.877117
O O5 0.968817 0.237272 0.707875
O O6 0.029620 0.124382 0.609141
O O7 0.396370 0.603631 0.416667
O O8 0.391581 0.695791 0.583334
O O9 0.351437 0.477594 0.565006
O O10 0.215567 0.540897 0.519686
O O11 0.466045 0.397415 0.493058
#
# Coordination Sequence:
#
# PCOD9582547 Si02
#       5
#    12  12  12  12   6
#     4  11  20  33  61 101 140 170 222 292 362 435
#     4  10  20  34  61  97 142 181 233 295 367 442
#     4  10  23  44  69  99 141 189 236 313 365 444
#     4  11  21  41  62  99 135 183 241 298 368 438
#     4  10  24  42  68  92 142 176 238 314 358 418
#
# _framework density 24.011196999999999
#
# number of rings (size 3 to 8) (size 9 to 14) (size 15 to 20)
#    0.667    0.889    5.556    2.667    0.000    0.889 
#    0.000    1.111    0.000    6.667    0.000    0.000 
#    0.000    0.000    0.000    0.000    0.000    0.000 
#
# Total GULP energy -301232.385413 kJ/mol
# GULP energy per Si atom -5578.377508 kJ/mol
# Density = 2.395655 g / cm^3
# Si number density = 24.011197 Si / 1000 Ang^3
#
#
#
# Elastic Constant Matrix: (Units=GPa)
#
#
# Indices 1 2 3 4 5 6 
#
# 1 111.0897 20.4975 11.3753 0.0000 0.0000 0.0000
# 2 20.4975 111.0897 11.3753 0.0000 0.0000 0.0000
# 3 11.3753 11.3753 48.6653 0.0000 0.0000 0.0000
# 4 0.0000 0.0000 0.0000 -0.1368 0.0000 0.0000
# 5 0.0000 0.0000 0.0000 0.0000 -0.1368 0.0000
# 6 0.0000 0.0000 0.0000 0.0000 0.0000 45.2961
#
#
#
# Elastic Compliance Matrix: (Units=1/GPa)
#
#
# Indices 1 2 3 4 5 6 
#
# 1 0.009479 -0.001559 -0.001851 0.000000 0.000000 0.000000
# 2 -0.001559 0.009479 -0.001851 0.000000 0.000000 0.000000
# 3 -0.001851 -0.001851 0.021414 0.000000 0.000000 0.000000
# 4 0.000000 0.000000 0.000000 -7.307990 -0.000003 0.000000
# 5 0.000000 0.000000 0.000000 -0.000003 -7.307986 0.000000
# 6 0.000000 0.000000 0.000000 0.000000 0.000000 0.022077
#
#
# Mechanical properties :
#
#
# Convention : Reuss Voigt Hill
#
# Bulk Modulus (GPa) = 33.50264 39.70456 36.60360
# Shear Modulus (GPa) = -0.34404 24.17760 11.91678
#
# Velocity S-wave (km/s) = -0.37894 3.17666 2.23020
# Velocity P-wave (km/s) = 3.71372 5.47966 4.68073
#
# Compressibility (1/GPa) = 0.02984840
#
# Stress axis : x y z
#
# Youngs Moduli (GPa) = 105.49606 105.49606 46.69860
#
# Poissons Ratio (x) = 0.16452 0.08645
# Poissons Ratio (y) = 0.16452 0.08645
# Poissons Ratio (z) = 0.19529 0.19529
#
# Static dielectric constant tensor:
#      x y z
#    x 2.020760 0.000000 0.000000 
#    y 0.000000 2.020760 0.000000 
#    z 0.000000 0.000000 1.983200 
# 
# From -- ./inp_files/5576.got.cif
#   From: 2010.05.17/outbox.cif.g08.bks.cpg/sg178_3_cif.got.tgz:5576.got - 2010.05.20 11:30:59.
