data_PCOD9582605
_publ_section_title
;
Structure prediction by ZEFSAII (Michael W. Deem and Ramdas Pophale) SiO2 
 PCOD9582605
Probable space group: P 61 2 2
;
_chemical_formula_sum "Si O2"
_cell_formula_units_Z 66
_cell_length_a 11.146164
_cell_length_b 11.146164
_cell_length_c 31.101707
_cell_angle_alpha 90.000000
_cell_angle_beta 90.000000
_cell_angle_gamma 120.000000
_cell_volume 3346.306484
_symmetry_space_group_name_H-M "P 61 2 2"
_symmetry_group_IT_number 178
_symmetry_cell_setting 'hexagonal'
loop_
_space_group_symop_operation_xyz
x,y,z
x-y,x,1/6+z
-y,x-y,1/3+z
-x,-y,1/2+z
-x+y,-x,2/3+z
y,-x+y,5/6+z
x-y,-y,-z
-x,-x+y,2/3-z
y,x,1/3-z
-y,-x,5/6-z
-x+y,y,1/2-z
x,x-y,1/6-z
loop_
_atom_site_type_symbol
_atom_site_label
_atom_site_fract_x
_atom_site_fract_y
_atom_site_fract_z
Si Si1 0.031509 0.850393 0.783812
Si Si2 0.309658 0.690343 0.416667
Si Si3 0.546174 0.704208 0.934757
Si Si4 0.607391 0.850209 0.021328
Si Si5 0.828369 0.074094 0.129581
Si Si6 0.399068 0.160820 0.279482
O O1 0.130395 0.807313 0.759095
O O2 0.000000 0.799391 0.833334
O O3 0.907141 0.814282 0.750000
O O4 0.118723 0.017789 0.788491
O O5 0.177860 0.666692 0.388669
O O6 0.278164 0.558192 0.445565
O O7 0.396030 0.603971 0.916667
O O8 0.639529 0.840947 0.906486
O O9 0.632101 0.622752 0.936205
O O10 0.533389 0.745050 0.982508
O O11 0.721097 0.810495 0.037639
O O12 0.685035 0.000000 0.000000
O O13 0.821251 0.138250 0.175692
#
# Coordination Sequence:
#
# PCOD9582605 Si02
#       6
#    12   6  12  12  12  12
#     4  11  21  37  64  96 129 159 209 276 321 370
#     4  12  24  42  60  84 132 172 210 250 324 398
#     4  10  20  38  61  87 122 160 208 256 311 385
#     4  11  24  38  63  93 121 159 206 273 325 372
#     4  10  21  37  63  93 123 156 211 268 328 371
#     4  10  22  38  60  86 124 172 206 254 311 392
#
# _framework density 19.723240000000001
#
# number of rings (size 3 to 8) (size 9 to 14) (size 15 to 20)
#    0.000    1.455    2.727    2.727    6.364    0.727 
#    0.000    0.000    0.000    1.091    0.000    0.000 
#    0.000    0.000    0.000    0.000    0.000    0.000 
#
# Total GULP energy -368423.348033 kJ/mol
# GULP energy per Si atom -5582.171940 kJ/mol
# Density = 1.967835 g / cm^3
# Si number density = 19.723240 Si / 1000 Ang^3
#
#
#
# Elastic Constant Matrix: (Units=GPa)
#
#
# Indices 1 2 3 4 5 6 
#
# 1 55.8695 22.0433 5.9690 0.0000 0.0000 0.0000
# 2 22.0433 55.8695 5.9690 0.0000 0.0000 0.0000
# 3 5.9690 5.9690 86.9631 0.0000 0.0000 0.0000
# 4 0.0000 0.0000 0.0000 26.9139 0.0000 0.0000
# 5 0.0000 0.0000 0.0000 0.0000 26.9139 0.0000
# 6 0.0000 0.0000 0.0000 0.0000 0.0000 16.9131
#
#
#
# Elastic Compliance Matrix: (Units=1/GPa)
#
#
# Indices 1 2 3 4 5 6 
#
# 1 0.021267 -0.008296 -0.000890 0.000000 0.000000 0.000000
# 2 -0.008296 0.021267 -0.000890 0.000000 0.000000 0.000000
# 3 -0.000890 -0.000890 0.011621 0.000000 0.000000 0.000000
# 4 0.000000 0.000000 0.000000 0.037156 0.000000 0.000000
# 5 0.000000 0.000000 0.000000 0.000000 0.037156 0.000000
# 6 0.000000 0.000000 0.000000 0.000000 0.000000 0.059126
#
#
# Mechanical properties :
#
#
# Convention : Reuss Voigt Hill
#
# Bulk Modulus (GPa) = 29.40951 29.62941 29.51946
# Shear Modulus (GPa) = 22.82277 25.12956 23.97617
#
# Velocity S-wave (km/s) = 3.40538 3.57334 3.49037
# Velocity P-wave (km/s) = 5.51413 5.66394 5.58954
#
# Compressibility (1/GPa) = 0.03400261
#
# Stress axis : x y z
#
# Youngs Moduli (GPa) = 47.02103 47.02103 86.04848
#
# Poissons Ratio (x) = 0.39008 0.07661
# Poissons Ratio (y) = 0.39008 0.07661
# Poissons Ratio (z) = 0.04186 0.04186
#
# Static dielectric constant tensor:
#      x y z
#    x 1.671160 0.000000 0.000000 
#    y 0.000000 1.671160 0.000000 
#    z 0.000000 0.000000 1.723970 
# 
# From -- ./inp_files/9508.got.cif
#   From: 2010.05.17/outbox.cif.g08.bks.cpg/sg178_5_cif.got.tgz:9508.got - 2010.05.20 11:30:59.
