data_PCOD9582665
_publ_section_title
;
Structure prediction by ZEFSAII (Michael W. Deem and Ramdas Pophale) SiO2 
 PCOD9582665
Probable space group: P 61 2 2
;
_chemical_formula_sum "Si O2"
_cell_formula_units_Z 48
_cell_length_a 17.445810
_cell_length_b 17.445810
_cell_length_c 8.115572
_cell_angle_alpha 90.000000
_cell_angle_beta 90.000000
_cell_angle_gamma 120.000000
_cell_volume 2139.104707
_symmetry_space_group_name_H-M "P 61 2 2"
_symmetry_group_IT_number 178
_symmetry_cell_setting 'hexagonal'
loop_
_space_group_symop_operation_xyz
x,y,z
x-y,x,1/6+z
-y,x-y,1/3+z
-x,-y,1/2+z
-x+y,-x,2/3+z
y,-x+y,5/6+z
x-y,-y,-z
-x,-x+y,2/3-z
y,x,1/3-z
-y,-x,5/6-z
-x+y,y,1/2-z
x,x-y,1/6-z
loop_
_atom_site_type_symbol
_atom_site_label
_atom_site_fract_x
_atom_site_fract_y
_atom_site_fract_z
Si Si1 0.823817 0.357486 0.422615
Si Si2 0.635671 0.534217 0.210678
Si Si3 0.677779 0.895130 0.238390
Si Si4 0.744555 0.097553 0.269023
O O1 0.726514 0.273487 0.416667
O O2 0.834942 0.417471 0.583334
O O3 0.843982 0.429514 0.283426
O O4 0.888954 0.316897 0.433199
O O5 0.563012 0.563012 0.166667
O O6 0.698716 0.581031 0.364988
O O7 0.704544 0.584402 0.061803
O O8 0.679693 0.847275 0.405318
O O9 0.732681 0.000982 0.254271
O O10 0.704759 0.852380 0.083334
#
# Coordination Sequence:
#
# PCOD9582665 Si02
#       4
#    12  12  12  12
#     4  10  21  33  45  68 100 134 170 201 238 289
#     4   8  16  31  49  67  94 126 162 202 241 289
#     4   9  16  31  54  77  98 125 165 212 256 301
#     4   9  18  31  49  76 101 125 166 211 254 303
#
# _framework density 22.439294
#
# number of rings (size 3 to 8) (size 9 to 14) (size 15 to 20)
#    0.000    3.000    0.000    2.250    0.000    7.000 
#    0.000    2.500    0.000    1.500    0.000    8.750 
#    0.000    0.000    0.000    0.000    0.000    0.000 
#
# Total GULP energy -267474.416247 kJ/mol
# GULP energy per Si atom -5572.383672 kJ/mol
# Density = 2.238822 g / cm^3
# Si number density = 22.439294 Si / 1000 Ang^3
#
#
#
# Elastic Constant Matrix: (Units=GPa)
#
#
# Indices 1 2 3 4 5 6 
#
# 1 115.9031 112.5215 17.2519 0.0000 0.0000 0.0000
# 2 112.5215 115.9031 17.2519 0.0000 0.0000 0.0000
# 3 17.2519 17.2519 59.6439 0.0000 0.0000 0.0000
# 4 0.0000 0.0000 0.0000 21.0755 0.0000 0.0000
# 5 0.0000 0.0000 0.0000 0.0000 21.0755 0.0000
# 6 0.0000 0.0000 0.0000 0.0000 0.0000 1.6908
#
#
#
# Elastic Compliance Matrix: (Units=1/GPa)
#
#
# Indices 1 2 3 4 5 6 
#
# 1 0.150149 -0.145571 -0.001324 0.000000 0.000000 0.000000
# 2 -0.145571 0.150149 -0.001324 0.000000 0.000000 0.000000
# 3 -0.001324 -0.001324 0.017532 0.000000 0.000000 0.000000
# 4 0.000000 0.000000 0.000000 0.047448 0.000000 0.000000
# 5 0.000000 0.000000 0.000000 0.000000 0.047448 0.000000
# 6 0.000000 0.000000 0.000000 0.000000 0.000000 0.591439
#
#
# Mechanical properties :
#
#
# Convention : Reuss Voigt Hill
#
# Bulk Modulus (GPa) = 46.74794 65.05563 55.90179
# Shear Modulus (GPa) = 3.82341 18.39670 11.11005
#
# Velocity S-wave (km/s) = 1.30675 2.86640 2.22753
# Velocity P-wave (km/s) = 4.81197 6.32533 5.61982
#
# Compressibility (1/GPa) = 0.02139131
#
# Stress axis : x y z
#
# Youngs Moduli (GPa) = 6.66006 6.66006 57.03800
#
# Poissons Ratio (x) = 0.96951 0.07553
# Poissons Ratio (y) = 0.96951 0.07553
# Poissons Ratio (z) = 0.00882 0.00882
#
# Static dielectric constant tensor:
#      x y z
#    x 1.843710 0.000000 0.000000 
#    y 0.000000 1.843710 0.000000 
#    z 0.000000 0.000000 2.079080 
# 
# From -- ./inp_files/2522.got.cif
#   From: 2010.05.17/outbox.cif.g08.bks.cpg/sg178_2_cif.got.tgz:2522.got - 2010.05.20 11:30:59.
