data_PCOD9582858
_publ_section_title
;
Structure prediction by ZEFSAII (Michael W. Deem and Ramdas Pophale) SiO2 
 PCOD9582858
Probable space group: P 61 2 2
;
_chemical_formula_sum "Si O2"
_cell_formula_units_Z 60
_cell_length_a 15.031518
_cell_length_b 15.031518
_cell_length_c 12.772951
_cell_angle_alpha 90.000000
_cell_angle_beta 90.000000
_cell_angle_gamma 120.000000
_cell_volume 2499.352779
_symmetry_space_group_name_H-M "P 61 2 2"
_symmetry_group_IT_number 178
_symmetry_cell_setting 'hexagonal'
loop_
_space_group_symop_operation_xyz
x,y,z
x-y,x,1/6+z
-y,x-y,1/3+z
-x,-y,1/2+z
-x+y,-x,2/3+z
y,-x+y,5/6+z
x-y,-y,-z
-x,-x+y,2/3-z
y,x,1/3-z
-y,-x,5/6-z
-x+y,y,1/2-z
x,x-y,1/6-z
loop_
_atom_site_type_symbol
_atom_site_label
_atom_site_fract_x
_atom_site_fract_y
_atom_site_fract_z
Si Si1 0.914992 0.082501 0.746728
Si Si2 0.694789 0.093823 0.923036
Si Si3 0.687091 0.199261 0.308756
Si Si4 0.151204 0.610566 0.701407
Si Si5 0.327214 0.317700 0.363267
O O1 0.979475 0.100048 0.643558
O O2 0.000000 0.163471 0.833334
O O3 0.806780 0.067730 0.703487
O O4 0.812686 0.187315 0.916667
O O5 0.621527 0.141792 0.941874
O O6 0.663276 0.037074 0.812556
O O7 0.662024 0.000000 0.000000
O O8 0.730775 0.269226 0.416667
O O9 0.574153 0.148306 0.250000
O O10 0.748593 0.283153 0.220979
O O11 0.719787 0.111884 0.317828
O O12 0.154818 0.577409 0.583334
O O13 0.060657 0.636739 0.714442
#
# Coordination Sequence:
#
# PCOD9582858 Si02
#       5
#    12  12  12  12  12
#     4  10  23  43  72 106 145 199 253 322 383 465
#     4  11  27  42  76 111 149 201 257 329 394 477
#     4  12  27  46  78 109 153 206 256 324 403 489
#     4  10  24  47  70 107 146 193 246 316 388 470
#     4  11  26  46  71 109 151 195 258 321 399 472
#
# _framework density 24.006215000000001
#
# number of rings (size 3 to 8) (size 9 to 14) (size 15 to 20)
#    0.000    1.200    0.000    4.200   16.800    0.000 
#    7.200    0.000    0.000    0.000    0.000    0.000 
#    0.000    0.000    0.000    0.000    0.000    0.000 
#
# Total GULP energy -334054.172497 kJ/mol
# GULP energy per Si atom -5567.569542 kJ/mol
# Density = 2.395158 g / cm^3
# Si number density = 24.006215 Si / 1000 Ang^3
#
#
#
# Elastic Constant Matrix: (Units=GPa)
#
#
# Indices 1 2 3 4 5 6 
#
# 1 124.3456 68.9246 20.6662 0.0000 0.0000 0.0000
# 2 68.9246 124.3456 20.6662 0.0000 0.0000 0.0000
# 3 20.6662 20.6662 52.5464 0.0000 0.0000 0.0000
# 4 0.0000 0.0000 0.0000 11.6610 0.0000 0.0000
# 5 0.0000 0.0000 0.0000 0.0000 11.6610 0.0000
# 6 0.0000 0.0000 0.0000 0.0000 0.0000 27.7105
#
#
#
# Elastic Compliance Matrix: (Units=1/GPa)
#
#
# Indices 1 2 3 4 5 6 
#
# 1 0.011846 -0.006197 -0.002222 0.000000 0.000000 0.000000
# 2 -0.006197 0.011846 -0.002222 0.000000 0.000000 0.000000
# 3 -0.002222 -0.002222 0.020778 0.000000 0.000000 0.000000
# 4 0.000000 0.000000 0.000000 0.085756 0.000000 0.000000
# 5 0.000000 0.000000 0.000000 0.000000 0.085756 0.000000
# 6 0.000000 0.000000 0.000000 0.000000 0.000000 0.036087
#
#
# Mechanical properties :
#
#
# Convention : Reuss Voigt Hill
#
# Bulk Modulus (GPa) = 43.12260 57.97239 50.54750
# Shear Modulus (GPa) = 17.78842 22.93857 20.36349
#
# Velocity S-wave (km/s) = 2.72507 3.09451 2.91565
# Velocity P-wave (km/s) = 5.28237 6.08024 5.69530
#
# Compressibility (1/GPa) = 0.02318969
#
# Stress axis : x y z
#
# Youngs Moduli (GPa) = 84.41331 84.41331 48.12681
#
# Poissons Ratio (x) = 0.52313 0.10693
# Poissons Ratio (y) = 0.52313 0.10693
# Poissons Ratio (z) = 0.18755 0.18755
#
# Static dielectric constant tensor:
#      x y z
#    x 2.055420 0.000000 0.000000 
#    y 0.000000 2.055420 0.000000 
#    z 0.000000 0.000000 1.907060 
# 
# From -- ./inp_files/5699.got.cif
#   From: 2010.05.17/outbox.cif.g08.bks.cpg/sg178_3_cif.got.tgz:5699.got - 2010.05.20 11:30:59.
