data_PCOD9582549
_publ_section_title
;
Structure prediction by ZEFSAII (Michael W. Deem and Ramdas Pophale) SiO2 
 PCOD9582549
Probable space group: P 61 2 2
;
_chemical_formula_sum "Si O2"
_cell_formula_units_Z 60
_cell_length_a 17.658086
_cell_length_b 17.658086
_cell_length_c 11.130168
_cell_angle_alpha 90.000000
_cell_angle_beta 90.000000
_cell_angle_gamma 120.000000
_cell_volume 3005.519892
_symmetry_space_group_name_H-M "P 61 2 2"
_symmetry_group_IT_number 178
_symmetry_cell_setting 'hexagonal'
loop_
_space_group_symop_operation_xyz
x,y,z
x-y,x,1/6+z
-y,x-y,1/3+z
-x,-y,1/2+z
-x+y,-x,2/3+z
y,-x+y,5/6+z
x-y,-y,-z
-x,-x+y,2/3-z
y,x,1/3-z
-y,-x,5/6-z
-x+y,y,1/2-z
x,x-y,1/6-z
loop_
_atom_site_type_symbol
_atom_site_label
_atom_site_fract_x
_atom_site_fract_y
_atom_site_fract_z
Si Si1 0.476684 0.584176 0.786939
Si Si2 0.459494 0.714495 0.442981
Si Si3 0.659721 0.713132 0.854961
Si Si4 0.567328 0.698417 0.110162
Si Si5 0.121936 0.351147 0.025986
O O1 0.452469 0.660941 0.790008
O O2 0.581693 0.638420 0.773820
O O3 0.402280 0.509154 0.702806
O O4 0.460164 0.539837 0.916667
O O5 0.378027 0.621974 0.416667
O O6 0.463730 0.731865 0.583334
O O7 0.549103 0.721672 0.403667
O O8 0.740718 0.700235 0.885954
O O9 0.681240 0.807562 0.806997
O O10 0.615814 0.703112 0.986464
O O11 0.530081 0.765041 0.083334
O O12 0.634950 0.737438 0.220724
#
# Coordination Sequence:
#
# PCOD9582549 Si02
#       5
#    12  12  12  12  12
#     4   9  17  31  47  67  98 140 180 217 256 302
#     4  11  21  32  49  73 104 144 186 224 259 305
#     4   9  19  33  52  75 105 137 178 226 277 328
#     4   9  16  29  51  74 102 140 180 223 266 315
#     4  10  20  35  51  75 106 141 182 226 277 328
#
# _framework density 19.963269
#
# number of rings (size 3 to 8) (size 9 to 14) (size 15 to 20)
#    0.000    2.400    0.000    4.200    0.000    2.400 
#    0.000    8.000    0.000    0.000    0.000    0.000 
#    0.000   27.200    0.000    0.000    0.000    0.000 
#
# Total GULP energy -334641.107999 kJ/mol
# GULP energy per Si atom -5577.351800 kJ/mol
# Density = 1.991783 g / cm^3
# Si number density = 19.963269 Si / 1000 Ang^3
#
#
#
# Elastic Constant Matrix: (Units=GPa)
#
#
# Indices 1 2 3 4 5 6 
#
# 1 663.9319 -520.7809 7.4178 0.0000 0.0000 -0.0001
# 2 -520.7809 663.9319 7.4178 0.0000 0.0000 0.0001
# 3 7.4178 7.4178 24.7983 0.0000 0.0000 0.0000
# 4 0.0000 0.0000 0.0000 20.3613 0.0000 0.0000
# 5 0.0000 0.0000 0.0000 0.0000 20.3613 0.0000
# 6 -0.0001 0.0001 0.0000 0.0000 0.0000 592.3565
#
#
#
# Elastic Compliance Matrix: (Units=1/GPa)
#
#
# Indices 1 2 3 4 5 6 
#
# 1 0.004027 0.003183 -0.002156 0.000000 0.000000 0.000000
# 2 0.003183 0.004027 -0.002156 0.000000 0.000000 0.000000
# 3 -0.002156 -0.002156 0.041615 0.000000 0.000000 0.000000
# 4 0.000000 0.000000 0.000000 0.049113 0.000000 0.000000
# 5 0.000000 0.000000 0.000000 0.000000 0.049113 0.000000
# 6 0.000000 0.000000 0.000000 0.000000 0.000000 0.001688
#
#
# Mechanical properties :
#
#
# Convention : Reuss Voigt Hill
#
# Bulk Modulus (GPa) = 21.09348 37.86350 29.47849
# Shear Modulus (GPa) = 29.82481 250.52299 140.17390
#
# Velocity S-wave (km/s) = 3.86940 11.21447 8.38858
# Velocity P-wave (km/s) = 5.52740 13.66359 10.42223
#
# Compressibility (1/GPa) = 0.04740802
#
# Stress axis : x y z
#
# Youngs Moduli (GPa) = 248.34862 248.34862 24.02951
#
# Poissons Ratio (x) = -0.79037 0.05182
# Poissons Ratio (y) = -0.79037 0.05182
# Poissons Ratio (z) = 0.53554 0.53554
#
# Static dielectric constant tensor:
#      x y z
#    x 1.744060 0.000000 0.000000 
#    y 0.000000 1.744060 0.000000 
#    z 0.000000 0.000000 1.770130 
# 
# From -- ./inp_files/4526.got.cif
#   From: 2010.05.17/outbox.cif.g08.bks.cpg/sg178_3_cif.got.tgz:4526.got - 2010.05.20 11:30:59.
