data_PCOD9582711
_publ_section_title
;
Structure prediction by ZEFSAII (Michael W. Deem and Ramdas Pophale) SiO2 
 PCOD9582711
Probable space group: P 61 2 2
;
_chemical_formula_sum "Si O2"
_cell_formula_units_Z 84
_cell_length_a 17.712116
_cell_length_b 17.712116
_cell_length_c 14.977350
_cell_angle_alpha 90.000000
_cell_angle_beta 90.000000
_cell_angle_gamma 120.000000
_cell_volume 4069.176297
_symmetry_space_group_name_H-M "P 61 2 2"
_symmetry_group_IT_number 178
_symmetry_cell_setting 'hexagonal'
loop_
_space_group_symop_operation_xyz
x,y,z
x-y,x,1/6+z
-y,x-y,1/3+z
-x,-y,1/2+z
-x+y,-x,2/3+z
y,-x+y,5/6+z
x-y,-y,-z
-x,-x+y,2/3-z
y,x,1/3-z
-y,-x,5/6-z
-x+y,y,1/2-z
x,x-y,1/6-z
loop_
_atom_site_type_symbol
_atom_site_label
_atom_site_fract_x
_atom_site_fract_y
_atom_site_fract_z
Si Si1 0.425995 0.377794 0.982301
Si Si2 0.874286 0.528363 0.927660
Si Si3 0.290927 0.534152 0.925391
Si Si4 0.861634 0.653816 0.152464
Si Si5 0.681132 0.764925 0.631123
Si Si6 0.713457 0.061877 0.136576
Si Si7 0.528309 0.412143 0.728683
O O1 0.405887 0.320541 0.894001
O O2 0.388154 0.444037 0.991424
O O3 0.369446 0.309331 0.058370
O O4 0.523169 0.432031 0.020362
O O5 0.882752 0.612285 0.877694
O O6 0.894928 0.470466 0.859086
O O7 0.779825 0.486644 0.970663
O O8 0.385765 0.614236 0.916667
O O9 0.269223 0.449198 0.866956
O O10 0.217143 0.556697 0.900900
O O11 0.832883 0.665766 0.250000
O O12 0.807998 0.677213 0.075798
O O13 0.967426 0.700290 0.165730
O O14 0.765446 0.765446 0.666667
O O15 0.702493 0.851247 0.583334
O O16 0.643208 0.065957 0.068626
#
# Coordination Sequence:
#
# PCOD9582711 Si02
#       7
#    12  12  12  12  12  12  12
#     4  10  21  40  66  91 127 176 235 279 347 414
#     4  10  22  43  62  87 127 183 232 287 355 404
#     4  11  26  41  60  88 132 184 236 290 350 407
#     4  11  26  45  67  97 130 179 223 290 351 425
#     4   9  20  35  61  90 125 168 211 281 340 414
#     4  11  24  43  68  98 134 175 235 289 355 429
#     4  10  24  40  62  95 129 189 236 300 346 418
#
# _framework density 20.642997999999999
#
# number of rings (size 3 to 8) (size 9 to 14) (size 15 to 20)
#    0.000    1.714    1.429    2.143   10.000    4.571 
#    5.143    0.000    0.000    0.000    0.000    0.000 
#    0.000   17.143    0.000    0.000    0.000    0.000 
#
# Total GULP energy -467605.941526 kJ/mol
# GULP energy per Si atom -5566.737399 kJ/mol
# Density = 2.059601 g / cm^3
# Si number density = 20.642998 Si / 1000 Ang^3
#
#
#
# Elastic Constant Matrix: (Units=GPa)
#
#
# Indices 1 2 3 4 5 6 
#
# 1 99.6625 60.0173 22.7945 0.0000 0.0000 0.0000
# 2 60.0173 99.6625 22.7945 0.0000 0.0000 0.0000
# 3 22.7945 22.7945 69.6255 0.0000 0.0000 0.0000
# 4 0.0000 0.0000 0.0000 29.4608 0.0000 0.0000
# 5 0.0000 0.0000 0.0000 0.0000 29.4608 0.0000
# 6 0.0000 0.0000 0.0000 0.0000 0.0000 19.8226
#
#
#
# Elastic Compliance Matrix: (Units=1/GPa)
#
#
# Indices 1 2 3 4 5 6 
#
# 1 0.016066 -0.009158 -0.002262 0.000000 0.000000 0.000000
# 2 -0.009158 0.016066 -0.002262 0.000000 0.000000 0.000000
# 3 -0.002262 -0.002262 0.015843 0.000000 0.000000 0.000000
# 4 0.000000 0.000000 0.000000 0.033943 0.000000 0.000000
# 5 0.000000 0.000000 0.000000 0.000000 0.033943 0.000000
# 6 0.000000 0.000000 0.000000 0.000000 0.000000 0.050447
#
#
# Mechanical properties :
#
#
# Convention : Reuss Voigt Hill
#
# Bulk Modulus (GPa) = 48.51252 53.35147 50.93200
# Shear Modulus (GPa) = 24.93231 26.63845 25.78538
#
# Velocity S-wave (km/s) = 3.47909 3.59616 3.53811
# Velocity P-wave (km/s) = 6.30004 6.56842 6.43563
#
# Compressibility (1/GPa) = 0.02061323
#
# Stress axis : x y z
#
# Youngs Moduli (GPa) = 62.24326 62.24326 63.11760
#
# Poissons Ratio (x) = 0.57001 0.14275
# Poissons Ratio (y) = 0.57001 0.14275
# Poissons Ratio (z) = 0.14077 0.14077
#
# Static dielectric constant tensor:
#      x y z
#    x 1.307420 0.000000 0.000000 
#    y 0.000000 1.307420 0.000000 
#    z 0.000000 0.000000 1.809240 
# 
# From -- ./inp_files/6047.got.cif
#   From: 2010.05.17/outbox.cif.g08.bks.cpg/sg178_4_cif.got.tgz:6047.got - 2010.05.20 11:30:59.
