data_PCOD9582315
_publ_section_title
;
Structure prediction by ZEFSAII (Michael W. Deem and Ramdas Pophale) SiO2 
 PCOD9582315
Probable space group: P 6 2 2
;
_chemical_formula_sum "Si O2"
_cell_formula_units_Z 60
_cell_length_a 14.126079
_cell_length_b 14.126079
_cell_length_c 15.531118
_cell_angle_alpha 90.000000
_cell_angle_beta 90.000000
_cell_angle_gamma 120.000000
_cell_volume 2683.963543
_symmetry_space_group_name_H-M "P 6 2 2"
_symmetry_group_IT_number 177
_symmetry_cell_setting 'hexagonal'
loop_
_space_group_symop_operation_xyz
x,y,z
x-y,x,z
-y,x-y,z
-x,-y,z
-x+y,-x,z
y,-x+y,z
x-y,-y,-z
-x,-x+y,-z
y,x,-z
-y,-x,-z
-x+y,y,-z
x,x-y,-z
loop_
_atom_site_type_symbol
_atom_site_label
_atom_site_fract_x
_atom_site_fract_y
_atom_site_fract_z
Si Si1 0.122637 0.668153 0.533943
Si Si2 0.567973 0.441545 0.798372
Si Si3 0.416656 0.304373 0.946970
Si Si4 0.777812 0.230988 0.711858
Si Si5 0.749050 0.821982 0.793223
O O1 0.214367 0.785634 0.500000
O O2 0.146365 0.573183 0.500000
O O3 0.148228 0.692241 0.635081
O O4 0.000000 0.627616 0.500000
O O5 0.500000 0.500000 0.775444
O O6 0.522441 0.383721 0.889554
O O7 0.694571 0.530927 0.795695
O O8 0.544865 0.347775 0.727660
O O9 0.319750 0.234650 0.878746
O O10 0.375856 0.375856 0.000000
O O11 0.433877 0.216939 0.000000
O O12 0.776048 0.116859 0.716826
O O13 0.845198 0.795594 0.789050
#
# Coordination Sequence:
#
# PCOD9582315 Si02
#       5
#    12  12  12  12  12
#     4  11  26  45  75 115 150 193 244 307 381 442
#     4  11  26  44  71 100 138 194 240 289 365 432
#     4  11  23  44  70  99 139 183 236 303 360 420
#     4  11  24  45  72 100 146 186 236 296 352 450
#     4  11  23  41  69 101 137 186 236 288 356 419
#
# _framework density 22.354997000000001
#
# number of rings (size 3 to 8) (size 9 to 14) (size 15 to 20)
#    0.000    1.000    2.000    4.400   11.200    0.400 
#    0.000    0.000    0.000    0.200    0.000    0.000 
#    0.000    0.000    0.000    0.000    0.000    0.000 
#
# Total GULP energy -335337.742276 kJ/mol
# GULP energy per Si atom -5588.962371 kJ/mol
# Density = 2.230412 g / cm^3
# Si number density = 22.354997 Si / 1000 Ang^3
#
#
#
# Elastic Constant Matrix: (Units=GPa)
#
#
# Indices 1 2 3 4 5 6 
#
# 1 115.5455 22.9851 44.1621 0.0000 0.0000 0.0000
# 2 22.9851 115.5455 44.1621 0.0000 0.0000 0.0000
# 3 44.1621 44.1621 111.6322 0.0000 0.0000 0.0000
# 4 0.0000 0.0000 0.0000 34.6382 0.0000 0.0000
# 5 0.0000 0.0000 0.0000 0.0000 34.6382 0.0000
# 6 0.0000 0.0000 0.0000 0.0000 0.0000 46.2802
#
#
#
# Elastic Compliance Matrix: (Units=1/GPa)
#
#
# Indices 1 2 3 4 5 6 
#
# 1 0.010229 -0.000575 -0.003819 0.000000 0.000000 0.000000
# 2 -0.000575 0.010229 -0.003819 0.000000 0.000000 0.000000
# 3 -0.003819 -0.003819 0.011980 0.000000 0.000000 0.000000
# 4 0.000000 0.000000 0.000000 0.028870 0.000000 0.000000
# 5 0.000000 0.000000 0.000000 0.000000 0.028870 0.000000
# 6 0.000000 0.000000 0.000000 0.000000 0.000000 0.021608
#
#
# Mechanical properties :
#
#
# Convention : Reuss Voigt Hill
#
# Bulk Modulus (GPa) = 62.45804 62.81575 62.63690
# Shear Modulus (GPa) = 37.44001 38.53894 37.98948
#
# Velocity S-wave (km/s) = 4.09686 4.15655 4.12682
# Velocity P-wave (km/s) = 7.09781 7.15515 7.12654
#
# Compressibility (1/GPa) = 0.01601075
#
# Stress axis : x y z
#
# Youngs Moduli (GPa) = 97.76483 97.76483 83.47549
#
# Poissons Ratio (x) = 0.05623 0.31879
# Poissons Ratio (y) = 0.05623 0.31879
# Poissons Ratio (z) = 0.37336 0.37336
#
# Static dielectric constant tensor:
#      x y z
#    x 1.789700 0.000000 0.000000 
#    y 0.000000 1.789700 0.000000 
#    z 0.000000 0.000000 2.011410 
# 
# From -- ./inp_files/2415.got.cif
#   From: 2010.05.17/outbox.cif.g08.bks.cpg/sg177_2_cif.got.tgz:2415.got - 2010.05.20 11:28:44.
