data_PCOD9582171
_publ_section_title
;
Structure prediction by ZEFSAII (Michael W. Deem and Ramdas Pophale) SiO2 
 PCOD9582171
Probable space group: P 6 2 2
;
_chemical_formula_sum "Si O2"
_cell_formula_units_Z 82
_cell_length_a 21.062688
_cell_length_b 21.062688
_cell_length_c 10.627074
_cell_angle_alpha 90.000000
_cell_angle_beta 90.000000
_cell_angle_gamma 120.000000
_cell_volume 4082.929920
_symmetry_space_group_name_H-M "P 6 2 2"
_symmetry_group_IT_number 177
_symmetry_cell_setting 'hexagonal'
loop_
_space_group_symop_operation_xyz
x,y,z
x-y,x,z
-y,x-y,z
-x,-y,z
-x+y,-x,z
y,-x+y,z
x-y,-y,-z
-x,-x+y,-z
y,x,-z
-y,-x,-z
-x+y,y,-z
x,x-y,-z
loop_
_atom_site_type_symbol
_atom_site_label
_atom_site_fract_x
_atom_site_fract_y
_atom_site_fract_z
Si Si1 0.443361 0.221681 0.000000
Si Si2 0.856012 0.850952 0.653497
Si Si3 0.623369 0.173435 0.126082
Si Si4 0.521127 0.187192 0.455121
Si Si5 0.666667 0.333334 0.847594
Si Si6 0.721574 0.703127 0.352665
Si Si7 0.588364 0.761469 0.737094
Si Si8 0.100943 0.434007 0.321827
O O1 0.496057 0.296414 0.070873
O O2 0.402374 0.165687 0.112509
O O3 0.930571 0.853863 0.692982
O O4 0.852484 0.852484 0.500000
O O5 0.784720 0.776551 0.696621
O O6 0.631900 0.248206 0.186815
O O7 0.613700 0.115580 0.232225
O O8 0.574725 0.149450 0.000000
O O9 0.598711 0.197422 0.500000
O O10 0.521551 0.260776 0.500000
O O11 0.485845 0.176213 0.315564
O O12 0.463319 0.116528 0.535836
O O13 0.666668 0.333334 0.000000
O O14 0.711168 0.711168 0.500000
O O15 0.759342 0.654800 0.329686
O O16 0.639819 0.665484 0.297077
O O17 0.585171 0.834123 0.701354
#
# Coordination Sequence:
#
# PCOD9582171 Si02
#       8
#     6  12  12  12   4  12  12  12
#     4  10  20  36  56  84 112 158 187 249 304 360
#     4   9  17  28  51  86 124 156 191 244 307 373
#     4  10  18  32  57  87 114 139 188 244 306 374
#     4  10  21  36  56  84 117 147 190 261 321 375
#     4   9  15  30  57  90 108 139 183 232 302 388
#     4  11  20  37  59  81 115 168 213 245 302 378
#     4  10  22  39  58  81 121 152 206 252 306 377
#     4  10  22  35  57  89 112 152 199 254 306 363
#
# _framework density 20.083617
#
# number of rings (size 3 to 8) (size 9 to 14) (size 15 to 20)
#    0.000    2.049    3.659    1.171    2.049    2.927 
#    0.000    4.390    0.000    0.878    0.000    0.000 
#    0.000    0.000    0.000    2.488    0.000    0.585 
#
# Total GULP energy -457091.918019 kJ/mol
# GULP energy per Si atom -5574.291683 kJ/mol
# Density = 2.003791 g / cm^3
# Si number density = 20.083617 Si / 1000 Ang^3
#
#
#
# Elastic Constant Matrix: (Units=GPa)
#
#
# Indices 1 2 3 4 5 6 
#
# 1 60.1847 11.7723 11.0733 0.0000 0.0000 0.0000
# 2 11.7723 60.1846 11.0734 0.0000 0.0000 0.0000
# 3 11.0733 11.0734 75.2412 0.0000 0.0000 0.0000
# 4 0.0000 0.0000 0.0000 17.5830 0.0000 0.0000
# 5 0.0000 0.0000 0.0000 0.0000 17.5831 0.0000
# 6 0.0000 0.0000 0.0000 0.0000 0.0000 24.2061
#
#
#
# Elastic Compliance Matrix: (Units=1/GPa)
#
#
# Indices 1 2 3 4 5 6 
#
# 1 0.017606 -0.003050 -0.002142 0.000000 0.000000 0.000000
# 2 -0.003050 0.017606 -0.002142 0.000000 0.000000 0.000000
# 3 -0.002142 -0.002142 0.013921 0.000000 0.000000 0.000000
# 4 0.000000 0.000000 0.000000 0.056873 0.000000 0.000000
# 5 0.000000 0.000000 0.000000 0.000000 0.056873 0.000000
# 6 0.000000 0.000000 0.000000 0.000000 0.000000 0.041312
#
#
# Mechanical properties :
#
#
# Convention : Reuss Voigt Hill
#
# Bulk Modulus (GPa) = 29.01492 29.27206 29.14349
# Shear Modulus (GPa) = 21.70626 22.65388 22.18007
#
# Velocity S-wave (km/s) = 3.29111 3.36218 3.32684
# Velocity P-wave (km/s) = 5.37776 5.44785 5.41292
#
# Compressibility (1/GPa) = 0.03446503
#
# Stress axis : x y z
#
# Youngs Moduli (GPa) = 56.79812 56.79804 71.83308
#
# Poissons Ratio (x) = 0.17322 0.15389
# Poissons Ratio (y) = 0.17322 0.15389
# Poissons Ratio (z) = 0.12168 0.12168
#
# Static dielectric constant tensor:
#      x y z
#    x 1.726320 0.000000 0.000000 
#    y 0.000000 1.726320 0.000000 
#    z 0.000000 0.000000 1.750120 
# 
# From -- ./inp_files/2116.got.cif
#   From: 2010.05.17/outbox.cif.g08.bks.cpg/sg177_2_cif.got.tgz:2116.got - 2010.05.20 11:28:44.
