data_PCOD9582770
_publ_section_title
;
Structure prediction by ZEFSAII (Michael W. Deem and Ramdas Pophale) SiO2 
 PCOD9582770
Probable space group: P 61 2 2
;
_chemical_formula_sum "Si O2"
_cell_formula_units_Z 60
_cell_length_a 14.370022
_cell_length_b 14.370022
_cell_length_c 15.011473
_cell_angle_alpha 90.000000
_cell_angle_beta 90.000000
_cell_angle_gamma 120.000000
_cell_volume 2684.533372
_symmetry_space_group_name_H-M "P 61 2 2"
_symmetry_group_IT_number 178
_symmetry_cell_setting 'hexagonal'
loop_
_space_group_symop_operation_xyz
x,y,z
x-y,x,1/6+z
-y,x-y,1/3+z
-x,-y,1/2+z
-x+y,-x,2/3+z
y,-x+y,5/6+z
x-y,-y,-z
-x,-x+y,2/3-z
y,x,1/3-z
-y,-x,5/6-z
-x+y,y,1/2-z
x,x-y,1/6-z
loop_
_atom_site_type_symbol
_atom_site_label
_atom_site_fract_x
_atom_site_fract_y
_atom_site_fract_z
Si Si1 0.577294 0.671566 0.604756
Si Si2 0.705572 0.248371 0.594314
Si Si3 0.884888 0.702687 0.347805
Si Si4 0.922625 0.381442 0.703316
Si Si5 0.321768 0.373976 0.953206
O O1 0.664873 0.664873 0.666667
O O2 0.516159 0.718326 0.665548
O O3 0.481483 0.552285 0.585387
O O4 0.640707 0.696633 0.510834
O O5 0.651584 0.325792 0.583334
O O6 0.816124 0.328917 0.643089
O O7 0.665054 0.142285 0.657766
O O8 0.834336 0.668672 0.250000
O O9 0.911012 0.617295 0.392937
O O10 0.798812 0.701201 0.416672
O O11 0.000000 0.809392 0.333334
O O12 0.019301 0.411934 0.635828
#
# Coordination Sequence:
#
# PCOD9582770 Si02
#       5
#    12  12  12  12  12
#     4  10  22  41  60  92 142 185 233 295 353 436
#     4  10  23  42  62  98 136 189 243 292 350 427
#     4  11  22  41  69 105 130 170 231 300 362 439
#     4  11  22  40  64  95 134 185 234 289 358 438
#     4  10  22  40  66  94 134 184 225 286 373 432
#
# _framework density 22.350254
#
# number of rings (size 3 to 8) (size 9 to 14) (size 15 to 20)
#    0.000    1.600    2.000    2.400    0.000    4.000 
#   21.600    0.000    0.000    0.000    5.200    0.000 
#    0.000    0.000    0.000    0.000    0.000    0.000 
#
# Total GULP energy -334278.629153 kJ/mol
# GULP energy per Si atom -5571.310486 kJ/mol
# Density = 2.229938 g / cm^3
# Si number density = 22.350254 Si / 1000 Ang^3
#
#
#
# Elastic Constant Matrix: (Units=GPa)
#
#
# Indices 1 2 3 4 5 6 
#
# 1 93.0384 44.5047 51.4550 0.0000 0.0000 0.0000
# 2 44.5047 93.0384 51.4550 0.0000 0.0000 0.0000
# 3 51.4550 51.4550 164.9024 0.0000 0.0000 0.0000
# 4 0.0000 0.0000 0.0000 45.6111 0.0000 0.0000
# 5 0.0000 0.0000 0.0000 0.0000 45.6111 0.0000
# 6 0.0000 0.0000 0.0000 0.0000 0.0000 24.2669
#
#
#
# Elastic Compliance Matrix: (Units=1/GPa)
#
#
# Indices 1 2 3 4 5 6 
#
# 1 0.015045 -0.005560 -0.002960 0.000000 0.000000 0.000000
# 2 -0.005560 0.015045 -0.002960 0.000000 0.000000 0.000000
# 3 -0.002960 -0.002960 0.007911 0.000000 0.000000 0.000000
# 4 0.000000 0.000000 0.000000 0.021924 0.000000 0.000000
# 5 0.000000 0.000000 0.000000 0.000000 0.021924 0.000000
# 6 0.000000 0.000000 0.000000 0.000000 0.000000 0.041208
#
#
# Mechanical properties :
#
#
# Convention : Reuss Voigt Hill
#
# Bulk Modulus (GPa) = 66.47842 71.75654 69.11748
# Shear Modulus (GPa) = 33.10612 36.66880 34.88746
#
# Velocity S-wave (km/s) = 3.85287 4.05488 3.95516
# Velocity P-wave (km/s) = 7.04282 7.35513 7.20067
#
# Compressibility (1/GPa) = 0.01504248
#
# Stress axis : x y z
#
# Youngs Moduli (GPa) = 66.46940 66.46940 126.40360
#
# Poissons Ratio (x) = 0.36955 0.37410
# Poissons Ratio (y) = 0.36955 0.37410
# Poissons Ratio (z) = 0.19672 0.19672
#
# Static dielectric constant tensor:
#      x y z
#    x 1.953720 0.000000 0.000000 
#    y 0.000000 1.953720 0.000000 
#    z 0.000000 0.000000 1.949860 
# 
# From -- ./inp_files/5706.got.cif
#   From: 2010.05.17/outbox.cif.g08.bks.cpg/sg178_3_cif.got.tgz:5706.got - 2010.05.20 11:30:59.
