data_PCOD9582638
_publ_section_title
;
Structure prediction by ZEFSAII (Michael W. Deem and Ramdas Pophale) SiO2 
 PCOD9582638
Probable space group: P 61 2 2
;
_chemical_formula_sum "Si O2"
_cell_formula_units_Z 66
_cell_length_a 14.155646
_cell_length_b 14.155646
_cell_length_c 17.293314
_cell_angle_alpha 90.000000
_cell_angle_beta 90.000000
_cell_angle_gamma 120.000000
_cell_volume 3001.015549
_symmetry_space_group_name_H-M "P 61 2 2"
_symmetry_group_IT_number 178
_symmetry_cell_setting 'hexagonal'
loop_
_space_group_symop_operation_xyz
x,y,z
x-y,x,1/6+z
-y,x-y,1/3+z
-x,-y,1/2+z
-x+y,-x,2/3+z
y,-x+y,5/6+z
x-y,-y,-z
-x,-x+y,2/3-z
y,x,1/3-z
-y,-x,5/6-z
-x+y,y,1/2-z
x,x-y,1/6-z
loop_
_atom_site_type_symbol
_atom_site_label
_atom_site_fract_x
_atom_site_fract_y
_atom_site_fract_z
Si Si1 0.249782 0.837147 0.124173
Si Si2 0.260376 0.217293 0.954979
Si Si3 0.047281 0.047281 0.166667
Si Si4 0.527288 0.436304 0.616023
Si Si5 0.333003 0.255173 0.529316
Si Si6 0.744245 0.476255 0.401271
O O1 0.164452 0.800201 0.053575
O O2 0.372006 0.863185 0.107964
O O3 0.202664 0.736868 0.184671
O O4 0.263976 0.948224 0.162560
O O5 0.241541 0.239756 0.864052
O O6 0.163771 0.109013 0.993020
O O7 0.997024 0.994048 0.250000
O O8 0.532362 0.532362 0.666667
O O9 0.403953 0.362980 0.582138
O O10 0.547255 0.361812 0.674907
O O11 0.298090 0.149045 0.583334
O O12 0.431087 0.269615 0.474776
O O13 0.632846 0.367155 0.416667
#
# Coordination Sequence:
#
# PCOD9582638 Si02
#       6
#    12  12   6  12  12  12
#     4  11  24  42  65  97 135 183 230 284 356 417
#     4  11  24  43  68  96 136 183 229 288 349 426
#     4  12  26  48  72 102 140 184 238 290 348 430
#     4  11  23  38  63  97 134 177 229 286 348 422
#     4   9  20  41  67  98 135 175 230 296 349 411
#     4  10  20  40  66  93 132 176 227 285 350 416
#
# _framework density 21.992554999999999
#
# number of rings (size 3 to 8) (size 9 to 14) (size 15 to 20)
#    0.000    1.455    3.636    1.091    1.273    2.182 
#    0.000    1.818    0.000    0.000    0.000    0.000 
#    0.000    0.000    0.000    0.000    0.000    0.000 
#
# Total GULP energy -367912.829498 kJ/mol
# GULP energy per Si atom -5574.436811 kJ/mol
# Density = 2.194250 g / cm^3
# Si number density = 21.992555 Si / 1000 Ang^3
#
#
#
# Elastic Constant Matrix: (Units=GPa)
#
#
# Indices 1 2 3 4 5 6 
#
# 1 70.7038 36.3113 30.3448 0.0000 0.0000 0.0000
# 2 36.3113 70.7038 30.3448 0.0000 0.0000 0.0000
# 3 30.3448 30.3448 78.2064 0.0000 0.0000 0.0000
# 4 0.0000 0.0000 0.0000 31.3633 0.0000 0.0000
# 5 0.0000 0.0000 0.0000 0.0000 31.3633 0.0000
# 6 0.0000 0.0000 0.0000 0.0000 0.0000 17.1963
#
#
#
# Elastic Compliance Matrix: (Units=1/GPa)
#
#
# Indices 1 2 3 4 5 6 
#
# 1 0.020528 -0.008548 -0.004649 0.000000 0.000000 0.000000
# 2 -0.008548 0.020528 -0.004649 0.000000 0.000000 0.000000
# 3 -0.004649 -0.004649 0.016394 0.000000 0.000000 0.000000
# 4 0.000000 0.000000 0.000000 0.031884 0.000000 0.000000
# 5 0.000000 0.000000 0.000000 0.000000 0.031884 0.000000
# 6 0.000000 0.000000 0.000000 0.000000 0.000000 0.058152
#
#
# Mechanical properties :
#
#
# Convention : Reuss Voigt Hill
#
# Bulk Modulus (GPa) = 45.95362 45.95731 45.95546
# Shear Modulus (GPa) = 22.49056 24.15878 23.32467
#
# Velocity S-wave (km/s) = 3.20135 3.31796 3.26017
# Velocity P-wave (km/s) = 5.88263 5.96830 5.92562
#
# Compressibility (1/GPa) = 0.02176107
#
# Stress axis : x y z
#
# Youngs Moduli (GPa) = 48.71295 48.71295 60.99748
#
# Poissons Ratio (x) = 0.41638 0.28356
# Poissons Ratio (y) = 0.41638 0.28356
# Poissons Ratio (z) = 0.22645 0.22645
#
# Static dielectric constant tensor:
#      x y z
#    x 2.225300 0.000000 0.000000 
#    y 0.000000 2.225300 0.000000 
#    z 0.000000 0.000000 1.945330 
# 
# From -- ./inp_files/6692.got.cif
#   From: 2010.05.17/outbox.cif.g08.bks.cpg/sg178_4_cif.got.tgz:6692.got - 2010.05.20 11:30:59.
