data_PCOD9582044
_publ_section_title
;
Structure prediction by ZEFSAII (Michael W. Deem and Ramdas Pophale) SiO2 
 PCOD9582044
Probable space group: P 63/M
;
_chemical_formula_sum "Si O2"
_cell_formula_units_Z 48
_cell_length_a 19.686134
_cell_length_b 19.686134
_cell_length_c 7.581717
_cell_angle_alpha 90.000000
_cell_angle_beta 90.000000
_cell_angle_gamma 120.000000
_cell_volume 2544.597377
_symmetry_space_group_name_H-M "P 63/M"
_symmetry_group_IT_number 176
_symmetry_cell_setting 'hexagonal'
loop_
_space_group_symop_operation_xyz
x,y,z
x-y,x,1/2+z
-y,x-y,z
-x,-y,1/2+z
-x+y,-x,z
y,-x+y,1/2+z
-x,-y,-z
-x+y,-x,1/2-z
y,-x+y,-z
x,y,1/2-z
x-y,x,-z
-y,x-y,1/2-z
loop_
_atom_site_type_symbol
_atom_site_label
_atom_site_fract_x
_atom_site_fract_y
_atom_site_fract_z
Si Si1 0.718380 0.711971 0.039147
Si Si2 0.793410 0.517906 0.750000
Si Si3 0.539981 0.949073 0.543821
Si Si4 0.350522 0.184630 0.453759
Si Si5 0.828773 0.380655 0.750000
O O1 0.724710 0.723671 0.250000
O O2 0.637433 0.631867 0.000308
O O3 0.786039 0.692488 0.986240
O O4 0.709489 0.782108 0.960489
O O5 0.814923 0.576589 0.582755
O O6 0.834498 0.465099 0.750000
O O7 0.701790 0.450940 0.750000
O O8 0.531958 0.929723 0.750000
O O9 0.497390 0.873738 0.421957
O O10 0.500000 0.000000 0.500000
O O11 0.376194 0.187455 0.250000
#
# Coordination Sequence:
#
# PCOD9582044 Si02
#       5
#    12   6  12  12   6
#     4  10  22  40  61  95 126 161 211 260 320 381
#     4  12  25  44  60  91 127 167 215 259 317 384
#     4  11  22  37  59  90 120 155 209 260 310 369
#     4  11  24  40  66  93 130 166 211 266 320 377
#     4  12  25  40  62  83 123 169 203 257 313 374
#
# _framework density 18.863495
#
# number of rings (size 3 to 8) (size 9 to 14) (size 15 to 20)
#    0.000    1.000    5.000    1.750    3.500    3.000 
#    0.000    0.000    0.000    3.500    0.000    0.000 
#    0.000    0.000    0.000    0.000    0.000    0.000 
#
# Total GULP energy -267991.366289 kJ/mol
# GULP energy per Si atom -5583.153464 kJ/mol
# Density = 1.882056 g / cm^3
# Si number density = 18.863495 Si / 1000 Ang^3
#
#
#
# Elastic Constant Matrix: (Units=GPa)
#
#
# Indices 1 2 3 4 5 6 
#
# 1 107.9399 34.1844 24.4846 0.0000 0.0000 0.0000
# 2 34.1844 107.9399 24.4846 0.0000 0.0000 0.0000
# 3 24.4846 24.4846 82.1125 0.0000 0.0000 0.0000
# 4 0.0000 0.0000 0.0000 17.4644 0.0000 0.0000
# 5 0.0000 0.0000 0.0000 0.0000 17.4644 0.0000
# 6 0.0000 0.0000 0.0000 0.0000 0.0000 36.8777
#
#
#
# Elastic Compliance Matrix: (Units=1/GPa)
#
#
# Indices 1 2 3 4 5 6 
#
# 1 0.010700 -0.002858 -0.002338 0.000000 0.000000 0.000000
# 2 -0.002858 0.010700 -0.002338 0.000000 0.000000 0.000000
# 3 -0.002338 -0.002338 0.013573 0.000000 0.000000 0.000000
# 4 0.000000 0.000000 0.000000 0.057259 0.000000 0.000000
# 5 0.000000 0.000000 0.000000 0.000000 0.057259 0.000000
# 6 0.000000 0.000000 0.000000 0.000000 0.000000 0.027117
#
#
# Mechanical properties :
#
#
# Convention : Reuss Voigt Hill
#
# Bulk Modulus (GPa) = 50.24301 51.58884 50.91593
# Shear Modulus (GPa) = 25.21273 28.68387 26.94830
#
# Velocity S-wave (km/s) = 3.65990 3.90372 3.78378
# Velocity P-wave (km/s) = 6.67478 6.90844 6.79262
#
# Compressibility (1/GPa) = 0.01990327
#
# Stress axis : x y z
#
# Youngs Moduli (GPa) = 93.45765 93.45765 73.67626
#
# Poissons Ratio (x) = 0.26713 0.17228
# Poissons Ratio (y) = 0.26713 0.17228
# Poissons Ratio (z) = 0.21853 0.21853
#
# Static dielectric constant tensor:
#      x y z
#    x 1.677680 0.000000 0.000000 
#    y 0.000000 1.677680 0.000000 
#    z 0.000000 0.000000 1.665480 
# 
# From -- ./inp_files/667.got.cif
#   From: 2010.05.17/outbox.cif.g08.bks.cpg/sg176_1_cif.got.tgz:667.got - 2010.06.03 11:36:45.
