data_PCOD9582704
_publ_section_title
;
Structure prediction by ZEFSAII (Michael W. Deem and Ramdas Pophale) SiO2 
 PCOD9582704
Probable space group: P 61 2 2
;
_chemical_formula_sum "Si O2"
_cell_formula_units_Z 48
_cell_length_a 14.742134
_cell_length_b 14.742134
_cell_length_c 10.231568
_cell_angle_alpha 90.000000
_cell_angle_beta 90.000000
_cell_angle_gamma 120.000000
_cell_volume 1925.721750
_symmetry_space_group_name_H-M "P 61 2 2"
_symmetry_group_IT_number 178
_symmetry_cell_setting 'hexagonal'
loop_
_space_group_symop_operation_xyz
x,y,z
x-y,x,1/6+z
-y,x-y,1/3+z
-x,-y,1/2+z
-x+y,-x,2/3+z
y,-x+y,5/6+z
x-y,-y,-z
-x,-x+y,2/3-z
y,x,1/3-z
-y,-x,5/6-z
-x+y,y,1/2-z
x,x-y,1/6-z
loop_
_atom_site_type_symbol
_atom_site_label
_atom_site_fract_x
_atom_site_fract_y
_atom_site_fract_z
Si Si1 0.890412 0.647479 0.553956
Si Si2 0.666760 0.161939 0.637780
Si Si3 0.483060 0.966119 0.750000
Si Si4 0.900171 0.800342 0.750000
Si Si5 0.434484 0.717242 0.083334
Si Si6 0.817968 0.000000 0.000000
O O1 0.768334 0.603771 0.577703
O O2 0.938215 0.730947 0.669268
O O3 0.932845 0.716623 0.424520
O O4 0.906826 0.546470 0.547500
O O5 0.563542 0.049585 0.644763
O O6 0.638303 0.233985 0.549944
O O7 0.703828 0.213472 0.786543
O O8 0.874928 0.874928 0.666667
O O9 0.836914 0.918457 0.083334
#
# Coordination Sequence:
#
# PCOD9582704 Si02
#       6
#    12  12   6   6   6   6
#     4  12  27  47  77 114 160 203 264 324 404 485
#     4  10  21  39  67 102 150 201 254 318 372 465
#     4  10  23  44  69 114 151 208 248 317 390 468
#     4  12  28  56  79 113 157 203 268 340 406 482
#     4   8  19  36  60  97 144 199 252 293 362 444
#     4  12  28  52  80 120 150 210 274 352 424 508
#
# _framework density 24.925719999999998
#
# number of rings (size 3 to 8) (size 9 to 14) (size 15 to 20)
#    0.000    1.500    0.000    5.250    8.750    4.000 
#   15.750    0.000    0.000    0.000    0.000    0.000 
#    0.000    0.000    0.000    0.000    0.000    0.000 
#
# Total GULP energy -268049.337207 kJ/mol
# GULP energy per Si atom -5584.361192 kJ/mol
# Density = 2.486899 g / cm^3
# Si number density = 24.925720 Si / 1000 Ang^3
#
#
#
# Elastic Constant Matrix: (Units=GPa)
#
#
# Indices 1 2 3 4 5 6 
#
# 1 131.2908 68.8466 33.2770 0.0000 0.0000 0.0000
# 2 68.8466 131.2908 33.2770 0.0000 0.0000 0.0000
# 3 33.2770 33.2770 93.2408 0.0000 0.0000 0.0000
# 4 0.0000 0.0000 0.0000 31.6570 0.0000 0.0000
# 5 0.0000 0.0000 0.0000 0.0000 31.6570 0.0000
# 6 0.0000 0.0000 0.0000 0.0000 0.0000 31.2221
#
#
#
# Elastic Compliance Matrix: (Units=1/GPa)
#
#
# Indices 1 2 3 4 5 6 
#
# 1 0.010842 -0.005172 -0.002023 0.000000 0.000000 0.000000
# 2 -0.005172 0.010842 -0.002023 0.000000 0.000000 0.000000
# 3 -0.002023 -0.002023 0.012169 0.000000 0.000000 0.000000
# 4 0.000000 0.000000 0.000000 0.031589 0.000000 0.000000
# 5 0.000000 0.000000 0.000000 0.000000 0.031589 0.000000
# 6 0.000000 0.000000 0.000000 0.000000 0.000000 0.032029
#
#
# Mechanical properties :
#
#
# Convention : Reuss Voigt Hill
#
# Bulk Modulus (GPa) = 64.87395 69.62486 67.24940
# Shear Modulus (GPa) = 32.75783 33.60200 33.17992
#
# Velocity S-wave (km/s) = 3.62915 3.67561 3.65245
# Velocity P-wave (km/s) = 6.60639 6.78285 6.69520
#
# Compressibility (1/GPa) = 0.01541451
#
# Stress axis : x y z
#
# Youngs Moduli (GPa) = 92.23518 92.23518 82.17480
#
# Poissons Ratio (x) = 0.47708 0.16627
# Poissons Ratio (y) = 0.47708 0.16627
# Poissons Ratio (z) = 0.18663 0.18663
#
# Static dielectric constant tensor:
#      x y z
#    x 2.036780 0.000000 0.000000 
#    y 0.000000 2.036780 0.000000 
#    z 0.000000 0.000000 2.329420 
# 
# From -- ./inp_files/4226.got.cif
#   From: 2010.05.17/outbox.cif.g08.bks.cpg/sg178_3_cif.got.tgz:4226.got - 2010.05.20 11:30:59.
