data_PCOD9582887
_publ_section_title
;
Structure prediction by ZEFSAII (Michael W. Deem and Ramdas Pophale) SiO2 
 PCOD9582887
Probable space group: P 61 2 2
;
_chemical_formula_sum "Si O2"
_cell_formula_units_Z 48
_cell_length_a 15.882905
_cell_length_b 15.882905
_cell_length_c 11.195227
_cell_angle_alpha 90.000000
_cell_angle_beta 90.000000
_cell_angle_gamma 120.000000
_cell_volume 2445.813919
_symmetry_space_group_name_H-M "P 61 2 2"
_symmetry_group_IT_number 178
_symmetry_cell_setting 'hexagonal'
loop_
_space_group_symop_operation_xyz
x,y,z
x-y,x,1/6+z
-y,x-y,1/3+z
-x,-y,1/2+z
-x+y,-x,2/3+z
y,-x+y,5/6+z
x-y,-y,-z
-x,-x+y,2/3-z
y,x,1/3-z
-y,-x,5/6-z
-x+y,y,1/2-z
x,x-y,1/6-z
loop_
_atom_site_type_symbol
_atom_site_label
_atom_site_fract_x
_atom_site_fract_y
_atom_site_fract_z
Si Si1 0.585294 0.170588 0.250000
Si Si2 0.681728 0.894710 0.297793
Si Si3 0.815344 0.907672 0.083334
Si Si4 0.712758 0.463572 0.389172
Si Si5 0.367828 0.107059 0.174503
O O1 0.654181 0.233820 0.139211
O O2 0.471482 0.115410 0.209309
O O3 0.746693 0.918869 0.179677
O O4 0.571496 0.828921 0.256599
O O5 0.687997 0.818843 0.387181
O O6 0.703689 0.995581 0.358453
O O7 0.878772 0.878772 0.166667
O O8 0.600492 0.399509 0.416667
O O9 0.728566 0.457131 0.250000
O O10 0.389388 0.194694 0.083334
#
# Coordination Sequence:
#
# PCOD9582887 Si02
#       5
#     6  12   6  12  12
#     4  10  24  41  64  98 136 178 225 278 342 414
#     4  11  24  42  69  96 132 177 228 285 344 415
#     4  12  24  49  72 100 132 172 231 290 352 420
#     4  11  22  39  65  96 135 183 231 278 333 407
#     4  11  24  45  66  98 136 178 228 290 352 411
#
# _framework density 19.625368999999999
#
# number of rings (size 3 to 8) (size 9 to 14) (size 15 to 20)
#    0.000    1.000    5.000    1.500    5.250    0.000 
#    2.250    0.000    0.000    0.000    0.000    0.000 
#    0.000    0.000    0.000    0.000    0.000    0.000 
#
# Total GULP energy -267399.731214 kJ/mol
# GULP energy per Si atom -5570.827734 kJ/mol
# Density = 1.958070 g / cm^3
# Si number density = 19.625369 Si / 1000 Ang^3
#
#
#
# Elastic Constant Matrix: (Units=GPa)
#
#
# Indices 1 2 3 4 5 6 
#
# 1 110.6826 83.1095 40.9943 0.0000 0.0000 0.0000
# 2 83.1095 110.6826 40.9943 0.0000 0.0000 0.0000
# 3 40.9943 40.9943 93.4457 0.0000 0.0000 0.0000
# 4 0.0000 0.0000 0.0000 18.3761 0.0000 0.0000
# 5 0.0000 0.0000 0.0000 0.0000 18.3761 0.0000
# 6 0.0000 0.0000 0.0000 0.0000 0.0000 13.7866
#
#
#
# Elastic Compliance Matrix: (Units=1/GPa)
#
#
# Indices 1 2 3 4 5 6 
#
# 1 0.021302 -0.014966 -0.002780 0.000000 0.000000 0.000000
# 2 -0.014966 0.021302 -0.002780 0.000000 0.000000 0.000000
# 3 -0.002780 -0.002780 0.013140 0.000000 0.000000 0.000000
# 4 0.000000 0.000000 0.000000 0.054419 0.000000 0.000000
# 5 0.000000 0.000000 0.000000 0.000000 0.054419 0.000000
# 6 0.000000 0.000000 0.000000 0.000000 0.000000 0.072534
#
#
# Mechanical properties :
#
#
# Convention : Reuss Voigt Hill
#
# Bulk Modulus (GPa) = 68.05516 71.66748 69.86132
# Shear Modulus (GPa) = 17.66393 20.08860 18.87626
#
# Velocity S-wave (km/s) = 3.00335 3.20285 3.10470
# Velocity P-wave (km/s) = 6.83953 7.09047 6.96613
#
# Compressibility (1/GPa) = 0.01469396
#
# Stress axis : x y z
#
# Youngs Moduli (GPa) = 46.94465 46.94465 76.10204
#
# Poissons Ratio (x) = 0.70255 0.21154
# Poissons Ratio (y) = 0.70255 0.21154
# Poissons Ratio (z) = 0.13049 0.13049
#
# Static dielectric constant tensor:
#      x y z
#    x 1.698480 0.000000 0.000000 
#    y 0.000000 1.698480 0.000000 
#    z 0.000000 0.000000 1.699970 
# 
# From -- ./inp_files/4194.got.cif
#   From: 2010.05.17/outbox.cif.g08.bks.cpg/sg178_3_cif.got.tgz:4194.got - 2010.05.20 11:30:59.
