data_PCOD9582922
_publ_section_title
;
Structure prediction by ZEFSAII (Michael W. Deem and Ramdas Pophale) SiO2 
 PCOD9582922
Probable space group: P 61 2 2
;
_chemical_formula_sum "Si O2"
_cell_formula_units_Z 30
_cell_length_a 17.109018
_cell_length_b 17.109018
_cell_length_c 5.049161
_cell_angle_alpha 90.000000
_cell_angle_beta 90.000000
_cell_angle_gamma 120.000000
_cell_volume 1279.970667
_symmetry_space_group_name_H-M "P 61 2 2"
_symmetry_group_IT_number 178
_symmetry_cell_setting 'hexagonal'
loop_
_space_group_symop_operation_xyz
x,y,z
x-y,x,1/6+z
-y,x-y,1/3+z
-x,-y,1/2+z
-x+y,-x,2/3+z
y,-x+y,5/6+z
x-y,-y,-z
-x,-x+y,2/3-z
y,x,1/3-z
-y,-x,5/6-z
-x+y,y,1/2-z
x,x-y,1/6-z
loop_
_atom_site_type_symbol
_atom_site_label
_atom_site_fract_x
_atom_site_fract_y
_atom_site_fract_z
Si Si1 0.819326 0.000000 0.000000
Si Si2 0.454386 0.366128 0.504587
Si Si3 0.000000 0.709285 0.833334
Si Si4 0.718955 0.437909 0.250000
O O1 0.753163 0.976508 0.747484
O O2 0.914301 0.085700 0.916667
O O3 0.391468 0.391468 0.666667
O O4 0.539276 0.460725 0.416667
O O5 0.389207 0.308179 0.263417
O O6 0.494451 0.314940 0.675982
O O7 0.633502 0.366499 0.416667
#
# Coordination Sequence:
#
# PCOD9582922 Si02
#       4
#     6  12   6   6
#     4  12  30  54  82 118 158 210 264 334 416 488
#     4  11  24  44  76 110 159 211 263 325 404 471
#     4  12  26  46  80 120 152 208 268 328 394 482
#     4  10  26  44  70 114 152 208 264 330 398 480
#
# _framework density 23.438037999999999
#
# number of rings (size 3 to 8) (size 9 to 14) (size 15 to 20)
#    0.000    0.800    4.000    1.200    5.600    4.800 
#    0.000    0.000    0.000    0.000    0.000    0.000 
#    0.000    0.000    0.000    0.000    0.000    0.000 
#
# Total GULP energy -167354.476240 kJ/mol
# GULP energy per Si atom -5578.482541 kJ/mol
# Density = 2.338469 g / cm^3
# Si number density = 23.438038 Si / 1000 Ang^3
#
#
#
# Elastic Constant Matrix: (Units=GPa)
#
#
# Indices 1 2 3 4 5 6 
#
# 1 136.5259 120.9240 63.3852 0.0000 0.0000 0.0000
# 2 120.9240 136.5259 63.3852 0.0000 0.0000 0.0000
# 3 63.3852 63.3852 116.9860 0.0000 0.0000 0.0000
# 4 0.0000 0.0000 0.0000 28.1714 0.0000 0.0000
# 5 0.0000 0.0000 0.0000 0.0000 28.1714 0.0000
# 6 0.0000 0.0000 0.0000 0.0000 0.0000 7.8010
#
#
#
# Elastic Compliance Matrix: (Units=1/GPa)
#
#
# Indices 1 2 3 4 5 6 
#
# 1 0.034696 -0.029398 -0.002870 0.000000 0.000000 0.000000
# 2 -0.029398 0.034696 -0.002870 0.000000 0.000000 0.000000
# 3 -0.002870 -0.002870 0.011658 0.000000 0.000000 0.000000
# 4 0.000000 0.000000 0.000000 0.035497 0.000000 0.000000
# 5 0.000000 0.000000 0.000000 0.000000 0.035497 0.000000
# 6 0.000000 0.000000 0.000000 0.000000 0.000000 0.128189
#
#
# Mechanical properties :
#
#
# Convention : Reuss Voigt Hill
#
# Bulk Modulus (GPa) = 92.83069 98.38074 95.60572
# Shear Modulus (GPa) = 14.12018 22.31830 18.21924
#
# Velocity S-wave (km/s) = 2.45714 3.08916 2.79110
# Velocity P-wave (km/s) = 6.90962 7.40202 7.16005
#
# Compressibility (1/GPa) = 0.01077230
#
# Stress axis : x y z
#
# Youngs Moduli (GPa) = 28.82167 28.82167 85.77457
#
# Poissons Ratio (x) = 0.84731 0.24620
# Poissons Ratio (y) = 0.84731 0.24620
# Poissons Ratio (z) = 0.08273 0.08273
#
# Static dielectric constant tensor:
#      x y z
#    x 1.931240 0.000000 0.000000 
#    y 0.000000 1.931240 0.000000 
#    z 0.000000 0.000000 1.867070 
# 
# From -- ./inp_files/407.got.cif
#   From: 2010.05.17/outbox.cif.g08.bks.cpg/sg178_1_cif.got.tgz:407.got - 2010.05.20 11:30:59.
