data_PCOD9582442
_publ_section_title
;
Structure prediction by ZEFSAII (Michael W. Deem and Ramdas Pophale) SiO2 
 PCOD9582442
Probable space group: P 61 2 2
;
_chemical_formula_sum "Si O2"
_cell_formula_units_Z 90
_cell_length_a 24.515923
_cell_length_b 24.515923
_cell_length_c 9.707419
_cell_angle_alpha 90.000000
_cell_angle_beta 90.000000
_cell_angle_gamma 120.000000
_cell_volume 5052.785993
_symmetry_space_group_name_H-M "P 61 2 2"
_symmetry_group_IT_number 178
_symmetry_cell_setting 'hexagonal'
loop_
_space_group_symop_operation_xyz
x,y,z
x-y,x,1/6+z
-y,x-y,1/3+z
-x,-y,1/2+z
-x+y,-x,2/3+z
y,-x+y,5/6+z
x-y,-y,-z
-x,-x+y,2/3-z
y,x,1/3-z
-y,-x,5/6-z
-x+y,y,1/2-z
x,x-y,1/6-z
loop_
_atom_site_type_symbol
_atom_site_label
_atom_site_fract_x
_atom_site_fract_y
_atom_site_fract_z
Si Si1 0.626627 0.075699 0.021879
Si Si2 0.504226 0.448431 0.268787
Si Si3 0.231316 0.359669 0.152530
Si Si4 0.000000 0.103754 0.333334
Si Si5 0.370589 0.317861 0.945318
Si Si6 0.581412 0.903416 0.266010
Si Si7 0.751054 0.965600 0.861785
Si Si8 0.150982 0.229268 0.000979
O O1 0.653641 0.084236 0.175772
O O2 0.569662 0.088008 0.982667
O O3 0.676356 0.106691 0.897502
O O4 0.593664 0.000000 0.000000
O O5 0.457028 0.457028 0.166667
O O6 0.514930 0.485071 0.416667
O O7 0.478328 0.378107 0.322144
O O8 0.186574 0.373147 0.250000
O O9 0.294393 0.378242 0.239687
O O10 0.256641 0.396590 0.008922
O O11 0.192908 0.286856 0.104975
O O12 0.953309 0.118717 0.251053
O O13 0.043466 0.086932 0.250000
O O14 0.315700 0.253844 0.878260
O O15 0.342822 0.365261 0.949969
O O16 0.762537 0.906943 0.887171
O O17 0.803651 0.023443 0.771067
O O18 0.750339 0.000000 0.000000
#
# Coordination Sequence:
#
# PCOD9582442 Si02
#       8
#    12  12  12   6  12  12  12  12
#     4   8  17  32  48  75 107 138 171 210 243 294
#     4   9  16  28  47  73 107 140 176 205 237 281
#     4  12  23  35  50  77 101 135 180 224 266 325
#     4  12  24  44  62  76  92 122 156 228 304 366
#     4  11  20  33  55  77 106 136 179 218 263 317
#     4  10  19  31  51  75 103 143 178 211 253 306
#     4  12  24  40  58  79 104 134 174 231 291 356
#     4  12  24  41  59  76 101 128 180 227 287 361
#
# _framework density 17.811955999999999
#
# number of rings (size 3 to 8) (size 9 to 14) (size 15 to 20)
#    0.000    1.333    4.000    4.800    0.000    0.000 
#    1.200    0.667    0.000    0.000    0.000    0.000 
#    0.000    0.000    0.000   14.400    0.000    1.600 
#
# Total GULP energy -501693.183017 kJ/mol
# GULP energy per Si atom -5574.368700 kJ/mol
# Density = 1.777142 g / cm^3
# Si number density = 17.811956 Si / 1000 Ang^3
#
#
#
# Elastic Constant Matrix: (Units=GPa)
#
#
# Indices 1 2 3 4 5 6 
#
# 1 53.3389 -0.1788 10.5326 0.0000 0.0000 0.0000
# 2 -0.1788 53.3389 10.5326 0.0000 0.0000 0.0000
# 3 10.5326 10.5326 60.9983 0.0000 0.0000 0.0000
# 4 0.0000 0.0000 0.0000 30.0117 0.0000 0.0000
# 5 0.0000 0.0000 0.0000 0.0000 30.0117 0.0000
# 6 0.0000 0.0000 0.0000 0.0000 0.0000 26.7588
#
#
#
# Elastic Compliance Matrix: (Units=1/GPa)
#
#
# Indices 1 2 3 4 5 6 
#
# 1 0.019439 0.000754 -0.003487 0.000000 0.000000 0.000000
# 2 0.000754 0.019439 -0.003487 0.000000 0.000000 0.000000
# 3 -0.003487 -0.003487 0.017598 0.000000 0.000000 0.000000
# 4 0.000000 0.000000 0.000000 0.033320 0.000000 0.000000
# 5 0.000000 0.000000 0.000000 0.000000 0.033320 0.000000
# 6 0.000000 0.000000 0.000000 0.000000 0.000000 0.037371
#
#
# Mechanical properties :
#
#
# Convention : Reuss Voigt Hill
#
# Bulk Modulus (GPa) = 22.70831 23.27209 22.99020
# Shear Modulus (GPa) = 26.65160 27.14242 26.89701
#
# Velocity S-wave (km/s) = 3.87237 3.90786 3.89016
# Velocity P-wave (km/s) = 5.72453 5.78409 5.75439
#
# Compressibility (1/GPa) = 0.04403674
#
# Stress axis : x y z
#
# Youngs Moduli (GPa) = 51.44279 51.44279 56.82469
#
# Poissons Ratio (x) = -0.03877 0.19813
# Poissons Ratio (y) = -0.03877 0.19813
# Poissons Ratio (z) = 0.17936 0.17936
#
# Static dielectric constant tensor:
#      x y z
#    x 1.600950 0.000000 0.000000 
#    y 0.000000 1.600950 0.000000 
#    z 0.000000 0.000000 1.589480 
# 
# From -- ./inp_files/3629.got.cif
#   From: 2010.05.17/outbox.cif.g08.bks.cpg/sg178_2_cif.got.tgz:3629.got - 2010.05.20 11:30:59.
