data_PCOD9582592
_publ_section_title
;
Structure prediction by ZEFSAII (Michael W. Deem and Ramdas Pophale) SiO2 
 PCOD9582592
Probable space group: P 61 2 2
;
_chemical_formula_sum "Si O2"
_cell_formula_units_Z 60
_cell_length_a 25.789679
_cell_length_b 25.789679
_cell_length_c 5.807045
_cell_angle_alpha 90.000000
_cell_angle_beta 90.000000
_cell_angle_gamma 120.000000
_cell_volume 3344.858085
_symmetry_space_group_name_H-M "P 61 2 2"
_symmetry_group_IT_number 178
_symmetry_cell_setting 'hexagonal'
loop_
_space_group_symop_operation_xyz
x,y,z
x-y,x,1/6+z
-y,x-y,1/3+z
-x,-y,1/2+z
-x+y,-x,2/3+z
y,-x+y,5/6+z
x-y,-y,-z
-x,-x+y,2/3-z
y,x,1/3-z
-y,-x,5/6-z
-x+y,y,1/2-z
x,x-y,1/6-z
loop_
_atom_site_type_symbol
_atom_site_label
_atom_site_fract_x
_atom_site_fract_y
_atom_site_fract_z
Si Si1 0.352118 0.915338 0.733209
Si Si2 0.196902 0.690367 0.795028
Si Si3 0.400289 0.255561 0.545252
Si Si4 0.634128 0.365873 0.416667
Si Si5 0.315645 0.301468 0.403790
Si Si6 0.470964 0.470964 0.666667
O O1 0.287492 0.875809 0.620863
O O2 0.349792 0.975707 0.787348
O O3 0.406975 0.940800 0.553271
O O4 0.351001 0.867713 0.913608
O O5 0.181285 0.717111 0.574412
O O6 0.226946 0.651259 0.731785
O O7 0.249734 0.750267 0.916667
O O8 0.371383 0.185692 0.583334
O O9 0.360808 0.275998 0.402897
O O10 0.622157 0.311079 0.583334
O O11 0.289314 0.289314 0.666667
O O12 0.278287 0.278287 0.166667
O O13 0.504066 0.495934 0.416667
#
# Coordination Sequence:
#
# PCOD9582592 Si02
#       6
#    12  12  12   6  12   6
#     4  11  24  44  63  86 120 152 187 241 305 372
#     4  12  25  42  68  87 109 147 202 247 311 386
#     4  11  21  37  65  94 116 148 196 243 291 372
#     4  12  28  50  64  80 118 156 196 264 342 392
#     4  10  20  37  62  86 124 157 180 232 300 350
#     4  12  30  46  64  92 124 158 198 242 310 388
#
# _framework density 17.937981000000001
#
# number of rings (size 3 to 8) (size 9 to 14) (size 15 to 20)
#    0.000    0.800    8.000    0.600    4.200    1.600 
#    0.000    0.000    0.000    0.000    0.000    0.000 
#    0.000    0.000    0.000    0.000    0.000    0.000 
#
# Total GULP energy -334097.349511 kJ/mol
# GULP energy per Si atom -5568.289159 kJ/mol
# Density = 1.789715 g / cm^3
# Si number density = 17.937981 Si / 1000 Ang^3
#
#
#
# Elastic Constant Matrix: (Units=GPa)
#
#
# Indices 1 2 3 4 5 6 
#
# 1 91.5300 47.8282 29.4540 0.0000 0.0000 0.0000
# 2 47.8282 91.5300 29.4540 0.0000 0.0000 0.0000
# 3 29.4540 29.4540 91.9879 0.0000 0.0000 0.0000
# 4 0.0000 0.0000 0.0000 35.2177 0.0000 0.0000
# 5 0.0000 0.0000 0.0000 0.0000 35.2177 0.0000
# 6 0.0000 0.0000 0.0000 0.0000 0.0000 21.8509
#
#
#
# Elastic Compliance Matrix: (Units=1/GPa)
#
#
# Indices 1 2 3 4 5 6 
#
# 1 0.015591 -0.007292 -0.002657 0.000000 0.000000 0.000000
# 2 -0.007292 0.015591 -0.002657 0.000000 0.000000 0.000000
# 3 -0.002657 -0.002657 0.012573 0.000000 0.000000 0.000000
# 4 0.000000 0.000000 0.000000 0.028395 0.000000 0.000000
# 5 0.000000 0.000000 0.000000 0.000000 0.028395 0.000000
# 6 0.000000 0.000000 0.000000 0.000000 0.000000 0.045765
#
#
# Mechanical properties :
#
#
# Convention : Reuss Voigt Hill
#
# Bulk Modulus (GPa) = 53.93298 54.28007 54.10652
# Shear Modulus (GPa) = 28.13708 29.67804 28.90756
#
# Velocity S-wave (km/s) = 3.96482 4.07194 4.01874
# Velocity P-wave (km/s) = 7.14782 7.24108 7.19460
#
# Compressibility (1/GPa) = 0.01854153
#
# Stress axis : x y z
#
# Youngs Moduli (GPa) = 64.14087 64.14087 79.53739
#
# Poissons Ratio (x) = 0.46769 0.21135
# Poissons Ratio (y) = 0.46769 0.21135
# Poissons Ratio (z) = 0.17044 0.17044
#
# Static dielectric constant tensor:
#      x y z
#    x 1.611300 0.000000 0.000000 
#    y 0.000000 1.611300 0.000000 
#    z 0.000000 0.000000 1.751350 
# 
# From -- ./inp_files/1523.got.cif
#   From: 2010.05.17/outbox.cif.g08.bks.cpg/sg178_1_cif.got.tgz:1523.got - 2010.05.20 11:30:59.
