data_PCOD9582512
_publ_section_title
;
Structure prediction by ZEFSAII (Michael W. Deem and Ramdas Pophale) SiO2 
 PCOD9582512
Probable space group: P 61 2 2
;
_chemical_formula_sum "Si O2"
_cell_formula_units_Z 66
_cell_length_a 16.479945
_cell_length_b 16.479945
_cell_length_c 14.713402
_cell_angle_alpha 90.000000
_cell_angle_beta 90.000000
_cell_angle_gamma 120.000000
_cell_volume 3460.630639
_symmetry_space_group_name_H-M "P 61 2 2"
_symmetry_group_IT_number 178
_symmetry_cell_setting 'hexagonal'
loop_
_space_group_symop_operation_xyz
x,y,z
x-y,x,1/6+z
-y,x-y,1/3+z
-x,-y,1/2+z
-x+y,-x,2/3+z
y,-x+y,5/6+z
x-y,-y,-z
-x,-x+y,2/3-z
y,x,1/3-z
-y,-x,5/6-z
-x+y,y,1/2-z
x,x-y,1/6-z
loop_
_atom_site_type_symbol
_atom_site_label
_atom_site_fract_x
_atom_site_fract_y
_atom_site_fract_z
Si Si1 0.285905 0.280302 0.776192
Si Si2 0.143228 0.071614 0.583334
Si Si3 0.580829 0.349429 0.234037
Si Si4 0.476800 0.882861 0.614828
Si Si5 0.491096 0.066369 0.652685
Si Si6 0.160900 0.444668 0.044269
O O1 0.294846 0.294846 0.666667
O O2 0.175577 0.212505 0.791023
O O3 0.341168 0.384503 0.818294
O O4 0.347687 0.240626 0.823456
O O5 0.086304 0.086304 0.666667
O O6 0.661546 0.323091 0.250000
O O7 0.548388 0.359024 0.133838
O O8 0.617357 0.448825 0.279242
O O9 0.487614 0.271361 0.283421
O O10 0.375991 0.854686 0.658125
O O11 0.545396 0.873009 0.687407
O O12 0.508746 0.991527 0.596641
O O13 0.530825 0.061650 0.750000
#
# Coordination Sequence:
#
# PCOD9582512 Si02
#       6
#    12   6  12  12  12  12
#     4  10  21  42  66  94 124 168 211 266 330 398
#     4  10  24  46  80 102 126 162 216 292 366 418
#     4  12  25  33  60  92 125 175 229 266 315 381
#     4  10  19  42  53  77 130 180 208 263 323 369
#     4  11  22  37  58  85 128 176 221 271 313 381
#     4  10  20  37  62  85 128 168 212 259 322 387
#
# _framework density 19.071670000000001
#
# number of rings (size 3 to 8) (size 9 to 14) (size 15 to 20)
#    0.000    1.455    5.455    3.273    3.818    2.909 
#    0.000    0.000    4.000    0.000    0.000    0.000 
#    0.000    0.000    0.000    0.000    0.000    0.000 
#
# Total GULP energy -367403.753996 kJ/mol
# GULP energy per Si atom -5566.723545 kJ/mol
# Density = 1.902826 g / cm^3
# Si number density = 19.071670 Si / 1000 Ang^3
#
#
#
# Elastic Constant Matrix: (Units=GPa)
#
#
# Indices 1 2 3 4 5 6 
#
# 1 79.5840 38.5288 35.9474 0.0000 0.0000 0.0000
# 2 38.5288 79.5840 35.9474 0.0000 0.0000 0.0000
# 3 35.9474 35.9474 114.7268 0.0000 0.0000 0.0000
# 4 0.0000 0.0000 0.0000 13.6697 0.0000 0.0000
# 5 0.0000 0.0000 0.0000 0.0000 13.6697 0.0000
# 6 0.0000 0.0000 0.0000 0.0000 0.0000 20.5276
#
#
#
# Elastic Compliance Matrix: (Units=1/GPa)
#
#
# Indices 1 2 3 4 5 6 
#
# 1 0.017410 -0.006948 -0.003278 0.000000 0.000000 0.000000
# 2 -0.006948 0.017410 -0.003278 0.000000 0.000000 0.000000
# 3 -0.003278 -0.003278 0.010771 0.000000 0.000000 0.000000
# 4 0.000000 0.000000 0.000000 0.073155 0.000000 0.000000
# 5 0.000000 0.000000 0.000000 0.000000 0.073155 0.000000
# 6 0.000000 0.000000 0.000000 0.000000 0.000000 0.048715
#
#
# Mechanical properties :
#
#
# Convention : Reuss Voigt Hill
#
# Bulk Modulus (GPa) = 53.81511 54.97133 54.39322
# Shear Modulus (GPa) = 18.26045 20.47147 19.36596
#
# Velocity S-wave (km/s) = 3.09765 3.27983 3.19004
# Velocity P-wave (km/s) = 6.40878 6.57489 6.49237
#
# Compressibility (1/GPa) = 0.01858214
#
# Stress axis : x y z
#
# Youngs Moduli (GPa) = 57.43954 57.43954 92.84576
#
# Poissons Ratio (x) = 0.39908 0.30435
# Poissons Ratio (y) = 0.39908 0.30435
# Poissons Ratio (z) = 0.18829 0.18829
#
# Static dielectric constant tensor:
#      x y z
#    x 1.706140 0.000000 0.000000 
#    y 0.000000 1.706140 0.000000 
#    z 0.000000 0.000000 1.751900 
# 
# From -- ./inp_files/5936.got.cif
#   From: 2010.05.17/outbox.cif.g08.bks.cpg/sg178_3_cif.got.tgz:5936.got - 2010.05.20 11:30:59.
