data_PCOD9582368
_publ_section_title
;
Structure prediction by ZEFSAII (Michael W. Deem and Ramdas Pophale) SiO2 
 PCOD9582368
Probable space group: P 61 2 2
;
_chemical_formula_sum "Si O2"
_cell_formula_units_Z 60
_cell_length_a 21.648710
_cell_length_b 21.648710
_cell_length_c 8.836901
_cell_angle_alpha 90.000000
_cell_angle_beta 90.000000
_cell_angle_gamma 120.000000
_cell_volume 3586.696813
_symmetry_space_group_name_H-M "P 61 2 2"
_symmetry_group_IT_number 178
_symmetry_cell_setting 'hexagonal'
loop_
_space_group_symop_operation_xyz
x,y,z
x-y,x,1/6+z
-y,x-y,1/3+z
-x,-y,1/2+z
-x+y,-x,2/3+z
y,-x+y,5/6+z
x-y,-y,-z
-x,-x+y,2/3-z
y,x,1/3-z
-y,-x,5/6-z
-x+y,y,1/2-z
x,x-y,1/6-z
loop_
_atom_site_type_symbol
_atom_site_label
_atom_site_fract_x
_atom_site_fract_y
_atom_site_fract_z
Si Si1 0.552123 0.972714 0.171813
Si Si2 0.646578 0.933704 0.768934
Si Si3 0.801961 0.735086 0.457745
Si Si4 0.840075 0.159926 0.416667
Si Si5 0.925551 0.074450 0.916667
Si Si6 0.595390 0.862866 0.097308
O O1 0.484692 0.969383 0.250000
O O2 0.550734 0.897659 0.161669
O O3 0.627767 0.026434 0.252943
O O4 0.558106 0.000000 0.000000
O O5 0.632177 0.868049 0.663816
O O6 0.729293 0.991284 0.732014
O O7 0.631563 0.906033 0.941928
O O8 0.827410 0.727128 0.624112
O O9 0.865665 0.799643 0.369561
O O10 0.780078 0.660633 0.375537
O O11 0.000000 0.101881 0.833334
O O12 0.555603 0.777802 0.083334
#
# Coordination Sequence:
#
# PCOD9582368 Si02
#       6
#    12  12  12   6   6  12
#     4   9  20  35  55  81 116 148 177 218 278 335
#     4  10  21  34  52  80 112 143 178 231 276 328
#     4  11  20  34  54  77 103 137 182 228 283 317
#     4  12  20  30  49  84 114 140 174 232 282 316
#     4  12  24  40  55  66  92 140 188 228 282 336
#     4  10  17  35  57  80 108 141 184 221 265 331
#
# _framework density 16.728484999999999
#
# number of rings (size 3 to 8) (size 9 to 14) (size 15 to 20)
#    0.000    1.600    3.000    4.800    0.000    3.200 
#    0.000    4.000    0.000    0.000    0.000    5.600 
#    0.000    0.000    0.000    0.000    0.000    0.000 
#
# Total GULP energy -334529.695026 kJ/mol
# GULP energy per Si atom -5575.494917 kJ/mol
# Density = 1.669041 g / cm^3
# Si number density = 16.728485 Si / 1000 Ang^3
#
#
#
# Elastic Constant Matrix: (Units=GPa)
#
#
# Indices 1 2 3 4 5 6 
#
# 1 110.8795 78.5548 47.6791 0.0000 0.0000 0.0000
# 2 78.5548 110.8795 47.6791 0.0000 0.0000 0.0000
# 3 47.6791 47.6791 91.2058 0.0000 0.0000 0.0000
# 4 0.0000 0.0000 0.0000 31.8532 0.0000 0.0000
# 5 0.0000 0.0000 0.0000 0.0000 31.8532 0.0000
# 6 0.0000 0.0000 0.0000 0.0000 0.0000 16.1624
#
#
#
# Elastic Compliance Matrix: (Units=1/GPa)
#
#
# Indices 1 2 3 4 5 6 
#
# 1 0.019050 -0.011886 -0.003745 0.000000 0.000000 0.000000
# 2 -0.011886 0.019050 -0.003745 0.000000 0.000000 0.000000
# 3 -0.003745 -0.003745 0.014880 0.000000 0.000000 0.000000
# 4 0.000000 0.000000 0.000000 0.031394 0.000000 0.000000
# 5 0.000000 0.000000 0.000000 0.000000 0.031394 0.000000
# 6 0.000000 0.000000 0.000000 0.000000 0.000000 0.061872
#
#
# Mechanical properties :
#
#
# Convention : Reuss Voigt Hill
#
# Bulk Modulus (GPa) = 70.28625 73.42120 71.85372
# Shear Modulus (GPa) = 22.61059 25.24386 23.92723
#
# Velocity S-wave (km/s) = 3.68043 3.88884 3.78607
# Velocity P-wave (km/s) = 7.75680 8.00933 7.88407
#
# Compressibility (1/GPa) = 0.01422753
#
# Stress axis : x y z
#
# Youngs Moduli (GPa) = 52.49318 52.49318 67.20497
#
# Poissons Ratio (x) = 0.62393 0.25169
# Poissons Ratio (y) = 0.62393 0.25169
# Poissons Ratio (z) = 0.19659 0.19659
#
# Static dielectric constant tensor:
#      x y z
#    x 1.581840 0.000000 0.000000 
#    y 0.000000 1.581840 0.000000 
#    z 0.000000 0.000000 1.608920 
# 
# From -- ./inp_files/3173.got.cif
#   From: 2010.05.17/outbox.cif.g08.bks.cpg/sg178_2_cif.got.tgz:3173.got - 2010.05.20 11:30:59.
