data_PCOD9582015
_publ_section_title
;
Structure prediction by ZEFSAII (Michael W. Deem and Ramdas Pophale) SiO2 
 PCOD9582015
Probable space group: P 63/M
;
_chemical_formula_sum "Si O2"
_cell_formula_units_Z 70
_cell_length_a 14.878396
_cell_length_b 14.878396
_cell_length_c 17.760912
_cell_angle_alpha 90.000000
_cell_angle_beta 90.000000
_cell_angle_gamma 120.000000
_cell_volume 3404.929478
_symmetry_space_group_name_H-M "P 63/M"
_symmetry_group_IT_number 176
_symmetry_cell_setting 'hexagonal'
loop_
_space_group_symop_operation_xyz
x,y,z
x-y,x,1/2+z
-y,x-y,z
-x,-y,1/2+z
-x+y,-x,z
y,-x+y,1/2+z
-x,-y,-z
-x+y,-x,1/2-z
y,-x+y,-z
x,y,1/2-z
x-y,x,-z
-y,x-y,1/2-z
loop_
_atom_site_type_symbol
_atom_site_label
_atom_site_fract_x
_atom_site_fract_y
_atom_site_fract_z
Si Si1 0.944651 0.760091 0.342484
Si Si2 0.479079 0.862671 0.925154
Si Si3 0.580747 0.738800 0.533006
Si Si4 0.045181 0.193290 0.333809
Si Si5 0.550021 0.333945 0.750000
Si Si6 0.932138 0.601508 0.874810
Si Si7 0.666668 0.333334 0.163865
O O1 0.930805 0.738152 0.250000
O O2 0.892951 0.657385 0.395197
O O3 0.892872 0.829364 0.367620
O O4 0.065680 0.839214 0.360682
O O5 0.545266 0.825196 0.974472
O O6 0.376232 0.855040 0.960068
O O7 0.431867 0.771174 0.864213
O O8 0.554747 0.974361 0.891354
O O9 0.625857 0.729062 0.454142
O O10 0.044955 0.153378 0.250000
O O11 0.030687 0.292684 0.330524
O O12 0.568974 0.236124 0.750000
O O13 0.489222 0.333664 0.824536
O O14 0.666667 0.333334 0.250000
#
# Coordination Sequence:
#
# PCOD9582015 Si02
#       7
#    12  12  12  12   6  12   4
#     4  10  22  42  67 102 142 178 226 271 340 413
#     4  10  24  43  62 101 131 178 217 275 342 396
#     4  11  25  42  69  99 135 184 220 278 343 404
#     4  10  21  40  66  98 135 180 216 276 331 396
#     4  10  28  48  66  96 122 180 226 286 342 402
#     4  12  24  43  71  92 138 170 232 278 335 404
#     4   9  21  39  69  96 138 166 218 274 348 411
#
# _framework density 20.558429
#
# number of rings (size 3 to 8) (size 9 to 14) (size 15 to 20)
#    0.171    1.371    2.571    1.200    6.000    5.486 
#    0.000    0.000    0.000    2.057    0.000    0.000 
#    0.000    0.000    0.000    0.000    0.000    0.000 
#
# Total GULP energy -389805.660278 kJ/mol
# GULP energy per Si atom -5568.652290 kJ/mol
# Density = 2.051164 g / cm^3
# Si number density = 20.558429 Si / 1000 Ang^3
#
#
#
# Elastic Constant Matrix: (Units=GPa)
#
#
# Indices 1 2 3 4 5 6 
#
# 1 77.3767 -8.2341 15.8164 0.0000 0.0000 0.0000
# 2 -8.2341 77.3760 15.8167 0.0000 0.0000 -0.0004
# 3 15.8164 15.8167 89.7772 0.0000 0.0000 0.0001
# 4 0.0000 0.0000 0.0000 4.6611 0.0012 0.0000
# 5 0.0000 0.0000 0.0000 0.0012 4.6606 0.0000
# 6 0.0000 -0.0004 0.0001 0.0000 0.0000 42.8050
#
#
#
# Elastic Compliance Matrix: (Units=1/GPa)
#
#
# Indices 1 2 3 4 5 6 
#
# 1 0.013706 0.002025 -0.002771 0.000000 0.000000 0.000000
# 2 0.002025 0.013706 -0.002771 0.000000 0.000000 0.000000
# 3 -0.002771 -0.002771 0.012115 0.000000 0.000000 0.000000
# 4 0.000000 0.000000 0.000000 0.214543 -0.000056 0.000000
# 5 0.000000 0.000000 0.000000 -0.000056 0.214567 0.000000
# 6 0.000000 0.000000 0.000000 0.000000 0.000000 0.023362
#
#
# Mechanical properties :
#
#
# Convention : Reuss Voigt Hill
#
# Bulk Modulus (GPa) = 30.77743 32.36978 31.57361
# Shear Modulus (GPa) = 9.80653 25.16739 17.48696
#
# Velocity S-wave (km/s) = 2.18642 3.50264 2.91967
# Velocity P-wave (km/s) = 4.62354 5.66898 5.17274
#
# Compressibility (1/GPa) = 0.03249134
#
# Stress axis : x y z
#
# Youngs Moduli (GPa) = 72.96198 72.96124 82.54106
#
# Poissons Ratio (x) = -0.14775 0.22875
# Poissons Ratio (y) = -0.14775 0.22876
# Poissons Ratio (z) = 0.20220 0.20221
#
# Static dielectric constant tensor:
#      x y z
#    x 1.733440 0.000000 0.000000 
#    y 0.000000 1.733450 0.000000 
#    z 0.000000 0.000000 1.748500 
# 
# From -- ./inp_files/3406.got.cif
#   From: 2010.05.17/outbox.cif.g08.bks.cpg/sg176_2_cif.got.tgz:3406.got - 2010.06.03 11:36:45.
