data_PCOD9582017
_publ_section_title
;
Structure prediction by ZEFSAII (Michael W. Deem and Ramdas Pophale) SiO2 
 PCOD9582017
Probable space group: P 63/M
;
_chemical_formula_sum "Si O2"
_cell_formula_units_Z 76
_cell_length_a 17.257946
_cell_length_b 17.257946
_cell_length_c 14.638802
_cell_angle_alpha 90.000000
_cell_angle_beta 90.000000
_cell_angle_gamma 120.000000
_cell_volume 3775.846929
_symmetry_space_group_name_H-M "P 63/M"
_symmetry_group_IT_number 176
_symmetry_cell_setting 'hexagonal'
loop_
_space_group_symop_operation_xyz
x,y,z
x-y,x,1/2+z
-y,x-y,z
-x,-y,1/2+z
-x+y,-x,z
y,-x+y,1/2+z
-x,-y,-z
-x+y,-x,1/2-z
y,-x+y,-z
x,y,1/2-z
x-y,x,-z
-y,x-y,1/2-z
loop_
_atom_site_type_symbol
_atom_site_label
_atom_site_fract_x
_atom_site_fract_y
_atom_site_fract_z
Si Si1 0.628193 0.625921 0.994959
Si Si2 0.194916 0.256136 0.400793
Si Si3 0.159870 0.675825 0.642557
Si Si4 0.249960 0.944211 0.156002
Si Si5 0.000000 0.000000 0.641962
Si Si6 0.917732 0.117448 0.101267
Si Si7 0.851901 0.506118 0.143197
O O1 0.710776 0.659755 0.925582
O O2 0.548099 0.613053 0.928343
O O3 0.640891 0.561976 0.068325
O O4 0.643237 0.705803 0.063458
O O5 0.132472 0.279543 0.342866
O O6 0.141920 0.224979 0.496674
O O7 0.212568 0.177090 0.367800
O O8 0.133837 0.676277 0.750000
O O9 0.243454 0.774862 0.622002
O O10 0.189620 0.600791 0.638879
O O11 0.293663 0.939028 0.250000
O O12 0.250446 0.038299 0.151180
O O13 0.905732 0.984495 0.610015
O O14 0.000000 0.000000 0.750000
O O15 0.880113 0.532646 0.250000
#
# Coordination Sequence:
#
# PCOD9582017 Si02
#       7
#    12  12  12  12   4  12  12
#     4  11  22  38  58  87 121 158 190 245 303 364
#     4  11  21  33  49  67 104 151 195 244 300 355
#     4  10  21  40  67  96 126 159 200 250 304 364
#     4  11  23  34  48  73 107 151 202 246 297 358
#     4  12  21  28  44  64  85 134 208 267 304 344
#     4  11  19  31  45  62  93 144 198 255 300 348
#     4  10  22  41  67  97 125 158 200 248 303 364
#
# _framework density 20.127935999999998
#
# number of rings (size 3 to 8) (size 9 to 14) (size 15 to 20)
#    0.000    1.263    4.737    2.684    2.211    3.158 
#    0.000    0.000    0.000    0.000    0.000    0.000 
#    0.000    7.579    0.000    0.000    0.000    0.000 
#
# Total GULP energy -423672.056559 kJ/mol
# GULP energy per Si atom -5574.632323 kJ/mol
# Density = 2.008212 g / cm^3
# Si number density = 20.127936 Si / 1000 Ang^3
#
#
#
# Elastic Constant Matrix: (Units=GPa)
#
#
# Indices 1 2 3 4 5 6 
#
# 1 73.3267 12.1100 21.8468 0.0000 0.0000 0.0000
# 2 12.1100 73.3267 21.8468 0.0000 0.0000 0.0000
# 3 21.8468 21.8468 98.5937 0.0000 0.0000 0.0000
# 4 0.0000 0.0000 0.0000 103.5807 0.0000 0.0000
# 5 0.0000 0.0000 0.0000 0.0000 103.5807 0.0000
# 6 0.0000 0.0000 0.0000 0.0000 0.0000 30.6084
#
#
#
# Elastic Compliance Matrix: (Units=1/GPa)
#
#
# Indices 1 2 3 4 5 6 
#
# 1 0.014768 -0.001567 -0.002925 0.000000 0.000000 0.000000
# 2 -0.001567 0.014768 -0.002925 0.000000 0.000000 0.000000
# 3 -0.002925 -0.002925 0.011439 0.000000 0.000000 0.000000
# 4 0.000000 0.000000 0.000000 0.009654 0.000000 0.000000
# 5 0.000000 0.000000 0.000000 0.000000 0.009654 0.000000
# 6 0.000000 0.000000 0.000000 0.000000 0.000000 0.032671
#
#
# Mechanical properties :
#
#
# Convention : Reuss Voigt Hill
#
# Bulk Modulus (GPa) = 38.25586 39.65047 38.95316
# Shear Modulus (GPa) = 42.91754 60.18353 51.55053
#
# Velocity S-wave (km/s) = 4.62263 5.47407 5.06626
# Velocity P-wave (km/s) = 6.89486 7.72631 7.32240
#
# Compressibility (1/GPa) = 0.02613979
#
# Stress axis : x y z
#
# Youngs Moduli (GPa) = 67.71426 67.71426 87.42088
#
# Poissons Ratio (x) = 0.10614 0.25571
# Poissons Ratio (y) = 0.10614 0.25571
# Poissons Ratio (z) = 0.19807 0.19807
#
# Static dielectric constant tensor:
#      x y z
#    x 1.742700 0.000000 0.000000 
#    y 0.000000 1.742700 0.000000 
#    z 0.000000 0.000000 1.750740 
# 
# From -- ./inp_files/2861.got.cif
#   From: 2010.05.17/outbox.cif.g08.bks.cpg/sg176_2_cif.got.tgz:2861.got - 2010.06.03 11:36:45.
