data_PCOD9582271
_publ_section_title
;
Structure prediction by ZEFSAII (Michael W. Deem and Ramdas Pophale) SiO2 
 PCOD9582271
Probable space group: P 6 2 2
;
_chemical_formula_sum "Si O2"
_cell_formula_units_Z 66
_cell_length_a 21.245683
_cell_length_b 21.245683
_cell_length_c 7.762978
_cell_angle_alpha 90.000000
_cell_angle_beta 90.000000
_cell_angle_gamma 120.000000
_cell_volume 3034.592510
_symmetry_space_group_name_H-M "P 6 2 2"
_symmetry_group_IT_number 177
_symmetry_cell_setting 'hexagonal'
loop_
_space_group_symop_operation_xyz
x,y,z
x-y,x,z
-y,x-y,z
-x,-y,z
-x+y,-x,z
y,-x+y,z
x-y,-y,-z
-x,-x+y,-z
y,x,-z
-y,-x,-z
-x+y,y,-z
x,x-y,-z
loop_
_atom_site_type_symbol
_atom_site_label
_atom_site_fract_x
_atom_site_fract_y
_atom_site_fract_z
Si Si1 0.402489 0.804978 0.500000
Si Si2 0.206245 0.283221 0.405900
Si Si3 0.102505 0.941000 0.800473
Si Si4 0.917778 0.534187 0.996752
Si Si5 0.452644 0.301908 0.648080
Si Si6 0.232148 0.537774 0.183893
O O1 0.363765 0.852168 0.525720
O O2 0.364010 0.764089 0.317457
O O3 0.249908 0.249908 0.500000
O O4 0.131851 0.263702 0.500000
O O5 0.171519 0.242177 0.226378
O O6 0.255033 0.369881 0.406148
O O7 0.021945 0.889001 0.725468
O O8 0.077545 0.922456 0.000000
O O9 0.888506 0.544719 0.818736
O O10 0.922149 0.461075 0.000000
O O11 0.851997 0.514272 0.128999
O O12 0.000000 0.600431 0.000000
O O13 0.489033 0.254069 0.701144
O O14 0.279042 0.558083 0.000000
#
# Coordination Sequence:
#
# PCOD9582271 Si02
#       6
#     6  12  12  12  12  12
#     4  12  22  46  71 100 142 188 244 314 390 452
#     4  12  25  45  68 100 147 193 240 298 370 447
#     4  10  21  41  71 107 143 188 247 305 362 439
#     4  10  21  45  70  97 134 179 236 297 364 445
#     4  11  26  45  67 101 140 182 243 307 376 459
#     4  10  23  44  71 102 141 179 238 311 382 461
#
# _framework density 21.749213000000001
#
# number of rings (size 3 to 8) (size 9 to 14) (size 15 to 20)
#    0.000    1.273    3.636    1.818    0.000    5.818 
#    7.636    1.818    0.000    0.000    0.000    0.000 
#    0.000    0.000    0.000    0.000    0.000    0.000 
#
# Total GULP energy -367455.677296 kJ/mol
# GULP energy per Si atom -5567.510262 kJ/mol
# Density = 2.169971 g / cm^3
# Si number density = 21.749213 Si / 1000 Ang^3
#
#
#
# Elastic Constant Matrix: (Units=GPa)
#
#
# Indices 1 2 3 4 5 6 
#
# 1 137.0527 62.7379 38.3366 0.0000 0.0000 0.0000
# 2 62.7379 137.0527 38.3366 0.0000 0.0000 0.0000
# 3 38.3366 38.3366 99.8780 0.0000 0.0000 0.0000
# 4 0.0000 0.0000 0.0000 17.0811 0.0000 0.0000
# 5 0.0000 0.0000 0.0000 0.0000 17.0811 0.0000
# 6 0.0000 0.0000 0.0000 0.0000 0.0000 37.1574
#
#
#
# Elastic Compliance Matrix: (Units=1/GPa)
#
#
# Indices 1 2 3 4 5 6 
#
# 1 0.009663 -0.003793 -0.002253 0.000000 0.000000 0.000000
# 2 -0.003793 0.009663 -0.002253 0.000000 0.000000 0.000000
# 3 -0.002253 -0.002253 0.011742 0.000000 0.000000 0.000000
# 4 0.000000 0.000000 0.000000 0.058544 0.000000 0.000000
# 5 0.000000 0.000000 0.000000 0.000000 0.058544 0.000000
# 6 0.000000 0.000000 0.000000 0.000000 0.000000 0.026913
#
#
# Mechanical properties :
#
#
# Convention : Reuss Voigt Hill
#
# Bulk Modulus (GPa) = 69.11164 72.53398 70.82281
# Shear Modulus (GPa) = 25.44645 29.90206 27.67426
#
# Velocity S-wave (km/s) = 3.42423 3.71193 3.57098
# Velocity P-wave (km/s) = 6.89053 7.19679 7.04532
#
# Compressibility (1/GPa) = 0.01446934
#
# Stress axis : x y z
#
# Youngs Moduli (GPa) = 103.48666 103.48667 85.16559
#
# Poissons Ratio (x) = 0.39254 0.19188
# Poissons Ratio (y) = 0.39254 0.19188
# Poissons Ratio (z) = 0.23316 0.23316
#
# Static dielectric constant tensor:
#      x y z
#    x 1.851820 0.000000 0.000000 
#    y 0.000000 1.851820 0.000000 
#    z 0.000000 0.000000 1.937090 
# 
# From -- ./inp_files/1449.got.cif
#   From: 2010.05.17/outbox.cif.g08.bks.cpg/sg177_1_cif.got.tgz:1449.got - 2010.05.20 11:28:44.
