data_PCOD9582690
_publ_section_title
;
Structure prediction by ZEFSAII (Michael W. Deem and Ramdas Pophale) SiO2 
 PCOD9582690
Probable space group: P 61 2 2
;
_chemical_formula_sum "Si O2"
_cell_formula_units_Z 24
_cell_length_a 16.702130
_cell_length_b 16.702130
_cell_length_c 5.063456
_cell_angle_alpha 90.000000
_cell_angle_beta 90.000000
_cell_angle_gamma 120.000000
_cell_volume 1223.267370
_symmetry_space_group_name_H-M "P 61 2 2"
_symmetry_group_IT_number 178
_symmetry_cell_setting 'hexagonal'
loop_
_space_group_symop_operation_xyz
x,y,z
x-y,x,1/6+z
-y,x-y,1/3+z
-x,-y,1/2+z
-x+y,-x,2/3+z
y,-x+y,5/6+z
x-y,-y,-z
-x,-x+y,2/3-z
y,x,1/3-z
-y,-x,5/6-z
-x+y,y,1/2-z
x,x-y,1/6-z
loop_
_atom_site_type_symbol
_atom_site_label
_atom_site_fract_x
_atom_site_fract_y
_atom_site_fract_z
Si Si1 0.181435 0.181435 0.166667
Si Si2 0.241705 0.869972 0.174953
Si Si3 0.447429 0.447429 0.166667
O O1 0.265779 0.219514 0.376434
O O2 0.083827 0.167654 0.250000
O O3 0.200243 0.799758 0.416667
O O4 0.185498 0.814503 0.916667
O O5 0.349977 0.918891 0.113642
O O6 0.484110 0.515890 0.416667
#
# Coordination Sequence:
#
# PCOD9582690 Si02
#       3
#     6  12   6
#     4   9  20  32  50  81 118 160 200 233 268 324
#     4  10  21  38  58  83 120 160 194 238 300 356
#     4  11  22  38  64  93 116 150 206 257 298 360
#
# _framework density 19.619588
#
# number of rings (size 3 to 8) (size 9 to 14) (size 15 to 20)
#    0.000    2.000    0.000    3.000    0.000   18.000 
#    0.000    0.000    0.000   15.000    0.000    0.000 
#    0.000    0.000    0.000    0.000    0.000    0.000 
#
# Total GULP energy -133909.250348 kJ/mol
# GULP energy per Si atom -5579.552098 kJ/mol
# Density = 1.957493 g / cm^3
# Si number density = 19.619588 Si / 1000 Ang^3
#
#
#
# Elastic Constant Matrix: (Units=GPa)
#
#
# Indices 1 2 3 4 5 6 
#
# 1 113.2795 71.9865 57.9860 0.0000 0.0000 0.0000
# 2 71.9865 113.2795 57.9860 0.0000 0.0000 0.0000
# 3 57.9860 57.9860 149.2407 0.0000 0.0000 0.0000
# 4 0.0000 0.0000 0.0000 27.6913 0.0000 0.0000
# 5 0.0000 0.0000 0.0000 0.0000 27.6913 0.0000
# 6 0.0000 0.0000 0.0000 0.0000 0.0000 20.6465
#
#
#
# Elastic Compliance Matrix: (Units=1/GPa)
#
#
# Indices 1 2 3 4 5 6 
#
# 1 0.015675 -0.008542 -0.002771 0.000000 0.000000 0.000000
# 2 -0.008542 0.015675 -0.002771 0.000000 0.000000 0.000000
# 3 -0.002771 -0.002771 0.008854 0.000000 0.000000 0.000000
# 4 0.000000 0.000000 0.000000 0.036112 0.000000 0.000000
# 5 0.000000 0.000000 0.000000 0.000000 0.036112 0.000000
# 6 0.000000 0.000000 0.000000 0.000000 0.000000 0.048434
#
#
# Mechanical properties :
#
#
# Convention : Reuss Voigt Hill
#
# Bulk Modulus (GPa) = 83.09847 83.52409 83.31128
# Shear Modulus (GPa) = 25.90085 27.72855 26.81470
#
# Velocity S-wave (km/s) = 3.63733 3.76348 3.70094
# Velocity P-wave (km/s) = 7.75158 7.84533 7.79860
#
# Compressibility (1/GPa) = 0.01203392
#
# Stress axis : x y z
#
# Youngs Moduli (GPa) = 63.79679 63.79679 112.94284
#
# Poissons Ratio (x) = 0.54498 0.31299
# Poissons Ratio (y) = 0.54498 0.31299
# Poissons Ratio (z) = 0.17679 0.17679
#
# Static dielectric constant tensor:
#      x y z
#    x 1.718170 0.000000 0.000000 
#    y 0.000000 1.718170 0.000000 
#    z 0.000000 0.000000 1.720290 
# 
# From -- ./inp_files/158.got.cif
#   From: 2010.05.17/outbox.cif.g08.bks.cpg/sg178_1_cif.got.tgz:158.got - 2010.05.20 11:30:59.
