data_PCOD9582473
_publ_section_title
;
Structure prediction by ZEFSAII (Michael W. Deem and Ramdas Pophale) SiO2 
 PCOD9582473
Probable space group: P 61 2 2
;
_chemical_formula_sum "Si O2"
_cell_formula_units_Z 66
_cell_length_a 11.737964
_cell_length_b 11.737964
_cell_length_c 29.366707
_cell_angle_alpha 90.000000
_cell_angle_beta 90.000000
_cell_angle_gamma 120.000000
_cell_volume 3504.059147
_symmetry_space_group_name_H-M "P 61 2 2"
_symmetry_group_IT_number 178
_symmetry_cell_setting 'hexagonal'
loop_
_space_group_symop_operation_xyz
x,y,z
x-y,x,1/6+z
-y,x-y,1/3+z
-x,-y,1/2+z
-x+y,-x,2/3+z
y,-x+y,5/6+z
x-y,-y,-z
-x,-x+y,2/3-z
y,x,1/3-z
-y,-x,5/6-z
-x+y,y,1/2-z
x,x-y,1/6-z
loop_
_atom_site_type_symbol
_atom_site_label
_atom_site_fract_x
_atom_site_fract_y
_atom_site_fract_z
Si Si1 0.766800 0.459901 0.395797
Si Si2 0.937696 0.488734 0.160964
Si Si3 0.232809 0.913470 0.210191
Si Si4 0.219313 0.317446 0.457525
Si Si5 0.499652 0.499652 0.166667
Si Si6 0.820596 0.455640 0.915266
O O1 0.689086 0.310915 0.416667
O O2 0.655875 0.455021 0.361866
O O3 0.791353 0.569053 0.433630
O O4 0.900020 0.511678 0.367812
O O5 0.976170 0.383548 0.141535
O O6 0.916048 0.472974 0.214684
O O7 0.033294 0.635068 0.145143
O O8 0.138440 0.880560 0.166684
O O9 0.226721 0.001889 0.250798
O O10 0.197136 0.427883 0.434793
O O11 0.495589 0.389551 0.200508
O O12 0.682180 0.317821 0.916667
#
# Coordination Sequence:
#
# PCOD9582473 Si02
#       6
#    12  12  12  12   6  12
#     4   9  18  34  52  81 116 147 184 231 279 344
#     4   9  17  34  55  78 114 155 184 229 287 344
#     4   9  18  32  56  82 112 153 193 233 280 354
#     4  10  19  34  55  81 113 154 197 226 292 346
#     4  12  22  34  52  84 116 150 188 230 304 336
#     4  11  21  34  53  84 120 146 182 239 285 351
#
# _framework density 18.8353
#
# number of rings (size 3 to 8) (size 9 to 14) (size 15 to 20)
#    0.000    2.182    1.818    3.818    0.000    0.000 
#    6.545    0.000    0.000    0.000    0.000   15.273 
#    0.000    0.000    0.000    0.000    0.000    0.000 
#
# Total GULP energy -367451.385972 kJ/mol
# GULP energy per Si atom -5567.445242 kJ/mol
# Density = 1.879243 g / cm^3
# Si number density = 18.835300 Si / 1000 Ang^3
#
#
#
# Elastic Constant Matrix: (Units=GPa)
#
#
# Indices 1 2 3 4 5 6 
#
# 1 42.9457 34.1718 40.9751 0.0000 0.0000 0.0000
# 2 34.1718 42.9457 40.9751 0.0000 0.0000 0.0000
# 3 40.9751 40.9751 142.8008 0.0000 0.0000 0.0000
# 4 0.0000 0.0000 0.0000 20.4769 0.0000 0.0000
# 5 0.0000 0.0000 0.0000 0.0000 20.4769 0.0000
# 6 0.0000 0.0000 0.0000 0.0000 0.0000 4.3870
#
#
#
# Elastic Compliance Matrix: (Units=1/GPa)
#
#
# Indices 1 2 3 4 5 6 
#
# 1 0.066315 -0.047659 -0.005353 0.000000 0.000000 0.000000
# 2 -0.047659 0.066315 -0.005353 0.000000 0.000000 0.000000
# 3 -0.005353 -0.005353 0.010075 0.000000 0.000000 0.000000
# 4 0.000000 0.000000 0.000000 0.048836 0.000000 0.000000
# 5 0.000000 0.000000 0.000000 0.000000 0.048836 0.000000
# 6 0.000000 0.000000 0.000000 0.000000 0.000000 0.227948
#
#
# Mechanical properties :
#
#
# Convention : Reuss Voigt Hill
#
# Bulk Modulus (GPa) = 38.50004 51.21517 44.85760
# Shear Modulus (GPa) = 8.42160 16.57283 12.49721
#
# Velocity S-wave (km/s) = 2.11681 2.96950 2.57864
# Velocity P-wave (km/s) = 5.14386 6.24558 5.72130
#
# Compressibility (1/GPa) = 0.02597400
#
# Stress axis : x y z
#
# Youngs Moduli (GPa) = 15.07959 15.07959 99.25784
#
# Poissons Ratio (x) = 0.71868 0.53133
# Poissons Ratio (y) = 0.71868 0.53133
# Poissons Ratio (z) = 0.08072 0.08072
#
# Static dielectric constant tensor:
#      x y z
#    x 1.656710 0.000000 0.000000 
#    y 0.000000 1.656710 0.000000 
#    z 0.000000 0.000000 1.736290 
# 
# From -- ./inp_files/9560.got.cif
#   From: 2010.05.17/outbox.cif.g08.bks.cpg/sg178_5_cif.got.tgz:9560.got - 2010.05.20 11:30:59.
