data_PCOD9582729
_publ_section_title
;
Structure prediction by ZEFSAII (Michael W. Deem and Ramdas Pophale) SiO2 
 PCOD9582729
Probable space group: P 61 2 2
;
_chemical_formula_sum "Si O2"
_cell_formula_units_Z 30
_cell_length_a 7.638258
_cell_length_b 7.638258
_cell_length_c 28.144165
_cell_angle_alpha 90.000000
_cell_angle_beta 90.000000
_cell_angle_gamma 120.000000
_cell_volume 1422.026361
_symmetry_space_group_name_H-M "P 61 2 2"
_symmetry_group_IT_number 178
_symmetry_cell_setting 'hexagonal'
loop_
_space_group_symop_operation_xyz
x,y,z
x-y,x,1/6+z
-y,x-y,1/3+z
-x,-y,1/2+z
-x+y,-x,2/3+z
y,-x+y,5/6+z
x-y,-y,-z
-x,-x+y,2/3-z
y,x,1/3-z
-y,-x,5/6-z
-x+y,y,1/2-z
x,x-y,1/6-z
loop_
_atom_site_type_symbol
_atom_site_label
_atom_site_fract_x
_atom_site_fract_y
_atom_site_fract_z
Si Si1 0.781053 0.769515 0.513434
Si Si2 0.446759 0.723380 0.583334
Si Si3 0.875426 0.714255 0.411105
O O1 0.584504 0.690371 0.545212
O O2 0.774592 0.669116 0.463379
O O3 0.849911 0.000000 0.500000
O O4 0.962308 0.783869 0.545374
O O5 0.319189 0.505006 0.608142
O O6 0.113517 0.886484 0.416667
#
# Coordination Sequence:
#
# PCOD9582729 Si02
#       3
#    12   6  12
#     4  10  21  47  64  97 140 162 222 287 311 393
#     4  12  24  42  72  94 128 188 210 262 356 384
#     4  10  24  45  65  98 137 168 221 278 322 395
#
# _framework density 21.096654999999998
#
# number of rings (size 3 to 8) (size 9 to 14) (size 15 to 20)
#    0.000    1.600    6.000    0.000    5.600    4.800 
#    3.600    0.000    0.000    0.000    0.000    0.000 
#    0.000    0.000    0.000    0.000    0.000    0.000 
#
# Total GULP energy -167478.529618 kJ/mol
# GULP energy per Si atom -5582.617654 kJ/mol
# Density = 2.104864 g / cm^3
# Si number density = 21.096655 Si / 1000 Ang^3
#
#
#
# Elastic Constant Matrix: (Units=GPa)
#
#
# Indices 1 2 3 4 5 6 
#
# 1 42.8422 16.3188 -5.0521 0.0000 0.0000 0.0000
# 2 16.3188 42.8422 -5.0521 0.0000 0.0000 0.0000
# 3 -5.0521 -5.0521 66.5023 0.0000 0.0000 0.0000
# 4 0.0000 0.0000 0.0000 -4.3416 0.0000 0.0000
# 5 0.0000 0.0000 0.0000 0.0000 -4.3416 0.0000
# 6 0.0000 0.0000 0.0000 0.0000 0.0000 13.2617
#
#
#
# Elastic Compliance Matrix: (Units=1/GPa)
#
#
# Indices 1 2 3 4 5 6 
#
# 1 0.027414 -0.010289 0.001301 0.000000 0.000000 0.000000
# 2 -0.010289 0.027414 0.001301 0.000000 0.000000 0.000000
# 3 0.001301 0.001301 0.015235 0.000000 0.000000 0.000000
# 4 0.000000 0.000000 0.000000 -0.230332 0.000000 0.000000
# 5 0.000000 0.000000 0.000000 0.000000 -0.230332 0.000000
# 6 0.000000 0.000000 0.000000 0.000000 0.000000 0.075405
#
#
# Mechanical properties :
#
#
# Convention : Reuss Voigt Hill
#
# Bulk Modulus (GPa) = 18.28517 18.29065 18.28791
# Shear Modulus (GPa) = -17.75606 10.64718 -3.55444
#
# Velocity S-wave (km/s) = -2.90427 2.24896 -1.29942
# Velocity P-wave (km/s) = 1.60008 3.92842 2.53695
#
# Compressibility (1/GPa) = 0.05468913
#
# Stress axis : x y z
#
# Youngs Moduli (GPa) = 36.47782 36.47782 65.63945
#
# Poissons Ratio (x) = 0.37531 -0.08540
# Poissons Ratio (y) = 0.37531 -0.08540
# Poissons Ratio (z) = -0.04746 -0.04746
#
# Static dielectric constant tensor:
#      x y z
#    x 1.800080 0.000000 0.000000 
#    y 0.000000 1.800080 0.000000 
#    z 0.000000 0.000000 2.268670 
# 
# From -- ./inp_files/8421.got.cif
#   From: 2010.05.17/outbox.cif.g08.bks.cpg/sg178_5_cif.got.tgz:8421.got - 2010.05.20 11:30:59.
