data_PCOD9582899
_publ_section_title
;
Structure prediction by ZEFSAII (Michael W. Deem and Ramdas Pophale) SiO2 
 PCOD9582899
Probable space group: P 61 2 2
;
_chemical_formula_sum "Si O2"
_cell_formula_units_Z 60
_cell_length_a 13.949315
_cell_length_b 13.949315
_cell_length_c 15.190478
_cell_angle_alpha 90.000000
_cell_angle_beta 90.000000
_cell_angle_gamma 120.000000
_cell_volume 2559.810610
_symmetry_space_group_name_H-M "P 61 2 2"
_symmetry_group_IT_number 178
_symmetry_cell_setting 'hexagonal'
loop_
_space_group_symop_operation_xyz
x,y,z
x-y,x,1/6+z
-y,x-y,1/3+z
-x,-y,1/2+z
-x+y,-x,2/3+z
y,-x+y,5/6+z
x-y,-y,-z
-x,-x+y,2/3-z
y,x,1/3-z
-y,-x,5/6-z
-x+y,y,1/2-z
x,x-y,1/6-z
loop_
_atom_site_type_symbol
_atom_site_label
_atom_site_fract_x
_atom_site_fract_y
_atom_site_fract_z
Si Si1 0.933951 0.259447 0.968586
Si Si2 0.283733 0.583819 0.996673
Si Si3 0.712505 0.084775 0.662781
Si Si4 0.518204 0.474597 0.762291
Si Si5 0.916261 0.073595 0.651811
O O1 0.824881 0.175120 0.916667
O O2 0.987967 0.386140 0.939806
O O3 0.901554 0.256410 0.068879
O O4 0.020606 0.215042 0.967485
O O5 0.371946 0.628055 0.916667
O O6 0.172540 0.569817 0.951585
O O7 0.319752 0.659876 0.083334
O O8 0.262483 0.467171 0.033751
O O9 0.794899 0.048723 0.621000
O O10 0.582235 0.002179 0.656555
O O11 0.528977 0.528977 0.666667
O O12 0.988066 0.090352 0.563825
#
# Coordination Sequence:
#
# PCOD9582899 Si02
#       5
#    12  12  12  12  12
#     4  11  23  43  80 109 142 184 253 325 379 440
#     4  12  25  43  70 107 152 198 251 314 383 464
#     4  11  24  45  72 107 148 195 249 308 387 462
#     4  12  25  43  71 108 149 199 248 309 384 466
#     4  10  24  46  81 111 153 199 257 326 392 460
#
# _framework density 23.439236000000001
#
# number of rings (size 3 to 8) (size 9 to 14) (size 15 to 20)
#    0.000    0.800    2.000    5.400    5.600    1.600 
#    0.000    0.000   13.200    0.000    0.000    0.000 
#    0.000    0.000    0.000    0.000    0.000    0.000 
#
# Total GULP energy -335684.729420 kJ/mol
# GULP energy per Si atom -5594.745490 kJ/mol
# Density = 2.338589 g / cm^3
# Si number density = 23.439236 Si / 1000 Ang^3
#
#
#
# Elastic Constant Matrix: (Units=GPa)
#
#
# Indices 1 2 3 4 5 6 
#
# 1 108.8756 46.6376 23.8523 0.0000 0.0000 0.0000
# 2 46.6376 108.8756 23.8523 0.0000 0.0000 0.0000
# 3 23.8523 23.8523 75.0888 0.0000 0.0000 0.0000
# 4 0.0000 0.0000 0.0000 61.4427 0.0000 0.0000
# 5 0.0000 0.0000 0.0000 0.0000 61.4427 0.0000
# 6 0.0000 0.0000 0.0000 0.0000 0.0000 31.1190
#
#
#
# Elastic Compliance Matrix: (Units=1/GPa)
#
#
# Indices 1 2 3 4 5 6 
#
# 1 0.011596 -0.004471 -0.002263 0.000000 0.000000 0.000000
# 2 -0.004471 0.011596 -0.002263 0.000000 0.000000 0.000000
# 3 -0.002263 -0.002263 0.014755 0.000000 0.000000 0.000000
# 4 0.000000 0.000000 0.000000 0.016275 0.000000 0.000000
# 5 0.000000 0.000000 0.000000 0.000000 0.016275 0.000000
# 6 0.000000 0.000000 0.000000 0.000000 0.000000 0.032135
#
#
# Mechanical properties :
#
#
# Convention : Reuss Voigt Hill
#
# Bulk Modulus (GPa) = 50.12056 53.50268 51.81162
# Shear Modulus (GPa) = 39.28388 44.03405 41.65897
#
# Velocity S-wave (km/s) = 4.09832 4.33904 4.22040
# Velocity P-wave (km/s) = 6.62002 6.92666 6.77508
#
# Compressibility (1/GPa) = 0.01995189
#
# Stress axis : x y z
#
# Youngs Moduli (GPa) = 86.23695 86.23695 67.77204
#
# Poissons Ratio (x) = 0.38560 0.15338
# Poissons Ratio (y) = 0.38560 0.15338
# Poissons Ratio (z) = 0.19517 0.19517
#
# Static dielectric constant tensor:
#      x y z
#    x 1.912550 0.000000 0.000000 
#    y 0.000000 1.912550 0.000000 
#    z 0.000000 0.000000 2.129110 
# 
# From -- ./inp_files/5683.got.cif
#   From: 2010.05.17/outbox.cif.g08.bks.cpg/sg178_3_cif.got.tgz:5683.got - 2010.05.20 11:30:59.
