data_PCOD9582285
_publ_section_title
;
Structure prediction by ZEFSAII (Michael W. Deem and Ramdas Pophale) SiO2 
 PCOD9582285
Probable space group: P 6 2 2
;
_chemical_formula_sum "Si O2"
_cell_formula_units_Z 28
_cell_length_a 13.562169
_cell_length_b 13.562169
_cell_length_c 7.786441
_cell_angle_alpha 90.000000
_cell_angle_beta 90.000000
_cell_angle_gamma 120.000000
_cell_volume 1240.303395
_symmetry_space_group_name_H-M "P 6 2 2"
_symmetry_group_IT_number 177
_symmetry_cell_setting 'hexagonal'
loop_
_space_group_symop_operation_xyz
x,y,z
x-y,x,z
-y,x-y,z
-x,-y,z
-x+y,-x,z
y,-x+y,z
x-y,-y,-z
-x,-x+y,-z
y,x,-z
-y,-x,-z
-x+y,y,-z
x,x-y,-z
loop_
_atom_site_type_symbol
_atom_site_label
_atom_site_fract_x
_atom_site_fract_y
_atom_site_fract_z
Si Si1 0.333335 0.666667 0.799558
Si Si2 0.224541 0.984453 0.796547
Si Si3 0.095106 0.610058 0.322904
O O1 0.325868 0.776324 0.742763
O O2 0.333334 0.666667 0.000000
O O3 0.307405 0.957061 0.685214
O O4 0.100282 0.876657 0.763734
O O5 0.260054 0.000000 0.000000
O O6 0.106611 0.553306 0.500000
O O7 0.000000 0.500000 0.219848
#
# Coordination Sequence:
#
# PCOD9582285 Si02
#       3
#     4  12  12
#     4  12  28  41  70 105 145 188 259 318 367 440
#     4  10  22  41  73 109 148 187 240 308 381 453
#     4  11  25  44  68  99 146 197 244 298 374 449
#
# _framework density 22.575120999999999
#
# number of rings (size 3 to 8) (size 9 to 14) (size 15 to 20)
#    0.000    1.286    0.000    4.286   12.000    5.143 
#    0.000    0.000    0.000    0.000    0.000   12.000 
#    0.000    0.000    0.000    0.000    0.000    0.000 
#
# Total GULP energy -156164.185279 kJ/mol
# GULP energy per Si atom -5577.292331 kJ/mol
# Density = 2.252374 g / cm^3
# Si number density = 22.575121 Si / 1000 Ang^3
#
#
#
# Elastic Constant Matrix: (Units=GPa)
#
#
# Indices 1 2 3 4 5 6 
#
# 1 168.0368 86.7223 61.8467 -0.0001 -0.0005 -0.0020
# 2 86.7223 168.0350 61.8449 0.0002 0.0002 0.0008
# 3 61.8467 61.8449 98.0490 -0.0004 -0.0002 -0.0003
# 4 -0.0001 0.0002 -0.0004 9.1749 -0.0002 -0.0004
# 5 -0.0005 0.0002 -0.0002 -0.0002 9.1753 0.0001
# 6 -0.0020 0.0008 -0.0003 -0.0004 0.0001 40.6543
#
#
#
# Elastic Compliance Matrix: (Units=1/GPa)
#
#
# Indices 1 2 3 4 5 6 
#
# 1 0.008978 -0.003320 -0.003569 0.000000 0.000000 0.000000
# 2 -0.003320 0.008978 -0.003569 0.000000 0.000000 0.000000
# 3 -0.003569 -0.003569 0.014701 0.000001 0.000000 0.000000
# 4 0.000000 0.000000 0.000001 0.108993 0.000002 0.000001
# 5 0.000000 0.000000 0.000000 0.000002 0.108988 0.000000
# 6 0.000000 0.000000 0.000000 0.000001 0.000000 0.024598
#
#
# Mechanical properties :
#
#
# Convention : Reuss Voigt Hill
#
# Bulk Modulus (GPa) = 85.16601 94.99428 90.08014
# Shear Modulus (GPa) = 16.66298 26.71470 21.68884
#
# Velocity S-wave (km/s) = 2.71977 3.44375 3.10294
# Velocity P-wave (km/s) = 6.90437 7.61466 7.26820
#
# Compressibility (1/GPa) = 0.01174177
#
# Stress axis : x y z
#
# Youngs Moduli (GPa) = 111.38222 111.38262 68.02135
#
# Poissons Ratio (x) = 0.36979 0.24277
# Poissons Ratio (y) = 0.36979 0.24275
# Poissons Ratio (z) = 0.39753 0.39750
#
# Static dielectric constant tensor:
#      x y z
#    x 1.873840 0.000000 0.000000 
#    y 0.000000 1.873840 0.000000 
#    z 0.000000 0.000000 1.941830 
# 
# From -- ./inp_files/874.got.cif
#   From: 2010.05.17/outbox.cif.g08.bks.cpg/sg177_1_cif.got.tgz:874.got - 2010.05.20 11:28:44.
