data_PCOD9582359
_publ_section_title
;
Structure prediction by ZEFSAII (Michael W. Deem and Ramdas Pophale) SiO2 
 PCOD9582359
Probable space group: P 61 2 2
;
_chemical_formula_sum "Si O2"
_cell_formula_units_Z 66
_cell_length_a 15.966706
_cell_length_b 15.966706
_cell_length_c 14.978166
_cell_angle_alpha 90.000000
_cell_angle_beta 90.000000
_cell_angle_gamma 120.000000
_cell_volume 3306.891367
_symmetry_space_group_name_H-M "P 61 2 2"
_symmetry_group_IT_number 178
_symmetry_cell_setting 'hexagonal'
loop_
_space_group_symop_operation_xyz
x,y,z
x-y,x,1/6+z
-y,x-y,1/3+z
-x,-y,1/2+z
-x+y,-x,2/3+z
y,-x+y,5/6+z
x-y,-y,-z
-x,-x+y,2/3-z
y,x,1/3-z
-y,-x,5/6-z
-x+y,y,1/2-z
x,x-y,1/6-z
loop_
_atom_site_type_symbol
_atom_site_label
_atom_site_fract_x
_atom_site_fract_y
_atom_site_fract_z
Si Si1 0.113661 0.490698 0.360281
Si Si2 0.829139 0.170862 0.916667
Si Si3 0.196489 0.820681 0.721760
Si Si4 0.668769 0.526449 0.103673
Si Si5 0.529545 0.567392 0.995929
Si Si6 0.953074 0.698195 0.091744
O O1 0.164549 0.427409 0.372023
O O2 0.166123 0.585499 0.297837
O O3 0.000000 0.421489 0.333334
O O4 0.106720 0.536999 0.454533
O O5 0.849386 0.260991 0.851682
O O6 0.808348 0.083992 0.848628
O O7 0.267259 0.810312 0.650552
O O8 0.103173 0.800580 0.662899
O O9 0.248852 0.931838 0.752954
O O10 0.602735 0.570603 0.069995
O O11 0.508697 0.491304 0.916667
O O12 0.585687 0.669197 0.947692
#
# Coordination Sequence:
#
# PCOD9582359 Si02
#       6
#    12   6  12  12  12  12
#     4  10  19  35  61  86 112 161 202 241 299 362
#     4  10  18  34  58  92 116 152 196 264 312 364
#     4  10  21  36  59  91 120 156 208 250 305 373
#     4   9  20  32  58  84 115 152 200 247 296 362
#     4  10  17  31  56  81 117 152 196 234 301 367
#     4  10  20  33  58  90 119 154 200 255 304 364
#
# _framework density 19.958321000000002
#
# number of rings (size 3 to 8) (size 9 to 14) (size 15 to 20)
#    0.000    2.182    3.636    0.000    2.545    2.182 
#    0.000    0.909   16.000    0.000    9.455    0.000 
#    0.000    0.000    0.000    0.000    0.000    0.000 
#
# Total GULP energy -367411.459510 kJ/mol
# GULP energy per Si atom -5566.840296 kJ/mol
# Density = 1.991289 g / cm^3
# Si number density = 19.958321 Si / 1000 Ang^3
#
#
#
# Elastic Constant Matrix: (Units=GPa)
#
#
# Indices 1 2 3 4 5 6 
#
# 1 85.7065 31.4507 18.8563 0.0000 0.0000 0.0000
# 2 31.4507 85.7065 18.8563 0.0000 0.0000 0.0000
# 3 18.8563 18.8563 34.8588 0.0000 0.0000 0.0000
# 4 0.0000 0.0000 0.0000 27.2410 0.0000 0.0000
# 5 0.0000 0.0000 0.0000 0.0000 27.2410 0.0000
# 6 0.0000 0.0000 0.0000 0.0000 0.0000 27.1279
#
#
#
# Elastic Compliance Matrix: (Units=1/GPa)
#
#
# Indices 1 2 3 4 5 6 
#
# 1 0.014383 -0.004048 -0.005591 0.000000 0.000000 0.000000
# 2 -0.004048 0.014383 -0.005591 0.000000 0.000000 0.000000
# 3 -0.005591 -0.005591 0.034735 0.000000 0.000000 0.000000
# 4 0.000000 0.000000 0.000000 0.036709 0.000000 0.000000
# 5 0.000000 0.000000 0.000000 0.000000 0.036709 0.000000
# 6 0.000000 0.000000 0.000000 0.000000 0.000000 0.036862
#
#
# Mechanical properties :
#
#
# Convention : Reuss Voigt Hill
#
# Bulk Modulus (GPa) = 30.26336 38.28869 34.27602
# Shear Modulus (GPa) = 23.22816 25.46253 24.34534
#
# Velocity S-wave (km/s) = 3.41520 3.57569 3.49637
# Velocity P-wave (km/s) = 5.54506 6.02274 5.78883
#
# Compressibility (1/GPa) = 0.03304326
#
# Stress axis : x y z
#
# Youngs Moduli (GPa) = 69.52564 69.52564 28.78906
#
# Poissons Ratio (x) = 0.28144 0.16095
# Poissons Ratio (y) = 0.28144 0.16095
# Poissons Ratio (z) = 0.38869 0.38869
#
# Static dielectric constant tensor:
#      x y z
#    x 1.752750 0.000000 0.000000 
#    y 0.000000 1.752750 0.000000 
#    z 0.000000 0.000000 1.810260 
# 
# From -- ./inp_files/6690.got.cif
#   From: 2010.05.17/outbox.cif.g08.bks.cpg/sg178_4_cif.got.tgz:6690.got - 2010.05.20 11:30:59.
