data_PCOD9582263
_publ_section_title
;
Structure prediction by ZEFSAII (Michael W. Deem and Ramdas Pophale) SiO2 
 PCOD9582263
Probable space group: P 6 2 2
;
_chemical_formula_sum "Si O2"
_cell_formula_units_Z 46
_cell_length_a 13.808344
_cell_length_b 13.808344
_cell_length_c 12.737991
_cell_angle_alpha 90.000000
_cell_angle_beta 90.000000
_cell_angle_gamma 120.000000
_cell_volume 2103.365591
_symmetry_space_group_name_H-M "P 6 2 2"
_symmetry_group_IT_number 177
_symmetry_cell_setting 'hexagonal'
loop_
_space_group_symop_operation_xyz
x,y,z
x-y,x,z
-y,x-y,z
-x,-y,z
-x+y,-x,z
y,-x+y,z
x-y,-y,-z
-x,-x+y,-z
y,x,-z
-y,-x,-z
-x+y,y,-z
x,x-y,-z
loop_
_atom_site_type_symbol
_atom_site_label
_atom_site_fract_x
_atom_site_fract_y
_atom_site_fract_z
Si Si1 0.772522 0.772522 0.000000
Si Si2 0.666668 0.333334 0.377296
Si Si3 0.426247 0.148201 0.692692
Si Si4 0.715050 0.152234 0.895334
Si Si5 0.865597 0.134404 0.500000
Si Si6 0.500000 0.000000 0.209654
O O1 0.787165 0.893583 0.000000
O O2 0.715512 0.679329 0.088831
O O3 0.666668 0.333334 0.500000
O O4 0.771507 0.446404 0.340229
O O5 0.415157 0.201768 0.800184
O O6 0.346844 0.152651 0.602364
O O7 0.424168 0.032375 0.717874
O O8 0.586404 0.106530 0.861747
O O9 0.769753 0.230248 0.000000
O O10 0.000000 0.191532 0.500000
#
# Coordination Sequence:
#
# PCOD9582263 Si02
#       6
#     6   4  12  12   6   6
#     4  10  21  39  62  90 130 184 254 309 361 422
#     4  12  24  48  73 116 163 189 243 307 380 487
#     4  12  26  48  75 115 153 197 250 315 387 464
#     4  11  25  43  67 104 149 195 251 307 374 456
#     4  12  29  52  80 112 150 199 258 320 382 450
#     4  12  24  45  77 104 156 202 247 313 386 468
#
# _framework density 21.869713999999998
#
# number of rings (size 3 to 8) (size 9 to 14) (size 15 to 20)
#    0.000    0.522    3.913    4.957    0.000    4.696 
#    0.000    0.000    0.000    6.261    0.000    0.000 
#    0.000    0.000    0.000    0.000    0.000    0.000 
#
# Total GULP energy -256555.766480 kJ/mol
# GULP energy per Si atom -5577.299271 kJ/mol
# Density = 2.181994 g / cm^3
# Si number density = 21.869714 Si / 1000 Ang^3
#
#
#
# Elastic Constant Matrix: (Units=GPa)
#
#
# Indices 1 2 3 4 5 6 
#
# 1 109.2806 12.0035 46.7077 -0.0002 0.0002 0.0002
# 2 12.0035 109.2803 46.7075 -0.0001 0.0002 0.0004
# 3 46.7077 46.7075 164.7038 -0.0003 0.0001 0.0002
# 4 -0.0002 -0.0001 -0.0003 39.4968 0.0000 0.0000
# 5 0.0002 0.0002 0.0001 0.0000 39.4966 0.0000
# 6 0.0002 0.0004 0.0002 0.0000 0.0000 48.6384
#
#
#
# Elastic Compliance Matrix: (Units=1/GPa)
#
#
# Indices 1 2 3 4 5 6 
#
# 1 0.010415 0.000135 -0.002992 0.000000 0.000000 0.000000
# 2 0.000135 0.010415 -0.002992 0.000000 0.000000 0.000000
# 3 -0.002992 -0.002992 0.007768 0.000000 0.000000 0.000000
# 4 0.000000 0.000000 0.000000 0.025319 0.000000 0.000000
# 5 0.000000 0.000000 0.000000 0.000000 0.025319 0.000000
# 6 0.000000 0.000000 0.000000 0.000000 0.000000 0.020560
#
#
# Mechanical properties :
#
#
# Convention : Reuss Voigt Hill
#
# Bulk Modulus (GPa) = 59.17023 66.01134 62.59079
# Shear Modulus (GPa) = 42.68939 44.04944 43.36941
#
# Velocity S-wave (km/s) = 4.42292 4.49283 4.45801
# Velocity P-wave (km/s) = 7.29366 7.56065 7.42836
#
# Compressibility (1/GPa) = 0.01690039
#
# Stress axis : x y z
#
# Youngs Moduli (GPa) = 96.01888 96.01870 128.72878
#
# Poissons Ratio (x) = -0.01293 0.38511
# Poissons Ratio (y) = -0.01293 0.38511
# Poissons Ratio (z) = 0.28725 0.28725
#
# Static dielectric constant tensor:
#      x y z
#    x 1.934730 0.000000 0.000000 
#    y 0.000000 1.934730 0.000000 
#    z 0.000000 0.000000 1.887820 
# 
# From -- ./inp_files/1829.got.cif
#   From: 2010.05.17/outbox.cif.g08.bks.cpg/sg177_1_cif.got.tgz:1829.got - 2010.05.20 11:28:44.
