data_PCOD9582514
_publ_section_title
;
Structure prediction by ZEFSAII (Michael W. Deem and Ramdas Pophale) SiO2 
 PCOD9582514
Probable space group: P 61 2 2
;
_chemical_formula_sum "Si O2"
_cell_formula_units_Z 54
_cell_length_a 14.591867
_cell_length_b 14.591867
_cell_length_c 14.933915
_cell_angle_alpha 90.000000
_cell_angle_beta 90.000000
_cell_angle_gamma 120.000000
_cell_volume 2753.759649
_symmetry_space_group_name_H-M "P 61 2 2"
_symmetry_group_IT_number 178
_symmetry_cell_setting 'hexagonal'
loop_
_space_group_symop_operation_xyz
x,y,z
x-y,x,1/6+z
-y,x-y,1/3+z
-x,-y,1/2+z
-x+y,-x,2/3+z
y,-x+y,5/6+z
x-y,-y,-z
-x,-x+y,2/3-z
y,x,1/3-z
-y,-x,5/6-z
-x+y,y,1/2-z
x,x-y,1/6-z
loop_
_atom_site_type_symbol
_atom_site_label
_atom_site_fract_x
_atom_site_fract_y
_atom_site_fract_z
Si Si1 0.092963 0.576224 0.461549
Si Si2 0.683427 0.278942 0.161244
Si Si3 0.363696 0.014499 0.800483
Si Si4 0.671125 0.671125 0.166667
Si Si5 0.782633 0.643978 0.007094
O O1 0.209994 0.594289 0.472506
O O2 0.065236 0.623637 0.548024
O O3 0.013710 0.448060 0.462449
O O4 0.080390 0.640667 0.381269
O O5 0.615703 0.231405 0.250000
O O6 0.718035 0.196878 0.129648
O O7 0.635316 0.317658 0.083334
O O8 0.327800 0.096802 0.831825
O O9 0.265534 0.913285 0.755807
O O10 0.755988 0.701737 0.086817
#
# Coordination Sequence:
#
# PCOD9582514 Si02
#       5
#    12  12  12   6  12
#     4   9  17  31  45  68 102 134 174 213 252 307
#     4  11  20  32  50  74 106 143 183 215 254 313
#     4   9  18  33  48  67 101 135 171 218 269 312
#     4  10  20  28  52  72 100 138 172 216 262 320
#     4  10  20  32  49  71 100 141 171 223 269 316
#
# _framework density 19.609556000000001
#
# number of rings (size 3 to 8) (size 9 to 14) (size 15 to 20)
#    0.000    2.222    4.444    1.333    6.222    2.667 
#    0.000    0.000    0.000    0.000    0.000    0.000 
#    0.000   35.556    0.000    0.000    0.000    0.000 
#
# Total GULP energy -300817.844199 kJ/mol
# GULP energy per Si atom -5570.700819 kJ/mol
# Density = 1.956492 g / cm^3
# Si number density = 19.609556 Si / 1000 Ang^3
#
#
#
# Elastic Constant Matrix: (Units=GPa)
#
#
# Indices 1 2 3 4 5 6 
#
# 1 45.1961 13.1138 -0.8223 0.0000 0.0000 0.0000
# 2 13.1138 45.1961 -0.8223 0.0000 0.0000 0.0000
# 3 -0.8223 -0.8223 33.5865 0.0000 0.0000 0.0000
# 4 0.0000 0.0000 0.0000 17.9953 0.0000 0.0000
# 5 0.0000 0.0000 0.0000 0.0000 17.9953 0.0000
# 6 0.0000 0.0000 0.0000 0.0000 0.0000 16.0411
#
#
#
# Elastic Compliance Matrix: (Units=1/GPa)
#
#
# Indices 1 2 3 4 5 6 
#
# 1 0.024166 -0.007004 0.000420 0.000000 0.000000 0.000000
# 2 -0.007004 0.024166 0.000420 0.000000 0.000000 0.000000
# 3 0.000420 0.000420 0.029794 0.000000 0.000000 0.000000
# 4 0.000000 0.000000 0.000000 0.055570 0.000000 0.000000
# 5 0.000000 0.000000 0.000000 0.000000 0.055570 0.000000
# 6 0.000000 0.000000 0.000000 0.000000 0.000000 0.062340
#
#
# Mechanical properties :
#
#
# Convention : Reuss Voigt Hill
#
# Bulk Modulus (GPa) = 15.19797 16.32413 15.76105
# Shear Modulus (GPa) = 17.49072 17.90699 17.69886
#
# Velocity S-wave (km/s) = 2.98979 3.02516 3.00753
# Velocity P-wave (km/s) = 4.43684 4.53263 4.48499
#
# Compressibility (1/GPa) = 0.06579828
#
# Stress axis : x y z
#
# Youngs Moduli (GPa) = 41.38093 41.38093 33.56329
#
# Poissons Ratio (x) = 0.28984 -0.01410
# Poissons Ratio (y) = 0.28984 -0.01410
# Poissons Ratio (z) = -0.01739 -0.01739
#
# Static dielectric constant tensor:
#      x y z
#    x 1.740680 0.000000 0.000000 
#    y 0.000000 1.740680 0.000000 
#    z 0.000000 0.000000 1.774860 
# 
# From -- ./inp_files/6587.got.cif
#   From: 2010.05.17/outbox.cif.g08.bks.cpg/sg178_4_cif.got.tgz:6587.got - 2010.05.20 11:30:59.
