data_PCOD9582850
_publ_section_title
;
Structure prediction by ZEFSAII (Michael W. Deem and Ramdas Pophale) SiO2 
 PCOD9582850
Probable space group: P 61 2 2
;
_chemical_formula_sum "Si O2"
_cell_formula_units_Z 42
_cell_length_a 10.291309
_cell_length_b 10.291309
_cell_length_c 20.603713
_cell_angle_alpha 90.000000
_cell_angle_beta 90.000000
_cell_angle_gamma 120.000000
_cell_volume 1889.806593
_symmetry_space_group_name_H-M "P 61 2 2"
_symmetry_group_IT_number 178
_symmetry_cell_setting 'hexagonal'
loop_
_space_group_symop_operation_xyz
x,y,z
x-y,x,1/6+z
-y,x-y,1/3+z
-x,-y,1/2+z
-x+y,-x,2/3+z
y,-x+y,5/6+z
x-y,-y,-z
-x,-x+y,2/3-z
y,x,1/3-z
-y,-x,5/6-z
-x+y,y,1/2-z
x,x-y,1/6-z
loop_
_atom_site_type_symbol
_atom_site_label
_atom_site_fract_x
_atom_site_fract_y
_atom_site_fract_z
Si Si1 0.842993 0.281633 0.297146
Si Si2 0.255169 0.744832 0.416667
Si Si3 0.298141 0.064555 0.826679
Si Si4 0.103044 0.828194 0.514988
O O1 0.767224 0.383553 0.300184
O O2 0.761344 0.112751 0.324267
O O3 0.000000 0.365370 0.333334
O O4 0.865467 0.276110 0.219610
O O5 0.116929 0.721950 0.461812
O O6 0.342766 0.118048 0.752944
O O7 0.180766 0.122357 0.842942
O O8 0.226885 0.000000 0.500000
#
# Coordination Sequence:
#
# PCOD9582850 Si02
#       4
#    12   6  12  12
#     4  11  25  45  65 101 141 184 232 287 371 418
#     4  12  26  40  68 102 144 188 218 298 372 428
#     4  10  23  42  71  97 133 182 239 293 342 426
#     4  11  20  41  71 103 128 173 247 299 341 409
#
# _framework density 22.224498000000001
#
# number of rings (size 3 to 8) (size 9 to 14) (size 15 to 20)
#    0.000    1.143    2.857    2.571    0.000   10.286 
#    5.143    0.000    0.000    0.000    0.000    0.000 
#    0.000    0.000    0.000    0.000    0.000    0.000 
#
# Total GULP energy -234295.115505 kJ/mol
# GULP energy per Si atom -5578.455131 kJ/mol
# Density = 2.217391 g / cm^3
# Si number density = 22.224498 Si / 1000 Ang^3
#
#
#
# Elastic Constant Matrix: (Units=GPa)
#
#
# Indices 1 2 3 4 5 6 
#
# 1 44.0385 30.2544 -24.6648 0.0000 0.0000 0.0000
# 2 30.2544 44.0385 -24.6648 0.0000 0.0000 0.0000
# 3 -24.6648 -24.6648 66.6226 0.0000 0.0000 0.0000
# 4 0.0000 0.0000 0.0000 9.9819 0.0000 0.0000
# 5 0.0000 0.0000 0.0000 0.0000 9.9819 0.0000
# 6 0.0000 0.0000 0.0000 0.0000 0.0000 6.8921
#
#
#
# Elastic Compliance Matrix: (Units=1/GPa)
#
#
# Indices 1 2 3 4 5 6 
#
# 1 0.045197 -0.027350 0.006607 0.000000 0.000000 0.000000
# 2 -0.027350 0.045197 0.006607 0.000000 0.000000 0.000000
# 3 0.006607 0.006607 0.019902 0.000000 0.000000 0.000000
# 4 0.000000 0.000000 0.000000 0.100181 0.000000 0.000000
# 5 0.000000 0.000000 0.000000 0.000000 0.100181 0.000000
# 6 0.000000 0.000000 0.000000 0.000000 0.000000 0.145094
#
#
# Mechanical properties :
#
#
# Convention : Reuss Voigt Hill
#
# Bulk Modulus (GPa) = 12.19113 12.94994 12.57053
# Shear Modulus (GPa) = 9.77776 16.95619 13.36697
#
# Velocity S-wave (km/s) = 2.09978 2.76515 2.45511
# Velocity P-wave (km/s) = 3.37285 4.00428 3.70205
#
# Compressibility (1/GPa) = 0.08202688
#
# Stress axis : x y z
#
# Youngs Moduli (GPa) = 22.12526 22.12526 50.24555
#
# Poissons Ratio (x) = 0.60512 -0.33199
# Poissons Ratio (y) = 0.60512 -0.33199
# Poissons Ratio (z) = -0.14619 -0.14619
#
# Static dielectric constant tensor:
#      x y z
#    x 1.861970 0.000000 0.000000 
#    y 0.000000 1.861970 0.000000 
#    z 0.000000 0.000000 1.800420 
# 
# From -- ./inp_files/7166.got.cif
#   From: 2010.05.17/outbox.cif.g08.bks.cpg/sg178_4_cif.got.tgz:7166.got - 2010.05.20 11:30:59.
