data_PCOD9582173
_publ_section_title
;
Structure prediction by ZEFSAII (Michael W. Deem and Ramdas Pophale) SiO2 
 PCOD9582173
Probable space group: P 6 2 2
;
_chemical_formula_sum "Si O2"
_cell_formula_units_Z 84
_cell_length_a 18.147688
_cell_length_b 18.147688
_cell_length_c 13.349408
_cell_angle_alpha 90.000000
_cell_angle_beta 90.000000
_cell_angle_gamma 120.000000
_cell_volume 3807.459099
_symmetry_space_group_name_H-M "P 6 2 2"
_symmetry_group_IT_number 177
_symmetry_cell_setting 'hexagonal'
loop_
_space_group_symop_operation_xyz
x,y,z
x-y,x,z
-y,x-y,z
-x,-y,z
-x+y,-x,z
y,-x+y,z
x-y,-y,-z
-x,-x+y,-z
y,x,-z
-y,-x,-z
-x+y,y,-z
x,x-y,-z
loop_
_atom_site_type_symbol
_atom_site_label
_atom_site_fract_x
_atom_site_fract_y
_atom_site_fract_z
Si Si1 0.631180 0.099373 0.024516
Si Si2 0.135398 0.681649 0.744993
Si Si3 0.347159 0.308610 0.669348
Si Si4 0.193858 0.084658 0.138805
Si Si5 0.853375 0.235851 0.146250
Si Si6 0.051711 0.861455 0.378838
Si Si7 0.568200 0.100491 0.613551
O O1 0.647745 0.105569 0.142512
O O2 0.566004 0.132007 0.000000
O O3 0.710421 0.144828 0.949066
O O4 0.584928 0.000000 0.000000
O O5 0.208730 0.776112 0.775087
O O6 0.151026 0.611652 0.688501
O O7 0.062337 0.684718 0.676896
O O8 0.352440 0.289167 0.785990
O O9 0.282232 0.223074 0.610831
O O10 0.442610 0.346814 0.628964
O O11 0.152265 0.139760 0.104701
O O12 0.293522 0.138661 0.114750
O O13 0.188239 0.068048 0.258833
O O14 0.955760 0.833156 0.412487
O O15 0.562024 0.124047 0.500000
O O16 0.500000 0.000000 0.629458
#
# Coordination Sequence:
#
# PCOD9582173 Si02
#       7
#    12  12  12  12  12  12  12
#     4  11  23  37  59  88 121 163 213 264 331 402
#     4  11  21  36  59  89 123 163 207 274 339 392
#     4  10  18  33  57  85 123 165 216 269 331 401
#     4   9  17  29  49  78 125 180 233 279 327 388
#     4  11  20  34  56  91 128 167 218 275 333 404
#     4   9  16  27  47  83 128 175 215 261 319 391
#     4   9  20  38  63  90 121 157 208 280 353 412
#
# _framework density 22.061955999999999
#
# number of rings (size 3 to 8) (size 9 to 14) (size 15 to 20)
#    0.000    2.000    1.429    5.000    4.000    1.143 
#    0.000    0.714    0.000    9.714    0.000    0.000 
#    0.000    0.000    0.000   59.286    0.000    1.714 
#
# Total GULP energy -468476.037795 kJ/mol
# GULP energy per Si atom -5577.095688 kJ/mol
# Density = 2.201174 g / cm^3
# Si number density = 22.061956 Si / 1000 Ang^3
#
#
#
# Elastic Constant Matrix: (Units=GPa)
#
#
# Indices 1 2 3 4 5 6 
#
# 1 100.2947 95.6729 43.5771 0.0000 0.0000 0.0000
# 2 95.6729 100.2947 43.5771 0.0000 0.0000 0.0000
# 3 43.5771 43.5771 88.3823 0.0000 0.0000 0.0000
# 4 0.0000 0.0000 0.0000 18.9162 0.0000 0.0000
# 5 0.0000 0.0000 0.0000 0.0000 18.9162 0.0000
# 6 0.0000 0.0000 0.0000 0.0000 0.0000 2.3109
#
#
#
# Elastic Compliance Matrix: (Units=1/GPa)
#
#
# Indices 1 2 3 4 5 6 
#
# 1 0.111449 -0.104913 -0.003223 0.000000 0.000000 0.000000
# 2 -0.104913 0.111449 -0.003223 0.000000 0.000000 0.000000
# 3 -0.003223 -0.003223 0.014492 0.000000 0.000000 0.000000
# 4 0.000000 0.000000 0.000000 0.052865 0.000000 0.000000
# 5 0.000000 0.000000 0.000000 0.000000 0.052865 0.000000
# 6 0.000000 0.000000 0.000000 0.000000 0.000000 0.432724
#
#
# Mechanical properties :
#
#
# Convention : Reuss Voigt Hill
#
# Bulk Modulus (GPa) = 68.14777 72.73621 70.44199
# Shear Modulus (GPa) = 4.98280 15.10497 10.04389
#
# Velocity S-wave (km/s) = 1.50448 2.61944 2.13599
# Velocity P-wave (km/s) = 5.82874 6.49533 6.17104
#
# Compressibility (1/GPa) = 0.01467399
#
# Stress axis : x y z
#
# Youngs Moduli (GPa) = 8.97270 8.97270 69.00189
#
# Poissons Ratio (x) = 0.94135 0.22237
# Poissons Ratio (y) = 0.94135 0.22237
# Poissons Ratio (z) = 0.02892 0.02892
#
# Static dielectric constant tensor:
#      x y z
#    x 1.845020 0.000000 0.000000 
#    y 0.000000 1.845020 0.000000 
#    z 0.000000 0.000000 1.873730 
# 
# From -- ./inp_files/2617.got.cif
#   From: 2010.05.17/outbox.cif.g08.bks.cpg/sg177_2_cif.got.tgz:2617.got - 2010.05.20 11:28:44.
