data_PCOD9582849
_publ_section_title
;
Structure prediction by ZEFSAII (Michael W. Deem and Ramdas Pophale) SiO2 
 PCOD9582849
Probable space group: P 61 2 2
;
_chemical_formula_sum "Si O2"
_cell_formula_units_Z 36
_cell_length_a 7.583312
_cell_length_b 7.583312
_cell_length_c 28.775108
_cell_angle_alpha 90.000000
_cell_angle_beta 90.000000
_cell_angle_gamma 120.000000
_cell_volume 1433.063528
_symmetry_space_group_name_H-M "P 61 2 2"
_symmetry_group_IT_number 178
_symmetry_cell_setting 'hexagonal'
loop_
_space_group_symop_operation_xyz
x,y,z
x-y,x,1/6+z
-y,x-y,1/3+z
-x,-y,1/2+z
-x+y,-x,2/3+z
y,-x+y,5/6+z
x-y,-y,-z
-x,-x+y,2/3-z
y,x,1/3-z
-y,-x,5/6-z
-x+y,y,1/2-z
x,x-y,1/6-z
loop_
_atom_site_type_symbol
_atom_site_label
_atom_site_fract_x
_atom_site_fract_y
_atom_site_fract_z
Si Si1 0.346505 0.696707 0.968812
Si Si2 0.943579 0.119934 0.785300
Si Si3 0.689884 0.623009 0.880159
O O1 0.283593 0.716407 0.916667
O O2 0.590662 0.828570 0.969007
O O3 0.301129 0.462815 0.973392
O O4 0.231545 0.752534 0.006933
O O5 0.000000 0.053685 0.833334
O O6 0.128528 0.257056 0.750000
O O7 0.796004 0.951325 0.748209
O O8 0.553638 0.446363 0.916667
#
# Coordination Sequence:
#
# PCOD9582849 Si02
#       3
#    12  12  12
#     4   9  21  41  74 104 144 195 249 309 384 446
#     4  10  23  42  71 106 150 206 241 304 378 446
#     4   9  21  41  73 106 145 195 253 313 377 455
#
# _framework density 25.121006000000001
#
# number of rings (size 3 to 8) (size 9 to 14) (size 15 to 20)
#    0.000    3.333    0.000    0.000   18.667    1.333 
#    0.000    3.333    0.000    0.000    0.000    0.000 
#    0.000    0.000    0.000    0.000    0.000    0.000 
#
# Total GULP energy -201038.960684 kJ/mol
# GULP energy per Si atom -5584.415575 kJ/mol
# Density = 2.506383 g / cm^3
# Si number density = 25.121006 Si / 1000 Ang^3
#
#
#
# Elastic Constant Matrix: (Units=GPa)
#
#
# Indices 1 2 3 4 5 6 
#
# 1 92.9890 31.4509 62.3460 0.0000 0.0000 0.0000
# 2 31.4509 92.9890 62.3460 0.0000 0.0000 0.0000
# 3 62.3460 62.3460 220.4061 0.0000 0.0000 0.0000
# 4 0.0000 0.0000 0.0000 42.1776 0.0000 0.0000
# 5 0.0000 0.0000 0.0000 0.0000 42.1776 0.0000
# 6 0.0000 0.0000 0.0000 0.0000 0.0000 30.7690
#
#
#
# Elastic Compliance Matrix: (Units=1/GPa)
#
#
# Indices 1 2 3 4 5 6 
#
# 1 0.013732 -0.002518 -0.003172 0.000000 0.000000 0.000000
# 2 -0.002518 0.013732 -0.003172 0.000000 0.000000 0.000000
# 3 -0.003172 -0.003172 0.006332 0.000000 0.000000 0.000000
# 4 0.000000 0.000000 0.000000 0.023709 0.000000 0.000000
# 5 0.000000 0.000000 0.000000 0.000000 0.023709 0.000000
# 6 0.000000 0.000000 0.000000 0.000000 0.000000 0.032500
#
#
# Mechanical properties :
#
#
# Convention : Reuss Voigt Hill
#
# Bulk Modulus (GPa) = 62.21982 79.85222 71.03602
# Shear Modulus (GPa) = 36.55042 39.70757 38.12900
#
# Velocity S-wave (km/s) = 3.81855 3.98005 3.90014
# Velocity P-wave (km/s) = 6.65309 7.27854 6.97283
#
# Compressibility (1/GPa) = 0.01607205
#
# Stress axis : x y z
#
# Youngs Moduli (GPa) = 72.82036 72.82036 157.93374
#
# Poissons Ratio (x) = 0.18334 0.50101
# Poissons Ratio (y) = 0.18334 0.50101
# Poissons Ratio (z) = 0.23101 0.23101
#
# Static dielectric constant tensor:
#      x y z
#    x 2.154240 0.000000 0.000000 
#    y 0.000000 2.154240 0.000000 
#    z 0.000000 0.000000 2.120480 
# 
# From -- ./inp_files/8506.got.cif
#   From: 2010.05.17/outbox.cif.g08.bks.cpg/sg178_5_cif.got.tgz:8506.got - 2010.05.20 11:30:59.
