data_PCOD9582406
_publ_section_title
;
Structure prediction by ZEFSAII (Michael W. Deem and Ramdas Pophale) SiO2 
 PCOD9582406
Probable space group: P 61 2 2
;
_chemical_formula_sum "Si O2"
_cell_formula_units_Z 36
_cell_length_a 7.617115
_cell_length_b 7.617115
_cell_length_c 28.945716
_cell_angle_alpha 90.000000
_cell_angle_beta 90.000000
_cell_angle_gamma 120.000000
_cell_volume 1454.440480
_symmetry_space_group_name_H-M "P 61 2 2"
_symmetry_group_IT_number 178
_symmetry_cell_setting 'hexagonal'
loop_
_space_group_symop_operation_xyz
x,y,z
x-y,x,1/6+z
-y,x-y,1/3+z
-x,-y,1/2+z
-x+y,-x,2/3+z
y,-x+y,5/6+z
x-y,-y,-z
-x,-x+y,2/3-z
y,x,1/3-z
-y,-x,5/6-z
-x+y,y,1/2-z
x,x-y,1/6-z
loop_
_atom_site_type_symbol
_atom_site_label
_atom_site_fract_x
_atom_site_fract_y
_atom_site_fract_z
Si Si1 0.225576 0.480126 0.384481
Si Si2 0.302318 0.124204 0.633330
Si Si3 0.481961 0.118597 0.121226
O O1 0.425015 0.574986 0.416667
O O2 0.194995 0.670200 0.369133
O O3 0.240601 0.394811 0.335233
O O4 0.047436 0.358312 0.420883
O O5 0.162094 0.162094 0.666667
O O6 0.208876 0.104438 0.583334
O O7 0.360970 0.951050 0.638845
O O8 0.593414 0.296707 0.083334
#
# Coordination Sequence:
#
# PCOD9582406 Si02
#       3
#    12  12  12
#     4   9  19  35  57  95 134 179 236 292 350 421
#     4   9  18  34  59  94 133 174 228 290 352 416
#     4  10  18  33  62  95 135 179 235 296 357 427
#
# _framework density 24.751785999999999
#
# number of rings (size 3 to 8) (size 9 to 14) (size 15 to 20)
#    0.000    3.333    0.000    5.000    0.000    0.000 
#    0.000   20.000    0.000   24.000    0.000   21.000 
#    0.000    0.000    0.000    0.000    0.000    0.000 
#
# Total GULP energy -200840.271870 kJ/mol
# GULP energy per Si atom -5578.896441 kJ/mol
# Density = 2.469545 g / cm^3
# Si number density = 24.751786 Si / 1000 Ang^3
#
#
#
# Elastic Constant Matrix: (Units=GPa)
#
#
# Indices 1 2 3 4 5 6 
#
# 1 52.6420 52.0607 62.6593 0.0000 0.0000 0.0000
# 2 52.0607 52.6420 62.6593 0.0000 0.0000 0.0000
# 3 62.6593 62.6593 263.7759 0.0000 0.0000 0.0000
# 4 0.0000 0.0000 0.0000 22.3474 0.0000 0.0000
# 5 0.0000 0.0000 0.0000 0.0000 22.3474 0.0000
# 6 0.0000 0.0000 0.0000 0.0000 0.0000 0.2907
#
#
#
# Elastic Compliance Matrix: (Units=1/GPa)
#
#
# Indices 1 2 3 4 5 6 
#
# 1 0.866757 -0.853412 -0.003170 0.000000 0.000000 0.000000
# 2 -0.853412 0.866757 -0.003170 0.000000 0.000000 0.000000
# 3 -0.003170 -0.003170 0.005297 0.000000 0.000000 0.000000
# 4 0.000000 0.000000 0.000000 0.044748 0.000000 0.000000
# 5 0.000000 0.000000 0.000000 0.000000 0.044748 0.000000
# 6 0.000000 0.000000 0.000000 0.000000 0.000000 3.440340
#
#
# Mechanical properties :
#
#
# Convention : Reuss Voigt Hill
#
# Bulk Modulus (GPa) = 51.79448 80.42430 66.10939
# Shear Modulus (GPa) = 0.71484 21.77580 11.24532
#
# Velocity S-wave (km/s) = 0.53799 2.96930 2.13380
# Velocity P-wave (km/s) = 4.62135 6.65722 5.73042
#
# Compressibility (1/GPa) = 0.01930707
#
# Stress axis : x y z
#
# Youngs Moduli (GPa) = 1.15373 1.15373 188.77891
#
# Poissons Ratio (x) = 0.98460 0.59845
# Poissons Ratio (y) = 0.98460 0.59845
# Poissons Ratio (z) = 0.00366 0.00366
#
# Static dielectric constant tensor:
#      x y z
#    x 2.072520 0.000000 0.000000 
#    y 0.000000 2.072520 0.000000 
#    z 0.000000 0.000000 1.855370 
# 
# From -- ./inp_files/9102.got.cif
#   From: 2010.05.17/outbox.cif.g08.bks.cpg/sg178_5_cif.got.tgz:9102.got - 2010.05.20 11:30:59.
