data_PCOD9582925
_publ_section_title
;
Structure prediction by ZEFSAII (Michael W. Deem and Ramdas Pophale) SiO2 
 PCOD9582925
Probable space group: P 61 2 2
;
_chemical_formula_sum "Si O2"
_cell_formula_units_Z 60
_cell_length_a 13.837041
_cell_length_b 13.837041
_cell_length_c 13.984793
_cell_angle_alpha 90.000000
_cell_angle_beta 90.000000
_cell_angle_gamma 120.000000
_cell_volume 2318.852528
_symmetry_space_group_name_H-M "P 61 2 2"
_symmetry_group_IT_number 178
_symmetry_cell_setting 'hexagonal'
loop_
_space_group_symop_operation_xyz
x,y,z
x-y,x,1/6+z
-y,x-y,1/3+z
-x,-y,1/2+z
-x+y,-x,2/3+z
y,-x+y,5/6+z
x-y,-y,-z
-x,-x+y,2/3-z
y,x,1/3-z
-y,-x,5/6-z
-x+y,y,1/2-z
x,x-y,1/6-z
loop_
_atom_site_type_symbol
_atom_site_label
_atom_site_fract_x
_atom_site_fract_y
_atom_site_fract_z
Si Si1 0.405115 0.274078 0.780461
Si Si2 0.866721 0.366007 0.216084
Si Si3 0.756741 0.243260 0.916667
Si Si4 0.315247 0.883719 0.901473
Si Si5 0.440047 0.880093 0.750000
Si Si6 0.876032 0.851886 0.016266
O O1 0.464479 0.211692 0.827697
O O2 0.419845 0.265759 0.667550
O O3 0.461671 0.393167 0.835587
O O4 0.277720 0.205825 0.810231
O O5 0.810313 0.443184 0.202490
O O6 0.878474 0.362556 0.330321
O O7 0.992542 0.385401 0.191544
O O8 0.180990 0.819011 0.916667
O O9 0.338798 0.813059 0.823239
O O10 0.989245 0.883147 0.074668
O O11 0.829540 0.914770 0.083334
#
# Coordination Sequence:
#
# PCOD9582925 Si02
#       6
#    12  12   6  12   6  12
#     4  12  27  46  87 116 171 221 283 357 438 527
#     4  11  26  47  76 117 162 218 273 346 423 516
#     4  12  27  48  76 132 170 224 278 353 446 532
#     4  11  25  47  70 108 161 214 275 333 411 508
#     4  12  25  48  76 114 166 218 270 349 418 518
#     4  10  26  54  85 120 161 217 291 372 438 521
#
# _framework density 25.874867999999999
#
# number of rings (size 3 to 8) (size 9 to 14) (size 15 to 20)
#    0.000    0.800    4.000    1.200    9.800    0.000 
#    0.000   11.000    0.000    0.000    0.000    0.000 
#    0.000    0.000    0.000    0.000    0.000    0.000 
#
# Total GULP energy -334355.421313 kJ/mol
# GULP energy per Si atom -5572.590355 kJ/mol
# Density = 2.581598 g / cm^3
# Si number density = 25.874868 Si / 1000 Ang^3
#
#
#
# Elastic Constant Matrix: (Units=GPa)
#
#
# Indices 1 2 3 4 5 6 
#
# 1 121.6890 44.3099 22.6275 0.0000 0.0000 0.0000
# 2 44.3099 121.6890 22.6275 0.0000 0.0000 0.0000
# 3 22.6275 22.6275 142.5194 0.0000 0.0000 0.0000
# 4 0.0000 0.0000 0.0000 32.3662 0.0000 0.0000
# 5 0.0000 0.0000 0.0000 0.0000 32.3662 0.0000
# 6 0.0000 0.0000 0.0000 0.0000 0.0000 38.6895
#
#
#
# Elastic Compliance Matrix: (Units=1/GPa)
#
#
# Indices 1 2 3 4 5 6 
#
# 1 0.009610 -0.003313 -0.001000 0.000000 0.000000 0.000000
# 2 -0.003313 0.009610 -0.001000 0.000000 0.000000 0.000000
# 3 -0.001000 -0.001000 0.007334 0.000000 0.000000 0.000000
# 4 0.000000 0.000000 0.000000 0.030896 0.000000 0.000000
# 5 0.000000 0.000000 0.000000 0.000000 0.030896 0.000000
# 6 0.000000 0.000000 0.000000 0.000000 0.000000 0.025847
#
#
# Mechanical properties :
#
#
# Convention : Reuss Voigt Hill
#
# Bulk Modulus (GPa) = 62.78037 62.78081 62.78059
# Shear Modulus (GPa) = 38.42347 40.43988 39.43168
#
# Velocity S-wave (km/s) = 3.85772 3.95764 3.90800
# Velocity P-wave (km/s) = 6.64518 6.72308 6.68424
#
# Compressibility (1/GPa) = 0.01592855
#
# Stress axis : x y z
#
# Youngs Moduli (GPa) = 104.05782 104.05782 136.35061
#
# Poissons Ratio (x) = 0.34478 0.13631
# Poissons Ratio (y) = 0.34478 0.13631
# Poissons Ratio (z) = 0.10403 0.10403
#
# Static dielectric constant tensor:
#      x y z
#    x 2.292930 0.000000 0.000000 
#    y 0.000000 2.292930 0.000000 
#    z 0.000000 0.000000 3.049010 
# 
# From -- ./inp_files/5716.got.cif
#   From: 2010.05.17/outbox.cif.g08.bks.cpg/sg178_3_cif.got.tgz:5716.got - 2010.05.20 11:30:59.
