data_PCOD9582791
_publ_section_title
;
Structure prediction by ZEFSAII (Michael W. Deem and Ramdas Pophale) SiO2 
 PCOD9582791
Probable space group: P 61 2 2
;
_chemical_formula_sum "Si O2"
_cell_formula_units_Z 60
_cell_length_a 15.817702
_cell_length_b 15.817702
_cell_length_c 12.207261
_cell_angle_alpha 90.000000
_cell_angle_beta 90.000000
_cell_angle_gamma 120.000000
_cell_volume 2645.060686
_symmetry_space_group_name_H-M "P 61 2 2"
_symmetry_group_IT_number 178
_symmetry_cell_setting 'hexagonal'
loop_
_space_group_symop_operation_xyz
x,y,z
x-y,x,1/6+z
-y,x-y,1/3+z
-x,-y,1/2+z
-x+y,-x,2/3+z
y,-x+y,5/6+z
x-y,-y,-z
-x,-x+y,2/3-z
y,x,1/3-z
-y,-x,5/6-z
-x+y,y,1/2-z
x,x-y,1/6-z
loop_
_atom_site_type_symbol
_atom_site_label
_atom_site_fract_x
_atom_site_fract_y
_atom_site_fract_z
Si Si1 0.439224 0.299866 0.509939
Si Si2 0.091666 0.167736 0.068038
Si Si3 0.543568 0.612493 0.349775
Si Si4 0.117977 0.580847 0.821862
Si Si5 0.599350 0.784131 0.764844
O O1 0.409509 0.204755 0.583334
O O2 0.375901 0.354671 0.525240
O O3 0.543836 0.386310 0.554420
O O4 0.429358 0.266194 0.385044
O O5 0.143162 0.143162 0.166667
O O6 0.980819 0.113037 0.117714
O O7 0.148286 0.284341 0.068969
O O8 0.487714 0.512287 0.416667
O O9 0.467132 0.606538 0.259303
O O10 0.563217 0.702766 0.422723
O O11 0.149976 0.692917 0.815180
O O12 0.000000 0.522941 0.833334
#
# Coordination Sequence:
#
# PCOD9582791 Si02
#       5
#    12  12  12  12  12
#     4  11  22  42  68  93 138 186 234 294 350 410
#     4  10  23  44  75 103 140 179 234 300 368 434
#     4  11  25  43  64 102 144 184 236 291 351 424
#     4  10  22  42  65  97 139 188 231 293 352 413
#     4  12  23  41  72 104 136 188 241 285 357 432
#
# _framework density 22.683792
#
# number of rings (size 3 to 8) (size 9 to 14) (size 15 to 20)
#    0.000    1.200    2.000    4.800    0.000    4.800 
#    3.600    0.000   44.000    0.000    0.000    0.000 
#    0.000    0.000    0.000    0.000    0.000    0.000 
#
# Total GULP energy -334543.443129 kJ/mol
# GULP energy per Si atom -5575.724052 kJ/mol
# Density = 2.263216 g / cm^3
# Si number density = 22.683792 Si / 1000 Ang^3
#
#
#
# Elastic Constant Matrix: (Units=GPa)
#
#
# Indices 1 2 3 4 5 6 
#
# 1 69.1926 79.0824 27.2911 0.0000 0.0000 0.0000
# 2 79.0824 69.1926 27.2911 0.0000 0.0000 0.0000
# 3 27.2911 27.2911 88.8701 0.0000 0.0000 0.0000
# 4 0.0000 0.0000 0.0000 23.8631 0.0000 0.0000
# 5 0.0000 0.0000 0.0000 0.0000 23.8631 0.0000
# 6 0.0000 0.0000 0.0000 0.0000 0.0000 -4.9449
#
#
#
# Elastic Compliance Matrix: (Units=1/GPa)
#
#
# Indices 1 2 3 4 5 6 
#
# 1 -0.046755 0.054359 -0.002335 0.000000 0.000000 0.000000
# 2 0.054359 -0.046755 -0.002335 0.000000 0.000000 0.000000
# 3 -0.002335 -0.002335 0.012687 0.000000 0.000000 0.000000
# 4 0.000000 0.000000 0.000000 0.041906 0.000000 0.000000
# 5 0.000000 0.000000 0.000000 0.000000 0.041906 0.000000
# 6 0.000000 0.000000 0.000000 0.000000 0.000000 -0.202228
#
#
# Mechanical properties :
#
#
# Convention : Reuss Voigt Hill
#
# Bulk Modulus (GPa) = 53.89698 54.95382 54.42540
# Shear Modulus (GPa) = -17.09790 14.79564 -1.15113
#
# Velocity S-wave (km/s) = -2.74843 2.55670 -0.71314
# Velocity P-wave (km/s) = 3.70674 5.74406 4.83395
#
# Compressibility (1/GPa) = 0.01855392
#
# Stress axis : x y z
#
# Youngs Moduli (GPa) = -21.38802 -21.38802 78.82387
#
# Poissons Ratio (x) = 1.16263 0.18406
# Poissons Ratio (y) = 1.16263 0.18406
# Poissons Ratio (z) = -0.04994 -0.04994
#
# Static dielectric constant tensor:
#      x y z
#    x 1.857400 0.000000 0.000000 
#    y 0.000000 1.857400 0.000000 
#    z 0.000000 0.000000 1.970810 
# 
# From -- ./inp_files/5693.got.cif
#   From: 2010.05.17/outbox.cif.g08.bks.cpg/sg178_3_cif.got.tgz:5693.got - 2010.05.20 11:30:59.
