data_PCOD9582918
_publ_section_title
;
Structure prediction by ZEFSAII (Michael W. Deem and Ramdas Pophale) SiO2 
 PCOD9582918
Probable space group: P 61 2 2
;
_chemical_formula_sum "Si O2"
_cell_formula_units_Z 42
_cell_length_a 13.180623
_cell_length_b 13.180623
_cell_length_c 12.157669
_cell_angle_alpha 90.000000
_cell_angle_beta 90.000000
_cell_angle_gamma 120.000000
_cell_volume 1829.164750
_symmetry_space_group_name_H-M "P 61 2 2"
_symmetry_group_IT_number 178
_symmetry_cell_setting 'hexagonal'
loop_
_space_group_symop_operation_xyz
x,y,z
x-y,x,1/6+z
-y,x-y,1/3+z
-x,-y,1/2+z
-x+y,-x,2/3+z
y,-x+y,5/6+z
x-y,-y,-z
-x,-x+y,2/3-z
y,x,1/3-z
-y,-x,5/6-z
-x+y,y,1/2-z
x,x-y,1/6-z
loop_
_atom_site_type_symbol
_atom_site_label
_atom_site_fract_x
_atom_site_fract_y
_atom_site_fract_z
Si Si1 0.809073 0.828175 0.485862
Si Si2 0.793498 0.357232 0.207778
Si Si3 0.663160 0.085976 0.222664
Si Si4 0.561372 0.000000 0.000000
O O1 0.922233 0.829840 0.541990
O O2 0.772822 0.886411 0.583334
O O3 0.693502 0.703933 0.460596
O O4 0.681913 0.363825 0.250000
O O5 0.757951 0.223018 0.224169
O O6 0.898561 0.440587 0.286104
O O7 0.814769 0.407385 0.083334
O O8 0.537983 0.075965 0.250000
O O9 0.652426 0.045268 0.098091
#
# Coordination Sequence:
#
# PCOD9582918 Si02
#       4
#    12  12  12   6
#     4  10  25  49  78 108 143 197 260 320 381 454
#     4  11  24  46  67 102 151 194 245 304 378 458
#     4  11  27  42  72 110 148 198 245 312 384 466
#     4  12  26  42  72 102 146 202 236 302 378 458
#
# _framework density 22.961297999999999
#
# number of rings (size 3 to 8) (size 9 to 14) (size 15 to 20)
#    0.000    1.143    2.857    0.857   12.000    0.000 
#    0.000    8.571    0.000    0.000    0.000    0.000 
#    0.000    0.000    0.000    0.000    0.000    0.000 
#
# Total GULP energy -234869.560235 kJ/mol
# GULP energy per Si atom -5592.132387 kJ/mol
# Density = 2.290904 g / cm^3
# Si number density = 22.961298 Si / 1000 Ang^3
#
#
#
# Elastic Constant Matrix: (Units=GPa)
#
#
# Indices 1 2 3 4 5 6 
#
# 1 88.4538 67.9476 33.8558 0.0000 0.0000 0.0000
# 2 67.9476 88.4538 33.8558 0.0000 0.0000 0.0000
# 3 33.8558 33.8558 82.6644 0.0000 0.0000 0.0000
# 4 0.0000 0.0000 0.0000 47.9293 0.0000 0.0000
# 5 0.0000 0.0000 0.0000 0.0000 47.9293 0.0000
# 6 0.0000 0.0000 0.0000 0.0000 0.0000 10.2531
#
#
#
# Elastic Compliance Matrix: (Units=1/GPa)
#
#
# Indices 1 2 3 4 5 6 
#
# 1 0.028269 -0.020497 -0.003183 0.000000 0.000000 0.000000
# 2 -0.020497 0.028269 -0.003183 0.000000 0.000000 0.000000
# 3 -0.003183 -0.003183 0.014704 0.000000 0.000000 0.000000
# 4 0.000000 0.000000 0.000000 0.020864 0.000000 0.000000
# 5 0.000000 0.000000 0.000000 0.000000 0.020864 0.000000
# 6 0.000000 0.000000 0.000000 0.000000 0.000000 0.097531
#
#
# Mechanical properties :
#
#
# Convention : Reuss Voigt Hill
#
# Bulk Modulus (GPa) = 57.09070 58.98781 58.03926
# Shear Modulus (GPa) = 18.51400 29.48321 23.99860
#
# Velocity S-wave (km/s) = 2.84265 3.58724 3.23643
# Velocity P-wave (km/s) = 5.97428 6.55008 6.26880
#
# Compressibility (1/GPa) = 0.01751599
#
# Stress axis : x y z
#
# Youngs Moduli (GPa) = 35.37474 35.37474 68.00708
#
# Poissons Ratio (x) = 0.72507 0.21647
# Poissons Ratio (y) = 0.72507 0.21647
# Poissons Ratio (z) = 0.11260 0.11260
#
# Static dielectric constant tensor:
#      x y z
#    x 1.838580 0.000000 0.000000 
#    y 0.000000 1.838580 0.000000 
#    z 0.000000 0.000000 1.880510 
# 
# From -- ./inp_files/3936.got.cif
#   From: 2010.05.17/outbox.cif.g08.bks.cpg/sg178_2_cif.got.tgz:3936.got - 2010.05.20 11:30:59.
