data_PCOD9582435
_publ_section_title
;
Structure prediction by ZEFSAII (Michael W. Deem and Ramdas Pophale) SiO2 
 PCOD9582435
Probable space group: P 61 2 2
;
_chemical_formula_sum "Si O2"
_cell_formula_units_Z 60
_cell_length_a 18.902119
_cell_length_b 18.902119
_cell_length_c 10.263618
_cell_angle_alpha 90.000000
_cell_angle_beta 90.000000
_cell_angle_gamma 120.000000
_cell_volume 3175.792344
_symmetry_space_group_name_H-M "P 61 2 2"
_symmetry_group_IT_number 178
_symmetry_cell_setting 'hexagonal'
loop_
_space_group_symop_operation_xyz
x,y,z
x-y,x,1/6+z
-y,x-y,1/3+z
-x,-y,1/2+z
-x+y,-x,2/3+z
y,-x+y,5/6+z
x-y,-y,-z
-x,-x+y,2/3-z
y,x,1/3-z
-y,-x,5/6-z
-x+y,y,1/2-z
x,x-y,1/6-z
loop_
_atom_site_type_symbol
_atom_site_label
_atom_site_fract_x
_atom_site_fract_y
_atom_site_fract_z
Si Si1 0.911936 0.853960 0.035441
Si Si2 0.328775 0.472726 0.484125
Si Si3 0.097450 0.307944 0.868535
Si Si4 0.502182 0.410740 0.118413
Si Si5 0.321701 0.583628 0.105128
O O1 0.878929 0.878929 0.166667
O O2 0.860592 0.757191 0.037722
O O3 0.005450 0.892984 0.073229
O O4 0.266321 0.391897 0.558620
O O5 0.415822 0.515267 0.555897
O O6 0.346648 0.460466 0.334024
O O7 0.296080 0.537128 0.483540
O O8 0.158269 0.316537 0.750000
O O9 0.000000 0.267545 0.833334
O O10 0.443721 0.443721 0.166667
O O11 0.538036 0.374124 0.226759
O O12 0.285778 0.571556 0.250000
O O13 0.362273 0.681137 0.083334
#
# Coordination Sequence:
#
# PCOD9582435 Si02
#       5
#    12  12  12  12  12
#     4   9  15  30  53  82 109 150 192 237 298 346
#     4  10  21  37  56  85 117 155 201 255 302 373
#     4  11  20  33  53  85 123 154 192 246 305 370
#     4  10  21  40  58  83 122 153 201 259 315 364
#     4  10  18  39  62  79 108 153 203 248 295 355
#
# _framework density 18.892925000000002
#
# number of rings (size 3 to 8) (size 9 to 14) (size 15 to 20)
#    0.000    2.000    8.000    0.600    0.000    2.400 
#    3.600    0.000    0.000    0.000   62.400    0.000 
#    0.000    0.000    0.000    0.000    0.000    0.000 
#
# Total GULP energy -334025.391650 kJ/mol
# GULP energy per Si atom -5567.089861 kJ/mol
# Density = 1.884992 g / cm^3
# Si number density = 18.892925 Si / 1000 Ang^3
#
#
#
# Elastic Constant Matrix: (Units=GPa)
#
#
# Indices 1 2 3 4 5 6 
#
# 1 112.7804 63.5787 48.0634 0.0000 0.0000 0.0000
# 2 63.5787 112.7804 48.0634 0.0000 0.0000 0.0000
# 3 48.0634 48.0634 43.5058 0.0000 0.0000 0.0000
# 4 0.0000 0.0000 0.0000 27.4256 0.0000 0.0000
# 5 0.0000 0.0000 0.0000 0.0000 27.4256 0.0000
# 6 0.0000 0.0000 0.0000 0.0000 0.0000 24.6008
#
#
#
# Elastic Compliance Matrix: (Units=1/GPa)
#
#
# Indices 1 2 3 4 5 6 
#
# 1 0.017289 -0.003036 -0.015746 0.000000 0.000000 0.000000
# 2 -0.003036 0.017289 -0.015746 0.000000 0.000000 0.000000
# 3 -0.015746 -0.015746 0.057776 0.000000 0.000000 0.000000
# 4 0.000000 0.000000 0.000000 0.036462 0.000000 0.000000
# 5 0.000000 0.000000 0.000000 0.000000 0.036462 0.000000
# 6 0.000000 0.000000 0.000000 0.000000 0.000000 0.040649
#
#
# Mechanical properties :
#
#
# Convention : Reuss Voigt Hill
#
# Bulk Modulus (GPa) = 42.92162 65.38636 54.15399
# Shear Modulus (GPa) = 17.68360 23.18113 20.43237
#
# Velocity S-wave (km/s) = 3.06272 3.50662 3.29216
# Velocity P-wave (km/s) = 5.93925 7.14697 6.57092
#
# Compressibility (1/GPa) = 0.02329828
#
# Stress axis : x y z
#
# Youngs Moduli (GPa) = 57.84161 57.84161 17.30823
#
# Poissons Ratio (x) = 0.17560 0.27253
# Poissons Ratio (y) = 0.17560 0.27253
# Poissons Ratio (z) = 0.91076 0.91076
#
# Static dielectric constant tensor:
#      x y z
#    x 1.692110 0.000000 0.000000 
#    y 0.000000 1.692110 0.000000 
#    z 0.000000 0.000000 1.636200 
# 
# From -- ./inp_files/4515.got.cif
#   From: 2010.05.17/outbox.cif.g08.bks.cpg/sg178_3_cif.got.tgz:4515.got - 2010.05.20 11:30:59.
