data_PCOD9582639
_publ_section_title
;
Structure prediction by ZEFSAII (Michael W. Deem and Ramdas Pophale) SiO2 
 PCOD9582639
Probable space group: P 61 2 2
;
_chemical_formula_sum "Si O2"
_cell_formula_units_Z 48
_cell_length_a 16.843092
_cell_length_b 16.843092
_cell_length_c 9.028446
_cell_angle_alpha 90.000000
_cell_angle_beta 90.000000
_cell_angle_gamma 120.000000
_cell_volume 2218.131443
_symmetry_space_group_name_H-M "P 61 2 2"
_symmetry_group_IT_number 178
_symmetry_cell_setting 'hexagonal'
loop_
_space_group_symop_operation_xyz
x,y,z
x-y,x,1/6+z
-y,x-y,1/3+z
-x,-y,1/2+z
-x+y,-x,2/3+z
y,-x+y,5/6+z
x-y,-y,-z
-x,-x+y,2/3-z
y,x,1/3-z
-y,-x,5/6-z
-x+y,y,1/2-z
x,x-y,1/6-z
loop_
_atom_site_type_symbol
_atom_site_label
_atom_site_fract_x
_atom_site_fract_y
_atom_site_fract_z
Si Si1 0.515740 0.304443 0.932205
Si Si2 0.154249 0.371033 0.585138
Si Si3 0.883251 0.819643 0.020033
Si Si4 0.997134 0.580536 0.011950
O O1 0.622109 0.377892 0.916667
O O2 0.470118 0.231707 0.802693
O O3 0.461675 0.360254 0.935320
O O4 0.498996 0.249498 0.083334
O O5 0.178093 0.356185 0.750000
O O6 0.151923 0.287261 0.494019
O O7 0.060465 0.372530 0.565944
O O8 0.835024 0.835024 0.166667
O O9 0.990278 0.864137 0.060130
O O10 0.959507 0.479754 0.083334
O O11 0.000000 0.577130 0.833334
#
# Coordination Sequence:
#
# PCOD9582639 Si02
#       4
#    12  12  12  12
#     4  11  26  46  69 101 144 178 232 303 356 424
#     4  12  25  42  74 103 136 189 244 284 360 445
#     4  10  20  40  66  98 142 178 231 281 337 420
#     4  11  26  47  69 100 139 184 235 294 362 428
#
# _framework density 21.639835000000001
#
# number of rings (size 3 to 8) (size 9 to 14) (size 15 to 20)
#    0.000    1.000    5.000    1.500    7.000    2.000 
#    0.000    6.250    0.000    0.000    0.000    0.000 
#    0.000    0.000    0.000    0.000    0.000    0.000 
#
# Total GULP energy -268418.883230 kJ/mol
# GULP energy per Si atom -5592.060067 kJ/mol
# Density = 2.159058 g / cm^3
# Si number density = 21.639835 Si / 1000 Ang^3
#
#
#
# Elastic Constant Matrix: (Units=GPa)
#
#
# Indices 1 2 3 4 5 6 
#
# 1 114.2161 38.8966 8.6138 0.0000 0.0000 0.0000
# 2 38.8966 114.2161 8.6138 0.0000 0.0000 0.0000
# 3 8.6138 8.6138 51.5210 0.0000 0.0000 0.0000
# 4 0.0000 0.0000 0.0000 30.0292 0.0000 0.0000
# 5 0.0000 0.0000 0.0000 0.0000 30.0292 0.0000
# 6 0.0000 0.0000 0.0000 0.0000 0.0000 37.6597
#
#
#
# Elastic Compliance Matrix: (Units=1/GPa)
#
#
# Indices 1 2 3 4 5 6 
#
# 1 0.009967 -0.003310 -0.001113 0.000000 0.000000 0.000000
# 2 -0.003310 0.009967 -0.001113 0.000000 0.000000 0.000000
# 3 -0.001113 -0.001113 0.019782 0.000000 0.000000 0.000000
# 4 0.000000 0.000000 0.000000 0.033301 0.000000 0.000000
# 5 0.000000 0.000000 0.000000 0.000000 0.033301 0.000000
# 6 0.000000 0.000000 0.000000 0.000000 0.000000 0.026554
#
#
# Mechanical properties :
#
#
# Convention : Reuss Voigt Hill
#
# Bulk Modulus (GPa) = 34.91271 43.57797 39.24534
# Shear Modulus (GPa) = 32.57546 34.46555 33.52051
#
# Velocity S-wave (km/s) = 3.88409 3.99518 3.94003
# Velocity P-wave (km/s) = 6.02357 6.43922 6.23486
#
# Compressibility (1/GPa) = 0.02864286
#
# Stress axis : x y z
#
# Youngs Moduli (GPa) = 100.33542 100.33542 50.55184
#
# Poissons Ratio (x) = 0.33213 0.05626
# Poissons Ratio (y) = 0.33213 0.05626
# Poissons Ratio (z) = 0.11166 0.11166
#
# Static dielectric constant tensor:
#      x y z
#    x 1.777400 0.000000 0.000000 
#    y 0.000000 1.777400 0.000000 
#    z 0.000000 0.000000 1.813540 
# 
# From -- ./inp_files/2586.got.cif
#   From: 2010.05.17/outbox.cif.g08.bks.cpg/sg178_2_cif.got.tgz:2586.got - 2010.05.20 11:30:59.
