data_PCOD9582903
_publ_section_title
;
Structure prediction by ZEFSAII (Michael W. Deem and Ramdas Pophale) SiO2 
 PCOD9582903
Probable space group: P 61 2 2
;
_chemical_formula_sum "Si O2"
_cell_formula_units_Z 54
_cell_length_a 14.339229
_cell_length_b 14.339229
_cell_length_c 15.352513
_cell_angle_alpha 90.000000
_cell_angle_beta 90.000000
_cell_angle_gamma 120.000000
_cell_volume 2733.768321
_symmetry_space_group_name_H-M "P 61 2 2"
_symmetry_group_IT_number 178
_symmetry_cell_setting 'hexagonal'
loop_
_space_group_symop_operation_xyz
x,y,z
x-y,x,1/6+z
-y,x-y,1/3+z
-x,-y,1/2+z
-x+y,-x,2/3+z
y,-x+y,5/6+z
x-y,-y,-z
-x,-x+y,2/3-z
y,x,1/3-z
-y,-x,5/6-z
-x+y,y,1/2-z
x,x-y,1/6-z
loop_
_atom_site_type_symbol
_atom_site_label
_atom_site_fract_x
_atom_site_fract_y
_atom_site_fract_z
Si Si1 0.132327 0.132327 0.666667
Si Si2 0.293374 0.570515 0.650215
Si Si3 0.198206 0.857052 0.249900
Si Si4 0.749756 0.499512 0.750000
Si Si5 0.000000 0.127114 0.333334
Si Si6 0.220504 0.888106 0.770388
O O1 0.108727 0.054364 0.583334
O O2 0.144618 0.239783 0.624737
O O3 0.302667 0.605333 0.750000
O O4 0.245160 0.622580 0.583334
O O5 0.213863 0.444213 0.642615
O O6 0.416863 0.628021 0.616313
O O7 0.164906 0.797102 0.157306
O O8 0.285449 0.983418 0.236073
O O9 0.827551 0.574303 0.674157
O O10 0.049598 0.099195 0.250000
O O11 0.102305 0.235591 0.368266
#
# Coordination Sequence:
#
# PCOD9582903 Si02
#       6
#     6  12  12   6   6  12
#     4  12  26  47  67 106 152 204 243 296 361 444
#     4  10  24  49  75  97 139 184 239 301 363 420
#     4  12  25  42  71 106 149 184 242 290 361 439
#     4  10  24  48  76  98 142 180 246 302 356 420
#     4  12  24  43  67 106 152 198 243 288 357 434
#     4  12  23  42  71 106 144 190 237 294 353 433
#
# _framework density 19.752953999999999
#
# number of rings (size 3 to 8) (size 9 to 14) (size 15 to 20)
#    0.667    0.000    5.556    2.000    0.000    2.667 
#    6.000    3.333    0.000    0.000    0.000    0.000 
#    0.000    0.000    0.000    0.000    0.000    0.000 
#
# Total GULP energy -301268.960458 kJ/mol
# GULP energy per Si atom -5579.054823 kJ/mol
# Density = 1.970800 g / cm^3
# Si number density = 19.752954 Si / 1000 Ang^3
#
#
#
# Elastic Constant Matrix: (Units=GPa)
#
#
# Indices 1 2 3 4 5 6 
#
# 1 70.9586 63.4449 22.9044 0.0000 0.0000 0.0000
# 2 63.4449 70.9586 22.9044 0.0000 0.0000 0.0000
# 3 22.9044 22.9044 137.1081 0.0000 0.0000 0.0000
# 4 0.0000 0.0000 0.0000 33.2888 0.0000 0.0000
# 5 0.0000 0.0000 0.0000 0.0000 33.2888 0.0000
# 6 0.0000 0.0000 0.0000 0.0000 0.0000 3.7569
#
#
#
# Elastic Compliance Matrix: (Units=1/GPa)
#
#
# Indices 1 2 3 4 5 6 
#
# 1 0.070490 -0.062600 -0.001318 0.000000 0.000000 0.000000
# 2 -0.062600 0.070490 -0.001318 0.000000 0.000000 0.000000
# 3 -0.001318 -0.001318 0.007734 0.000000 0.000000 0.000000
# 4 0.000000 0.000000 0.000000 0.030040 0.000000 0.000000
# 5 0.000000 0.000000 0.000000 0.000000 0.030040 0.000000
# 6 0.000000 0.000000 0.000000 0.000000 0.000000 0.266180
#
#
# Mechanical properties :
#
#
# Convention : Reuss Voigt Hill
#
# Bulk Modulus (GPa) = 54.82168 55.28142 55.05155
# Shear Modulus (GPa) = 8.17626 25.38500 16.78063
#
# Velocity S-wave (km/s) = 2.03672 3.58875 2.91782
# Velocity P-wave (km/s) = 5.77450 6.72453 6.26755
#
# Compressibility (1/GPa) = 0.01824096
#
# Stress axis : x y z
#
# Youngs Moduli (GPa) = 14.18645 14.18645 129.30158
#
# Poissons Ratio (x) = 0.88808 0.17042
# Poissons Ratio (y) = 0.88808 0.17042
# Poissons Ratio (z) = 0.01870 0.01870
#
# Static dielectric constant tensor:
#      x y z
#    x 1.711570 0.000000 0.000000 
#    y 0.000000 1.711570 0.000000 
#    z 0.000000 0.000000 1.755490 
# 
# From -- ./inp_files/5628.got.cif
#   From: 2010.05.17/outbox.cif.g08.bks.cpg/sg178_3_cif.got.tgz:5628.got - 2010.05.20 11:30:59.
