data_PCOD9582022
_publ_section_title
;
Structure prediction by ZEFSAII (Michael W. Deem and Ramdas Pophale) SiO2 
 PCOD9582022
Probable space group: P 63/M
;
_chemical_formula_sum "Si O2"
_cell_formula_units_Z 60
_cell_length_a 17.931942
_cell_length_b 17.931942
_cell_length_c 10.661745
_cell_angle_alpha 90.000000
_cell_angle_beta 90.000000
_cell_angle_gamma 120.000000
_cell_volume 2969.023081
_symmetry_space_group_name_H-M "P 63/M"
_symmetry_group_IT_number 176
_symmetry_cell_setting 'hexagonal'
loop_
_space_group_symop_operation_xyz
x,y,z
x-y,x,1/2+z
-y,x-y,z
-x,-y,1/2+z
-x+y,-x,z
y,-x+y,1/2+z
-x,-y,-z
-x+y,-x,1/2-z
y,-x+y,-z
x,y,1/2-z
x-y,x,-z
-y,x-y,1/2-z
loop_
_atom_site_type_symbol
_atom_site_label
_atom_site_fract_x
_atom_site_fract_y
_atom_site_fract_z
Si Si1 0.235427 0.762707 0.394112
Si Si2 0.808267 0.957145 0.250000
Si Si3 0.952953 0.150432 0.250000
Si Si4 0.399927 0.424636 0.613081
Si Si5 0.305665 0.077701 0.504916
Si Si6 0.574580 0.143767 0.537180
O O1 0.252995 0.795020 0.250000
O O2 0.174170 0.791823 0.462090
O O3 0.323996 0.794068 0.467550
O O4 0.187182 0.659262 0.391014
O O5 0.820309 0.874025 0.250000
O O6 0.756059 0.953634 0.124883
O O7 0.897056 0.046910 0.250000
O O8 0.930071 0.184415 0.377303
O O9 0.364021 0.392560 0.750000
O O10 0.331424 0.356733 0.515730
O O11 0.493272 0.435115 0.600898
O O12 0.410292 0.517777 0.587943
#
# Coordination Sequence:
#
# PCOD9582022 Si02
#       6
#    12   6   6  12  12  12
#     4  11  21  39  62  99 134 181 231 286 331 403
#     4  12  27  48  72 105 135 177 227 285 351 434
#     4  12  27  48  72 101 139 177 221 287 359 424
#     4  10  21  43  63  96 135 182 224 288 337 397
#     4  11  25  43  72 102 136 179 231 279 350 410
#     4  10  23  37  64  95 133 177 225 276 339 395
#
# _framework density 20.208666999999998
#
# number of rings (size 3 to 8) (size 9 to 14) (size 15 to 20)
#    0.000    1.200    2.000    3.600    5.600    0.000 
#    3.600    2.000    0.000    0.000    0.000    0.000 
#    0.000    0.000    0.000    0.000    0.000    0.000 
#
# Total GULP energy -334955.021823 kJ/mol
# GULP energy per Si atom -5582.583697 kJ/mol
# Density = 2.016267 g / cm^3
# Si number density = 20.208667 Si / 1000 Ang^3
#
#
#
# Elastic Constant Matrix: (Units=GPa)
#
#
# Indices 1 2 3 4 5 6 
#
# 1 108.1956 38.3411 47.0782 0.0000 0.0000 0.0000
# 2 38.3411 108.1956 47.0782 0.0000 0.0000 0.0000
# 3 47.0782 47.0782 109.4404 0.0000 0.0000 0.0000
# 4 0.0000 0.0000 0.0000 16.4306 0.0000 0.0000
# 5 0.0000 0.0000 0.0000 0.0000 16.4306 0.0000
# 6 0.0000 0.0000 0.0000 0.0000 0.0000 34.9272
#
#
#
# Elastic Compliance Matrix: (Units=1/GPa)
#
#
# Indices 1 2 3 4 5 6 
#
# 1 0.011873 -0.002442 -0.004057 0.000000 0.000000 0.000000
# 2 -0.002442 0.011873 -0.004057 0.000000 0.000000 0.000000
# 3 -0.004057 -0.004057 0.012628 0.000000 0.000000 0.000000
# 4 0.000000 0.000000 0.000000 0.060862 0.000000 0.000000
# 5 0.000000 0.000000 0.000000 0.000000 0.060862 0.000000
# 6 0.000000 0.000000 0.000000 0.000000 0.000000 0.028631
#
#
# Mechanical properties :
#
#
# Convention : Reuss Voigt Hill
#
# Bulk Modulus (GPa) = 65.52237 65.64739 65.58488
# Shear Modulus (GPa) = 23.48204 26.44664 24.96434
#
# Velocity S-wave (km/s) = 3.41248 3.62149 3.51854
# Velocity P-wave (km/s) = 6.92964 7.07405 7.00222
#
# Compressibility (1/GPa) = 0.01526196
#
# Stress axis : x y z
#
# Youngs Moduli (GPa) = 84.22300 84.22300 79.19055
#
# Poissons Ratio (x) = 0.20569 0.32127
# Poissons Ratio (y) = 0.20569 0.32127
# Poissons Ratio (z) = 0.34169 0.34169
#
# Static dielectric constant tensor:
#      x y z
#    x 1.715290 0.000000 0.000000 
#    y 0.000000 1.715290 0.000000 
#    z 0.000000 0.000000 1.719340 
# 
# From -- ./inp_files/1913.got.cif
#   From: 2010.05.17/outbox.cif.g08.bks.cpg/sg176_1_cif.got.tgz:1913.got - 2010.06.03 11:36:45.
