data_PCOD9582679
_publ_section_title
;
Structure prediction by ZEFSAII (Michael W. Deem and Ramdas Pophale) SiO2 
 PCOD9582679
Probable space group: P 61 2 2
;
_chemical_formula_sum "Si O2"
_cell_formula_units_Z 30
_cell_length_a 9.744489
_cell_length_b 9.744489
_cell_length_c 15.033510
_cell_angle_alpha 90.000000
_cell_angle_beta 90.000000
_cell_angle_gamma 120.000000
_cell_volume 1236.258133
_symmetry_space_group_name_H-M "P 61 2 2"
_symmetry_group_IT_number 178
_symmetry_cell_setting 'hexagonal'
loop_
_space_group_symop_operation_xyz
x,y,z
x-y,x,1/6+z
-y,x-y,1/3+z
-x,-y,1/2+z
-x+y,-x,2/3+z
y,-x+y,5/6+z
x-y,-y,-z
-x,-x+y,2/3-z
y,x,1/3-z
-y,-x,5/6-z
-x+y,y,1/2-z
x,x-y,1/6-z
loop_
_atom_site_type_symbol
_atom_site_label
_atom_site_fract_x
_atom_site_fract_y
_atom_site_fract_z
Si Si1 0.346985 0.422637 0.356877
Si Si2 0.640082 0.000000 0.500000
Si Si3 0.881499 0.114291 0.771721
O O1 0.423076 0.576925 0.416667
O O2 0.418053 0.452756 0.258763
O O3 0.157990 0.348752 0.349179
O O4 0.369258 0.289413 0.407703
O O5 0.973804 0.132596 0.678574
O O6 0.000000 0.262091 0.833334
#
# Coordination Sequence:
#
# PCOD9582679 Si02
#       3
#    12   6  12
#     4  11  23  43  70 104 142 195 243 303 379 444
#     4  10  24  46  74  98 144 196 238 298 374 452
#     4  10  21  36  67 110 142 178 241 307 357 432
#
# _framework density 24.266777999999999
#
# number of rings (size 3 to 8) (size 9 to 14) (size 15 to 20)
#    0.000    1.600    4.000    0.000    8.400    0.000 
#   18.000    0.000    0.000    0.000    0.000    0.000 
#    0.000    0.000    0.000    0.000    0.000    0.000 
#
# Total GULP energy -167025.258624 kJ/mol
# GULP energy per Si atom -5567.508621 kJ/mol
# Density = 2.421155 g / cm^3
# Si number density = 24.266778 Si / 1000 Ang^3
#
#
#
# Elastic Constant Matrix: (Units=GPa)
#
#
# Indices 1 2 3 4 5 6 
#
# 1 57.9979 27.7200 47.2148 0.0000 0.0000 0.0000
# 2 27.7200 57.9979 47.2148 0.0000 0.0000 0.0000
# 3 47.2148 47.2148 233.5591 0.0000 0.0000 0.0000
# 4 0.0000 0.0000 0.0000 27.0620 0.0000 0.0000
# 5 0.0000 0.0000 0.0000 0.0000 27.0620 0.0000
# 6 0.0000 0.0000 0.0000 0.0000 0.0000 15.1389
#
#
#
# Elastic Compliance Matrix: (Units=1/GPa)
#
#
# Indices 1 2 3 4 5 6 
#
# 1 0.024018 -0.009009 -0.003034 0.000000 0.000000 0.000000
# 2 -0.009009 0.024018 -0.003034 0.000000 0.000000 0.000000
# 3 -0.003034 -0.003034 0.005508 0.000000 0.000000 0.000000
# 4 0.000000 0.000000 0.000000 0.036952 0.000000 0.000000
# 5 0.000000 0.000000 0.000000 0.000000 0.036952 0.000000
# 6 0.000000 0.000000 0.000000 0.000000 0.000000 0.066055
#
#
# Mechanical properties :
#
#
# Convention : Reuss Voigt Hill
#
# Bulk Modulus (GPa) = 42.75468 65.98376 54.36922
# Shear Modulus (GPa) = 21.60247 29.01292 25.30770
#
# Velocity S-wave (km/s) = 2.98687 3.46147 3.23289
# Velocity P-wave (km/s) = 5.43618 6.57463 6.03232
#
# Compressibility (1/GPa) = 0.02338925
#
# Stress axis : x y z
#
# Youngs Moduli (GPa) = 41.63544 41.63544 181.54581
#
# Poissons Ratio (x) = 0.37511 0.55082
# Poissons Ratio (y) = 0.37511 0.55082
# Poissons Ratio (z) = 0.12632 0.12632
#
# Static dielectric constant tensor:
#      x y z
#    x 1.992390 0.000000 0.000000 
#    y 0.000000 1.992390 0.000000 
#    z 0.000000 0.000000 1.953900 
# 
# From -- ./inp_files/5011.got.cif
#   From: 2010.05.17/outbox.cif.g08.bks.cpg/sg178_3_cif.got.tgz:5011.got - 2010.05.20 11:30:59.
