data_PCOD9582386
_publ_section_title
;
Structure prediction by ZEFSAII (Michael W. Deem and Ramdas Pophale) SiO2 
 PCOD9582386
Probable space group: P 61 2 2
;
_chemical_formula_sum "Si O2"
_cell_formula_units_Z 96
_cell_length_a 14.113899
_cell_length_b 14.113899
_cell_length_c 29.018848
_cell_angle_alpha 90.000000
_cell_angle_beta 90.000000
_cell_angle_gamma 120.000000
_cell_volume 5006.160969
_symmetry_space_group_name_H-M "P 61 2 2"
_symmetry_group_IT_number 178
_symmetry_cell_setting 'hexagonal'
loop_
_space_group_symop_operation_xyz
x,y,z
x-y,x,1/6+z
-y,x-y,1/3+z
-x,-y,1/2+z
-x+y,-x,2/3+z
y,-x+y,5/6+z
x-y,-y,-z
-x,-x+y,2/3-z
y,x,1/3-z
-y,-x,5/6-z
-x+y,y,1/2-z
x,x-y,1/6-z
loop_
_atom_site_type_symbol
_atom_site_label
_atom_site_fract_x
_atom_site_fract_y
_atom_site_fract_z
Si Si1 0.273212 0.843102 0.461165
Si Si2 0.198553 0.994531 0.583942
Si Si3 0.760201 0.624307 0.386072
Si Si4 0.482335 0.101066 0.968906
Si Si5 0.475797 0.773373 0.636044
Si Si6 0.022992 0.475329 0.465757
Si Si7 0.290658 0.773029 0.191166
Si Si8 0.051044 0.362819 0.996320
O O1 0.236285 0.763716 0.416667
O O2 0.249580 0.939567 0.446171
O O3 0.199559 0.782178 0.504833
O O4 0.396547 0.883007 0.474207
O O5 0.146962 0.073481 0.583334
O O6 0.136042 0.871259 0.565934
O O7 0.235564 0.984069 0.635353
O O8 0.729737 0.533114 0.424473
O O9 0.664114 0.650195 0.376961
O O10 0.458464 0.070399 0.915314
O O11 0.485846 0.206463 0.991039
O O12 0.400810 0.000000 0.000000
O O13 0.496268 0.748134 0.583334
O O14 0.534448 0.904525 0.642522
O O15 0.343362 0.715087 0.641351
O O16 0.988777 0.569261 0.464354
O O17 0.121061 0.513366 0.502384
O O18 0.179985 0.747860 0.164465
#
# Coordination Sequence:
#
# PCOD9582386 Si02
#       8
#    12  12  12  12  12  12  12  12
#     4  11  20  31  54  89 124 154 200 243 299 372
#     4  10  18  30  51  87 114 148 195 251 291 356
#     4  11  20  35  56  79 123 166 191 242 316 361
#     4  12  23  37  64  88 121 160 199 265 312 344
#     4  11  24  42  65  96 122 162 216 255 305 374
#     4  11  24  44  58  91 124 156 214 254 300 378
#     4  10  26  39  59  87 127 164 200 252 303 377
#     4  10  21  38  55  85 120 157 202 240 299 374
#
# _framework density 19.176369999999999
#
# number of rings (size 3 to 8) (size 9 to 14) (size 15 to 20)
#    0.000    1.250    5.000    1.875    7.000    1.000 
#    0.000    2.500    0.000    0.750    3.250    0.000 
#    0.000    0.000    0.000    0.000    0.000    0.000 
#
# Total GULP energy -535961.246319 kJ/mol
# GULP energy per Si atom -5582.929649 kJ/mol
# Density = 1.913272 g / cm^3
# Si number density = 19.176370 Si / 1000 Ang^3
#
#
#
# Elastic Constant Matrix: (Units=GPa)
#
#
# Indices 1 2 3 4 5 6 
#
# 1 66.6418 20.9254 29.3380 0.0000 0.0000 0.0000
# 2 20.9254 66.6418 29.3380 0.0000 0.0000 0.0000
# 3 29.3380 29.3380 61.3873 0.0000 0.0000 0.0000
# 4 0.0000 0.0000 0.0000 23.7900 0.0000 0.0000
# 5 0.0000 0.0000 0.0000 0.0000 23.7900 0.0000
# 6 0.0000 0.0000 0.0000 0.0000 0.0000 22.8582
#
#
#
# Elastic Compliance Matrix: (Units=1/GPa)
#
#
# Indices 1 2 3 4 5 6 
#
# 1 0.019337 -0.002537 -0.008029 0.000000 0.000000 0.000000
# 2 -0.002537 0.019337 -0.008029 0.000000 0.000000 0.000000
# 3 -0.008029 -0.008029 0.023964 0.000000 0.000000 0.000000
# 4 0.000000 0.000000 0.000000 0.042034 0.000000 0.000000
# 5 0.000000 0.000000 0.000000 0.000000 0.042034 0.000000
# 6 0.000000 0.000000 0.000000 0.000000 0.000000 0.043748
#
#
# Mechanical properties :
#
#
# Convention : Reuss Voigt Hill
#
# Bulk Modulus (GPa) = 39.29544 39.31927 39.30736
# Shear Modulus (GPa) = 21.17503 21.75895 21.46699
#
# Velocity S-wave (km/s) = 3.32659 3.37215 3.34945
# Velocity P-wave (km/s) = 5.94063 5.97582 5.95825
#
# Compressibility (1/GPa) = 0.02544825
#
# Stress axis : x y z
#
# Youngs Moduli (GPa) = 51.71479 51.71479 41.72887
#
# Poissons Ratio (x) = 0.13121 0.33503
# Poissons Ratio (y) = 0.13121 0.33503
# Poissons Ratio (z) = 0.41521 0.41521
#
# Static dielectric constant tensor:
#      x y z
#    x 1.699690 0.000000 0.000000 
#    y 0.000000 1.699690 0.000000 
#    z 0.000000 0.000000 1.693490 
# 
# From -- ./inp_files/9033.got.cif
#   From: 2010.05.17/outbox.cif.g08.bks.cpg/sg178_5_cif.got.tgz:9033.got - 2010.05.20 11:30:59.
