data_PCOD9582308
_publ_section_title
;
Structure prediction by ZEFSAII (Michael W. Deem and Ramdas Pophale) SiO2 
 PCOD9582308
Probable space group: P 6 2 2
;
_chemical_formula_sum "Si O2"
_cell_formula_units_Z 84
_cell_length_a 15.788754
_cell_length_b 15.788754
_cell_length_c 22.498416
_cell_angle_alpha 90.000000
_cell_angle_beta 90.000000
_cell_angle_gamma 120.000000
_cell_volume 4857.113932
_symmetry_space_group_name_H-M "P 6 2 2"
_symmetry_group_IT_number 177
_symmetry_cell_setting 'hexagonal'
loop_
_space_group_symop_operation_xyz
x,y,z
x-y,x,z
-y,x-y,z
-x,-y,z
-x+y,-x,z
y,-x+y,z
x-y,-y,-z
-x,-x+y,-z
y,x,-z
-y,-x,-z
-x+y,y,-z
x,x-y,-z
loop_
_atom_site_type_symbol
_atom_site_label
_atom_site_fract_x
_atom_site_fract_y
_atom_site_fract_z
Si Si1 0.885990 0.449755 0.692001
Si Si2 0.224308 0.093445 0.888600
Si Si3 0.602746 0.204189 0.567027
Si Si4 0.094457 0.870210 0.743691
Si Si5 0.548928 0.436693 0.928971
Si Si6 0.768887 0.551503 0.884264
Si Si7 0.781927 0.230886 0.741628
O O1 0.869727 0.437062 0.621004
O O2 0.825850 0.341765 0.720121
O O3 0.837739 0.512044 0.715473
O O4 0.000000 0.500000 0.707411
O O5 0.177995 0.159411 0.908406
O O6 0.222857 0.092866 0.816139
O O7 0.337825 0.143785 0.905295
O O8 0.719726 0.281394 0.572693
O O9 0.582207 0.164414 0.500000
O O10 0.145226 0.808739 0.724168
O O11 0.982485 0.822940 0.724362
O O12 0.500000 0.500000 0.907743
O O13 0.657719 0.482009 0.903640
O O14 0.485313 0.324533 0.909990
O O15 0.556286 0.443715 0.000000
O O16 0.773489 0.549130 0.812985
#
# Coordination Sequence:
#
# PCOD9582308 Si02
#       7
#    12  12  12  12  12  12  12
#     4  12  22  34  54  78 110 149 184 219 275 325
#     4   9  17  30  51  77 103 131 164 202 247 301
#     4   8  15  33  57  74 103 143 183 234 275 309
#     4   9  17  30  47  69  99 135 173 210 247 292
#     4  11  24  41  60  82 104 131 177 229 272 322
#     4  11  22  37  57  76 108 142 176 211 266 323
#     4  11  22  35  49  78 111 143 177 217 257 319
#
# _framework density 17.294219999999999
#
# number of rings (size 3 to 8) (size 9 to 14) (size 15 to 20)
#    0.286    1.571    1.429    3.857    0.000    6.000 
#    0.000    0.000    0.000    0.000    0.000    0.000 
#    0.000    6.857    0.000    0.000    0.000   10.143 
#
# Total GULP energy -468794.260987 kJ/mol
# GULP energy per Si atom -5580.884059 kJ/mol
# Density = 1.725486 g / cm^3
# Si number density = 17.294220 Si / 1000 Ang^3
#
#
#
# Elastic Constant Matrix: (Units=GPa)
#
#
# Indices 1 2 3 4 5 6 
#
# 1 42.8211 -27.2539 -3.8937 0.0000 0.0000 0.0000
# 2 -27.2539 42.8211 -3.8937 0.0000 0.0000 0.0000
# 3 -3.8937 -3.8937 41.0407 0.0000 0.0000 0.0000
# 4 0.0000 0.0000 0.0000 8.7060 0.0000 0.0000
# 5 0.0000 0.0000 0.0000 0.0000 8.7060 0.0000
# 6 0.0000 0.0000 0.0000 0.0000 0.0000 35.0375
#
#
#
# Elastic Compliance Matrix: (Units=1/GPa)
#
#
# Indices 1 2 3 4 5 6 
#
# 1 0.040854 0.026584 0.006398 0.000000 0.000000 0.000000
# 2 0.026584 0.040854 0.006398 0.000000 0.000000 0.000000
# 3 0.006398 0.006398 0.025580 0.000000 0.000000 0.000000
# 4 0.000000 0.000000 0.000000 0.114864 0.000000 0.000000
# 5 0.000000 0.000000 0.000000 0.000000 0.114864 0.000000
# 6 0.000000 0.000000 0.000000 0.000000 0.000000 0.028541
#
#
# Mechanical properties :
#
#
# Convention : Reuss Voigt Hill
#
# Bulk Modulus (GPa) = 5.37492 6.28891 5.83191
# Shear Modulus (GPa) = 14.33432 21.27151 17.80292
#
# Velocity S-wave (km/s) = 2.88210 3.51091 3.21193
# Velocity P-wave (km/s) = 3.76696 4.48103 4.13942
#
# Compressibility (1/GPa) = 0.18604927
#
# Stress axis : x y z
#
# Youngs Moduli (GPa) = 24.47724 24.47724 39.09282
#
# Poissons Ratio (x) = -0.65070 -0.25012
# Poissons Ratio (y) = -0.65070 -0.25012
# Poissons Ratio (z) = -0.15661 -0.15661
#
# Static dielectric constant tensor:
#      x y z
#    x 1.572890 0.000000 0.000000 
#    y 0.000000 1.572890 0.000000 
#    z 0.000000 0.000000 1.571550 
# 
# From -- ./inp_files/3183.got.cif
#   From: 2010.05.17/outbox.cif.g08.bks.cpg/sg177_2_cif.got.tgz:3183.got - 2010.05.20 11:28:44.
