data_PCOD9582149
_publ_section_title
;
Structure prediction by ZEFSAII (Michael W. Deem and Ramdas Pophale) SiO2 
 PCOD9582149
Probable space group: P 63/M
;
_chemical_formula_sum "Si O2"
_cell_formula_units_Z 84
_cell_length_a 18.000000
_cell_length_b 18.000000
_cell_length_c 15.000000
_cell_angle_alpha 90.000000
_cell_angle_beta 90.000000
_cell_angle_gamma 120.000000
_cell_volume 4208.883462
_symmetry_space_group_name_H-M "P 63/M"
_symmetry_group_IT_number 176
_symmetry_cell_setting 'hexagonal'
loop_
_space_group_symop_operation_xyz
x,y,z
x-y,x,1/2+z
-y,x-y,z
-x,-y,1/2+z
-x+y,-x,z
y,-x+y,1/2+z
-x,-y,-z
-x+y,-x,1/2-z
y,-x+y,-z
x,y,1/2-z
x-y,x,-z
-y,x-y,1/2-z
loop_
_atom_site_type_symbol
_atom_site_label
_atom_site_fract_x
_atom_site_fract_y
_atom_site_fract_z
Si Si1 0.753109 0.601558 0.031837
Si Si2 0.517672 0.575475 0.141912
Si Si3 0.686887 0.950967 0.356289
Si Si4 0.295914 0.276237 0.855354
Si Si5 0.429853 0.305462 0.354706
Si Si6 0.159458 0.975525 0.506552
Si Si7 0.424711 0.549135 0.957287
O O1 0.731029 0.660269 0.096190
O O2 0.837569 0.610612 0.076036
O O3 0.677477 0.503831 0.042910
O O4 0.752208 0.629887 0.929268
O O5 0.494124 0.555478 0.250000
O O6 0.600631 0.671204 0.141363
O O7 0.549116 0.514240 0.095402
O O8 0.453333 0.568686 0.061987
O O9 0.687975 0.929190 0.250000
O O10 0.655033 0.021230 0.358310
O O11 0.780268 0.999107 0.405132
O O12 0.271431 0.259684 0.750000
O O13 0.249859 0.196156 0.922495
O O14 0.432244 0.283561 0.250000
O O15 0.522743 0.367568 0.396436
O O16 0.063347 0.900269 0.523320
#
# Coordination Sequence:
#
# PCOD9582149 Si02
#       7
#    12  12  12  12  12  12  12
#     4  10  21  36  56  85 118 151 189 236 287 344
#     4   9  17  31  56  86 109 136 182 238 293 337
#     4  10  21  38  62  86 108 143 195 253 300 337
#     4   9  18  34  56  79 105 138 184 241 290 332
#     4  11  22  37  58  85 119 157 194 236 291 347
#     4  11  23  38  55  78 112 152 192 237 296 362
#     4  10  19  33  53  81 116 150 182 224 277 344
#
# _framework density 19.957787
#
# number of rings (size 3 to 8) (size 9 to 14) (size 15 to 20)
#    0.000    2.000    0.000    6.143    0.000    5.714 
#    0.857    2.143    0.000    2.571    0.000    0.000 
#    0.000    0.000    0.000    0.000    0.000    0.000 
#
# Total GULP energy -468007.726486 kJ/mol
# GULP energy per Si atom -5571.520553 kJ/mol
# Density = 1.991236 g / cm^3
# Si number density = 19.957787 Si / 1000 Ang^3
#
#
#
# Elastic Constant Matrix: (Units=GPa)
#
#
# Indices 1 2 3 4 5 6 
#
# 1 69.6842 19.4906 31.9713 0.0000 0.0000 0.0000
# 2 19.4906 69.6842 31.9713 0.0000 0.0000 0.0000
# 3 31.9713 31.9713 210.3401 0.0000 0.0000 0.0000
# 4 0.0000 0.0000 0.0000 23.2867 0.0000 0.0000
# 5 0.0000 0.0000 0.0000 0.0000 23.2867 0.0000
# 6 0.0000 0.0000 0.0000 0.0000 0.0000 25.0968
#
#
#
# Elastic Compliance Matrix: (Units=1/GPa)
#
#
# Indices 1 2 3 4 5 6 
#
# 1 0.016254 -0.003669 -0.001913 0.000000 0.000000 0.000000
# 2 -0.003669 0.016254 -0.001913 0.000000 0.000000 0.000000
# 3 -0.001913 -0.001913 0.005336 0.000000 0.000000 0.000000
# 4 0.000000 0.000000 0.000000 0.042943 0.000000 0.000000
# 5 0.000000 0.000000 0.000000 0.000000 0.042943 0.000000
# 6 0.000000 0.000000 0.000000 0.000000 0.000000 0.039846
#
#
# Mechanical properties :
#
#
# Convention : Reuss Voigt Hill
#
# Bulk Modulus (GPa) = 43.75400 57.39719 50.57559
# Shear Modulus (GPa) = 26.85525 32.08574 29.47050
#
# Velocity S-wave (km/s) = 3.67223 4.01394 3.84688
# Velocity P-wave (km/s) = 6.32069 7.09253 6.71771
#
# Compressibility (1/GPa) = 0.02285505
#
# Stress axis : x y z
#
# Youngs Moduli (GPa) = 61.52240 61.52240 187.41517
#
# Poissons Ratio (x) = 0.22570 0.35852
# Poissons Ratio (y) = 0.22570 0.35852
# Poissons Ratio (z) = 0.11769 0.11769
#
# Static dielectric constant tensor:
#      x y z
#    x 1.763740 0.000000 0.000000 
#    y 0.000000 1.763740 0.000000 
#    z 0.000000 0.000000 1.668640 
# 
# From -- ./inp_files/2933.got.cif
#   From: 2010.05.17/outbox.ucp.g08.bks.cvg/sg176_2_cif.got.tgz:2933.got - 2010.06.11 15:18:56.
