data_PCOD9582037
_publ_section_title
;
Structure prediction by ZEFSAII (Michael W. Deem and Ramdas Pophale) SiO2 
 PCOD9582037
Probable space group: P 63/M
;
_chemical_formula_sum "Si O2"
_cell_formula_units_Z 54
_cell_length_a 12.040799
_cell_length_b 12.040799
_cell_length_c 22.573417
_cell_angle_alpha 90.000000
_cell_angle_beta 90.000000
_cell_angle_gamma 120.000000
_cell_volume 2834.252572
_symmetry_space_group_name_H-M "P 63/M"
_symmetry_group_IT_number 176
_symmetry_cell_setting 'hexagonal'
loop_
_space_group_symop_operation_xyz
x,y,z
x-y,x,1/2+z
-y,x-y,z
-x,-y,1/2+z
-x+y,-x,z
y,-x+y,1/2+z
-x,-y,-z
-x+y,-x,1/2-z
y,-x+y,-z
x,y,1/2-z
x-y,x,-z
-y,x-y,1/2-z
loop_
_atom_site_type_symbol
_atom_site_label
_atom_site_fract_x
_atom_site_fract_y
_atom_site_fract_z
Si Si1 0.582135 0.919444 0.569694
Si Si2 0.382072 0.933429 0.182144
Si Si3 0.031758 0.870309 0.250000
Si Si4 0.722999 0.618179 0.846713
Si Si5 0.927747 0.600714 0.042820
O O1 0.443365 0.899083 0.552112
O O2 0.599855 0.800205 0.558514
O O3 0.603599 0.956808 0.638140
O O4 0.673961 0.031139 0.524546
O O5 0.355706 0.947893 0.250000
O O6 0.513006 0.928590 0.178664
O O7 0.258815 0.806896 0.156634
O O8 0.052701 0.799117 0.306355
O O9 0.896087 0.870236 0.250000
O O10 0.691425 0.650148 0.911757
#
# Coordination Sequence:
#
# PCOD9582037 Si02
#       5
#    12  12   6  12  12
#     4  10  22  39  61  87 118 157 201 261 313 381
#     4  11  21  37  63  91 122 160 211 264 309 359
#     4  10  24  38  58  92 134 176 200 246 316 396
#     4  11  22  39  63  93 126 167 214 266 312 369
#     4  10  22  40  63  88 120 160 209 260 320 379
#
# _framework density 19.052643
#
# number of rings (size 3 to 8) (size 9 to 14) (size 15 to 20)
#    0.222    1.333    2.222    2.222    3.111    0.000 
#    0.000    4.444    0.000    1.778    0.000    0.000 
#    0.000    0.000    0.000    0.000    0.000    0.000 
#
# Total GULP energy -301244.255091 kJ/mol
# GULP energy per Si atom -5578.597317 kJ/mol
# Density = 1.900928 g / cm^3
# Si number density = 19.052643 Si / 1000 Ang^3
#
#
#
# Elastic Constant Matrix: (Units=GPa)
#
#
# Indices 1 2 3 4 5 6 
#
# 1 51.7337 97.9113 41.4110 0.0000 0.0000 0.0000
# 2 97.9113 51.7337 41.4110 0.0000 0.0000 0.0000
# 3 41.4110 41.4110 88.9069 0.0000 0.0000 0.0000
# 4 0.0000 0.0000 0.0000 -2.1343 0.0000 0.0000
# 5 0.0000 0.0000 0.0000 0.0000 -2.1343 0.0000
# 6 0.0000 0.0000 0.0000 0.0000 0.0000 -23.0888
#
#
#
# Elastic Compliance Matrix: (Units=1/GPa)
#
#
# Indices 1 2 3 4 5 6 
#
# 1 -0.006326 0.015329 -0.004194 0.000000 0.000000 0.000000
# 2 0.015329 -0.006326 -0.004194 0.000000 0.000000 0.000000
# 3 -0.004194 -0.004194 0.015154 0.000000 0.000000 0.000000
# 4 0.000000 0.000000 0.000000 -0.468539 0.000000 0.000000
# 5 0.000000 0.000000 0.000000 0.000000 -0.468539 0.000000
# 6 0.000000 0.000000 0.000000 0.000000 0.000000 -0.043311
#
#
# Mechanical properties :
#
#
# Convention : Reuss Voigt Hill
#
# Bulk Modulus (GPa) = 61.02487 61.53785 61.28136
# Shear Modulus (GPa) = -5.06940 -4.69540 -4.88240
#
# Velocity S-wave (km/s) = -1.63295 -1.57156 -1.60254
# Velocity P-wave (km/s) = 5.34264 5.39221 5.36748
#
# Compressibility (1/GPa) = 0.01638676
#
# Stress axis : x y z
#
# Youngs Moduli (GPa) = -158.07714 -158.07714 65.98777
#
# Poissons Ratio (x) = 2.42324 0.27673
# Poissons Ratio (y) = 2.42324 0.27673
# Poissons Ratio (z) = -0.66292 -0.66292
#
# Static dielectric constant tensor:
#      x y z
#    x 1.664890 0.000000 0.000000 
#    y 0.000000 1.664890 0.000000 
#    z 0.000000 0.000000 1.671160 
# 
# From -- ./inp_files/4007.got.cif
#   From: 2010.05.17/outbox.cif.g08.bks.cpg/sg176_3_cif.got.tgz:4007.got - 2010.06.03 11:36:45.
