data_PCOD9582189
_publ_section_title
;
Structure prediction by ZEFSAII (Michael W. Deem and Ramdas Pophale) SiO2 
 PCOD9582189
Probable space group: P 6 2 2
;
_chemical_formula_sum "Si O2"
_cell_formula_units_Z 74
_cell_length_a 12.400625
_cell_length_b 12.400625
_cell_length_c 28.611577
_cell_angle_alpha 90.000000
_cell_angle_beta 90.000000
_cell_angle_gamma 120.000000
_cell_volume 3810.303558
_symmetry_space_group_name_H-M "P 6 2 2"
_symmetry_group_IT_number 177
_symmetry_cell_setting 'hexagonal'
loop_
_space_group_symop_operation_xyz
x,y,z
x-y,x,z
-y,x-y,z
-x,-y,z
-x+y,-x,z
y,-x+y,z
x-y,-y,-z
-x,-x+y,-z
y,x,-z
-y,-x,-z
-x+y,y,-z
x,x-y,-z
loop_
_atom_site_type_symbol
_atom_site_label
_atom_site_fract_x
_atom_site_fract_y
_atom_site_fract_z
Si Si1 0.646822 0.573472 0.591619
Si Si2 0.333334 0.666667 0.278849
Si Si3 0.333333 0.666667 0.392250
Si Si4 0.267693 0.019500 0.049409
Si Si5 0.000000 0.258686 0.500000
Si Si6 0.777465 0.719116 0.149295
Si Si7 0.021228 0.265012 0.316049
Si Si8 0.440397 0.079501 0.237437
O O1 0.500000 0.500000 0.600109
O O2 0.686968 0.467175 0.590899
O O3 0.676138 0.654621 0.544862
O O4 0.710131 0.668211 0.634216
O O5 0.333334 0.666667 0.335492
O O6 0.333923 0.543733 0.260161
O O7 0.242550 0.135098 0.049446
O O8 0.337805 0.047051 0.099199
O O9 0.319999 0.000000 0.000000
O O10 0.122766 0.245531 0.500000
O O11 0.762400 0.839901 0.151425
O O12 0.723507 0.630248 0.193577
O O13 0.007029 0.348996 0.276887
O O14 0.136392 0.243045 0.310840
O O15 0.500000 0.000000 0.219526
#
# Coordination Sequence:
#
# PCOD9582189 Si02
#       8
#    12   4   4  12   6  12  12  12
#     4  12  25  43  68  97 129 166 209 259 313 372
#     4  12  24  42  66  91 124 166 211 264 321 385
#     4  12  24  45  73 100 129 171 223 277 330 388
#     4   8  13  22  40  68 103 143 186 235 293 358
#     4  12  26  46  68  94 128 166 208 256 314 380
#     4  10  19  32  51  79 115 152 192 242 302 369
#     4  12  24  41  63  90 122 157 198 245 302 370
#     4  12  24  39  59  84 114 153 199 250 308 372
#
# _framework density 19.421025
#
# number of rings (size 3 to 8) (size 9 to 14) (size 15 to 20)
#    0.000    0.973    0.000   10.054    0.000    1.946 
#    0.000    4.865    0.000    0.486    0.000    0.000 
#    0.000    2.595    0.000    0.000    0.000    0.000 
#
# Total GULP energy -412874.462642 kJ/mol
# GULP energy per Si atom -5579.384630 kJ/mol
# Density = 1.937682 g / cm^3
# Si number density = 19.421025 Si / 1000 Ang^3
#
#
#
# Elastic Constant Matrix: (Units=GPa)
#
#
# Indices 1 2 3 4 5 6 
#
# 1 75.7872 10.9500 11.6219 -0.0001 0.0000 0.0000
# 2 10.9500 75.7876 11.6221 -0.0001 -0.0002 0.0001
# 3 11.6219 11.6221 106.4322 -0.0001 0.0001 0.0000
# 4 -0.0001 -0.0001 -0.0001 44.5438 0.0002 0.0001
# 5 0.0000 -0.0002 0.0001 0.0002 44.5439 0.0000
# 6 0.0000 0.0001 0.0000 0.0001 0.0000 32.4189
#
#
#
# Elastic Compliance Matrix: (Units=1/GPa)
#
#
# Indices 1 2 3 4 5 6 
#
# 1 0.013650 -0.001773 -0.001297 0.000000 0.000000 0.000000
# 2 -0.001773 0.013650 -0.001297 0.000000 0.000000 0.000000
# 3 -0.001297 -0.001297 0.009679 0.000000 0.000000 0.000000
# 4 0.000000 0.000000 0.000000 0.022450 0.000000 0.000000
# 5 0.000000 0.000000 0.000000 0.000000 0.022450 0.000000
# 6 0.000000 0.000000 0.000000 0.000000 0.000000 0.030846
#
#
# Mechanical properties :
#
#
# Convention : Reuss Voigt Hill
#
# Bulk Modulus (GPa) = 35.40505 36.26610 35.83558
# Shear Modulus (GPa) = 38.20485 39.22219 38.71352
#
# Velocity S-wave (km/s) = 4.44011 4.49884 4.46957
# Velocity P-wave (km/s) = 6.67503 6.76020 6.71775
#
# Compressibility (1/GPa) = 0.02824456
#
# Stress axis : x y z
#
# Youngs Moduli (GPa) = 73.26051 73.26082 103.31774
#
# Poissons Ratio (x) = 0.12991 0.13399
# Poissons Ratio (y) = 0.12991 0.13399
# Poissons Ratio (z) = 0.09501 0.09501
#
# Static dielectric constant tensor:
#      x y z
#    x 1.545320 0.000000 0.000000 
#    y 0.000000 1.545320 0.000000 
#    z 0.000000 0.000000 1.719060 
# 
# From -- ./inp_files/3305.got.cif
#   From: 2010.05.17/outbox.cif.g08.bks.cpg/sg177_2_cif.got.tgz:3305.got - 2010.05.20 11:28:44.
