data_PCOD9582580
_publ_section_title
;
Structure prediction by ZEFSAII (Michael W. Deem and Ramdas Pophale) SiO2 
 PCOD9582580
Probable space group: P 61 2 2
;
_chemical_formula_sum "Si O2"
_cell_formula_units_Z 72
_cell_length_a 15.851811
_cell_length_b 15.851811
_cell_length_c 17.904805
_cell_angle_alpha 90.000000
_cell_angle_beta 90.000000
_cell_angle_gamma 120.000000
_cell_volume 3896.350331
_symmetry_space_group_name_H-M "P 61 2 2"
_symmetry_group_IT_number 178
_symmetry_cell_setting 'hexagonal'
loop_
_space_group_symop_operation_xyz
x,y,z
x-y,x,1/6+z
-y,x-y,1/3+z
-x,-y,1/2+z
-x+y,-x,2/3+z
y,-x+y,5/6+z
x-y,-y,-z
-x,-x+y,2/3-z
y,x,1/3-z
-y,-x,5/6-z
-x+y,y,1/2-z
x,x-y,1/6-z
loop_
_atom_site_type_symbol
_atom_site_label
_atom_site_fract_x
_atom_site_fract_y
_atom_site_fract_z
Si Si1 0.768476 0.231524 0.416667
Si Si2 0.340653 0.041116 0.176230
Si Si3 0.561789 0.247094 0.928721
Si Si4 0.535532 0.860721 0.062987
Si Si5 0.649580 0.819565 0.802442
Si Si6 0.568387 0.652096 0.272705
Si Si7 0.529693 0.059385 0.250000
O O1 0.879741 0.276581 0.444541
O O2 0.764981 0.293397 0.347705
O O3 0.314443 0.101471 0.235869
O O4 0.245451 0.944334 0.149032
O O5 0.419969 0.016397 0.214452
O O6 0.640499 0.359502 0.916667
O O7 0.614068 0.187476 0.905674
O O8 0.462623 0.206427 0.884128
O O9 0.573355 0.786678 0.083334
O O10 0.599229 0.967741 0.095718
O O11 0.525124 0.870812 0.974191
O O12 0.640443 0.876136 0.872881
O O13 0.491902 0.594466 0.339856
#
# Coordination Sequence:
#
# PCOD9582580 Si02
#       7
#     6  12  12  12  12  12   6
#     4  10  22  36  63  84 126 164 200 259 304 372
#     4  10  22  38  60  91 119 165 205 262 311 382
#     4  10  22  36  54  90 125 162 209 242 301 368
#     4  10  22  39  56  89 120 166 203 256 311 372
#     4  10  23  38  60  90 117 162 211 254 320 368
#     4  10  22  37  61  84 122 161 205 256 306 380
#     4  10  20  36  63  88 124 164 206 249 314 372
#
# _framework density 18.478831
#
# number of rings (size 3 to 8) (size 9 to 14) (size 15 to 20)
#    0.000    2.000    0.000    2.000   17.500    4.000 
#    0.000    0.000    0.000    0.000    6.500    0.000 
#    0.000    0.000    0.000    0.000    0.000    0.000 
#
# Total GULP energy -401033.484547 kJ/mol
# GULP energy per Si atom -5569.909508 kJ/mol
# Density = 1.843677 g / cm^3
# Si number density = 18.478831 Si / 1000 Ang^3
#
#
#
# Elastic Constant Matrix: (Units=GPa)
#
#
# Indices 1 2 3 4 5 6 
#
# 1 104.9193 62.5462 37.2852 0.0000 0.0000 0.0000
# 2 62.5462 104.9193 37.2852 0.0000 0.0000 0.0000
# 3 37.2852 37.2852 68.8567 0.0000 0.0000 0.0000
# 4 0.0000 0.0000 0.0000 21.3148 0.0000 0.0000
# 5 0.0000 0.0000 0.0000 0.0000 21.3148 0.0000
# 6 0.0000 0.0000 0.0000 0.0000 0.0000 21.1865
#
#
#
# Elastic Compliance Matrix: (Units=1/GPa)
#
#
# Indices 1 2 3 4 5 6 
#
# 1 0.015734 -0.007866 -0.004261 0.000000 0.000000 0.000000
# 2 -0.007866 0.015734 -0.004261 0.000000 0.000000 0.000000
# 3 -0.004261 -0.004261 0.019137 0.000000 0.000000 0.000000
# 4 0.000000 0.000000 0.000000 0.046916 0.000000 0.000000
# 5 0.000000 0.000000 0.000000 0.000000 0.046916 0.000000
# 6 0.000000 0.000000 0.000000 0.000000 0.000000 0.047200
#
#
# Mechanical properties :
#
#
# Convention : Reuss Voigt Hill
#
# Bulk Modulus (GPa) = 56.08084 61.43647 58.75866
# Shear Modulus (GPa) = 21.70558 22.20179 21.95369
#
# Velocity S-wave (km/s) = 3.43099 3.46999 3.45054
# Velocity P-wave (km/s) = 6.79045 7.02663 6.90955
#
# Compressibility (1/GPa) = 0.01783140
#
# Stress axis : x y z
#
# Youngs Moduli (GPa) = 63.55551 63.55551 52.25408
#
# Poissons Ratio (x) = 0.49990 0.22264
# Poissons Ratio (y) = 0.49990 0.22264
# Poissons Ratio (z) = 0.27080 0.27080
#
# Static dielectric constant tensor:
#      x y z
#    x 1.638240 0.000000 0.000000 
#    y 0.000000 1.638240 0.000000 
#    z 0.000000 0.000000 1.668830 
# 
# From -- ./inp_files/6819.got.cif
#   From: 2010.05.17/outbox.cif.g08.bks.cpg/sg178_4_cif.got.tgz:6819.got - 2010.05.20 11:30:59.
