data_PCOD9582612
_publ_section_title
;
Structure prediction by ZEFSAII (Michael W. Deem and Ramdas Pophale) SiO2 
 PCOD9582612
Probable space group: P 61 2 2
;
_chemical_formula_sum "Si O2"
_cell_formula_units_Z 84
_cell_length_a 17.877988
_cell_length_b 17.877988
_cell_length_c 14.858750
_cell_angle_alpha 90.000000
_cell_angle_beta 90.000000
_cell_angle_gamma 120.000000
_cell_volume 4112.919319
_symmetry_space_group_name_H-M "P 61 2 2"
_symmetry_group_IT_number 178
_symmetry_cell_setting 'hexagonal'
loop_
_space_group_symop_operation_xyz
x,y,z
x-y,x,1/6+z
-y,x-y,1/3+z
-x,-y,1/2+z
-x+y,-x,2/3+z
y,-x+y,5/6+z
x-y,-y,-z
-x,-x+y,2/3-z
y,x,1/3-z
-y,-x,5/6-z
-x+y,y,1/2-z
x,x-y,1/6-z
loop_
_atom_site_type_symbol
_atom_site_label
_atom_site_fract_x
_atom_site_fract_y
_atom_site_fract_z
Si Si1 0.467141 0.570264 0.164548
Si Si2 0.203658 0.714763 0.196752
Si Si3 0.790187 0.269052 0.321940
Si Si4 0.179568 0.900211 0.639037
Si Si5 0.171666 0.899829 0.008507
Si Si6 0.355805 0.494877 0.863352
Si Si7 0.310492 0.090897 0.653664
O O1 0.525952 0.525952 0.166667
O O2 0.479148 0.623767 0.255515
O O3 0.367465 0.502533 0.148641
O O4 0.490100 0.630044 0.076300
O O5 0.238258 0.724422 0.095127
O O6 0.148365 0.764020 0.195172
O O7 0.287865 0.769902 0.258967
O O8 0.743344 0.256657 0.416667
O O9 0.839267 0.214678 0.323222
O O10 0.131473 0.885550 0.734454
O O11 0.109236 0.850228 0.563397
O O12 0.245422 0.998364 0.613825
O O13 0.118867 0.881134 0.916667
O O14 0.243205 0.000000 0.000000
O O15 0.446408 0.553593 0.916667
O O16 0.303767 0.390230 0.867275
O O17 0.340941 0.170471 0.583334
#
# Coordination Sequence:
#
# PCOD9582612 Si02
#       7
#    12  12  12  12  12  12  12
#     4  12  24  42  65  96 128 169 226 286 341 406
#     4  10  22  42  64  90 129 174 221 273 338 408
#     4  10  23  43  59  91 129 168 218 272 334 396
#     4  10  21  38  64  93 126 164 219 267 326 395
#     4  10  20  38  63  88 119 162 207 259 316 385
#     4  11  22  41  64  92 129 173 218 270 337 397
#     4  11  22  39  65  97 128 168 216 274 331 396
#
# _framework density 20.423448
#
# number of rings (size 3 to 8) (size 9 to 14) (size 15 to 20)
#    0.000    1.429    1.429    4.714    0.000    1.143 
#   12.857    0.000    0.000    8.571    0.000    0.000 
#    0.000    0.000    0.000    0.000    0.000    0.000 
#
# Total GULP energy -468594.077848 kJ/mol
# GULP energy per Si atom -5578.500927 kJ/mol
# Density = 2.037696 g / cm^3
# Si number density = 20.423448 Si / 1000 Ang^3
#
#
#
# Elastic Constant Matrix: (Units=GPa)
#
#
# Indices 1 2 3 4 5 6 
#
# 1 60.2982 32.2617 41.3275 0.0000 0.0000 0.0000
# 2 32.2617 60.2982 41.3275 0.0000 0.0000 0.0000
# 3 41.3275 41.3275 134.7322 0.0000 0.0000 0.0000
# 4 0.0000 0.0000 0.0000 17.2436 0.0000 0.0000
# 5 0.0000 0.0000 0.0000 0.0000 17.2436 0.0000
# 6 0.0000 0.0000 0.0000 0.0000 0.0000 14.0183
#
#
#
# Elastic Compliance Matrix: (Units=1/GPa)
#
#
# Indices 1 2 3 4 5 6 
#
# 1 0.025274 -0.010394 -0.004564 0.000000 0.000000 0.000000
# 2 -0.010394 0.025274 -0.004564 0.000000 0.000000 0.000000
# 3 -0.004564 -0.004564 0.010222 0.000000 0.000000 0.000000
# 4 0.000000 0.000000 0.000000 0.057993 0.000000 0.000000
# 5 0.000000 0.000000 0.000000 0.000000 0.057993 0.000000
# 6 0.000000 0.000000 0.000000 0.000000 0.000000 0.071335
#
#
# Mechanical properties :
#
#
# Convention : Reuss Voigt Hill
#
# Bulk Modulus (GPa) = 46.03059 53.90690 49.96875
# Shear Modulus (GPa) = 16.98506 19.06188 18.02347
#
# Velocity S-wave (km/s) = 2.88695 3.05836 2.97389
# Velocity P-wave (km/s) = 5.80515 6.23886 6.02591
#
# Compressibility (1/GPa) = 0.02172468
#
# Stress axis : x y z
#
# Youngs Moduli (GPa) = 39.56696 39.56696 97.82720
#
# Poissons Ratio (x) = 0.41126 0.44649
# Poissons Ratio (y) = 0.41126 0.44649
# Poissons Ratio (z) = 0.18059 0.18059
#
# Static dielectric constant tensor:
#      x y z
#    x 1.732080 0.000000 0.000000 
#    y 0.000000 1.732080 0.000000 
#    z 0.000000 0.000000 1.768130 
# 
# From -- ./inp_files/6043.got.cif
#   From: 2010.05.17/outbox.cif.g08.bks.cpg/sg178_4_cif.got.tgz:6043.got - 2010.05.20 11:30:59.
