data_PCOD9582217
_publ_section_title
;
Structure prediction by ZEFSAII (Michael W. Deem and Ramdas Pophale) SiO2 
 PCOD9582217
Probable space group: P 6 2 2
;
_chemical_formula_sum "Si O2"
_cell_formula_units_Z 60
_cell_length_a 18.360559
_cell_length_b 18.360559
_cell_length_c 12.348335
_cell_angle_alpha 90.000000
_cell_angle_beta 90.000000
_cell_angle_gamma 120.000000
_cell_volume 3605.046191
_symmetry_space_group_name_H-M "P 6 2 2"
_symmetry_group_IT_number 177
_symmetry_cell_setting 'hexagonal'
loop_
_space_group_symop_operation_xyz
x,y,z
x-y,x,z
-y,x-y,z
-x,-y,z
-x+y,-x,z
y,-x+y,z
x-y,-y,-z
-x,-x+y,-z
y,x,-z
-y,-x,-z
-x+y,y,-z
x,x-y,-z
loop_
_atom_site_type_symbol
_atom_site_label
_atom_site_fract_x
_atom_site_fract_y
_atom_site_fract_z
Si Si1 0.593119 0.013217 0.872552
Si Si2 0.557412 0.153916 0.388521
Si Si3 0.557430 0.278715 0.000000
Si Si4 0.105900 0.412835 0.305150
Si Si5 0.804234 0.272998 0.214610
Si Si6 0.387778 0.000000 0.500000
O O1 0.665512 0.104122 0.833560
O O2 0.500000 0.000000 0.849501
O O3 0.607875 0.949243 0.801841
O O4 0.596324 0.000000 0.000000
O O5 0.599611 0.199221 0.500000
O O6 0.622352 0.131898 0.331985
O O7 0.535624 0.205991 0.305539
O O8 0.470558 0.068913 0.430303
O O9 0.620727 0.241454 0.000000
O O10 0.506408 0.255408 0.110523
O O11 0.187623 0.406659 0.277289
O O12 0.051547 0.367646 0.411522
#
# Coordination Sequence:
#
# PCOD9582217 Si02
#       6
#    12  12   6  12  12   6
#     4  11  22  35  56  74 100 143 191 228 284 356
#     4  10  20  35  54  76 100 139 180 227 286 335
#     4  10  24  36  48  72 119 136 172 256 301 324
#     4  11  20  36  53  73 106 131 182 237 273 341
#     4  12  22  35  56  79  99 146 190 227 298 343
#     4  10  19  36  58  72 104 142 180 237 288 337
#
# _framework density 16.643336999999999
#
# number of rings (size 3 to 8) (size 9 to 14) (size 15 to 20)
#    0.200    1.000    4.000    5.100    2.800    3.200 
#    1.200    0.000    0.000    0.000    0.000    0.000 
#    0.000    0.000    0.000    0.600    0.000    8.200 
#
# Total GULP energy -334542.041494 kJ/mol
# GULP energy per Si atom -5575.700692 kJ/mol
# Density = 1.660546 g / cm^3
# Si number density = 16.643337 Si / 1000 Ang^3
#
#
#
# Elastic Constant Matrix: (Units=GPa)
#
#
# Indices 1 2 3 4 5 6 
#
# 1 49.5858 27.0367 32.0615 0.0000 0.0000 0.0000
# 2 27.0367 49.5858 32.0615 0.0000 0.0000 0.0000
# 3 32.0615 32.0615 120.9331 0.0000 0.0000 0.0000
# 4 0.0000 0.0000 0.0000 5.2007 0.0000 0.0000
# 5 0.0000 0.0000 0.0000 0.0000 5.2007 0.0000
# 6 0.0000 0.0000 0.0000 0.0000 0.0000 11.2745
#
#
#
# Elastic Compliance Matrix: (Units=1/GPa)
#
#
# Indices 1 2 3 4 5 6 
#
# 1 0.030560 -0.013788 -0.004447 0.000000 0.000000 0.000000
# 2 -0.013788 0.030560 -0.004447 0.000000 0.000000 0.000000
# 3 -0.004447 -0.004447 0.010627 0.000000 0.000000 0.000000
# 4 0.000000 0.000000 0.000000 0.192282 0.000000 0.000000
# 5 0.000000 0.000000 0.000000 0.000000 0.192282 0.000000
# 6 0.000000 0.000000 0.000000 0.000000 0.000000 0.088695
#
#
# Mechanical properties :
#
#
# Convention : Reuss Voigt Hill
#
# Bulk Modulus (GPa) = 37.90062 44.71378 41.30720
# Shear Modulus (GPa) = 8.34497 12.93152 10.63825
#
# Velocity S-wave (km/s) = 2.24163 2.79046 2.53096
# Velocity P-wave (km/s) = 5.43337 6.10790 5.78048
#
# Compressibility (1/GPa) = 0.02638479
#
# Stress axis : x y z
#
# Youngs Moduli (GPa) = 32.72256 32.72256 94.10191
#
# Poissons Ratio (x) = 0.45117 0.41843
# Poissons Ratio (y) = 0.45117 0.41843
# Poissons Ratio (z) = 0.14550 0.14550
#
# Static dielectric constant tensor:
#      x y z
#    x 1.608250 0.000000 0.000000 
#    y 0.000000 1.608250 0.000000 
#    z 0.000000 0.000000 1.609930 
# 
# From -- ./inp_files/2013.got.cif
#   From: 2010.05.17/outbox.cif.g08.bks.cpg/sg177_2_cif.got.tgz:2013.got - 2010.05.20 11:28:44.
