data_PCOD9582090
_publ_section_title
;
Structure prediction by ZEFSAII (Michael W. Deem and Ramdas Pophale) SiO2 
 PCOD9582090
Probable space group: P 63/M
;
_chemical_formula_sum "Si O2"
_cell_formula_units_Z 46
_cell_length_a 13.448721
_cell_length_b 13.448721
_cell_length_c 11.676695
_cell_angle_alpha 90.000000
_cell_angle_beta 90.000000
_cell_angle_gamma 120.000000
_cell_volume 1828.995076
_symmetry_space_group_name_H-M "P 63/M"
_symmetry_group_IT_number 176
_symmetry_cell_setting 'hexagonal'
loop_
_space_group_symop_operation_xyz
x,y,z
x-y,x,1/2+z
-y,x-y,z
-x,-y,1/2+z
-x+y,-x,z
y,-x+y,1/2+z
-x,-y,-z
-x+y,-x,1/2-z
y,-x+y,-z
x,y,1/2-z
x-y,x,-z
-y,x-y,1/2-z
loop_
_atom_site_type_symbol
_atom_site_label
_atom_site_fract_x
_atom_site_fract_y
_atom_site_fract_z
Si Si1 0.067287 0.321468 0.008372
Si Si2 0.481724 0.140064 0.516751
Si Si3 0.333335 0.666667 0.881939
Si Si4 0.749704 0.075647 0.250000
Si Si5 0.719149 0.704420 0.250000
Si Si6 0.549225 0.479456 0.750000
O O1 0.203100 0.402994 0.015149
O O2 0.028255 0.253423 0.129950
O O3 0.038699 0.268290 0.878051
O O4 0.991841 0.384235 0.010963
O O5 0.582650 0.207233 0.429011
O O6 0.532667 0.145678 0.640244
O O7 0.333334 0.666668 0.750000
O O8 0.846729 0.209528 0.250000
O O9 0.614116 0.032552 0.250000
O O10 0.583711 0.614880 0.250000
#
# Coordination Sequence:
#
# PCOD9582090 Si02
#       6
#    12  12   4   6   6   6
#     4  11  24  47  73 107 143 204 247 315 377 446
#     4  11  25  48  73 108 152 197 256 313 382 456
#     4  12  30  43  68 115 153 207 262 314 376 456
#     4  10  24  46  66 108 144 190 250 296 379 441
#     4  12  23  45  77 106 151 202 246 317 376 456
#     4  10  25  47  75 104 153 198 256 309 385 463
#
# _framework density 25.150424000000001
#
# number of rings (size 3 to 8) (size 9 to 14) (size 15 to 20)
#    0.000    1.043    2.609    2.348    3.652   10.435 
#    0.783    0.000    0.000    0.522    0.000    0.000 
#    0.000    0.000    0.000    0.000    0.000    0.000 
#
# Total GULP energy -257046.628297 kJ/mol
# GULP energy per Si atom -5587.970180 kJ/mol
# Density = 2.509318 g / cm^3
# Si number density = 25.150424 Si / 1000 Ang^3
#
#
#
# Elastic Constant Matrix: (Units=GPa)
#
#
# Indices 1 2 3 4 5 6 
#
# 1 98.3172 32.8941 43.3816 0.0000 0.0000 -0.0005
# 2 32.8941 98.3183 43.3813 0.0000 0.0000 -0.0002
# 3 43.3816 43.3813 312.8101 0.0000 0.0000 0.0001
# 4 0.0000 0.0000 0.0000 32.9174 0.0000 0.0000
# 5 0.0000 0.0000 0.0000 0.0000 32.9170 0.0000
# 6 -0.0005 -0.0002 0.0001 0.0000 0.0000 32.7122
#
#
#
# Elastic Compliance Matrix: (Units=1/GPa)
#
#
# Indices 1 2 3 4 5 6 
#
# 1 0.011838 -0.003447 -0.001164 0.000000 0.000000 0.000000
# 2 -0.003447 0.011838 -0.001164 0.000000 0.000000 0.000000
# 3 -0.001164 -0.001164 0.003520 0.000000 0.000000 0.000000
# 4 0.000000 0.000000 0.000000 0.030379 0.000000 0.000000
# 5 0.000000 0.000000 0.000000 0.000000 0.030379 0.000000
# 6 0.000000 0.000000 0.000000 0.000000 0.000000 0.030570
#
#
# Mechanical properties :
#
#
# Convention : Reuss Voigt Hill
#
# Bulk Modulus (GPa) = 63.91237 83.19550 73.55393
# Shear Modulus (GPa) = 36.95826 45.69523 41.32674
#
# Velocity S-wave (km/s) = 3.83755 4.26711 4.05802
# Velocity P-wave (km/s) = 6.71587 7.57817 7.16001
#
# Compressibility (1/GPa) = 0.01564642
#
# Stress axis : x y z
#
# Youngs Moduli (GPa) = 84.47419 84.47527 284.12439
#
# Poissons Ratio (x) = 0.29120 0.33063
# Poissons Ratio (y) = 0.29119 0.33062
# Poissons Ratio (z) = 0.09830 0.09830
#
# Static dielectric constant tensor:
#      x y z
#    x 1.973710 0.000000 0.000000 
#    y 0.000000 1.973710 0.000000 
#    z 0.000000 0.000000 2.104410 
# 
# From -- ./inp_files/1723.got.cif
#   From: 2010.05.17/outbox.cif.g08.bks.cpg/sg176_1_cif.got.tgz:1723.got - 2010.06.03 11:36:45.
