data_PCOD9582418
_publ_section_title
;
Structure prediction by ZEFSAII (Michael W. Deem and Ramdas Pophale) SiO2 
 PCOD9582418
Probable space group: P 61 2 2
;
_chemical_formula_sum "Si O2"
_cell_formula_units_Z 66
_cell_length_a 25.994386
_cell_length_b 25.994386
_cell_length_c 5.249846
_cell_angle_alpha 90.000000
_cell_angle_beta 90.000000
_cell_angle_gamma 120.000000
_cell_volume 3072.106894
_symmetry_space_group_name_H-M "P 61 2 2"
_symmetry_group_IT_number 178
_symmetry_cell_setting 'hexagonal'
loop_
_space_group_symop_operation_xyz
x,y,z
x-y,x,1/6+z
-y,x-y,1/3+z
-x,-y,1/2+z
-x+y,-x,2/3+z
y,-x+y,5/6+z
x-y,-y,-z
-x,-x+y,2/3-z
y,x,1/3-z
-y,-x,5/6-z
-x+y,y,1/2-z
x,x-y,1/6-z
loop_
_atom_site_type_symbol
_atom_site_label
_atom_site_fract_x
_atom_site_fract_y
_atom_site_fract_z
Si Si1 0.255490 0.979356 0.246766
Si Si2 0.874688 0.604381 0.076871
Si Si3 0.530545 0.765273 0.583334
Si Si4 0.516951 0.098621 0.507613
Si Si5 0.769943 0.436130 0.419298
Si Si6 0.931804 0.600520 0.575019
O O1 0.235665 0.910972 0.217411
O O2 0.239287 0.000000 0.500000
O O3 0.329791 0.017082 0.254214
O O4 0.237159 0.000000 0.000000
O O5 0.883280 0.597695 0.374200
O O6 0.809526 0.570381 0.969466
O O7 0.908799 0.584666 0.866072
O O8 0.486509 0.702196 0.460699
O O9 0.552504 0.105007 0.250000
O O10 0.537140 0.168024 0.570744
O O11 0.449645 0.059987 0.401077
O O12 0.537651 0.075301 0.750000
O O13 0.713952 0.427903 0.250000
O O14 0.756064 0.378032 0.583334
#
# Coordination Sequence:
#
# PCOD9582418 Si02
#       6
#    12  12   6  12  12  12
#     4   8  16  30  52  75  96 118 144 175 212 265
#     4  10  20  33  54  79  97 122 149 183 222 267
#     4  12  24  38  58  76  98 130 156 198 232 282
#     4  11  23  38  54  75  95 115 144 187 230 273
#     4  11  27  42  53  70  94 123 159 196 238 283
#     4  10  18  35  55  74  97 122 150 179 226 272
#
# _framework density 21.483628
#
# number of rings (size 3 to 8) (size 9 to 14) (size 15 to 20)
#    0.000    1.818    1.818    2.182    7.636    0.727 
#    0.000    0.000    0.000   19.636    0.000    0.000 
#    0.000    0.000    0.000    0.000    0.000    0.000 
#
# Total GULP energy -367905.009295 kJ/mol
# GULP energy per Si atom -5574.318323 kJ/mol
# Density = 2.143473 g / cm^3
# Si number density = 21.483628 Si / 1000 Ang^3
#
#
#
# Elastic Constant Matrix: (Units=GPa)
#
#
# Indices 1 2 3 4 5 6 
#
# 1 31.2682 27.1024 13.1126 0.0000 0.0000 0.0000
# 2 27.1024 31.2682 13.1126 0.0000 0.0000 0.0000
# 3 13.1126 13.1126 137.4789 0.0000 0.0000 0.0000
# 4 0.0000 0.0000 0.0000 24.9009 0.0000 0.0000
# 5 0.0000 0.0000 0.0000 0.0000 24.9009 0.0000
# 6 0.0000 0.0000 0.0000 0.0000 0.0000 2.0829
#
#
#
# Elastic Compliance Matrix: (Units=1/GPa)
#
#
# Indices 1 2 3 4 5 6 
#
# 1 0.128973 -0.111074 -0.001707 0.000000 0.000000 0.000000
# 2 -0.111074 0.128973 -0.001707 0.000000 0.000000 0.000000
# 3 -0.001707 -0.001707 0.007600 0.000000 0.000000 0.000000
# 4 0.000000 0.000000 0.000000 0.040159 0.000000 0.000000
# 5 0.000000 0.000000 0.000000 0.000000 0.040159 0.000000
# 6 0.000000 0.000000 0.000000 0.000000 0.000000 0.480093
#
#
# Mechanical properties :
#
#
# Convention : Reuss Voigt Hill
#
# Bulk Modulus (GPa) = 27.34584 34.07450 30.71017
# Shear Modulus (GPa) = 4.68550 20.15612 12.42081
#
# Velocity S-wave (km/s) = 1.47841 3.06634 2.40709
# Velocity P-wave (km/s) = 3.95861 5.33214 4.69587
#
# Compressibility (1/GPa) = 0.03656863
#
# Stress axis : x y z
#
# Youngs Moduli (GPa) = 7.75357 7.75357 131.58759
#
# Poissons Ratio (x) = 0.86122 0.22464
# Poissons Ratio (y) = 0.86122 0.22464
# Poissons Ratio (z) = 0.01324 0.01324
#
# Static dielectric constant tensor:
#      x y z
#    x 1.866840 0.000000 0.000000 
#    y 0.000000 1.866840 0.000000 
#    z 0.000000 0.000000 1.874110 
# 
# From -- ./inp_files/1573.got.cif
#   From: 2010.05.17/outbox.cif.g08.bks.cpg/sg178_1_cif.got.tgz:1573.got - 2010.05.20 11:30:59.
