data_PCOD9582660
_publ_section_title
;
Structure prediction by ZEFSAII (Michael W. Deem and Ramdas Pophale) SiO2 
 PCOD9582660
Probable space group: P 61 2 2
;
_chemical_formula_sum "Si O2"
_cell_formula_units_Z 42
_cell_length_a 8.942381
_cell_length_b 8.942381
_cell_length_c 26.700929
_cell_angle_alpha 90.000000
_cell_angle_beta 90.000000
_cell_angle_gamma 120.000000
_cell_volume 1849.112535
_symmetry_space_group_name_H-M "P 61 2 2"
_symmetry_group_IT_number 178
_symmetry_cell_setting 'hexagonal'
loop_
_space_group_symop_operation_xyz
x,y,z
x-y,x,1/6+z
-y,x-y,1/3+z
-x,-y,1/2+z
-x+y,-x,2/3+z
y,-x+y,5/6+z
x-y,-y,-z
-x,-x+y,2/3-z
y,x,1/3-z
-y,-x,5/6-z
-x+y,y,1/2-z
x,x-y,1/6-z
loop_
_atom_site_type_symbol
_atom_site_label
_atom_site_fract_x
_atom_site_fract_y
_atom_site_fract_z
Si Si1 0.665823 0.136617 0.058987
Si Si2 0.504895 0.495106 0.416667
Si Si3 0.904010 0.095991 0.916667
Si Si4 0.181134 0.469583 0.180278
Si Si5 0.912264 0.912264 0.666667
O O1 0.574291 0.185468 0.015594
O O2 0.554448 0.126690 0.108377
O O3 0.858587 0.301262 0.064562
O O4 0.691656 0.974223 0.059428
O O5 0.508737 0.613612 0.461876
O O6 0.908482 0.972216 0.873830
O O7 0.119029 0.268930 0.188581
#
# Coordination Sequence:
#
# PCOD9582660 Si02
#       5
#    12   6   6  12   6
#     4  10  25  46  73 108 146 185 246 300 359 427
#     4  10  20  45  79 102 140 196 232 302 344 442
#     4  12  26  45  75 108 142 186 252 306 356 424
#     4  10  23  48  71 107 146 195 237 289 375 429
#     4  12  26  48  76 100 148 202 236 294 368 444
#
# _framework density 22.713601000000001
#
# number of rings (size 3 to 8) (size 9 to 14) (size 15 to 20)
#    0.000    1.714    2.857    1.714    4.000    1.143 
#   25.714    1.429    0.000    0.000    0.000    0.000 
#    0.000    0.000    0.000    0.000    0.000    0.000 
#
# Total GULP energy -235039.144821 kJ/mol
# GULP energy per Si atom -5596.170115 kJ/mol
# Density = 2.266190 g / cm^3
# Si number density = 22.713601 Si / 1000 Ang^3
#
#
#
# Elastic Constant Matrix: (Units=GPa)
#
#
# Indices 1 2 3 4 5 6 
#
# 1 136.7103 75.6218 39.4664 0.0000 0.0000 0.0000
# 2 75.6218 136.7103 39.4664 0.0000 0.0000 0.0000
# 3 39.4664 39.4664 69.9391 0.0000 0.0000 0.0000
# 4 0.0000 0.0000 0.0000 37.3163 0.0000 0.0000
# 5 0.0000 0.0000 0.0000 0.0000 37.3163 0.0000
# 6 0.0000 0.0000 0.0000 0.0000 0.0000 30.5443
#
#
#
# Elastic Compliance Matrix: (Units=1/GPa)
#
#
# Indices 1 2 3 4 5 6 
#
# 1 0.011165 -0.005205 -0.003363 0.000000 0.000000 0.000000
# 2 -0.005205 0.011165 -0.003363 0.000000 0.000000 0.000000
# 3 -0.003363 -0.003363 0.018094 0.000000 0.000000 0.000000
# 4 0.000000 0.000000 0.000000 0.026798 0.000000 0.000000
# 5 0.000000 0.000000 0.000000 0.000000 0.026798 0.000000
# 6 0.000000 0.000000 0.000000 0.000000 0.000000 0.032739
#
#
# Mechanical properties :
#
#
# Convention : Reuss Voigt Hill
#
# Bulk Modulus (GPa) = 60.38301 72.49652 66.43976
# Shear Modulus (GPa) = 32.02232 33.62238 32.82235
#
# Velocity S-wave (km/s) = 3.75884 3.85161 3.80551
# Velocity P-wave (km/s) = 6.74394 7.19492 6.97308
#
# Compressibility (1/GPa) = 0.01656095
#
# Stress axis : x y z
#
# Youngs Moduli (GPa) = 89.56763 89.56763 55.26776
#
# Poissons Ratio (x) = 0.46619 0.18587
# Poissons Ratio (y) = 0.46619 0.18587
# Poissons Ratio (z) = 0.30122 0.30122
#
# Static dielectric constant tensor:
#      x y z
#    x 1.824520 0.000000 0.000000 
#    y 0.000000 1.824520 0.000000 
#    z 0.000000 0.000000 1.913790 
# 
# From -- ./inp_files/9226.got.cif
#   From: 2010.05.17/outbox.cif.g08.bks.cpg/sg178_5_cif.got.tgz:9226.got - 2010.05.20 11:30:59.
