data_PCOD9582584
_publ_section_title
;
Structure prediction by ZEFSAII (Michael W. Deem and Ramdas Pophale) SiO2 
 PCOD9582584
Probable space group: P 61 2 2
;
_chemical_formula_sum "Si O2"
_cell_formula_units_Z 48
_cell_length_a 10.011911
_cell_length_b 10.011911
_cell_length_c 26.439679
_cell_angle_alpha 90.000000
_cell_angle_beta 90.000000
_cell_angle_gamma 120.000000
_cell_volume 2295.201243
_symmetry_space_group_name_H-M "P 61 2 2"
_symmetry_group_IT_number 178
_symmetry_cell_setting 'hexagonal'
loop_
_space_group_symop_operation_xyz
x,y,z
x-y,x,1/6+z
-y,x-y,1/3+z
-x,-y,1/2+z
-x+y,-x,2/3+z
y,-x+y,5/6+z
x-y,-y,-z
-x,-x+y,2/3-z
y,x,1/3-z
-y,-x,5/6-z
-x+y,y,1/2-z
x,x-y,1/6-z
loop_
_atom_site_type_symbol
_atom_site_label
_atom_site_fract_x
_atom_site_fract_y
_atom_site_fract_z
Si Si1 0.790247 0.157147 0.576544
Si Si2 0.446785 0.043064 0.697780
Si Si3 0.126088 0.725788 0.973886
Si Si4 0.555930 0.178131 0.507898
O O1 0.872767 0.176132 0.522854
O O2 0.654086 0.193458 0.559213
O O3 0.912487 0.277595 0.616249
O O4 0.708914 0.987331 0.598177
O O5 0.545044 0.090087 0.750000
O O6 0.476674 0.196842 0.669117
O O7 0.507179 0.955704 0.661959
O O8 0.305500 0.778071 0.967812
O O9 0.432809 0.000000 0.500000
#
# Coordination Sequence:
#
# PCOD9582584 Si02
#       4
#    12  12  12  12
#     4   9  21  39  59  97 127 171 215 271 331 387
#     4  10  20  36  64  89 130 167 215 265 330 386
#     4   9  20  36  64  89 132 165 222 261 331 394
#     4  10  23  37  64  95 124 167 224 269 318 396
#
# _framework density 20.913197
#
# number of rings (size 3 to 8) (size 9 to 14) (size 15 to 20)
#    1.500    1.000    0.000    1.500    7.000    0.000 
#    0.000    1.250    0.000    0.000    0.000    0.000 
#    0.000    0.000    0.000    0.000    0.000    0.000 
#
# Total GULP energy -267289.806126 kJ/mol
# GULP energy per Si atom -5568.537628 kJ/mol
# Density = 2.086560 g / cm^3
# Si number density = 20.913197 Si / 1000 Ang^3
#
#
#
# Elastic Constant Matrix: (Units=GPa)
#
#
# Indices 1 2 3 4 5 6 
#
# 1 129.0693 65.9222 31.3029 0.0000 0.0000 0.0000
# 2 65.9222 129.0693 31.3029 0.0000 0.0000 0.0000
# 3 31.3029 31.3029 47.8808 0.0000 0.0000 0.0000
# 4 0.0000 0.0000 0.0000 34.9002 0.0000 0.0000
# 5 0.0000 0.0000 0.0000 0.0000 34.9002 0.0000
# 6 0.0000 0.0000 0.0000 0.0000 0.0000 31.5735
#
#
#
# Elastic Compliance Matrix: (Units=1/GPa)
#
#
# Indices 1 2 3 4 5 6 
#
# 1 0.011163 -0.004673 -0.004244 0.000000 0.000000 0.000000
# 2 -0.004673 0.011163 -0.004244 0.000000 0.000000 0.000000
# 3 -0.004244 -0.004244 0.026434 0.000000 0.000000 0.000000
# 4 0.000000 0.000000 0.000000 0.028653 0.000000 0.000000
# 5 0.000000 0.000000 0.000000 0.000000 0.028653 0.000000
# 6 0.000000 0.000000 0.000000 0.000000 0.000000 0.031672
#
#
# Mechanical properties :
#
#
# Convention : Reuss Voigt Hill
#
# Bulk Modulus (GPa) = 44.56045 62.56392 53.56219
# Shear Modulus (GPa) = 29.14791 32.10753 30.62772
#
# Velocity S-wave (km/s) = 3.73736 3.92251 3.83105
# Velocity P-wave (km/s) = 6.32276 7.10603 6.72581
#
# Compressibility (1/GPa) = 0.02244143
#
# Stress axis : x y z
#
# Youngs Moduli (GPa) = 89.57787 89.57787 37.83040
#
# Poissons Ratio (x) = 0.41856 0.16053
# Poissons Ratio (y) = 0.41856 0.16053
# Poissons Ratio (z) = 0.38013 0.38013
#
# Static dielectric constant tensor:
#      x y z
#    x 1.740000 0.000000 0.000000 
#    y 0.000000 1.740000 0.000000 
#    z 0.000000 0.000000 1.378690 
# 
# From -- ./inp_files/8633.got.cif
#   From: 2010.05.17/outbox.cif.g08.bks.cpg/sg178_5_cif.got.tgz:8633.got - 2010.05.20 11:30:59.
