data_PCOD9582650
_publ_section_title
;
Structure prediction by ZEFSAII (Michael W. Deem and Ramdas Pophale) SiO2 
 PCOD9582650
Probable space group: P 61 2 2
;
_chemical_formula_sum "Si O2"
_cell_formula_units_Z 54
_cell_length_a 14.744682
_cell_length_b 14.744682
_cell_length_c 13.607549
_cell_angle_alpha 90.000000
_cell_angle_beta 90.000000
_cell_angle_gamma 120.000000
_cell_volume 2562.013180
_symmetry_space_group_name_H-M "P 61 2 2"
_symmetry_group_IT_number 178
_symmetry_cell_setting 'hexagonal'
loop_
_space_group_symop_operation_xyz
x,y,z
x-y,x,1/6+z
-y,x-y,1/3+z
-x,-y,1/2+z
-x+y,-x,2/3+z
y,-x+y,5/6+z
x-y,-y,-z
-x,-x+y,2/3-z
y,x,1/3-z
-y,-x,5/6-z
-x+y,y,1/2-z
x,x-y,1/6-z
loop_
_atom_site_type_symbol
_atom_site_label
_atom_site_fract_x
_atom_site_fract_y
_atom_site_fract_z
Si Si1 0.752065 0.328509 0.814427
Si Si2 0.334723 0.440154 0.121324
Si Si3 0.353566 0.269580 0.753082
Si Si4 0.290197 0.250357 0.385189
Si Si5 0.860693 0.139308 0.416667
O O1 0.649568 0.299135 0.750000
O O2 0.800139 0.447225 0.852900
O O3 0.835341 0.312724 0.752795
O O4 0.733308 0.266693 0.916667
O O5 0.429865 0.429865 0.166667
O O6 0.230646 0.354210 0.176280
O O7 0.316432 0.397019 0.011069
O O8 0.320735 0.320735 0.666667
O O9 0.319726 0.291029 0.858244
O O10 0.293331 0.143669 0.743096
O O11 0.190568 0.223289 0.314077
#
# Coordination Sequence:
#
# PCOD9582650 Si02
#       5
#    12  12  12  12   6
#     4  12  26  43  69 104 146 189 244 294 358 442
#     4  10  21  40  69 102 132 176 232 296 356 417
#     4  12  26  46  70 101 145 196 235 291 370 442
#     4  11  23  44  75  94 137 186 234 301 366 420
#     4  10  20  42  70 102 126 168 236 294 356 404
#
# _framework density 21.077175
#
# number of rings (size 3 to 8) (size 9 to 14) (size 15 to 20)
#    0.000    0.889    3.333    4.000    0.000    0.000 
#    0.000   11.111    9.778    0.000    0.000    0.000 
#    0.000    0.000    0.000    0.000    0.000    0.000 
#
# Total GULP energy -301804.445696 kJ/mol
# GULP energy per Si atom -5588.971217 kJ/mol
# Density = 2.102920 g / cm^3
# Si number density = 21.077175 Si / 1000 Ang^3
#
#
#
# Elastic Constant Matrix: (Units=GPa)
#
#
# Indices 1 2 3 4 5 6 
#
# 1 94.7199 34.6722 43.6902 0.0000 0.0000 0.0000
# 2 34.6722 94.7199 43.6902 0.0000 0.0000 0.0000
# 3 43.6902 43.6902 127.2748 0.0000 0.0000 0.0000
# 4 0.0000 0.0000 0.0000 25.4434 0.0000 0.0000
# 5 0.0000 0.0000 0.0000 0.0000 25.4434 0.0000
# 6 0.0000 0.0000 0.0000 0.0000 0.0000 30.0239
#
#
#
# Elastic Compliance Matrix: (Units=1/GPa)
#
#
# Indices 1 2 3 4 5 6 
#
# 1 0.013357 -0.003296 -0.003454 0.000000 0.000000 0.000000
# 2 -0.003296 0.013357 -0.003454 0.000000 0.000000 0.000000
# 3 -0.003454 -0.003454 0.010228 0.000000 0.000000 0.000000
# 4 0.000000 0.000000 0.000000 0.039303 0.000000 0.000000
# 5 0.000000 0.000000 0.000000 0.000000 0.039303 0.000000
# 6 0.000000 0.000000 0.000000 0.000000 0.000000 0.033307
#
#
# Mechanical properties :
#
#
# Convention : Reuss Voigt Hill
#
# Bulk Modulus (GPa) = 60.47729 62.31334 61.39531
# Shear Modulus (GPa) = 28.60842 29.15959 28.88400
#
# Velocity S-wave (km/s) = 3.68818 3.72353 3.70590
# Velocity P-wave (km/s) = 6.84780 6.93649 6.89229
#
# Compressibility (1/GPa) = 0.01653513
#
# Stress axis : x y z
#
# Youngs Moduli (GPa) = 74.86676 74.86676 97.77012
#
# Poissons Ratio (x) = 0.24679 0.33766
# Poissons Ratio (y) = 0.24679 0.33766
# Poissons Ratio (z) = 0.25856 0.25856
#
# Static dielectric constant tensor:
#      x y z
#    x 1.769460 0.000000 0.000000 
#    y 0.000000 1.769460 0.000000 
#    z 0.000000 0.000000 1.776030 
# 
# From -- ./inp_files/5562.got.cif
#   From: 2010.05.17/outbox.cif.g08.bks.cpg/sg178_3_cif.got.tgz:5562.got - 2010.05.20 11:30:59.
