data_PCOD9582255
_publ_section_title
;
Structure prediction by ZEFSAII (Michael W. Deem and Ramdas Pophale) SiO2 
 PCOD9582255
Probable space group: P 6 2 2
;
_chemical_formula_sum "Si O2"
_cell_formula_units_Z 90
_cell_length_a 17.440216
_cell_length_b 17.440216
_cell_length_c 18.800290
_cell_angle_alpha 90.000000
_cell_angle_beta 90.000000
_cell_angle_gamma 120.000000
_cell_volume 4952.208246
_symmetry_space_group_name_H-M "P 6 2 2"
_symmetry_group_IT_number 177
_symmetry_cell_setting 'hexagonal'
loop_
_space_group_symop_operation_xyz
x,y,z
x-y,x,z
-y,x-y,z
-x,-y,z
-x+y,-x,z
y,-x+y,z
x-y,-y,-z
-x,-x+y,-z
y,x,-z
-y,-x,-z
-x+y,y,-z
x,x-y,-z
loop_
_atom_site_type_symbol
_atom_site_label
_atom_site_fract_x
_atom_site_fract_y
_atom_site_fract_z
Si Si1 0.678081 0.164221 0.459110
Si Si2 0.308168 0.060982 0.935126
Si Si3 0.769858 0.690304 0.631509
Si Si4 0.095076 0.741385 0.301292
Si Si5 0.840949 0.332687 0.016697
Si Si6 0.818013 0.818013 0.500000
Si Si7 0.245387 0.359763 0.137852
Si Si8 0.592555 0.501188 0.399594
O O1 0.747216 0.252785 0.500000
O O2 0.725161 0.129295 0.406850
O O3 0.601133 0.165708 0.413225
O O4 0.632971 0.093274 0.522875
O O5 0.314625 0.149619 0.902455
O O6 0.285344 0.989822 0.874062
O O7 0.405888 0.098404 0.968191
O O8 0.242730 0.000000 0.000000
O O9 0.858350 0.696978 0.662768
O O10 0.710649 0.700094 0.691861
O O11 0.776988 0.757891 0.569735
O O12 0.130666 0.756616 0.221179
O O13 0.111046 0.669205 0.343343
O O14 0.859287 0.309712 0.095759
O O15 0.739301 0.260700 0.000000
O O16 0.859695 0.429848 0.000000
O O17 0.913524 0.827048 0.500000
O O18 0.500000 0.500000 0.385763
#
# Coordination Sequence:
#
# PCOD9582255 Si02
#       8
#    12  12  12  12  12   6  12  12
#     4  11  21  38  60  84 106 149 210 270 316 356
#     4   9  18  36  61  90 120 153 202 252 279 339
#     4  12  23  38  61  88 117 156 206 259 316 382
#     4  12  24  41  59  86 128 164 196 246 320 398
#     4   9  18  35  60  90 119 151 203 246 284 335
#     4  12  23  38  58  87 116 152 208 270 317 368
#     4  10  21  37  58  90 122 164 193 236 307 367
#     4  11  23  38  60  85 113 151 208 269 313 362
#
# _framework density 18.173711000000001
#
# number of rings (size 3 to 8) (size 9 to 14) (size 15 to 20)
#    0.000    1.333    4.000    4.200    0.000    2.400 
#    5.600    1.333    0.000    0.267    0.000    6.533 
#    0.000    0.000    0.000    0.000    0.000    0.000 
#
# Total GULP energy -501237.463845 kJ/mol
# GULP energy per Si atom -5569.305154 kJ/mol
# Density = 1.813235 g / cm^3
# Si number density = 18.173711 Si / 1000 Ang^3
#
#
#
# Elastic Constant Matrix: (Units=GPa)
#
#
# Indices 1 2 3 4 5 6 
#
# 1 95.2272 47.6968 39.4878 0.0000 0.0000 0.0000
# 2 47.6968 95.2272 39.4878 0.0000 0.0000 0.0000
# 3 39.4878 39.4878 95.9134 0.0000 0.0000 0.0000
# 4 0.0000 0.0000 0.0000 18.9294 0.0000 0.0000
# 5 0.0000 0.0000 0.0000 0.0000 18.9294 0.0000
# 6 0.0000 0.0000 0.0000 0.0000 0.0000 23.7652
#
#
#
# Elastic Compliance Matrix: (Units=1/GPa)
#
#
# Indices 1 2 3 4 5 6 
#
# 1 0.015048 -0.005991 -0.003729 0.000000 0.000000 0.000000
# 2 -0.005991 0.015048 -0.003729 0.000000 0.000000 0.000000
# 3 -0.003729 -0.003729 0.013496 0.000000 0.000000 0.000000
# 4 0.000000 0.000000 0.000000 0.052828 0.000000 0.000000
# 5 0.000000 0.000000 0.000000 0.000000 0.052828 0.000000
# 6 0.000000 0.000000 0.000000 0.000000 0.000000 0.042078
#
#
# Mechanical properties :
#
#
# Convention : Reuss Voigt Hill
#
# Bulk Modulus (GPa) = 59.89694 59.96807 59.93250
# Shear Modulus (GPa) = 22.34241 22.97114 22.65678
#
# Velocity S-wave (km/s) = 3.51006 3.55910 3.53466
# Velocity P-wave (km/s) = 7.03256 7.06812 7.05036
#
# Compressibility (1/GPa) = 0.01669534
#
# Stress axis : x y z
#
# Youngs Moduli (GPa) = 66.45321 66.45321 74.09358
#
# Poissons Ratio (x) = 0.39812 0.27629
# Poissons Ratio (y) = 0.39812 0.27629
# Poissons Ratio (z) = 0.24780 0.24780
#
# Static dielectric constant tensor:
#      x y z
#    x 1.657860 0.000000 0.000000 
#    y 0.000000 1.657860 0.000000 
#    z 0.000000 0.000000 1.635430 
# 
# From -- ./inp_files/2935.got.cif
#   From: 2010.05.17/outbox.cif.g08.bks.cpg/sg177_2_cif.got.tgz:2935.got - 2010.05.20 11:28:44.
