data_PCOD9582779
_publ_section_title
;
Structure prediction by ZEFSAII (Michael W. Deem and Ramdas Pophale) SiO2 
 PCOD9582779
Probable space group: P 61 2 2
;
_chemical_formula_sum "Si O2"
_cell_formula_units_Z 54
_cell_length_a 10.057916
_cell_length_b 10.057916
_cell_length_c 25.739795
_cell_angle_alpha 90.000000
_cell_angle_beta 90.000000
_cell_angle_gamma 120.000000
_cell_volume 2255.026884
_symmetry_space_group_name_H-M "P 61 2 2"
_symmetry_group_IT_number 178
_symmetry_cell_setting 'hexagonal'
loop_
_space_group_symop_operation_xyz
x,y,z
x-y,x,1/6+z
-y,x-y,1/3+z
-x,-y,1/2+z
-x+y,-x,2/3+z
y,-x+y,5/6+z
x-y,-y,-z
-x,-x+y,2/3-z
y,x,1/3-z
-y,-x,5/6-z
-x+y,y,1/2-z
x,x-y,1/6-z
loop_
_atom_site_type_symbol
_atom_site_label
_atom_site_fract_x
_atom_site_fract_y
_atom_site_fract_z
Si Si1 0.762076 0.524152 0.250000
Si Si2 0.251744 0.154244 0.399594
Si Si3 0.535973 0.569868 0.302112
Si Si4 0.498209 0.996417 0.250000
Si Si5 0.814106 0.000000 0.500000
Si Si6 0.758494 0.758494 0.166667
Si Si7 0.435658 0.217829 0.083334
O O1 0.681420 0.738772 0.294892
O O2 0.731018 0.613611 0.202099
O O3 0.601172 0.458391 0.282022
O O4 0.404449 0.316486 0.409150
O O5 0.120985 0.163871 0.368220
O O6 0.194674 0.080912 0.456005
O O7 0.479850 0.554511 0.361022
O O8 0.392297 0.537712 0.267657
O O9 0.674603 0.891407 0.537839
#
# Coordination Sequence:
#
# PCOD9582779 Si02
#       7
#     6  12  12   6   6   6   6
#     4  10  22  43  75 113 143 194 266 324 376 449
#     4  11  26  48  79 116 159 208 273 332 395 483
#     4  11  26  49  79 111 157 209 262 328 392 483
#     4  12  23  50  77 114 148 214 264 320 395 488
#     4  12  30  48  76 118 162 210 258 340 408 468
#     4  10  22  40  74 114 146 194 262 328 372 458
#     4  12  29  53  72 115 165 210 254 330 413 475
#
# _framework density 23.946498999999999
#
# number of rings (size 3 to 8) (size 9 to 14) (size 15 to 20)
#    0.000    0.889    4.444    0.667    3.111   11.556 
#    4.000    1.111    0.000    0.000    0.000    0.000 
#    0.000    0.000    0.000    0.000    0.000    0.000 
#
# Total GULP energy -301585.424877 kJ/mol
# GULP energy per Si atom -5584.915276 kJ/mol
# Density = 2.389200 g / cm^3
# Si number density = 23.946499 Si / 1000 Ang^3
#
#
#
# Elastic Constant Matrix: (Units=GPa)
#
#
# Indices 1 2 3 4 5 6 
#
# 1 92.8413 27.6480 39.2871 0.0000 0.0000 0.0000
# 2 27.6480 92.8413 39.2871 0.0000 0.0000 0.0000
# 3 39.2871 39.2871 177.2266 0.0000 0.0000 0.0000
# 4 0.0000 0.0000 0.0000 22.0115 0.0000 0.0000
# 5 0.0000 0.0000 0.0000 0.0000 22.0115 0.0000
# 6 0.0000 0.0000 0.0000 0.0000 0.0000 32.5967
#
#
#
# Elastic Compliance Matrix: (Units=1/GPa)
#
#
# Indices 1 2 3 4 5 6 
#
# 1 0.012521 -0.002818 -0.002151 0.000000 0.000000 0.000000
# 2 -0.002818 0.012521 -0.002151 0.000000 0.000000 0.000000
# 3 -0.002151 -0.002151 0.006596 0.000000 0.000000 0.000000
# 4 0.000000 0.000000 0.000000 0.045431 0.000000 0.000000
# 5 0.000000 0.000000 0.000000 0.000000 0.045431 0.000000
# 6 0.000000 0.000000 0.000000 0.000000 0.000000 0.030678
#
#
# Mechanical properties :
#
#
# Convention : Reuss Voigt Hill
#
# Bulk Modulus (GPa) = 57.48048 63.92817 60.70433
# Shear Modulus (GPa) = 28.86574 32.43638 30.65106
#
# Velocity S-wave (km/s) = 3.47569 3.68439 3.58156
# Velocity P-wave (km/s) = 6.33743 6.69730 6.51985
#
# Compressibility (1/GPa) = 0.01739721
#
# Stress axis : x y z
#
# Youngs Moduli (GPa) = 79.86893 79.86893 151.60643
#
# Poissons Ratio (x) = 0.22511 0.32606
# Poissons Ratio (y) = 0.22511 0.32606
# Poissons Ratio (z) = 0.17178 0.17178
#
# Static dielectric constant tensor:
#      x y z
#    x 1.969550 0.000000 0.000000 
#    y 0.000000 1.969550 0.000000 
#    z 0.000000 0.000000 1.929220 
# 
# From -- ./inp_files/7485.got.cif
#   From: 2010.05.17/outbox.cif.g08.bks.cpg/sg178_4_cif.got.tgz:7485.got - 2010.05.20 11:30:59.
