data_PCOD9582067
_publ_section_title
;
Structure prediction by ZEFSAII (Michael W. Deem and Ramdas Pophale) SiO2 
 PCOD9582067
Probable space group: P 63/M
;
_chemical_formula_sum "Si O2"
_cell_formula_units_Z 28
_cell_length_a 6.949348
_cell_length_b 6.949348
_cell_length_c 30.459797
_cell_angle_alpha 90.000000
_cell_angle_beta 90.000000
_cell_angle_gamma 120.000000
_cell_volume 1273.930563
_symmetry_space_group_name_H-M "P 63/M"
_symmetry_group_IT_number 176
_symmetry_cell_setting 'hexagonal'
loop_
_space_group_symop_operation_xyz
x,y,z
x-y,x,1/2+z
-y,x-y,z
-x,-y,1/2+z
-x+y,-x,z
y,-x+y,1/2+z
-x,-y,-z
-x+y,-x,1/2-z
y,-x+y,-z
x,y,1/2-z
x-y,x,-z
-y,x-y,1/2-z
loop_
_atom_site_type_symbol
_atom_site_label
_atom_site_fract_x
_atom_site_fract_y
_atom_site_fract_z
Si Si1 0.609907 0.891548 0.798027
Si Si2 0.736024 0.124491 0.612842
Si Si3 0.000000 0.000000 0.948077
O O1 0.373654 0.889603 0.799389
O O2 0.711907 0.977751 0.750000
O O3 0.744603 0.021083 0.840520
O O4 0.896483 0.390802 0.610202
O O5 0.796012 0.014512 0.573459
O O6 0.000000 0.000000 0.000000
#
# Coordination Sequence:
#
# PCOD9582067 Si02
#       3
#    12  12   4
#     4   8  16  33  63  96 133 175 208 254 312 378
#     4  10  23  41  65  99 128 169 221 267 330 400
#     4  12  27  48  67  92 133 168 219 297 355 398
#
# _framework density 21.979217999999999
#
# number of rings (size 3 to 8) (size 9 to 14) (size 15 to 20)
#    1.714    0.857    0.000    2.571    0.000    3.429 
#    2.571    2.143    0.000    0.000    0.000    0.000 
#    0.000    0.000    0.000    0.000    0.000    0.000 
#
# Total GULP energy -156064.694538 kJ/mol
# GULP energy per Si atom -5573.739091 kJ/mol
# Density = 2.192919 g / cm^3
# Si number density = 21.979218 Si / 1000 Ang^3
#
#
#
# Elastic Constant Matrix: (Units=GPa)
#
#
# Indices 1 2 3 4 5 6 
#
# 1 78.2535 26.3140 63.4110 0.0000 0.0000 0.0000
# 2 26.3140 78.2535 63.4110 0.0000 0.0000 0.0000
# 3 63.4110 63.4110 259.6082 0.0000 0.0000 0.0000
# 4 0.0000 0.0000 0.0000 11.5397 0.0000 0.0000
# 5 0.0000 0.0000 0.0000 0.0000 11.5397 0.0000
# 6 0.0000 0.0000 0.0000 0.0000 0.0000 25.9697
#
#
#
# Elastic Compliance Matrix: (Units=1/GPa)
#
#
# Indices 1 2 3 4 5 6 
#
# 1 0.016421 -0.002832 -0.003319 0.000000 0.000000 0.000000
# 2 -0.002832 0.016421 -0.003319 0.000000 0.000000 0.000000
# 3 -0.003319 -0.003319 0.005473 0.000000 0.000000 0.000000
# 4 0.000000 0.000000 0.000000 0.086657 0.000000 0.000000
# 5 0.000000 0.000000 0.000000 0.000000 0.086657 0.000000
# 6 0.000000 0.000000 0.000000 0.000000 0.000000 0.038506
#
#
# Mechanical properties :
#
#
# Convention : Reuss Voigt Hill
#
# Bulk Modulus (GPa) = 51.61471 80.26525 65.93998
# Shear Modulus (GPa) = 18.14650 27.34177 22.74414
#
# Velocity S-wave (km/s) = 2.87648 3.53084 3.22032
# Velocity P-wave (km/s) = 5.87933 7.29523 6.62522
#
# Compressibility (1/GPa) = 0.01937432
#
# Stress axis : x y z
#
# Youngs Moduli (GPa) = 60.89778 60.89778 182.70172
#
# Poissons Ratio (x) = 0.17248 0.60641
# Poissons Ratio (y) = 0.17248 0.60641
# Poissons Ratio (z) = 0.20213 0.20213
#
# Static dielectric constant tensor:
#      x y z
#    x 1.877460 0.000000 0.000000 
#    y 0.000000 1.877460 0.000000 
#    z 0.000000 0.000000 1.728720 
# 
# From -- ./inp_files/4159.got.cif
#   From: 2010.05.17/outbox.cif.g08.bks.cpg/sg176_3_cif.got.tgz:4159.got - 2010.06.03 11:36:45.
