data_PCOD9582292
_publ_section_title
;
Structure prediction by ZEFSAII (Michael W. Deem and Ramdas Pophale) SiO2 
 PCOD9582292
Probable space group: P 6 2 2
;
_chemical_formula_sum "Si O2"
_cell_formula_units_Z 69
_cell_length_a 21.400682
_cell_length_b 21.400682
_cell_length_c 8.623396
_cell_angle_alpha 90.000000
_cell_angle_beta 90.000000
_cell_angle_gamma 120.000000
_cell_volume 3420.299912
_symmetry_space_group_name_H-M "P 6 2 2"
_symmetry_group_IT_number 177
_symmetry_cell_setting 'hexagonal'
loop_
_space_group_symop_operation_xyz
x,y,z
x-y,x,z
-y,x-y,z
-x,-y,z
-x+y,-x,z
y,-x+y,z
x-y,-y,-z
-x,-x+y,-z
y,x,-z
-y,-x,-z
-x+y,y,-z
x,x-y,-z
loop_
_atom_site_type_symbol
_atom_site_label
_atom_site_fract_x
_atom_site_fract_y
_atom_site_fract_z
Si Si1 0.314173 0.145813 0.684673
Si Si2 0.723179 0.553992 0.899936
Si Si3 0.946084 0.362584 0.127955
Si Si4 0.000000 0.500000 0.500000
Si Si5 0.734033 0.989477 0.187215
Si Si6 0.379364 0.620637 0.500000
Si Si7 0.425679 0.882359 0.267878
O O1 0.324195 0.162098 0.500000
O O2 0.391118 0.168723 0.771207
O O3 0.277525 0.190296 0.754652
O O4 0.265482 0.060644 0.725732
O O5 0.643121 0.501608 0.838616
O O6 0.757571 0.515142 0.000000
O O7 0.708065 0.596832 0.034046
O O8 0.986387 0.329094 0.223953
O O9 0.911291 0.405581 0.203340
O O10 0.000000 0.416005 0.000000
O O11 0.944924 0.509365 0.388406
O O12 0.747866 0.000000 0.000000
O O13 0.411780 0.705890 0.500000
O O14 0.403318 0.593587 0.355204
#
# Coordination Sequence:
#
# PCOD9582292 Si02
#       7
#    12  12  12   3  12   6  12
#     4  12  25  44  69 108 145 190 234 292 362 429
#     4  12  24  42  66  98 136 184 239 299 358 430
#     4  11  22  42  69  98 137 176 243 295 364 418
#     4  10  24  44  62 100 140 172 230 292 402 416
#     4  11  22  45  74 102 147 190 236 295 355 433
#     4   9  24  45  62  84 130 176 226 286 364 418
#     4  11  25  42  69  97 132 184 237 306 362 450
#
# _framework density 20.173669
#
# number of rings (size 3 to 8) (size 9 to 14) (size 15 to 20)
#    0.174    0.696    5.217    2.609    2.435    4.174 
#    0.000    0.000    0.000    0.348    0.000    2.435 
#    0.000    0.000    0.000    0.000    0.000    0.000 
#
# Total GULP energy -384717.610995 kJ/mol
# GULP energy per Si atom -5575.617551 kJ/mol
# Density = 2.012775 g / cm^3
# Si number density = 20.173669 Si / 1000 Ang^3
#
#
#
# Elastic Constant Matrix: (Units=GPa)
#
#
# Indices 1 2 3 4 5 6 
#
# 1 136.0424 77.0405 64.6263 0.0000 0.0000 0.0000
# 2 77.0405 136.0424 64.6263 0.0000 0.0000 0.0000
# 3 64.6263 64.6263 102.2612 0.0000 0.0000 0.0000
# 4 0.0000 0.0000 0.0000 29.3210 0.0000 0.0000
# 5 0.0000 0.0000 0.0000 0.0000 29.3210 0.0000
# 6 0.0000 0.0000 0.0000 0.0000 0.0000 29.5009
#
#
#
# Elastic Compliance Matrix: (Units=1/GPa)
#
#
# Indices 1 2 3 4 5 6 
#
# 1 0.012280 -0.004669 -0.004810 0.000000 0.000000 0.000000
# 2 -0.004669 0.012280 -0.004810 0.000000 0.000000 0.000000
# 3 -0.004810 -0.004810 0.015858 0.000000 0.000000 0.000000
# 4 0.000000 0.000000 0.000000 0.034105 0.000000 0.000000
# 5 0.000000 0.000000 0.000000 0.000000 0.034105 0.000000
# 6 0.000000 0.000000 0.000000 0.000000 0.000000 0.033897
#
#
# Mechanical properties :
#
#
# Convention : Reuss Voigt Hill
#
# Bulk Modulus (GPa) = 84.45621 87.43689 85.94655
# Shear Modulus (GPa) = 28.56359 28.83211 28.69785
#
# Velocity S-wave (km/s) = 3.76691 3.78457 3.77575
# Velocity P-wave (km/s) = 7.80224 7.90781 7.85520
#
# Compressibility (1/GPa) = 0.01184046
#
# Stress axis : x y z
#
# Youngs Moduli (GPa) = 81.43640 81.43640 63.05997
#
# Poissons Ratio (x) = 0.38023 0.30329
# Poissons Ratio (y) = 0.38023 0.30329
# Poissons Ratio (z) = 0.39167 0.39167
#
# Static dielectric constant tensor:
#      x y z
#    x 1.755210 0.000000 0.000000 
#    y 0.000000 1.755210 0.000000 
#    z 0.000000 0.000000 1.865930 
# 
# From -- ./inp_files/1470.got.cif
#   From: 2010.05.17/outbox.cif.g08.bks.cpg/sg177_1_cif.got.tgz:1470.got - 2010.05.20 11:28:44.
