data_PCOD9582257
_publ_section_title
;
Structure prediction by ZEFSAII (Michael W. Deem and Ramdas Pophale) SiO2 
 PCOD9582257
Probable space group: P 6 2 2
;
_chemical_formula_sum "Si O2"
_cell_formula_units_Z 40
_cell_length_a 18.910716
_cell_length_b 18.910716
_cell_length_c 7.748345
_cell_angle_alpha 90.000000
_cell_angle_beta 90.000000
_cell_angle_gamma 120.000000
_cell_volume 2399.692125
_symmetry_space_group_name_H-M "P 6 2 2"
_symmetry_group_IT_number 177
_symmetry_cell_setting 'hexagonal'
loop_
_space_group_symop_operation_xyz
x,y,z
x-y,x,z
-y,x-y,z
-x,-y,z
-x+y,-x,z
y,-x+y,z
x-y,-y,-z
-x,-x+y,-z
y,x,-z
-y,-x,-z
-x+y,y,-z
x,x-y,-z
loop_
_atom_site_type_symbol
_atom_site_label
_atom_site_fract_x
_atom_site_fract_y
_atom_site_fract_z
Si Si1 0.969002 0.563055 0.806729
Si Si2 0.268174 0.784967 0.811757
Si Si3 0.333334 0.666668 0.706849
Si Si4 0.686148 0.000000 0.500000
Si Si5 0.819202 0.180799 0.500000
O O1 0.870870 0.518160 0.806081
O O2 0.000000 0.500000 0.762503
O O3 0.999989 0.634874 0.667012
O O4 0.000000 0.594682 0.000000
O O5 0.286536 0.712541 0.772539
O O6 0.210659 0.789787 0.666220
O O7 0.228981 0.771020 0.000000
O O8 0.333334 0.666667 0.500000
O O9 0.689070 0.916876 0.496641
#
# Coordination Sequence:
#
# PCOD9582257 Si02
#       5
#    12  12   4   6   6
#     4  10  22  34  55  76 106 139 184 220 265 312
#     4  11  23  37  54  77 108 146 183 228 264 310
#     4  12  25  35  52  76 113 145 190 221 271 298
#     4  10  21  38  56  79 104 138 170 222 268 323
#     4  10  22  38  60  79 108 136 179 218 270 328
#
# _framework density 16.668804999999999
#
# number of rings (size 3 to 8) (size 9 to 14) (size 15 to 20)
#    0.000    1.500    1.500    3.150   12.600    0.000 
#    0.000    0.000    0.000    0.300    0.000    0.000 
#    0.000    0.000    0.000    9.600    0.000    0.000 
#
# Total GULP energy -223543.440671 kJ/mol
# GULP energy per Si atom -5588.586017 kJ/mol
# Density = 1.663087 g / cm^3
# Si number density = 16.668805 Si / 1000 Ang^3
#
#
#
# Elastic Constant Matrix: (Units=GPa)
#
#
# Indices 1 2 3 4 5 6 
#
# 1 96.8597 61.6924 37.7786 0.0001 0.0000 0.0001
# 2 61.6924 96.8600 37.7785 0.0001 0.0001 0.0002
# 3 37.7786 37.7785 115.1846 0.0000 0.0001 0.0000
# 4 0.0001 0.0001 0.0000 13.3394 0.0000 0.0000
# 5 0.0000 0.0001 0.0001 0.0000 13.3397 0.0000
# 6 0.0001 0.0002 0.0000 0.0000 0.0000 17.5838
#
#
#
# Elastic Compliance Matrix: (Units=1/GPa)
#
#
# Indices 1 2 3 4 5 6 
#
# 1 0.017955 -0.010480 -0.002452 0.000000 0.000000 0.000000
# 2 -0.010480 0.017955 -0.002452 0.000000 0.000000 0.000000
# 3 -0.002452 -0.002452 0.010290 0.000000 0.000000 0.000000
# 4 0.000000 0.000000 0.000000 0.074966 0.000000 0.000000
# 5 0.000000 0.000000 0.000000 0.000000 0.074964 0.000000
# 6 0.000000 0.000000 0.000000 0.000000 0.000000 0.056870
#
#
# Mechanical properties :
#
#
# Convention : Reuss Voigt Hill
#
# Bulk Modulus (GPa) = 64.79339 64.82258 64.80799
# Shear Modulus (GPa) = 17.30624 20.29625 18.80124
#
# Velocity S-wave (km/s) = 3.22567 3.49322 3.36211
# Velocity P-wave (km/s) = 7.26834 7.43257 7.35091
#
# Compressibility (1/GPa) = 0.01543367
#
# Stress axis : x y z
#
# Youngs Moduli (GPa) = 55.69337 55.69361 97.18148
#
# Poissons Ratio (x) = 0.58367 0.23827
# Poissons Ratio (y) = 0.58366 0.23827
# Poissons Ratio (z) = 0.13655 0.13655
#
# Static dielectric constant tensor:
#      x y z
#    x 1.544210 0.000000 0.000000 
#    y 0.000000 1.544220 0.000000 
#    z 0.000000 0.000000 1.566480 
# 
# From -- ./inp_files/1066.got.cif
#   From: 2010.05.17/outbox.cif.g08.bks.cpg/sg177_1_cif.got.tgz:1066.got - 2010.05.20 11:28:44.
