data_PCOD9582622
_publ_section_title
;
Structure prediction by ZEFSAII (Michael W. Deem and Ramdas Pophale) SiO2 
 PCOD9582622
Probable space group: P 61 2 2
;
_chemical_formula_sum "Si O2"
_cell_formula_units_Z 54
_cell_length_a 10.730662
_cell_length_b 10.730662
_cell_length_c 20.836111
_cell_angle_alpha 90.000000
_cell_angle_beta 90.000000
_cell_angle_gamma 120.000000
_cell_volume 2077.783652
_symmetry_space_group_name_H-M "P 61 2 2"
_symmetry_group_IT_number 178
_symmetry_cell_setting 'hexagonal'
loop_
_space_group_symop_operation_xyz
x,y,z
x-y,x,1/6+z
-y,x-y,1/3+z
-x,-y,1/2+z
-x+y,-x,2/3+z
y,-x+y,5/6+z
x-y,-y,-z
-x,-x+y,2/3-z
y,x,1/3-z
-y,-x,5/6-z
-x+y,y,1/2-z
x,x-y,1/6-z
loop_
_atom_site_type_symbol
_atom_site_label
_atom_site_fract_x
_atom_site_fract_y
_atom_site_fract_z
Si Si1 0.367591 0.000000 0.500000
Si Si2 0.809980 0.348842 0.722910
Si Si3 0.380606 0.761212 0.750000
Si Si4 0.107447 0.214893 0.750000
Si Si5 0.907039 0.274190 0.268622
Si Si6 0.049383 0.270208 0.534172
O O1 0.475064 0.062992 0.440877
O O2 0.322701 0.110501 0.529336
O O3 0.689009 0.378017 0.750000
O O4 0.845234 0.400359 0.649754
O O5 0.752569 0.178187 0.721228
O O6 0.208739 0.671425 0.762280
O O7 0.166949 0.117355 0.782767
O O8 0.993955 0.287670 0.204224
O O9 0.000000 0.314849 0.333334
O O10 0.799464 0.101134 0.264180
#
# Coordination Sequence:
#
# PCOD9582622 Si02
#       6
#     6  12   6   6  12  12
#     4  10  22  42  74 106 146 200 264 326 402 476
#     4  10  23  46  71 105 147 205 260 328 405 486
#     4  10  26  51  68 106 154 201 268 332 396 476
#     4  10  20  39  68 106 152 195 260 328 388 480
#     4  11  24  42  69 105 147 200 252 318 392 468
#     4  10  22  39  68 107 148 196 247 322 390 461
#
# _framework density 25.989229000000002
#
# number of rings (size 3 to 8) (size 9 to 14) (size 15 to 20)
#    0.000    1.778    0.000    3.333    6.222    2.667 
#   10.000    0.000    0.000    0.000    0.000    0.000 
#    0.000    0.000    0.000    0.000    0.000    0.000 
#
# Total GULP energy -302112.724042 kJ/mol
# GULP energy per Si atom -5594.680075 kJ/mol
# Density = 2.593008 g / cm^3
# Si number density = 25.989229 Si / 1000 Ang^3
#
#
#
# Elastic Constant Matrix: (Units=GPa)
#
#
# Indices 1 2 3 4 5 6 
#
# 1 109.2094 48.3352 45.3807 0.0000 0.0000 0.0000
# 2 48.3352 109.2094 45.3807 0.0000 0.0000 0.0000
# 3 45.3807 45.3807 206.5105 0.0000 0.0000 0.0000
# 4 0.0000 0.0000 0.0000 44.8327 0.0000 0.0000
# 5 0.0000 0.0000 0.0000 0.0000 44.8327 0.0000
# 6 0.0000 0.0000 0.0000 0.0000 0.0000 30.4371
#
#
#
# Elastic Compliance Matrix: (Units=1/GPa)
#
#
# Indices 1 2 3 4 5 6 
#
# 1 0.011847 -0.004580 -0.001597 0.000000 0.000000 0.000000
# 2 -0.004580 0.011847 -0.001597 0.000000 0.000000 0.000000
# 3 -0.001597 -0.001597 0.005544 0.000000 0.000000 0.000000
# 4 0.000000 0.000000 0.000000 0.022305 0.000000 0.000000
# 5 0.000000 0.000000 0.000000 0.000000 0.022305 0.000000
# 6 0.000000 0.000000 0.000000 0.000000 0.000000 0.032855
#
#
# Mechanical properties :
#
#
# Convention : Reuss Voigt Hill
#
# Bulk Modulus (GPa) = 73.04028 78.12471 75.58249
# Shear Modulus (GPa) = 39.42733 43.07603 41.25168
#
# Velocity S-wave (km/s) = 3.89918 4.07560 3.98837
# Velocity P-wave (km/s) = 6.95963 7.23001 7.09611
#
# Compressibility (1/GPa) = 0.01369108
#
# Stress axis : x y z
#
# Youngs Moduli (GPa) = 84.40680 84.40680 180.36675
#
# Poissons Ratio (x) = 0.38658 0.28805
# Poissons Ratio (y) = 0.38658 0.28805
# Poissons Ratio (z) = 0.13480 0.13480
#
# Static dielectric constant tensor:
#      x y z
#    x 2.069130 0.000000 0.000000 
#    y 0.000000 2.069130 0.000000 
#    z 0.000000 0.000000 2.351320 
# 
# From -- ./inp_files/7465.got.cif
#   From: 2010.05.17/outbox.cif.g08.bks.cpg/sg178_4_cif.got.tgz:7465.got - 2010.05.20 11:30:59.
