data_PCOD9582985
_publ_section_title
;
Structure prediction by ZEFSAII (Michael W. Deem and Ramdas Pophale) SiO2 
 PCOD9582985
Probable space group: P 61 2 2
;
_chemical_formula_sum "Si O2"
_cell_formula_units_Z 36
_cell_length_a 13.108328
_cell_length_b 13.108328
_cell_length_c 12.070867
_cell_angle_alpha 90.000000
_cell_angle_beta 90.000000
_cell_angle_gamma 120.000000
_cell_volume 1796.237241
_symmetry_space_group_name_H-M "P 61 2 2"
_symmetry_group_IT_number 178
_symmetry_cell_setting 'hexagonal'
loop_
_space_group_symop_operation_xyz
x,y,z
x-y,x,1/6+z
-y,x-y,1/3+z
-x,-y,1/2+z
-x+y,-x,2/3+z
y,-x+y,5/6+z
x-y,-y,-z
-x,-x+y,2/3-z
y,x,1/3-z
-y,-x,5/6-z
-x+y,y,1/2-z
x,x-y,1/6-z
loop_
_atom_site_type_symbol
_atom_site_label
_atom_site_fract_x
_atom_site_fract_y
_atom_site_fract_z
Si Si1 0.550339 0.883896 0.036043
Si Si2 0.510369 0.692798 0.372755
Si Si3 0.041142 0.417476 0.458731
O O1 0.487348 0.844135 0.918381
O O2 0.571082 0.785541 0.083334
O O3 0.474577 0.917766 0.116511
O O4 0.669060 0.000000 0.000000
O O5 0.375374 0.624627 0.416667
O O6 0.584255 0.650621 0.452746
O O7 0.576906 0.833648 0.359577
O O8 0.000000 0.371086 0.333334
#
# Coordination Sequence:
#
# PCOD9582985 Si02
#       3
#    12  12  12
#     4  11  23  39  61  91 131 172 218 264 332 400
#     4  12  23  40  63  93 135 173 214 272 334 406
#     4  11  24  39  60  95 131 173 216 268 335 401
#
# _framework density 20.041896999999999
#
# number of rings (size 3 to 8) (size 9 to 14) (size 15 to 20)
#    0.000    0.667    6.667    4.000    0.000    2.667 
#    0.000    0.000    0.000    0.000    0.000   35.000 
#    0.000    0.000    0.000    0.000    0.000    0.000 
#
# Total GULP energy -200527.564696 kJ/mol
# GULP energy per Si atom -5570.210130 kJ/mol
# Density = 1.999628 g / cm^3
# Si number density = 20.041897 Si / 1000 Ang^3
#
#
#
# Elastic Constant Matrix: (Units=GPa)
#
#
# Indices 1 2 3 4 5 6 
#
# 1 109.5311 50.8524 32.2268 0.0000 0.0000 0.0000
# 2 50.8524 109.5311 32.2268 0.0000 0.0000 0.0000
# 3 32.2268 32.2268 98.1055 0.0000 0.0000 0.0000
# 4 0.0000 0.0000 0.0000 32.4142 0.0000 0.0000
# 5 0.0000 0.0000 0.0000 0.0000 32.4142 0.0000
# 6 0.0000 0.0000 0.0000 0.0000 0.0000 29.3394
#
#
#
# Elastic Compliance Matrix: (Units=1/GPa)
#
#
# Indices 1 2 3 4 5 6 
#
# 1 0.012113 -0.004929 -0.002360 0.000000 0.000000 0.000000
# 2 -0.004929 0.012113 -0.002360 0.000000 0.000000 0.000000
# 3 -0.002360 -0.002360 0.011743 0.000000 0.000000 0.000000
# 4 0.000000 0.000000 0.000000 0.030851 0.000000 0.000000
# 5 0.000000 0.000000 0.000000 0.000000 0.030851 0.000000
# 6 0.000000 0.000000 0.000000 0.000000 0.000000 0.034084
#
#
# Mechanical properties :
#
#
# Convention : Reuss Voigt Hill
#
# Bulk Modulus (GPa) = 59.98305 60.86445 60.42375
# Shear Modulus (GPa) = 31.92677 32.29098 32.10888
#
# Velocity S-wave (km/s) = 3.99557 4.01830 4.00695
# Velocity P-wave (km/s) = 7.16100 7.20857 7.18483
#
# Compressibility (1/GPa) = 0.01667138
#
# Stress axis : x y z
#
# Youngs Moduli (GPa) = 82.55835 82.55835 85.15448
#
# Poissons Ratio (x) = 0.40696 0.20094
# Poissons Ratio (y) = 0.40696 0.20094
# Poissons Ratio (z) = 0.19481 0.19481
#
# Static dielectric constant tensor:
#      x y z
#    x 1.785060 0.000000 0.000000 
#    y 0.000000 1.785060 0.000000 
#    z 0.000000 0.000000 1.812230 
# 
# From -- ./inp_files/5098.got.cif
#   From: 2010.05.17/outbox.cif.g08.bks.cpg/sg178_3_cif.got.tgz:5098.got - 2010.05.20 11:30:59.
