data_PCOD9582079
_publ_section_title
;
Structure prediction by ZEFSAII (Michael W. Deem and Ramdas Pophale) SiO2 
 PCOD9582079
Probable space group: P 63/M
;
_chemical_formula_sum "Si O2"
_cell_formula_units_Z 52
_cell_length_a 10.993443
_cell_length_b 10.993443
_cell_length_c 21.987407
_cell_angle_alpha 90.000000
_cell_angle_beta 90.000000
_cell_angle_gamma 120.000000
_cell_volume 2301.294000
_symmetry_space_group_name_H-M "P 63/M"
_symmetry_group_IT_number 176
_symmetry_cell_setting 'hexagonal'
loop_
_space_group_symop_operation_xyz
x,y,z
x-y,x,1/2+z
-y,x-y,z
-x,-y,1/2+z
-x+y,-x,z
y,-x+y,1/2+z
-x,-y,-z
-x+y,-x,1/2-z
y,-x+y,-z
x,y,1/2-z
x-y,x,-z
-y,x-y,1/2-z
loop_
_atom_site_type_symbol
_atom_site_label
_atom_site_fract_x
_atom_site_fract_y
_atom_site_fract_z
Si Si1 0.561897 0.912687 0.316948
Si Si2 0.589346 0.684409 0.377651
Si Si3 0.282075 0.796825 0.509778
Si Si4 0.143519 0.322787 0.868296
Si Si5 0.000000 0.000000 0.174589
O O1 0.501000 0.886931 0.250000
O O2 0.622696 0.811194 0.332350
O O3 0.439497 0.873111 0.364752
O O4 0.686705 0.070692 0.324922
O O5 0.593438 0.733405 0.446525
O O6 0.693400 0.626956 0.362501
O O7 0.186815 0.625164 0.513171
O O8 0.243941 0.867985 0.564507
O O9 0.067333 0.157251 0.852834
O O10 0.000000 0.000000 0.250000
#
# Coordination Sequence:
#
# PCOD9582079 Si02
#       5
#    12  12  12  12   4
#     4  12  26  46  73 106 142 193 255 308 370 449
#     4  12  25  48  76 110 145 197 247 310 383 447
#     4  10  23  48  76 108 152 183 242 315 388 442
#     4  12  27  43  75 107 147 199 243 304 378 452
#     4  12  27  51  70 104 160 207 247 299 376 456
#
# _framework density 22.595983
#
# number of rings (size 3 to 8) (size 9 to 14) (size 15 to 20)
#    0.462    0.000    4.615    3.231    3.231    4.615 
#    1.385    1.154    0.000    0.000    0.000    0.000 
#    0.000    0.000    0.000    0.000    0.000    0.000 
#
# Total GULP energy -290522.337728 kJ/mol
# GULP energy per Si atom -5586.968033 kJ/mol
# Density = 2.254455 g / cm^3
# Si number density = 22.595983 Si / 1000 Ang^3
#
#
#
# Elastic Constant Matrix: (Units=GPa)
#
#
# Indices 1 2 3 4 5 6 
#
# 1 74.3627 5.5550 21.3375 0.0000 0.0000 0.0000
# 2 5.5550 74.3627 21.3375 0.0000 0.0000 0.0000
# 3 21.3375 21.3375 123.8256 0.0000 0.0000 0.0000
# 4 0.0000 0.0000 0.0000 22.6265 0.0000 0.0000
# 5 0.0000 0.0000 0.0000 0.0000 22.6265 0.0000
# 6 0.0000 0.0000 0.0000 0.0000 0.0000 34.4038
#
#
#
# Elastic Compliance Matrix: (Units=1/GPa)
#
#
# Indices 1 2 3 4 5 6 
#
# 1 0.014157 -0.000376 -0.002375 0.000000 0.000000 0.000000
# 2 -0.000376 0.014157 -0.002375 0.000000 0.000000 0.000000
# 3 -0.002375 -0.002375 0.008894 0.000000 0.000000 0.000000
# 4 0.000000 0.000000 0.000000 0.044196 0.000000 0.000000
# 5 0.000000 0.000000 0.000000 0.000000 0.044196 0.000000
# 6 0.000000 0.000000 0.000000 0.000000 0.000000 0.029067
#
#
# Mechanical properties :
#
#
# Convention : Reuss Voigt Hill
#
# Bulk Modulus (GPa) = 37.09570 41.00123 39.04847
# Shear Modulus (GPa) = 28.75150 30.88609 29.81880
#
# Velocity S-wave (km/s) = 3.57096 3.70115 3.63664
# Velocity P-wave (km/s) = 5.78403 6.03734 5.91204
#
# Compressibility (1/GPa) = 0.02695730
#
# Stress axis : x y z
#
# Youngs Moduli (GPa) = 70.63592 70.63592 112.43165
#
# Poissons Ratio (x) = 0.02657 0.26699
# Poissons Ratio (y) = 0.02657 0.26699
# Poissons Ratio (z) = 0.16774 0.16774
#
# Static dielectric constant tensor:
#      x y z
#    x 1.846660 0.000000 0.000000 
#    y 0.000000 1.846660 0.000000 
#    z 0.000000 0.000000 1.784630 
# 
# From -- ./inp_files/3690.got.cif
#   From: 2010.05.17/outbox.cif.g08.bks.cpg/sg176_2_cif.got.tgz:3690.got - 2010.06.03 11:36:45.
