data_PCOD9582910
_publ_section_title
;
Structure prediction by ZEFSAII (Michael W. Deem and Ramdas Pophale) SiO2 
 PCOD9582910
Probable space group: P 61 2 2
;
_chemical_formula_sum "Si O2"
_cell_formula_units_Z 48
_cell_length_a 14.795367
_cell_length_b 14.795367
_cell_length_c 11.828755
_cell_angle_alpha 90.000000
_cell_angle_beta 90.000000
_cell_angle_gamma 120.000000
_cell_volume 2242.441659
_symmetry_space_group_name_H-M "P 61 2 2"
_symmetry_group_IT_number 178
_symmetry_cell_setting 'hexagonal'
loop_
_space_group_symop_operation_xyz
x,y,z
x-y,x,1/6+z
-y,x-y,1/3+z
-x,-y,1/2+z
-x+y,-x,2/3+z
y,-x+y,5/6+z
x-y,-y,-z
-x,-x+y,2/3-z
y,x,1/3-z
-y,-x,5/6-z
-x+y,y,1/2-z
x,x-y,1/6-z
loop_
_atom_site_type_symbol
_atom_site_label
_atom_site_fract_x
_atom_site_fract_y
_atom_site_fract_z
Si Si1 0.346177 0.764354 0.624491
Si Si2 0.588416 0.864735 0.249495
Si Si3 0.450146 0.551036 0.740478
Si Si4 0.071353 0.171800 0.587095
O O1 0.391235 0.782469 0.750000
O O2 0.287521 0.643761 0.583334
O O3 0.257623 0.795226 0.614414
O O4 0.426706 0.813109 0.522055
O O5 0.532137 0.876734 0.138039
O O6 0.542501 0.910171 0.344948
O O7 0.711281 0.909704 0.240748
O O8 0.486380 0.486380 0.666667
O O9 0.095463 0.140276 0.465964
O O10 0.149429 0.149429 0.666667
#
# Coordination Sequence:
#
# PCOD9582910 Si02
#       4
#    12  12  12  12
#     4  12  22  42  65  95 138 190 232 283 352 447
#     4  11  24  44  67 103 143 187 242 303 377 442
#     4  11  26  40  65 103 144 188 244 293 365 451
#     4  10  25  46  74 108 138 184 258 320 384 437
#
# _framework density 21.405239999999999
#
# number of rings (size 3 to 8) (size 9 to 14) (size 15 to 20)
#    0.000    1.000    5.000    0.750   14.000    0.000 
#    0.000    6.250    0.000    0.000    0.000    0.000 
#    0.000    0.000    0.000    0.000    0.000    0.000 
#
# Total GULP energy -267652.168670 kJ/mol
# GULP energy per Si atom -5576.086847 kJ/mol
# Density = 2.135652 g / cm^3
# Si number density = 21.405240 Si / 1000 Ang^3
#
#
#
# Elastic Constant Matrix: (Units=GPa)
#
#
# Indices 1 2 3 4 5 6 
#
# 1 174.9144 -25.4526 56.2433 0.0000 0.0000 0.0000
# 2 -25.4526 174.9144 56.2433 0.0000 0.0000 0.0000
# 3 56.2433 56.2433 148.9357 0.0000 0.0000 0.0000
# 4 0.0000 0.0000 0.0000 47.7799 0.0000 0.0000
# 5 0.0000 0.0000 0.0000 0.0000 47.7799 0.0000
# 6 0.0000 0.0000 0.0000 0.0000 0.0000 100.1835
#
#
#
# Elastic Compliance Matrix: (Units=1/GPa)
#
#
# Indices 1 2 3 4 5 6 
#
# 1 0.007169 0.002178 -0.003530 0.000000 0.000000 0.000000
# 2 0.002178 0.007169 -0.003530 0.000000 0.000000 0.000000
# 3 -0.003530 -0.003530 0.009380 0.000000 0.000000 0.000000
# 4 0.000000 0.000000 0.000000 0.020929 0.000000 0.000000
# 5 0.000000 0.000000 0.000000 0.000000 0.020929 0.000000
# 6 0.000000 0.000000 0.000000 0.000000 0.000000 0.009982
#
#
# Mechanical properties :
#
#
# Convention : Reuss Voigt Hill
#
# Bulk Modulus (GPa) = 71.65666 74.75915 73.20791
# Shear Modulus (GPa) = 55.57189 66.59735 61.08462
#
# Velocity S-wave (km/s) = 5.10080 5.58392 5.34782
# Velocity P-wave (km/s) = 8.26074 8.75072 8.50925
#
# Compressibility (1/GPa) = 0.01395544
#
# Stress axis : x y z
#
# Youngs Moduli (GPa) = 139.48823 139.48823 106.60641
#
# Poissons Ratio (x) = -0.30384 0.37631
# Poissons Ratio (y) = -0.30384 0.37631
# Poissons Ratio (z) = 0.49237 0.49237
#
# Static dielectric constant tensor:
#      x y z
#    x 1.683990 0.000000 0.000000 
#    y 0.000000 1.683990 0.000000 
#    z 0.000000 0.000000 1.842630 
# 
# From -- ./inp_files/4111.got.cif
#   From: 2010.05.17/outbox.cif.g08.bks.cpg/sg178_3_cif.got.tgz:4111.got - 2010.05.20 11:30:59.
