data_PCOD9582954
_publ_section_title
;
Structure prediction by ZEFSAII (Michael W. Deem and Ramdas Pophale) SiO2 
 PCOD9582954
Probable space group: P 61 2 2
;
_chemical_formula_sum "Si O2"
_cell_formula_units_Z 84
_cell_length_a 18.610268
_cell_length_b 18.610268
_cell_length_c 13.753086
_cell_angle_alpha 90.000000
_cell_angle_beta 90.000000
_cell_angle_gamma 120.000000
_cell_volume 4125.114854
_symmetry_space_group_name_H-M "P 61 2 2"
_symmetry_group_IT_number 178
_symmetry_cell_setting 'hexagonal'
loop_
_space_group_symop_operation_xyz
x,y,z
x-y,x,1/6+z
-y,x-y,1/3+z
-x,-y,1/2+z
-x+y,-x,2/3+z
y,-x+y,5/6+z
x-y,-y,-z
-x,-x+y,2/3-z
y,x,1/3-z
-y,-x,5/6-z
-x+y,y,1/2-z
x,x-y,1/6-z
loop_
_atom_site_type_symbol
_atom_site_label
_atom_site_fract_x
_atom_site_fract_y
_atom_site_fract_z
Si Si1 0.490083 0.101474 0.436708
Si Si2 0.898438 0.659081 0.322973
Si Si3 0.642033 0.537913 0.774306
Si Si4 0.965896 0.407515 0.058652
Si Si5 0.239298 0.542851 0.065882
Si Si6 0.394439 0.238300 0.353379
Si Si7 0.214612 0.301930 0.176836
O O1 0.434771 0.114537 0.516363
O O2 0.573973 0.102344 0.466255
O O3 0.524945 0.172329 0.353042
O O4 0.433384 0.017580 0.375147
O O5 0.838251 0.676502 0.250000
O O6 0.849130 0.642824 0.424558
O O7 0.000000 0.724121 0.333334
O O8 0.594625 0.558091 0.857834
O O9 0.690466 0.500322 0.834582
O O10 0.703457 0.622925 0.724393
O O11 0.920945 0.460472 0.083334
O O12 0.909599 0.309742 0.076167
O O13 0.284451 0.642225 0.083334
O O14 0.275676 0.487116 0.025379
O O15 0.334242 0.214764 0.262860
O O16 0.220971 0.220971 0.166667
O O17 0.143964 0.287928 0.250000
#
# Coordination Sequence:
#
# PCOD9582954 Si02
#       7
#    12  12  12  12  12  12  12
#     4   8  17  33  59  86 118 159 205 257 309 372
#     4  11  24  41  63  91 123 166 225 288 341 388
#     4   9  16  33  56  88 121 156 198 242 305 384
#     4   9  17  33  60  91 126 166 205 251 312 386
#     4   8  15  30  55  77 112 161 197 236 296 352
#     4  11  21  37  62  86 126 163 211 271 319 384
#     4  12  24  37  60  96 130 162 208 263 335 403
#
# _framework density 20.36307
#
# number of rings (size 3 to 8) (size 9 to 14) (size 15 to 20)
#    0.000    2.286    2.857    2.571    0.000    1.714 
#    2.571    0.000    9.429    0.000    0.000    5.000 
#    0.000    0.000    0.000    0.000    0.000    0.000 
#
# Total GULP energy -467650.554426 kJ/mol
# GULP energy per Si atom -5567.268505 kJ/mol
# Density = 2.031672 g / cm^3
# Si number density = 20.363070 Si / 1000 Ang^3
#
#
#
# Elastic Constant Matrix: (Units=GPa)
#
#
# Indices 1 2 3 4 5 6 
#
# 1 77.9988 28.6027 20.8486 0.0000 0.0000 0.0000
# 2 28.6027 77.9988 20.8486 0.0000 0.0000 0.0000
# 3 20.8486 20.8486 53.4682 0.0000 0.0000 0.0000
# 4 0.0000 0.0000 0.0000 31.3476 0.0000 0.0000
# 5 0.0000 0.0000 0.0000 0.0000 31.3476 0.0000
# 6 0.0000 0.0000 0.0000 0.0000 0.0000 24.6981
#
#
#
# Elastic Compliance Matrix: (Units=1/GPa)
#
#
# Indices 1 2 3 4 5 6 
#
# 1 0.015657 -0.004588 -0.004316 0.000000 0.000000 0.000000
# 2 -0.004588 0.015657 -0.004316 0.000000 0.000000 0.000000
# 3 -0.004316 -0.004316 0.022069 0.000000 0.000000 0.000000
# 4 0.000000 0.000000 0.000000 0.031900 0.000000 0.000000
# 5 0.000000 0.000000 0.000000 0.000000 0.031900 0.000000
# 6 0.000000 0.000000 0.000000 0.000000 0.000000 0.040489
#
#
# Mechanical properties :
#
#
# Convention : Reuss Voigt Hill
#
# Bulk Modulus (GPa) = 37.11644 38.89618 38.00631
# Shear Modulus (GPa) = 25.89437 26.75640 26.32539
#
# Velocity S-wave (km/s) = 3.56987 3.62880 3.59945
# Velocity P-wave (km/s) = 5.93791 6.05809 5.99830
#
# Compressibility (1/GPa) = 0.02694224
#
# Stress axis : x y z
#
# Youngs Moduli (GPa) = 63.87033 63.87033 45.31330
#
# Poissons Ratio (x) = 0.29302 0.19558
# Poissons Ratio (y) = 0.29302 0.19558
# Poissons Ratio (z) = 0.27567 0.27567
#
# Static dielectric constant tensor:
#      x y z
#    x 1.788640 0.000000 0.000000 
#    y 0.000000 1.788640 0.000000 
#    z 0.000000 0.000000 1.741230 
# 
# From -- ./inp_files/6018.got.cif
#   From: 2010.05.17/outbox.cif.g08.bks.cpg/sg178_4_cif.got.tgz:6018.got - 2010.05.20 11:30:59.
