data_PCOD9582795
_publ_section_title
;
Structure prediction by ZEFSAII (Michael W. Deem and Ramdas Pophale) SiO2 
 PCOD9582795
Probable space group: P 61 2 2
;
_chemical_formula_sum "Si O2"
_cell_formula_units_Z 48
_cell_length_a 19.206093
_cell_length_b 19.206093
_cell_length_c 7.045821
_cell_angle_alpha 90.000000
_cell_angle_beta 90.000000
_cell_angle_gamma 120.000000
_cell_volume 2250.817548
_symmetry_space_group_name_H-M "P 61 2 2"
_symmetry_group_IT_number 178
_symmetry_cell_setting 'hexagonal'
loop_
_space_group_symop_operation_xyz
x,y,z
x-y,x,1/6+z
-y,x-y,1/3+z
-x,-y,1/2+z
-x+y,-x,2/3+z
y,-x+y,5/6+z
x-y,-y,-z
-x,-x+y,2/3-z
y,x,1/3-z
-y,-x,5/6-z
-x+y,y,1/2-z
x,x-y,1/6-z
loop_
_atom_site_type_symbol
_atom_site_label
_atom_site_fract_x
_atom_site_fract_y
_atom_site_fract_z
Si Si1 0.086318 0.456818 0.296839
Si Si2 0.296425 0.592850 0.750000
Si Si3 0.677263 0.768255 0.198955
Si Si4 0.194169 0.805832 0.916667
Si Si5 0.490047 0.114945 0.478744
O O1 0.160070 0.442521 0.344938
O O2 0.088024 0.535380 0.384359
O O3 0.000000 0.380060 0.333334
O O4 0.091531 0.472882 0.073488
O O5 0.292365 0.646183 0.583334
O O6 0.328888 0.538745 0.662136
O O7 0.748437 0.748437 0.166667
O O8 0.658908 0.787294 0.415541
O O9 0.598662 0.687725 0.113520
O O10 0.689987 0.844994 0.083334
#
# Coordination Sequence:
#
# PCOD9582795 Si02
#       5
#    12   6  12   6  12
#     4  10  22  42  67  96 139 186 238 294 350 420
#     4  12  26  44  70  98 148 194 254 304 352 420
#     4  11  25  45  70 103 139 180 234 293 364 439
#     4  10  26  42  68  98 136 184 240 290 358 428
#     4  10  23  42  65 102 138 190 244 293 356 409
#
# _framework density 21.325586000000001
#
# number of rings (size 3 to 8) (size 9 to 14) (size 15 to 20)
#    0.000    1.500    1.250    2.250   15.750    0.000 
#    4.500    0.000    0.000    0.000    3.250    0.000 
#    0.000    0.000    0.000    0.000    0.000    0.000 
#
# Total GULP energy -268027.843438 kJ/mol
# GULP energy per Si atom -5583.913405 kJ/mol
# Density = 2.127705 g / cm^3
# Si number density = 21.325586 Si / 1000 Ang^3
#
#
#
# Elastic Constant Matrix: (Units=GPa)
#
#
# Indices 1 2 3 4 5 6 
#
# 1 131.2205 86.2970 31.0971 0.0000 0.0000 0.0000
# 2 86.2970 131.2205 31.0971 0.0000 0.0000 0.0000
# 3 31.0971 31.0971 110.3730 0.0000 0.0000 0.0000
# 4 0.0000 0.0000 0.0000 20.6437 0.0000 0.0000
# 5 0.0000 0.0000 0.0000 0.0000 20.6437 0.0000
# 6 0.0000 0.0000 0.0000 0.0000 0.0000 22.4617
#
#
#
# Elastic Compliance Matrix: (Units=1/GPa)
#
#
# Indices 1 2 3 4 5 6 
#
# 1 0.013630 -0.008630 -0.001409 0.000000 0.000000 0.000000
# 2 -0.008630 0.013630 -0.001409 0.000000 0.000000 0.000000
# 3 -0.001409 -0.001409 0.009854 0.000000 0.000000 0.000000
# 4 0.000000 0.000000 0.000000 0.048441 0.000000 0.000000
# 5 0.000000 0.000000 0.000000 0.000000 0.048441 0.000000
# 6 0.000000 0.000000 0.000000 0.000000 0.000000 0.044520
#
#
# Mechanical properties :
#
#
# Convention : Reuss Voigt Hill
#
# Bulk Modulus (GPa) = 70.32733 74.42182 72.37457
# Shear Modulus (GPa) = 24.25406 27.70467 25.97937
#
# Velocity S-wave (km/s) = 3.37608 3.60825 3.49409
# Velocity P-wave (km/s) = 6.94599 7.23415 7.09153
#
# Compressibility (1/GPa) = 0.01421922
#
# Stress axis : x y z
#
# Youngs Moduli (GPa) = 73.36700 73.36700 101.48144
#
# Poissons Ratio (x) = 0.63315 0.14296
# Poissons Ratio (y) = 0.63315 0.14296
# Poissons Ratio (z) = 0.10336 0.10336
#
# Static dielectric constant tensor:
#      x y z
#    x 1.777240 0.000000 0.000000 
#    y 0.000000 1.777240 0.000000 
#    z 0.000000 0.000000 1.834840 
# 
# From -- ./inp_files/2636.got.cif
#   From: 2010.05.17/outbox.cif.g08.bks.cpg/sg178_2_cif.got.tgz:2636.got - 2010.05.20 11:30:59.
