data_PCOD9582502
_publ_section_title
;
Structure prediction by ZEFSAII (Michael W. Deem and Ramdas Pophale) SiO2 
 PCOD9582502
Probable space group: P 61 2 2
;
_chemical_formula_sum "Si O2"
_cell_formula_units_Z 66
_cell_length_a 21.784282
_cell_length_b 21.784282
_cell_length_c 7.697771
_cell_angle_alpha 90.000000
_cell_angle_beta 90.000000
_cell_angle_gamma 120.000000
_cell_volume 3163.604026
_symmetry_space_group_name_H-M "P 61 2 2"
_symmetry_group_IT_number 178
_symmetry_cell_setting 'hexagonal'
loop_
_space_group_symop_operation_xyz
x,y,z
x-y,x,1/6+z
-y,x-y,1/3+z
-x,-y,1/2+z
-x+y,-x,2/3+z
y,-x+y,5/6+z
x-y,-y,-z
-x,-x+y,2/3-z
y,x,1/3-z
-y,-x,5/6-z
-x+y,y,1/2-z
x,x-y,1/6-z
loop_
_atom_site_type_symbol
_atom_site_label
_atom_site_fract_x
_atom_site_fract_y
_atom_site_fract_z
Si Si1 0.858896 0.630445 0.921949
Si Si2 0.572088 0.715956 0.214827
Si Si3 0.499335 0.072323 0.572939
Si Si4 0.646019 0.507052 0.754114
Si Si5 0.932776 0.722605 0.227374
Si Si6 0.303695 0.696306 0.916667
O O1 0.822673 0.645346 0.750000
O O2 0.882859 0.575633 0.863179
O O3 0.794464 0.587520 0.062053
O O4 0.921559 0.697213 0.024458
O O5 0.520534 0.654984 0.080459
O O6 0.537846 0.671944 0.389001
O O7 0.651017 0.736267 0.164362
O O8 0.531310 0.062619 0.750000
O O9 0.563767 0.092799 0.442282
O O10 0.433969 0.000000 0.500000
O O11 0.666155 0.446005 0.718300
O O12 0.869405 0.738809 0.250000
O O13 0.000000 0.780572 0.333334
O O14 0.344041 0.688082 0.750000
#
# Coordination Sequence:
#
# PCOD9582502 Si02
#       6
#    12  12  12  12  12   6
#     4   9  19  38  60  87 117 161 209 260 327 378
#     4  10  19  38  59  80 116 155 201 260 312 386
#     4  12  25  38  56  83 112 154 200 256 324 388
#     4  11  22  41  60  82 119 155 210 274 333 395
#     4  10  21  38  63  94 129 166 210 256 314 386
#     4  12  26  44  60  88 122 168 228 282 358 412
#
# _framework density 20.862282
#
# number of rings (size 3 to 8) (size 9 to 14) (size 15 to 20)
#    0.000    1.455    2.727    4.364    1.273    1.455 
#    3.273    7.273    0.000    0.000    0.000    0.000 
#    0.000   11.636    0.000    0.545    0.000    0.000 
#
# Total GULP energy -367670.802458 kJ/mol
# GULP energy per Si atom -5570.769734 kJ/mol
# Density = 2.081480 g / cm^3
# Si number density = 20.862282 Si / 1000 Ang^3
#
#
#
# Elastic Constant Matrix: (Units=GPa)
#
#
# Indices 1 2 3 4 5 6 
#
# 1 74.7427 35.4762 30.7423 0.0000 0.0000 0.0000
# 2 35.4762 74.7427 30.7423 0.0000 0.0000 0.0000
# 3 30.7423 30.7423 92.5740 0.0000 0.0000 0.0000
# 4 0.0000 0.0000 0.0000 27.2720 0.0000 0.0000
# 5 0.0000 0.0000 0.0000 0.0000 27.2720 0.0000
# 6 0.0000 0.0000 0.0000 0.0000 0.0000 19.6332
#
#
#
# Elastic Compliance Matrix: (Units=1/GPa)
#
#
# Indices 1 2 3 4 5 6 
#
# 1 0.018301 -0.007166 -0.003698 0.000000 0.000000 0.000000
# 2 -0.007166 0.018301 -0.003698 0.000000 0.000000 0.000000
# 3 -0.003698 -0.003698 0.013258 0.000000 0.000000 0.000000
# 4 0.000000 0.000000 0.000000 0.036668 0.000000 0.000000
# 5 0.000000 0.000000 0.000000 0.000000 0.036668 0.000000
# 6 0.000000 0.000000 0.000000 0.000000 0.000000 0.050934
#
#
# Mechanical properties :
#
#
# Convention : Reuss Voigt Hill
#
# Bulk Modulus (GPa) = 48.22119 48.44230 48.33175
# Shear Modulus (GPa) = 23.79070 24.50869 24.14969
#
# Velocity S-wave (km/s) = 3.38060 3.43123 3.40601
# Velocity P-wave (km/s) = 6.19695 6.24246 6.21974
#
# Compressibility (1/GPa) = 0.02073777
#
# Stress axis : x y z
#
# Youngs Moduli (GPa) = 54.64068 54.64068 75.42472
#
# Poissons Ratio (x) = 0.39154 0.27892
# Poissons Ratio (y) = 0.39154 0.27892
# Poissons Ratio (z) = 0.20206 0.20206
#
# Static dielectric constant tensor:
#      x y z
#    x 1.771410 0.000000 0.000000 
#    y 0.000000 1.771410 0.000000 
#    z 0.000000 0.000000 1.908960 
# 
# From -- ./inp_files/3281.got.cif
#   From: 2010.05.17/outbox.cif.g08.bks.cpg/sg178_2_cif.got.tgz:3281.got - 2010.05.20 11:30:59.
