data_PCOD9582478
_publ_section_title
;
Structure prediction by ZEFSAII (Michael W. Deem and Ramdas Pophale) SiO2 
 PCOD9582478
Probable space group: P 61 2 2
;
_chemical_formula_sum "Si O2"
_cell_formula_units_Z 54
_cell_length_a 12.038139
_cell_length_b 12.038139
_cell_length_c 20.071602
_cell_angle_alpha 90.000000
_cell_angle_beta 90.000000
_cell_angle_gamma 120.000000
_cell_volume 2519.018609
_symmetry_space_group_name_H-M "P 61 2 2"
_symmetry_group_IT_number 178
_symmetry_cell_setting 'hexagonal'
loop_
_space_group_symop_operation_xyz
x,y,z
x-y,x,1/6+z
-y,x-y,1/3+z
-x,-y,1/2+z
-x+y,-x,2/3+z
y,-x+y,5/6+z
x-y,-y,-z
-x,-x+y,2/3-z
y,x,1/3-z
-y,-x,5/6-z
-x+y,y,1/2-z
x,x-y,1/6-z
loop_
_atom_site_type_symbol
_atom_site_label
_atom_site_fract_x
_atom_site_fract_y
_atom_site_fract_z
Si Si1 0.438141 0.719071 0.083334
Si Si2 0.773107 0.138144 0.032525
Si Si3 0.020110 0.189450 0.969032
Si Si4 0.203242 0.934100 0.848510
Si Si5 0.421760 0.095714 0.937880
O O1 0.521910 0.759452 0.152095
O O2 0.363498 0.566177 0.088887
O O3 0.758052 0.095999 0.109538
O O4 0.921790 0.177801 0.025336
O O5 0.679853 0.000000 0.000000
O O6 0.125327 0.157149 0.993461
O O7 0.917182 0.082819 0.916667
O O8 0.132449 0.867552 0.916667
O O9 0.165001 0.821465 0.795788
O O10 0.351019 0.012922 0.872381
O O11 0.406311 0.000000 0.000000
#
# Coordination Sequence:
#
# PCOD9582478 Si02
#       5
#     6  12  12  12  12
#     4  12  22  44  62  88 128 176 216 252 314 390
#     4  10  19  34  57  93 124 160 203 266 327 369
#     4  10  20  33  59 101 126 150 202 274 335 372
#     4  10  22  43  62  95 126 171 209 262 327 382
#     4  10  24  43  68  88 126 173 215 258 313 386
#
# _framework density 21.436919
#
# number of rings (size 3 to 8) (size 9 to 14) (size 15 to 20)
#    0.000    1.778    3.333    2.000    0.000   16.889 
#    8.000    2.222    0.000    0.000    0.000    0.000 
#    0.000    0.000    0.000    0.000    0.000    0.000 
#
# Total GULP energy -300791.471752 kJ/mol
# GULP energy per Si atom -5570.212440 kJ/mol
# Density = 2.138813 g / cm^3
# Si number density = 21.436919 Si / 1000 Ang^3
#
#
#
# Elastic Constant Matrix: (Units=GPa)
#
#
# Indices 1 2 3 4 5 6 
#
# 1 98.2901 38.3183 5.3729 0.0000 0.0000 0.0000
# 2 38.3183 98.2901 5.3729 0.0000 0.0000 0.0000
# 3 5.3729 5.3729 23.2113 0.0000 0.0000 0.0000
# 4 0.0000 0.0000 0.0000 19.5201 0.0000 0.0000
# 5 0.0000 0.0000 0.0000 0.0000 19.5201 0.0000
# 6 0.0000 0.0000 0.0000 0.0000 0.0000 29.9859
#
#
#
# Elastic Compliance Matrix: (Units=1/GPa)
#
#
# Indices 1 2 3 4 5 6 
#
# 1 0.012065 -0.004609 -0.001726 0.000000 0.000000 0.000000
# 2 -0.004609 0.012065 -0.001726 0.000000 0.000000 0.000000
# 3 -0.001726 -0.001726 0.043881 0.000000 0.000000 0.000000
# 4 0.000000 0.000000 0.000000 0.051229 0.000000 0.000000
# 5 0.000000 0.000000 0.000000 0.000000 0.051229 0.000000
# 6 0.000000 0.000000 0.000000 0.000000 0.000000 0.033349
#
#
# Mechanical properties :
#
#
# Convention : Reuss Voigt Hill
#
# Bulk Modulus (GPa) = 19.27159 35.32440 27.29799
# Shear Modulus (GPa) = 21.07586 25.18703 23.13145
#
# Velocity S-wave (km/s) = 3.13894 3.43145 3.28845
# Velocity P-wave (km/s) = 4.70602 5.67573 5.21347
#
# Compressibility (1/GPa) = 0.05188986
#
# Stress axis : x y z
#
# Youngs Moduli (GPa) = 82.88276 82.88276 22.78866
#
# Poissons Ratio (x) = 0.38203 0.03933
# Poissons Ratio (y) = 0.38203 0.03933
# Poissons Ratio (z) = 0.14305 0.14305
#
# Static dielectric constant tensor:
#      x y z
#    x 1.832340 0.000000 0.000000 
#    y 0.000000 1.832340 0.000000 
#    z 0.000000 0.000000 1.938070 
# 
# From -- ./inp_files/8113.got.cif
#   From: 2010.05.17/outbox.cif.g08.bks.cpg/sg178_5_cif.got.tgz:8113.got - 2010.05.20 11:30:59.
