data_PCOD9582676
_publ_section_title
;
Structure prediction by ZEFSAII (Michael W. Deem and Ramdas Pophale) SiO2 
 PCOD9582676
Probable space group: P 61 2 2
;
_chemical_formula_sum "Si O2"
_cell_formula_units_Z 30
_cell_length_a 18.290652
_cell_length_b 18.290652
_cell_length_c 5.109484
_cell_angle_alpha 90.000000
_cell_angle_beta 90.000000
_cell_angle_gamma 120.000000
_cell_volume 1480.355593
_symmetry_space_group_name_H-M "P 61 2 2"
_symmetry_group_IT_number 178
_symmetry_cell_setting 'hexagonal'
loop_
_space_group_symop_operation_xyz
x,y,z
x-y,x,1/6+z
-y,x-y,1/3+z
-x,-y,1/2+z
-x+y,-x,2/3+z
y,-x+y,5/6+z
x-y,-y,-z
-x,-x+y,2/3-z
y,x,1/3-z
-y,-x,5/6-z
-x+y,y,1/2-z
x,x-y,1/6-z
loop_
_atom_site_type_symbol
_atom_site_label
_atom_site_fract_x
_atom_site_fract_y
_atom_site_fract_z
Si Si1 0.382603 0.617398 0.916667
Si Si2 0.353329 0.264601 0.585597
Si Si3 0.455994 0.315314 0.086037
O O1 0.297677 0.595354 0.750000
O O2 0.451551 0.626650 0.705178
O O3 0.273204 0.273204 0.666667
O O4 0.339557 0.169779 0.583334
O O5 0.389239 0.305242 0.305431
O O6 0.425865 0.321471 0.798302
O O7 0.450697 0.225349 0.083334
#
# Coordination Sequence:
#
# PCOD9582676 Si02
#       3
#     6  12  12
#     4  12  22  34  58  82 118 158 216 252 292 318
#     4  10  21  39  62  85 115 150 192 239 298 366
#     4  10  21  36  55  85 116 152 197 247 293 345
#
# _framework density 20.265404
#
# number of rings (size 3 to 8) (size 9 to 14) (size 15 to 20)
#    0.000    1.600    2.000    4.800    0.000    0.000 
#    0.000    4.000    0.000    0.000    0.000    8.400 
#    0.000    0.000    0.000    0.000    0.000    0.000 
#
# Total GULP energy -167369.806851 kJ/mol
# GULP energy per Si atom -5578.993562 kJ/mol
# Density = 2.021928 g / cm^3
# Si number density = 20.265404 Si / 1000 Ang^3
#
#
#
# Elastic Constant Matrix: (Units=GPa)
#
#
# Indices 1 2 3 4 5 6 
#
# 1 80.4562 61.6306 38.6483 0.0000 0.0000 0.0000
# 2 61.6306 80.4562 38.6483 0.0000 0.0000 0.0000
# 3 38.6483 38.6483 125.0607 0.0000 0.0000 0.0000
# 4 0.0000 0.0000 0.0000 32.3370 0.0000 0.0000
# 5 0.0000 0.0000 0.0000 0.0000 32.3370 0.0000
# 6 0.0000 0.0000 0.0000 0.0000 0.0000 9.4128
#
#
#
# Elastic Compliance Matrix: (Units=1/GPa)
#
#
# Indices 1 2 3 4 5 6 
#
# 1 0.030790 -0.022329 -0.002615 0.000000 0.000000 0.000000
# 2 -0.022329 0.030790 -0.002615 0.000000 0.000000 0.000000
# 3 -0.002615 -0.002615 0.009612 0.000000 0.000000 0.000000
# 4 0.000000 0.000000 0.000000 0.030924 0.000000 0.000000
# 5 0.000000 0.000000 0.000000 0.000000 0.030924 0.000000
# 6 0.000000 0.000000 0.000000 0.000000 0.000000 0.106239
#
#
# Mechanical properties :
#
#
# Convention : Reuss Voigt Hill
#
# Bulk Modulus (GPa) = 62.21025 62.64748 62.42887
# Shear Modulus (GPa) = 16.68033 24.62040 20.65037
#
# Velocity S-wave (km/s) = 2.87207 3.48932 3.19563
# Velocity P-wave (km/s) = 6.46242 6.87128 6.66998
#
# Compressibility (1/GPa) = 0.01607452
#
# Stress axis : x y z
#
# Youngs Moduli (GPa) = 32.47831 32.47831 104.03570
#
# Poissons Ratio (x) = 0.72522 0.27200
# Poissons Ratio (y) = 0.72522 0.27200
# Poissons Ratio (z) = 0.08492 0.08492
#
# Static dielectric constant tensor:
#      x y z
#    x 1.766170 0.000000 0.000000 
#    y 0.000000 1.766170 0.000000 
#    z 0.000000 0.000000 1.781610 
# 
# From -- ./inp_files/326.got.cif
#   From: 2010.05.17/outbox.cif.g08.bks.cpg/sg178_1_cif.got.tgz:326.got - 2010.05.20 11:30:59.
