data_PCOD9582671
_publ_section_title
;
Structure prediction by ZEFSAII (Michael W. Deem and Ramdas Pophale) SiO2 
 PCOD9582671
Probable space group: P 61 2 2
;
_chemical_formula_sum "Si O2"
_cell_formula_units_Z 84
_cell_length_a 14.198329
_cell_length_b 14.198329
_cell_length_c 22.734753
_cell_angle_alpha 90.000000
_cell_angle_beta 90.000000
_cell_angle_gamma 120.000000
_cell_volume 3969.130174
_symmetry_space_group_name_H-M "P 61 2 2"
_symmetry_group_IT_number 178
_symmetry_cell_setting 'hexagonal'
loop_
_space_group_symop_operation_xyz
x,y,z
x-y,x,1/6+z
-y,x-y,1/3+z
-x,-y,1/2+z
-x+y,-x,2/3+z
y,-x+y,5/6+z
x-y,-y,-z
-x,-x+y,2/3-z
y,x,1/3-z
-y,-x,5/6-z
-x+y,y,1/2-z
x,x-y,1/6-z
loop_
_atom_site_type_symbol
_atom_site_label
_atom_site_fract_x
_atom_site_fract_y
_atom_site_fract_z
Si Si1 0.395933 0.801424 0.949521
Si Si2 0.801034 0.632978 0.121966
Si Si3 0.840712 0.163622 0.606041
Si Si4 0.222680 0.553294 0.413003
Si Si5 0.498215 0.999580 0.861041
Si Si6 0.289523 0.279942 0.532626
Si Si7 0.313321 0.303805 0.358698
O O1 0.306977 0.693024 0.916667
O O2 0.507391 0.798959 0.960543
O O3 0.432529 0.907406 0.909728
O O4 0.345039 0.808592 0.011081
O O5 0.868248 0.675399 0.182184
O O6 0.744567 0.699399 0.096575
O O7 0.890166 0.648746 0.071556
O O8 0.778808 0.233349 0.606753
O O9 0.932055 0.193334 0.655423
O O10 0.908670 0.200696 0.546578
O O11 0.745469 0.047049 0.626693
O O12 0.332896 0.667105 0.416667
O O13 0.121454 0.548815 0.446853
O O14 0.603032 0.991172 0.845328
O O15 0.411370 0.984107 0.811707
#
# Coordination Sequence:
#
# PCOD9582671 Si02
#       7
#    12  12  12  12  12  12  12
#     4  11  23  34  52  75 109 156 205 246 295 359
#     4   9  19  31  51  76 108 148 203 242 298 342
#     4   9  19  31  51  76 108 148 203 242 298 342
#     4  11  23  34  52  75 109 156 205 246 295 359
#     4  10  21  35  50  72 110 152 201 258 295 338
#     4   9  18  32  50  76 106 150 197 252 285 353
#     4   9  18  32  50  76 106 150 197 252 285 353
#
# _framework density 21.163326999999999
#
# number of rings (size 3 to 8) (size 9 to 14) (size 15 to 20)
#    0.000    2.286    0.000    2.143   12.000    1.143 
#    0.000    0.000    0.000    0.000    0.000    0.000 
#    0.000    0.000    0.000 3119.143   56.571    0.000 
#
# Total GULP energy -468347.792742 kJ/mol
# GULP energy per Si atom -5575.568961 kJ/mol
# Density = 2.111516 g / cm^3
# Si number density = 21.163327 Si / 1000 Ang^3
#
#
#
# Elastic Constant Matrix: (Units=GPa)
#
#
# Indices 1 2 3 4 5 6 
#
# 1 64.6995 26.1649 17.8821 0.0000 0.0000 0.0000
# 2 26.1649 64.6995 17.8821 0.0000 0.0000 0.0000
# 3 17.8821 17.8821 59.6975 0.0000 0.0000 0.0000
# 4 0.0000 0.0000 0.0000 25.8644 0.0000 0.0000
# 5 0.0000 0.0000 0.0000 0.0000 25.8644 0.0000
# 6 0.0000 0.0000 0.0000 0.0000 0.0000 19.2673
#
#
#
# Elastic Compliance Matrix: (Units=1/GPa)
#
#
# Indices 1 2 3 4 5 6 
#
# 1 0.019214 -0.006737 -0.003737 0.000000 0.000000 0.000000
# 2 -0.006737 0.019214 -0.003737 0.000000 0.000000 0.000000
# 3 -0.003737 -0.003737 0.018990 0.000000 0.000000 0.000000
# 4 0.000000 0.000000 0.000000 0.038663 0.000000 0.000000
# 5 0.000000 0.000000 0.000000 0.000000 0.038663 0.000000
# 6 0.000000 0.000000 0.000000 0.000000 0.000000 0.051901
#
#
# Mechanical properties :
#
#
# Convention : Reuss Voigt Hill
#
# Bulk Modulus (GPa) = 34.49003 34.77273 34.63138
# Shear Modulus (GPa) = 22.24865 22.67706 22.46286
#
# Velocity S-wave (km/s) = 3.24587 3.27697 3.26146
# Velocity P-wave (km/s) = 5.51180 5.54837 5.53012
#
# Compressibility (1/GPa) = 0.02899389
#
# Stress axis : x y z
#
# Youngs Moduli (GPa) = 52.04665 52.04665 52.65914
#
# Poissons Ratio (x) = 0.35065 0.19680
# Poissons Ratio (y) = 0.35065 0.19680
# Poissons Ratio (z) = 0.19451 0.19451
#
# Static dielectric constant tensor:
#      x y z
#    x 1.773890 0.000000 0.000000 
#    y 0.000000 1.773890 0.000000 
#    z 0.000000 0.000000 1.829390 
# 
# From -- ./inp_files/8301.got.cif
#   From: 2010.05.17/outbox.cif.g08.bks.cpg/sg178_5_cif.got.tgz:8301.got - 2010.05.20 11:30:59.
