data_PCOD9582527
_publ_section_title
;
Structure prediction by ZEFSAII (Michael W. Deem and Ramdas Pophale) SiO2 
 PCOD9582527
Probable space group: P 61 2 2
;
_chemical_formula_sum "Si O2"
_cell_formula_units_Z 66
_cell_length_a 29.707103
_cell_length_b 29.707103
_cell_length_c 5.150310
_cell_angle_alpha 90.000000
_cell_angle_beta 90.000000
_cell_angle_gamma 120.000000
_cell_volume 3936.267514
_symmetry_space_group_name_H-M "P 61 2 2"
_symmetry_group_IT_number 178
_symmetry_cell_setting 'hexagonal'
loop_
_space_group_symop_operation_xyz
x,y,z
x-y,x,1/6+z
-y,x-y,1/3+z
-x,-y,1/2+z
-x+y,-x,2/3+z
y,-x+y,5/6+z
x-y,-y,-z
-x,-x+y,2/3-z
y,x,1/3-z
-y,-x,5/6-z
-x+y,y,1/2-z
x,x-y,1/6-z
loop_
_atom_site_type_symbol
_atom_site_label
_atom_site_fract_x
_atom_site_fract_y
_atom_site_fract_z
Si Si1 0.940535 0.881070 0.750000
Si Si2 0.213485 0.944195 0.361055
Si Si3 0.313940 0.407244 0.271257
Si Si4 0.811602 0.905801 0.083334
Si Si5 0.754447 0.139435 0.924004
Si Si6 0.698417 0.698417 0.666667
Si Si7 0.467219 0.430089 0.920274
O O1 0.915762 0.915762 0.666667
O O2 0.934894 0.846015 0.500564
O O3 0.154356 0.929332 0.345193
O O4 0.219692 0.897196 0.469192
O O5 0.246369 0.000000 0.500000
O O6 0.244835 0.956591 0.095300
O O7 0.277478 0.410485 0.485421
O O8 0.317515 0.354481 0.323185
O O9 0.371703 0.452513 0.342383
O O10 0.286109 0.401479 0.989052
O O11 0.801951 0.198050 0.916667
O O12 0.440002 0.440002 0.666667
O O13 0.528653 0.471348 0.916667
O O14 0.446275 0.446275 0.166667
#
# Coordination Sequence:
#
# PCOD9582527 Si02
#       7
#     6  12  12   6  12   6  12
#     4  12  28  51  70  86  96 118 150 204 278 376
#     4  11  22  38  54  79 107 138 170 222 268 330
#     4  11  21  35  57  77 112 151 194 230 270 332
#     4  12  28  41  66  86 108 124 160 210 284 326
#     4  11  23  38  53  80 108 151 195 237 280 330
#     4  10  22  32  58  76 110 142 188 208 270 308
#     4  10  20  33  53  83 117 151 192 239 276 312
#
# _framework density 16.767154000000001
#
# number of rings (size 3 to 8) (size 9 to 14) (size 15 to 20)
#    0.000    1.091    3.636    3.273    6.364    0.727 
#    0.000    0.000    0.000    0.000    0.000    0.000 
#    0.000    0.000    0.000    8.182    0.000    0.545 
#
# Total GULP energy -367450.765074 kJ/mol
# GULP energy per Si atom -5567.435834 kJ/mol
# Density = 1.672899 g / cm^3
# Si number density = 16.767154 Si / 1000 Ang^3
#
#
#
# Elastic Constant Matrix: (Units=GPa)
#
#
# Indices 1 2 3 4 5 6 
#
# 1 114.6366 10.4676 22.0196 0.0000 0.0000 0.0000
# 2 10.4676 114.6366 22.0196 0.0000 0.0000 0.0000
# 3 22.0196 22.0196 84.2306 0.0000 0.0000 0.0000
# 4 0.0000 0.0000 0.0000 21.8501 0.0000 0.0000
# 5 0.0000 0.0000 0.0000 0.0000 21.8501 0.0000
# 6 0.0000 0.0000 0.0000 0.0000 0.0000 52.0845
#
#
#
# Elastic Compliance Matrix: (Units=1/GPa)
#
#
# Indices 1 2 3 4 5 6 
#
# 1 0.009202 -0.000398 -0.002301 0.000000 0.000000 0.000000
# 2 -0.000398 0.009202 -0.002301 0.000000 0.000000 0.000000
# 3 -0.002301 -0.002301 0.013075 0.000000 0.000000 0.000000
# 4 0.000000 0.000000 0.000000 0.045766 0.000000 0.000000
# 5 0.000000 0.000000 0.000000 0.000000 0.045766 0.000000
# 6 0.000000 0.000000 0.000000 0.000000 0.000000 0.019200
#
#
# Mechanical properties :
#
#
# Convention : Reuss Voigt Hill
#
# Bulk Modulus (GPa) = 46.56194 46.94637 46.75415
# Shear Modulus (GPa) = 31.37314 36.42339 33.89826
#
# Velocity S-wave (km/s) = 4.33032 4.66586 4.50122
# Velocity P-wave (km/s) = 7.26858 7.55558 7.41347
#
# Compressibility (1/GPa) = 0.02147677
#
# Stress axis : x y z
#
# Youngs Moduli (GPa) = 108.67634 108.67634 76.47930
#
# Poissons Ratio (x) = 0.04327 0.17601
# Poissons Ratio (y) = 0.04327 0.17601
# Poissons Ratio (z) = 0.25011 0.25011
#
# Static dielectric constant tensor:
#      x y z
#    x 1.592520 0.000000 0.000000 
#    y 0.000000 1.592520 0.000000 
#    z 0.000000 0.000000 1.731010 
# 
# From -- ./inp_files/1614.got.cif
#   From: 2010.05.17/outbox.cif.g08.bks.cpg/sg178_1_cif.got.tgz:1614.got - 2010.05.20 11:30:59.
