data_PCOD9582412
_publ_section_title
;
Structure prediction by ZEFSAII (Michael W. Deem and Ramdas Pophale) SiO2 
 PCOD9582412
Probable space group: P 61 2 2
;
_chemical_formula_sum "Si O2"
_cell_formula_units_Z 48
_cell_length_a 11.587876
_cell_length_b 11.587876
_cell_length_c 21.224670
_cell_angle_alpha 90.000000
_cell_angle_beta 90.000000
_cell_angle_gamma 120.000000
_cell_volume 2468.193798
_symmetry_space_group_name_H-M "P 61 2 2"
_symmetry_group_IT_number 178
_symmetry_cell_setting 'hexagonal'
loop_
_space_group_symop_operation_xyz
x,y,z
x-y,x,1/6+z
-y,x-y,1/3+z
-x,-y,1/2+z
-x+y,-x,2/3+z
y,-x+y,5/6+z
x-y,-y,-z
-x,-x+y,2/3-z
y,x,1/3-z
-y,-x,5/6-z
-x+y,y,1/2-z
x,x-y,1/6-z
loop_
_atom_site_type_symbol
_atom_site_label
_atom_site_fract_x
_atom_site_fract_y
_atom_site_fract_z
Si Si1 0.930999 0.607062 0.072422
Si Si2 0.320627 0.641254 0.750000
Si Si3 0.799575 0.353862 0.784928
Si Si4 0.830639 0.624118 0.942981
Si Si5 0.620677 0.620677 0.666667
O O1 0.941612 0.470806 0.083334
O O2 0.781140 0.567579 0.092375
O O3 0.048129 0.730603 0.109852
O O4 0.933118 0.650819 0.999761
O O5 0.329210 0.558934 0.692540
O O6 0.465325 0.732631 0.778589
O O7 0.683255 0.366510 0.750000
O O8 0.928299 0.498798 0.783596
O O9 0.901792 0.648610 0.875107
#
# Coordination Sequence:
#
# PCOD9582412 Si02
#       5
#    12   6  12  12   6
#     4  11  23  38  66  93 132 166 216 270 335 388
#     4  10  18  34  56  90 126 166 194 254 326 378
#     4  10  21  38  59  93 126 158 210 262 320 388
#     4  11  23  37  62  94 133 171 208 277 326 398
#     4  10  26  36  62  92 132 170 214 262 326 398
#
# _framework density 19.447419
#
# number of rings (size 3 to 8) (size 9 to 14) (size 15 to 20)
#    0.000    1.500    6.250    0.000   10.500    0.000 
#    0.000    0.000    0.000    4.500    0.000    0.000 
#    0.000    0.000    0.000    0.000    0.000    0.000 
#
# Total GULP energy -267265.948643 kJ/mol
# GULP energy per Si atom -5568.040597 kJ/mol
# Density = 1.940316 g / cm^3
# Si number density = 19.447419 Si / 1000 Ang^3
#
#
#
# Elastic Constant Matrix: (Units=GPa)
#
#
# Indices 1 2 3 4 5 6 
#
# 1 63.0068 20.0303 18.2164 0.0000 0.0000 0.0000
# 2 20.0303 63.0068 18.2164 0.0000 0.0000 0.0000
# 3 18.2164 18.2164 67.5401 0.0000 0.0000 0.0000
# 4 0.0000 0.0000 0.0000 24.0658 0.0000 0.0000
# 5 0.0000 0.0000 0.0000 0.0000 24.0658 0.0000
# 6 0.0000 0.0000 0.0000 0.0000 0.0000 21.4882
#
#
#
# Elastic Compliance Matrix: (Units=1/GPa)
#
#
# Indices 1 2 3 4 5 6 
#
# 1 0.018464 -0.004805 -0.003684 0.000000 0.000000 0.000000
# 2 -0.004805 0.018464 -0.003684 0.000000 0.000000 0.000000
# 3 -0.003684 -0.003684 0.016793 0.000000 0.000000 0.000000
# 4 0.000000 0.000000 0.000000 0.041553 0.000000 0.000000
# 5 0.000000 0.000000 0.000000 0.000000 0.041553 0.000000
# 6 0.000000 0.000000 0.000000 0.000000 0.000000 0.046537
#
#
# Mechanical properties :
#
#
# Convention : Reuss Voigt Hill
#
# Bulk Modulus (GPa) = 34.04202 34.05334 34.04768
# Shear Modulus (GPa) = 22.98839 23.06333 23.02586
#
# Velocity S-wave (km/s) = 3.44187 3.44747 3.44467
# Velocity P-wave (km/s) = 5.77390 5.77886 5.77638
#
# Compressibility (1/GPa) = 0.02937546
#
# Stress axis : x y z
#
# Youngs Moduli (GPa) = 54.15981 54.15981 59.54759
#
# Poissons Ratio (x) = 0.26022 0.21938
# Poissons Ratio (y) = 0.26022 0.21938
# Poissons Ratio (z) = 0.19953 0.19953
#
# Static dielectric constant tensor:
#      x y z
#    x 1.702050 0.000000 0.000000 
#    y 0.000000 1.702050 0.000000 
#    z 0.000000 0.000000 1.778310 
# 
# From -- ./inp_files/7313.got.cif
#   From: 2010.05.17/outbox.cif.g08.bks.cpg/sg178_4_cif.got.tgz:7313.got - 2010.05.20 11:30:59.
