data_PCOD9582939
_publ_section_title
;
Structure prediction by ZEFSAII (Michael W. Deem and Ramdas Pophale) SiO2 
 PCOD9582939
Probable space group: P 61 2 2
;
_chemical_formula_sum "Si O2"
_cell_formula_units_Z 72
_cell_length_a 17.616712
_cell_length_b 17.616712
_cell_length_c 18.749541
_cell_angle_alpha 90.000000
_cell_angle_beta 90.000000
_cell_angle_gamma 120.000000
_cell_volume 5039.308906
_symmetry_space_group_name_H-M "P 61 2 2"
_symmetry_group_IT_number 178
_symmetry_cell_setting 'hexagonal'
loop_
_space_group_symop_operation_xyz
x,y,z
x-y,x,1/6+z
-y,x-y,1/3+z
-x,-y,1/2+z
-x+y,-x,2/3+z
y,-x+y,5/6+z
x-y,-y,-z
-x,-x+y,2/3-z
y,x,1/3-z
-y,-x,5/6-z
-x+y,y,1/2-z
x,x-y,1/6-z
loop_
_atom_site_type_symbol
_atom_site_label
_atom_site_fract_x
_atom_site_fract_y
_atom_site_fract_z
Si Si1 0.976723 0.595950 0.517342
Si Si2 0.178689 0.642423 0.724748
Si Si3 0.419073 0.986240 0.843422
Si Si4 0.288231 0.461866 0.814642
Si Si5 0.652184 0.475387 0.727896
Si Si6 0.206224 0.708984 0.213377
O O1 0.966796 0.599475 0.602479
O O2 0.980989 0.507091 0.504413
O O3 0.890008 0.578975 0.476440
O O4 0.069634 0.673984 0.489882
O O5 0.184878 0.557704 0.700547
O O6 0.177796 0.644896 0.809705
O O7 0.254904 0.728132 0.686940
O O8 0.086244 0.630164 0.698552
O O9 0.368674 0.915704 0.904989
O O10 0.220522 0.441043 0.750000
O O11 0.245927 0.468592 0.888531
O O12 0.747402 0.494803 0.750000
O O13 0.580014 0.381731 0.760295
#
# Coordination Sequence:
#
# PCOD9582939 Si02
#       6
#    12  12  12  12  12  12
#     4   9  19  33  48  66  92 123 157 197 245 289
#     4  11  20  32  49  64  92 127 163 197 241 282
#     4   9  18  33  47  63  92 124 155 196 242 282
#     4  11  20  33  49  68  92 124 164 205 241 289
#     4  11  21  30  45  70  92 119 166 206 232 274
#     4  11  21  32  49  67  92 127 162 202 246 281
#
# _framework density 14.287674000000001
#
# number of rings (size 3 to 8) (size 9 to 14) (size 15 to 20)
#    0.000    1.667    3.333    3.000    0.000    2.000 
#    0.000    0.000    0.000    0.000    0.000    0.000 
#    0.000    0.000    0.000    4.500    0.333    0.000 
#
# Total GULP energy -401648.660709 kJ/mol
# GULP energy per Si atom -5578.453621 kJ/mol
# Density = 1.425515 g / cm^3
# Si number density = 14.287674 Si / 1000 Ang^3
#
#
#
# Elastic Constant Matrix: (Units=GPa)
#
#
# Indices 1 2 3 4 5 6 
#
# 1 54.8122 23.6818 40.7828 0.0000 0.0000 0.0000
# 2 23.6818 54.8122 40.7828 0.0000 0.0000 0.0000
# 3 40.7828 40.7828 82.8796 0.0000 0.0000 0.0000
# 4 0.0000 0.0000 0.0000 21.9237 0.0000 0.0000
# 5 0.0000 0.0000 0.0000 0.0000 21.9237 0.0000
# 6 0.0000 0.0000 0.0000 0.0000 0.0000 15.5652
#
#
#
# Elastic Compliance Matrix: (Units=1/GPa)
#
#
# Indices 1 2 3 4 5 6 
#
# 1 0.029097 -0.003026 -0.012828 0.000000 0.000000 0.000000
# 2 -0.003026 0.029097 -0.012828 0.000000 0.000000 0.000000
# 3 -0.012828 -0.012828 0.024691 0.000000 0.000000 0.000000
# 4 0.000000 0.000000 0.000000 0.045613 0.000000 0.000000
# 5 0.000000 0.000000 0.000000 0.000000 0.045613 0.000000
# 6 0.000000 0.000000 0.000000 0.000000 0.000000 0.064246
#
#
# Mechanical properties :
#
#
# Convention : Reuss Voigt Hill
#
# Bulk Modulus (GPa) = 39.18888 44.77765 41.98327
# Shear Modulus (GPa) = 16.43506 17.69963 17.06734
#
# Velocity S-wave (km/s) = 3.39528 3.52348 3.45998
# Velocity P-wave (km/s) = 6.54665 6.92541 6.73869
#
# Compressibility (1/GPa) = 0.02551744
#
# Stress axis : x y z
#
# Youngs Moduli (GPa) = 34.36827 34.36827 40.50097
#
# Poissons Ratio (x) = 0.10401 0.51957
# Poissons Ratio (y) = 0.10401 0.51957
# Poissons Ratio (z) = 0.44089 0.44089
#
# Static dielectric constant tensor:
#      x y z
#    x 1.459840 0.000000 0.000000 
#    y 0.000000 1.459840 0.000000 
#    z 0.000000 0.000000 1.494690 
# 
# From -- ./inp_files/6884.got.cif
#   From: 2010.05.17/outbox.cif.g08.bks.cpg/sg178_4_cif.got.tgz:6884.got - 2010.05.20 11:30:59.
