data_PCOD9582722
_publ_section_title
;
Structure prediction by ZEFSAII (Michael W. Deem and Ramdas Pophale) SiO2 
 PCOD9582722
Probable space group: P 61 2 2
;
_chemical_formula_sum "Si O2"
_cell_formula_units_Z 60
_cell_length_a 14.497642
_cell_length_b 14.497642
_cell_length_c 14.387091
_cell_angle_alpha 90.000000
_cell_angle_beta 90.000000
_cell_angle_gamma 120.000000
_cell_volume 2618.776076
_symmetry_space_group_name_H-M "P 61 2 2"
_symmetry_group_IT_number 178
_symmetry_cell_setting 'hexagonal'
loop_
_space_group_symop_operation_xyz
x,y,z
x-y,x,1/6+z
-y,x-y,1/3+z
-x,-y,1/2+z
-x+y,-x,2/3+z
y,-x+y,5/6+z
x-y,-y,-z
-x,-x+y,2/3-z
y,x,1/3-z
-y,-x,5/6-z
-x+y,y,1/2-z
x,x-y,1/6-z
loop_
_atom_site_type_symbol
_atom_site_label
_atom_site_fract_x
_atom_site_fract_y
_atom_site_fract_z
Si Si1 0.713991 0.694340 0.778112
Si Si2 0.281599 0.937860 0.401344
Si Si3 0.425214 0.683072 0.322467
Si Si4 0.193391 0.331162 0.450248
Si Si5 0.984448 0.494740 0.724591
O O1 0.700483 0.700483 0.666667
O O2 0.740012 0.810717 0.807721
O O3 0.788703 0.665530 0.838977
O O4 0.598529 0.605020 0.816683
O O5 0.175964 0.824037 0.416667
O O6 0.387469 0.937146 0.366345
O O7 0.313830 0.000000 0.500000
O O8 0.280165 0.023233 0.331680
O O9 0.356714 0.643287 0.416667
O O10 0.352618 0.705235 0.250000
O O11 0.548614 0.768515 0.347142
O O12 0.445726 0.586747 0.291013
O O13 0.000000 0.512243 0.833334
#
# Coordination Sequence:
#
# PCOD9582722 Si02
#       5
#    12  12  12  12  12
#     4  11  23  42  70 100 141 183 234 303 374 444
#     4  10  21  42  65  91 132 182 233 296 357 429
#     4  11  24  43  66 100 146 190 240 303 369 464
#     4  11  24  44  68 105 134 189 244 293 374 452
#     4   9  21  39  62  96 134 178 230 288 358 442
#
# _framework density 22.911465
#
# number of rings (size 3 to 8) (size 9 to 14) (size 15 to 20)
#    0.000    1.600    2.000    1.800    5.600    0.000 
#   18.000    0.000    0.000   12.000    0.000    0.000 
#    0.000    0.000    0.000    0.000    0.000    0.000 
#
# Total GULP energy -334229.988124 kJ/mol
# GULP energy per Si atom -5570.499802 kJ/mol
# Density = 2.285932 g / cm^3
# Si number density = 22.911465 Si / 1000 Ang^3
#
#
#
# Elastic Constant Matrix: (Units=GPa)
#
#
# Indices 1 2 3 4 5 6 
#
# 1 75.1023 80.7164 24.5389 0.0000 0.0000 0.0000
# 2 80.7164 75.1023 24.5389 0.0000 0.0000 0.0000
# 3 24.5389 24.5389 138.5856 0.0000 0.0000 0.0000
# 4 0.0000 0.0000 0.0000 36.8473 0.0000 0.0000
# 5 0.0000 0.0000 0.0000 0.0000 36.8473 0.0000
# 6 0.0000 0.0000 0.0000 0.0000 0.0000 -2.8071
#
#
#
# Elastic Compliance Matrix: (Units=1/GPa)
#
#
# Indices 1 2 3 4 5 6 
#
# 1 -0.085663 0.092459 -0.001203 0.000000 0.000000 0.000000
# 2 0.092459 -0.085663 -0.001203 0.000000 0.000000 0.000000
# 3 -0.001203 -0.001203 0.007642 0.000000 0.000000 0.000000
# 4 0.000000 0.000000 0.000000 0.027139 0.000000 0.000000
# 5 0.000000 0.000000 0.000000 0.000000 0.027139 0.000000
# 6 0.000000 0.000000 0.000000 0.000000 0.000000 -0.356244
#
#
# Mechanical properties :
#
#
# Convention : Reuss Voigt Hill
#
# Bulk Modulus (GPa) = 60.89554 60.93097 60.91326
# Shear Modulus (GPa) = -7.80908 24.77724 8.48408
#
# Velocity S-wave (km/s) = -1.84818 3.29208 1.92640
# Velocity P-wave (km/s) = 4.69915 6.41110 5.62069
#
# Compressibility (1/GPa) = 0.01642156
#
# Stress axis : x y z
#
# Youngs Moduli (GPa) = -11.67371 -11.67371 130.85660
#
# Poissons Ratio (x) = 1.07934 0.15748
# Poissons Ratio (y) = 1.07934 0.15748
# Poissons Ratio (z) = -0.01405 -0.01405
#
# Static dielectric constant tensor:
#      x y z
#    x 1.880610 0.000000 0.000000 
#    y 0.000000 1.880610 0.000000 
#    z 0.000000 0.000000 1.959430 
# 
# From -- ./inp_files/5687.got.cif
#   From: 2010.05.17/outbox.cif.g08.bks.cpg/sg178_3_cif.got.tgz:5687.got - 2010.05.20 11:30:59.
