data_PCOD9582511
_publ_section_title
;
Structure prediction by ZEFSAII (Michael W. Deem and Ramdas Pophale) SiO2 
 PCOD9582511
Probable space group: P 61 2 2
;
_chemical_formula_sum "Si O2"
_cell_formula_units_Z 48
_cell_length_a 17.431646
_cell_length_b 17.431646
_cell_length_c 8.841996
_cell_angle_alpha 90.000000
_cell_angle_beta 90.000000
_cell_angle_gamma 120.000000
_cell_volume 2326.792961
_symmetry_space_group_name_H-M "P 61 2 2"
_symmetry_group_IT_number 178
_symmetry_cell_setting 'hexagonal'
loop_
_space_group_symop_operation_xyz
x,y,z
x-y,x,1/6+z
-y,x-y,1/3+z
-x,-y,1/2+z
-x+y,-x,2/3+z
y,-x+y,5/6+z
x-y,-y,-z
-x,-x+y,2/3-z
y,x,1/3-z
-y,-x,5/6-z
-x+y,y,1/2-z
x,x-y,1/6-z
loop_
_atom_site_type_symbol
_atom_site_label
_atom_site_fract_x
_atom_site_fract_y
_atom_site_fract_z
Si Si1 0.384103 0.394247 0.009377
Si Si2 0.813247 0.371069 0.246768
Si Si3 0.503900 0.824207 0.835180
Si Si4 0.341394 0.091882 0.575555
O O1 0.452810 0.368310 0.932593
O O2 0.307131 0.375334 0.892315
O O3 0.343902 0.343902 0.166667
O O4 0.414860 0.494528 0.063545
O O5 0.753888 0.264167 0.248472
O O6 0.801449 0.416413 0.398231
O O7 0.786513 0.393257 0.083334
O O8 0.576182 0.849539 0.966463
O O9 0.290756 0.145378 0.583334
O O10 0.281295 0.000000 0.500000
#
# Coordination Sequence:
#
# PCOD9582511 Si02
#       4
#    12  12  12  12
#     4  11  26  43  68  94 129 174 227 274 339 404
#     4  12  24  45  68  94 135 173 234 281 341 404
#     4  11  25  46  67  94 132 180 222 287 339 395
#     4  10  19  41  69  95 131 173 219 272 336 403
#
# _framework density 20.629255000000001
#
# number of rings (size 3 to 8) (size 9 to 14) (size 15 to 20)
#    0.000    1.000    5.000    0.750    3.500    1.000 
#   13.500    0.000    0.000    0.000    0.000    1.750 
#    0.000    0.000    0.000    0.000    0.000    0.000 
#
# Total GULP energy -267852.701371 kJ/mol
# GULP energy per Si atom -5580.264612 kJ/mol
# Density = 2.058230 g / cm^3
# Si number density = 20.629255 Si / 1000 Ang^3
#
#
#
# Elastic Constant Matrix: (Units=GPa)
#
#
# Indices 1 2 3 4 5 6 
#
# 1 95.3363 81.7036 48.8163 0.0000 0.0000 0.0000
# 2 81.7036 95.3363 48.8163 0.0000 0.0000 0.0000
# 3 48.8163 48.8163 150.3807 0.0000 0.0000 0.0000
# 4 0.0000 0.0000 0.0000 23.8489 0.0000 0.0000
# 5 0.0000 0.0000 0.0000 0.0000 23.8489 0.0000
# 6 0.0000 0.0000 0.0000 0.0000 0.0000 6.8163
#
#
#
# Elastic Compliance Matrix: (Units=1/GPa)
#
#
# Indices 1 2 3 4 5 6 
#
# 1 0.040117 -0.033236 -0.002233 0.000000 0.000000 0.000000
# 2 -0.033236 0.040117 -0.002233 0.000000 0.000000 0.000000
# 3 -0.002233 -0.002233 0.008100 0.000000 0.000000 0.000000
# 4 0.000000 0.000000 0.000000 0.041931 0.000000 0.000000
# 5 0.000000 0.000000 0.000000 0.000000 0.041931 0.000000
# 6 0.000000 0.000000 0.000000 0.000000 0.000000 0.146706
#
#
# Mechanical properties :
#
#
# Convention : Reuss Voigt Hill
#
# Bulk Modulus (GPa) = 77.36116 77.74729 77.55422
# Shear Modulus (GPa) = 12.54341 21.68397 17.11369
#
# Velocity S-wave (km/s) = 2.46852 3.24563 2.88337
# Velocity P-wave (km/s) = 6.76069 7.19827 6.98291
#
# Compressibility (1/GPa) = 0.01292638
#
# Stress axis : x y z
#
# Youngs Moduli (GPa) = 24.92734 24.92734 123.45988
#
# Poissons Ratio (x) = 0.82850 0.27574
# Poissons Ratio (y) = 0.82850 0.27574
# Poissons Ratio (z) = 0.05567 0.05567
#
# Static dielectric constant tensor:
#      x y z
#    x 1.810000 0.000000 0.000000 
#    y 0.000000 1.810000 0.000000 
#    z 0.000000 0.000000 2.118410 
# 
# From -- ./inp_files/2529.got.cif
#   From: 2010.05.17/outbox.cif.g08.bks.cpg/sg178_2_cif.got.tgz:2529.got - 2010.05.20 11:30:59.
