data_PCOD9582027
_publ_section_title
;
Structure prediction by ZEFSAII (Michael W. Deem and Ramdas Pophale) SiO2 
 PCOD9582027
Probable space group: P 63/M
;
_chemical_formula_sum "Si O2"
_cell_formula_units_Z 30
_cell_length_a 14.051572
_cell_length_b 14.051572
_cell_length_c 8.619506
_cell_angle_alpha 90.000000
_cell_angle_beta 90.000000
_cell_angle_gamma 120.000000
_cell_volume 1473.882404
_symmetry_space_group_name_H-M "P 63/M"
_symmetry_group_IT_number 176
_symmetry_cell_setting 'hexagonal'
loop_
_space_group_symop_operation_xyz
x,y,z
x-y,x,1/2+z
-y,x-y,z
-x,-y,1/2+z
-x+y,-x,z
y,-x+y,1/2+z
-x,-y,-z
-x+y,-x,1/2-z
y,-x+y,-z
x,y,1/2-z
x-y,x,-z
-y,x-y,1/2-z
loop_
_atom_site_type_symbol
_atom_site_label
_atom_site_fract_x
_atom_site_fract_y
_atom_site_fract_z
Si Si1 0.034779 0.814814 0.929100
Si Si2 0.387750 0.979771 0.926660
Si Si3 0.776211 0.468579 0.250000
O O1 0.066763 0.843530 0.750000
O O2 0.913951 0.795623 0.962837
O O3 0.028241 0.701090 0.973697
O O4 0.407150 0.024553 0.750000
O O5 0.309286 0.848028 0.896050
O O6 0.500000 0.000000 0.000000
O O7 0.647267 0.424793 0.250000
#
# Coordination Sequence:
#
# PCOD9582027 Si02
#       3
#    12  12   6
#     4  12  26  44  67  95 132 171 218 271 331 397
#     4  10  22  37  65  94 129 168 218 267 330 377
#     4   8  20  38  62  88 124 174 216 266 326 378
#
# _framework density 20.354403999999999
#
# number of rings (size 3 to 8) (size 9 to 14) (size 15 to 20)
#    1.600    0.000    0.000    5.200    5.600    0.000 
#    0.000    0.000    0.000    0.000    0.000    0.000 
#    0.000    0.000    0.000    0.000    0.000    0.000 
#
# Total GULP energy -167381.291138 kJ/mol
# GULP energy per Si atom -5579.376371 kJ/mol
# Density = 2.030808 g / cm^3
# Si number density = 20.354404 Si / 1000 Ang^3
#
#
#
# Elastic Constant Matrix: (Units=GPa)
#
#
# Indices 1 2 3 4 5 6 
#
# 1 78.1231 5.2531 -3.5821 0.0000 0.0000 0.0000
# 2 5.2531 78.1231 -3.5821 0.0000 0.0000 0.0000
# 3 -3.5821 -3.5821 67.9879 0.0000 0.0000 0.0000
# 4 0.0000 0.0000 0.0000 30.9494 0.0000 0.0000
# 5 0.0000 0.0000 0.0000 0.0000 30.9494 0.0000
# 6 0.0000 0.0000 0.0000 0.0000 0.0000 36.4350
#
#
#
# Elastic Compliance Matrix: (Units=1/GPa)
#
#
# Indices 1 2 3 4 5 6 
#
# 1 0.012886 -0.000837 0.000635 0.000000 0.000000 0.000000
# 2 -0.000837 0.012886 0.000635 0.000000 0.000000 0.000000
# 3 0.000635 0.000635 0.014775 0.000000 0.000000 0.000000
# 4 0.000000 0.000000 0.000000 0.032311 0.000000 0.000000
# 5 0.000000 0.000000 0.000000 0.000000 0.032311 0.000000
# 6 0.000000 0.000000 0.000000 0.000000 0.000000 0.027446
#
#
# Mechanical properties :
#
#
# Convention : Reuss Voigt Hill
#
# Bulk Modulus (GPa) = 24.14800 24.49023 24.31912
# Shear Modulus (GPa) = 34.35155 34.74311 34.54733
#
# Velocity S-wave (km/s) = 4.11258 4.13596 4.12429
# Velocity P-wave (km/s) = 5.86862 5.90476 5.88672
#
# Compressibility (1/GPa) = 0.04141130
#
# Stress axis : x y z
#
# Youngs Moduli (GPa) = 77.60529 77.60529 67.68009
#
# Poissons Ratio (x) = 0.06498 -0.04296
# Poissons Ratio (y) = 0.06498 -0.04296
# Poissons Ratio (z) = -0.04926 -0.04926
#
# Static dielectric constant tensor:
#      x y z
#    x 1.740440 0.000000 0.000000 
#    y 0.000000 1.740440 0.000000 
#    z 0.000000 0.000000 1.679740 
# 
# From -- ./inp_files/302.got.cif
#   From: 2010.05.17/outbox.cif.g08.bks.cpg/sg176_1_cif.got.tgz:302.got - 2010.06.03 11:36:45.
