data_PCOD9582989
_publ_section_title
;
Structure prediction by ZEFSAII (Michael W. Deem and Ramdas Pophale) SiO2 
 PCOD9582989
Probable space group: P 61 2 2
;
_chemical_formula_sum "Si O2"
_cell_formula_units_Z 66
_cell_length_a 14.107015
_cell_length_b 14.107015
_cell_length_c 19.021646
_cell_angle_alpha 90.000000
_cell_angle_beta 90.000000
_cell_angle_gamma 120.000000
_cell_volume 3278.302184
_symmetry_space_group_name_H-M "P 61 2 2"
_symmetry_group_IT_number 178
_symmetry_cell_setting 'hexagonal'
loop_
_space_group_symop_operation_xyz
x,y,z
x-y,x,1/6+z
-y,x-y,1/3+z
-x,-y,1/2+z
-x+y,-x,2/3+z
y,-x+y,5/6+z
x-y,-y,-z
-x,-x+y,2/3-z
y,x,1/3-z
-y,-x,5/6-z
-x+y,y,1/2-z
x,x-y,1/6-z
loop_
_atom_site_type_symbol
_atom_site_label
_atom_site_fract_x
_atom_site_fract_y
_atom_site_fract_z
Si Si1 0.745283 0.254718 0.916667
Si Si2 0.649456 0.685725 0.903633
Si Si3 0.548879 0.816048 0.660928
Si Si4 0.483380 0.420163 0.804155
Si Si5 0.141557 0.634520 0.722165
Si Si6 0.339325 0.112744 0.467689
O O1 0.634753 0.219570 0.875445
O O2 0.834194 0.264171 0.861725
O O3 0.725470 0.651857 0.859264
O O4 0.564214 0.684601 0.847155
O O5 0.697145 0.800734 0.943684
O O6 0.590807 0.588389 0.960443
O O7 0.566865 0.783433 0.583334
O O8 0.448541 0.842475 0.657169
O O9 0.524851 0.719318 0.714795
O O10 0.504401 0.528185 0.761702
O O11 0.405260 0.311765 0.761100
O O12 0.244694 0.000000 0.500000
#
# Coordination Sequence:
#
# PCOD9582989 Si02
#       6
#     6  12  12  12  12  12
#     4  12  24  34  60 100 132 186 224 282 336 414
#     4  11  25  43  63  93 144 186 229 291 345 420
#     4  11  25  41  64  97 141 188 230 280 349 429
#     4  11  24  45  63 100 146 183 234 285 347 423
#     4  11  23  41  64  93 141 180 229 279 345 419
#     4  12  23  42  63  92 139 185 237 279 350 412
#
# _framework density 20.132373000000001
#
# number of rings (size 3 to 8) (size 9 to 14) (size 15 to 20)
#    0.000    0.727    3.636    4.364    5.091    2.182 
#    0.000    0.000    0.000    0.000    0.000    0.000 
#  390.000    0.000    0.000    0.000    0.000    0.000 
#
# Total GULP energy -368740.282485 kJ/mol
# GULP energy per Si atom -5586.973977 kJ/mol
# Density = 2.008655 g / cm^3
# Si number density = 20.132373 Si / 1000 Ang^3
#
#
#
# Elastic Constant Matrix: (Units=GPa)
#
#
# Indices 1 2 3 4 5 6 
#
# 1 113.0047 32.2450 56.7267 0.0000 0.0000 0.0000
# 2 32.2450 113.0047 56.7267 0.0000 0.0000 0.0000
# 3 56.7267 56.7267 132.8990 0.0000 0.0000 0.0000
# 4 0.0000 0.0000 0.0000 35.6074 0.0000 0.0000
# 5 0.0000 0.0000 0.0000 0.0000 35.6074 0.0000
# 6 0.0000 0.0000 0.0000 0.0000 0.0000 40.3798
#
#
#
# Elastic Compliance Matrix: (Units=1/GPa)
#
#
# Indices 1 2 3 4 5 6 
#
# 1 0.011355 -0.001027 -0.004408 0.000000 0.000000 0.000000
# 2 -0.001027 0.011355 -0.004408 0.000000 0.000000 0.000000
# 3 -0.004408 -0.004408 0.011288 0.000000 0.000000 0.000000
# 4 0.000000 0.000000 0.000000 0.028084 0.000000 0.000000
# 5 0.000000 0.000000 0.000000 0.000000 0.028084 0.000000
# 6 0.000000 0.000000 0.000000 0.000000 0.000000 0.024765
#
#
# Mechanical properties :
#
#
# Convention : Reuss Voigt Hill
#
# Bulk Modulus (GPa) = 69.87967 72.25614 71.06790
# Shear Modulus (GPa) = 35.87065 36.53290 36.20178
#
# Velocity S-wave (km/s) = 4.22565 4.26447 4.24510
# Velocity P-wave (km/s) = 7.65464 7.75990 7.70745
#
# Compressibility (1/GPa) = 0.01431031
#
# Stress axis : x y z
#
# Youngs Moduli (GPa) = 88.06489 88.06489 88.59017
#
# Poissons Ratio (x) = 0.09046 0.39055
# Poissons Ratio (y) = 0.09046 0.39055
# Poissons Ratio (z) = 0.38823 0.38823
#
# Static dielectric constant tensor:
#      x y z
#    x 1.741320 0.000000 0.000000 
#    y 0.000000 1.741320 0.000000 
#    z 0.000000 0.000000 1.756060 
# 
# From -- ./inp_files/6671.got.cif
#   From: 2010.05.17/outbox.cif.g08.bks.cpg/sg178_4_cif.got.tgz:6671.got - 2010.05.20 11:30:59.
