data_PCOD9582957
_publ_section_title
;
Structure prediction by ZEFSAII (Michael W. Deem and Ramdas Pophale) SiO2 
 PCOD9582957
Probable space group: P 61 2 2
;
_chemical_formula_sum "Si O2"
_cell_formula_units_Z 42
_cell_length_a 20.702496
_cell_length_b 20.702496
_cell_length_c 5.635826
_cell_angle_alpha 90.000000
_cell_angle_beta 90.000000
_cell_angle_gamma 120.000000
_cell_volume 2091.864871
_symmetry_space_group_name_H-M "P 61 2 2"
_symmetry_group_IT_number 178
_symmetry_cell_setting 'hexagonal'
loop_
_space_group_symop_operation_xyz
x,y,z
x-y,x,1/6+z
-y,x-y,1/3+z
-x,-y,1/2+z
-x+y,-x,2/3+z
y,-x+y,5/6+z
x-y,-y,-z
-x,-x+y,2/3-z
y,x,1/3-z
-y,-x,5/6-z
-x+y,y,1/2-z
x,x-y,1/6-z
loop_
_atom_site_type_symbol
_atom_site_label
_atom_site_fract_x
_atom_site_fract_y
_atom_site_fract_z
Si Si1 0.592545 0.796273 0.083334
Si Si2 0.804970 0.479794 0.610726
Si Si3 0.475936 0.069656 0.873318
Si Si4 0.960704 0.283259 0.078220
O O1 0.534249 0.722587 0.230422
O O2 0.646808 0.871577 0.229421
O O3 0.730634 0.461268 0.750000
O O4 0.805335 0.402668 0.583334
O O5 0.875657 0.528722 0.773915
O O6 0.555899 0.111798 0.750000
O O7 0.399533 0.036788 0.733900
O O8 0.475138 0.000000 0.000000
O O9 0.000000 0.285146 0.333334
O O10 0.000000 0.278651 0.833334
#
# Coordination Sequence:
#
# PCOD9582957 Si02
#       4
#     6  12  12  12
#     4  12  24  46  64  90 132 166 216 278 332 396
#     4  12  27  40  61  85 115 166 208 266 339 398
#     4  11  21  39  61  90 112 149 204 265 328 387
#     4  11  24  40  67  95 124 164 211 263 327 395
#
# _framework density 20.077777999999999
#
# number of rings (size 3 to 8) (size 9 to 14) (size 15 to 20)
#    0.000    0.571    2.857    6.857    2.000    0.000 
#    0.000    0.000    0.000    0.000    0.000    0.000 
#    0.000    0.000    0.000    2.571    0.000    9.714 
#
# Total GULP energy -234164.157511 kJ/mol
# GULP energy per Si atom -5575.337084 kJ/mol
# Density = 2.003208 g / cm^3
# Si number density = 20.077778 Si / 1000 Ang^3
#
#
#
# Elastic Constant Matrix: (Units=GPa)
#
#
# Indices 1 2 3 4 5 6 
#
# 1 69.9092 33.6269 44.8215 0.0000 0.0000 0.0000
# 2 33.6269 69.9092 44.8215 0.0000 0.0000 0.0000
# 3 44.8215 44.8215 127.7030 0.0000 0.0000 0.0000
# 4 0.0000 0.0000 0.0000 282.3743 0.0000 0.0000
# 5 0.0000 0.0000 0.0000 0.0000 282.3743 0.0000
# 6 0.0000 0.0000 0.0000 0.0000 0.0000 18.1412
#
#
#
# Elastic Compliance Matrix: (Units=1/GPa)
#
#
# Indices 1 2 3 4 5 6 
#
# 1 0.020718 -0.006843 -0.004870 0.000000 0.000000 0.000000
# 2 -0.006843 0.020718 -0.004870 0.000000 0.000000 0.000000
# 3 -0.004870 -0.004870 0.011249 0.000000 0.000000 0.000000
# 4 0.000000 0.000000 0.000000 0.003541 0.000000 0.000000
# 5 0.000000 0.000000 0.000000 0.000000 0.003541 0.000000
# 6 0.000000 0.000000 0.000000 0.000000 0.000000 0.055123
#
#
# Mechanical properties :
#
#
# Convention : Reuss Voigt Hill
#
# Bulk Modulus (GPa) = 51.23086 57.11790 54.17438
# Shear Modulus (GPa) = 32.34905 126.19474 79.27190
#
# Velocity S-wave (km/s) = 4.01831 7.93659 6.29032
# Velocity P-wave (km/s) = 6.86300 10.60641 8.93299
#
# Compressibility (1/GPa) = 0.01951949
#
# Stress axis : x y z
#
# Youngs Moduli (GPa) = 48.26672 48.26672 88.89593
#
# Poissons Ratio (x) = 0.33031 0.43291
# Poissons Ratio (y) = 0.33031 0.43291
# Poissons Ratio (z) = 0.23505 0.23505
#
# Static dielectric constant tensor:
#      x y z
#    x 1.256860 0.000000 0.000000 
#    y 0.000000 1.256860 0.000000 
#    z 0.000000 0.000000 1.940230 
# 
# From -- ./inp_files/757.got.cif
#   From: 2010.05.17/outbox.cif.g08.bks.cpg/sg178_1_cif.got.tgz:757.got - 2010.05.20 11:30:59.
