data_PCOD9582439
_publ_section_title
;
Structure prediction by ZEFSAII (Michael W. Deem and Ramdas Pophale) SiO2 
 PCOD9582439
Probable space group: P 61 2 2
;
_chemical_formula_sum "Si O2"
_cell_formula_units_Z 66
_cell_length_a 30.408481
_cell_length_b 30.408481
_cell_length_c 5.157539
_cell_angle_alpha 90.000000
_cell_angle_beta 90.000000
_cell_angle_gamma 120.000000
_cell_volume 4130.119380
_symmetry_space_group_name_H-M "P 61 2 2"
_symmetry_group_IT_number 178
_symmetry_cell_setting 'hexagonal'
loop_
_space_group_symop_operation_xyz
x,y,z
x-y,x,1/6+z
-y,x-y,1/3+z
-x,-y,1/2+z
-x+y,-x,2/3+z
y,-x+y,5/6+z
x-y,-y,-z
-x,-x+y,2/3-z
y,x,1/3-z
-y,-x,5/6-z
-x+y,y,1/2-z
x,x-y,1/6-z
loop_
_atom_site_type_symbol
_atom_site_label
_atom_site_fract_x
_atom_site_fract_y
_atom_site_fract_z
Si Si1 0.193774 0.627264 0.325883
Si Si2 0.583132 0.947391 0.609645
Si Si3 0.695418 0.304583 0.916667
Si Si4 0.944761 0.258167 0.417051
Si Si5 0.122321 0.772429 0.407170
Si Si6 0.335940 0.885080 0.402814
O O1 0.190928 0.595464 0.583334
O O2 0.251109 0.673900 0.274847
O O3 0.159417 0.652530 0.371193
O O4 0.178729 0.589365 0.083334
O O5 0.639109 0.953848 0.632106
O O6 0.554361 0.904810 0.390640
O O7 0.590919 0.000000 0.500000
O O8 0.559777 0.929602 0.892391
O O9 0.647724 0.295447 0.750000
O O10 0.914175 0.228797 0.674367
O O11 0.000000 0.267135 0.333334
O O12 0.907502 0.234970 0.174178
O O13 0.176367 0.823634 0.416667
O O14 0.128842 0.722466 0.382948
#
# Coordination Sequence:
#
# PCOD9582439 Si02
#       6
#    12  12   6  12  12  12
#     4  11  23  37  56  73  96 122 145 189 219 278
#     4   9  17  32  53  73  94 123 160 191 220 273
#     4  10  20  38  56  74  92 116 158 174 220 268
#     4   9  17  30  47  68  95 131 167 194 231 288
#     4  10  19  30  47  73 102 124 154 203 252 287
#     4  10  20  33  51  75  97 124 152 187 240 284
#
# _framework density 15.980169
#
# number of rings (size 3 to 8) (size 9 to 14) (size 15 to 20)
#    0.000    2.182    0.909    2.727    1.273    4.364 
#    0.000    0.000    0.000   10.909    0.000    0.000 
#    0.000    0.000    0.000    0.000    0.000    0.000 
#
# Total GULP energy -367569.727522 kJ/mol
# GULP energy per Si atom -5569.238296 kJ/mol
# Density = 1.594380 g / cm^3
# Si number density = 15.980169 Si / 1000 Ang^3
#
#
#
# Elastic Constant Matrix: (Units=GPa)
#
#
# Indices 1 2 3 4 5 6 
#
# 1 41.6414 23.5387 -5.1088 0.0000 0.0000 0.0000
# 2 23.5387 41.6414 -5.1088 0.0000 0.0000 0.0000
# 3 -5.1088 -5.1088 59.5258 0.0000 0.0000 0.0000
# 4 0.0000 0.0000 0.0000 1.0929 0.0000 0.0000
# 5 0.0000 0.0000 0.0000 0.0000 1.0929 0.0000
# 6 0.0000 0.0000 0.0000 0.0000 0.0000 9.0514
#
#
#
# Elastic Compliance Matrix: (Units=1/GPa)
#
#
# Indices 1 2 3 4 5 6 
#
# 1 0.035396 -0.019844 0.001335 0.000000 0.000000 0.000000
# 2 -0.019844 0.035396 0.001335 0.000000 0.000000 0.000000
# 3 0.001335 0.001335 0.017029 0.000000 0.000000 0.000000
# 4 0.000000 0.000000 0.000000 0.915025 0.000000 0.000000
# 5 0.000000 0.000000 0.000000 0.000000 0.915025 0.000000
# 6 0.000000 0.000000 0.000000 0.000000 0.000000 0.110480
#
#
# Mechanical properties :
#
#
# Convention : Reuss Voigt Hill
#
# Bulk Modulus (GPa) = 18.70209 18.82787 18.76498
# Shear Modulus (GPa) = 2.40324 10.87993 6.64159
#
# Velocity S-wave (km/s) = 1.22766 2.61212 2.04087
# Velocity P-wave (km/s) = 3.70652 4.57222 4.16194
#
# Compressibility (1/GPa) = 0.05346997
#
# Stress axis : x y z
#
# Youngs Moduli (GPa) = 28.25197 28.25197 58.72499
#
# Poissons Ratio (x) = 0.56064 -0.07838
# Poissons Ratio (y) = 0.56064 -0.07838
# Poissons Ratio (z) = -0.03771 -0.03771
#
# Static dielectric constant tensor:
#      x y z
#    x 1.572750 0.000000 0.000000 
#    y 0.000000 1.572750 0.000000 
#    z 0.000000 0.000000 1.562790 
# 
# From -- ./inp_files/1582.got.cif
#   From: 2010.05.17/outbox.cif.g08.bks.cpg/sg178_1_cif.got.tgz:1582.got - 2010.05.20 11:30:59.
