data_PCOD9582525
_publ_section_title
;
Structure prediction by ZEFSAII (Michael W. Deem and Ramdas Pophale) SiO2 
 PCOD9582525
Probable space group: P 61 2 2
;
_chemical_formula_sum "Si O2"
_cell_formula_units_Z 48
_cell_length_a 21.748020
_cell_length_b 21.748020
_cell_length_c 6.352540
_cell_angle_alpha 90.000000
_cell_angle_beta 90.000000
_cell_angle_gamma 120.000000
_cell_volume 2602.061084
_symmetry_space_group_name_H-M "P 61 2 2"
_symmetry_group_IT_number 178
_symmetry_cell_setting 'hexagonal'
loop_
_space_group_symop_operation_xyz
x,y,z
x-y,x,1/6+z
-y,x-y,1/3+z
-x,-y,1/2+z
-x+y,-x,2/3+z
y,-x+y,5/6+z
x-y,-y,-z
-x,-x+y,2/3-z
y,x,1/3-z
-y,-x,5/6-z
-x+y,y,1/2-z
x,x-y,1/6-z
loop_
_atom_site_type_symbol
_atom_site_label
_atom_site_fract_x
_atom_site_fract_y
_atom_site_fract_z
Si Si1 0.712894 0.793467 0.691124
Si Si2 0.151091 0.715903 0.023412
Si Si3 0.590565 0.514320 0.572390
Si Si4 0.077296 0.708160 0.435933
O O1 0.771942 0.771942 0.666667
O O2 0.735423 0.867712 0.583334
O O3 0.643749 0.738817 0.558696
O O4 0.681233 0.778226 0.927148
O O5 0.225183 0.774818 0.916667
O O6 0.126729 0.638670 0.928454
O O7 0.138255 0.717210 0.271907
O O8 0.533157 0.533157 0.666667
O O9 0.552063 0.447938 0.416667
O O10 0.645479 0.579420 0.427137
O O11 0.000000 0.680141 0.333334
#
# Coordination Sequence:
#
# PCOD9582525 Si02
#       4
#    12  12  12  12
#     4  10  20  33  51  80 115 146 189 232 290 350
#     4  10  21  36  55  82 116 153 195 235 293 357
#     4  11  22  33  54  88 120 155 196 243 303 359
#     4  11  18  36  57  78 116 152 188 238 294 357
#
# _framework density 18.446916000000002
#
# number of rings (size 3 to 8) (size 9 to 14) (size 15 to 20)
#    0.000    1.500    5.000    2.250    0.000    9.000 
#    0.000    0.000    0.000    0.000    0.000    8.750 
#   15.000    0.000    0.000    0.000    0.000    0.000 
#
# Total GULP energy -267498.230338 kJ/mol
# GULP energy per Si atom -5572.879799 kJ/mol
# Density = 1.840493 g / cm^3
# Si number density = 18.446916 Si / 1000 Ang^3
#
#
#
# Elastic Constant Matrix: (Units=GPa)
#
#
# Indices 1 2 3 4 5 6 
#
# 1 62.2737 23.5887 6.3617 0.0000 0.0000 0.0000
# 2 23.5887 62.2737 6.3617 0.0000 0.0000 0.0000
# 3 6.3617 6.3617 52.9294 0.0000 0.0000 0.0000
# 4 0.0000 0.0000 0.0000 25.2433 0.0000 0.0000
# 5 0.0000 0.0000 0.0000 0.0000 25.2433 0.0000
# 6 0.0000 0.0000 0.0000 0.0000 0.0000 19.3425
#
#
#
# Elastic Compliance Matrix: (Units=1/GPa)
#
#
# Indices 1 2 3 4 5 6 
#
# 1 0.018854 -0.006996 -0.001425 0.000000 0.000000 0.000000
# 2 -0.006996 0.018854 -0.001425 0.000000 0.000000 0.000000
# 3 -0.001425 -0.001425 0.019236 0.000000 0.000000 0.000000
# 4 0.000000 0.000000 0.000000 0.039615 0.000000 0.000000
# 5 0.000000 0.000000 0.000000 0.000000 0.039615 0.000000
# 6 0.000000 0.000000 0.000000 0.000000 0.000000 0.051700
#
#
# Mechanical properties :
#
#
# Convention : Reuss Voigt Hill
#
# Bulk Modulus (GPa) = 26.84543 27.78902 27.31723
# Shear Modulus (GPa) = 22.72919 23.37680 23.05300
#
# Velocity S-wave (km/s) = 3.51399 3.56370 3.53894
# Velocity P-wave (km/s) = 5.57213 5.65953 5.61600
#
# Compressibility (1/GPa) = 0.03725029
#
# Stress axis : x y z
#
# Youngs Moduli (GPa) = 53.03983 53.03983 51.98674
#
# Poissons Ratio (x) = 0.37107 0.07409
# Poissons Ratio (y) = 0.37107 0.07409
# Poissons Ratio (z) = 0.07559 0.07559
#
# Static dielectric constant tensor:
#      x y z
#    x 1.648120 0.000000 0.000000 
#    y 0.000000 1.648120 0.000000 
#    z 0.000000 0.000000 1.785040 
# 
# From -- ./inp_files/1058.got.cif
#   From: 2010.05.17/outbox.cif.g08.bks.cpg/sg178_1_cif.got.tgz:1058.got - 2010.05.20 11:30:59.
