data_PCOD9582162
_publ_section_title
;
Structure prediction by ZEFSAII (Michael W. Deem and Ramdas Pophale) SiO2 
 PCOD9582162
Probable space group: P 6 2 2
;
_chemical_formula_sum "Si O2"
_cell_formula_units_Z 84
_cell_length_a 18.377306
_cell_length_b 18.377306
_cell_length_c 17.107300
_cell_angle_alpha 90.000000
_cell_angle_beta 90.000000
_cell_angle_gamma 120.000000
_cell_volume 5003.521805
_symmetry_space_group_name_H-M "P 6 2 2"
_symmetry_group_IT_number 177
_symmetry_cell_setting 'hexagonal'
loop_
_space_group_symop_operation_xyz
x,y,z
x-y,x,z
-y,x-y,z
-x,-y,z
-x+y,-x,z
y,-x+y,z
x-y,-y,-z
-x,-x+y,-z
y,x,-z
-y,-x,-z
-x+y,y,-z
x,x-y,-z
loop_
_atom_site_type_symbol
_atom_site_label
_atom_site_fract_x
_atom_site_fract_y
_atom_site_fract_z
Si Si1 0.364408 0.905098 0.165256
Si Si2 0.164060 0.494670 0.667252
Si Si3 0.169151 0.169151 0.404854
Si Si4 0.165094 0.495904 0.000000
Si Si5 0.635592 0.540689 0.165256
Si Si6 0.661196 1.000000 0.406252
Si Si7 0.330610 0.835940 0.332748
O O1 0.453498 0.906996 0.160563
O O2 0.320503 0.848973 0.240431
O O3 0.386785 0.000000 0.180348
O O4 0.322175 0.874293 0.080878
O O5 0.151027 0.471530 0.759569
O O6 0.166649 0.583325 0.657545
O O7 0.250058 0.500116 0.640197
O O8 0.083006 0.420832 0.624634
O O9 0.084679 0.169357 0.379848
O O10 0.168491 0.168491 0.500000
O O11 0.253850 0.253850 0.381002
O O12 0.125707 0.447883 0.919122
O O13 0.262516 0.525032 0.000000
O O14 0.153390 0.576695 0.000000
O O15 0.662173 0.083006 0.375366
O O16 0.659679 0.000000 0.500000
#
# Coordination Sequence:
#
# PCOD9582162 Si02
#       7
#    12  12  12  12  12  12  12
#     4   9  17  31  49  70  97 132 171 211 256 308
#     4  11  22  37  56  78 105 138 179 224 269 317
#     4   9  17  31  53  81 108 131 159 200 254 316
#     4  10  18  27  43  69 102 135 170 211 256 305
#     4   9  17  31  49  70  97 132 171 211 256 308
#     4  11  23  39  57  76 103 139 177 219 271 330
#     4  11  22  37  56  78 105 138 179 224 269 317
#
# _framework density 16.788176
#
# number of rings (size 3 to 8) (size 9 to 14) (size 15 to 20)
#    0.000    2.000    1.429    3.143    0.000    5.143 
#    0.000    2.857    0.000    1.714    0.000    0.000 
#    0.000    0.000    0.000    0.000    0.000    0.000 
#
# Total GULP energy -468265.170855 kJ/mol
# GULP energy per Si atom -5574.585367 kJ/mol
# Density = 1.674997 g / cm^3
# Si number density = 16.788176 Si / 1000 Ang^3
#
#
#
# Elastic Constant Matrix: (Units=GPa)
#
#
# Indices 1 2 3 4 5 6 
#
# 1 123.8138 70.6502 36.8272 0.0000 0.0000 0.0000
# 2 70.6502 123.8138 36.8272 0.0000 0.0000 0.0000
# 3 36.8272 36.8272 62.2036 0.0000 0.0000 0.0000
# 4 0.0000 0.0000 0.0000 17.2888 0.0000 0.0000
# 5 0.0000 0.0000 0.0000 0.0000 17.2888 0.0000
# 6 0.0000 0.0000 0.0000 0.0000 0.0000 26.5818
#
#
#
# Elastic Compliance Matrix: (Units=1/GPa)
#
#
# Indices 1 2 3 4 5 6 
#
# 1 0.012719 -0.006091 -0.003925 0.000000 0.000000 0.000000
# 2 -0.006091 0.012719 -0.003925 0.000000 0.000000 0.000000
# 3 -0.003925 -0.003925 0.020723 0.000000 0.000000 0.000000
# 4 0.000000 0.000000 0.000000 0.057841 0.000000 0.000000
# 5 0.000000 0.000000 0.000000 0.000000 0.057841 0.000000
# 6 0.000000 0.000000 0.000000 0.000000 0.000000 0.037620
#
#
# Mechanical properties :
#
#
# Convention : Reuss Voigt Hill
#
# Bulk Modulus (GPa) = 54.69655 66.49337 60.59496
# Shear Modulus (GPa) = 21.41909 23.26700 22.34304
#
# Velocity S-wave (km/s) = 3.57577 3.72683 3.65208
# Velocity P-wave (km/s) = 7.04977 7.62969 7.34546
#
# Compressibility (1/GPa) = 0.01828269
#
# Stress axis : x y z
#
# Youngs Moduli (GPa) = 78.62059 78.62059 48.25508
#
# Poissons Ratio (x) = 0.47884 0.18938
# Poissons Ratio (y) = 0.47884 0.18938
# Poissons Ratio (z) = 0.30855 0.30855
#
# Static dielectric constant tensor:
#      x y z
#    x 1.556150 0.000000 0.000000 
#    y 0.000000 1.556150 0.000000 
#    z 0.000000 0.000000 1.592060 
# 
# From -- ./inp_files/2623.got.cif
#   From: 2010.05.17/outbox.cif.g08.bks.cpg/sg177_2_cif.got.tgz:2623.got - 2010.05.20 11:28:44.
