data_PCOD9582931
_publ_section_title
;
Structure prediction by ZEFSAII (Michael W. Deem and Ramdas Pophale) SiO2 
 PCOD9582931
Probable space group: P 61 2 2
;
_chemical_formula_sum "Si O2"
_cell_formula_units_Z 30
_cell_length_a 15.289091
_cell_length_b 15.289091
_cell_length_c 7.799560
_cell_angle_alpha 90.000000
_cell_angle_beta 90.000000
_cell_angle_gamma 120.000000
_cell_volume 1578.934325
_symmetry_space_group_name_H-M "P 61 2 2"
_symmetry_group_IT_number 178
_symmetry_cell_setting 'hexagonal'
loop_
_space_group_symop_operation_xyz
x,y,z
x-y,x,1/6+z
-y,x-y,1/3+z
-x,-y,1/2+z
-x+y,-x,2/3+z
y,-x+y,5/6+z
x-y,-y,-z
-x,-x+y,2/3-z
y,x,1/3-z
-y,-x,5/6-z
-x+y,y,1/2-z
x,x-y,1/6-z
loop_
_atom_site_type_symbol
_atom_site_label
_atom_site_fract_x
_atom_site_fract_y
_atom_site_fract_z
Si Si1 0.791277 0.208724 0.416667
Si Si2 0.591563 0.191658 0.558318
Si Si3 0.886865 0.261006 0.771064
O O1 0.679188 0.175992 0.483116
O O2 0.857649 0.214494 0.580616
O O3 0.574172 0.148344 0.750000
O O4 0.618596 0.309298 0.583334
O O5 0.491080 0.140746 0.445813
O O6 0.000000 0.303864 0.833334
O O7 0.816091 0.183910 0.916667
#
# Coordination Sequence:
#
# PCOD9582931 Si02
#       3
#     6  12  12
#     4  12  20  38  64  84 130 174 206 256 320 364
#     4  11  18  33  58  85 125 170 206 246 299 376
#     4  11  25  41  59  91 124 162 216 268 318 384
#
# _framework density 19.000154999999999
#
# number of rings (size 3 to 8) (size 9 to 14) (size 15 to 20)
#    0.000    0.800   10.000    1.200    0.000    4.800 
#    0.000    0.000    0.000    0.000    5.200    0.000 
#    0.000    0.000    0.000    0.000    0.000    0.000 
#
# Total GULP energy -167478.288223 kJ/mol
# GULP energy per Si atom -5582.609607 kJ/mol
# Density = 1.895691 g / cm^3
# Si number density = 19.000155 Si / 1000 Ang^3
#
#
#
# Elastic Constant Matrix: (Units=GPa)
#
#
# Indices 1 2 3 4 5 6 
#
# 1 49.2400 46.9592 38.0948 0.0000 0.0000 0.0000
# 2 46.9592 49.2400 38.0948 0.0000 0.0000 0.0000
# 3 38.0948 38.0948 180.7958 0.0000 0.0000 0.0000
# 4 0.0000 0.0000 0.0000 15.9314 0.0000 0.0000
# 5 0.0000 0.0000 0.0000 0.0000 15.9314 0.0000
# 6 0.0000 0.0000 0.0000 0.0000 0.0000 1.1404
#
#
#
# Elastic Compliance Matrix: (Units=1/GPa)
#
#
# Indices 1 2 3 4 5 6 
#
# 1 0.225457 -0.212980 -0.002629 0.000000 0.000000 0.000000
# 2 -0.212980 0.225457 -0.002629 0.000000 0.000000 0.000000
# 3 -0.002629 -0.002629 0.006639 0.000000 0.000000 0.000000
# 4 0.000000 0.000000 0.000000 0.062769 0.000000 0.000000
# 5 0.000000 0.000000 0.000000 0.000000 0.062769 0.000000
# 6 0.000000 0.000000 0.000000 0.000000 0.000000 0.876874
#
#
# Mechanical properties :
#
#
# Convention : Reuss Voigt Hill
#
# Bulk Modulus (GPa) = 47.44412 58.39705 52.92059
# Shear Modulus (GPa) = 2.62679 17.00912 9.81795
#
# Velocity S-wave (km/s) = 1.17708 2.99525 2.27564
# Velocity P-wave (km/s) = 5.18382 6.53940 5.90067
#
# Compressibility (1/GPa) = 0.02107743
#
# Stress axis : x y z
#
# Youngs Moduli (GPa) = 4.43543 4.43543 150.62470
#
# Poissons Ratio (x) = 0.94466 0.39600
# Poissons Ratio (y) = 0.94466 0.39600
# Poissons Ratio (z) = 0.01166 0.01166
#
# Static dielectric constant tensor:
#      x y z
#    x 1.677710 0.000000 0.000000 
#    y 0.000000 1.677710 0.000000 
#    z 0.000000 0.000000 1.703220 
# 
# From -- ./inp_files/2016.got.cif
#   From: 2010.05.17/outbox.cif.g08.bks.cpg/sg178_2_cif.got.tgz:2016.got - 2010.05.20 11:30:59.
