data_PCOD9582904
_publ_section_title
;
Structure prediction by ZEFSAII (Michael W. Deem and Ramdas Pophale) SiO2 
 PCOD9582904
Probable space group: P 61 2 2
;
_chemical_formula_sum "Si O2"
_cell_formula_units_Z 48
_cell_length_a 15.899050
_cell_length_b 15.899050
_cell_length_c 10.270047
_cell_angle_alpha 90.000000
_cell_angle_beta 90.000000
_cell_angle_gamma 120.000000
_cell_volume 2248.254198
_symmetry_space_group_name_H-M "P 61 2 2"
_symmetry_group_IT_number 178
_symmetry_cell_setting 'hexagonal'
loop_
_space_group_symop_operation_xyz
x,y,z
x-y,x,1/6+z
-y,x-y,1/3+z
-x,-y,1/2+z
-x+y,-x,2/3+z
y,-x+y,5/6+z
x-y,-y,-z
-x,-x+y,2/3-z
y,x,1/3-z
-y,-x,5/6-z
-x+y,y,1/2-z
x,x-y,1/6-z
loop_
_atom_site_type_symbol
_atom_site_label
_atom_site_fract_x
_atom_site_fract_y
_atom_site_fract_z
Si Si1 0.960139 0.813391 0.973560
Si Si2 0.352241 0.521232 0.190605
Si Si3 0.470244 0.735122 0.083334
Si Si4 0.514940 0.485061 0.916667
Si Si5 0.894318 0.293616 0.110051
O O1 0.889040 0.849364 0.910552
O O2 0.918455 0.711086 0.047979
O O3 0.000000 0.799670 0.833334
O O4 0.254207 0.508414 0.250000
O O5 0.403511 0.622649 0.114557
O O6 0.424641 0.522881 0.298194
O O7 0.323571 0.436084 0.089446
O O8 0.537681 0.792041 0.204850
O O9 0.567199 0.600095 0.952320
#
# Coordination Sequence:
#
# PCOD9582904 Si02
#       5
#    12  12   6   6  12
#     4  10  24  48  77 107 141 188 252 319 385 451
#     4  12  25  44  72 104 146 201 246 300 376 456
#     4  12  25  46  64 104 152 198 248 303 366 454
#     4  12  25  44  72 104 152 196 246 313 364 448
#     4  12  26  44  70 108 149 197 251 306 378 451
#
# _framework density 21.349899000000001
#
# number of rings (size 3 to 8) (size 9 to 14) (size 15 to 20)
#    0.000    0.500    2.500    6.000   10.500    0.000 
#    0.000    7.500    0.000    0.000    0.000    0.000 
#    0.000    0.000    0.000    0.000    0.000    0.000 
#
# Total GULP energy -268080.818800 kJ/mol
# GULP energy per Si atom -5585.017058 kJ/mol
# Density = 2.130131 g / cm^3
# Si number density = 21.349899 Si / 1000 Ang^3
#
#
#
# Elastic Constant Matrix: (Units=GPa)
#
#
# Indices 1 2 3 4 5 6 
#
# 1 101.0874 27.2504 27.8123 0.0000 0.0000 0.0000
# 2 27.2504 101.0874 27.8123 0.0000 0.0000 0.0000
# 3 27.8123 27.8123 68.0332 0.0000 0.0000 0.0000
# 4 0.0000 0.0000 0.0000 38.4528 0.0000 0.0000
# 5 0.0000 0.0000 0.0000 0.0000 38.4528 0.0000
# 6 0.0000 0.0000 0.0000 0.0000 0.0000 36.9185
#
#
#
# Elastic Compliance Matrix: (Units=1/GPa)
#
#
# Indices 1 2 3 4 5 6 
#
# 1 0.011507 -0.002037 -0.003871 0.000000 0.000000 0.000000
# 2 -0.002037 0.011507 -0.003871 0.000000 0.000000 0.000000
# 3 -0.003871 -0.003871 0.017864 0.000000 0.000000 0.000000
# 4 0.000000 0.000000 0.000000 0.026006 0.000000 0.000000
# 5 0.000000 0.000000 0.000000 0.000000 0.026006 0.000000
# 6 0.000000 0.000000 0.000000 0.000000 0.000000 0.027087
#
#
# Mechanical properties :
#
#
# Convention : Reuss Voigt Hill
#
# Bulk Modulus (GPa) = 46.90791 48.43977 47.67384
# Shear Modulus (GPa) = 34.09699 35.25370 34.67534
#
# Velocity S-wave (km/s) = 4.00065 4.06795 4.03444
# Velocity P-wave (km/s) = 6.58476 6.69343 6.63932
#
# Compressibility (1/GPa) = 0.02131836
#
# Stress axis : x y z
#
# Youngs Moduli (GPa) = 86.90669 86.90669 55.97873
#
# Poissons Ratio (x) = 0.17701 0.21671
# Poissons Ratio (y) = 0.17701 0.21671
# Poissons Ratio (z) = 0.33644 0.33644
#
# Static dielectric constant tensor:
#      x y z
#    x 1.905440 0.000000 0.000000 
#    y 0.000000 1.905440 0.000000 
#    z 0.000000 0.000000 1.762290 
# 
# From -- ./inp_files/4171.got.cif
#   From: 2010.05.17/outbox.cif.g08.bks.cpg/sg178_3_cif.got.tgz:4171.got - 2010.05.20 11:30:59.
