data_PCOD9582460
_publ_section_title
;
Structure prediction by ZEFSAII (Michael W. Deem and Ramdas Pophale) SiO2 
 PCOD9582460
Probable space group: P 61 2 2
;
_chemical_formula_sum "Si O2"
_cell_formula_units_Z 90
_cell_length_a 17.156287
_cell_length_b 17.156287
_cell_length_c 17.235130
_cell_angle_alpha 90.000000
_cell_angle_beta 90.000000
_cell_angle_gamma 120.000000
_cell_volume 4393.309512
_symmetry_space_group_name_H-M "P 61 2 2"
_symmetry_group_IT_number 178
_symmetry_cell_setting 'hexagonal'
loop_
_space_group_symop_operation_xyz
x,y,z
x-y,x,1/6+z
-y,x-y,1/3+z
-x,-y,1/2+z
-x+y,-x,2/3+z
y,-x+y,5/6+z
x-y,-y,-z
-x,-x+y,2/3-z
y,x,1/3-z
-y,-x,5/6-z
-x+y,y,1/2-z
x,x-y,1/6-z
loop_
_atom_site_type_symbol
_atom_site_label
_atom_site_fract_x
_atom_site_fract_y
_atom_site_fract_z
Si Si1 0.092619 0.250624 0.416466
Si Si2 0.498558 0.823394 0.214281
Si Si3 0.186735 0.093368 0.083334
Si Si4 0.732761 0.438203 0.642166
Si Si5 0.400032 0.281657 0.899304
Si Si6 0.955737 0.612236 0.988958
Si Si7 0.884395 0.452637 0.270211
Si Si8 0.532668 0.367882 0.755986
O O1 0.105864 0.246783 0.324845
O O2 0.193832 0.303253 0.451827
O O3 0.049276 0.310891 0.441090
O O4 0.014284 0.147335 0.434385
O O5 0.408276 0.816551 0.250000
O O6 0.574350 0.879709 0.277468
O O7 0.509405 0.868273 0.130036
O O8 0.484583 0.724855 0.217170
O O9 0.742618 0.371309 0.583334
O O10 0.789269 0.540329 0.612676
O O11 0.632331 0.417626 0.624911
O O12 0.784123 0.421811 0.714844
O O13 0.461617 0.337854 0.826742
O O14 0.392180 0.347216 0.960245
O O15 0.940028 0.529328 0.935589
O O16 0.909252 0.490722 0.356876
#
# Coordination Sequence:
#
# PCOD9582460 Si02
#       8
#    12  12   6  12  12  12  12  12
#     4  11  20  42  62  96 132 162 204 257 330 419
#     4  10  19  34  57  83 120 171 228 272 320 368
#     4  10  24  36  70  96 126 162 206 258 330 422
#     4  10  19  33  53  84 120 171 219 264 318 378
#     4  11  22  39  61  85 131 172 212 265 342 411
#     4  11  22  39  60  85 126 173 210 266 338 398
#     4  11  21  35  58  85 124 169 226 276 313 367
#     4  11  21  35  58  89 122 171 230 272 319 379
#
# _framework density 20.485695
#
# number of rings (size 3 to 8) (size 9 to 14) (size 15 to 20)
#    0.000    1.333    4.000    4.800    0.000    5.867 
#    0.000    2.000    0.000    0.000    0.000    0.000 
#   48.000    0.000    0.000    0.000    0.000    0.000 
#
# Total GULP energy -501673.042856 kJ/mol
# GULP energy per Si atom -5574.144921 kJ/mol
# Density = 2.043907 g / cm^3
# Si number density = 20.485695 Si / 1000 Ang^3
#
#
#
# Elastic Constant Matrix: (Units=GPa)
#
#
# Indices 1 2 3 4 5 6 
#
# 1 79.5254 18.6136 33.0319 0.0000 0.0000 0.0000
# 2 18.6136 79.5254 33.0319 0.0000 0.0000 0.0000
# 3 33.0319 33.0319 110.6344 0.0000 0.0000 0.0000
# 4 0.0000 0.0000 0.0000 19.5782 0.0000 0.0000
# 5 0.0000 0.0000 0.0000 0.0000 19.5782 0.0000
# 6 0.0000 0.0000 0.0000 0.0000 0.0000 30.4559
#
#
#
# Elastic Compliance Matrix: (Units=1/GPa)
#
#
# Indices 1 2 3 4 5 6 
#
# 1 0.014585 -0.001832 -0.003808 0.000000 0.000000 0.000000
# 2 -0.001832 0.014585 -0.003808 0.000000 0.000000 0.000000
# 3 -0.003808 -0.003808 0.011312 0.000000 0.000000 0.000000
# 4 0.000000 0.000000 0.000000 0.051077 0.000000 0.000000
# 5 0.000000 0.000000 0.000000 0.000000 0.051077 0.000000
# 6 0.000000 0.000000 0.000000 0.000000 0.000000 0.032834
#
#
# Mechanical properties :
#
#
# Convention : Reuss Voigt Hill
#
# Bulk Modulus (GPa) = 46.32277 48.78223 47.55250
# Shear Modulus (GPa) = 24.80632 26.25632 25.53132
#
# Velocity S-wave (km/s) = 3.48359 3.58395 3.53413
# Velocity P-wave (km/s) = 6.23232 6.40241 6.31794
#
# Compressibility (1/GPa) = 0.02158766
#
# Stress axis : x y z
#
# Youngs Moduli (GPa) = 68.56371 68.56371 88.39848
#
# Poissons Ratio (x) = 0.12562 0.33658
# Poissons Ratio (y) = 0.12562 0.33658
# Poissons Ratio (z) = 0.26106 0.26106
#
# Static dielectric constant tensor:
#      x y z
#    x 1.804380 0.000000 0.000000 
#    y 0.000000 1.804380 0.000000 
#    z 0.000000 0.000000 2.008810 
# 
# From -- ./inp_files/6987.got.cif
#   From: 2010.05.17/outbox.cif.g08.bks.cpg/sg178_4_cif.got.tgz:6987.got - 2010.05.20 11:30:59.
