data_PCOD9582743
_publ_section_title
;
Structure prediction by ZEFSAII (Michael W. Deem and Ramdas Pophale) SiO2 
 PCOD9582743
Probable space group: P 61 2 2
;
_chemical_formula_sum "Si O2"
_cell_formula_units_Z 72
_cell_length_a 15.729035
_cell_length_b 15.729035
_cell_length_c 17.859093
_cell_angle_alpha 90.000000
_cell_angle_beta 90.000000
_cell_angle_gamma 120.000000
_cell_volume 3826.433659
_symmetry_space_group_name_H-M "P 61 2 2"
_symmetry_group_IT_number 178
_symmetry_cell_setting 'hexagonal'
loop_
_space_group_symop_operation_xyz
x,y,z
x-y,x,1/6+z
-y,x-y,1/3+z
-x,-y,1/2+z
-x+y,-x,2/3+z
y,-x+y,5/6+z
x-y,-y,-z
-x,-x+y,2/3-z
y,x,1/3-z
-y,-x,5/6-z
-x+y,y,1/2-z
x,x-y,1/6-z
loop_
_atom_site_type_symbol
_atom_site_label
_atom_site_fract_x
_atom_site_fract_y
_atom_site_fract_z
Si Si1 0.862174 0.424068 0.268546
Si Si2 0.070276 0.535080 0.232290
Si Si3 0.066961 0.350532 0.015249
Si Si4 0.306987 0.509597 0.376088
Si Si5 0.220117 0.779884 0.416667
Si Si6 0.000000 0.072527 0.833334
Si Si7 0.709038 0.866856 0.212196
O O1 0.897619 0.469078 0.350583
O O2 0.777554 0.314042 0.282265
O O3 0.821632 0.488238 0.229003
O O4 0.961078 0.440707 0.229170
O O5 0.061307 0.620979 0.190710
O O6 0.150788 0.509566 0.201172
O O7 0.139017 0.405427 0.083881
O O8 0.961500 0.266850 0.044745
O O9 0.113908 0.307855 0.955480
O O10 0.401959 0.598042 0.416667
O O11 0.207119 0.838605 0.484830
O O12 0.909369 0.090349 0.818044
O O13 0.018438 0.036875 0.750000
#
# Coordination Sequence:
#
# PCOD9582743 Si02
#       7
#    12  12  12  12   6   6  12
#     4  11  21  37  61  89 122 166 212 262 323 390
#     4  10  22  38  60  88 121 165 215 262 317 392
#     4  11  23  38  60  93 129 166 210 265 332 398
#     4  10  23  40  56  84 124 166 211 263 313 385
#     4  12  20  34  62  96 134 162 208 252 342 406
#     4  12  24  40  68 100 140 178 216 280 358 408
#     4  12  22  38  63  96 134 167 205 272 334 414
#
# _framework density 18.816478
#
# number of rings (size 3 to 8) (size 9 to 14) (size 15 to 20)
#    0.000    1.000    6.667    0.500    2.333    0.000 
#    0.000    0.833    0.000    4.000    0.000    0.000 
#    0.000    0.000    0.000    0.000    0.000    0.000 
#
# Total GULP energy -401100.315845 kJ/mol
# GULP energy per Si atom -5570.837720 kJ/mol
# Density = 1.877365 g / cm^3
# Si number density = 18.816478 Si / 1000 Ang^3
#
#
#
# Elastic Constant Matrix: (Units=GPa)
#
#
# Indices 1 2 3 4 5 6 
#
# 1 70.4519 12.8311 7.4382 0.0000 0.0000 0.0000
# 2 12.8311 70.4519 7.4382 0.0000 0.0000 0.0000
# 3 7.4382 7.4382 52.5110 0.0000 0.0000 0.0000
# 4 0.0000 0.0000 0.0000 28.0438 0.0000 0.0000
# 5 0.0000 0.0000 0.0000 0.0000 28.0438 0.0000
# 6 0.0000 0.0000 0.0000 0.0000 0.0000 28.8104
#
#
#
# Elastic Compliance Matrix: (Units=1/GPa)
#
#
# Indices 1 2 3 4 5 6 
#
# 1 0.014837 -0.002518 -0.001745 0.000000 0.000000 0.000000
# 2 -0.002518 0.014837 -0.001745 0.000000 0.000000 0.000000
# 3 -0.001745 -0.001745 0.019538 0.000000 0.000000 0.000000
# 4 0.000000 0.000000 0.000000 0.035658 0.000000 0.000000
# 5 0.000000 0.000000 0.000000 0.000000 0.035658 0.000000
# 6 0.000000 0.000000 0.000000 0.000000 0.000000 0.034710
#
#
# Mechanical properties :
#
#
# Convention : Reuss Voigt Hill
#
# Bulk Modulus (GPa) = 26.88466 27.64777 27.26622
# Shear Modulus (GPa) = 27.83143 28.02675 27.92909
#
# Velocity S-wave (km/s) = 3.85008 3.86356 3.85683
# Velocity P-wave (km/s) = 5.83806 5.88457 5.86136
#
# Compressibility (1/GPa) = 0.03719593
#
# Stress axis : x y z
#
# Youngs Moduli (GPa) = 67.39950 67.39950 51.18231
#
# Poissons Ratio (x) = 0.16971 0.08931
# Poissons Ratio (y) = 0.16971 0.08931
# Poissons Ratio (z) = 0.11761 0.11761
#
# Static dielectric constant tensor:
#      x y z
#    x 1.670920 0.000000 0.000000 
#    y 0.000000 1.670920 0.000000 
#    z 0.000000 0.000000 1.699040 
# 
# From -- ./inp_files/6835.got.cif
#   From: 2010.05.17/outbox.cif.g08.bks.cpg/sg178_4_cif.got.tgz:6835.got - 2010.05.20 11:30:59.
