data_PCOD9582709
_publ_section_title
;
Structure prediction by ZEFSAII (Michael W. Deem and Ramdas Pophale) SiO2 
 PCOD9582709
Probable space group: P 61 2 2
;
_chemical_formula_sum "Si O2"
_cell_formula_units_Z 54
_cell_length_a 20.188198
_cell_length_b 20.188198
_cell_length_c 7.302552
_cell_angle_alpha 90.000000
_cell_angle_beta 90.000000
_cell_angle_gamma 120.000000
_cell_volume 2577.510249
_symmetry_space_group_name_H-M "P 61 2 2"
_symmetry_group_IT_number 178
_symmetry_cell_setting 'hexagonal'
loop_
_space_group_symop_operation_xyz
x,y,z
x-y,x,1/6+z
-y,x-y,1/3+z
-x,-y,1/2+z
-x+y,-x,2/3+z
y,-x+y,5/6+z
x-y,-y,-z
-x,-x+y,2/3-z
y,x,1/3-z
-y,-x,5/6-z
-x+y,y,1/2-z
x,x-y,1/6-z
loop_
_atom_site_type_symbol
_atom_site_label
_atom_site_fract_x
_atom_site_fract_y
_atom_site_fract_z
Si Si1 0.554813 0.109625 0.750000
Si Si2 0.638824 0.549496 0.118989
Si Si3 0.169081 0.830920 0.916667
Si Si4 0.298709 0.597417 0.250000
Si Si5 0.705715 0.793246 0.215627
Si Si6 0.128992 0.660966 0.864083
O O1 0.520190 0.139299 0.589234
O O2 0.596528 0.076971 0.616062
O O3 0.580928 0.580928 0.166667
O O4 0.724069 0.618977 0.147857
O O5 0.634233 0.529005 0.905723
O O6 0.178826 0.888075 0.755692
O O7 0.137610 0.744371 0.840332
O O8 0.351748 0.648253 0.416667
O O9 0.324847 0.539282 0.171682
O O10 0.759011 0.759011 0.166667
O O11 0.722517 0.861259 0.083334
#
# Coordination Sequence:
#
# PCOD9582709 Si02
#       6
#     6  12   6   6  12  12
#     4  12  21  32  55  74 112 152 194 252 306 352
#     4  10  23  37  54  80 115 154 204 258 310 374
#     4   9  20  40  63  86 128 166 204 266 322 378
#     4  11  21  34  52  72 104 138 188 240 292 356
#     4  10  21  40  64  95 125 163 214 265 327 401
#     4  10  22  37  53  81 111 154 203 248 309 369
#
# _framework density 20.95045
#
# number of rings (size 3 to 8) (size 9 to 14) (size 15 to 20)
#    0.000    1.778    0.000    4.000    3.111    0.889 
#    0.000   12.222    0.000    0.000    2.889    0.000 
#    0.000    0.000    0.000    0.000    0.000    0.000 
#
# Total GULP energy -301251.831204 kJ/mol
# GULP energy per Si atom -5578.737615 kJ/mol
# Density = 2.090277 g / cm^3
# Si number density = 20.950450 Si / 1000 Ang^3
#
#
#
# Elastic Constant Matrix: (Units=GPa)
#
#
# Indices 1 2 3 4 5 6 
#
# 1 84.8825 32.0598 53.0944 0.0000 0.0000 0.0000
# 2 32.0598 84.8825 53.0944 0.0000 0.0000 0.0000
# 3 53.0944 53.0944 147.8441 0.0000 0.0000 0.0000
# 4 0.0000 0.0000 0.0000 31.5053 0.0000 0.0000
# 5 0.0000 0.0000 0.0000 0.0000 31.5053 0.0000
# 6 0.0000 0.0000 0.0000 0.0000 0.0000 26.4113
#
#
#
# Elastic Compliance Matrix: (Units=1/GPa)
#
#
# Indices 1 2 3 4 5 6 
#
# 1 0.015810 -0.003121 -0.004557 0.000000 0.000000 0.000000
# 2 -0.003121 0.015810 -0.004557 0.000000 0.000000 0.000000
# 3 -0.004557 -0.004557 0.010037 0.000000 0.000000 0.000000
# 4 0.000000 0.000000 0.000000 0.031741 0.000000 0.000000
# 5 0.000000 0.000000 0.000000 0.000000 0.031741 0.000000
# 6 0.000000 0.000000 0.000000 0.000000 0.000000 0.037863
#
#
# Mechanical properties :
#
#
# Convention : Reuss Voigt Hill
#
# Bulk Modulus (GPa) = 58.18246 66.01184 62.09715
# Shear Modulus (GPa) = 28.86828 29.84175 29.35502
#
# Velocity S-wave (km/s) = 3.71608 3.77821 3.74727
# Velocity P-wave (km/s) = 6.80030 7.11408 6.95896
#
# Compressibility (1/GPa) = 0.01718731
#
# Stress axis : x y z
#
# Youngs Moduli (GPa) = 63.25025 63.25025 99.63195
#
# Poissons Ratio (x) = 0.19741 0.45402
# Poissons Ratio (y) = 0.19741 0.45402
# Poissons Ratio (z) = 0.28823 0.28823
#
# Static dielectric constant tensor:
#      x y z
#    x 1.787600 0.000000 0.000000 
#    y 0.000000 1.787600 0.000000 
#    z 0.000000 0.000000 1.771080 
# 
# From -- ./inp_files/1235.got.cif
#   From: 2010.05.17/outbox.cif.g08.bks.cpg/sg178_1_cif.got.tgz:1235.got - 2010.05.20 11:30:59.
