data_PCOD9582702
_publ_section_title
;
Structure prediction by ZEFSAII (Michael W. Deem and Ramdas Pophale) SiO2 
 PCOD9582702
Probable space group: P 61 2 2
;
_chemical_formula_sum "Si O2"
_cell_formula_units_Z 48
_cell_length_a 14.203595
_cell_length_b 14.203595
_cell_length_c 11.279011
_cell_angle_alpha 90.000000
_cell_angle_beta 90.000000
_cell_angle_gamma 120.000000
_cell_volume 1970.598794
_symmetry_space_group_name_H-M "P 61 2 2"
_symmetry_group_IT_number 178
_symmetry_cell_setting 'hexagonal'
loop_
_space_group_symop_operation_xyz
x,y,z
x-y,x,1/6+z
-y,x-y,1/3+z
-x,-y,1/2+z
-x+y,-x,2/3+z
y,-x+y,5/6+z
x-y,-y,-z
-x,-x+y,2/3-z
y,x,1/3-z
-y,-x,5/6-z
-x+y,y,1/2-z
x,x-y,1/6-z
loop_
_atom_site_type_symbol
_atom_site_label
_atom_site_fract_x
_atom_site_fract_y
_atom_site_fract_z
Si Si1 0.157960 0.511542 0.417354
Si Si2 0.000000 0.182906 0.833334
Si Si3 0.652152 0.766336 0.382443
Si Si4 0.513676 0.027351 0.250000
Si Si5 0.352549 0.676275 0.583334
Si Si6 0.800819 0.900410 0.583334
O O1 0.155392 0.399039 0.434641
O O2 0.053899 0.508421 0.471783
O O3 0.265234 0.594120 0.490651
O O4 0.199476 0.565930 0.289403
O O5 0.081760 0.163520 0.750000
O O6 0.931098 0.212509 0.740004
O O7 0.555785 0.642197 0.393186
O O8 0.730224 0.799583 0.496298
O O9 0.873085 0.873085 0.666667
#
# Coordination Sequence:
#
# PCOD9582702 Si02
#       6
#    12   6  12   6   6   6
#     4  10  21  39  65 100 148 198 252 313 375 460
#     4  12  28  54  80 116 154 208 272 352 426 508
#     4  12  27  48  75 116 159 204 269 326 406 488
#     4  11  24  44  75 112 151 210 252 327 394 470
#     4   9  19  36  62  96 142 204 253 293 374 464
#     4  12  27  54  81 114 155 206 267 342 406 490
#
# _framework density 24.358077999999999
#
# number of rings (size 3 to 8) (size 9 to 14) (size 15 to 20)
#    0.000    1.000    0.000    6.750    3.500    0.000 
#   15.750    0.000    0.000    0.000    0.000    0.000 
#    0.000    0.000    0.000    0.000    0.000    0.000 
#
# Total GULP energy -268613.319749 kJ/mol
# GULP energy per Si atom -5596.110828 kJ/mol
# Density = 2.430264 g / cm^3
# Si number density = 24.358078 Si / 1000 Ang^3
#
#
#
# Elastic Constant Matrix: (Units=GPa)
#
#
# Indices 1 2 3 4 5 6 
#
# 1 134.5696 66.4783 61.5724 0.0000 0.0000 0.0000
# 2 66.4783 134.5696 61.5724 0.0000 0.0000 0.0000
# 3 61.5724 61.5724 138.4397 0.0000 0.0000 0.0000
# 4 0.0000 0.0000 0.0000 36.9227 0.0000 0.0000
# 5 0.0000 0.0000 0.0000 0.0000 36.9227 0.0000
# 6 0.0000 0.0000 0.0000 0.0000 0.0000 34.0457
#
#
#
# Elastic Compliance Matrix: (Units=1/GPa)
#
#
# Indices 1 2 3 4 5 6 
#
# 1 0.010761 -0.003925 -0.003041 0.000000 0.000000 0.000000
# 2 -0.003925 0.010761 -0.003041 0.000000 0.000000 0.000000
# 3 -0.003041 -0.003041 0.009928 0.000000 0.000000 0.000000
# 4 0.000000 0.000000 0.000000 0.027084 0.000000 0.000000
# 5 0.000000 0.000000 0.000000 0.000000 0.027084 0.000000
# 6 0.000000 0.000000 0.000000 0.000000 0.000000 0.029372
#
#
# Mechanical properties :
#
#
# Convention : Reuss Voigt Hill
#
# Bulk Modulus (GPa) = 87.42396 87.42499 87.42448
# Shear Modulus (GPa) = 36.01926 36.10861 36.06394
#
# Velocity S-wave (km/s) = 3.84961 3.85438 3.85200
# Velocity P-wave (km/s) = 7.46515 7.46846 7.46680
#
# Compressibility (1/GPa) = 0.01143851
#
# Stress axis : x y z
#
# Youngs Moduli (GPa) = 92.92624 92.92624 100.72569
#
# Poissons Ratio (x) = 0.36473 0.30626
# Poissons Ratio (y) = 0.36473 0.30626
# Poissons Ratio (z) = 0.28254 0.28254
#
# Static dielectric constant tensor:
#      x y z
#    x 2.025060 0.000000 0.000000 
#    y 0.000000 2.025060 0.000000 
#    z 0.000000 0.000000 1.540150 
# 
# From -- ./inp_files/4224.got.cif
#   From: 2010.05.17/outbox.cif.g08.bks.cpg/sg178_3_cif.got.tgz:4224.got - 2010.05.20 11:30:59.
