data_PCOD9582258
_publ_section_title
;
Structure prediction by ZEFSAII (Michael W. Deem and Ramdas Pophale) SiO2 
 PCOD9582258
Probable space group: P 6 2 2
;
_chemical_formula_sum "Si O2"
_cell_formula_units_Z 48
_cell_length_a 16.668353
_cell_length_b 16.668353
_cell_length_c 9.871560
_cell_angle_alpha 90.000000
_cell_angle_beta 90.000000
_cell_angle_gamma 120.000000
_cell_volume 2375.208834
_symmetry_space_group_name_H-M "P 6 2 2"
_symmetry_group_IT_number 177
_symmetry_cell_setting 'hexagonal'
loop_
_space_group_symop_operation_xyz
x,y,z
x-y,x,z
-y,x-y,z
-x,-y,z
-x+y,-x,z
y,-x+y,z
x-y,-y,-z
-x,-x+y,-z
y,x,-z
-y,-x,-z
-x+y,y,-z
x,x-y,-z
loop_
_atom_site_type_symbol
_atom_site_label
_atom_site_fract_x
_atom_site_fract_y
_atom_site_fract_z
Si Si1 0.476333 0.331931 0.984235
Si Si2 0.597238 0.593452 0.770598
Si Si3 0.118740 0.898206 0.146141
Si Si4 0.313799 0.228436 0.411443
O O1 0.431341 0.336977 0.841396
O O2 0.577868 0.422133 0.000000
O O3 0.482254 0.241127 0.000000
O O4 0.423024 0.347651 0.107989
O O5 0.500000 0.500000 0.743389
O O6 0.666993 0.627688 0.645294
O O7 0.164201 0.883901 0.278230
O O8 0.008354 0.847069 0.149548
O O9 0.135389 0.864612 0.000000
O O10 0.233264 0.233264 0.500000
O O11 0.358157 0.179079 0.500000
#
# Coordination Sequence:
#
# PCOD9582258 Si02
#       4
#    12  12  12  12
#     4   9  18  35  64  96 128 162 213 271 333 401
#     4   9  22  41  60  92 128 170 214 270 342 400
#     4  10  21  38  59  87 126 172 217 261 313 376
#     4  12  25  40  61  93 130 170 222 271 329 398
#
# _framework density 20.208750999999999
#
# number of rings (size 3 to 8) (size 9 to 14) (size 15 to 20)
#    0.000    2.000    2.500    2.000    3.500    6.500 
#    0.000    0.000    0.000    0.000    0.000    0.000 
#    0.000    0.000    0.000    0.000    0.000    0.000 
#
# Total GULP energy -267794.577581 kJ/mol
# GULP energy per Si atom -5579.053700 kJ/mol
# Density = 2.016275 g / cm^3
# Si number density = 20.208751 Si / 1000 Ang^3
#
#
#
# Elastic Constant Matrix: (Units=GPa)
#
#
# Indices 1 2 3 4 5 6 
#
# 1 99.1164 25.9589 60.8281 0.0000 0.0000 0.0000
# 2 25.9589 99.1164 60.8281 0.0000 0.0000 0.0000
# 3 60.8281 60.8281 145.3626 0.0000 0.0000 0.0000
# 4 0.0000 0.0000 0.0000 36.5574 0.0000 0.0000
# 5 0.0000 0.0000 0.0000 0.0000 36.5574 0.0000
# 6 0.0000 0.0000 0.0000 0.0000 0.0000 36.5787
#
#
#
# Elastic Compliance Matrix: (Units=1/GPa)
#
#
# Indices 1 2 3 4 5 6 
#
# 1 0.013576 -0.000093 -0.005642 0.000000 0.000000 0.000000
# 2 -0.000093 0.013576 -0.005642 0.000000 0.000000 0.000000
# 3 -0.005642 -0.005642 0.011601 0.000000 0.000000 0.000000
# 4 0.000000 0.000000 0.000000 0.027354 0.000000 0.000000
# 5 0.000000 0.000000 0.000000 0.000000 0.027354 0.000000
# 6 0.000000 0.000000 0.000000 0.000000 0.000000 0.027338
#
#
# Mechanical properties :
#
#
# Convention : Reuss Voigt Hill
#
# Bulk Modulus (GPa) = 62.50380 70.98063 66.74222
# Shear Modulus (GPa) = 33.58238 35.00407 34.29323
#
# Velocity S-wave (km/s) = 4.08091 4.16640 4.12387
# Velocity P-wave (km/s) = 7.29392 7.63840 7.46815
#
# Compressibility (1/GPa) = 0.01599903
#
# Stress axis : x y z
#
# Youngs Moduli (GPa) = 73.65897 73.65897 86.19729
#
# Poissons Ratio (x) = 0.00685 0.48633
# Poissons Ratio (y) = 0.00685 0.48633
# Poissons Ratio (z) = 0.41559 0.41559
#
# Static dielectric constant tensor:
#      x y z
#    x 1.726600 0.000000 0.000000 
#    y 0.000000 1.726600 0.000000 
#    z 0.000000 0.000000 1.764930 
# 
# From -- ./inp_files/1117.got.cif
#   From: 2010.05.17/outbox.cif.g08.bks.cpg/sg177_1_cif.got.tgz:1117.got - 2010.05.20 11:28:44.
