data_PCOD9582392
_publ_section_title
;
Structure prediction by ZEFSAII (Michael W. Deem and Ramdas Pophale) SiO2 
 PCOD9582392
Probable space group: P 61 2 2
;
_chemical_formula_sum "Si O2"
_cell_formula_units_Z 36
_cell_length_a 11.971206
_cell_length_b 11.971206
_cell_length_c 10.737476
_cell_angle_alpha 90.000000
_cell_angle_beta 90.000000
_cell_angle_gamma 120.000000
_cell_volume 1332.627117
_symmetry_space_group_name_H-M "P 61 2 2"
_symmetry_group_IT_number 178
_symmetry_cell_setting 'hexagonal'
loop_
_space_group_symop_operation_xyz
x,y,z
x-y,x,1/6+z
-y,x-y,1/3+z
-x,-y,1/2+z
-x+y,-x,2/3+z
y,-x+y,5/6+z
x-y,-y,-z
-x,-x+y,2/3-z
y,x,1/3-z
-y,-x,5/6-z
-x+y,y,1/2-z
x,x-y,1/6-z
loop_
_atom_site_type_symbol
_atom_site_label
_atom_site_fract_x
_atom_site_fract_y
_atom_site_fract_z
Si Si1 0.380811 0.930782 0.342556
Si Si2 0.486465 0.711961 0.766256
Si Si3 0.168903 0.242894 0.446295
O O1 0.292932 0.813627 0.246238
O O2 0.434143 0.870786 0.443479
O O3 0.185188 0.810991 0.049293
O O4 0.301658 0.002179 0.363747
O O5 0.503885 0.496116 0.916667
O O6 0.365914 0.731827 0.750000
O O7 0.179067 0.143026 0.354568
#
# Coordination Sequence:
#
# PCOD9582392 Si02
#       3
#    12  12  12
#     4   7  16  29  49  92 138 173 223 283 358 408
#     4   8  15  28  55  88 141 170 220 296 358 408
#     4  10  18  31  55  97 150 197 231 284 350 442
#
# _framework density 27.014308
#
# number of rings (size 3 to 8) (size 9 to 14) (size 15 to 20)
#    2.000    1.333    0.000    1.000    0.000    0.000 
#    0.000    0.000    0.000   18.000    0.000   28.000 
#   30.000    0.333    1.333    0.000    0.000    0.000 
#
# Total GULP energy -200546.055022 kJ/mol
# GULP energy per Si atom -5570.723751 kJ/mol
# Density = 2.695282 g / cm^3
# Si number density = 27.014308 Si / 1000 Ang^3
#
#
#
# Elastic Constant Matrix: (Units=GPa)
#
#
# Indices 1 2 3 4 5 6 
#
# 1 249.8731 120.5712 66.4752 0.0000 0.0000 0.0000
# 2 120.5712 249.8731 66.4752 0.0000 0.0000 0.0000
# 3 66.4752 66.4752 92.5373 0.0000 0.0000 0.0000
# 4 0.0000 0.0000 0.0000 25.6940 0.0000 0.0000
# 5 0.0000 0.0000 0.0000 0.0000 25.6940 0.0000
# 6 0.0000 0.0000 0.0000 0.0000 0.0000 64.6509
#
#
#
# Elastic Compliance Matrix: (Units=1/GPa)
#
#
# Indices 1 2 3 4 5 6 
#
# 1 0.005686 -0.002048 -0.002613 0.000000 0.000000 0.000000
# 2 -0.002048 0.005686 -0.002613 0.000000 0.000000 0.000000
# 3 -0.002613 -0.002613 0.014560 0.000000 0.000000 0.000000
# 4 0.000000 0.000000 0.000000 0.038920 0.000000 0.000000
# 5 0.000000 0.000000 0.000000 0.000000 0.038920 0.000000
# 6 0.000000 0.000000 0.000000 0.000000 0.000000 0.015468
#
#
# Mechanical properties :
#
#
# Convention : Reuss Voigt Hill
#
# Bulk Modulus (GPa) = 87.84678 122.14743 104.99710
# Shear Modulus (GPa) = 36.34234 45.79192 41.06713
#
# Velocity S-wave (km/s) = 3.67181 4.12162 3.90320
# Velocity P-wave (km/s) = 7.11094 8.24405 7.69837
#
# Compressibility (1/GPa) = 0.01138346
#
# Stress axis : x y z
#
# Youngs Moduli (GPa) = 175.88564 175.88564 68.67976
#
# Poissons Ratio (x) = 0.36027 0.17945
# Poissons Ratio (y) = 0.36027 0.17945
# Poissons Ratio (z) = 0.45956 0.45956
#
# Static dielectric constant tensor:
#      x y z
#    x 2.181160 0.000000 0.000000 
#    y 0.000000 2.181160 0.000000 
#    z 0.000000 0.000000 2.302970 
# 
# From -- ./inp_files/6277.got.cif
#   From: 2010.05.17/outbox.cif.g08.bks.cpg/sg178_4_cif.got.tgz:6277.got - 2010.05.20 11:30:59.
