data_PCOD9582066
_publ_section_title
;
Structure prediction by ZEFSAII (Michael W. Deem and Ramdas Pophale) SiO2 
 PCOD9582066
Probable space group: P 63/M
;
_chemical_formula_sum "Si O2"
_cell_formula_units_Z 70
_cell_length_a 15.504758
_cell_length_b 15.504758
_cell_length_c 18.761291
_cell_angle_alpha 90.000000
_cell_angle_beta 90.000000
_cell_angle_gamma 120.000000
_cell_volume 3905.919925
_symmetry_space_group_name_H-M "P 63/M"
_symmetry_group_IT_number 176
_symmetry_cell_setting 'hexagonal'
loop_
_space_group_symop_operation_xyz
x,y,z
x-y,x,1/2+z
-y,x-y,z
-x,-y,1/2+z
-x+y,-x,z
y,-x+y,1/2+z
-x,-y,-z
-x+y,-x,1/2-z
y,-x+y,-z
x,y,1/2-z
x-y,x,-z
-y,x-y,1/2-z
loop_
_atom_site_type_symbol
_atom_site_label
_atom_site_fract_x
_atom_site_fract_y
_atom_site_fract_z
Si Si1 0.454901 0.134080 0.386450
Si Si2 0.000000 0.000000 0.414461
Si Si3 0.107706 0.877970 0.101964
Si Si4 0.387005 0.381361 0.750000
Si Si5 0.842101 0.182540 0.750000
Si Si6 0.467751 0.344808 0.112936
Si Si7 0.008070 0.304406 0.003255
Si Si8 0.595292 0.579451 0.750000
O O1 0.398541 0.062479 0.319365
O O2 0.468255 0.242512 0.375612
O O3 0.561527 0.140463 0.392630
O O4 0.388071 0.082339 0.456020
O O5 0.070364 0.957122 0.391037
O O6 0.000000 0.000000 0.500000
O O7 0.115211 0.839649 0.178970
O O8 0.213490 0.927461 0.061863
O O9 0.032027 0.787323 0.051851
O O10 0.380784 0.275423 0.750000
O O11 0.501414 0.468820 0.750000
O O12 0.882422 0.300153 0.750000
O O13 0.416163 0.366603 0.180004
O O14 0.404323 0.332923 0.042073
#
# Coordination Sequence:
#
# PCOD9582066 Si02
#       8
#    12   4  12   6   6  12  12   6
#     4  11  23  40  63  91 124 161 207 260 317 376
#     4  12  24  40  59  97 138 166 215 253 309 358
#     4  12  24  40  65  93 129 175 211 262 307 377
#     4  10  23  41  64  93 125 161 207 261 314 384
#     4  12  24  44  68  92 128 170 216 254 320 384
#     4  11  23  40  63  91 124 161 207 260 317 376
#     4  12  21  39  64  92 124 166 210 257 315 368
#     4  10  23  41  64  93 125 161 207 261 314 384
#
# _framework density 17.921514999999999
#
# number of rings (size 3 to 8) (size 9 to 14) (size 15 to 20)
#    0.000    0.686    6.857    1.371    0.000    0.686 
#    3.600    1.714    0.000    0.000    0.000    0.000 
#    0.000    0.000    0.000    0.000    0.000    0.000 
#
# Total GULP energy -391229.584440 kJ/mol
# GULP energy per Si atom -5588.994063 kJ/mol
# Density = 1.788073 g / cm^3
# Si number density = 17.921515 Si / 1000 Ang^3
#
#
#
# Elastic Constant Matrix: (Units=GPa)
#
#
# Indices 1 2 3 4 5 6 
#
# 1 60.2602 9.6063 10.2089 0.0000 0.0000 0.0000
# 2 9.6063 60.2602 10.2089 0.0000 0.0000 0.0000
# 3 10.2089 10.2089 88.2348 0.0000 0.0000 0.0000
# 4 0.0000 0.0000 0.0000 20.0751 0.0000 0.0000
# 5 0.0000 0.0000 0.0000 0.0000 20.0751 0.0000
# 6 0.0000 0.0000 0.0000 0.0000 0.0000 25.3270
#
#
#
# Elastic Compliance Matrix: (Units=1/GPa)
#
#
# Indices 1 2 3 4 5 6 
#
# 1 0.017278 -0.002464 -0.001714 0.000000 0.000000 0.000000
# 2 -0.002464 0.017278 -0.001714 0.000000 0.000000 0.000000
# 3 -0.001714 -0.001714 0.011730 0.000000 0.000000 0.000000
# 4 0.000000 0.000000 0.000000 0.049813 0.000000 0.000000
# 5 0.000000 0.000000 0.000000 0.000000 0.049813 0.000000
# 6 0.000000 0.000000 0.000000 0.000000 0.000000 0.039484
#
#
# Mechanical properties :
#
#
# Convention : Reuss Voigt Hill
#
# Bulk Modulus (GPa) = 28.98390 29.86701 29.42546
# Shear Modulus (GPa) = 23.96017 25.01085 24.48551
#
# Velocity S-wave (km/s) = 3.66040 3.73979 3.70031
# Velocity P-wave (km/s) = 5.83717 5.94556 5.89161
#
# Compressibility (1/GPa) = 0.03450191
#
# Stress axis : x y z
#
# Youngs Moduli (GPa) = 57.87752 57.87752 85.25140
#
# Poissons Ratio (x) = 0.14261 0.14612
# Poissons Ratio (y) = 0.14261 0.14612
# Poissons Ratio (z) = 0.09920 0.09920
#
# Static dielectric constant tensor:
#      x y z
#    x 1.596250 0.000000 0.000000 
#    y 0.000000 1.596250 0.000000 
#    z 0.000000 0.000000 1.597890 
# 
# From -- ./inp_files/3425.got.cif
#   From: 2010.05.17/outbox.cif.g08.bks.cpg/sg176_2_cif.got.tgz:3425.got - 2010.06.03 11:36:45.
