data_PCOD9582632
_publ_section_title
;
Structure prediction by ZEFSAII (Michael W. Deem and Ramdas Pophale) SiO2 
 PCOD9582632
Probable space group: P 61 2 2
;
_chemical_formula_sum "Si O2"
_cell_formula_units_Z 66
_cell_length_a 14.986932
_cell_length_b 14.986932
_cell_length_c 15.519670
_cell_angle_alpha 90.000000
_cell_angle_beta 90.000000
_cell_angle_gamma 120.000000
_cell_volume 3018.829517
_symmetry_space_group_name_H-M "P 61 2 2"
_symmetry_group_IT_number 178
_symmetry_cell_setting 'hexagonal'
loop_
_space_group_symop_operation_xyz
x,y,z
x-y,x,1/6+z
-y,x-y,1/3+z
-x,-y,1/2+z
-x+y,-x,2/3+z
y,-x+y,5/6+z
x-y,-y,-z
-x,-x+y,2/3-z
y,x,1/3-z
-y,-x,5/6-z
-x+y,y,1/2-z
x,x-y,1/6-z
loop_
_atom_site_type_symbol
_atom_site_label
_atom_site_fract_x
_atom_site_fract_y
_atom_site_fract_z
Si Si1 0.508275 0.852395 0.842974
Si Si2 0.573542 0.092505 0.874274
Si Si3 0.638718 0.693099 0.753861
Si Si4 0.239626 0.849215 0.826053
Si Si5 0.256271 0.883790 0.495131
Si Si6 0.270762 0.635381 0.583334
O O1 0.312486 0.838404 0.757130
O O2 0.406803 0.748063 0.874646
O O3 0.529675 0.971226 0.850278
O O4 0.596778 0.852016 0.905175
O O5 0.476773 0.109488 0.880134
O O6 0.637987 0.109765 0.960469
O O7 0.645653 0.188348 0.812352
O O8 0.632237 0.632237 0.666667
O O9 0.711255 0.678999 0.818454
O O10 0.673777 0.805902 0.722713
O O11 0.212871 0.787130 0.916667
O O12 0.177414 0.822587 0.416667
O O13 0.277980 0.000000 0.500000
#
# Coordination Sequence:
#
# PCOD9582632 Si02
#       6
#    12  12  12  12  12   6
#     4  11  23  39  62  93 127 185 227 284 346 411
#     4  11  22  41  63  89 135 179 230 288 342 408
#     4  10  20  40  62  91 130 181 225 284 339 408
#     4  10  22  38  63  93 131 176 237 279 350 419
#     4  10  21  38  60  89 126 172 223 275 344 404
#     4  12  22  40  66  94 134 178 242 282 348 412
#
# _framework density 21.862777000000001
#
# number of rings (size 3 to 8) (size 9 to 14) (size 15 to 20)
#    0.000    1.455    3.636    2.727    0.000    0.000 
#    8.182    1.818    0.000    0.000    0.000    0.000 
#    0.000  193.455    2.182    0.000    0.000    0.000 
#
# Total GULP energy -367789.018433 kJ/mol
# GULP energy per Si atom -5572.560885 kJ/mol
# Density = 2.181302 g / cm^3
# Si number density = 21.862777 Si / 1000 Ang^3
#
#
#
# Elastic Constant Matrix: (Units=GPa)
#
#
# Indices 1 2 3 4 5 6 
#
# 1 86.2344 49.4220 42.7515 0.0000 0.0000 0.0000
# 2 49.4220 86.2344 42.7515 0.0000 0.0000 0.0000
# 3 42.7515 42.7515 116.9186 0.0000 0.0000 0.0000
# 4 0.0000 0.0000 0.0000 37.2010 0.0000 0.0000
# 5 0.0000 0.0000 0.0000 0.0000 37.2010 0.0000
# 6 0.0000 0.0000 0.0000 0.0000 0.0000 18.4062
#
#
#
# Elastic Compliance Matrix: (Units=1/GPa)
#
#
# Indices 1 2 3 4 5 6 
#
# 1 0.018372 -0.008793 -0.003503 0.000000 0.000000 0.000000
# 2 -0.008793 0.018372 -0.003503 0.000000 0.000000 0.000000
# 3 -0.003503 -0.003503 0.011114 0.000000 0.000000 0.000000
# 4 0.000000 0.000000 0.000000 0.026881 0.000000 0.000000
# 5 0.000000 0.000000 0.000000 0.000000 0.026881 0.000000
# 6 0.000000 0.000000 0.000000 0.000000 0.000000 0.054329
#
#
# Mechanical properties :
#
#
# Convention : Reuss Voigt Hill
#
# Bulk Modulus (GPa) = 61.49187 62.13748 61.81468
# Shear Modulus (GPa) = 25.91119 28.85915 27.38517
#
# Velocity S-wave (km/s) = 3.44637 3.63714 3.54304
# Velocity P-wave (km/s) = 6.63506 6.79129 6.71363
#
# Compressibility (1/GPa) = 0.01626231
#
# Stress axis : x y z
#
# Youngs Moduli (GPa) = 54.43065 54.43065 89.97279
#
# Poissons Ratio (x) = 0.47859 0.31515
# Poissons Ratio (y) = 0.47859 0.31515
# Poissons Ratio (z) = 0.19065 0.19065
#
# Static dielectric constant tensor:
#      x y z
#    x 1.847580 0.000000 0.000000 
#    y 0.000000 1.847580 0.000000 
#    z 0.000000 0.000000 1.897100 
# 
# From -- ./inp_files/6679.got.cif
#   From: 2010.05.17/outbox.cif.g08.bks.cpg/sg178_4_cif.got.tgz:6679.got - 2010.05.20 11:30:59.
