data_PCOD9582782
_publ_section_title
;
Structure prediction by ZEFSAII (Michael W. Deem and Ramdas Pophale) SiO2 
 PCOD9582782
Probable space group: P 61 2 2
;
_chemical_formula_sum "Si O2"
_cell_formula_units_Z 24
_cell_length_a 7.748972
_cell_length_b 7.748972
_cell_length_c 16.039865
_cell_angle_alpha 90.000000
_cell_angle_beta 90.000000
_cell_angle_gamma 120.000000
_cell_volume 834.102694
_symmetry_space_group_name_H-M "P 61 2 2"
_symmetry_group_IT_number 178
_symmetry_cell_setting 'hexagonal'
loop_
_space_group_symop_operation_xyz
x,y,z
x-y,x,1/6+z
-y,x-y,1/3+z
-x,-y,1/2+z
-x+y,-x,2/3+z
y,-x+y,5/6+z
x-y,-y,-z
-x,-x+y,2/3-z
y,x,1/3-z
-y,-x,5/6-z
-x+y,y,1/2-z
x,x-y,1/6-z
loop_
_atom_site_type_symbol
_atom_site_label
_atom_site_fract_x
_atom_site_fract_y
_atom_site_fract_z
Si Si1 0.754281 0.245720 0.416667
Si Si2 0.554773 0.110652 0.845784
Si Si3 0.092981 0.907020 0.416667
O O1 0.652254 0.012962 0.394698
O O2 0.655754 0.306878 0.494599
O O3 0.520005 0.040009 0.750000
O O4 0.680061 0.021334 0.891110
O O5 0.000000 0.928047 0.333334
#
# Coordination Sequence:
#
# PCOD9582782 Si02
#       3
#     6  12   6
#     4  10  22  41  65  96 136 168 234 274 356 411
#     4  10  23  40  65  98 127 182 223 283 351 415
#     4  12  22  43  67  98 138 184 230 288 358 413
#
# _framework density 28.773433000000001
#
# number of rings (size 3 to 8) (size 9 to 14) (size 15 to 20)
#    1.500    0.000    5.000    0.000    3.500    0.000 
#    0.000   10.000    0.000    0.000    0.000    0.000 
#    0.000    0.000    0.000    0.000    0.000    0.000 
#
# Total GULP energy -133961.310303 kJ/mol
# GULP energy per Si atom -5581.721263 kJ/mol
# Density = 2.870794 g / cm^3
# Si number density = 28.773433 Si / 1000 Ang^3
#
#
#
# Elastic Constant Matrix: (Units=GPa)
#
#
# Indices 1 2 3 4 5 6 
#
# 1 96.0254 33.0108 35.9962 0.0000 0.0000 0.0000
# 2 33.0108 96.0254 35.9962 0.0000 0.0000 0.0000
# 3 35.9962 35.9962 158.5311 0.0000 0.0000 0.0000
# 4 0.0000 0.0000 0.0000 41.1167 0.0000 0.0000
# 5 0.0000 0.0000 0.0000 0.0000 41.1167 0.0000
# 6 0.0000 0.0000 0.0000 0.0000 0.0000 31.5073
#
#
#
# Elastic Compliance Matrix: (Units=1/GPa)
#
#
# Indices 1 2 3 4 5 6 
#
# 1 0.012372 -0.003498 -0.002015 0.000000 0.000000 0.000000
# 2 -0.003498 0.012372 -0.002015 0.000000 0.000000 0.000000
# 3 -0.002015 -0.002015 0.007223 0.000000 0.000000 0.000000
# 4 0.000000 0.000000 0.000000 0.024321 0.000000 0.000000
# 5 0.000000 0.000000 0.000000 0.000000 0.024321 0.000000
# 6 0.000000 0.000000 0.000000 0.000000 0.000000 0.031739
#
#
# Mechanical properties :
#
#
# Convention : Reuss Voigt Hill
#
# Bulk Modulus (GPa) = 59.13272 62.28759 60.71016
# Shear Modulus (GPa) = 37.58294 39.12004 38.35149
#
# Velocity S-wave (km/s) = 3.61802 3.69126 3.65482
# Velocity P-wave (km/s) = 6.16840 6.31362 6.24143
#
# Compressibility (1/GPa) = 0.01691111
#
# Stress axis : x y z
#
# Youngs Moduli (GPa) = 80.83001 80.83001 138.44797
#
# Poissons Ratio (x) = 0.28272 0.27896
# Poissons Ratio (y) = 0.28272 0.27896
# Poissons Ratio (z) = 0.16287 0.16287
#
# Static dielectric constant tensor:
#      x y z
#    x 2.388530 0.000000 0.000000 
#    y 0.000000 2.388530 0.000000 
#    z 0.000000 0.000000 2.306710 
# 
# From -- ./inp_files/6163.got.cif
#   From: 2010.05.17/outbox.cif.g08.bks.cpg/sg178_4_cif.got.tgz:6163.got - 2010.05.20 11:30:59.
