data_PCOD9582107
_publ_section_title
;
Structure prediction by ZEFSAII (Michael W. Deem and Ramdas Pophale) SiO2 
 PCOD9582107
Probable space group: P 63/M
;
_chemical_formula_sum "Si O2"
_cell_formula_units_Z 72
_cell_length_a 22.561798
_cell_length_b 22.561798
_cell_length_c 7.851503
_cell_angle_alpha 90.000000
_cell_angle_beta 90.000000
_cell_angle_gamma 120.000000
_cell_volume 3461.233081
_symmetry_space_group_name_H-M "P 63/M"
_symmetry_group_IT_number 176
_symmetry_cell_setting 'hexagonal'
loop_
_space_group_symop_operation_xyz
x,y,z
x-y,x,1/2+z
-y,x-y,z
-x,-y,1/2+z
-x+y,-x,z
y,-x+y,1/2+z
-x,-y,-z
-x+y,-x,1/2-z
y,-x+y,-z
x,y,1/2-z
x-y,x,-z
-y,x-y,1/2-z
loop_
_atom_site_type_symbol
_atom_site_label
_atom_site_fract_x
_atom_site_fract_y
_atom_site_fract_z
Si Si1 0.889455 0.032275 0.437471
Si Si2 0.607570 0.701609 0.544609
Si Si3 0.779298 0.628194 0.457277
Si Si4 0.477967 0.791512 0.541991
Si Si5 0.813057 0.457447 0.041917
Si Si6 0.256798 0.009691 0.051296
O O1 0.913884 0.060621 0.250000
O O2 0.872513 0.953980 0.447852
O O3 0.818138 0.030196 0.470127
O O4 0.610052 0.698051 0.750000
O O5 0.622650 0.777458 0.497765
O O6 0.529548 0.651182 0.489040
O O7 0.671311 0.698379 0.470880
O O8 0.777141 0.630053 0.250000
O O9 0.714215 0.556193 0.511650
O O10 0.782185 0.696412 0.521458
O O11 0.477185 0.791692 0.750000
O O12 0.421949 0.810597 0.482871
O O13 0.458589 0.714412 0.492183
O O14 0.813273 0.457223 0.250000
O O15 0.244897 0.014095 0.250000
#
# Coordination Sequence:
#
# PCOD9582107 Si02
#       6
#    12  12  12  12  12  12
#     4  12  25  42  62  86 113 140 169 207 252 300
#     4   9  17  31  48  69  96 127 161 208 261 311
#     4   8  16  29  45  64  93 127 160 199 251 305
#     4   8  12  21  38  65  96 125 156 201 255 310
#     4   8  13  21  40  68  97 125 159 204 261 316
#     4  11  21  34  52  74  98 136 181 215 248 294
#
# _framework density 20.801835000000001
#
# number of rings (size 3 to 8) (size 9 to 14) (size 15 to 20)
#    0.000    2.667    0.000    5.500    0.000    2.667 
#    0.000    1.667    0.000    0.000    0.000    5.833 
#    0.000    0.000    0.000    0.000    0.000    0.000 
#
# Total GULP energy -401692.488155 kJ/mol
# GULP energy per Si atom -5579.062335 kJ/mol
# Density = 2.075449 g / cm^3
# Si number density = 20.801835 Si / 1000 Ang^3
#
#
#
# Elastic Constant Matrix: (Units=GPa)
#
#
# Indices 1 2 3 4 5 6 
#
# 1 52.7893 -9.2499 -0.1358 0.0000 0.0000 0.0000
# 2 -9.2499 52.7893 -0.1358 0.0000 0.0000 0.0000
# 3 -0.1358 -0.1358 31.6246 0.0000 0.0000 0.0000
# 4 0.0000 0.0000 0.0000 7.5987 0.0000 0.0000
# 5 0.0000 0.0000 0.0000 0.0000 7.5987 0.0000
# 6 0.0000 0.0000 0.0000 0.0000 0.0000 31.0196
#
#
#
# Elastic Compliance Matrix: (Units=1/GPa)
#
#
# Indices 1 2 3 4 5 6 
#
# 1 0.019544 0.003425 0.000099 0.000000 0.000000 0.000000
# 2 0.003425 0.019544 0.000099 0.000000 0.000000 0.000000
# 3 0.000099 0.000099 0.031622 0.000000 0.000000 0.000000
# 4 0.000000 0.000000 0.000000 0.131602 0.000000 0.000000
# 5 0.000000 0.000000 0.000000 0.000000 0.131602 0.000000
# 6 0.000000 0.000000 0.000000 0.000000 0.000000 0.032238
#
#
# Mechanical properties :
#
#
# Convention : Reuss Voigt Hill
#
# Bulk Modulus (GPa) = 12.82821 13.12887 12.97854
# Shear Modulus (GPa) = 12.99069 19.02503 16.00786
#
# Velocity S-wave (km/s) = 2.50171 3.02749 2.77707
# Velocity P-wave (km/s) = 3.81116 4.30651 4.06639
#
# Compressibility (1/GPa) = 0.07795320
#
# Stress axis : x y z
#
# Youngs Moduli (GPa) = 51.16764 51.16764 31.62370
#
# Poissons Ratio (x) = -0.17524 -0.00312
# Poissons Ratio (y) = -0.17524 -0.00312
# Poissons Ratio (z) = -0.00505 -0.00505
#
# Static dielectric constant tensor:
#      x y z
#    x 1.742960 0.000000 0.000000 
#    y 0.000000 1.742960 0.000000 
#    z 0.000000 0.000000 1.761210 
# 
# From -- ./inp_files/1174.got.cif
#   From: 2010.05.17/outbox.cif.g08.bks.cpg/sg176_1_cif.got.tgz:1174.got - 2010.06.03 11:36:45.
