data_PCOD9582095
_publ_section_title
;
Structure prediction by ZEFSAII (Michael W. Deem and Ramdas Pophale) SiO2 
 PCOD9582095
Probable space group: P 63/M
;
_chemical_formula_sum "Si O2"
_cell_formula_units_Z 66
_cell_length_a 21.684029
_cell_length_b 21.684029
_cell_length_c 7.765709
_cell_angle_alpha 90.000000
_cell_angle_beta 90.000000
_cell_angle_gamma 120.000000
_cell_volume 3162.217247
_symmetry_space_group_name_H-M "P 63/M"
_symmetry_group_IT_number 176
_symmetry_cell_setting 'hexagonal'
loop_
_space_group_symop_operation_xyz
x,y,z
x-y,x,1/2+z
-y,x-y,z
-x,-y,1/2+z
-x+y,-x,z
y,-x+y,1/2+z
-x,-y,-z
-x+y,-x,1/2-z
y,-x+y,-z
x,y,1/2-z
x-y,x,-z
-y,x-y,1/2-z
loop_
_atom_site_type_symbol
_atom_site_label
_atom_site_fract_x
_atom_site_fract_y
_atom_site_fract_z
Si Si1 0.130029 0.458098 0.040069
Si Si2 0.676269 0.417596 0.750000
Si Si3 0.760239 0.711305 0.042835
Si Si4 0.833974 0.392295 0.447757
Si Si5 0.198931 0.887294 0.044081
Si Si6 0.418476 0.033080 0.458378
O O1 0.133952 0.462280 0.250000
O O2 0.143563 0.393890 0.985231
O O3 0.048101 0.429557 0.984846
O O4 0.172270 0.536954 0.963320
O O5 0.604583 0.339987 0.750000
O O6 0.670100 0.451960 0.575590
O O7 0.758953 0.712709 0.250000
O O8 0.737322 0.768325 0.980816
O O9 0.695988 0.634086 0.986462
O O10 0.834927 0.718487 0.993881
O O11 0.823516 0.369054 0.250000
O O12 0.912891 0.411749 0.509487
O O13 0.206967 0.892252 0.250000
O O14 0.417762 0.030675 0.250000
#
# Coordination Sequence:
#
# PCOD9582095 Si02
#       6
#    12   6  12  12  12  12
#     4   9  17  34  55  81 121 150 179 231 287 342
#     4  10  26  46  56  72 106 146 196 244 286 336
#     4   9  18  35  55  79 115 149 182 231 281 332
#     4  11  21  37  62  85 108 149 195 238 294 346
#     4   9  19  34  54  82 114 150 184 227 284 333
#     4   8  17  33  54  83 116 148 183 228 286 342
#
# _framework density 20.87143
#
# number of rings (size 3 to 8) (size 9 to 14) (size 15 to 20)
#    0.182    2.545    0.909    2.727    0.000    3.636 
#    3.273    3.636    0.000    0.364    0.000    0.000 
#    0.000    0.000    0.000    0.000    0.000    0.000 
#
# Total GULP energy -367938.884047 kJ/mol
# GULP energy per Si atom -5574.831576 kJ/mol
# Density = 2.082393 g / cm^3
# Si number density = 20.871430 Si / 1000 Ang^3
#
#
#
# Elastic Constant Matrix: (Units=GPa)
#
#
# Indices 1 2 3 4 5 6 
#
# 1 71.9800 26.4553 -1.5949 0.0000 0.0000 0.0000
# 2 26.4553 71.9800 -1.5949 0.0000 0.0000 0.0000
# 3 -1.5949 -1.5949 52.7101 0.0000 0.0000 0.0000
# 4 0.0000 0.0000 0.0000 15.9694 0.0000 0.0000
# 5 0.0000 0.0000 0.0000 0.0000 15.9694 0.0000
# 6 0.0000 0.0000 0.0000 0.0000 0.0000 22.7623
#
#
#
# Elastic Compliance Matrix: (Units=1/GPa)
#
#
# Indices 1 2 3 4 5 6 
#
# 1 0.016068 -0.005899 0.000308 0.000000 0.000000 0.000000
# 2 -0.005899 0.016068 0.000308 0.000000 0.000000 0.000000
# 3 0.000308 0.000308 0.018990 0.000000 0.000000 0.000000
# 4 0.000000 0.000000 0.000000 0.062620 0.000000 0.000000
# 5 0.000000 0.000000 0.000000 0.000000 0.062620 0.000000
# 6 0.000000 0.000000 0.000000 0.000000 0.000000 0.043932
#
#
# Mechanical properties :
#
#
# Convention : Reuss Voigt Hill
#
# Bulk Modulus (GPa) = 24.65546 27.02233 25.83890
# Shear Modulus (GPa) = 20.45967 22.50053 21.48010
#
# Velocity S-wave (km/s) = 3.13433 3.28694 3.21154
# Velocity P-wave (km/s) = 4.99373 5.23263 5.11457
#
# Compressibility (1/GPa) = 0.04055896
#
# Stress axis : x y z
#
# Youngs Moduli (GPa) = 62.23732 62.23732 52.65838
#
# Poissons Ratio (x) = 0.36711 -0.01620
# Poissons Ratio (y) = 0.36711 -0.01620
# Poissons Ratio (z) = -0.01915 -0.01915
#
# Static dielectric constant tensor:
#      x y z
#    x 1.774850 0.000000 0.000000 
#    y 0.000000 1.774850 0.000000 
#    z 0.000000 0.000000 1.775500 
# 
# From -- ./inp_files/1013.got.cif
#   From: 2010.05.17/outbox.cif.g08.bks.cpg/sg176_1_cif.got.tgz:1013.got - 2010.06.03 11:36:45.
