data_PCOD9582797
_publ_section_title
;
Structure prediction by ZEFSAII (Michael W. Deem and Ramdas Pophale) SiO2 
 PCOD9582797
Probable space group: P 61 2 2
;
_chemical_formula_sum "Si O2"
_cell_formula_units_Z 48
_cell_length_a 17.681500
_cell_length_b 17.681500
_cell_length_c 8.007638
_cell_angle_alpha 90.000000
_cell_angle_beta 90.000000
_cell_angle_gamma 120.000000
_cell_volume 2168.069871
_symmetry_space_group_name_H-M "P 61 2 2"
_symmetry_group_IT_number 178
_symmetry_cell_setting 'hexagonal'
loop_
_space_group_symop_operation_xyz
x,y,z
x-y,x,1/6+z
-y,x-y,1/3+z
-x,-y,1/2+z
-x+y,-x,2/3+z
y,-x+y,5/6+z
x-y,-y,-z
-x,-x+y,2/3-z
y,x,1/3-z
-y,-x,5/6-z
-x+y,y,1/2-z
x,x-y,1/6-z
loop_
_atom_site_type_symbol
_atom_site_label
_atom_site_fract_x
_atom_site_fract_y
_atom_site_fract_z
Si Si1 0.162492 0.000000 0.500000
Si Si2 0.128079 0.348732 0.924158
Si Si3 0.558434 0.691328 0.730186
Si Si4 0.574607 0.970657 0.756413
Si Si5 0.299036 0.700965 0.916667
O O1 0.148080 0.074040 0.583334
O O2 0.247668 0.053732 0.381279
O O3 0.175187 0.350374 0.750000
O O4 0.207960 0.388527 0.052473
O O5 0.078648 0.404764 0.930690
O O6 0.562036 0.635495 0.885916
O O7 0.594759 0.666669 0.569478
O O8 0.463457 0.668016 0.665647
O O9 0.476019 0.952037 0.750000
O O10 0.352440 0.704879 0.750000
#
# Coordination Sequence:
#
# PCOD9582797 Si02
#       5
#     6  12  12  12   6
#     4  10  22  42  68 102 140 182 244 312 382 470
#     4  11  23  44  73 104 143 194 250 311 390 463
#     4  11  25  44  69 102 145 189 248 316 378 466
#     4  11  24  45  70 104 146 192 248 314 380 465
#     4  12  28  52  76 108 158 210 270 328 398 468
#
# _framework density 22.139506999999998
#
# number of rings (size 3 to 8) (size 9 to 14) (size 15 to 20)
#    0.000    1.000    2.500    3.750    1.750    7.000 
#    0.000    5.000    0.000    0.000    0.000    0.000 
#    0.000    0.000    0.000    0.000    0.000    0.000 
#
# Total GULP energy -267699.870342 kJ/mol
# GULP energy per Si atom -5577.080632 kJ/mol
# Density = 2.208912 g / cm^3
# Si number density = 22.139507 Si / 1000 Ang^3
#
#
#
# Elastic Constant Matrix: (Units=GPa)
#
#
# Indices 1 2 3 4 5 6 
#
# 1 152.7462 91.9601 54.6052 0.0000 0.0000 0.0000
# 2 91.9601 152.7462 54.6052 0.0000 0.0000 0.0000
# 3 54.6052 54.6052 120.3478 0.0000 0.0000 0.0000
# 4 0.0000 0.0000 0.0000 32.5908 0.0000 0.0000
# 5 0.0000 0.0000 0.0000 0.0000 32.5908 0.0000
# 6 0.0000 0.0000 0.0000 0.0000 0.0000 30.3930
#
#
#
# Elastic Compliance Matrix: (Units=1/GPa)
#
#
# Indices 1 2 3 4 5 6 
#
# 1 0.010788 -0.005663 -0.002325 0.000000 0.000000 0.000000
# 2 -0.005663 0.010788 -0.002325 0.000000 0.000000 0.000000
# 3 -0.002325 -0.002325 0.010419 0.000000 0.000000 0.000000
# 4 0.000000 0.000000 0.000000 0.030684 0.000000 0.000000
# 5 0.000000 0.000000 0.000000 0.000000 0.030684 0.000000
# 6 0.000000 0.000000 0.000000 0.000000 0.000000 0.032902
#
#
# Mechanical properties :
#
#
# Convention : Reuss Voigt Hill
#
# Bulk Modulus (GPa) = 87.97030 92.02014 89.99522
# Shear Modulus (GPa) = 33.18298 34.09290 33.63794
#
# Velocity S-wave (km/s) = 3.87565 3.92843 3.90213
# Velocity P-wave (km/s) = 7.73617 7.88865 7.81278
#
# Compressibility (1/GPa) = 0.01136747
#
# Stress axis : x y z
#
# Youngs Moduli (GPa) = 92.69870 92.69870 95.97793
#
# Poissons Ratio (x) = 0.52500 0.22315
# Poissons Ratio (y) = 0.52500 0.22315
# Poissons Ratio (z) = 0.21552 0.21552
#
# Static dielectric constant tensor:
#      x y z
#    x 1.858130 0.000000 0.000000 
#    y 0.000000 1.858130 0.000000 
#    z 0.000000 0.000000 -3.698700 
# 
# From -- ./inp_files/2678.got.cif
#   From: 2010.05.17/outbox.cif.g08.bks.cpg/sg178_2_cif.got.tgz:2678.got - 2010.05.20 11:30:59.
