data_PCOD9582666
_publ_section_title
;
Structure prediction by ZEFSAII (Michael W. Deem and Ramdas Pophale) SiO2 
 PCOD9582666
Probable space group: P 61 2 2
;
_chemical_formula_sum "Si O2"
_cell_formula_units_Z 66
_cell_length_a 20.887560
_cell_length_b 20.887560
_cell_length_c 9.463452
_cell_angle_alpha 90.000000
_cell_angle_beta 90.000000
_cell_angle_gamma 120.000000
_cell_volume 3575.655225
_symmetry_space_group_name_H-M "P 61 2 2"
_symmetry_group_IT_number 178
_symmetry_cell_setting 'hexagonal'
loop_
_space_group_symop_operation_xyz
x,y,z
x-y,x,1/6+z
-y,x-y,1/3+z
-x,-y,1/2+z
-x+y,-x,2/3+z
y,-x+y,5/6+z
x-y,-y,-z
-x,-x+y,2/3-z
y,x,1/3-z
-y,-x,5/6-z
-x+y,y,1/2-z
x,x-y,1/6-z
loop_
_atom_site_type_symbol
_atom_site_label
_atom_site_fract_x
_atom_site_fract_y
_atom_site_fract_z
Si Si1 0.570135 0.743700 0.846283
Si Si2 0.146925 0.619848 0.456922
Si Si3 0.574778 0.890296 0.771541
Si Si4 0.000000 0.428978 0.833334
Si Si5 0.652709 0.205514 0.437862
Si Si6 0.306262 0.225071 0.135432
O O1 0.577090 0.823373 0.851410
O O2 0.509138 0.696267 0.725908
O O3 0.645787 0.755928 0.779208
O O4 0.540683 0.695543 0.987327
O O5 0.170138 0.585069 0.583334
O O6 0.192431 0.618042 0.323321
O O7 0.062145 0.563047 0.416788
O O8 0.496398 0.849493 0.687315
O O9 0.638814 0.920130 0.651836
O O10 0.585712 0.952893 0.882226
O O11 0.708072 0.291929 0.416667
O O12 0.239510 0.239510 0.166667
O O13 0.288081 0.144041 0.083334
#
# Coordination Sequence:
#
# PCOD9582666 Si02
#       6
#    12  12  12   6  12  12
#     4   8  16  34  54  75 102 135 169 221 270 324
#     4  10  21  33  50  76 103 130 175 223 272 325
#     4   9  19  33  51  74 104 138 170 212 278 326
#     4  12  24  30  48  76 106 138 166 218 274 330
#     4   8  16  34  57  74  94 130 175 225 271 320
#     4   9  16  30  54  80 109 136 173 218 265 314
#
# _framework density 18.458155999999999
#
# number of rings (size 3 to 8) (size 9 to 14) (size 15 to 20)
#    0.000    2.909    0.000    3.273    2.545    0.727 
#    3.273    0.000    0.000   13.091    0.000    8.909 
#   10.909    0.000    0.000    0.000    0.000    0.000 
#
# Total GULP energy -367955.526038 kJ/mol
# GULP energy per Si atom -5575.083728 kJ/mol
# Density = 1.841614 g / cm^3
# Si number density = 18.458156 Si / 1000 Ang^3
#
#
#
# Elastic Constant Matrix: (Units=GPa)
#
#
# Indices 1 2 3 4 5 6 
#
# 1 75.2914 40.6949 37.2320 0.0000 0.0000 0.0000
# 2 40.6949 75.2914 37.2320 0.0000 0.0000 0.0000
# 3 37.2320 37.2320 88.1662 0.0000 0.0000 0.0000
# 4 0.0000 0.0000 0.0000 26.4949 0.0000 0.0000
# 5 0.0000 0.0000 0.0000 0.0000 26.4949 0.0000
# 6 0.0000 0.0000 0.0000 0.0000 0.0000 17.2982
#
#
#
# Elastic Compliance Matrix: (Units=1/GPa)
#
#
# Indices 1 2 3 4 5 6 
#
# 1 0.020367 -0.008538 -0.004995 0.000000 0.000000 0.000000
# 2 -0.008538 0.020367 -0.004995 0.000000 0.000000 0.000000
# 3 -0.004995 -0.004995 0.015561 0.000000 0.000000 0.000000
# 4 0.000000 0.000000 0.000000 0.037743 0.000000 0.000000
# 5 0.000000 0.000000 0.000000 0.000000 0.037743 0.000000
# 6 0.000000 0.000000 0.000000 0.000000 0.000000 0.057809
#
#
# Mechanical properties :
#
#
# Convention : Reuss Voigt Hill
#
# Bulk Modulus (GPa) = 51.98122 52.11851 52.04987
# Shear Modulus (GPa) = 21.45380 22.29697 21.87538
#
# Velocity S-wave (km/s) = 3.41294 3.47936 3.44631
# Velocity P-wave (km/s) = 6.61466 6.66623 6.64049
#
# Compressibility (1/GPa) = 0.01923772
#
# Stress axis : x y z
#
# Youngs Moduli (GPa) = 49.09988 49.09988 64.26307
#
# Poissons Ratio (x) = 0.41922 0.32100
# Poissons Ratio (y) = 0.41922 0.32100
# Poissons Ratio (z) = 0.24526 0.24526
#
# Static dielectric constant tensor:
#      x y z
#    x 1.643140 0.000000 0.000000 
#    y 0.000000 1.643140 0.000000 
#    z 0.000000 0.000000 1.730150 
# 
# From -- ./inp_files/3237.got.cif
#   From: 2010.05.17/outbox.cif.g08.bks.cpg/sg178_2_cif.got.tgz:3237.got - 2010.05.20 11:30:59.
