data_PCOD9582900
_publ_section_title
;
Structure prediction by ZEFSAII (Michael W. Deem and Ramdas Pophale) SiO2 
 PCOD9582900
Probable space group: P 61 2 2
;
_chemical_formula_sum "Si O2"
_cell_formula_units_Z 54
_cell_length_a 11.332510
_cell_length_b 11.332510
_cell_length_c 20.313624
_cell_angle_alpha 90.000000
_cell_angle_beta 90.000000
_cell_angle_gamma 120.000000
_cell_volume 2259.281068
_symmetry_space_group_name_H-M "P 61 2 2"
_symmetry_group_IT_number 178
_symmetry_cell_setting 'hexagonal'
loop_
_space_group_symop_operation_xyz
x,y,z
x-y,x,1/6+z
-y,x-y,1/3+z
-x,-y,1/2+z
-x+y,-x,2/3+z
y,-x+y,5/6+z
x-y,-y,-z
-x,-x+y,2/3-z
y,x,1/3-z
-y,-x,5/6-z
-x+y,y,1/2-z
x,x-y,1/6-z
loop_
_atom_site_type_symbol
_atom_site_label
_atom_site_fract_x
_atom_site_fract_y
_atom_site_fract_z
Si Si1 0.259588 0.629794 0.583334
Si Si2 0.797309 0.661594 0.472072
Si Si3 0.879185 0.140322 0.281603
Si Si4 0.157904 0.633824 0.813685
Si Si5 0.315473 0.948481 0.424325
O O1 0.163951 0.678934 0.617074
O O2 0.361181 0.746969 0.532271
O O3 0.804217 0.786045 0.431277
O O4 0.784460 0.710136 0.544828
O O5 0.930281 0.648135 0.459074
O O6 0.787613 0.206325 0.305441
O O7 0.000000 0.173326 0.333334
O O8 0.132138 0.531661 0.752979
O O9 0.000000 0.578655 0.833334
O O10 0.159279 0.840722 0.416667
O O11 0.338598 0.000000 0.500000
#
# Coordination Sequence:
#
# PCOD9582900 Si02
#       5
#     6  12  12  12  12
#     4  12  26  46  78 114 152 204 262 322 408 476
#     4  12  27  46  76 115 150 200 272 320 390 490
#     4  11  28  48  74 108 156 209 256 327 394 473
#     4  10  24  47  74 102 151 206 246 325 396 468
#     4  11  23  45  72 102 143 194 246 321 387 452
#
# _framework density 23.901409000000001
#
# number of rings (size 3 to 8) (size 9 to 14) (size 15 to 20)
#    0.000    0.889    4.444    2.000    9.333    4.444 
#    0.000    0.000    0.000    0.000    0.000    0.000 
#    0.000    0.000    0.000    0.000    0.000    0.000 
#
# Total GULP energy -301265.491173 kJ/mol
# GULP energy per Si atom -5578.990577 kJ/mol
# Density = 2.384701 g / cm^3
# Si number density = 23.901409 Si / 1000 Ang^3
#
#
#
# Elastic Constant Matrix: (Units=GPa)
#
#
# Indices 1 2 3 4 5 6 
#
# 1 99.5068 35.3400 14.1233 0.0000 0.0000 0.0000
# 2 35.3400 99.5068 14.1233 0.0000 0.0000 0.0000
# 3 14.1233 14.1233 61.5108 0.0000 0.0000 0.0000
# 4 0.0000 0.0000 0.0000 28.8114 0.0000 0.0000
# 5 0.0000 0.0000 0.0000 0.0000 28.8114 0.0000
# 6 0.0000 0.0000 0.0000 0.0000 0.0000 32.0834
#
#
#
# Elastic Compliance Matrix: (Units=1/GPa)
#
#
# Indices 1 2 3 4 5 6 
#
# 1 0.011687 -0.003897 -0.001789 0.000000 0.000000 0.000000
# 2 -0.003897 0.011687 -0.001789 0.000000 0.000000 0.000000
# 3 -0.001789 -0.001789 0.017079 0.000000 0.000000 0.000000
# 4 0.000000 0.000000 0.000000 0.034708 0.000000 0.000000
# 5 0.000000 0.000000 0.000000 0.000000 0.034708 0.000000
# 6 0.000000 0.000000 0.000000 0.000000 0.000000 0.031169
#
#
# Mechanical properties :
#
#
# Convention : Reuss Voigt Hill
#
# Bulk Modulus (GPa) = 39.20840 43.07752 41.14296
# Shear Modulus (GPa) = 30.39700 31.07041 30.73370
#
# Velocity S-wave (km/s) = 3.57005 3.60938 3.58977
# Velocity P-wave (km/s) = 5.78217 5.95250 5.86796
#
# Compressibility (1/GPa) = 0.02550474
#
# Stress axis : x y z
#
# Youngs Moduli (GPa) = 85.56179 85.56179 58.55233
#
# Poissons Ratio (x) = 0.33343 0.10474
# Poissons Ratio (y) = 0.33343 0.10474
# Poissons Ratio (z) = 0.15305 0.15305
#
# Static dielectric constant tensor:
#      x y z
#    x 1.974130 0.000000 0.000000 
#    y 0.000000 1.974130 0.000000 
#    z 0.000000 0.000000 2.054040 
# 
# From -- ./inp_files/7387.got.cif
#   From: 2010.05.17/outbox.cif.g08.bks.cpg/sg178_4_cif.got.tgz:7387.got - 2010.05.20 11:30:59.
