data_PCOD9582071
_publ_section_title
;
Structure prediction by ZEFSAII (Michael W. Deem and Ramdas Pophale) SiO2 
 PCOD9582071
Probable space group: P 63/M
;
_chemical_formula_sum "Si O2"
_cell_formula_units_Z 36
_cell_length_a 16.635188
_cell_length_b 16.635188
_cell_length_c 7.792738
_cell_angle_alpha 90.000000
_cell_angle_beta 90.000000
_cell_angle_gamma 120.000000
_cell_volume 1867.566751
_symmetry_space_group_name_H-M "P 63/M"
_symmetry_group_IT_number 176
_symmetry_cell_setting 'hexagonal'
loop_
_space_group_symop_operation_xyz
x,y,z
x-y,x,1/2+z
-y,x-y,z
-x,-y,1/2+z
-x+y,-x,z
y,-x+y,1/2+z
-x,-y,-z
-x+y,-x,1/2-z
y,-x+y,-z
x,y,1/2-z
x-y,x,-z
-y,x-y,1/2-z
loop_
_atom_site_type_symbol
_atom_site_label
_atom_site_fract_x
_atom_site_fract_y
_atom_site_fract_z
Si Si1 0.988076 0.815164 0.446734
Si Si2 0.360589 0.867138 0.250000
Si Si3 0.019649 0.369787 0.554897
Si Si4 0.159153 0.689724 0.250000
O O1 0.898157 0.825856 0.454888
O O2 0.019723 0.822534 0.250000
O O3 0.965399 0.714130 0.506541
O O4 0.382563 0.932225 0.417087
O O5 0.253162 0.786821 0.250000
O O6 0.426718 0.822990 0.250000
O O7 0.058683 0.399159 0.750000
O O8 0.909417 0.326057 0.588606
#
# Coordination Sequence:
#
# PCOD9582071 Si02
#       4
#    12   6  12   6
#     4  11  22  36  54  82 121 157 206 253 305 366
#     4  12  21  44  69  86 140 154 198 282 295 362
#     4   9  23  40  62  91 118 163 217 235 310 383
#     4  10  23  42  63 104 114 168 214 240 331 370
#
# _framework density 19.276419000000001
#
# number of rings (size 3 to 8) (size 9 to 14) (size 15 to 20)
#    1.000    0.667    0.000    4.667    4.667    0.000 
#    3.000    0.000    0.000    0.000    0.000    0.000 
#    0.000    0.000    0.000    0.000    0.000    0.000 
#
# Total GULP energy -200772.206108 kJ/mol
# GULP energy per Si atom -5577.005725 kJ/mol
# Density = 1.923254 g / cm^3
# Si number density = 19.276419 Si / 1000 Ang^3
#
#
#
# Elastic Constant Matrix: (Units=GPa)
#
#
# Indices 1 2 3 4 5 6 
#
# 1 64.9282 -0.3332 27.4892 0.0000 0.0000 0.0000
# 2 -0.3332 64.9282 27.4892 0.0000 0.0000 0.0000
# 3 27.4892 27.4892 59.3666 0.0000 0.0000 0.0000
# 4 0.0000 0.0000 0.0000 -13.9032 0.0000 0.0000
# 5 0.0000 0.0000 0.0000 0.0000 -13.9032 0.0000
# 6 0.0000 0.0000 0.0000 0.0000 0.0000 32.6307
#
#
#
# Elastic Compliance Matrix: (Units=1/GPa)
#
#
# Indices 1 2 3 4 5 6 
#
# 1 0.020437 0.005114 -0.011831 0.000000 0.000000 0.000000
# 2 0.005114 0.020437 -0.011831 0.000000 0.000000 0.000000
# 3 -0.011831 -0.011831 0.027801 0.000000 0.000000 0.000000
# 4 0.000000 0.000000 0.000000 -0.071926 0.000000 0.000000
# 5 0.000000 0.000000 0.000000 0.000000 -0.071926 0.000000
# 6 0.000000 0.000000 0.000000 0.000000 0.000000 0.030646
#
#
# Mechanical properties :
#
#
# Convention : Reuss Voigt Hill
#
# Bulk Modulus (GPa) = 31.66731 33.16818 32.41775
# Shear Modulus (GPa) = 1617.30558 9.93672 813.62115
#
# Velocity S-wave (km/s) = 28.99705 2.27289 20.56690
# Velocity P-wave (km/s) = 33.72786 4.91244 24.10084
#
# Compressibility (1/GPa) = 0.03157830
#
# Stress axis : x y z
#
# Youngs Moduli (GPa) = 48.93113 48.93113 35.96989
#
# Poissons Ratio (x) = -0.25023 0.42556
# Poissons Ratio (y) = -0.25023 0.42556
# Poissons Ratio (z) = 0.57891 0.57891
#
# Static dielectric constant tensor:
#      x y z
#    x 1.667400 0.000000 0.000000 
#    y 0.000000 1.667400 0.000000 
#    z 0.000000 0.000000 1.657030 
# 
# From -- ./inp_files/427.got.cif
#   From: 2010.05.17/outbox.cif.g08.bks.cpg/sg176_1_cif.got.tgz:427.got - 2010.06.03 11:36:45.
