data_PCOD9582560
_publ_section_title
;
Structure prediction by ZEFSAII (Michael W. Deem and Ramdas Pophale) SiO2 
 PCOD9582560
Probable space group: P 61 2 2
;
_chemical_formula_sum "Si O2"
_cell_formula_units_Z 84
_cell_length_a 17.743248
_cell_length_b 17.743248
_cell_length_c 15.070163
_cell_angle_alpha 90.000000
_cell_angle_beta 90.000000
_cell_angle_gamma 120.000000
_cell_volume 4108.798344
_symmetry_space_group_name_H-M "P 61 2 2"
_symmetry_group_IT_number 178
_symmetry_cell_setting 'hexagonal'
loop_
_space_group_symop_operation_xyz
x,y,z
x-y,x,1/6+z
-y,x-y,1/3+z
-x,-y,1/2+z
-x+y,-x,2/3+z
y,-x+y,5/6+z
x-y,-y,-z
-x,-x+y,2/3-z
y,x,1/3-z
-y,-x,5/6-z
-x+y,y,1/2-z
x,x-y,1/6-z
loop_
_atom_site_type_symbol
_atom_site_label
_atom_site_fract_x
_atom_site_fract_y
_atom_site_fract_z
Si Si1 0.622666 0.551090 0.587802
Si Si2 0.036462 0.407913 0.614563
Si Si3 0.220538 0.217359 0.935542
Si Si4 0.855443 0.753568 0.156512
Si Si5 0.533256 0.181523 0.578500
Si Si6 0.313750 0.917798 0.566939
Si Si7 0.718155 0.805353 0.723898
O O1 0.573946 0.573946 0.666667
O O2 0.595186 0.559176 0.485769
O O3 0.602776 0.453252 0.596972
O O4 0.725060 0.620997 0.597420
O O5 0.122857 0.472388 0.671346
O O6 0.027676 0.314333 0.598128
O O7 0.953649 0.376099 0.680605
O O8 0.144807 0.186875 0.864007
O O9 0.271382 0.168983 0.966948
O O10 0.173145 0.228397 0.019501
O O11 0.814037 0.814037 0.166667
O O12 0.854021 0.708041 0.250000
O O13 0.788438 0.676182 0.089832
O O14 0.566947 0.283474 0.583334
O O15 0.475922 0.151981 0.489163
O O16 0.350068 0.000000 0.500000
O O17 0.766221 0.766221 0.666667
#
# Coordination Sequence:
#
# PCOD9582560 Si02
#       7
#    12  12  12  12  12  12  12
#     4  10  22  41  63  88 120 164 215 266 315 375
#     4  10  20  35  61  90 122 160 203 251 303 375
#     4  11  20  35  56  81 110 151 198 236 288 347
#     4  11  20  32  51  84 130 163 189 237 300 371
#     4  11  21  35  61  96 129 156 192 251 324 394
#     4   9  17  31  54  89 126 161 196 238 301 377
#     4  10  22  39  59  78 106 151 205 255 291 341
#
# _framework density 20.443933999999999
#
# number of rings (size 3 to 8) (size 9 to 14) (size 15 to 20)
#    0.000    1.714    0.000    7.714    0.000    1.143 
#    0.000    4.286    0.000   13.714    0.000    0.000 
#    0.000    0.000    0.000    0.000    0.000    0.000 
#
# Total GULP energy -467635.237840 kJ/mol
# GULP energy per Si atom -5567.086165 kJ/mol
# Density = 2.039740 g / cm^3
# Si number density = 20.443934 Si / 1000 Ang^3
#
#
#
# Elastic Constant Matrix: (Units=GPa)
#
#
# Indices 1 2 3 4 5 6 
#
# 1 106.4478 51.0820 26.5051 0.0000 0.0000 0.0000
# 2 51.0820 106.4478 26.5051 0.0000 0.0000 0.0000
# 3 26.5051 26.5051 95.4948 0.0000 0.0000 0.0000
# 4 0.0000 0.0000 0.0000 16.7835 0.0000 0.0000
# 5 0.0000 0.0000 0.0000 0.0000 16.7835 0.0000
# 6 0.0000 0.0000 0.0000 0.0000 0.0000 27.6829
#
#
#
# Elastic Compliance Matrix: (Units=1/GPa)
#
#
# Indices 1 2 3 4 5 6 
#
# 1 0.012532 -0.005530 -0.001943 0.000000 0.000000 0.000000
# 2 -0.005530 0.012532 -0.001943 0.000000 0.000000 0.000000
# 3 -0.001943 -0.001943 0.011551 0.000000 0.000000 0.000000
# 4 0.000000 0.000000 0.000000 0.059582 0.000000 0.000000
# 5 0.000000 0.000000 0.000000 0.000000 0.059582 0.000000
# 6 0.000000 0.000000 0.000000 0.000000 0.000000 0.036123
#
#
# Mechanical properties :
#
#
# Convention : Reuss Voigt Hill
#
# Bulk Modulus (GPa) = 56.24037 57.39720 56.81879
# Shear Modulus (GPa) = 23.07735 25.86986 24.47360
#
# Velocity S-wave (km/s) = 3.36342 3.56111 3.46368
# Velocity P-wave (km/s) = 6.53091 6.71156 6.62185
#
# Compressibility (1/GPa) = 0.01778082
#
# Stress axis : x y z
#
# Youngs Moduli (GPa) = 79.79671 79.79671 86.57558
#
# Poissons Ratio (x) = 0.44126 0.16825
# Poissons Ratio (y) = 0.44126 0.16825
# Poissons Ratio (z) = 0.15508 0.15508
#
# Static dielectric constant tensor:
#      x y z
#    x 1.771390 0.000000 0.000000 
#    y 0.000000 1.771390 0.000000 
#    z 0.000000 0.000000 1.955950 
# 
# From -- ./inp_files/6040.got.cif
#   From: 2010.05.17/outbox.cif.g08.bks.cpg/sg178_4_cif.got.tgz:6040.got - 2010.05.20 11:30:59.
