data_PCOD9582206
_publ_section_title
;
Structure prediction by ZEFSAII (Michael W. Deem and Ramdas Pophale) SiO2 
 PCOD9582206
Probable space group: P 6 2 2
;
_chemical_formula_sum "Si O2"
_cell_formula_units_Z 54
_cell_length_a 20.856181
_cell_length_b 20.856181
_cell_length_c 8.177138
_cell_angle_alpha 90.000000
_cell_angle_beta 90.000000
_cell_angle_gamma 120.000000
_cell_volume 3080.360411
_symmetry_space_group_name_H-M "P 6 2 2"
_symmetry_group_IT_number 177
_symmetry_cell_setting 'hexagonal'
loop_
_space_group_symop_operation_xyz
x,y,z
x-y,x,z
-y,x-y,z
-x,-y,z
-x+y,-x,z
y,-x+y,z
x-y,-y,-z
-x,-x+y,-z
y,x,-z
-y,-x,-z
-x+y,y,-z
x,x-y,-z
loop_
_atom_site_type_symbol
_atom_site_label
_atom_site_fract_x
_atom_site_fract_y
_atom_site_fract_z
Si Si1 0.265694 0.879736 0.305406
Si Si2 0.000000 0.851508 0.500000
Si Si3 0.000000 0.424804 0.803359
Si Si4 0.231645 0.231645 0.177889
Si Si5 0.879736 0.265694 0.305405
O O1 0.353533 0.924917 0.265292
O O2 0.239087 0.927324 0.200709
O O3 0.207915 0.792085 0.273370
O O4 0.259000 0.890519 0.500000
O O5 0.928942 0.857884 0.500000
O O6 0.000000 0.811993 0.334579
O O7 0.000000 0.500000 0.765309
O O8 0.075083 0.428616 0.734708
O O9 0.000000 0.416326 0.000000
O O10 0.239087 0.311763 0.200708
O O11 0.200765 0.200765 0.000000
#
# Coordination Sequence:
#
# PCOD9582206 Si02
#       5
#    12   6  12  12  12
#     4  10  19  33  55  83 110 137 176 226 275 327
#     4  12  25  40  52  68  97 134 176 216 258 316
#     4  10  21  35  52  78 113 150 186 226 277 338
#     4  11  21  35  57  80 104 135 171 222 280 323
#     4  10  19  33  55  83 110 137 176 226 275 327
#
# _framework density 17.530415999999999
#
# number of rings (size 3 to 8) (size 9 to 14) (size 15 to 20)
#    0.000    1.556    2.222    6.111    0.000    8.000 
#    0.000    0.000    0.000    2.222    0.000    0.000 
#    0.000    0.000    0.000    0.000    0.000    0.000 
#
# Total GULP energy -300768.146782 kJ/mol
# GULP energy per Si atom -5569.780496 kJ/mol
# Density = 1.749052 g / cm^3
# Si number density = 17.530416 Si / 1000 Ang^3
#
#
#
# Elastic Constant Matrix: (Units=GPa)
#
#
# Indices 1 2 3 4 5 6 
#
# 1 114.2340 58.9126 38.5052 0.0000 0.0000 0.0000
# 2 58.9126 114.2340 38.5052 0.0000 0.0000 0.0000
# 3 38.5052 38.5052 122.0718 0.0000 0.0000 0.0000
# 4 0.0000 0.0000 0.0000 -10.8685 0.0000 0.0000
# 5 0.0000 0.0000 0.0000 0.0000 -10.8685 0.0000
# 6 0.0000 0.0000 0.0000 0.0000 0.0000 27.6607
#
#
#
# Elastic Compliance Matrix: (Units=1/GPa)
#
#
# Indices 1 2 3 4 5 6 
#
# 1 0.012397 -0.005679 -0.002119 0.000000 0.000000 0.000000
# 2 -0.005679 0.012397 -0.002119 0.000000 0.000000 0.000000
# 3 -0.002119 -0.002119 0.009529 0.000000 0.000000 0.000000
# 4 0.000000 0.000000 0.000000 -0.092009 0.000000 0.000000
# 5 0.000000 0.000000 0.000000 0.000000 -0.092009 0.000000
# 6 0.000000 0.000000 0.000000 0.000000 0.000000 0.036152
#
#
# Mechanical properties :
#
#
# Convention : Reuss Voigt Hill
#
# Bulk Modulus (GPa) = 69.02061 69.15397 69.08729
# Shear Modulus (GPa) = -56.25677 15.49251 -20.38213
#
# Velocity S-wave (km/s) = -5.67103 2.97602 -3.41350
# Velocity P-wave (km/s) = 1.85025 7.16537 4.89485
#
# Compressibility (1/GPa) = 0.01448843
#
# Stress axis : x y z
#
# Youngs Moduli (GPa) = 80.66425 80.66425 104.94587
#
# Poissons Ratio (x) = 0.45810 0.22238
# Poissons Ratio (y) = 0.45810 0.22238
# Poissons Ratio (z) = 0.17093 0.17093
#
# Static dielectric constant tensor:
#      x y z
#    x 1.613190 0.000000 0.000000 
#    y 0.000000 1.613190 0.000000 
#    z 0.000000 0.000000 1.578280 
# 
# From -- ./inp_files/1358.got.cif
#   From: 2010.05.17/outbox.cif.g08.bks.cpg/sg177_1_cif.got.tgz:1358.got - 2010.05.20 11:28:44.
