data_PCOD9582982
_publ_section_title
;
Structure prediction by ZEFSAII (Michael W. Deem and Ramdas Pophale) SiO2 
 PCOD9582982
Probable space group: P 61 2 2
;
_chemical_formula_sum "Si O2"
_cell_formula_units_Z 48
_cell_length_a 16.493089
_cell_length_b 16.493089
_cell_length_c 9.325666
_cell_angle_alpha 90.000000
_cell_angle_beta 90.000000
_cell_angle_gamma 120.000000
_cell_volume 2196.921271
_symmetry_space_group_name_H-M "P 61 2 2"
_symmetry_group_IT_number 178
_symmetry_cell_setting 'hexagonal'
loop_
_space_group_symop_operation_xyz
x,y,z
x-y,x,1/6+z
-y,x-y,1/3+z
-x,-y,1/2+z
-x+y,-x,2/3+z
y,-x+y,5/6+z
x-y,-y,-z
-x,-x+y,2/3-z
y,x,1/3-z
-y,-x,5/6-z
-x+y,y,1/2-z
x,x-y,1/6-z
loop_
_atom_site_type_symbol
_atom_site_label
_atom_site_fract_x
_atom_site_fract_y
_atom_site_fract_z
Si Si1 0.664075 0.706541 0.369437
Si Si2 0.877467 0.526154 0.988511
Si Si3 0.167660 0.000000 0.500000
Si Si4 0.580337 0.790169 0.583334
Si Si5 0.546996 0.000000 0.000000
Si Si6 0.710537 0.355269 0.083334
O O1 0.682321 0.629501 0.449821
O O2 0.749802 0.786600 0.283127
O O3 0.637835 0.762602 0.478561
O O4 0.578507 0.639407 0.262939
O O5 0.827276 0.524828 0.841280
O O6 0.940581 0.480900 0.938040
O O7 0.787376 0.466405 0.088581
O O8 0.152802 0.076401 0.583334
O O9 0.665423 0.330845 0.250000
#
# Coordination Sequence:
#
# PCOD9582982 Si02
#       6
#    12  12   6   6   6   6
#     4  11  24  45  74 104 148 200 259 322 388 491
#     4  12  24  44  70 106 151 207 266 322 399 462
#     4  11  26  50  76 109 142 188 248 323 420 494
#     4  12  25  38  70 110 150 196 258 328 383 462
#     4  11  22  44  72  99 150 210 262 315 390 474
#     4  12  29  50  70 112 162 218 276 344 399 470
#
# _framework density 21.848756999999999
#
# number of rings (size 3 to 8) (size 9 to 14) (size 15 to 20)
#    0.000    0.500    5.000    2.250    3.500    1.000 
#    2.250    0.000    0.000    0.000    0.000    0.000 
#    0.000    0.000    0.000    0.000    0.000    0.000 
#
# Total GULP energy -267370.484647 kJ/mol
# GULP energy per Si atom -5570.218430 kJ/mol
# Density = 2.179903 g / cm^3
# Si number density = 21.848757 Si / 1000 Ang^3
#
#
#
# Elastic Constant Matrix: (Units=GPa)
#
#
# Indices 1 2 3 4 5 6 
#
# 1 194.2518 -22.0294 63.3319 0.0000 0.0000 0.0000
# 2 -22.0294 194.2518 63.3319 0.0000 0.0000 0.0000
# 3 63.3319 63.3319 139.7909 0.0000 0.0000 0.0000
# 4 0.0000 0.0000 0.0000 119.3539 0.0000 0.0000
# 5 0.0000 0.0000 0.0000 0.0000 119.3539 0.0000
# 6 0.0000 0.0000 0.0000 0.0000 0.0000 108.1406
#
#
#
# Elastic Compliance Matrix: (Units=1/GPa)
#
#
# Indices 1 2 3 4 5 6 
#
# 1 0.006666 0.002042 -0.003945 0.000000 0.000000 0.000000
# 2 0.002042 0.006666 -0.003945 0.000000 0.000000 0.000000
# 3 -0.003945 -0.003945 0.010728 0.000000 0.000000 0.000000
# 4 0.000000 0.000000 0.000000 0.008378 0.000000 0.000000
# 5 0.000000 0.000000 0.000000 0.000000 0.008378 0.000000
# 6 0.000000 0.000000 0.000000 0.000000 0.000000 0.009247
#
#
# Mechanical properties :
#
#
# Convention : Reuss Voigt Hill
#
# Bulk Modulus (GPa) = 80.88243 81.95151 81.41697
# Shear Modulus (GPa) = 75.89421 97.61369 86.75395
#
# Velocity S-wave (km/s) = 5.90013 6.69134 6.30815
# Velocity P-wave (km/s) = 9.13866 9.86350 9.50799
#
# Compressibility (1/GPa) = 0.01236362
#
# Stress axis : x y z
#
# Youngs Moduli (GPa) = 150.02000 150.02000 93.21240
#
# Poissons Ratio (x) = -0.30637 0.36773
# Poissons Ratio (y) = -0.30637 0.36773
# Poissons Ratio (z) = 0.59185 0.59185
#
# Static dielectric constant tensor:
#      x y z
#    x 1.792880 0.000000 0.000000 
#    y 0.000000 1.792880 0.000000 
#    z 0.000000 0.000000 1.954370 
# 
# From -- ./inp_files/2840.got.cif
#   From: 2010.05.17/outbox.cif.g08.bks.cpg/sg178_2_cif.got.tgz:2840.got - 2010.05.20 11:30:59.
