data_PCOD9582866
_publ_section_title
;
Structure prediction by ZEFSAII (Michael W. Deem and Ramdas Pophale) SiO2 
 PCOD9582866
Probable space group: P 61 2 2
;
_chemical_formula_sum "Si O2"
_cell_formula_units_Z 48
_cell_length_a 15.292694
_cell_length_b 15.292694
_cell_length_c 10.000249
_cell_angle_alpha 90.000000
_cell_angle_beta 90.000000
_cell_angle_gamma 120.000000
_cell_volume 2025.393643
_symmetry_space_group_name_H-M "P 61 2 2"
_symmetry_group_IT_number 178
_symmetry_cell_setting 'hexagonal'
loop_
_space_group_symop_operation_xyz
x,y,z
x-y,x,1/6+z
-y,x-y,1/3+z
-x,-y,1/2+z
-x+y,-x,2/3+z
y,-x+y,5/6+z
x-y,-y,-z
-x,-x+y,2/3-z
y,x,1/3-z
-y,-x,5/6-z
-x+y,y,1/2-z
x,x-y,1/6-z
loop_
_atom_site_type_symbol
_atom_site_label
_atom_site_fract_x
_atom_site_fract_y
_atom_site_fract_z
Si Si1 0.291705 0.708296 0.416667
Si Si2 0.501790 0.615431 0.637610
Si Si3 0.147114 0.412993 0.566897
Si Si4 0.099365 0.900636 0.916667
Si Si5 0.646968 0.719489 0.397426
O O1 0.219262 0.601562 0.335228
O O2 0.306969 0.788229 0.303175
O O3 0.517318 0.517318 0.666667
O O4 0.577039 0.694318 0.748473
O O5 0.546211 0.655663 0.489187
O O6 0.222913 0.370396 0.555987
O O7 0.042604 0.350529 0.641967
O O8 0.193756 0.923656 0.824228
O O9 0.000000 0.869103 0.833334
#
# Coordination Sequence:
#
# PCOD9582866 Si02
#       5
#     6  12  12   6  12
#     4  12  28  42  63  98 146 173 218 294 354 406
#     4  10  23  44  66  96 131 179 237 280 341 413
#     4  11  24  41  67  99 134 179 225 278 349 413
#     4  12  20  40  73 104 132 173 232 286 342 402
#     4  11  21  42  73  97 128 180 238 277 332 424
#
# _framework density 23.699096000000001
#
# number of rings (size 3 to 8) (size 9 to 14) (size 15 to 20)
#    0.000    1.000    5.000    1.500    3.500    5.000 
#    0.000    1.250    0.000    0.000    0.000    0.000 
#    0.000    0.000    0.000    0.000    0.000    0.000 
#
# Total GULP energy -267905.201952 kJ/mol
# GULP energy per Si atom -5581.358374 kJ/mol
# Density = 2.364516 g / cm^3
# Si number density = 23.699096 Si / 1000 Ang^3
#
#
#
# Elastic Constant Matrix: (Units=GPa)
#
#
# Indices 1 2 3 4 5 6 
#
# 1 -100.5455 340.7626 29.4382 0.0000 0.0000 0.0000
# 2 340.7626 -100.5455 29.4382 0.0000 0.0000 0.0000
# 3 29.4382 29.4382 48.2098 0.0000 0.0000 0.0000
# 4 0.0000 0.0000 0.0000 10.6410 0.0000 0.0000
# 5 0.0000 0.0000 0.0000 0.0000 10.6410 0.0000
# 6 0.0000 0.0000 0.0000 0.0000 0.0000 -220.6541
#
#
#
# Elastic Compliance Matrix: (Units=1/GPa)
#
#
# Indices 1 2 3 4 5 6 
#
# 1 0.001315 0.003581 -0.002989 0.000000 0.000000 0.000000
# 2 0.003581 0.001315 -0.002989 0.000000 0.000000 0.000000
# 3 -0.002989 -0.002989 0.024393 0.000000 0.000000 0.000000
# 4 0.000000 0.000000 0.000000 0.093976 0.000000 0.000000
# 5 0.000000 0.000000 0.000000 0.000000 0.093976 0.000000
# 6 0.000000 0.000000 0.000000 0.000000 0.000000 -0.004532
#
#
# Mechanical properties :
#
#
# Convention : Reuss Voigt Hill
#
# Bulk Modulus (GPa) = 44.99010 71.82185 58.40598
# Shear Modulus (GPa) = 22.45693 -76.70910 -27.12609
#
# Velocity S-wave (km/s) = 3.08163 -5.69546 -3.38687
# Velocity P-wave (km/s) = 5.62912 3.58879 3.06656
#
# Compressibility (1/GPa) = 0.02222711
#
# Stress axis : x y z
#
# Youngs Moduli (GPa) = 760.57307 760.57307 40.99465
#
# Poissons Ratio (x) = -2.72345 0.12255
# Poissons Ratio (y) = -2.72345 0.12255
# Poissons Ratio (z) = 2.27364 2.27364
#
# Static dielectric constant tensor:
#      x y z
#    x 1.983900 0.000000 0.000000 
#    y 0.000000 1.983900 0.000000 
#    z 0.000000 0.000000 2.072840 
# 
# From -- ./inp_files/4151.got.cif
#   From: 2010.05.17/outbox.cif.g08.bks.cpg/sg178_3_cif.got.tgz:4151.got - 2010.05.20 11:30:59.
