data_PCOD9582684
_publ_section_title
;
Structure prediction by ZEFSAII (Michael W. Deem and Ramdas Pophale) SiO2 
 PCOD9582684
Probable space group: P 61 2 2
;
_chemical_formula_sum "Si O2"
_cell_formula_units_Z 66
_cell_length_a 21.536779
_cell_length_b 21.536779
_cell_length_c 7.946021
_cell_angle_alpha 90.000000
_cell_angle_beta 90.000000
_cell_angle_gamma 120.000000
_cell_volume 3191.845367
_symmetry_space_group_name_H-M "P 61 2 2"
_symmetry_group_IT_number 178
_symmetry_cell_setting 'hexagonal'
loop_
_space_group_symop_operation_xyz
x,y,z
x-y,x,1/6+z
-y,x-y,1/3+z
-x,-y,1/2+z
-x+y,-x,2/3+z
y,-x+y,5/6+z
x-y,-y,-z
-x,-x+y,2/3-z
y,x,1/3-z
-y,-x,5/6-z
-x+y,y,1/2-z
x,x-y,1/6-z
loop_
_atom_site_type_symbol
_atom_site_label
_atom_site_fract_x
_atom_site_fract_y
_atom_site_fract_z
Si Si1 0.157831 0.578916 0.083334
Si Si2 0.160244 0.295401 0.938368
Si Si3 0.248610 0.647470 0.749566
Si Si4 0.557317 0.748131 0.756254
Si Si5 0.062712 0.429453 0.226804
Si Si6 0.280709 0.017463 0.296489
O O1 0.205900 0.598056 0.250665
O O2 0.106080 0.493668 0.097118
O O3 0.135098 0.270195 0.750000
O O4 0.217974 0.269745 0.966823
O O5 0.204776 0.382687 0.943988
O O6 0.088245 0.272357 0.044129
O O7 0.325328 0.650656 0.750000
O O8 0.209010 0.604505 0.583334
O O9 0.249099 0.722483 0.726475
O O10 0.582894 0.791447 0.583334
O O11 0.560924 0.678170 0.710114
O O12 0.036070 0.355153 0.127482
O O13 0.000000 0.430318 0.333334
O O14 0.280502 0.000000 0.500000
#
# Coordination Sequence:
#
# PCOD9582684 Si02
#       6
#     6  12  12  12  12  12
#     4  10  28  48  62  94 130 172 230 286 350 420
#     4  10  21  38  61  94 132 164 213 267 325 397
#     4  11  27  43  66  90 128 175 229 284 348 409
#     4  11  22  39  61  89 123 157 211 264 328 384
#     4  11  22  42  65  87 124 169 209 276 333 395
#     4  10  21  37  62  94 130 166 214 267 326 399
#
# _framework density 20.677695
#
# number of rings (size 3 to 8) (size 9 to 14) (size 15 to 20)
#    0.000    1.455    3.636    0.545    6.364    4.364 
#    6.545    0.000    0.000    0.000    0.000    0.000 
#   65.455    0.000    0.000    0.000    0.000    0.000 
#
# Total GULP energy -367860.603890 kJ/mol
# GULP energy per Si atom -5573.645513 kJ/mol
# Density = 2.063063 g / cm^3
# Si number density = 20.677695 Si / 1000 Ang^3
#
#
#
# Elastic Constant Matrix: (Units=GPa)
#
#
# Indices 1 2 3 4 5 6 
#
# 1 130.6637 67.5619 30.6811 0.0000 0.0000 0.0000
# 2 67.5619 130.6637 30.6811 0.0000 0.0000 0.0000
# 3 30.6811 30.6811 81.5753 0.0000 0.0000 0.0000
# 4 0.0000 0.0000 0.0000 26.4362 0.0000 0.0000
# 5 0.0000 0.0000 0.0000 0.0000 26.4362 0.0000
# 6 0.0000 0.0000 0.0000 0.0000 0.0000 31.5509
#
#
#
# Elastic Compliance Matrix: (Units=1/GPa)
#
#
# Indices 1 2 3 4 5 6 
#
# 1 0.010778 -0.005069 -0.002147 0.000000 0.000000 0.000000
# 2 -0.005069 0.010778 -0.002147 0.000000 0.000000 0.000000
# 3 -0.002147 -0.002147 0.013874 0.000000 0.000000 0.000000
# 4 0.000000 0.000000 0.000000 0.037827 0.000000 0.000000
# 5 0.000000 0.000000 0.000000 0.000000 0.037827 0.000000
# 6 0.000000 0.000000 0.000000 0.000000 0.000000 0.031695
#
#
# Mechanical properties :
#
#
# Convention : Reuss Voigt Hill
#
# Bulk Modulus (GPa) = 59.86819 66.75011 63.30915
# Shear Modulus (GPa) = 29.92675 31.14992 30.53833
#
# Velocity S-wave (km/s) = 3.80846 3.88551 3.84718
# Velocity P-wave (km/s) = 6.95378 7.24437 7.10056
#
# Compressibility (1/GPa) = 0.01670336
#
# Stress axis : x y z
#
# Youngs Moduli (GPa) = 92.77774 92.77774 72.07770
#
# Poissons Ratio (x) = 0.47029 0.15478
# Poissons Ratio (y) = 0.47029 0.15478
# Poissons Ratio (z) = 0.19923 0.19923
#
# Static dielectric constant tensor:
#      x y z
#    x 1.828940 0.000000 0.000000 
#    y 0.000000 1.828940 0.000000 
#    z 0.000000 0.000000 1.798570 
# 
# From -- ./inp_files/3250.got.cif
#   From: 2010.05.17/outbox.cif.g08.bks.cpg/sg178_2_cif.got.tgz:3250.got - 2010.05.20 11:30:59.
