data_PCOD9582775
_publ_section_title
;
Structure prediction by ZEFSAII (Michael W. Deem and Ramdas Pophale) SiO2 
 PCOD9582775
Probable space group: P 61 2 2
;
_chemical_formula_sum "Si O2"
_cell_formula_units_Z 60
_cell_length_a 14.843163
_cell_length_b 14.843163
_cell_length_c 14.182934
_cell_angle_alpha 90.000000
_cell_angle_beta 90.000000
_cell_angle_gamma 120.000000
_cell_volume 2706.136051
_symmetry_space_group_name_H-M "P 61 2 2"
_symmetry_group_IT_number 178
_symmetry_cell_setting 'hexagonal'
loop_
_space_group_symop_operation_xyz
x,y,z
x-y,x,1/6+z
-y,x-y,1/3+z
-x,-y,1/2+z
-x+y,-x,2/3+z
y,-x+y,5/6+z
x-y,-y,-z
-x,-x+y,2/3-z
y,x,1/3-z
-y,-x,5/6-z
-x+y,y,1/2-z
x,x-y,1/6-z
loop_
_atom_site_type_symbol
_atom_site_label
_atom_site_fract_x
_atom_site_fract_y
_atom_site_fract_z
Si Si1 0.794262 0.588523 0.750000
Si Si2 0.884731 0.000000 0.000000
Si Si3 0.088407 0.391717 0.074556
Si Si4 0.000000 0.363331 0.333334
Si Si5 0.928510 0.480393 0.189048
Si Si6 0.190155 0.870979 0.245902
Si Si7 0.524225 0.762113 0.083334
O O1 0.833385 0.543629 0.661576
O O2 0.745616 0.648040 0.695289
O O3 0.778684 0.907197 0.960042
O O4 0.963416 0.036585 0.916667
O O5 0.987244 0.282864 0.106957
O O6 0.154216 0.358972 0.008595
O O7 0.029789 0.436828 0.007017
O O8 0.031660 0.446260 0.419397
O O9 0.834551 0.472108 0.253985
O O10 0.884045 0.442023 0.083334
O O11 0.222124 0.816016 0.325690
#
# Coordination Sequence:
#
# PCOD9582775 Si02
#       7
#     6   6  12   6  12  12   6
#     4  12  26  46  72 103 148 202 239 308 376 478
#     4  12  20  37  53  86 128 164 228 288 356 420
#     4  11  23  41  68  95 136 186 242 295 373 453
#     4  12  26  51  75 110 152 202 260 316 414 474
#     4  11  23  46  71 107 142 191 250 321 387 483
#     4  11  20  37  64  92 125 180 232 295 357 437
#     4  10  22  40  70  99 132 180 239 314 378 454
#
# _framework density 22.171835000000002
#
# number of rings (size 3 to 8) (size 9 to 14) (size 15 to 20)
#    0.000    0.800    5.000    3.600    2.800    0.000 
#    3.600    0.000    0.000    0.000    0.000    0.000 
#    0.000    0.000    0.000    0.000    0.000    0.000 
#
# Total GULP energy -334103.958906 kJ/mol
# GULP energy per Si atom -5568.399315 kJ/mol
# Density = 2.212137 g / cm^3
# Si number density = 22.171835 Si / 1000 Ang^3
#
#
#
# Elastic Constant Matrix: (Units=GPa)
#
#
# Indices 1 2 3 4 5 6 
#
# 1 83.2569 28.5904 22.3553 0.0000 0.0000 0.0000
# 2 28.5904 83.2569 22.3553 0.0000 0.0000 0.0000
# 3 22.3553 22.3553 109.5700 0.0000 0.0000 0.0000
# 4 0.0000 0.0000 0.0000 24.1408 0.0000 0.0000
# 5 0.0000 0.0000 0.0000 0.0000 24.1408 0.0000
# 6 0.0000 0.0000 0.0000 0.0000 0.0000 27.3333
#
#
#
# Elastic Compliance Matrix: (Units=1/GPa)
#
#
# Indices 1 2 3 4 5 6 
#
# 1 0.014014 -0.004279 -0.001986 0.000000 0.000000 0.000000
# 2 -0.004279 0.014014 -0.001986 0.000000 0.000000 0.000000
# 3 -0.001986 -0.001986 0.009937 0.000000 0.000000 0.000000
# 4 0.000000 0.000000 0.000000 0.041424 0.000000 0.000000
# 5 0.000000 0.000000 0.000000 0.000000 0.041424 0.000000
# 6 0.000000 0.000000 0.000000 0.000000 0.000000 0.036585
#
#
# Mechanical properties :
#
#
# Convention : Reuss Voigt Hill
#
# Bulk Modulus (GPa) = 46.59426 46.96510 46.77968
# Shear Modulus (GPa) = 27.61612 28.64184 28.12898
#
# Velocity S-wave (km/s) = 3.53306 3.59808 3.56572
# Velocity P-wave (km/s) = 6.14036 6.20402 6.17227
#
# Compressibility (1/GPa) = 0.02146187
#
# Stress axis : x y z
#
# Youngs Moduli (GPa) = 71.35862 71.35862 100.63357
#
# Poissons Ratio (x) = 0.30534 0.19987
# Poissons Ratio (y) = 0.30534 0.19987
# Poissons Ratio (z) = 0.14173 0.14173
#
# Static dielectric constant tensor:
#      x y z
#    x 2.700530 0.000000 0.000000 
#    y 0.000000 2.700530 0.000000 
#    z 0.000000 0.000000 1.832610 
# 
# From -- ./inp_files/5796.got.cif
#   From: 2010.05.17/outbox.cif.g08.bks.cpg/sg178_3_cif.got.tgz:5796.got - 2010.05.20 11:30:59.
