data_PCOD9582437
_publ_section_title
;
Structure prediction by ZEFSAII (Michael W. Deem and Ramdas Pophale) SiO2 
 PCOD9582437
Probable space group: P 61 2 2
;
_chemical_formula_sum "Si O2"
_cell_formula_units_Z 60
_cell_length_a 20.570029
_cell_length_b 20.570029
_cell_length_c 8.540938
_cell_angle_alpha 90.000000
_cell_angle_beta 90.000000
_cell_angle_gamma 120.000000
_cell_volume 3129.723774
_symmetry_space_group_name_H-M "P 61 2 2"
_symmetry_group_IT_number 178
_symmetry_cell_setting 'hexagonal'
loop_
_space_group_symop_operation_xyz
x,y,z
x-y,x,1/6+z
-y,x-y,1/3+z
-x,-y,1/2+z
-x+y,-x,2/3+z
y,-x+y,5/6+z
x-y,-y,-z
-x,-x+y,2/3-z
y,x,1/3-z
-y,-x,5/6-z
-x+y,y,1/2-z
x,x-y,1/6-z
loop_
_atom_site_type_symbol
_atom_site_label
_atom_site_fract_x
_atom_site_fract_y
_atom_site_fract_z
Si Si1 0.931396 0.222241 0.461955
Si Si2 0.372820 0.686410 0.083334
Si Si3 0.645941 0.104178 0.308103
Si Si4 0.887645 0.030076 0.251295
Si Si5 0.849892 0.404189 0.833755
Si Si6 0.485647 0.514354 0.916667
O O1 0.851226 0.148775 0.416667
O O2 0.910011 0.285092 0.507402
O O3 0.963468 0.187046 0.589877
O O4 0.000000 0.257745 0.333334
O O5 0.329835 0.659670 0.250000
O O6 0.423539 0.648453 0.075058
O O7 0.629501 0.150311 0.440303
O O8 0.639866 0.141184 0.146104
O O9 0.569386 0.024299 0.310481
O O10 0.928100 0.071901 0.416667
O O11 0.946172 0.075464 0.115085
O O12 0.920328 0.432902 0.946126
#
# Coordination Sequence:
#
# PCOD9582437 Si02
#       6
#    12   6  12  12  12   6
#     4  11  19  32  53  87 122 156 198 257 327 384
#     4  12  24  41  64  90 132 174 208 274 336 382
#     4  10  21  36  61  89 118 155 205 266 308 382
#     4   9  15  29  50  80 112 151 201 255 306 365
#     4  10  21  40  58  87 119 156 210 254 311 385
#     4  10  18  41  64  82 110 160 212 240 300 384
#
# _framework density 19.171021
#
# number of rings (size 3 to 8) (size 9 to 14) (size 15 to 20)
#    0.000    2.000    5.000    4.800    0.000    2.400 
#    3.600    0.000    0.000    0.000   41.600    0.000 
#    0.000    0.000    0.000    0.000    0.000    0.000 
#
# Total GULP energy -334189.446208 kJ/mol
# GULP energy per Si atom -5569.824103 kJ/mol
# Density = 1.912739 g / cm^3
# Si number density = 19.171021 Si / 1000 Ang^3
#
#
#
# Elastic Constant Matrix: (Units=GPa)
#
#
# Indices 1 2 3 4 5 6 
#
# 1 99.9335 94.7966 21.2792 0.0000 0.0000 0.0000
# 2 94.7966 99.9335 21.2792 0.0000 0.0000 0.0000
# 3 21.2792 21.2792 48.6118 0.0000 0.0000 0.0000
# 4 0.0000 0.0000 0.0000 5.7641 0.0000 0.0000
# 5 0.0000 0.0000 0.0000 0.0000 5.7641 0.0000
# 6 0.0000 0.0000 0.0000 0.0000 0.0000 2.5685
#
#
#
# Elastic Compliance Matrix: (Units=1/GPa)
#
#
# Indices 1 2 3 4 5 6 
#
# 1 0.100174 -0.094496 -0.002486 0.000000 0.000000 0.000000
# 2 -0.094496 0.100174 -0.002486 0.000000 0.000000 0.000000
# 3 -0.002486 -0.002486 0.022747 0.000000 0.000000 0.000000
# 4 0.000000 0.000000 0.000000 0.173489 0.000000 0.000000
# 5 0.000000 0.000000 0.000000 0.000000 0.173489 0.000000
# 6 0.000000 0.000000 0.000000 0.000000 0.000000 0.389340
#
#
# Mechanical properties :
#
#
# Convention : Reuss Voigt Hill
#
# Bulk Modulus (GPa) = 41.38804 58.13208 49.76006
# Shear Modulus (GPa) = 4.28669 10.22758 7.25714
#
# Velocity S-wave (km/s) = 1.49696 2.31225 1.94774
# Velocity P-wave (km/s) = 4.96221 6.12514 5.57409
#
# Compressibility (1/GPa) = 0.02416157
#
# Stress axis : x y z
#
# Youngs Moduli (GPa) = 9.98261 9.98261 43.96127
#
# Poissons Ratio (x) = 0.94331 0.10928
# Poissons Ratio (y) = 0.94331 0.10928
# Poissons Ratio (z) = 0.02481 0.02481
#
# Static dielectric constant tensor:
#      x y z
#    x 1.690310 0.000000 0.000000 
#    y 0.000000 1.690310 0.000000 
#    z 0.000000 0.000000 1.757360 
# 
# From -- ./inp_files/3161.got.cif
#   From: 2010.05.17/outbox.cif.g08.bks.cpg/sg178_2_cif.got.tgz:3161.got - 2010.05.20 11:30:59.
