data_PCOD9582789
_publ_section_title
;
Structure prediction by ZEFSAII (Michael W. Deem and Ramdas Pophale) SiO2 
 PCOD9582789
Probable space group: P 61 2 2
;
_chemical_formula_sum "Si O2"
_cell_formula_units_Z 72
_cell_length_a 24.049662
_cell_length_b 24.049662
_cell_length_c 8.693785
_cell_angle_alpha 90.000000
_cell_angle_beta 90.000000
_cell_angle_gamma 120.000000
_cell_volume 4354.692382
_symmetry_space_group_name_H-M "P 61 2 2"
_symmetry_group_IT_number 178
_symmetry_cell_setting 'hexagonal'
loop_
_space_group_symop_operation_xyz
x,y,z
x-y,x,1/6+z
-y,x-y,1/3+z
-x,-y,1/2+z
-x+y,-x,2/3+z
y,-x+y,5/6+z
x-y,-y,-z
-x,-x+y,2/3-z
y,x,1/3-z
-y,-x,5/6-z
-x+y,y,1/2-z
x,x-y,1/6-z
loop_
_atom_site_type_symbol
_atom_site_label
_atom_site_fract_x
_atom_site_fract_y
_atom_site_fract_z
Si Si1 0.604877 0.802438 0.083334
Si Si2 0.247473 0.771960 0.740640
Si Si3 0.511344 0.488657 0.916667
Si Si4 0.625572 0.931142 0.083003
Si Si5 0.629508 0.575143 0.548552
Si Si6 0.626641 0.135271 0.087351
Si Si7 0.555645 0.371116 0.261769
O O1 0.563329 0.786812 0.245696
O O2 0.646590 0.878581 0.056659
O O3 0.320322 0.830255 0.719276
O O4 0.241605 0.701950 0.733652
O O5 0.224426 0.775574 0.916667
O O6 0.539030 0.560228 0.864580
O O7 0.510497 0.439153 0.793539
O O8 0.621762 0.939877 0.262656
O O9 0.550251 0.890901 0.031910
O O10 0.662975 0.000000 0.000000
O O11 0.619738 0.619738 0.666667
O O12 0.639057 0.516070 0.596969
O O13 0.604488 0.184310 0.029647
O O14 0.588815 0.411186 0.416667
#
# Coordination Sequence:
#
# PCOD9582789 Si02
#       7
#     6  12   6  12  12  12  12
#     4  10  22  42  60  77 120 146 172 228 272 332
#     4  11  24  40  55  74 101 145 184 225 297 363
#     4  12  20  30  48  77 100 122 162 236 288 326
#     4  11  21  38  57  84 110 145 180 220 285 345
#     4  12  22  31  54  84 106 130 170 234 288 348
#     4  11  22  34  52  74 103 135 175 238 290 343
#     4  12  21  37  56  74 105 138 183 238 305 354
#
# _framework density 16.533888999999999
#
# number of rings (size 3 to 8) (size 9 to 14) (size 15 to 20)
#    0.000    0.667    7.500    2.000    0.000    0.000 
#    0.000    4.167    0.000    0.000    0.000    0.000 
#    0.000    0.000    0.000    0.000    0.000    1.667 
#
# Total GULP energy -400946.035435 kJ/mol
# GULP energy per Si atom -5568.694937 kJ/mol
# Density = 1.649626 g / cm^3
# Si number density = 16.533889 Si / 1000 Ang^3
#
#
#
# Elastic Constant Matrix: (Units=GPa)
#
#
# Indices 1 2 3 4 5 6 
#
# 1 54.8515 10.1859 11.2012 0.0000 0.0000 0.0000
# 2 10.1859 54.8515 11.2012 0.0000 0.0000 0.0000
# 3 11.2012 11.2012 79.5442 0.0000 0.0000 0.0000
# 4 0.0000 0.0000 0.0000 33.2258 0.0000 0.0000
# 5 0.0000 0.0000 0.0000 0.0000 33.2258 0.0000
# 6 0.0000 0.0000 0.0000 0.0000 0.0000 22.3328
#
#
#
# Elastic Compliance Matrix: (Units=1/GPa)
#
#
# Indices 1 2 3 4 5 6 
#
# 1 0.019274 -0.003114 -0.002276 0.000000 0.000000 0.000000
# 2 -0.003114 0.019274 -0.002276 0.000000 0.000000 0.000000
# 3 -0.002276 -0.002276 0.013212 0.000000 0.000000 0.000000
# 4 0.000000 0.000000 0.000000 0.030097 0.000000 0.000000
# 5 0.000000 0.000000 0.000000 0.000000 0.030097 0.000000
# 6 0.000000 0.000000 0.000000 0.000000 0.000000 0.044777
#
#
# Mechanical properties :
#
#
# Convention : Reuss Voigt Hill
#
# Bulk Modulus (GPa) = 27.45029 28.26931 27.85980
# Shear Modulus (GPa) = 27.14345 28.20079 27.67212
#
# Velocity S-wave (km/s) = 4.05617 4.13441 4.09548
# Velocity P-wave (km/s) = 6.21089 6.31871 6.26503
#
# Compressibility (1/GPa) = 0.03642949
#
# Stress axis : x y z
#
# Youngs Moduli (GPa) = 51.88308 51.88308 75.68591
#
# Poissons Ratio (x) = 0.16159 0.17223
# Poissons Ratio (y) = 0.16159 0.17223
# Poissons Ratio (z) = 0.11806 0.11806
#
# Static dielectric constant tensor:
#      x y z
#    x 1.594740 0.000000 0.000000 
#    y 0.000000 1.594740 0.000000 
#    z 0.000000 0.000000 1.693840 
# 
# From -- ./inp_files/3511.got.cif
#   From: 2010.05.17/outbox.cif.g08.bks.cpg/sg178_2_cif.got.tgz:3511.got - 2010.05.20 11:30:59.
