data_PCOD9582667
_publ_section_title
;
Structure prediction by ZEFSAII (Michael W. Deem and Ramdas Pophale) SiO2 
 PCOD9582667
Probable space group: P 61 2 2
;
_chemical_formula_sum "Si O2"
_cell_formula_units_Z 36
_cell_length_a 15.502588
_cell_length_b 15.502588
_cell_length_c 9.319773
_cell_angle_alpha 90.000000
_cell_angle_beta 90.000000
_cell_angle_gamma 120.000000
_cell_volume 1939.743819
_symmetry_space_group_name_H-M "P 61 2 2"
_symmetry_group_IT_number 178
_symmetry_cell_setting 'hexagonal'
loop_
_space_group_symop_operation_xyz
x,y,z
x-y,x,1/6+z
-y,x-y,1/3+z
-x,-y,1/2+z
-x+y,-x,2/3+z
y,-x+y,5/6+z
x-y,-y,-z
-x,-x+y,2/3-z
y,x,1/3-z
-y,-x,5/6-z
-x+y,y,1/2-z
x,x-y,1/6-z
loop_
_atom_site_type_symbol
_atom_site_label
_atom_site_fract_x
_atom_site_fract_y
_atom_site_fract_z
Si Si1 0.819734 0.292640 0.789562
Si Si2 0.654797 0.155568 0.573979
Si Si3 0.570436 0.627255 0.452512
O O1 0.733517 0.248899 0.666560
O O2 0.831933 0.392259 0.865372
O O3 0.915255 0.313249 0.695742
O O4 0.786472 0.213529 0.916667
O O5 0.683854 0.123841 0.423649
O O6 0.624206 0.057810 0.669796
O O7 0.458202 0.541799 0.416667
#
# Coordination Sequence:
#
# PCOD9582667 Si02
#       3
#    12  12  12
#     4  11  21  31  48  71  93 127 174 223 266 316
#     4  10  21  34  48  68  96 130 173 221 267 318
#     4   9  19  35  48  63  95 133 166 214 277 320
#
# _framework density 18.559151
#
# number of rings (size 3 to 8) (size 9 to 14) (size 15 to 20)
#    0.000    2.000    0.000    4.000    0.000   16.000 
#    0.000    0.000    0.000    0.000    0.000    0.000 
#    0.000    0.000    0.000    0.000    0.000  186.667 
#
# Total GULP energy -200561.518822 kJ/mol
# GULP energy per Si atom -5571.153301 kJ/mol
# Density = 1.851691 g / cm^3
# Si number density = 18.559151 Si / 1000 Ang^3
#
#
#
# Elastic Constant Matrix: (Units=GPa)
#
#
# Indices 1 2 3 4 5 6 
#
# 1 65.6799 27.2137 43.5547 0.0000 0.0000 0.0000
# 2 27.2137 65.6799 43.5547 0.0000 0.0000 0.0000
# 3 43.5547 43.5547 139.5789 0.0000 0.0000 0.0000
# 4 0.0000 0.0000 0.0000 44.9346 0.0000 0.0000
# 5 0.0000 0.0000 0.0000 0.0000 44.9346 0.0000
# 6 0.0000 0.0000 0.0000 0.0000 0.0000 19.2331
#
#
#
# Elastic Compliance Matrix: (Units=1/GPa)
#
#
# Indices 1 2 3 4 5 6 
#
# 1 0.020607 -0.005389 -0.004749 0.000000 0.000000 0.000000
# 2 -0.005389 0.020607 -0.004749 0.000000 0.000000 0.000000
# 3 -0.004749 -0.004749 0.010128 0.000000 0.000000 0.000000
# 4 0.000000 0.000000 0.000000 0.022255 0.000000 0.000000
# 5 0.000000 0.000000 0.000000 0.000000 0.022255 0.000000
# 6 0.000000 0.000000 0.000000 0.000000 0.000000 0.051994
#
#
# Mechanical properties :
#
#
# Convention : Reuss Voigt Hill
#
# Bulk Modulus (GPa) = 46.36227 55.50946 50.93586
# Shear Modulus (GPa) = 27.05495 32.26150 29.65822
#
# Velocity S-wave (km/s) = 3.82222 4.17382 4.00188
# Velocity P-wave (km/s) = 6.67189 7.29398 6.98986
#
# Compressibility (1/GPa) = 0.02156926
#
# Stress axis : x y z
#
# Youngs Moduli (GPa) = 48.52619 48.52619 98.73615
#
# Poissons Ratio (x) = 0.26153 0.46887
# Poissons Ratio (y) = 0.26153 0.46887
# Poissons Ratio (z) = 0.23044 0.23044
#
# Static dielectric constant tensor:
#      x y z
#    x 1.691900 0.000000 0.000000 
#    y 0.000000 1.691900 0.000000 
#    z 0.000000 0.000000 1.775340 
# 
# From -- ./inp_files/2228.got.cif
#   From: 2010.05.17/outbox.cif.g08.bks.cpg/sg178_2_cif.got.tgz:2228.got - 2010.05.20 11:30:59.
