data_PCOD9582175
_publ_section_title
;
Structure prediction by ZEFSAII (Michael W. Deem and Ramdas Pophale) SiO2 
 PCOD9582175
Probable space group: P 6 2 2
;
_chemical_formula_sum "Si O2"
_cell_formula_units_Z 66
_cell_length_a 13.834385
_cell_length_b 13.834385
_cell_length_c 20.191622
_cell_angle_alpha 90.000000
_cell_angle_beta 90.000000
_cell_angle_gamma 120.000000
_cell_volume 3346.736762
_symmetry_space_group_name_H-M "P 6 2 2"
_symmetry_group_IT_number 177
_symmetry_cell_setting 'hexagonal'
loop_
_space_group_symop_operation_xyz
x,y,z
x-y,x,z
-y,x-y,z
-x,-y,z
-x+y,-x,z
y,-x+y,z
x-y,-y,-z
-x,-x+y,-z
y,x,-z
-y,-x,-z
-x+y,y,-z
x,x-y,-z
loop_
_atom_site_type_symbol
_atom_site_label
_atom_site_fract_x
_atom_site_fract_y
_atom_site_fract_z
Si Si1 0.765959 0.235505 0.162959
Si Si2 0.740833 0.259167 0.500000
Si Si3 0.088037 0.828421 0.751433
Si Si4 0.873545 0.410263 0.282709
Si Si5 0.571077 0.769715 0.356418
Si Si6 0.546192 0.130253 0.074484
O O1 0.769947 0.133132 0.197250
O O2 0.803937 0.328420 0.221887
O O3 0.650313 0.192827 0.124368
O O4 0.851496 0.300082 0.103692
O O5 0.786101 0.393050 0.500000
O O6 0.761354 0.207273 0.434493
O O7 0.109929 0.794985 0.678405
O O8 0.960176 0.791129 0.760662
O O9 0.820251 0.475382 0.320779
O O10 0.869013 0.320319 0.334308
O O11 0.000000 0.500000 0.262758
O O12 0.500000 0.000000 0.075993
O O13 0.585319 0.170638 0.000000
#
# Coordination Sequence:
#
# PCOD9582175 Si02
#       6
#    12   6  12  12  12  12
#     4  11  21  38  60  87 119 156 195 240 283 354
#     4  10  18  36  58  88 128 164 190 224 278 358
#     4  11  24  42  63  85 113 152 208 266 310 339
#     4  11  21  35  58  87 118 153 194 238 295 352
#     4  11  20  37  57  88 123 159 187 236 293 362
#     4  11  23  38  58  89 127 161 192 227 283 360
#
# _framework density 19.720701999999999
#
# number of rings (size 3 to 8) (size 9 to 14) (size 15 to 20)
#    0.182    0.909    1.818    7.455    0.000    1.455 
#    0.000    4.545    0.000    0.000    0.000    1.273 
#    0.000    8.727    0.000    0.000    0.000    0.000 
#
# Total GULP energy -368049.018798 kJ/mol
# GULP energy per Si atom -5576.500285 kJ/mol
# Density = 1.967582 g / cm^3
# Si number density = 19.720702 Si / 1000 Ang^3
#
#
#
# Elastic Constant Matrix: (Units=GPa)
#
#
# Indices 1 2 3 4 5 6 
#
# 1 72.7121 20.3835 43.1877 0.0000 0.0000 0.0000
# 2 20.3835 72.7121 43.1877 0.0000 0.0000 0.0000
# 3 43.1877 43.1877 157.0669 0.0000 0.0000 0.0000
# 4 0.0000 0.0000 0.0000 11.0304 0.0000 0.0000
# 5 0.0000 0.0000 0.0000 0.0000 11.0304 0.0000
# 6 0.0000 0.0000 0.0000 0.0000 0.0000 26.1643
#
#
#
# Elastic Compliance Matrix: (Units=1/GPa)
#
#
# Indices 1 2 3 4 5 6 
#
# 1 0.016765 -0.002345 -0.003965 0.000000 0.000000 0.000000
# 2 -0.002345 0.016765 -0.003965 0.000000 0.000000 0.000000
# 3 -0.003965 -0.003965 0.008547 0.000000 0.000000 0.000000
# 4 0.000000 0.000000 0.000000 0.090658 0.000000 0.000000
# 5 0.000000 0.000000 0.000000 0.000000 0.090658 0.000000
# 6 0.000000 0.000000 0.000000 0.000000 0.000000 0.038220
#
#
# Mechanical properties :
#
#
# Convention : Reuss Voigt Hill
#
# Bulk Modulus (GPa) = 46.45148 57.33429 51.89288
# Shear Modulus (GPa) = 17.28068 22.69384 19.98726
#
# Velocity S-wave (km/s) = 2.96340 3.39597 3.18703
# Velocity P-wave (km/s) = 5.94262 6.67181 6.31775
#
# Compressibility (1/GPa) = 0.02152784
#
# Stress axis : x y z
#
# Youngs Moduli (GPa) = 59.64707 59.64707 116.99678
#
# Poissons Ratio (x) = 0.13986 0.46391
# Poissons Ratio (y) = 0.13986 0.46391
# Poissons Ratio (z) = 0.23651 0.23651
#
# Static dielectric constant tensor:
#      x y z
#    x 1.804530 0.000000 0.000000 
#    y 0.000000 1.804530 0.000000 
#    z 0.000000 0.000000 1.726670 
# 
# From -- ./inp_files/3068.got.cif
#   From: 2010.05.17/outbox.cif.g08.bks.cpg/sg177_2_cif.got.tgz:3068.got - 2010.05.20 11:28:44.
