data_PCOD9582102
_publ_section_title
;
Structure prediction by ZEFSAII (Michael W. Deem and Ramdas Pophale) SiO2 
 PCOD9582102
Probable space group: P 63/M
;
_chemical_formula_sum "Si O2"
_cell_formula_units_Z 44
_cell_length_a 12.425680
_cell_length_b 12.425680
_cell_length_c 18.306469
_cell_angle_alpha 90.000000
_cell_angle_beta 90.000000
_cell_angle_gamma 120.000000
_cell_volume 2447.797834
_symmetry_space_group_name_H-M "P 63/M"
_symmetry_group_IT_number 176
_symmetry_cell_setting 'hexagonal'
loop_
_space_group_symop_operation_xyz
x,y,z
x-y,x,1/2+z
-y,x-y,z
-x,-y,1/2+z
-x+y,-x,z
y,-x+y,1/2+z
-x,-y,-z
-x+y,-x,1/2-z
y,-x+y,-z
x,y,1/2-z
x-y,x,-z
-y,x-y,1/2-z
loop_
_atom_site_type_symbol
_atom_site_label
_atom_site_fract_x
_atom_site_fract_y
_atom_site_fract_z
Si Si1 0.581901 0.173782 0.424577
Si Si2 0.815280 0.785654 0.552574
Si Si3 0.333335 0.666668 0.165683
Si Si4 0.402722 0.488423 0.413154
Si Si5 0.000000 0.000000 0.839794
O O1 0.729688 0.262517 0.410149
O O2 0.560860 0.135930 0.509793
O O3 0.516176 0.040485 0.386856
O O4 0.769543 0.857690 0.498873
O O5 0.703238 0.653452 0.575082
O O6 0.889922 0.874059 0.621585
O O7 0.333334 0.666668 0.250000
O O8 0.201516 0.643028 0.138516
O O9 0.000000 0.000000 0.750000
#
# Coordination Sequence:
#
# PCOD9582102 Si02
#       5
#    12  12   4  12   4
#     4   9  18  33  57  93 114 138 189 256 305 336
#     4   9  19  32  55  87 113 150 202 262 304 346
#     4  12  27  42  54  87 129 165 196 224 298 387
#     4  11  19  35  58  83 122 152 190 241 303 354
#     4   9  19  38  52  75 121 161 208 243 298 371
#
# _framework density 17.975341
#
# number of rings (size 3 to 8) (size 9 to 14) (size 15 to 20)
#    0.545    1.636    2.727    2.727    3.818    1.091 
#    0.000    0.000    0.000    1.636    0.000    0.000 
#    0.000    0.000    0.000    0.000    0.000    0.000 
#
# Total GULP energy -244996.252110 kJ/mol
# GULP energy per Si atom -5568.096639 kJ/mol
# Density = 1.793443 g / cm^3
# Si number density = 17.975341 Si / 1000 Ang^3
#
#
#
# Elastic Constant Matrix: (Units=GPa)
#
#
# Indices 1 2 3 4 5 6 
#
# 1 82.4075 27.1665 10.0574 0.0000 0.0000 0.0004
# 2 27.1665 82.4047 10.0579 0.0000 0.0000 0.0002
# 3 10.0574 10.0579 69.2344 0.0000 0.0000 -0.0002
# 4 0.0000 0.0000 0.0000 -10.4372 -0.0005 0.0000
# 5 0.0000 0.0000 0.0000 -0.0005 -10.4357 0.0000
# 6 0.0004 0.0002 -0.0002 0.0000 0.0000 27.6225
#
#
#
# Elastic Compliance Matrix: (Units=1/GPa)
#
#
# Indices 1 2 3 4 5 6 
#
# 1 0.013739 -0.004363 -0.001362 0.000000 0.000000 0.000000
# 2 -0.004363 0.013740 -0.001362 0.000000 0.000000 0.000000
# 3 -0.001362 -0.001362 0.014839 0.000000 0.000000 0.000000
# 4 0.000000 0.000000 0.000000 -0.095811 0.000005 0.000000
# 5 0.000000 0.000000 0.000000 0.000005 -0.095825 0.000000
# 6 0.000000 0.000000 0.000000 0.000000 0.000000 0.036202
#
#
# Mechanical properties :
#
#
# Convention : Reuss Voigt Hill
#
# Bulk Modulus (GPa) = 35.53174 36.51224 36.02199
# Shear Modulus (GPa) = -55.82942 13.80090 -21.01426
#
# Velocity S-wave (km/s) = -5.57910 2.77387 -3.42286
# Velocity P-wave (km/s) = 4.65746 5.53314 2.11231
#
# Compressibility (1/GPa) = 0.02814385
#
# Stress axis : x y z
#
# Youngs Moduli (GPa) = 72.78319 72.78052 67.38802
#
# Poissons Ratio (x) = 0.31756 0.09178
# Poissons Ratio (y) = 0.31757 0.09180
# Poissons Ratio (z) = 0.09913 0.09914
#
# Static dielectric constant tensor:
#      x y z
#    x 1.614260 0.000000 0.000000 
#    y 0.000000 1.614260 0.000000 
#    z 0.000000 0.000000 1.586270 
# 
# From -- ./inp_files/3187.got.cif
#   From: 2010.05.17/outbox.cif.g08.bks.cpg/sg176_2_cif.got.tgz:3187.got - 2010.06.03 11:36:45.
