data_PCOD9582891
_publ_section_title
;
Structure prediction by ZEFSAII (Michael W. Deem and Ramdas Pophale) SiO2 
 PCOD9582891
Probable space group: P 61 2 2
;
_chemical_formula_sum "Si O2"
_cell_formula_units_Z 30
_cell_length_a 12.672735
_cell_length_b 12.672735
_cell_length_c 9.243264
_cell_angle_alpha 90.000000
_cell_angle_beta 90.000000
_cell_angle_gamma 120.000000
_cell_volume 1285.572861
_symmetry_space_group_name_H-M "P 61 2 2"
_symmetry_group_IT_number 178
_symmetry_cell_setting 'hexagonal'
loop_
_space_group_symop_operation_xyz
x,y,z
x-y,x,1/6+z
-y,x-y,1/3+z
-x,-y,1/2+z
-x+y,-x,2/3+z
y,-x+y,5/6+z
x-y,-y,-z
-x,-x+y,2/3-z
y,x,1/3-z
-y,-x,5/6-z
-x+y,y,1/2-z
x,x-y,1/6-z
loop_
_atom_site_type_symbol
_atom_site_label
_atom_site_fract_x
_atom_site_fract_y
_atom_site_fract_z
Si Si1 0.358553 0.358553 0.166667
Si Si2 0.934484 0.467242 0.083334
Si Si3 0.784027 0.215974 0.916667
Si Si4 0.876694 0.746936 0.498537
O O1 0.423048 0.438829 0.307605
O O2 0.332268 0.226910 0.218319
O O3 0.846197 0.496828 0.179975
O O4 0.871032 0.217835 0.787762
O O5 0.829735 0.826560 0.411671
#
# Coordination Sequence:
#
# PCOD9582891 Si02
#       4
#     6   6   6  12
#     4  10  24  44  74  98 144 192 248 298 370 434
#     4  10  24  48  71 104 137 194 248 314 366 442
#     4  10  24  46  71 104 141 198 248 312 376 432
#     4  11  24  47  71 112 153 198 243 303 376 462
#
# _framework density 23.335902000000001
#
# number of rings (size 3 to 8) (size 9 to 14) (size 15 to 20)
#    0.000    1.600    0.000    2.400   11.200    0.000 
#   43.200    0.000    0.000    0.000    0.000    0.000 
#    0.000    0.000    0.000    0.000    0.000    0.000 
#
# Total GULP energy -167832.135301 kJ/mol
# GULP energy per Si atom -5594.404510 kJ/mol
# Density = 2.328279 g / cm^3
# Si number density = 23.335902 Si / 1000 Ang^3
#
#
#
# Elastic Constant Matrix: (Units=GPa)
#
#
# Indices 1 2 3 4 5 6 
#
# 1 104.6638 80.1496 89.4839 0.0000 0.0000 0.0000
# 2 80.1496 104.6638 89.4839 0.0000 0.0000 0.0000
# 3 89.4839 89.4839 202.5086 0.0000 0.0000 0.0000
# 4 0.0000 0.0000 0.0000 65.1820 0.0000 0.0000
# 5 0.0000 0.0000 0.0000 0.0000 65.1820 0.0000
# 6 0.0000 0.0000 0.0000 0.0000 0.0000 12.2571
#
#
#
# Elastic Compliance Matrix: (Units=1/GPa)
#
#
# Indices 1 2 3 4 5 6 
#
# 1 0.025125 -0.015667 -0.004179 0.000000 0.000000 0.000000
# 2 -0.015667 0.025125 -0.004179 0.000000 0.000000 0.000000
# 3 -0.004179 -0.004179 0.008631 0.000000 0.000000 0.000000
# 4 0.000000 0.000000 0.000000 0.015342 0.000000 0.000000
# 5 0.000000 0.000000 0.000000 0.000000 0.015342 0.000000
# 6 0.000000 0.000000 0.000000 0.000000 0.000000 0.081585
#
#
# Mechanical properties :
#
#
# Convention : Reuss Voigt Hill
#
# Bulk Modulus (GPa) = 92.33302 103.34124 97.83713
# Shear Modulus (GPa) = 22.44044 38.70547 30.57295
#
# Velocity S-wave (km/s) = 3.10438 4.07704 3.62349
# Velocity P-wave (km/s) = 7.24585 8.15741 7.71511
#
# Compressibility (1/GPa) = 0.01083036
#
# Stress axis : x y z
#
# Youngs Moduli (GPa) = 39.80063 39.80063 115.85499
#
# Poissons Ratio (x) = 0.62357 0.48419
# Poissons Ratio (y) = 0.62357 0.48419
# Poissons Ratio (z) = 0.16634 0.16634
#
# Static dielectric constant tensor:
#      x y z
#    x 1.893730 0.000000 0.000000 
#    y 0.000000 1.893730 0.000000 
#    z 0.000000 0.000000 1.938090 
# 
# From -- ./inp_files/2087.got.cif
#   From: 2010.05.17/outbox.cif.g08.bks.cpg/sg178_2_cif.got.tgz:2087.got - 2010.05.20 11:30:59.
