data_PCOD9582562
_publ_section_title
;
Structure prediction by ZEFSAII (Michael W. Deem and Ramdas Pophale) SiO2 
 PCOD9582562
Probable space group: P 61 2 2
;
_chemical_formula_sum "Si O2"
_cell_formula_units_Z 66
_cell_length_a 19.870897
_cell_length_b 19.870897
_cell_length_c 12.005756
_cell_angle_alpha 90.000000
_cell_angle_beta 90.000000
_cell_angle_gamma 120.000000
_cell_volume 4105.396321
_symmetry_space_group_name_H-M "P 61 2 2"
_symmetry_group_IT_number 178
_symmetry_cell_setting 'hexagonal'
loop_
_space_group_symop_operation_xyz
x,y,z
x-y,x,1/6+z
-y,x-y,1/3+z
-x,-y,1/2+z
-x+y,-x,2/3+z
y,-x+y,5/6+z
x-y,-y,-z
-x,-x+y,2/3-z
y,x,1/3-z
-y,-x,5/6-z
-x+y,y,1/2-z
x,x-y,1/6-z
loop_
_atom_site_type_symbol
_atom_site_label
_atom_site_fract_x
_atom_site_fract_y
_atom_site_fract_z
Si Si1 0.712274 0.000000 0.500000
Si Si2 0.332931 0.166466 0.083334
Si Si3 0.603184 0.301592 0.083334
Si Si4 0.531824 0.767858 0.759373
Si Si5 0.522868 0.577682 0.071681
Si Si6 0.689255 0.211350 0.014557
Si Si7 0.567184 0.633282 0.827337
O O1 0.790913 0.076985 0.458898
O O2 0.673113 0.022897 0.600830
O O3 0.392731 0.178911 0.184310
O O4 0.544502 0.255877 0.185032
O O5 0.659166 0.269081 0.050821
O O6 0.528602 0.806607 0.874408
O O7 0.532688 0.688949 0.792162
O O8 0.578892 0.578892 0.166667
O O9 0.478689 0.617187 0.127068
O O10 0.565452 0.623419 0.960220
O O11 0.455422 0.489819 0.044941
O O12 0.751800 0.248201 0.916667
#
# Coordination Sequence:
#
# PCOD9582562 Si02
#       7
#     6   6   6  12  12  12  12
#     4  10  20  40  58  84 106 142 168 220 264 330
#     4   9  22  36  62  78 110 136 174 212 268 318
#     4  11  22  32  48  70 100 138 186 240 284 318
#     4  10  20  36  49  73 100 140 179 227 275 319
#     4  11  23  35  51  71  99 143 183 233 280 320
#     4  12  22  34  52  73 101 136 185 237 282 319
#     4  10  20  38  51  70 107 135 182 227 273 321
#
# _framework density 16.076401000000001
#
# number of rings (size 3 to 8) (size 9 to 14) (size 15 to 20)
#    0.000    1.455    4.545    1.636    2.545    0.000 
#    3.273    0.000    0.000    0.000    0.000    0.000 
#    0.000    5.818    0.000    0.000    0.000    0.000 
#
# Total GULP energy -368089.414660 kJ/mol
# GULP energy per Si atom -5577.112343 kJ/mol
# Density = 1.603981 g / cm^3
# Si number density = 16.076401 Si / 1000 Ang^3
#
#
#
# Elastic Constant Matrix: (Units=GPa)
#
#
# Indices 1 2 3 4 5 6 
#
# 1 59.9598 7.0494 29.1168 0.0000 0.0000 0.0000
# 2 7.0494 59.9598 29.1168 0.0000 0.0000 0.0000
# 3 29.1168 29.1168 130.8139 0.0000 0.0000 0.0000
# 4 0.0000 0.0000 0.0000 26.0161 0.0000 0.0000
# 5 0.0000 0.0000 0.0000 0.0000 26.0161 0.0000
# 6 0.0000 0.0000 0.0000 0.0000 0.0000 26.4552
#
#
#
# Elastic Compliance Matrix: (Units=1/GPa)
#
#
# Indices 1 2 3 4 5 6 
#
# 1 0.018701 -0.000199 -0.004118 0.000000 0.000000 0.000000
# 2 -0.000199 0.018701 -0.004118 0.000000 0.000000 0.000000
# 3 -0.004118 -0.004118 0.009478 0.000000 0.000000 0.000000
# 4 0.000000 0.000000 0.000000 0.038438 0.000000 0.000000
# 5 0.000000 0.000000 0.000000 0.000000 0.038438 0.000000
# 6 0.000000 0.000000 0.000000 0.000000 0.000000 0.037800
#
#
# Mechanical properties :
#
#
# Convention : Reuss Voigt Hill
#
# Bulk Modulus (GPa) = 33.32314 42.36662 37.84488
# Shear Modulus (GPa) = 26.53521 28.06084 27.29803
#
# Velocity S-wave (km/s) = 4.06713 4.18241 4.12517
# Velocity P-wave (km/s) = 6.54434 7.05223 6.80302
#
# Compressibility (1/GPa) = 0.03000918
#
# Stress axis : x y z
#
# Youngs Moduli (GPa) = 53.47290 53.47290 105.51025
#
# Poissons Ratio (x) = 0.01063 0.43452
# Poissons Ratio (y) = 0.01063 0.43452
# Poissons Ratio (z) = 0.22022 0.22022
#
# Static dielectric constant tensor:
#      x y z
#    x 1.515590 0.000000 0.000000 
#    y 0.000000 1.515590 0.000000 
#    z 0.000000 0.000000 1.564210 
# 
# From -- ./inp_files/4706.got.cif
#   From: 2010.05.17/outbox.cif.g08.bks.cpg/sg178_3_cif.got.tgz:4706.got - 2010.05.20 11:30:59.
