data_PCOD9582617
_publ_section_title
;
Structure prediction by ZEFSAII (Michael W. Deem and Ramdas Pophale) SiO2 
 PCOD9582617
Probable space group: P 61 2 2
;
_chemical_formula_sum "Si O2"
_cell_formula_units_Z 42
_cell_length_a 11.430377
_cell_length_b 11.430377
_cell_length_c 13.953841
_cell_angle_alpha 90.000000
_cell_angle_beta 90.000000
_cell_angle_gamma 120.000000
_cell_volume 1578.866867
_symmetry_space_group_name_H-M "P 61 2 2"
_symmetry_group_IT_number 178
_symmetry_cell_setting 'hexagonal'
loop_
_space_group_symop_operation_xyz
x,y,z
x-y,x,1/6+z
-y,x-y,1/3+z
-x,-y,1/2+z
-x+y,-x,2/3+z
y,-x+y,5/6+z
x-y,-y,-z
-x,-x+y,2/3-z
y,x,1/3-z
-y,-x,5/6-z
-x+y,y,1/2-z
x,x-y,1/6-z
loop_
_atom_site_type_symbol
_atom_site_label
_atom_site_fract_x
_atom_site_fract_y
_atom_site_fract_z
Si Si1 0.726304 0.676981 0.937567
Si Si2 0.841701 0.158300 0.416667
Si Si3 0.091483 0.908518 0.416667
Si Si4 0.471366 0.813378 0.335304
Si Si5 0.548779 0.548779 0.666667
O O1 0.839297 0.749535 0.852461
O O2 0.590018 0.656772 0.892854
O O3 0.746044 0.760732 0.034678
O O4 0.730759 0.540955 0.958329
O O5 0.683702 0.092099 0.438913
O O6 0.000000 0.905297 0.333334
O O7 0.366955 0.733910 0.250000
O O8 0.443034 0.890464 0.423247
#
# Coordination Sequence:
#
# PCOD9582617 Si02
#       5
#    12   6   6  12   6
#     4  10  20  39  64  95 132 166 225 264 336 399
#     4   8  16  31  60  82 120 154 210 269 296 388
#     4  12  24  39  56  96 136 176 206 267 342 410
#     4  10  20  39  66  89 125 171 214 275 320 389
#     4   8  16  32  56  86 106 156 208 258 318 354
#
# _framework density 26.601355999999999
#
# number of rings (size 3 to 8) (size 9 to 14) (size 15 to 20)
#    0.000    2.286    2.857    0.000    0.000    1.143 
#    5.143    0.000   22.000    0.000    0.000    0.000 
#    0.000    0.000    0.000    0.000    0.000    0.000 
#
# Total GULP energy -234209.348427 kJ/mol
# GULP energy per Si atom -5576.413058 kJ/mol
# Density = 2.654081 g / cm^3
# Si number density = 26.601356 Si / 1000 Ang^3
#
#
#
# Elastic Constant Matrix: (Units=GPa)
#
#
# Indices 1 2 3 4 5 6 
#
# 1 46.1532 36.7673 27.7155 0.0000 0.0000 0.0000
# 2 36.7673 46.1532 27.7155 0.0000 0.0000 0.0000
# 3 27.7155 27.7155 179.1875 0.0000 0.0000 0.0000
# 4 0.0000 0.0000 0.0000 39.4466 0.0000 0.0000
# 5 0.0000 0.0000 0.0000 0.0000 39.4466 0.0000
# 6 0.0000 0.0000 0.0000 0.0000 0.0000 4.6930
#
#
#
# Elastic Compliance Matrix: (Units=1/GPa)
#
#
# Indices 1 2 3 4 5 6 
#
# 1 0.059997 -0.046546 -0.002080 0.000000 0.000000 0.000000
# 2 -0.046546 0.059997 -0.002080 0.000000 0.000000 0.000000
# 3 -0.002080 -0.002080 0.006224 0.000000 0.000000 0.000000
# 4 0.000000 0.000000 0.000000 0.025351 0.000000 0.000000
# 5 0.000000 0.000000 0.000000 0.000000 0.025351 0.000000
# 6 0.000000 0.000000 0.000000 0.000000 0.000000 0.213085
#
#
# Mechanical properties :
#
#
# Convention : Reuss Voigt Hill
#
# Bulk Modulus (GPa) = 40.31677 50.65450 45.48564
# Shear Modulus (GPa) = 10.00628 28.67025 19.33827
#
# Velocity S-wave (km/s) = 1.94158 3.28651 2.69915
# Velocity P-wave (km/s) = 4.49612 5.78662 5.18170
#
# Compressibility (1/GPa) = 0.02480357
#
# Stress axis : x y z
#
# Youngs Moduli (GPa) = 16.66762 16.66762 160.66008
#
# Poissons Ratio (x) = 0.77581 0.33424
# Poissons Ratio (y) = 0.77581 0.33424
# Poissons Ratio (z) = 0.03468 0.03468
#
# Static dielectric constant tensor:
#      x y z
#    x 2.186950 0.000000 0.000000 
#    y 0.000000 2.186950 0.000000 
#    z 0.000000 0.000000 1.939850 
# 
# From -- ./inp_files/4043.got.cif
#   From: 2010.05.17/outbox.cif.g08.bks.cpg/sg178_3_cif.got.tgz:4043.got - 2010.05.20 11:30:59.
