data_PCOD9582111
_publ_section_title
;
Structure prediction by ZEFSAII (Michael W. Deem and Ramdas Pophale) SiO2 
 PCOD9582111
Probable space group: P 63/M
;
_chemical_formula_sum "Si O2"
_cell_formula_units_Z 72
_cell_length_a 23.619510
_cell_length_b 23.619510
_cell_length_c 8.603018
_cell_angle_alpha 90.000000
_cell_angle_beta 90.000000
_cell_angle_gamma 120.000000
_cell_volume 4156.456413
_symmetry_space_group_name_H-M "P 63/M"
_symmetry_group_IT_number 176
_symmetry_cell_setting 'hexagonal'
loop_
_space_group_symop_operation_xyz
x,y,z
x-y,x,1/2+z
-y,x-y,z
-x,-y,1/2+z
-x+y,-x,z
y,-x+y,1/2+z
-x,-y,-z
-x+y,-x,1/2-z
y,-x+y,-z
x,y,1/2-z
x-y,x,-z
-y,x-y,1/2-z
loop_
_atom_site_type_symbol
_atom_site_label
_atom_site_fract_x
_atom_site_fract_y
_atom_site_fract_z
Si Si1 0.377745 0.103355 0.063370
Si Si2 0.067648 0.463396 0.934426
Si Si3 0.857094 0.139274 0.565221
Si Si4 0.337310 0.287873 0.935967
Si Si5 0.143320 0.049650 0.066620
Si Si6 0.408965 0.487544 0.937944
O O1 0.373814 0.110338 0.250000
O O2 0.451078 0.118996 0.024602
O O3 0.330381 0.026772 0.021979
O O4 0.347424 0.140879 0.975024
O O5 0.072053 0.460256 0.750000
O O6 0.102561 0.540016 0.980841
O O7 0.085676 0.412162 0.006854
O O8 0.992179 0.435759 0.983969
O O9 0.863051 0.133254 0.750000
O O10 0.786446 0.081811 0.509453
O O11 0.915008 0.134219 0.482047
O O12 0.338924 0.286421 0.750000
O O13 0.136782 0.036579 0.250000
O O14 0.118049 0.099529 0.021453
O O15 0.413112 0.481846 0.750000
#
# Coordination Sequence:
#
# PCOD9582111 Si02
#       6
#    12  12  12  12  12  12
#     4   9  17  31  48  65  92 129 161 193 241 292
#     4   9  15  24  43  68  90 116 152 185 215 263
#     4  11  22  35  51  73 100 131 167 205 250 305
#     4   9  19  33  46  63  94 129 156 192 242 289
#     4  12  25  42  61  79  98 124 164 215 270 323
#     4   8  15  27  42  63  93 123 147 178 222 267
#
# _framework density 17.322448000000001
#
# number of rings (size 3 to 8) (size 9 to 14) (size 15 to 20)
#    0.000    2.333    0.000    4.667    0.000    6.000 
#    0.000    0.000    0.000    0.000    0.000    0.000 
#    1.667    0.000    1.000    0.000    1.333    0.000 
#
# Total GULP energy -401205.980768 kJ/mol
# GULP energy per Si atom -5572.305288 kJ/mol
# Density = 1.728302 g / cm^3
# Si number density = 17.322448 Si / 1000 Ang^3
#
#
#
# Elastic Constant Matrix: (Units=GPa)
#
#
# Indices 1 2 3 4 5 6 
#
# 1 32.8944 -7.8414 -1.5664 0.0000 0.0000 0.0000
# 2 -7.8414 32.8944 -1.5664 0.0000 0.0000 0.0000
# 3 -1.5664 -1.5664 12.5879 0.0000 0.0000 0.0000
# 4 0.0000 0.0000 0.0000 22.5295 0.0000 0.0000
# 5 0.0000 0.0000 0.0000 0.0000 22.5295 0.0000
# 6 0.0000 0.0000 0.0000 0.0000 0.0000 20.3679
#
#
#
# Elastic Compliance Matrix: (Units=1/GPa)
#
#
# Indices 1 2 3 4 5 6 
#
# 1 0.032547 0.007999 0.005045 0.000000 0.000000 0.000000
# 2 0.007999 0.032547 0.005045 0.000000 0.000000 0.000000
# 3 0.005045 0.005045 0.080697 0.000000 0.000000 0.000000
# 4 0.000000 0.000000 0.000000 0.044386 0.000000 0.000000
# 5 0.000000 0.000000 0.000000 0.000000 0.044386 0.000000
# 6 0.000000 0.000000 0.000000 0.000000 0.000000 0.049097
#
#
# Mechanical properties :
#
#
# Convention : Reuss Voigt Hill
#
# Bulk Modulus (GPa) = 5.49537 6.26980 5.88258
# Shear Modulus (GPa) = 16.22648 19.04211 17.63430
#
# Velocity S-wave (km/s) = 3.06393 3.31913 3.19408
# Velocity P-wave (km/s) = 3.96184 4.27973 4.12385
#
# Compressibility (1/GPa) = 0.18197146
#
# Stress axis : x y z
#
# Youngs Moduli (GPa) = 30.72440 30.72440 12.39206
#
# Poissons Ratio (x) = -0.24576 -0.06252
# Poissons Ratio (y) = -0.24576 -0.06252
# Poissons Ratio (z) = -0.15502 -0.15502
#
# Static dielectric constant tensor:
#      x y z
#    x 1.617400 0.000000 0.000000 
#    y 0.000000 1.617400 0.000000 
#    z 0.000000 0.000000 1.586870 
# 
# From -- ./inp_files/1225.got.cif
#   From: 2010.05.17/outbox.cif.g08.bks.cpg/sg176_1_cif.got.tgz:1225.got - 2010.06.03 11:36:45.
