data_PCOD9582074
_publ_section_title
;
Structure prediction by ZEFSAII (Michael W. Deem and Ramdas Pophale) SiO2 
 PCOD9582074
Probable space group: P 63/M
;
_chemical_formula_sum "Si O2"
_cell_formula_units_Z 42
_cell_length_a 8.624166
_cell_length_b 8.624166
_cell_length_c 34.102319
_cell_angle_alpha 90.000000
_cell_angle_beta 90.000000
_cell_angle_gamma 120.000000
_cell_volume 2196.588770
_symmetry_space_group_name_H-M "P 63/M"
_symmetry_group_IT_number 176
_symmetry_cell_setting 'hexagonal'
loop_
_space_group_symop_operation_xyz
x,y,z
x-y,x,1/2+z
-y,x-y,z
-x,-y,1/2+z
-x+y,-x,z
y,-x+y,1/2+z
-x,-y,-z
-x+y,-x,1/2-z
y,-x+y,-z
x,y,1/2-z
x-y,x,-z
-y,x-y,1/2-z
loop_
_atom_site_type_symbol
_atom_site_label
_atom_site_fract_x
_atom_site_fract_y
_atom_site_fract_z
Si Si1 0.136014 0.678659 0.605331
Si Si2 0.685178 0.137752 0.673023
Si Si3 0.218326 0.188941 0.750000
Si Si4 0.019017 0.679488 0.516810
O O1 0.162540 0.504672 0.609805
O O2 0.988440 0.656816 0.636703
O O3 0.078766 0.696462 0.561688
O O4 0.839357 0.347941 0.672409
O O5 0.715974 0.053361 0.712015
O O6 0.024839 0.177853 0.750000
O O7 0.835023 0.674758 0.510775
O O8 0.000000 0.500000 0.500000
#
# Coordination Sequence:
#
# PCOD9582074 Si02
#       4
#    12  12   6  12
#     4  10  23  42  64  98 133 175 229 273 342 402
#     4  10  24  41  69  97 134 169 218 273 335 401
#     4  10  24  42  70  92 132 168 214 266 324 398
#     4  12  24  44  67  96 136 187 236 292 348 418
#
# _framework density 19.120559
#
# number of rings (size 3 to 8) (size 9 to 14) (size 15 to 20)
#    1.429    0.000    2.857    1.714    8.000    0.000 
#    0.000    0.000    0.000    0.000    0.000    0.000 
#    0.000    0.000    0.000    0.000    0.000    0.000 
#
# Total GULP energy -233881.337479 kJ/mol
# GULP energy per Si atom -5568.603273 kJ/mol
# Density = 1.907704 g / cm^3
# Si number density = 19.120559 Si / 1000 Ang^3
#
#
#
# Elastic Constant Matrix: (Units=GPa)
#
#
# Indices 1 2 3 4 5 6 
#
# 1 83.7209 23.8646 33.0520 0.0000 0.0000 0.0000
# 2 23.8646 83.7209 33.0520 0.0000 0.0000 0.0000
# 3 33.0520 33.0520 145.7162 0.0000 0.0000 0.0000
# 4 0.0000 0.0000 0.0000 36.7146 0.0000 0.0000
# 5 0.0000 0.0000 0.0000 0.0000 36.7146 0.0000
# 6 0.0000 0.0000 0.0000 0.0000 0.0000 29.9281
#
#
#
# Elastic Compliance Matrix: (Units=1/GPa)
#
#
# Indices 1 2 3 4 5 6 
#
# 1 0.013753 -0.002953 -0.002450 0.000000 0.000000 0.000000
# 2 -0.002953 0.013753 -0.002450 0.000000 0.000000 0.000000
# 3 -0.002450 -0.002450 0.007974 0.000000 0.000000 0.000000
# 4 0.000000 0.000000 0.000000 0.027237 0.000000 0.000000
# 5 0.000000 0.000000 0.000000 0.000000 0.027237 0.000000
# 6 0.000000 0.000000 0.000000 0.000000 0.000000 0.033413
#
#
# Mechanical properties :
#
#
# Convention : Reuss Voigt Hill
#
# Bulk Modulus (GPa) = 50.56814 54.78836 52.67825
# Shear Modulus (GPa) = 34.32518 35.55076 34.93797
#
# Velocity S-wave (km/s) = 4.24157 4.31663 4.27927
# Velocity P-wave (km/s) = 7.10580 7.31852 7.21294
#
# Compressibility (1/GPa) = 0.01977530
#
# Stress axis : x y z
#
# Youngs Moduli (GPa) = 72.70924 72.70924 125.40796
#
# Poissons Ratio (x) = 0.21473 0.30722
# Poissons Ratio (y) = 0.21473 0.30722
# Poissons Ratio (z) = 0.17812 0.17812
#
# Static dielectric constant tensor:
#      x y z
#    x 1.651320 0.000000 0.000000 
#    y 0.000000 1.651320 0.000000 
#    z 0.000000 0.000000 1.631600 
# 
# From -- ./inp_files/4412.got.cif
#   From: 2010.05.17/outbox.cif.g08.bks.cpg/sg176_3_cif.got.tgz:4412.got - 2010.06.03 11:36:45.
