data_PCOD9582253
_publ_section_title
;
Structure prediction by ZEFSAII (Michael W. Deem and Ramdas Pophale) SiO2 
 PCOD9582253
Probable space group: P 6 2 2
;
_chemical_formula_sum "Si O2"
_cell_formula_units_Z 84
_cell_length_a 17.428269
_cell_length_b 17.428269
_cell_length_c 14.118217
_cell_angle_alpha 90.000000
_cell_angle_beta 90.000000
_cell_angle_gamma 120.000000
_cell_volume 3713.804119
_symmetry_space_group_name_H-M "P 6 2 2"
_symmetry_group_IT_number 177
_symmetry_cell_setting 'hexagonal'
loop_
_space_group_symop_operation_xyz
x,y,z
x-y,x,z
-y,x-y,z
-x,-y,z
-x+y,-x,z
y,-x+y,z
x-y,-y,-z
-x,-x+y,-z
y,x,-z
-y,-x,-z
-x+y,y,-z
x,x-y,-z
loop_
_atom_site_type_symbol
_atom_site_label
_atom_site_fract_x
_atom_site_fract_y
_atom_site_fract_z
Si Si1 0.984005 0.401870 0.891184
Si Si2 0.795567 0.871007 0.145361
Si Si3 0.393090 0.230011 0.398982
Si Si4 0.105513 0.569434 0.608398
Si Si5 0.444869 0.131440 0.255546
Si Si6 0.233761 0.817098 0.105931
Si Si7 0.196801 0.143778 0.373776
O O1 0.040897 0.394410 0.805267
O O2 0.000000 0.500000 0.890505
O O3 0.882981 0.334780 0.872538
O O4 0.000000 0.380579 0.000000
O O5 0.859413 0.832505 0.112822
O O6 0.690873 0.816133 0.120710
O O7 0.800864 0.862784 0.259143
O O8 0.420862 0.210431 0.500000
O O9 0.461715 0.330226 0.369302
O O10 0.388090 0.155314 0.327414
O O11 0.294908 0.214657 0.406166
O O12 0.134638 0.567319 0.500000
O O13 0.141317 0.526698 0.684250
O O14 0.000000 0.500000 0.610526
O O15 0.467270 0.200872 0.172797
O O16 0.215785 0.784216 0.000000
O O17 0.125201 0.170231 0.404105
#
# Coordination Sequence:
#
# PCOD9582253 Si02
#       7
#    12  12  12  12  12  12  12
#     4  11  26  48  75 109 151 198 253 318 392 477
#     4  10  21  36  62  98 146 196 245 308 369 446
#     4  12  27  47  75 113 150 200 265 322 389 480
#     4  11  27  49  76 108 155 202 260 329 400 474
#     4  12  26  46  75 108 152 200 254 323 396 460
#     4  12  25  44  72 108 150 196 258 314 382 472
#     4  10  23  41  69 107 154 202 252 312 382 467
#
# _framework density 22.618317000000001
#
# number of rings (size 3 to 8) (size 9 to 14) (size 15 to 20)
#    0.000    0.857    4.286    1.571    8.000    1.714 
#    0.857    0.714    0.000    1.714    0.000    0.000 
#    0.000    0.000    0.000    0.000    0.000    0.000 
#
# Total GULP energy -469875.348112 kJ/mol
# GULP energy per Si atom -5593.754144 kJ/mol
# Density = 2.256684 g / cm^3
# Si number density = 22.618317 Si / 1000 Ang^3
#
#
#
# Elastic Constant Matrix: (Units=GPa)
#
#
# Indices 1 2 3 4 5 6 
#
# 1 208.1179 -38.2082 35.7534 0.0000 0.0000 0.0000
# 2 -38.2082 208.1179 35.7534 0.0000 0.0000 0.0000
# 3 35.7534 35.7534 145.6134 0.0000 0.0000 0.0000
# 4 0.0000 0.0000 0.0000 34.9630 0.0000 0.0000
# 5 0.0000 0.0000 0.0000 0.0000 34.9630 0.0000
# 6 0.0000 0.0000 0.0000 0.0000 0.0000 123.1631
#
#
#
# Elastic Compliance Matrix: (Units=1/GPa)
#
#
# Indices 1 2 3 4 5 6 
#
# 1 0.005312 0.001252 -0.001612 0.000000 0.000000 0.000000
# 2 0.001252 0.005312 -0.001612 0.000000 0.000000 0.000000
# 3 -0.001612 -0.001612 0.007659 0.000000 0.000000 0.000000
# 4 0.000000 0.000000 0.000000 0.028602 0.000000 0.000000
# 5 0.000000 0.000000 0.000000 0.000000 0.028602 0.000000
# 6 0.000000 0.000000 0.000000 0.000000 0.000000 0.008119
#
#
# Mechanical properties :
#
#
# Convention : Reuss Voigt Hill
#
# Bulk Modulus (GPa) = 69.73570 69.82739 69.78155
# Shear Modulus (GPa) = 54.15511 73.85453 64.00482
#
# Velocity S-wave (km/s) = 4.89847 5.72044 5.32534
# Velocity P-wave (km/s) = 7.93043 8.63541 8.29042
#
# Compressibility (1/GPa) = 0.01433986
#
# Stress axis : x y z
#
# Youngs Moduli (GPa) = 188.26369 188.26369 130.56651
#
# Poissons Ratio (x) = -0.23571 0.21043
# Poissons Ratio (y) = -0.23571 0.21043
# Poissons Ratio (z) = 0.30341 0.30341
#
# Static dielectric constant tensor:
#      x y z
#    x 1.793890 0.000000 0.000000 
#    y 0.000000 1.793890 0.000000 
#    z 0.000000 0.000000 1.889880 
# 
# From -- ./inp_files/2624.got.cif
#   From: 2010.05.17/outbox.cif.g08.bks.cpg/sg177_2_cif.got.tgz:2624.got - 2010.05.20 11:28:44.
