data_PCOD9582661
_publ_section_title
;
Structure prediction by ZEFSAII (Michael W. Deem and Ramdas Pophale) SiO2 
 PCOD9582661
Probable space group: P 61 2 2
;
_chemical_formula_sum "Si O2"
_cell_formula_units_Z 54
_cell_length_a 14.257315
_cell_length_b 14.257315
_cell_length_c 14.647741
_cell_angle_alpha 90.000000
_cell_angle_beta 90.000000
_cell_angle_gamma 120.000000
_cell_volume 2578.557224
_symmetry_space_group_name_H-M "P 61 2 2"
_symmetry_group_IT_number 178
_symmetry_cell_setting 'hexagonal'
loop_
_space_group_symop_operation_xyz
x,y,z
x-y,x,1/6+z
-y,x-y,1/3+z
-x,-y,1/2+z
-x+y,-x,2/3+z
y,-x+y,5/6+z
x-y,-y,-z
-x,-x+y,2/3-z
y,x,1/3-z
-y,-x,5/6-z
-x+y,y,1/2-z
x,x-y,1/6-z
loop_
_atom_site_type_symbol
_atom_site_label
_atom_site_fract_x
_atom_site_fract_y
_atom_site_fract_z
Si Si1 0.640260 0.000000 0.500000
Si Si2 0.842910 0.937409 0.318076
Si Si3 0.650843 0.913131 0.928492
Si Si4 0.716609 0.858304 0.583334
Si Si5 0.753153 0.506306 0.250000
Si Si6 0.509827 0.457623 0.524021
O O1 0.756781 0.105674 0.482350
O O2 0.579956 0.012913 0.587110
O O3 0.904607 0.898669 0.388359
O O4 0.724553 0.834060 0.304690
O O5 0.830814 0.032472 0.364284
O O6 0.591003 0.973736 0.885047
O O7 0.574815 0.811469 0.991922
O O8 0.734803 0.000000 0.000000
O O9 0.825838 0.453001 0.225369
O O10 0.525092 0.474909 0.416667
#
# Coordination Sequence:
#
# PCOD9582661 Si02
#       6
#     6  12  12   6   6  12
#     4  12  26  54  70 110 160 198 268 310 396 468
#     4  12  25  43  67 110 158 197 251 297 380 467
#     4  10  22  42  72 108 144 197 246 309 384 449
#     4  12  28  42  75 104 158 213 234 320 380 476
#     4  10  20  46  69 114 144 185 258 324 374 452
#     4  11  25  47  79 105 152 204 254 325 385 457
#
# _framework density 20.941942999999998
#
# number of rings (size 3 to 8) (size 9 to 14) (size 15 to 20)
#    0.000    0.889    5.556    2.667    6.222    3.556 
#    2.000    0.000    0.000    0.000    0.000    0.000 
#    0.000    0.000    0.000    0.000    0.000    0.000 
#
# Total GULP energy -301539.486007 kJ/mol
# GULP energy per Si atom -5584.064556 kJ/mol
# Density = 2.089428 g / cm^3
# Si number density = 20.941943 Si / 1000 Ang^3
#
#
#
# Elastic Constant Matrix: (Units=GPa)
#
#
# Indices 1 2 3 4 5 6 
#
# 1 99.6044 51.1280 44.3472 0.0000 0.0000 0.0000
# 2 51.1280 99.6044 44.3472 0.0000 0.0000 0.0000
# 3 44.3472 44.3472 132.7847 0.0000 0.0000 0.0000
# 4 0.0000 0.0000 0.0000 26.1463 0.0000 0.0000
# 5 0.0000 0.0000 0.0000 0.0000 26.1463 0.0000
# 6 0.0000 0.0000 0.0000 0.0000 0.0000 24.2382
#
#
#
# Elastic Compliance Matrix: (Units=1/GPa)
#
#
# Indices 1 2 3 4 5 6 
#
# 1 0.014443 -0.006186 -0.002758 0.000000 0.000000 0.000000
# 2 -0.006186 0.014443 -0.002758 0.000000 0.000000 0.000000
# 3 -0.002758 -0.002758 0.009373 0.000000 0.000000 0.000000
# 4 0.000000 0.000000 0.000000 0.038246 0.000000 0.000000
# 5 0.000000 0.000000 0.000000 0.000000 0.038246 0.000000
# 6 0.000000 0.000000 0.000000 0.000000 0.000000 0.041257
#
#
# Mechanical properties :
#
#
# Convention : Reuss Voigt Hill
#
# Bulk Modulus (GPa) = 67.31155 67.95980 67.63568
# Shear Modulus (GPa) = 27.12044 28.11755 27.61899
#
# Velocity S-wave (km/s) = 3.60256 3.66818 3.63552
# Velocity P-wave (km/s) = 7.03678 7.10371 7.07033
#
# Compressibility (1/GPa) = 0.01485629
#
# Stress axis : x y z
#
# Youngs Moduli (GPa) = 69.23880 69.23880 106.68981
#
# Poissons Ratio (x) = 0.42830 0.29421
# Poissons Ratio (y) = 0.42830 0.29421
# Poissons Ratio (z) = 0.19094 0.19094
#
# Static dielectric constant tensor:
#      x y z
#    x 1.773740 0.000000 0.000000 
#    y 0.000000 1.773740 0.000000 
#    z 0.000000 0.000000 3.392020 
# 
# From -- ./inp_files/5633.got.cif
#   From: 2010.05.17/outbox.cif.g08.bks.cpg/sg178_3_cif.got.tgz:5633.got - 2010.05.20 11:30:59.
