data_PCOD9582507
_publ_section_title
;
Structure prediction by ZEFSAII (Michael W. Deem and Ramdas Pophale) SiO2 
 PCOD9582507
Probable space group: P 61 2 2
;
_chemical_formula_sum "Si O2"
_cell_formula_units_Z 36
_cell_length_a 7.800020
_cell_length_b 7.800020
_cell_length_c 24.990318
_cell_angle_alpha 90.000000
_cell_angle_beta 90.000000
_cell_angle_gamma 120.000000
_cell_volume 1316.721257
_symmetry_space_group_name_H-M "P 61 2 2"
_symmetry_group_IT_number 178
_symmetry_cell_setting 'hexagonal'
loop_
_space_group_symop_operation_xyz
x,y,z
x-y,x,1/6+z
-y,x-y,1/3+z
-x,-y,1/2+z
-x+y,-x,2/3+z
y,-x+y,5/6+z
x-y,-y,-z
-x,-x+y,2/3-z
y,x,1/3-z
-y,-x,5/6-z
-x+y,y,1/2-z
x,x-y,1/6-z
loop_
_atom_site_type_symbol
_atom_site_label
_atom_site_fract_x
_atom_site_fract_y
_atom_site_fract_z
Si Si1 0.555393 0.757752 0.498765
Si Si2 0.751378 0.872885 0.393110
Si Si3 0.803404 0.222527 0.980707
O O1 0.622396 0.731261 0.440422
O O2 0.652739 0.682242 0.542291
O O3 0.324908 0.681819 0.502647
O O4 0.680983 0.000000 0.500000
O O5 0.727151 0.734311 0.342795
O O6 0.976748 0.023253 0.416667
O O7 0.786800 0.213201 0.916667
O O8 0.672888 0.000000 0.000000
#
# Coordination Sequence:
#
# PCOD9582507 Si02
#       3
#    12  12  12
#     4   9  20  37  63  99 139 181 242 304 366 446
#     4  10  19  38  67  99 138 194 240 300 384 441
#     4  11  21  37  65 101 134 184 248 297 362 457
#
# _framework density 27.340636
#
# number of rings (size 3 to 8) (size 9 to 14) (size 15 to 20)
#    0.000    2.000    0.000    6.000    0.000    0.000 
#    6.000    0.000   14.667    0.000    8.667    0.000 
#    0.000    0.000    0.000    0.000    0.000    0.000 
#
# Total GULP energy -201410.382055 kJ/mol
# GULP energy per Si atom -5594.732835 kJ/mol
# Density = 2.727841 g / cm^3
# Si number density = 27.340636 Si / 1000 Ang^3
#
#
#
# Elastic Constant Matrix: (Units=GPa)
#
#
# Indices 1 2 3 4 5 6 
#
# 1 114.3020 45.5408 33.4236 0.0000 0.0000 0.0000
# 2 45.5408 114.3020 33.4236 0.0000 0.0000 0.0000
# 3 33.4236 33.4236 151.1761 0.0000 0.0000 0.0000
# 4 0.0000 0.0000 0.0000 41.0332 0.0000 0.0000
# 5 0.0000 0.0000 0.0000 0.0000 41.0332 0.0000
# 6 0.0000 0.0000 0.0000 0.0000 0.0000 34.3806
#
#
#
# Elastic Compliance Matrix: (Units=1/GPa)
#
#
# Indices 1 2 3 4 5 6 
#
# 1 0.010718 -0.003825 -0.001524 0.000000 0.000000 0.000000
# 2 -0.003825 0.010718 -0.001524 0.000000 0.000000 0.000000
# 3 -0.001524 -0.001524 0.007289 0.000000 0.000000 0.000000
# 4 0.000000 0.000000 0.000000 0.024371 0.000000 0.000000
# 5 0.000000 0.000000 0.000000 0.000000 0.024371 0.000000
# 6 0.000000 0.000000 0.000000 0.000000 0.000000 0.029086
#
#
# Mechanical properties :
#
#
# Convention : Reuss Voigt Hill
#
# Bulk Modulus (GPa) = 66.75829 67.17291 66.96560
# Shear Modulus (GPa) = 39.90688 41.11551 40.51120
#
# Velocity S-wave (km/s) = 3.82464 3.88212 3.85349
# Velocity P-wave (km/s) = 6.63129 6.68706 6.65923
#
# Compressibility (1/GPa) = 0.01497941
#
# Stress axis : x y z
#
# Youngs Moduli (GPa) = 93.29825 93.29825 137.19814
#
# Poissons Ratio (x) = 0.35685 0.20910
# Poissons Ratio (y) = 0.35685 0.20910
# Poissons Ratio (z) = 0.14220 0.14220
#
# Static dielectric constant tensor:
#      x y z
#    x 2.227910 0.000000 0.000000 
#    y 0.000000 2.227910 0.000000 
#    z 0.000000 0.000000 2.140850 
# 
# From -- ./inp_files/8509.got.cif
#   From: 2010.05.17/outbox.cif.g08.bks.cpg/sg178_5_cif.got.tgz:8509.got - 2010.05.20 11:30:59.
