data_PCOD9582020
_publ_section_title
;
Structure prediction by ZEFSAII (Michael W. Deem and Ramdas Pophale) SiO2 
 PCOD9582020
Probable space group: P 63/M
;
_chemical_formula_sum "Si O2"
_cell_formula_units_Z 60
_cell_length_a 14.954238
_cell_length_b 14.954238
_cell_length_c 13.484043
_cell_angle_alpha 90.000000
_cell_angle_beta 90.000000
_cell_angle_gamma 120.000000
_cell_volume 2611.435701
_symmetry_space_group_name_H-M "P 63/M"
_symmetry_group_IT_number 176
_symmetry_cell_setting 'hexagonal'
loop_
_space_group_symop_operation_xyz
x,y,z
x-y,x,1/2+z
-y,x-y,z
-x,-y,1/2+z
-x+y,-x,z
y,-x+y,1/2+z
-x,-y,-z
-x+y,-x,1/2-z
y,-x+y,-z
x,y,1/2-z
x-y,x,-z
-y,x-y,1/2-z
loop_
_atom_site_type_symbol
_atom_site_label
_atom_site_fract_x
_atom_site_fract_y
_atom_site_fract_z
Si Si1 0.243190 0.092481 0.868996
Si Si2 0.929582 0.367530 0.629400
Si Si3 0.260750 0.462973 0.634539
Si Si4 0.866780 0.459580 0.035904
Si Si5 0.221565 0.081990 0.131550
O O1 0.244215 0.092615 0.750000
O O2 0.356032 0.108776 0.893737
O O3 0.211854 0.175968 0.901809
O O4 0.148007 0.980149 0.898357
O O5 0.937674 0.380765 0.750000
O O6 0.868723 0.417535 0.573672
O O7 0.038111 0.431035 0.570871
O O8 0.244847 0.479030 0.750000
O O9 0.230411 0.529476 0.564069
O O10 0.379563 0.505125 0.610989
O O11 0.193632 0.342678 0.611770
O O12 0.210437 0.074794 0.250000
#
# Coordination Sequence:
#
# PCOD9582020 Si02
#       5
#    12  12  12  12  12
#     4   9  16  32  58  93 138 188 230 279 344 418
#     4  10  21  42  66  94 140 187 231 289 357 431
#     4  11  21  38  64  99 134 174 235 300 350 406
#     4  11  23  40  68  99 131 177 236 294 360 419
#     4   9  17  30  57  94 135 181 233 279 339 415
#
# _framework density 22.975867000000001
#
# number of rings (size 3 to 8) (size 9 to 14) (size 15 to 20)
#    0.000    2.000    2.000    2.600    0.000    1.600 
#    7.200    1.000    0.000    0.000    0.000    2.800 
#    0.000    0.000    0.000    0.000    0.000    0.000 
#
# Total GULP energy -334846.299722 kJ/mol
# GULP energy per Si atom -5580.771662 kJ/mol
# Density = 2.292357 g / cm^3
# Si number density = 22.975867 Si / 1000 Ang^3
#
#
#
# Elastic Constant Matrix: (Units=GPa)
#
#
# Indices 1 2 3 4 5 6 
#
# 1 91.3586 51.6464 31.0975 0.0000 0.0000 0.0000
# 2 51.6464 91.3586 31.0975 0.0000 0.0000 0.0000
# 3 31.0975 31.0975 170.6846 0.0000 0.0000 0.0000
# 4 0.0000 0.0000 0.0000 -24.8745 0.0000 0.0000
# 5 0.0000 0.0000 0.0000 0.0000 -24.8745 0.0000
# 6 0.0000 0.0000 0.0000 0.0000 0.0000 19.8561
#
#
#
# Elastic Compliance Matrix: (Units=1/GPa)
#
#
# Indices 1 2 3 4 5 6 
#
# 1 0.016388 -0.008793 -0.001384 0.000000 0.000000 0.000000
# 2 -0.008793 0.016388 -0.001384 0.000000 0.000000 0.000000
# 3 -0.001384 -0.001384 0.006363 0.000000 0.000000 0.000000
# 4 0.000000 0.000000 0.000000 -0.040202 0.000000 0.000000
# 5 0.000000 0.000000 0.000000 0.000000 -0.040202 0.000000
# 6 0.000000 0.000000 0.000000 0.000000 0.000000 0.050362
#
#
# Mechanical properties :
#
#
# Convention : Reuss Voigt Hill
#
# Bulk Modulus (GPa) = 62.43231 64.56497 63.49864
# Shear Modulus (GPa) = 133.12723 9.99208 71.55966
#
# Velocity S-wave (km/s) = 7.62024 2.08768 5.58688
# Velocity P-wave (km/s) = 10.23015 5.82867 8.32554
#
# Compressibility (1/GPa) = 0.01601735
#
# Stress axis : x y z
#
# Youngs Moduli (GPa) = 61.02074 61.02074 157.15977
#
# Poissons Ratio (x) = 0.53658 0.21746
# Poissons Ratio (y) = 0.53658 0.21746
# Poissons Ratio (z) = 0.08443 0.08443
#
# Static dielectric constant tensor:
#      x y z
#    x 1.888100 0.000000 0.000000 
#    y 0.000000 1.888100 0.000000 
#    z 0.000000 0.000000 1.897120 
# 
# From -- ./inp_files/2630.got.cif
#   From: 2010.05.17/outbox.cif.g08.bks.cpg/sg176_2_cif.got.tgz:2630.got - 2010.06.03 11:36:45.
