data_PCOD9582544
_publ_section_title
;
Structure prediction by ZEFSAII (Michael W. Deem and Ramdas Pophale) SiO2 
 PCOD9582544
Probable space group: P 61 2 2
;
_chemical_formula_sum "Si O2"
_cell_formula_units_Z 72
_cell_length_a 15.174771
_cell_length_b 15.174771
_cell_length_c 19.116756
_cell_angle_alpha 90.000000
_cell_angle_beta 90.000000
_cell_angle_gamma 120.000000
_cell_volume 3812.318008
_symmetry_space_group_name_H-M "P 61 2 2"
_symmetry_group_IT_number 178
_symmetry_cell_setting 'hexagonal'
loop_
_space_group_symop_operation_xyz
x,y,z
x-y,x,1/6+z
-y,x-y,1/3+z
-x,-y,1/2+z
-x+y,-x,2/3+z
y,-x+y,5/6+z
x-y,-y,-z
-x,-x+y,2/3-z
y,x,1/3-z
-y,-x,5/6-z
-x+y,y,1/2-z
x,x-y,1/6-z
loop_
_atom_site_type_symbol
_atom_site_label
_atom_site_fract_x
_atom_site_fract_y
_atom_site_fract_z
Si Si1 0.981926 0.194528 0.610021
Si Si2 0.709246 0.041577 0.091923
Si Si3 0.950996 0.714144 0.962316
Si Si4 0.884868 0.347838 0.302383
Si Si5 0.367020 0.183510 0.083334
Si Si6 0.000000 0.849889 0.333334
Si Si7 0.319803 0.850692 0.465012
O O1 0.950752 0.260612 0.660825
O O2 0.871566 0.102571 0.589468
O O3 0.047874 0.262134 0.544782
O O4 0.046115 0.147727 0.646994
O O5 0.774466 0.991586 0.061998
O O6 0.594182 0.956928 0.076790
O O7 0.723016 0.132233 0.039686
O O8 0.898543 0.597281 0.937128
O O9 0.067784 0.768810 0.940385
O O10 0.819899 0.252918 0.352890
O O11 0.835699 0.419395 0.303933
O O12 0.000000 0.413431 0.333334
O O13 0.232941 0.767060 0.416667
#
# Coordination Sequence:
#
# PCOD9582544 Si02
#       7
#    12  12  12  12   6   6  12
#     4  12  22  37  56  95 133 164 198 248 301 372
#     4  10  20  37  60  92 122 163 192 245 310 378
#     4  11  24  37  62  88 124 165 210 255 300 369
#     4  10  20  43  64  86 112 164 208 255 317 362
#     4  10  22  42  64  80 118 162 216 256 302 370
#     4  10  20  34  56  86 134 168 190 230 296 376
#     4  10  20  38  69  90 115 156 212 254 312 391
#
# _framework density 18.886149
#
# number of rings (size 3 to 8) (size 9 to 14) (size 15 to 20)
#    0.000    1.667    5.000    2.500    0.000    1.333 
#    0.000    2.500    0.000    0.000    0.000    0.000 
#    0.000    0.000    0.000    0.000    0.000    0.000 
#
# Total GULP energy -400838.961639 kJ/mol
# GULP energy per Si atom -5567.207801 kJ/mol
# Density = 1.884316 g / cm^3
# Si number density = 18.886149 Si / 1000 Ang^3
#
#
#
# Elastic Constant Matrix: (Units=GPa)
#
#
# Indices 1 2 3 4 5 6 
#
# 1 86.8707 27.0551 36.7740 0.0000 0.0000 0.0000
# 2 27.0551 86.8707 36.7740 0.0000 0.0000 0.0000
# 3 36.7740 36.7740 92.1205 0.0000 0.0000 0.0000
# 4 0.0000 0.0000 0.0000 17.1141 0.0000 0.0000
# 5 0.0000 0.0000 0.0000 0.0000 17.1141 0.0000
# 6 0.0000 0.0000 0.0000 0.0000 0.0000 29.9078
#
#
#
# Elastic Compliance Matrix: (Units=1/GPa)
#
#
# Indices 1 2 3 4 5 6 
#
# 1 0.014272 -0.002446 -0.004721 0.000000 0.000000 0.000000
# 2 -0.002446 0.014272 -0.004721 0.000000 0.000000 0.000000
# 3 -0.004721 -0.004721 0.014624 0.000000 0.000000 0.000000
# 4 0.000000 0.000000 0.000000 0.058431 0.000000 0.000000
# 5 0.000000 0.000000 0.000000 0.000000 0.058431 0.000000
# 6 0.000000 0.000000 0.000000 0.000000 0.000000 0.033436
#
#
# Mechanical properties :
#
#
# Convention : Reuss Voigt Hill
#
# Bulk Modulus (GPa) = 51.56685 51.89644 51.73165
# Shear Modulus (GPa) = 22.35084 23.84445 23.09765
#
# Velocity S-wave (km/s) = 3.44386 3.55707 3.50093
# Velocity P-wave (km/s) = 6.57092 6.66398 6.61761
#
# Compressibility (1/GPa) = 0.01939230
#
# Stress axis : x y z
#
# Youngs Moduli (GPa) = 70.06934 70.06934 68.37999
#
# Poissons Ratio (x) = 0.17142 0.32279
# Poissons Ratio (y) = 0.17142 0.32279
# Poissons Ratio (z) = 0.33076 0.33076
#
# Static dielectric constant tensor:
#      x y z
#    x 1.658370 0.000000 0.000000 
#    y 0.000000 1.658370 0.000000 
#    z 0.000000 0.000000 1.766130 
# 
# From -- ./inp_files/7715.got.cif
#   From: 2010.05.17/outbox.cif.g08.bks.cpg/sg178_4_cif.got.tgz:7715.got - 2010.05.20 11:30:59.
