data_PCOD9582081
_publ_section_title
;
Structure prediction by ZEFSAII (Michael W. Deem and Ramdas Pophale) SiO2 
 PCOD9582081
Probable space group: P 63/M
;
_chemical_formula_sum "Si O2"
_cell_formula_units_Z 54
_cell_length_a 20.355893
_cell_length_b 20.355893
_cell_length_c 8.220242
_cell_angle_alpha 90.000000
_cell_angle_beta 90.000000
_cell_angle_gamma 120.000000
_cell_volume 2949.820256
_symmetry_space_group_name_H-M "P 63/M"
_symmetry_group_IT_number 176
_symmetry_cell_setting 'hexagonal'
loop_
_space_group_symop_operation_xyz
x,y,z
x-y,x,1/2+z
-y,x-y,z
-x,-y,1/2+z
-x+y,-x,z
y,-x+y,1/2+z
-x,-y,-z
-x+y,-x,1/2-z
y,-x+y,-z
x,y,1/2-z
x-y,x,-z
-y,x-y,1/2-z
loop_
_atom_site_type_symbol
_atom_site_label
_atom_site_fract_x
_atom_site_fract_y
_atom_site_fract_z
Si Si1 0.963918 0.550210 0.555967
Si Si2 0.283711 0.796761 0.065487
Si Si3 0.284300 0.291079 0.555487
Si Si4 0.161055 0.852038 0.435671
Si Si5 0.712961 0.431413 0.250000
O O1 0.972173 0.555454 0.750000
O O2 0.873786 0.511656 0.523718
O O3 0.000000 0.500000 0.500000
O O4 0.001409 0.637420 0.492646
O O5 0.289413 0.771505 0.250000
O O6 0.219914 0.820979 0.070341
O O7 0.262149 0.738354 0.918367
O O8 0.294694 0.289220 0.750000
O O9 0.209950 0.295955 0.523282
O O10 0.276643 0.212642 0.491159
O O11 0.139522 0.858076 0.250000
O O12 0.623727 0.372773 0.250000
#
# Coordination Sequence:
#
# PCOD9582081 Si02
#       5
#    12  12  12  12   6
#     4   9  19  34  52  79 109 142 180 230 283 331
#     4   9  20  39  56  74 112 147 181 238 282 331
#     4   9  19  35  54  81 113 144 179 232 283 333
#     4   9  19  36  56  82 113 143 186 228 284 345
#     4  10  24  38  52  80 104 144 196 224 274 338
#
# _framework density 18.3062
#
# number of rings (size 3 to 8) (size 9 to 14) (size 15 to 20)
#    0.222    2.667    0.000    2.667    3.111    4.444 
#    4.000    4.444    0.000    0.444    0.000    0.000 
#    0.000    0.000    0.000    0.000    0.000    0.000 
#
# Total GULP energy -300634.790741 kJ/mol
# GULP energy per Si atom -5567.310940 kJ/mol
# Density = 1.826453 g / cm^3
# Si number density = 18.306200 Si / 1000 Ang^3
#
#
#
# Elastic Constant Matrix: (Units=GPa)
#
#
# Indices 1 2 3 4 5 6 
#
# 1 66.3801 27.5505 11.5453 0.0000 0.0000 0.0000
# 2 27.5505 66.3801 11.5453 0.0000 0.0000 0.0000
# 3 11.5453 11.5453 40.0514 0.0000 0.0000 0.0000
# 4 0.0000 0.0000 0.0000 22.1305 0.0000 0.0000
# 5 0.0000 0.0000 0.0000 0.0000 22.1305 0.0000
# 6 0.0000 0.0000 0.0000 0.0000 0.0000 19.4148
#
#
#
# Elastic Compliance Matrix: (Units=1/GPa)
#
#
# Indices 1 2 3 4 5 6 
#
# 1 0.018606 -0.007148 -0.003303 0.000000 0.000000 0.000000
# 2 -0.007148 0.018606 -0.003303 0.000000 0.000000 0.000000
# 3 -0.003303 -0.003303 0.026872 0.000000 0.000000 0.000000
# 4 0.000000 0.000000 0.000000 0.045186 0.000000 0.000000
# 5 0.000000 0.000000 0.000000 0.000000 0.045186 0.000000
# 6 0.000000 0.000000 0.000000 0.000000 0.000000 0.051507
#
#
# Mechanical properties :
#
#
# Convention : Reuss Voigt Hill
#
# Bulk Modulus (GPa) = 27.33986 30.45486 28.89736
# Shear Modulus (GPa) = 20.35306 20.87986 20.61646
#
# Velocity S-wave (km/s) = 3.33800 3.38093 3.35953
# Velocity P-wave (km/s) = 5.46109 5.64919 5.55594
#
# Compressibility (1/GPa) = 0.03657664
#
# Stress axis : x y z
#
# Youngs Moduli (GPa) = 53.74655 53.74655 37.21323
#
# Poissons Ratio (x) = 0.38417 0.12291
# Poissons Ratio (y) = 0.38417 0.12291
# Poissons Ratio (z) = 0.17752 0.17752
#
# Static dielectric constant tensor:
#      x y z
#    x 1.641930 0.000000 0.000000 
#    y 0.000000 1.641930 0.000000 
#    z 0.000000 0.000000 1.747880 
# 
# From -- ./inp_files/820.got.cif
#   From: 2010.05.17/outbox.cif.g08.bks.cpg/sg176_1_cif.got.tgz:820.got - 2010.06.03 11:36:45.
