data_PCOD9582869
_publ_section_title
;
Structure prediction by ZEFSAII (Michael W. Deem and Ramdas Pophale) SiO2 
 PCOD9582869
Probable space group: P 61 2 2
;
_chemical_formula_sum "Si O2"
_cell_formula_units_Z 42
_cell_length_a 20.211912
_cell_length_b 20.211912
_cell_length_c 5.406708
_cell_angle_alpha 90.000000
_cell_angle_beta 90.000000
_cell_angle_gamma 120.000000
_cell_volume 1912.838677
_symmetry_space_group_name_H-M "P 61 2 2"
_symmetry_group_IT_number 178
_symmetry_cell_setting 'hexagonal'
loop_
_space_group_symop_operation_xyz
x,y,z
x-y,x,1/6+z
-y,x-y,1/3+z
-x,-y,1/2+z
-x+y,-x,2/3+z
y,-x+y,5/6+z
x-y,-y,-z
-x,-x+y,2/3-z
y,x,1/3-z
-y,-x,5/6-z
-x+y,y,1/2-z
x,x-y,1/6-z
loop_
_atom_site_type_symbol
_atom_site_label
_atom_site_fract_x
_atom_site_fract_y
_atom_site_fract_z
Si Si1 0.951069 0.475535 0.083334
Si Si2 0.696963 0.533979 0.407929
Si Si3 0.192329 0.892015 0.170894
Si Si4 0.709159 0.290842 0.416667
Si Si5 0.149654 0.000000 0.000000
O O1 0.895735 0.388327 0.984613
O O2 0.000000 0.481323 0.333334
O O3 0.766425 0.532850 0.250000
O O4 0.729491 0.620143 0.505176
O O5 0.685571 0.473279 0.615577
O O6 0.153257 0.846744 0.416667
O O7 0.148452 0.851549 0.916667
O O8 0.186601 0.968078 0.196541
O O9 0.722527 0.361264 0.583334
O O10 0.069042 0.930959 0.916667
#
# Coordination Sequence:
#
# PCOD9582869 Si02
#       5
#     6  12  12   6   6
#     4  12  31  48  72 118 162 198 252 330 406 451
#     4  11  25  48  74 101 149 205 260 307 373 461
#     4  10  23  44  70 102 137 187 238 288 356 444
#     4  12  23  40  74 112 146 190 262 322 370 433
#     4  10  24  44  70 108 138 176 230 296 370 426
#
# _framework density 21.956897000000001
#
# number of rings (size 3 to 8) (size 9 to 14) (size 15 to 20)
#    0.000    1.143    1.429    3.429    8.000    5.714 
#   10.286    0.000    0.000    0.000    0.000    0.000 
#    0.000    0.000    0.000    0.000    0.000    0.000 
#
# Total GULP energy -233882.768151 kJ/mol
# GULP energy per Si atom -5568.637337 kJ/mol
# Density = 2.190692 g / cm^3
# Si number density = 21.956897 Si / 1000 Ang^3
#
#
#
# Elastic Constant Matrix: (Units=GPa)
#
#
# Indices 1 2 3 4 5 6 
#
# 1 199.5944 25.2493 26.7155 0.0000 0.0000 0.0000
# 2 25.2493 199.5944 26.7155 0.0000 0.0000 0.0000
# 3 26.7155 26.7155 88.3133 0.0000 0.0000 0.0000
# 4 0.0000 0.0000 0.0000 19.2961 0.0000 0.0000
# 5 0.0000 0.0000 0.0000 0.0000 19.2961 0.0000
# 6 0.0000 0.0000 0.0000 0.0000 0.0000 87.1725
#
#
#
# Elastic Compliance Matrix: (Units=1/GPa)
#
#
# Indices 1 2 3 4 5 6 
#
# 1 0.005264 -0.000472 -0.001450 0.000000 0.000000 0.000000
# 2 -0.000472 0.005264 -0.001450 0.000000 0.000000 0.000000
# 3 -0.001450 -0.001450 0.012200 0.000000 0.000000 0.000000
# 4 0.000000 0.000000 0.000000 0.051824 0.000000 0.000000
# 5 0.000000 0.000000 0.000000 0.000000 0.051824 0.000000
# 6 0.000000 0.000000 0.000000 0.000000 0.000000 0.011472
#
#
# Mechanical properties :
#
#
# Convention : Reuss Voigt Hill
#
# Bulk Modulus (GPa) = 62.55508 71.65140 67.10324
# Shear Modulus (GPa) = 33.35148 52.40773 42.87961
#
# Velocity S-wave (km/s) = 3.90160 4.89084 4.42396
# Velocity P-wave (km/s) = 6.98917 8.03724 7.53146
#
# Compressibility (1/GPa) = 0.01598591
#
# Stress axis : x y z
#
# Youngs Moduli (GPa) = 189.97379 189.97379 81.96471
#
# Poissons Ratio (x) = 0.08964 0.11882
# Poissons Ratio (y) = 0.08964 0.11882
# Poissons Ratio (z) = 0.27539 0.27539
#
# Static dielectric constant tensor:
#      x y z
#    x 1.777340 0.000000 0.000000 
#    y 0.000000 1.777340 0.000000 
#    z 0.000000 0.000000 1.804540 
# 
# From -- ./inp_files/846.got.cif
#   From: 2010.05.17/outbox.cif.g08.bks.cpg/sg178_1_cif.got.tgz:846.got - 2010.05.20 11:30:59.
