data_PCOD9582409
_publ_section_title
;
Structure prediction by ZEFSAII (Michael W. Deem and Ramdas Pophale) SiO2 
 PCOD9582409
Probable space group: P 61 2 2
;
_chemical_formula_sum "Si O2"
_cell_formula_units_Z 84
_cell_length_a 22.061726
_cell_length_b 22.061726
_cell_length_c 10.983045
_cell_angle_alpha 90.000000
_cell_angle_beta 90.000000
_cell_angle_gamma 120.000000
_cell_volume 4629.481657
_symmetry_space_group_name_H-M "P 61 2 2"
_symmetry_group_IT_number 178
_symmetry_cell_setting 'hexagonal'
loop_
_space_group_symop_operation_xyz
x,y,z
x-y,x,1/6+z
-y,x-y,1/3+z
-x,-y,1/2+z
-x+y,-x,2/3+z
y,-x+y,5/6+z
x-y,-y,-z
-x,-x+y,2/3-z
y,x,1/3-z
-y,-x,5/6-z
-x+y,y,1/2-z
x,x-y,1/6-z
loop_
_atom_site_type_symbol
_atom_site_label
_atom_site_fract_x
_atom_site_fract_y
_atom_site_fract_z
Si Si1 0.605704 0.937055 0.112052
Si Si2 0.266780 0.932344 0.743599
Si Si3 0.722798 0.917268 0.994018
Si Si4 0.212108 0.736266 0.051796
Si Si5 0.920413 0.452343 0.830703
Si Si6 0.878033 0.543804 0.963750
Si Si7 0.680644 0.000000 0.500000
Si Si8 0.162489 0.581245 0.083334
O O1 0.565716 0.904395 0.235124
O O2 0.667612 0.013335 0.159170
O O3 0.650165 0.905042 0.053914
O O4 0.542052 0.926253 0.026835
O O5 0.199560 0.906290 0.652330
O O6 0.273344 0.864934 0.774027
O O7 0.272871 0.971947 0.873559
O O8 0.743229 0.871615 0.083334
O O9 0.779583 0.000000 0.000000
O O10 0.266336 0.802508 0.127430
O O11 0.207298 0.664417 0.089535
O O12 0.242342 0.757659 0.916667
O O13 0.878452 0.474119 0.923212
O O14 0.886586 0.446114 0.700653
O O15 0.000000 0.514773 0.833334
O O16 0.933430 0.607533 0.877632
#
# Coordination Sequence:
#
# PCOD9582409 Si02
#       8
#    12  12  12  12  12  12   6   6
#     4  10  22  36  58  87 115 147 190 240 303 357
#     4  10  20  36  58  86 119 154 193 248 305 367
#     4  10  20  38  59  89 125 163 193 235 289 355
#     4  12  22  40  56  78 108 154 198 237 306 363
#     4  12  23  36  57  86 111 141 187 249 308 350
#     4  11  22  36  56  81 109 147 192 249 294 361
#     4  10  18  34  54  86 114 142 200 250 306 360
#     4  12  26  40  60  78 110 152 192 246 300 368
#
# _framework density 18.144580000000001
#
# number of rings (size 3 to 8) (size 9 to 14) (size 15 to 20)
#    0.000    1.143    3.571    4.286    4.000    0.000 
#    0.000    1.429    1.571    0.000    0.000    0.000 
#    0.000    4.571    0.000    0.000    0.000    0.000 
#
# Total GULP energy -468045.955629 kJ/mol
# GULP energy per Si atom -5571.975662 kJ/mol
# Density = 1.810328 g / cm^3
# Si number density = 18.144580 Si / 1000 Ang^3
#
#
#
# Elastic Constant Matrix: (Units=GPa)
#
#
# Indices 1 2 3 4 5 6 
#
# 1 66.5734 35.2468 15.4655 0.0000 0.0000 0.0000
# 2 35.2468 66.5734 15.4655 0.0000 0.0000 0.0000
# 3 15.4655 15.4655 83.9724 0.0000 0.0000 0.0000
# 4 0.0000 0.0000 0.0000 10.4431 0.0000 0.0000
# 5 0.0000 0.0000 0.0000 0.0000 10.4431 0.0000
# 6 0.0000 0.0000 0.0000 0.0000 0.0000 15.6633
#
#
#
# Elastic Compliance Matrix: (Units=1/GPa)
#
#
# Indices 1 2 3 4 5 6 
#
# 1 0.021163 -0.010759 -0.001916 0.000000 0.000000 0.000000
# 2 -0.010759 0.021163 -0.001916 0.000000 0.000000 0.000000
# 3 -0.001916 -0.001916 0.012614 0.000000 0.000000 0.000000
# 4 0.000000 0.000000 0.000000 0.095757 0.000000 0.000000
# 5 0.000000 0.000000 0.000000 0.000000 0.095757 0.000000
# 6 0.000000 0.000000 0.000000 0.000000 0.000000 0.063844
#
#
# Mechanical properties :
#
#
# Convention : Reuss Voigt Hill
#
# Bulk Modulus (GPa) = 38.82445 38.83052 38.82748
# Shear Modulus (GPa) = 14.36513 17.37265 15.86889
#
# Velocity S-wave (km/s) = 2.81678 3.09764 2.96054
# Velocity P-wave (km/s) = 5.65886 5.85157 5.75602
#
# Compressibility (1/GPa) = 0.02575696
#
# Stress axis : x y z
#
# Youngs Moduli (GPa) = 47.25333 47.25333 79.27425
#
# Poissons Ratio (x) = 0.50841 0.15189
# Poissons Ratio (y) = 0.50841 0.15189
# Poissons Ratio (z) = 0.09054 0.09054
#
# Static dielectric constant tensor:
#      x y z
#    x 1.648120 0.000000 0.000000 
#    y 0.000000 1.648120 0.000000 
#    z 0.000000 0.000000 1.661820 
# 
# From -- ./inp_files/4815.got.cif
#   From: 2010.05.17/outbox.cif.g08.bks.cpg/sg178_3_cif.got.tgz:4815.got - 2010.05.20 11:30:59.
