data_PCOD9582329
_publ_section_title
;
Structure prediction by ZEFSAII (Michael W. Deem and Ramdas Pophale) SiO2 
 PCOD9582329
Probable space group: P 61 2 2
;
_chemical_formula_sum "Si O2"
_cell_formula_units_Z 60
_cell_length_a 11.960289
_cell_length_b 11.960289
_cell_length_c 26.621736
_cell_angle_alpha 90.000000
_cell_angle_beta 90.000000
_cell_angle_gamma 120.000000
_cell_volume 3297.997724
_symmetry_space_group_name_H-M "P 61 2 2"
_symmetry_group_IT_number 178
_symmetry_cell_setting 'hexagonal'
loop_
_space_group_symop_operation_xyz
x,y,z
x-y,x,1/6+z
-y,x-y,1/3+z
-x,-y,1/2+z
-x+y,-x,2/3+z
y,-x+y,5/6+z
x-y,-y,-z
-x,-x+y,2/3-z
y,x,1/3-z
-y,-x,5/6-z
-x+y,y,1/2-z
x,x-y,1/6-z
loop_
_atom_site_type_symbol
_atom_site_label
_atom_site_fract_x
_atom_site_fract_y
_atom_site_fract_z
Si Si1 0.976362 0.767053 0.530776
Si Si2 0.781654 0.108909 0.557286
Si Si3 0.398093 0.398093 0.666667
Si Si4 0.931206 0.000000 0.500000
Si Si5 0.326038 0.850995 0.957790
Si Si6 0.219726 0.237201 0.581756
O O1 0.859257 0.658757 0.563532
O O2 0.982724 0.718147 0.475094
O O3 0.109557 0.844433 0.562529
O O4 0.943857 0.879439 0.516736
O O5 0.871807 0.049361 0.542550
O O6 0.763617 0.173189 0.506941
O O7 0.640551 0.984838 0.566322
O O8 0.422166 0.535004 0.646092
O O9 0.337212 0.300009 0.620714
O O10 0.259518 0.740483 0.916667
O O11 0.166883 0.083442 0.583334
#
# Coordination Sequence:
#
# PCOD9582329 Si02
#       6
#    12  12   6   6  12  12
#     4  12  18  27  47  82 120 141 163 209 280 352
#     4   9  17  27  50  88 112 132 159 217 286 343
#     4  10  22  38  54  76 102 152 192 224 262 334
#     4  10  14  22  40  74 124 142 150 182 260 352
#     4   9  19  36  59  76 103 143 190 227 269 323
#     4  12  20  31  51  77 112 150 179 211 276 336
#
# _framework density 18.192857
#
# number of rings (size 3 to 8) (size 9 to 14) (size 15 to 20)
#    0.000    2.000    6.000    3.000    0.000    0.000 
#    0.000    0.000    8.800    0.000    0.000    0.000 
#    0.000    0.000    0.000    0.000    0.000    0.000 
#
# Total GULP energy -334122.627279 kJ/mol
# GULP energy per Si atom -5568.710455 kJ/mol
# Density = 1.815145 g / cm^3
# Si number density = 18.192857 Si / 1000 Ang^3
#
#
#
# Elastic Constant Matrix: (Units=GPa)
#
#
# Indices 1 2 3 4 5 6 
#
# 1 42.5764 13.2707 31.5896 0.0000 0.0000 0.0000
# 2 13.2707 42.5764 31.5896 0.0000 0.0000 0.0000
# 3 31.5896 31.5896 142.1404 0.0000 0.0000 0.0000
# 4 0.0000 0.0000 0.0000 26.0019 0.0000 0.0000
# 5 0.0000 0.0000 0.0000 0.0000 26.0019 0.0000
# 6 0.0000 0.0000 0.0000 0.0000 0.0000 14.6528
#
#
#
# Elastic Compliance Matrix: (Units=1/GPa)
#
#
# Indices 1 2 3 4 5 6 
#
# 1 0.029022 -0.005102 -0.005316 0.000000 0.000000 0.000000
# 2 -0.005102 0.029022 -0.005316 0.000000 0.000000 0.000000
# 3 -0.005316 -0.005316 0.009398 0.000000 0.000000 0.000000
# 4 0.000000 0.000000 0.000000 0.038459 0.000000 0.000000
# 5 0.000000 0.000000 0.000000 0.000000 0.038459 0.000000
# 6 0.000000 0.000000 0.000000 0.000000 0.000000 0.068246
#
#
# Mechanical properties :
#
#
# Convention : Reuss Voigt Hill
#
# Bulk Modulus (GPa) = 27.79784 42.24366 35.02075
# Shear Modulus (GPa) = 19.52642 23.38756 21.45699
#
# Velocity S-wave (km/s) = 3.27968 3.58933 3.43799
# Velocity P-wave (km/s) = 5.44559 6.35987 5.92041
#
# Compressibility (1/GPa) = 0.03597402
#
# Stress axis : x y z
#
# Youngs Moduli (GPa) = 34.45718 34.45718 106.40347
#
# Poissons Ratio (x) = 0.17579 0.56564
# Poissons Ratio (y) = 0.17579 0.56564
# Poissons Ratio (z) = 0.18318 0.18318
#
# Static dielectric constant tensor:
#      x y z
#    x 1.640780 0.000000 0.000000 
#    y 0.000000 1.640780 0.000000 
#    z 0.000000 0.000000 1.748440 
# 
# From -- ./inp_files/8832.got.cif
#   From: 2010.05.17/outbox.cif.g08.bks.cpg/sg178_5_cif.got.tgz:8832.got - 2010.05.20 11:30:59.
