data_PCOD9582629
_publ_section_title
;
Structure prediction by ZEFSAII (Michael W. Deem and Ramdas Pophale) SiO2 
 PCOD9582629
Probable space group: P 61 2 2
;
_chemical_formula_sum "Si O2"
_cell_formula_units_Z 72
_cell_length_a 14.558531
_cell_length_b 14.558531
_cell_length_c 19.508448
_cell_angle_alpha 90.000000
_cell_angle_beta 90.000000
_cell_angle_gamma 120.000000
_cell_volume 3580.869246
_symmetry_space_group_name_H-M "P 61 2 2"
_symmetry_group_IT_number 178
_symmetry_cell_setting 'hexagonal'
loop_
_space_group_symop_operation_xyz
x,y,z
x-y,x,1/6+z
-y,x-y,1/3+z
-x,-y,1/2+z
-x+y,-x,2/3+z
y,-x+y,5/6+z
x-y,-y,-z
-x,-x+y,2/3-z
y,x,1/3-z
-y,-x,5/6-z
-x+y,y,1/2-z
x,x-y,1/6-z
loop_
_atom_site_type_symbol
_atom_site_label
_atom_site_fract_x
_atom_site_fract_y
_atom_site_fract_z
Si Si1 0.759666 0.572481 0.950089
Si Si2 0.452474 0.102271 0.643527
Si Si3 0.031770 0.231990 0.974910
Si Si4 0.000000 0.855561 0.333334
Si Si5 0.699016 0.243690 0.069695
Si Si6 0.487020 0.886185 0.474712
Si Si7 0.958261 0.479131 0.583334
O O1 0.825042 0.531449 0.905366
O O2 0.648243 0.533611 0.910297
O O3 0.823278 0.696994 0.972216
O O4 0.724396 0.518288 0.025575
O O5 0.326355 0.040814 0.646790
O O6 0.484610 0.214664 0.677198
O O7 0.504273 0.105463 0.571074
O O8 0.493513 0.036579 0.688338
O O9 0.048118 0.232447 0.893423
O O10 0.968250 0.105148 0.985944
O O11 0.714294 0.357147 0.083334
O O12 0.580517 0.173144 0.041913
O O13 0.578067 0.000000 0.500000
#
# Coordination Sequence:
#
# PCOD9582629 Si02
#       7
#    12  12  12   6  12  12   6
#     4  11  23  41  64  93 137 187 226 276 349 415
#     4  11  22  38  62  94 133 168 211 272 344 406
#     4  10  23  38  66  91 128 163 213 281 340 404
#     4  10  22  40  62 100 122 160 220 282 346 386
#     4  12  23  39  64  97 134 176 215 277 342 421
#     4  12  26  40  62  97 139 177 232 275 333 425
#     4  10  20  40  60  90 126 178 224 266 332 416
#
# _framework density 20.106849
#
# number of rings (size 3 to 8) (size 9 to 14) (size 15 to 20)
#    0.000    1.000    2.500    4.500    8.167    1.333 
#    0.000    0.000    7.333    0.000    0.000    0.000 
#    0.000    0.000    0.000    0.000    0.000    0.000 
#
# Total GULP energy -401268.883088 kJ/mol
# GULP energy per Si atom -5573.178932 kJ/mol
# Density = 2.006108 g / cm^3
# Si number density = 20.106849 Si / 1000 Ang^3
#
#
#
# Elastic Constant Matrix: (Units=GPa)
#
#
# Indices 1 2 3 4 5 6 
#
# 1 68.6987 39.9601 30.2556 0.0000 0.0000 0.0000
# 2 39.9601 68.6987 30.2556 0.0000 0.0000 0.0000
# 3 30.2556 30.2556 70.9131 0.0000 0.0000 0.0000
# 4 0.0000 0.0000 0.0000 18.8745 0.0000 0.0000
# 5 0.0000 0.0000 0.0000 0.0000 18.8745 0.0000
# 6 0.0000 0.0000 0.0000 0.0000 0.0000 14.3693
#
#
#
# Elastic Compliance Matrix: (Units=1/GPa)
#
#
# Indices 1 2 3 4 5 6 
#
# 1 0.023434 -0.011363 -0.005150 0.000000 0.000000 0.000000
# 2 -0.011363 0.023434 -0.005150 0.000000 0.000000 0.000000
# 3 -0.005150 -0.005150 0.018497 0.000000 0.000000 0.000000
# 4 0.000000 0.000000 0.000000 0.052981 0.000000 0.000000
# 5 0.000000 0.000000 0.000000 0.000000 0.052981 0.000000
# 6 0.000000 0.000000 0.000000 0.000000 0.000000 0.069593
#
#
# Mechanical properties :
#
#
# Convention : Reuss Voigt Hill
#
# Bulk Modulus (GPa) = 45.37629 45.47259 45.42444
# Shear Modulus (GPa) = 17.14723 17.61295 17.38009
#
# Velocity S-wave (km/s) = 2.92345 2.96289 2.94323
# Velocity P-wave (km/s) = 5.83198 5.86255 5.84729
#
# Compressibility (1/GPa) = 0.02203794
#
# Stress axis : x y z
#
# Youngs Moduli (GPa) = 42.67335 42.67335 54.06401
#
# Poissons Ratio (x) = 0.48488 0.27845
# Poissons Ratio (y) = 0.48488 0.27845
# Poissons Ratio (z) = 0.21978 0.21978
#
# Static dielectric constant tensor:
#      x y z
#    x 1.759400 0.000000 0.000000 
#    y 0.000000 1.759400 0.000000 
#    z 0.000000 0.000000 1.769900 
# 
# From -- ./inp_files/6846.got.cif
#   From: 2010.05.17/outbox.cif.g08.bks.cpg/sg178_4_cif.got.tgz:6846.got - 2010.05.20 11:30:59.
