data_PCOD9582914
_publ_section_title
;
Structure prediction by ZEFSAII (Michael W. Deem and Ramdas Pophale) SiO2 
 PCOD9582914
Probable space group: P 61 2 2
;
_chemical_formula_sum "Si O2"
_cell_formula_units_Z 72
_cell_length_a 13.739846
_cell_length_b 13.739846
_cell_length_c 17.208711
_cell_angle_alpha 90.000000
_cell_angle_beta 90.000000
_cell_angle_gamma 120.000000
_cell_volume 2813.472684
_symmetry_space_group_name_H-M "P 61 2 2"
_symmetry_group_IT_number 178
_symmetry_cell_setting 'hexagonal'
loop_
_space_group_symop_operation_xyz
x,y,z
x-y,x,1/6+z
-y,x-y,1/3+z
-x,-y,1/2+z
-x+y,-x,2/3+z
y,-x+y,5/6+z
x-y,-y,-z
-x,-x+y,2/3-z
y,x,1/3-z
-y,-x,5/6-z
-x+y,y,1/2-z
x,x-y,1/6-z
loop_
_atom_site_type_symbol
_atom_site_label
_atom_site_fract_x
_atom_site_fract_y
_atom_site_fract_z
Si Si1 0.604510 0.810600 0.923110
Si Si2 0.234123 0.112969 0.995311
Si Si3 0.619835 0.179048 0.960757
Si Si4 0.099096 0.143737 0.595424
Si Si5 0.258587 0.452993 0.422255
Si Si6 0.965461 0.549836 0.152793
O O1 0.725961 0.921203 0.924603
O O2 0.582445 0.766974 0.834208
O O3 0.615798 0.718034 0.973202
O O4 0.507335 0.830954 0.959603
O O5 0.139751 0.121920 0.946103
O O6 0.349983 0.216556 0.970061
O O7 0.195510 0.097755 0.083334
O O8 0.244410 0.000000 0.000000
O O9 0.731160 0.268841 0.916667
O O10 0.544199 0.239286 0.956674
O O11 0.563249 0.069367 0.904697
O O12 0.134454 0.082692 0.522376
O O13 0.371548 0.467236 0.462847
O O14 0.916812 0.458406 0.083334
#
# Coordination Sequence:
#
# PCOD9582914 Si02
#       6
#    12  12  12  12  12  12
#     4  11  25  47  75 115 164 208 279 349 423 510
#     4  12  26  48  71 114 161 213 274 333 414 529
#     4  10  25  48  74 117 156 212 279 358 421 502
#     4  12  25  43  75 114 162 219 270 337 426 510
#     4  12  25  48  79 111 160 216 273 349 434 490
#     4  11  23  47  77 105 156 214 274 341 420 500
#
# _framework density 25.591149000000001
#
# number of rings (size 3 to 8) (size 9 to 14) (size 15 to 20)
#    0.000    0.667    3.333    4.500    2.333    0.667 
#    9.000    0.000    0.000    0.000    0.000    0.000 
#    0.000    0.000    0.000    0.000    0.000    0.000 
#
# Total GULP energy -401043.495122 kJ/mol
# GULP energy per Si atom -5570.048543 kJ/mol
# Density = 2.553290 g / cm^3
# Si number density = 25.591149 Si / 1000 Ang^3
#
#
#
# Elastic Constant Matrix: (Units=GPa)
#
#
# Indices 1 2 3 4 5 6 
#
# 1 124.2876 36.2255 34.1199 0.0000 0.0000 0.0000
# 2 36.2255 124.2876 34.1199 0.0000 0.0000 0.0000
# 3 34.1199 34.1199 154.2209 0.0000 0.0000 0.0000
# 4 0.0000 0.0000 0.0000 26.2840 0.0000 0.0000
# 5 0.0000 0.0000 0.0000 0.0000 26.2840 0.0000
# 6 0.0000 0.0000 0.0000 0.0000 0.0000 44.0311
#
#
#
# Elastic Compliance Matrix: (Units=1/GPa)
#
#
# Indices 1 2 3 4 5 6 
#
# 1 0.009116 -0.002239 -0.001521 0.000000 0.000000 0.000000
# 2 -0.002239 0.009116 -0.001521 0.000000 0.000000 0.000000
# 3 -0.001521 -0.001521 0.007157 0.000000 0.000000 0.000000
# 4 0.000000 0.000000 0.000000 0.038046 0.000000 0.000000
# 5 0.000000 0.000000 0.000000 0.000000 0.038046 0.000000
# 6 0.000000 0.000000 0.000000 0.000000 0.000000 0.022711
#
#
# Mechanical properties :
#
#
# Convention : Reuss Voigt Hill
#
# Bulk Modulus (GPa) = 67.45205 67.96964 67.71085
# Shear Modulus (GPa) = 35.79117 39.20855 37.49986
#
# Velocity S-wave (km/s) = 3.74381 3.91847 3.83214
# Velocity P-wave (km/s) = 6.71587 6.86222 6.78944
#
# Compressibility (1/GPa) = 0.01482535
#
# Stress axis : x y z
#
# Youngs Moduli (GPa) = 109.69450 109.69450 139.71536
#
# Poissons Ratio (x) = 0.24565 0.21257
# Poissons Ratio (y) = 0.24565 0.21257
# Poissons Ratio (z) = 0.16689 0.16689
#
# Static dielectric constant tensor:
#      x y z
#    x 2.017730 0.000000 0.000000 
#    y 0.000000 2.017730 0.000000 
#    z 0.000000 0.000000 2.254200 
# 
# From -- ./inp_files/6812.got.cif
#   From: 2010.05.17/outbox.cif.g08.bks.cpg/sg178_4_cif.got.tgz:6812.got - 2010.05.20 11:30:59.
