data_PCOD9582187
_publ_section_title
;
Structure prediction by ZEFSAII (Michael W. Deem and Ramdas Pophale) SiO2 
 PCOD9582187
Probable space group: P 6 2 2
;
_chemical_formula_sum "Si O2"
_cell_formula_units_Z 96
_cell_length_a 21.165944
_cell_length_b 21.165944
_cell_length_c 16.855906
_cell_angle_alpha 90.000000
_cell_angle_beta 90.000000
_cell_angle_gamma 120.000000
_cell_volume 6539.702888
_symmetry_space_group_name_H-M "P 6 2 2"
_symmetry_group_IT_number 177
_symmetry_cell_setting 'hexagonal'
loop_
_space_group_symop_operation_xyz
x,y,z
x-y,x,z
-y,x-y,z
-x,-y,z
-x+y,-x,z
y,-x+y,z
x-y,-y,-z
-x,-x+y,-z
y,x,-z
-y,-x,-z
-x+y,y,-z
x,x-y,-z
loop_
_atom_site_type_symbol
_atom_site_label
_atom_site_fract_x
_atom_site_fract_y
_atom_site_fract_z
Si Si1 0.183175 0.666592 0.000000
Si Si2 0.382432 0.468355 0.154443
Si Si3 0.912147 0.327189 0.676855
Si Si4 0.085923 0.468355 0.154443
Si Si5 0.911397 0.455699 0.409278
Si Si6 0.912148 0.584959 0.676855
Si Si7 0.916257 0.083744 0.596189
Si Si8 0.169602 0.830398 0.596093
O O1 0.135056 0.655341 0.078231
O O2 0.256633 0.743368 0.000000
O O3 0.200060 0.600030 0.000000
O O4 0.135056 0.655341 0.921769
O O5 0.452520 0.547480 0.176129
O O6 0.417411 0.417411 0.135742
O O7 0.330320 0.434210 0.230210
O O8 0.896110 0.330319 0.769790
O O9 0.888893 0.380420 0.633878
O O10 0.873377 0.249384 0.635027
O O11 1.000000 0.364766 0.668827
O O12 0.887267 0.443634 0.500000
O O13 0.888893 0.380420 0.366123
O O14 0.000000 0.500000 0.407919
O O15 0.873377 0.623993 0.635027
O O16 0.918401 0.081600 0.500000
O O17 0.873525 0.126475 0.615135
O O18 0.000000 0.126619 0.624049
O O19 0.173696 0.826305 0.500000
#
# Coordination Sequence:
#
# PCOD9582187 Si02
#       8
#    12  12  12  12  12  12  12  12
#     4  10  20  31  49  73  98 123 148 182 228 285
#     4   9  17  32  51  71  92 118 155 196 234 277
#     4  10  19  32  49  69  94 124 160 200 243 289
#     4   9  17  32  51  71  92 118 155 196 234 277
#     4   9  16  28  48  68  86 115 158 201 233 267
#     4  10  19  32  49  69  94 124 160 200 243 289
#     4   9  17  30  47  66  90 123 161 198 242 301
#     4  11  22  31  44  69 101 129 160 208 256 291
#
# _framework density 14.679565
#
# number of rings (size 3 to 8) (size 9 to 14) (size 15 to 20)
#    0.000    2.375    1.250    2.125    1.750    4.500 
#    0.000    0.000    0.000    0.500    0.000    1.750 
#    0.000    0.000    0.000    0.000    0.000    0.000 
#
# Total GULP energy -535099.599452 kJ/mol
# GULP energy per Si atom -5573.954161 kJ/mol
# Density = 1.464615 g / cm^3
# Si number density = 14.679565 Si / 1000 Ang^3
#
#
#
# Elastic Constant Matrix: (Units=GPa)
#
#
# Indices 1 2 3 4 5 6 
#
# 1 106.4889 65.7525 67.7840 0.0000 0.0000 0.0000
# 2 65.7525 106.4889 67.7840 0.0000 0.0000 0.0000
# 3 67.7840 67.7840 113.4430 0.0000 0.0000 0.0000
# 4 0.0000 0.0000 0.0000 18.2976 0.0000 0.0000
# 5 0.0000 0.0000 0.0000 0.0000 18.2976 0.0000
# 6 0.0000 0.0000 0.0000 0.0000 0.0000 20.3682
#
#
#
# Elastic Compliance Matrix: (Units=1/GPa)
#
#
# Indices 1 2 3 4 5 6 
#
# 1 0.017754 -0.006794 -0.006549 0.000000 0.000000 0.000000
# 2 -0.006794 0.017754 -0.006549 0.000000 0.000000 0.000000
# 3 -0.006549 -0.006549 0.016641 0.000000 0.000000 0.000000
# 4 0.000000 0.000000 0.000000 0.054652 0.000000 0.000000
# 5 0.000000 0.000000 0.000000 0.000000 0.054652 0.000000
# 6 0.000000 0.000000 0.000000 0.000000 0.000000 0.049096
#
#
# Mechanical properties :
#
#
# Convention : Reuss Voigt Hill
#
# Bulk Modulus (GPa) = 80.86669 81.00687 80.93678
# Shear Modulus (GPa) = 19.64981 19.73272 19.69127
#
# Velocity S-wave (km/s) = 3.66263 3.67035 3.66650
# Velocity P-wave (km/s) = 8.54951 8.55951 8.55451
#
# Compressibility (1/GPa) = 0.01236603
#
# Stress axis : x y z
#
# Youngs Moduli (GPa) = 56.32458 56.32458 60.09137
#
# Poissons Ratio (x) = 0.38266 0.39354
# Poissons Ratio (y) = 0.38266 0.39354
# Poissons Ratio (z) = 0.36887 0.36887
#
# Static dielectric constant tensor:
#      x y z
#    x 1.470600 0.000000 0.000000 
#    y 0.000000 1.470600 0.000000 
#    z 0.000000 0.000000 1.478170 
# 
# From -- ./inp_files/2958.got.cif
#   From: 2010.05.17/outbox.cif.g08.bks.cpg/sg177_2_cif.got.tgz:2958.got - 2010.05.20 11:28:44.
