data_PCOD9582344
_publ_section_title
;
Structure prediction by ZEFSAII (Michael W. Deem and Ramdas Pophale) SiO2 
 PCOD9582344
Probable space group: P 61 2 2
;
_chemical_formula_sum "Si O2"
_cell_formula_units_Z 66
_cell_length_a 12.671517
_cell_length_b 12.671517
_cell_length_c 25.320449
_cell_angle_alpha 90.000000
_cell_angle_beta 90.000000
_cell_angle_gamma 120.000000
_cell_volume 3520.945116
_symmetry_space_group_name_H-M "P 61 2 2"
_symmetry_group_IT_number 178
_symmetry_cell_setting 'hexagonal'
loop_
_space_group_symop_operation_xyz
x,y,z
x-y,x,1/6+z
-y,x-y,1/3+z
-x,-y,1/2+z
-x+y,-x,2/3+z
y,-x+y,5/6+z
x-y,-y,-z
-x,-x+y,2/3-z
y,x,1/3-z
-y,-x,5/6-z
-x+y,y,1/2-z
x,x-y,1/6-z
loop_
_atom_site_type_symbol
_atom_site_label
_atom_site_fract_x
_atom_site_fract_y
_atom_site_fract_z
Si Si1 0.023106 0.511553 0.083334
Si Si2 0.189132 0.378263 0.750000
Si Si3 0.000000 0.666342 0.333334
Si Si4 0.617507 0.428613 0.332381
Si Si5 0.545610 0.761692 0.747599
Si Si6 0.566563 0.392014 0.138996
Si Si7 0.259017 0.294675 0.227424
O O1 0.113577 0.656760 0.075476
O O2 0.932117 0.453645 0.033805
O O3 0.233932 0.306925 0.711644
O O4 0.295816 0.466958 0.790478
O O5 0.089413 0.626633 0.306023
O O6 0.532892 0.312165 0.297267
O O7 0.696639 0.385313 0.366301
O O8 0.487108 0.675423 0.695671
O O9 0.674030 0.768087 0.755699
O O10 0.444283 0.336183 0.103532
O O11 0.258128 0.258128 0.166667
O O12 0.128353 0.256705 0.250000
#
# Coordination Sequence:
#
# PCOD9582344 Si02
#       7
#     6   6   6  12  12  12  12
#     4  12  27  38  60 106 134 178 229 274 384 398
#     4  10  19  38  62  92 134 174 235 272 342 424
#     4  10  16  34  62  94 126 176 222 270 344 414
#     4  11  21  38  61  93 137 181 212 290 339 421
#     4  11  20  41  59  88 142 170 211 289 334 406
#     4  10  17  36  61  95 126 170 222 263 351 404
#     4  10  22  35  62  97 119 171 228 271 333 407
#
# _framework density 18.744966000000002
#
# number of rings (size 3 to 8) (size 9 to 14) (size 15 to 20)
#    0.000    1.455    8.182    0.000    6.364    0.000 
#    6.545    0.000    0.000    0.000   21.273    0.000 
#    0.000    0.000    0.000    0.000    0.000    0.000 
#
# Total GULP energy -367551.824615 kJ/mol
# GULP energy per Si atom -5568.967040 kJ/mol
# Density = 1.870230 g / cm^3
# Si number density = 18.744966 Si / 1000 Ang^3
#
#
#
# Elastic Constant Matrix: (Units=GPa)
#
#
# Indices 1 2 3 4 5 6 
#
# 1 410.4075 -231.6025 46.3013 0.0000 0.0000 0.0000
# 2 -231.6025 410.4075 46.3013 0.0000 0.0000 0.0000
# 3 46.3013 46.3013 71.7093 0.0000 0.0000 0.0000
# 4 0.0000 0.0000 0.0000 27.3930 0.0000 0.0000
# 5 0.0000 0.0000 0.0000 0.0000 27.3930 0.0000
# 6 0.0000 0.0000 0.0000 0.0000 0.0000 321.0050
#
#
#
# Elastic Compliance Matrix: (Units=1/GPa)
#
#
# Indices 1 2 3 4 5 6 
#
# 1 0.004980 0.003422 -0.005425 0.000000 0.000000 0.000000
# 2 0.003422 0.004980 -0.005425 0.000000 0.000000 0.000000
# 3 -0.005425 -0.005425 0.020951 0.000000 0.000000 0.000000
# 4 0.000000 0.000000 0.000000 0.036506 0.000000 0.000000
# 5 0.000000 0.000000 0.000000 0.000000 0.036506 0.000000
# 6 0.000000 0.000000 0.000000 0.000000 0.000000 0.003115
#
#
# Mechanical properties :
#
#
# Convention : Reuss Voigt Hill
#
# Bulk Modulus (GPa) = 62.28626 68.28053 65.28339
# Shear Modulus (GPa) = 39.29405 143.92649 91.61027
#
# Velocity S-wave (km/s) = 4.58344 8.77201 6.99843
# Velocity P-wave (km/s) = 7.83013 11.79418 10.01034
#
# Compressibility (1/GPa) = 0.01605490
#
# Stress axis : x y z
#
# Youngs Moduli (GPa) = 200.80254 200.80254 47.72997
#
# Poissons Ratio (x) = -0.68723 0.25895
# Poissons Ratio (y) = -0.68723 0.25895
# Poissons Ratio (z) = 1.08941 1.08941
#
# Static dielectric constant tensor:
#      x y z
#    x 1.876530 0.000000 0.000000 
#    y 0.000000 1.876530 0.000000 
#    z 0.000000 0.000000 1.690730 
# 
# From -- ./inp_files/9563.got.cif
#   From: 2010.05.17/outbox.cif.g08.bks.cpg/sg178_5_cif.got.tgz:9563.got - 2010.05.20 11:30:59.
