data_PCOD9582196
_publ_section_title
;
Structure prediction by ZEFSAII (Michael W. Deem and Ramdas Pophale) SiO2 
 PCOD9582196
Probable space group: P 6 2 2
;
_chemical_formula_sum "Si O2"
_cell_formula_units_Z 84
_cell_length_a 15.064422
_cell_length_b 15.064422
_cell_length_c 25.630186
_cell_angle_alpha 90.000000
_cell_angle_beta 90.000000
_cell_angle_gamma 120.000000
_cell_volume 5037.178439
_symmetry_space_group_name_H-M "P 6 2 2"
_symmetry_group_IT_number 177
_symmetry_cell_setting 'hexagonal'
loop_
_space_group_symop_operation_xyz
x,y,z
x-y,x,z
-y,x-y,z
-x,-y,z
-x+y,-x,z
y,-x+y,z
x-y,-y,-z
-x,-x+y,-z
y,x,-z
-y,-x,-z
-x+y,y,-z
x,x-y,-z
loop_
_atom_site_type_symbol
_atom_site_label
_atom_site_fract_x
_atom_site_fract_y
_atom_site_fract_z
Si Si1 0.438687 0.561313 0.560535
Si Si2 0.248744 0.124372 0.500000
Si Si3 0.120532 0.241064 0.197088
Si Si4 0.188630 0.811370 0.099358
Si Si5 0.765439 0.882720 0.000000
Si Si6 0.207225 0.792776 0.406038
Si Si7 0.394927 0.394927 0.938556
Si Si8 0.878058 0.121941 0.320510
O O1 0.500000 0.500000 0.560314
O O2 0.420707 0.579294 0.500000
O O3 0.511158 0.671106 0.586787
O O4 0.328895 0.488843 0.586787
O O5 0.179120 0.179120 0.500000
O O6 0.326287 0.163144 0.450779
O O7 0.174322 0.174322 0.186211
O O8 0.167897 0.335795 0.157958
O O9 0.132994 0.265989 0.258569
O O10 0.107964 0.690017 0.088210
O O11 0.309983 0.892036 0.088210
O O12 0.146831 0.853169 0.054023
O O13 0.834001 0.834001 0.000000
O O14 0.174195 0.825806 0.353269
O O15 0.500000 0.500000 0.938741
O O16 0.365104 0.365104 0.000000
O O17 1.000000 0.177183 0.332418
#
# Coordination Sequence:
#
# PCOD9582196 Si02
#       8
#    12   6  12  12   6  12  12  12
#     4  11  21  36  57  82 108 140 182 231 284 340
#     4  12  23  36  56  86 120 154 181 222 280 360
#     4  10  19  32  57  86 121 155 190 233 284 355
#     4  12  18  36  57  81 114 149 197 248 304 356
#     4  12  19  28  48  84 122 152 176 229 302 374
#     4  12  23  38  60  82 114 149 191 239 291 334
#     4  11  22  36  58  82 116 156 196 251 313 375
#     4  10  21  37  58  87 121 160 196 232 283 349
#
# _framework density 16.676002
#
# number of rings (size 3 to 8) (size 9 to 14) (size 15 to 20)
#    0.000    0.857    5.714    3.286    0.000    1.143 
#    0.857    2.857    3.143    0.000    0.000    0.000 
#    0.000    0.000    0.000    0.000    0.000    0.000 
#
# Total GULP energy -467821.140970 kJ/mol
# GULP energy per Si atom -5569.299297 kJ/mol
# Density = 1.663805 g / cm^3
# Si number density = 16.676002 Si / 1000 Ang^3
#
#
#
# Elastic Constant Matrix: (Units=GPa)
#
#
# Indices 1 2 3 4 5 6 
#
# 1 125.2672 59.5987 42.1375 0.0000 0.0000 0.0000
# 2 59.5987 125.2672 42.1375 0.0000 0.0000 0.0000
# 3 42.1375 42.1375 63.4854 0.0000 0.0000 0.0000
# 4 0.0000 0.0000 0.0000 21.3514 0.0000 0.0000
# 5 0.0000 0.0000 0.0000 0.0000 21.3514 0.0000
# 6 0.0000 0.0000 0.0000 0.0000 0.0000 32.8343
#
#
#
# Elastic Compliance Matrix: (Units=1/GPa)
#
#
# Indices 1 2 3 4 5 6 
#
# 1 0.011492 -0.003736 -0.005148 0.000000 0.000000 0.000000
# 2 -0.003736 0.011492 -0.005148 0.000000 0.000000 0.000000
# 3 -0.005148 -0.005148 0.022586 0.000000 0.000000 0.000000
# 4 0.000000 0.000000 0.000000 0.046835 0.000000 0.000000
# 5 0.000000 0.000000 0.000000 0.000000 0.046835 0.000000
# 6 0.000000 0.000000 0.000000 0.000000 0.000000 0.030456
#
#
# Mechanical properties :
#
#
# Convention : Reuss Voigt Hill
#
# Bulk Modulus (GPa) = 57.12426 66.86302 61.99364
# Shear Modulus (GPa) = 24.55847 26.45048 25.50447
#
# Velocity S-wave (km/s) = 3.84172 3.98696 3.91501
# Velocity P-wave (km/s) = 7.34902 7.83434 7.59556
#
# Compressibility (1/GPa) = 0.01750570
#
# Stress axis : x y z
#
# Youngs Moduli (GPa) = 87.01642 87.01642 44.27610
#
# Poissons Ratio (x) = 0.32509 0.22794
# Poissons Ratio (y) = 0.32509 0.22794
# Poissons Ratio (z) = 0.44796 0.44796
#
# Static dielectric constant tensor:
#      x y z
#    x 1.571150 0.000000 0.000000 
#    y 0.000000 1.571150 0.000000 
#    z 0.000000 0.000000 1.560020 
# 
# From -- ./inp_files/3199.got.cif
#   From: 2010.05.17/outbox.cif.g08.bks.cpg/sg177_2_cif.got.tgz:3199.got - 2010.05.20 11:28:44.
