data_PCOD9582326
_publ_section_title
;
Structure prediction by ZEFSAII (Michael W. Deem and Ramdas Pophale) SiO2 
 PCOD9582326
Probable space group: P 6 2 2
;
_chemical_formula_sum "Si O2"
_cell_formula_units_Z 60
_cell_length_a 15.000000
_cell_length_b 15.000000
_cell_length_c 15.000000
_cell_angle_alpha 90.000000
_cell_angle_beta 90.000000
_cell_angle_gamma 120.000000
_cell_volume 2922.835738
_symmetry_space_group_name_H-M "P 6 2 2"
_symmetry_group_IT_number 177
_symmetry_cell_setting 'hexagonal'
loop_
_space_group_symop_operation_xyz
x,y,z
x-y,x,z
-y,x-y,z
-x,-y,z
-x+y,-x,z
y,-x+y,z
x-y,-y,-z
-x,-x+y,-z
y,x,-z
-y,-x,-z
-x+y,y,-z
x,x-y,-z
loop_
_atom_site_type_symbol
_atom_site_label
_atom_site_fract_x
_atom_site_fract_y
_atom_site_fract_z
Si Si1 0.087173 0.761230 0.929473
Si Si2 0.876189 0.421782 0.302330
Si Si3 0.070955 0.833082 0.729940
Si Si4 0.461350 0.877040 0.899913
Si Si5 0.201920 0.765616 0.608599
O O1 0.068206 0.801223 0.835345
O O2 0.141825 0.699275 0.896374
O O3 0.148653 0.851348 0.000000
O O4 0.000000 0.684710 0.000000
O O5 0.842365 0.406095 0.196907
O O6 0.823952 0.474727 0.360934
O O7 0.844146 0.312074 0.346321
O O8 0.000000 0.500000 0.303620
O O9 0.114096 0.779593 0.661048
O O10 0.953795 0.804053 0.714938
O O11 0.500000 0.000000 0.900736
O O12 0.418585 0.837170 0.000000
O O13 0.213545 0.786456 0.500000
#
# Coordination Sequence:
#
# PCOD9582326 Si02
#       5
#    12  12  12  12  12
#     4  12  23  39  67 103 139 189 234 284 351 434
#     4  11  25  45  72 104 142 181 227 288 359 431
#     4  12  27  46  69 103 143 192 250 306 361 422
#     4  10  21  37  65 100 140 179 216 272 346 430
#     4  12  27  47  74 105 139 184 242 301 369 437
#
# _framework density 20.528009999999998
#
# number of rings (size 3 to 8) (size 9 to 14) (size 15 to 20)
#    0.000    0.600    6.000    2.400    5.600    4.000 
#    0.000    0.000    0.000    1.600    0.000    0.000 
#    0.000    0.000    0.000    0.000    0.000    0.000 
#
# Total GULP energy -334599.218948 kJ/mol
# GULP energy per Si atom -5576.653649 kJ/mol
# Density = 2.048129 g / cm^3
# Si number density = 20.528010 Si / 1000 Ang^3
#
#
#
# Elastic Constant Matrix: (Units=GPa)
#
#
# Indices 1 2 3 4 5 6 
#
# 1 65.8171 -0.3488 24.7233 0.0000 0.0000 0.0000
# 2 -0.3488 65.8171 24.7233 0.0000 0.0000 0.0000
# 3 24.7233 24.7233 202.8437 0.0000 0.0000 0.0000
# 4 0.0000 0.0000 0.0000 33.1338 0.0000 0.0000
# 5 0.0000 0.0000 0.0000 0.0000 33.1338 0.0000
# 6 0.0000 0.0000 0.0000 0.0000 0.0000 33.0829
#
#
#
# Elastic Compliance Matrix: (Units=1/GPa)
#
#
# Indices 1 2 3 4 5 6 
#
# 1 0.015968 0.000855 -0.002050 0.000000 0.000000 0.000000
# 2 0.000855 0.015968 -0.002050 0.000000 0.000000 0.000000
# 3 -0.002050 -0.002050 0.005430 0.000000 0.000000 0.000000
# 4 0.000000 0.000000 0.000000 0.030181 0.000000 0.000000
# 5 0.000000 0.000000 0.000000 0.000000 0.030181 0.000000
# 6 0.000000 0.000000 0.000000 0.000000 0.000000 0.030227
#
#
# Mechanical properties :
#
#
# Convention : Reuss Voigt Hill
#
# Bulk Modulus (GPa) = 32.38939 48.07484 40.23211
# Shear Modulus (GPa) = 34.54506 38.89545 36.72026
#
# Velocity S-wave (km/s) = 4.10668 4.35760 4.23400
# Velocity P-wave (km/s) = 6.18860 6.98485 6.59875
#
# Compressibility (1/GPa) = 0.03087431
#
# Stress axis : x y z
#
# Youngs Moduli (GPa) = 62.62373 62.62373 184.17077
#
# Poissons Ratio (x) = -0.05353 0.37764
# Poissons Ratio (y) = -0.05353 0.37764
# Poissons Ratio (z) = 0.12841 0.12841
#
# Static dielectric constant tensor:
#      x y z
#    x 1.712660 0.000000 0.000000 
#    y 0.000000 1.712660 0.000000 
#    z 0.000000 0.000000 1.748300 
# 
# From -- ./inp_files/2439.got.cif
#   From: 2010.05.17/outbox.ucp.g08.bks.cvg/sg177_2_cif.got.tgz:2439.got - 2010.06.11 15:19:11.
