data_PCOD9582783
_publ_section_title
;
Structure prediction by ZEFSAII (Michael W. Deem and Ramdas Pophale) SiO2 
 PCOD9582783
Probable space group: P 61 2 2
;
_chemical_formula_sum "Si O2"
_cell_formula_units_Z 66
_cell_length_a 19.737410
_cell_length_b 19.737410
_cell_length_c 9.586178
_cell_angle_alpha 90.000000
_cell_angle_beta 90.000000
_cell_angle_gamma 120.000000
_cell_volume 3234.122352
_symmetry_space_group_name_H-M "P 61 2 2"
_symmetry_group_IT_number 178
_symmetry_cell_setting 'hexagonal'
loop_
_space_group_symop_operation_xyz
x,y,z
x-y,x,1/6+z
-y,x-y,1/3+z
-x,-y,1/2+z
-x+y,-x,2/3+z
y,-x+y,5/6+z
x-y,-y,-z
-x,-x+y,2/3-z
y,x,1/3-z
-y,-x,5/6-z
-x+y,y,1/2-z
x,x-y,1/6-z
loop_
_atom_site_type_symbol
_atom_site_label
_atom_site_fract_x
_atom_site_fract_y
_atom_site_fract_z
Si Si1 0.351227 0.331882 0.815995
Si Si2 0.540404 0.480782 0.057894
Si Si3 0.499110 0.249555 0.583334
Si Si4 0.081961 0.313414 0.259317
Si Si5 0.139916 0.435127 0.510862
Si Si6 0.580814 0.364777 0.155587
O O1 0.305828 0.305828 0.666667
O O2 0.441398 0.376166 0.763372
O O3 0.334376 0.394427 0.898422
O O4 0.336194 0.269842 0.938297
O O5 0.479885 0.479885 0.166667
O O6 0.543000 0.401726 0.053825
O O7 0.507509 0.492492 0.916667
O O8 0.442609 0.238893 0.455240
O O9 0.561278 0.223877 0.533705
O O10 0.139422 0.278843 0.250000
O O11 0.124081 0.386059 0.368282
O O12 0.000000 0.257045 0.333334
O O13 0.182754 0.524399 0.455786
O O14 0.587070 0.293535 0.083334
#
# Coordination Sequence:
#
# PCOD9582783 Si02
#       6
#    12  12   6  12  12  12
#     4  10  22  41  66 100 124 163 225 281 341 397
#     4  11  23  38  64  84 113 154 218 271 338 385
#     4  12  26  38  60  86 128 176 228 280 340 400
#     4  10  23  43  70 101 138 173 217 267 337 404
#     4  11  24  42  61  89 131 168 226 288 345 399
#     4  12  26  41  60  85 127 172 225 279 348 416
#
# _framework density 20.407391000000001
#
# number of rings (size 3 to 8) (size 9 to 14) (size 15 to 20)
#    0.000    1.091    0.000    6.545    8.909    1.455 
#    0.000    0.000    0.000    0.000    0.000    1.273 
#    0.000    0.000    0.000    0.000    0.000    0.000 
#
# Total GULP energy -367961.757489 kJ/mol
# GULP energy per Si atom -5575.178144 kJ/mol
# Density = 2.036094 g / cm^3
# Si number density = 20.407391 Si / 1000 Ang^3
#
#
#
# Elastic Constant Matrix: (Units=GPa)
#
#
# Indices 1 2 3 4 5 6 
#
# 1 84.3215 31.8176 34.0867 0.0000 0.0000 0.0000
# 2 31.8176 84.3215 34.0867 0.0000 0.0000 0.0000
# 3 34.0867 34.0867 168.0804 0.0000 0.0000 0.0000
# 4 0.0000 0.0000 0.0000 23.5287 0.0000 0.0000
# 5 0.0000 0.0000 0.0000 0.0000 23.5287 0.0000
# 6 0.0000 0.0000 0.0000 0.0000 0.0000 26.2520
#
#
#
# Elastic Compliance Matrix: (Units=1/GPa)
#
#
# Indices 1 2 3 4 5 6 
#
# 1 0.014410 -0.004636 -0.001982 0.000000 0.000000 0.000000
# 2 -0.004636 0.014410 -0.001982 0.000000 0.000000 0.000000
# 3 -0.001982 -0.001982 0.006753 0.000000 0.000000 0.000000
# 4 0.000000 0.000000 0.000000 0.042501 0.000000 0.000000
# 5 0.000000 0.000000 0.000000 0.000000 0.042501 0.000000
# 6 0.000000 0.000000 0.000000 0.000000 0.000000 0.038092
#
#
# Mechanical properties :
#
#
# Convention : Reuss Voigt Hill
#
# Bulk Modulus (GPa) = 54.42865 59.63394 57.03129
# Shear Modulus (GPa) = 27.47351 30.44405 28.95878
#
# Velocity S-wave (km/s) = 3.67311 3.86659 3.77109
# Velocity P-wave (km/s) = 6.68715 7.01564 6.85336
#
# Compressibility (1/GPa) = 0.01837268
#
# Stress axis : x y z
#
# Youngs Moduli (GPa) = 69.39608 69.39608 148.07159
#
# Poissons Ratio (x) = 0.32173 0.29350
# Poissons Ratio (y) = 0.32173 0.29350
# Poissons Ratio (z) = 0.13755 0.13755
#
# Static dielectric constant tensor:
#      x y z
#    x 1.800240 0.000000 0.000000 
#    y 0.000000 1.800240 0.000000 
#    z 0.000000 0.000000 1.832670 
# 
# From -- ./inp_files/3290.got.cif
#   From: 2010.05.17/outbox.cif.g08.bks.cpg/sg178_2_cif.got.tgz:3290.got - 2010.05.20 11:30:59.
