data_PCOD9582251
_publ_section_title
;
Structure prediction by ZEFSAII (Michael W. Deem and Ramdas Pophale) SiO2 
 PCOD9582251
Probable space group: P 6 2 2
;
_chemical_formula_sum "Si O2"
_cell_formula_units_Z 82
_cell_length_a 20.545927
_cell_length_b 20.545927
_cell_length_c 12.343608
_cell_angle_alpha 90.000000
_cell_angle_beta 90.000000
_cell_angle_gamma 120.000000
_cell_volume 4512.572936
_symmetry_space_group_name_H-M "P 6 2 2"
_symmetry_group_IT_number 177
_symmetry_cell_setting 'hexagonal'
loop_
_space_group_symop_operation_xyz
x,y,z
x-y,x,z
-y,x-y,z
-x,-y,z
-x+y,-x,z
y,-x+y,z
x-y,-y,-z
-x,-x+y,-z
y,x,-z
-y,-x,-z
-x+y,y,-z
x,x-y,-z
loop_
_atom_site_type_symbol
_atom_site_label
_atom_site_fract_x
_atom_site_fract_y
_atom_site_fract_z
Si Si1 0.666668 0.333334 0.131969
Si Si2 0.364852 0.540997 0.898457
Si Si3 0.178289 0.093183 0.128404
Si Si4 0.339972 0.167890 0.224619
Si Si5 0.453267 0.542957 0.696163
Si Si6 0.599650 0.914192 0.373378
Si Si7 0.312438 0.407810 0.619606
Si Si8 0.419824 0.209912 0.000000
O O1 0.743785 0.407441 0.162167
O O2 0.666668 0.333334 0.000000
O O3 0.419587 0.531792 0.816669
O O4 0.413037 0.586964 0.000000
O O5 0.293575 0.470924 0.952308
O O6 0.127282 0.131143 0.147268
O O7 0.251873 0.134814 0.203296
O O8 0.199536 0.099768 0.000000
O O9 0.359303 0.115272 0.295809
O O10 0.380393 0.248179 0.288416
O O11 0.372253 0.168886 0.105252
O O12 0.500000 0.500000 0.683914
O O13 0.513211 0.628150 0.663165
O O14 0.376824 0.495475 0.628351
O O15 0.603714 0.889480 0.495764
O O16 0.643881 0.004892 0.367707
#
# Coordination Sequence:
#
# PCOD9582251 Si02
#       8
#     4  12  12  12  12  12  12   6
#     4   9  18  30  51  69  94 140 193 234 267 346
#     4  11  19  35  53  78 110 153 198 237 296 357
#     4  10  21  39  63  90 122 160 200 243 297 370
#     4  12  22  38  58  92 121 158 194 246 308 370
#     4  10  21  36  56  81 113 151 200 248 297 351
#     4  10  22  38  60  86 111 155 200 254 294 357
#     4  10  21  40  60  81 117 154 202 245 305 350
#     4  12  22  34  54  82 125 154 189 244 304 366
#
# _framework density 18.171451000000001
#
# number of rings (size 3 to 8) (size 9 to 14) (size 15 to 20)
#    0.000    1.463    4.390    2.780    0.000    2.634 
#    0.000    0.000    0.000    0.000    0.000    2.049 
#    0.000    7.024    0.000    0.000    0.000    0.000 
#
# Total GULP energy -456986.923520 kJ/mol
# GULP energy per Si atom -5573.011262 kJ/mol
# Density = 1.813009 g / cm^3
# Si number density = 18.171451 Si / 1000 Ang^3
#
#
#
# Elastic Constant Matrix: (Units=GPa)
#
#
# Indices 1 2 3 4 5 6 
#
# 1 88.6545 22.4279 33.0961 0.0009 0.0010 0.0018
# 2 22.4279 88.6536 33.0956 -0.0017 -0.0023 -0.0031
# 3 33.0961 33.0956 106.3030 -0.0003 -0.0005 -0.0005
# 4 0.0009 -0.0017 -0.0003 52.2182 -0.0003 0.0017
# 5 0.0010 -0.0023 -0.0005 -0.0003 52.2357 -0.0013
# 6 0.0018 -0.0031 -0.0005 0.0017 -0.0013 33.1173
#
#
#
# Elastic Compliance Matrix: (Units=1/GPa)
#
#
# Indices 1 2 3 4 5 6 
#
# 1 0.013076 -0.002023 -0.003441 0.000000 0.000000 -0.000001
# 2 -0.002023 0.013076 -0.003441 0.000000 0.000001 0.000001
# 3 -0.003441 -0.003441 0.011550 0.000000 0.000000 0.000000
# 4 0.000000 0.000000 0.000000 0.019150 0.000000 -0.000001
# 5 0.000000 0.000001 0.000000 0.000000 0.019144 0.000001
# 6 -0.000001 0.000001 0.000000 -0.000001 0.000001 0.030196
#
#
# Mechanical properties :
#
#
# Convention : Reuss Voigt Hill
#
# Bulk Modulus (GPa) = 50.27414 51.20559 50.73987
# Shear Modulus (GPa) = 38.27478 40.51368 39.39423
#
# Velocity S-wave (km/s) = 4.59444 4.72691 4.66114
# Velocity P-wave (km/s) = 7.47474 7.61786 7.54664
#
# Compressibility (1/GPa) = 0.01989094
#
# Stress axis : x y z
#
# Youngs Moduli (GPa) = 76.47432 76.47379 86.58178
#
# Poissons Ratio (x) = 0.15474 0.29794
# Poissons Ratio (y) = 0.15474 0.29794
# Poissons Ratio (z) = 0.26316 0.26316
#
# Static dielectric constant tensor:
#      x y z
#    x 1.573650 -0.000010 0.000000 
#    y -0.000010 1.573610 0.000000 
#    z 0.000000 0.000000 1.601770 
# 
# From -- ./inp_files/2127.got.cif
#   From: 2010.05.17/outbox.cif.g08.bks.cpg/sg177_2_cif.got.tgz:2127.got - 2010.05.20 11:28:44.
