data_PCOD9582567
_publ_section_title
;
Structure prediction by ZEFSAII (Michael W. Deem and Ramdas Pophale) SiO2 
 PCOD9582567
Probable space group: P 61 2 2
;
_chemical_formula_sum "Si O2"
_cell_formula_units_Z 54
_cell_length_a 17.669321
_cell_length_b 17.669321
_cell_length_c 11.387096
_cell_angle_alpha 90.000000
_cell_angle_beta 90.000000
_cell_angle_gamma 120.000000
_cell_volume 3078.813166
_symmetry_space_group_name_H-M "P 61 2 2"
_symmetry_group_IT_number 178
_symmetry_cell_setting 'hexagonal'
loop_
_space_group_symop_operation_xyz
x,y,z
x-y,x,1/6+z
-y,x-y,1/3+z
-x,-y,1/2+z
-x+y,-x,2/3+z
y,-x+y,5/6+z
x-y,-y,-z
-x,-x+y,2/3-z
y,x,1/3-z
-y,-x,5/6-z
-x+y,y,1/2-z
x,x-y,1/6-z
loop_
_atom_site_type_symbol
_atom_site_label
_atom_site_fract_x
_atom_site_fract_y
_atom_site_fract_z
Si Si1 0.683491 0.159426 0.961041
Si Si2 0.876528 0.237264 0.647711
Si Si3 0.922787 0.269686 0.075710
Si Si4 0.515373 0.611117 0.724089
Si Si5 0.544820 0.772410 0.583334
O O1 0.739890 0.260111 0.916667
O O2 0.723232 0.112798 0.882970
O O3 0.582725 0.115543 0.925115
O O4 0.702382 0.143212 0.095267
O O5 0.826093 0.140841 0.704980
O O6 0.830991 0.230640 0.524507
O O7 0.977185 0.277731 0.614823
O O8 0.908498 0.334819 0.163729
O O9 0.571292 0.571292 0.666667
O O10 0.499908 0.675900 0.638955
#
# Coordination Sequence:
#
# PCOD9582567 Si02
#       5
#    12  12  12  12   6
#     4  10  22  37  53  80 112 152 194 242 288 345
#     4  10  20  36  56  81 114 142 190 236 289 348
#     4  10  20  36  58  81 115 143 195 238 290 349
#     4  11  20  36  57  77 111 151 194 237 292 347
#     4  10  22  36  50  82 108 142 188 240 276 346
#
# _framework density 17.539224999999998
#
# number of rings (size 3 to 8) (size 9 to 14) (size 15 to 20)
#    0.000    1.778    2.222    2.667    0.000    0.889 
#   12.000    0.000    0.000    0.000    0.000    0.000 
#   56.667    0.000    0.000    0.000    0.000    0.000 
#
# Total GULP energy -300615.702349 kJ/mol
# GULP energy per Si atom -5566.957451 kJ/mol
# Density = 1.749931 g / cm^3
# Si number density = 17.539225 Si / 1000 Ang^3
#
#
#
# Elastic Constant Matrix: (Units=GPa)
#
#
# Indices 1 2 3 4 5 6 
#
# 1 78.7946 29.7689 29.7972 0.0000 0.0000 0.0000
# 2 29.7689 78.7946 29.7972 0.0000 0.0000 0.0000
# 3 29.7972 29.7972 103.1794 0.0000 0.0000 0.0000
# 4 0.0000 0.0000 0.0000 20.9885 0.0000 0.0000
# 5 0.0000 0.0000 0.0000 0.0000 20.9885 0.0000
# 6 0.0000 0.0000 0.0000 0.0000 0.0000 24.5128
#
#
#
# Elastic Compliance Matrix: (Units=1/GPa)
#
#
# Indices 1 2 3 4 5 6 
#
# 1 0.015672 -0.004725 -0.003161 0.000000 0.000000 0.000000
# 2 -0.004725 0.015672 -0.003161 0.000000 0.000000 0.000000
# 3 -0.003161 -0.003161 0.011518 0.000000 0.000000 0.000000
# 4 0.000000 0.000000 0.000000 0.047645 0.000000 0.000000
# 5 0.000000 0.000000 0.000000 0.000000 0.047645 0.000000
# 6 0.000000 0.000000 0.000000 0.000000 0.000000 0.040795
#
#
# Mechanical properties :
#
#
# Convention : Reuss Voigt Hill
#
# Bulk Modulus (GPa) = 48.15612 48.83278 48.49445
# Shear Modulus (GPa) = 24.04252 24.72498 24.38375
#
# Velocity S-wave (km/s) = 3.70643 3.75867 3.73264
# Velocity P-wave (km/s) = 6.76998 6.83661 6.80338
#
# Compressibility (1/GPa) = 0.02076579
#
# Stress axis : x y z
#
# Youngs Moduli (GPa) = 63.80807 63.80807 86.82267
#
# Poissons Ratio (x) = 0.30152 0.27447
# Poissons Ratio (y) = 0.30152 0.27447
# Poissons Ratio (z) = 0.20171 0.20171
#
# Static dielectric constant tensor:
#      x y z
#    x 1.646230 0.000000 0.000000 
#    y 0.000000 1.646230 0.000000 
#    z 0.000000 0.000000 1.628350 
# 
# From -- ./inp_files/4394.got.cif
#   From: 2010.05.17/outbox.cif.g08.bks.cpg/sg178_3_cif.got.tgz:4394.got - 2010.05.20 11:30:59.
