data_PCOD9582953
_publ_section_title
;
Structure prediction by ZEFSAII (Michael W. Deem and Ramdas Pophale) SiO2 
 PCOD9582953
Probable space group: P 61 2 2
;
_chemical_formula_sum "Si O2"
_cell_formula_units_Z 66
_cell_length_a 12.946246
_cell_length_b 12.946246
_cell_length_c 24.154837
_cell_angle_alpha 90.000000
_cell_angle_beta 90.000000
_cell_angle_gamma 120.000000
_cell_volume 3506.085099
_symmetry_space_group_name_H-M "P 61 2 2"
_symmetry_group_IT_number 178
_symmetry_cell_setting 'hexagonal'
loop_
_space_group_symop_operation_xyz
x,y,z
x-y,x,1/6+z
-y,x-y,1/3+z
-x,-y,1/2+z
-x+y,-x,2/3+z
y,-x+y,5/6+z
x-y,-y,-z
-x,-x+y,2/3-z
y,x,1/3-z
-y,-x,5/6-z
-x+y,y,1/2-z
x,x-y,1/6-z
loop_
_atom_site_type_symbol
_atom_site_label
_atom_site_fract_x
_atom_site_fract_y
_atom_site_fract_z
Si Si1 0.565254 0.000000 0.000000
Si Si2 0.476242 0.088641 0.696862
Si Si3 0.432957 0.817667 0.416603
Si Si4 0.902575 0.994198 0.217196
Si Si5 0.144801 0.769313 0.133042
Si Si6 0.213395 0.348971 0.591654
O O1 0.553712 0.106814 0.972013
O O2 0.618844 0.958400 0.949984
O O3 0.561507 0.123013 0.750000
O O4 0.542144 0.111759 0.638536
O O5 0.407681 0.163345 0.698823
O O6 0.368861 0.954945 0.706294
O O7 0.309566 0.690435 0.416667
O O8 0.545954 0.799673 0.407182
O O9 0.851484 0.083776 0.208590
O O10 0.026902 0.053803 0.250000
O O11 0.791825 0.878881 0.245516
O O12 0.935513 0.935513 0.166667
O O13 0.181252 0.781787 0.197454
#
# Coordination Sequence:
#
# PCOD9582953 Si02
#       6
#     6  12  12  12  12  12
#     4  12  24  40  66 104 132 170 226 288 338 402
#     4  11  22  39  66  91 124 169 221 271 327 403
#     4  12  25  43  67  96 137 179 224 284 338 408
#     4  11  22  38  64  96 131 165 214 278 338 392
#     4  11  24  41  63  95 134 176 217 271 342 410
#     4  11  21  36  66  99 126 158 221 282 341 389
#
# _framework density 18.824414999999998
#
# number of rings (size 3 to 8) (size 9 to 14) (size 15 to 20)
#    0.000    0.727    8.182    0.545    0.000    0.727 
#    1.636    0.000    0.000    0.000    0.000    0.000 
#    0.000    0.000    0.000    0.000    0.000    0.000 
#
# Total GULP energy -367932.689809 kJ/mol
# GULP energy per Si atom -5574.737724 kJ/mol
# Density = 1.878157 g / cm^3
# Si number density = 18.824415 Si / 1000 Ang^3
#
#
#
# Elastic Constant Matrix: (Units=GPa)
#
#
# Indices 1 2 3 4 5 6 
#
# 1 100.0808 54.1758 26.3898 0.0000 0.0000 0.0000
# 2 54.1758 100.0808 26.3898 0.0000 0.0000 0.0000
# 3 26.3898 26.3898 62.7002 0.0000 0.0000 0.0000
# 4 0.0000 0.0000 0.0000 25.0091 0.0000 0.0000
# 5 0.0000 0.0000 0.0000 0.0000 25.0091 0.0000
# 6 0.0000 0.0000 0.0000 0.0000 0.0000 22.9525
#
#
#
# Elastic Compliance Matrix: (Units=1/GPa)
#
#
# Indices 1 2 3 4 5 6 
#
# 1 0.014679 -0.007105 -0.003188 0.000000 0.000000 0.000000
# 2 -0.007105 0.014679 -0.003188 0.000000 0.000000 0.000000
# 3 -0.003188 -0.003188 0.018632 0.000000 0.000000 0.000000
# 4 0.000000 0.000000 0.000000 0.039985 0.000000 0.000000
# 5 0.000000 0.000000 0.000000 0.000000 0.039985 0.000000
# 6 0.000000 0.000000 0.000000 0.000000 0.000000 0.043568
#
#
# Mechanical properties :
#
#
# Convention : Reuss Voigt Hill
#
# Bulk Modulus (GPa) = 47.55419 52.97474 50.26446
# Shear Modulus (GPa) = 24.33100 24.98790 24.65945
#
# Velocity S-wave (km/s) = 3.59907 3.64733 3.62328
# Velocity P-wave (km/s) = 6.52594 6.77790 6.65311
#
# Compressibility (1/GPa) = 0.02102864
#
# Stress axis : x y z
#
# Youngs Moduli (GPa) = 68.12585 68.12585 53.67081
#
# Poissons Ratio (x) = 0.48406 0.17108
# Poissons Ratio (y) = 0.48406 0.17108
# Poissons Ratio (z) = 0.21715 0.21715
#
# Static dielectric constant tensor:
#      x y z
#    x 1.671350 0.000000 0.000000 
#    y 0.000000 1.671350 0.000000 
#    z 0.000000 0.000000 1.683180 
# 
# From -- ./inp_files/9540.got.cif
#   From: 2010.05.17/outbox.cif.g08.bks.cpg/sg178_5_cif.got.tgz:9540.got - 2010.05.20 11:30:59.
