data_PCOD9582116
_publ_section_title
;
Structure prediction by ZEFSAII (Michael W. Deem and Ramdas Pophale) SiO2 
 PCOD9582116
Probable space group: P 63/M
;
_chemical_formula_sum "Si O2"
_cell_formula_units_Z 48
_cell_length_a 12.445150
_cell_length_b 12.445150
_cell_length_c 18.139057
_cell_angle_alpha 90.000000
_cell_angle_beta 90.000000
_cell_angle_gamma 120.000000
_cell_volume 2433.019604
_symmetry_space_group_name_H-M "P 63/M"
_symmetry_group_IT_number 176
_symmetry_cell_setting 'hexagonal'
loop_
_space_group_symop_operation_xyz
x,y,z
x-y,x,1/2+z
-y,x-y,z
-x,-y,1/2+z
-x+y,-x,z
y,-x+y,1/2+z
-x,-y,-z
-x+y,-x,1/2-z
y,-x+y,-z
x,y,1/2-z
x-y,x,-z
-y,x-y,1/2-z
loop_
_atom_site_type_symbol
_atom_site_label
_atom_site_fract_x
_atom_site_fract_y
_atom_site_fract_z
Si Si1 0.397225 0.246947 0.416494
Si Si2 0.602773 0.849722 0.416496
Si Si3 0.000000 0.000000 0.587414
Si Si4 0.333335 0.666668 0.911927
Si Si5 0.666667 0.333333 0.588067
Si Si6 0.770366 0.000003 0.662988
O O1 0.317510 0.317510 0.412695
O O2 0.390117 0.195058 0.499999
O O3 0.540652 0.333275 0.393207
O O4 0.345469 0.127562 0.363859
O O5 0.459345 0.792624 0.393212
O O6 0.654527 0.782091 0.363861
O O7 0.999996 0.881702 0.618924
O O8 0.000000 0.000000 0.500000
O O9 0.333334 0.666667 0.999997
O O10 0.787136 0.000004 0.750000
#
# Coordination Sequence:
#
# PCOD9582116 Si02
#       6
#    12  12   4   4   4  12
#     4  11  22  39  66  95 127 166 214 265 319 374
#     4  11  22  39  66  95 127 166 214 265 319 374
#     4  12  22  38  61  96 127 164 211 261 328 371
#     4   9  24  39  64  98 124 165 220 269 307 372
#     4   9  24  39  64  98 124 165 220 269 307 372
#     4  12  24  38  60  94 134 166 206 260 318 383
#
# _framework density 19.728570000000001
#
# number of rings (size 3 to 8) (size 9 to 14) (size 15 to 20)
#    0.000    1.000    5.000    2.250    3.500    3.000 
#    0.000    2.500    0.000    0.000    0.000    0.000 
#    0.000    0.000    0.000    0.000    0.000    0.000 
#
# Total GULP energy -267760.031090 kJ/mol
# GULP energy per Si atom -5578.333981 kJ/mol
# Density = 1.968367 g / cm^3
# Si number density = 19.728570 Si / 1000 Ang^3
#
#
#
# Elastic Constant Matrix: (Units=GPa)
#
#
# Indices 1 2 3 4 5 6 
#
# 1 94.3849 63.5329 20.5663 0.0000 0.0000 0.0004
# 2 63.5329 94.3836 20.5663 0.0000 0.0000 -0.0010
# 3 20.5663 20.5663 125.7324 0.0000 0.0000 -0.0003
# 4 0.0000 0.0000 0.0000 -18.1415 0.0002 0.0000
# 5 0.0000 0.0000 0.0000 0.0002 -18.1418 0.0000
# 6 0.0004 -0.0010 -0.0003 0.0000 0.0000 15.4285
#
#
#
# Elastic Compliance Matrix: (Units=1/GPa)
#
#
# Indices 1 2 3 4 5 6 
#
# 1 0.019514 -0.012900 -0.001082 0.000000 0.000000 -0.000001
# 2 -0.012900 0.019514 -0.001082 0.000000 0.000000 0.000002
# 3 -0.001082 -0.001082 0.008307 0.000000 0.000000 0.000000
# 4 0.000000 0.000000 0.000000 -0.055122 -0.000001 0.000000
# 5 0.000000 0.000000 0.000000 -0.000001 -0.055121 0.000000
# 6 -0.000001 0.000002 0.000000 0.000000 0.000000 0.064815
#
#
# Mechanical properties :
#
#
# Convention : Reuss Voigt Hill
#
# Bulk Modulus (GPa) = 58.11185 58.20355 58.15770
# Shear Modulus (GPa) = 132.38203 9.81807 71.10005
#
# Velocity S-wave (km/s) = 8.20045 2.23324 6.00977
# Velocity P-wave (km/s) = 10.91709 6.01798 8.81473
#
# Compressibility (1/GPa) = 0.01720820
#
# Stress axis : x y z
#
# Youngs Moduli (GPa) = 51.24595 51.24522 120.37552
#
# Poissons Ratio (x) = 0.66104 0.13023
# Poissons Ratio (y) = 0.66105 0.13024
# Poissons Ratio (z) = 0.05544 0.05544
#
# Static dielectric constant tensor:
#      x y z
#    x 1.757160 0.000000 0.000000 
#    y 0.000000 1.757160 0.000000 
#    z 0.000000 0.000000 1.655660 
# 
# From -- ./inp_files/3687.got.cif
#   From: 2010.05.17/outbox.cif.g08.bks.cpg/sg176_2_cif.got.tgz:3687.got - 2010.06.03 11:36:45.
