data_PCOD9582792
_publ_section_title
;
Structure prediction by ZEFSAII (Michael W. Deem and Ramdas Pophale) SiO2 
 PCOD9582792
Probable space group: P 61 2 2
;
_chemical_formula_sum "Si O2"
_cell_formula_units_Z 54
_cell_length_a 10.891676
_cell_length_b 10.891676
_cell_length_c 23.014085
_cell_angle_alpha 90.000000
_cell_angle_beta 90.000000
_cell_angle_gamma 120.000000
_cell_volume 2364.360917
_symmetry_space_group_name_H-M "P 61 2 2"
_symmetry_group_IT_number 178
_symmetry_cell_setting 'hexagonal'
loop_
_space_group_symop_operation_xyz
x,y,z
x-y,x,1/6+z
-y,x-y,1/3+z
-x,-y,1/2+z
-x+y,-x,2/3+z
y,-x+y,5/6+z
x-y,-y,-z
-x,-x+y,2/3-z
y,x,1/3-z
-y,-x,5/6-z
-x+y,y,1/2-z
x,x-y,1/6-z
loop_
_atom_site_type_symbol
_atom_site_label
_atom_site_fract_x
_atom_site_fract_y
_atom_site_fract_z
Si Si1 0.043342 0.778623 0.084679
Si Si2 0.799777 0.351019 0.713969
Si Si3 0.568405 0.136810 0.250000
Si Si4 0.803653 0.017769 0.123040
Si Si5 0.689213 0.028672 0.431405
O O1 0.972144 0.842716 0.043671
O O2 0.039045 0.635504 0.067224
O O3 0.965134 0.756922 0.145474
O O4 0.209440 0.886147 0.092791
O O5 0.656042 0.312084 0.750000
O O6 0.781063 0.362565 0.643992
O O7 0.878930 0.260639 0.723431
O O8 0.915117 0.507780 0.736650
O O9 0.769227 0.884614 0.083334
O O10 0.846483 0.153518 0.416667
O O11 0.659314 0.000000 0.500000
#
# Coordination Sequence:
#
# PCOD9582792 Si02
#       5
#    12  12   6  12  12
#     4  11  22  40  65  91 129 171 227 277 347 416
#     4  10  23  44  70  99 138 182 240 294 365 429
#     4  10  22  42  66 104 128 184 240 296 354 438
#     4  11  24  41  64  94 135 175 223 281 352 426
#     4  11  22  40  67  98 128 173 232 296 353 428
#
# _framework density 22.839154000000001
#
# number of rings (size 3 to 8) (size 9 to 14) (size 15 to 20)
#    0.000    1.333    0.000    6.667    1.556    1.778 
#    6.000    0.000    0.000    0.000    0.000    0.000 
#    0.000    0.000    0.000    0.000    0.000    0.000 
#
# Total GULP energy -301468.715292 kJ/mol
# GULP energy per Si atom -5582.753987 kJ/mol
# Density = 2.278717 g / cm^3
# Si number density = 22.839154 Si / 1000 Ang^3
#
#
#
# Elastic Constant Matrix: (Units=GPa)
#
#
# Indices 1 2 3 4 5 6 
#
# 1 88.1193 38.4682 31.7724 0.0000 0.0000 0.0000
# 2 38.4682 88.1193 31.7724 0.0000 0.0000 0.0000
# 3 31.7724 31.7724 154.9038 0.0000 0.0000 0.0000
# 4 0.0000 0.0000 0.0000 33.9434 0.0000 0.0000
# 5 0.0000 0.0000 0.0000 0.0000 33.9434 0.0000
# 6 0.0000 0.0000 0.0000 0.0000 0.0000 24.8255
#
#
#
# Elastic Compliance Matrix: (Units=1/GPa)
#
#
# Indices 1 2 3 4 5 6 
#
# 1 0.014473 -0.005667 -0.001806 0.000000 0.000000 0.000000
# 2 -0.005667 0.014473 -0.001806 0.000000 0.000000 0.000000
# 3 -0.001806 -0.001806 0.007197 0.000000 0.000000 0.000000
# 4 0.000000 0.000000 0.000000 0.029461 0.000000 0.000000
# 5 0.000000 0.000000 0.000000 0.000000 0.029461 0.000000
# 6 0.000000 0.000000 0.000000 0.000000 0.000000 0.040281
#
#
# Mechanical properties :
#
#
# Convention : Reuss Voigt Hill
#
# Bulk Modulus (GPa) = 56.86907 59.46316 58.16611
# Shear Modulus (GPa) = 31.29557 33.81775 32.55666
#
# Velocity S-wave (km/s) = 3.70572 3.85215 3.77964
# Velocity P-wave (km/s) = 6.57751 6.77330 6.67612
#
# Compressibility (1/GPa) = 0.01758425
#
# Stress axis : x y z
#
# Youngs Moduli (GPa) = 69.09185 69.09185 138.95451
#
# Poissons Ratio (x) = 0.39155 0.25099
# Poissons Ratio (y) = 0.39155 0.25099
# Poissons Ratio (z) = 0.12480 0.12480
#
# Static dielectric constant tensor:
#      x y z
#    x 1.881290 0.000000 0.000000 
#    y 0.000000 1.881290 0.000000 
#    z 0.000000 0.000000 1.910630 
# 
# From -- ./inp_files/8171.got.cif
#   From: 2010.05.17/outbox.cif.g08.bks.cpg/sg178_5_cif.got.tgz:8171.got - 2010.05.20 11:30:59.
