data_PCOD9582284
_publ_section_title
;
Structure prediction by ZEFSAII (Michael W. Deem and Ramdas Pophale) SiO2 
 PCOD9582284
Probable space group: P 6 2 2
;
_chemical_formula_sum "Si O2"
_cell_formula_units_Z 28
_cell_length_a 12.673606
_cell_length_b 12.673606
_cell_length_c 8.500613
_cell_angle_alpha 90.000000
_cell_angle_beta 90.000000
_cell_angle_gamma 120.000000
_cell_volume 1182.445900
_symmetry_space_group_name_H-M "P 6 2 2"
_symmetry_group_IT_number 177
_symmetry_cell_setting 'hexagonal'
loop_
_space_group_symop_operation_xyz
x,y,z
x-y,x,z
-y,x-y,z
-x,-y,z
-x+y,-x,z
y,-x+y,z
x-y,-y,-z
-x,-x+y,-z
y,x,-z
-y,-x,-z
-x+y,y,-z
x,x-y,-z
loop_
_atom_site_type_symbol
_atom_site_label
_atom_site_fract_x
_atom_site_fract_y
_atom_site_fract_z
Si Si1 0.333334 0.666668 0.184242
Si Si2 0.672002 0.537334 0.605711
Si Si3 0.748301 0.001592 0.180252
O O1 0.224911 0.541759 0.253604
O O2 0.333334 0.666667 0.000000
O O3 0.561528 0.438473 0.500000
O O4 0.791951 0.583902 0.500000
O O5 0.665447 0.646660 0.690550
O O6 0.880995 0.122527 0.198360
O O7 0.706148 0.000000 0.000000
#
# Coordination Sequence:
#
# PCOD9582284 Si02
#       3
#     4  12  12
#     4   9  19  35  70  96 136 185 235 288 364 431
#     4   9  20  42  66 100 142 185 231 297 367 439
#     4  10  22  41  71 103 143 188 245 301 358 428
#
# _framework density 23.679728000000001
#
# number of rings (size 3 to 8) (size 9 to 14) (size 15 to 20)
#    0.000    2.571    0.000    2.143    6.000    3.429 
#    0.000   21.429    0.000    2.571    0.000    0.000 
#    0.000    0.000    0.000    0.000    0.000    0.429 
#
# Total GULP energy -156757.353244 kJ/mol
# GULP energy per Si atom -5598.476902 kJ/mol
# Density = 2.362583 g / cm^3
# Si number density = 23.679728 Si / 1000 Ang^3
#
#
#
# Elastic Constant Matrix: (Units=GPa)
#
#
# Indices 1 2 3 4 5 6 
#
# 1 107.1098 23.1591 71.8807 0.0000 0.0002 -0.0002
# 2 23.1591 107.1085 71.8797 0.0000 0.0001 -0.0002
# 3 71.8807 71.8797 195.9191 0.0001 0.0002 -0.0004
# 4 0.0000 0.0000 0.0001 44.0399 -0.0001 0.0000
# 5 0.0002 0.0001 0.0002 -0.0001 44.0404 0.0000
# 6 -0.0002 -0.0002 -0.0004 0.0000 0.0000 41.9749
#
#
#
# Elastic Compliance Matrix: (Units=1/GPa)
#
#
# Indices 1 2 3 4 5 6 
#
# 1 0.012405 0.000494 -0.004733 0.000000 0.000000 0.000000
# 2 0.000494 0.012406 -0.004733 0.000000 0.000000 0.000000
# 3 -0.004733 -0.004733 0.008577 0.000000 0.000000 0.000000
# 4 0.000000 0.000000 0.000000 0.022707 0.000000 0.000000
# 5 0.000000 0.000000 0.000000 0.000000 0.022706 0.000000
# 6 0.000000 0.000000 0.000000 0.000000 0.000000 0.023824
#
#
# Mechanical properties :
#
#
# Convention : Reuss Voigt Hill
#
# Bulk Modulus (GPa) = 64.74614 82.66404 73.70509
# Shear Modulus (GPa) = 39.77226 42.22556 40.99891
#
# Velocity S-wave (km/s) = 4.10273 4.22737 4.16551
# Velocity P-wave (km/s) = 7.06010 7.66893 7.37080
#
# Compressibility (1/GPa) = 0.01544494
#
# Stress axis : x y z
#
# Youngs Moduli (GPa) = 80.60966 80.60914 116.59420
#
# Poissons Ratio (x) = -0.03979 0.55179
# Poissons Ratio (y) = -0.03979 0.55178
# Poissons Ratio (z) = 0.38149 0.38148
#
# Static dielectric constant tensor:
#      x y z
#    x 1.920450 0.000000 0.000000 
#    y 0.000000 1.920460 0.000000 
#    z 0.000000 0.000000 1.902140 
# 
# From -- ./inp_files/843.got.cif
#   From: 2010.05.17/outbox.cif.g08.bks.cpg/sg177_1_cif.got.tgz:843.got - 2010.05.20 11:28:44.
