data_PCOD9582058
_publ_section_title
;
Structure prediction by ZEFSAII (Michael W. Deem and Ramdas Pophale) SiO2 
 PCOD9582058
Probable space group: P 63/M
;
_chemical_formula_sum "Si O2"
_cell_formula_units_Z 72
_cell_length_a 13.147691
_cell_length_b 13.147691
_cell_length_c 19.834306
_cell_angle_alpha 90.000000
_cell_angle_beta 90.000000
_cell_angle_gamma 120.000000
_cell_volume 2969.248995
_symmetry_space_group_name_H-M "P 63/M"
_symmetry_group_IT_number 176
_symmetry_cell_setting 'hexagonal'
loop_
_space_group_symop_operation_xyz
x,y,z
x-y,x,1/2+z
-y,x-y,z
-x,-y,1/2+z
-x+y,-x,z
y,-x+y,1/2+z
-x,-y,-z
-x+y,-x,1/2-z
y,-x+y,-z
x,y,1/2-z
x-y,x,-z
-y,x-y,1/2-z
loop_
_atom_site_type_symbol
_atom_site_label
_atom_site_fract_x
_atom_site_fract_y
_atom_site_fract_z
Si Si1 0.482056 0.750213 0.067382
Si Si2 0.112831 0.759125 0.321474
Si Si3 0.793665 0.792281 0.041545
Si Si4 0.481140 0.368700 0.173541
Si Si5 0.253446 0.131049 0.174327
Si Si6 0.388179 0.473994 0.953404
O O1 0.386606 0.791612 0.083356
O O2 0.607524 0.772135 0.840476
O O3 0.504987 0.794305 0.990744
O O4 0.191364 0.784579 0.385691
O O5 0.177084 0.794475 0.250000
O O6 0.333296 0.010615 0.451121
O O7 0.846040 0.807908 0.116263
O O8 0.783124 0.982037 0.175405
O O9 0.884560 0.779936 0.991377
O O10 0.530497 0.381070 0.250000
O O11 0.382032 0.407521 0.177844
O O12 0.566723 0.445867 0.113715
O O13 0.247190 0.085332 0.250000
O O14 0.500000 0.500000 0.000000
#
# Coordination Sequence:
#
# PCOD9582058 Si02
#       6
#    12  12  12  12  12  12
#     4  10  23  31  51  90 134 167 220 272 348 434
#     4   8  15  34  59  85 123 172 218 275 339 408
#     4  12  27  44  71 102 142 190 251 311 380 450
#     4   8  17  35  63  92 124 168 230 292 345 422
#     4   8  18  41  71  98 131 182 240 298 357 424
#     4  12  23  40  67  91 133 182 231 293 368 442
#
# _framework density 24.248557999999999
#
# number of rings (size 3 to 8) (size 9 to 14) (size 15 to 20)
#    1.333    1.000    1.667    2.167    4.667    1.333 
#    0.000    0.833    0.000    2.000    0.000    0.000 
#    0.000    0.000    0.000    0.000    0.000    0.000 
#
# Total GULP energy -401309.608107 kJ/mol
# GULP energy per Si atom -5573.744557 kJ/mol
# Density = 2.419337 g / cm^3
# Si number density = 24.248558 Si / 1000 Ang^3
#
#
#
# Elastic Constant Matrix: (Units=GPa)
#
#
# Indices 1 2 3 4 5 6 
#
# 1 79.2336 18.8350 58.6750 0.0000 0.0000 0.0000
# 2 18.8350 79.2336 58.6750 0.0000 0.0000 0.0000
# 3 58.6750 58.6750 200.1259 0.0000 0.0000 0.0000
# 4 0.0000 0.0000 0.0000 26.6676 0.0000 0.0000
# 5 0.0000 0.0000 0.0000 0.0000 26.6676 0.0000
# 6 0.0000 0.0000 0.0000 0.0000 0.0000 30.1993
#
#
#
# Elastic Compliance Matrix: (Units=1/GPa)
#
#
# Indices 1 2 3 4 5 6 
#
# 1 0.016132 -0.000424 -0.004605 0.000000 0.000000 0.000000
# 2 -0.000424 0.016132 -0.004605 0.000000 0.000000 0.000000
# 3 -0.004605 -0.004605 0.007697 0.000000 0.000000 0.000000
# 4 0.000000 0.000000 0.000000 0.037499 0.000000 0.000000
# 5 0.000000 0.000000 0.000000 0.000000 0.037499 0.000000
# 6 0.000000 0.000000 0.000000 0.000000 0.000000 0.033113
#
#
# Mechanical properties :
#
#
# Convention : Reuss Voigt Hill
#
# Bulk Modulus (GPa) = 48.32916 70.10701 59.21809
# Shear Modulus (GPa) = 28.69606 31.53413 30.11509
#
# Velocity S-wave (km/s) = 3.44381 3.61009 3.52793
# Velocity P-wave (km/s) = 5.98223 6.80820 6.40854
#
# Compressibility (1/GPa) = 0.02069144
#
# Stress axis : x y z
#
# Youngs Moduli (GPa) = 61.98773 61.98773 129.91477
#
# Poissons Ratio (x) = 0.02631 0.59831
# Poissons Ratio (y) = 0.02631 0.59831
# Poissons Ratio (z) = 0.28548 0.28548
#
# Static dielectric constant tensor:
#      x y z
#    x 2.010700 0.000000 0.000000 
#    y 0.000000 2.010700 0.000000 
#    z 0.000000 0.000000 1.966170 
# 
# From -- ./inp_files/3388.got.cif
#   From: 2010.05.17/outbox.cif.g08.bks.cpg/sg176_2_cif.got.tgz:3388.got - 2010.06.03 11:36:45.
