data_PCOD9582902
_publ_section_title
;
Structure prediction by ZEFSAII (Michael W. Deem and Ramdas Pophale) SiO2 
 PCOD9582902
Probable space group: P 61 2 2
;
_chemical_formula_sum "Si O2"
_cell_formula_units_Z 66
_cell_length_a 11.508002
_cell_length_b 11.508002
_cell_length_c 25.727781
_cell_angle_alpha 90.000000
_cell_angle_beta 90.000000
_cell_angle_gamma 120.000000
_cell_volume 2950.752742
_symmetry_space_group_name_H-M "P 61 2 2"
_symmetry_group_IT_number 178
_symmetry_cell_setting 'hexagonal'
loop_
_space_group_symop_operation_xyz
x,y,z
x-y,x,1/6+z
-y,x-y,1/3+z
-x,-y,1/2+z
-x+y,-x,2/3+z
y,-x+y,5/6+z
x-y,-y,-z
-x,-x+y,2/3-z
y,x,1/3-z
-y,-x,5/6-z
-x+y,y,1/2-z
x,x-y,1/6-z
loop_
_atom_site_type_symbol
_atom_site_label
_atom_site_fract_x
_atom_site_fract_y
_atom_site_fract_z
Si Si1 0.923407 0.775322 0.604540
Si Si2 0.000000 0.339275 0.333334
Si Si3 0.594079 0.515254 0.863200
Si Si4 0.145469 0.977758 0.343980
Si Si5 0.542859 0.899295 0.126128
Si Si6 0.384655 0.773590 0.481701
O O1 0.952535 0.781928 0.543486
O O2 0.770009 0.726601 0.620400
O O3 0.948729 0.665513 0.632939
O O4 0.031464 0.919190 0.626632
O O5 0.879062 0.365962 0.347493
O O6 0.513710 0.486291 0.916667
O O7 0.495436 0.485122 0.815976
O O8 0.655309 0.416774 0.861404
O O9 0.248540 0.948753 0.375448
O O10 0.000000 0.847230 0.333334
O O11 0.478232 0.769343 0.164674
O O12 0.464807 0.850204 0.071519
#
# Coordination Sequence:
#
# PCOD9582902 Si02
#       6
#    12   6  12  12  12  12
#     4  11  26  44  73 101 142 190 250 299 371 443
#     4  10  24  48  72  96 142 194 238 310 360 440
#     4  11  22  46  71  99 139 188 238 295 362 439
#     4  12  27  44  71 106 146 188 242 305 374 441
#     4  11  25  43  77 100 147 185 235 306 371 439
#     4  10  25  47  71 103 143 187 243 298 371 440
#
# _framework density 22.367172
#
# number of rings (size 3 to 8) (size 9 to 14) (size 15 to 20)
#    0.000    1.091    4.545    0.545   14.000    0.000 
#    3.273    0.000    0.000    0.000    0.000    0.000 
#    0.000    0.000    0.000    0.000    0.000    0.000 
#
# Total GULP energy -368773.093188 kJ/mol
# GULP energy per Si atom -5587.471109 kJ/mol
# Density = 2.231626 g / cm^3
# Si number density = 22.367172 Si / 1000 Ang^3
#
#
#
# Elastic Constant Matrix: (Units=GPa)
#
#
# Indices 1 2 3 4 5 6 
#
# 1 113.7753 54.1699 27.8647 0.0000 0.0000 0.0000
# 2 54.1699 113.7753 27.8647 0.0000 0.0000 0.0000
# 3 27.8647 27.8647 52.1795 0.0000 0.0000 0.0000
# 4 0.0000 0.0000 0.0000 30.3074 0.0000 0.0000
# 5 0.0000 0.0000 0.0000 0.0000 30.3074 0.0000
# 6 0.0000 0.0000 0.0000 0.0000 0.0000 29.8027
#
#
#
# Elastic Compliance Matrix: (Units=1/GPa)
#
#
# Indices 1 2 3 4 5 6 
#
# 1 0.012007 -0.004770 -0.003865 0.000000 0.000000 0.000000
# 2 -0.004770 0.012007 -0.003865 0.000000 0.000000 0.000000
# 3 -0.003865 -0.003865 0.023292 0.000000 0.000000 0.000000
# 4 0.000000 0.000000 0.000000 0.032995 0.000000 0.000000
# 5 0.000000 0.000000 0.000000 0.000000 0.032995 0.000000
# 6 0.000000 0.000000 0.000000 0.000000 0.000000 0.033554
#
#
# Mechanical properties :
#
#
# Convention : Reuss Voigt Hill
#
# Bulk Modulus (GPa) = 44.82824 55.50320 50.16572
# Shear Modulus (GPa) = 27.88865 29.40555 28.64710
#
# Velocity S-wave (km/s) = 3.53492 3.62978 3.58266
# Velocity P-wave (km/s) = 6.06188 6.51425 6.29213
#
# Compressibility (1/GPa) = 0.02230737
#
# Stress axis : x y z
#
# Youngs Moduli (GPa) = 83.28582 83.28582 42.93315
#
# Poissons Ratio (x) = 0.39729 0.16592
# Poissons Ratio (y) = 0.39729 0.16592
# Poissons Ratio (z) = 0.32186 0.32186
#
# Static dielectric constant tensor:
#      x y z
#    x 1.840250 0.000000 0.000000 
#    y 0.000000 1.840250 0.000000 
#    z 0.000000 0.000000 1.852020 
# 
# From -- ./inp_files/9514.got.cif
#   From: 2010.05.17/outbox.cif.g08.bks.cpg/sg178_5_cif.got.tgz:9514.got - 2010.05.20 11:30:59.
