data_PCOD9582163
_publ_section_title
;
Structure prediction by ZEFSAII (Michael W. Deem and Ramdas Pophale) SiO2 
 PCOD9582163
Probable space group: P 6 2 2
;
_chemical_formula_sum "Si O2"
_cell_formula_units_Z 48
_cell_length_a 20.378366
_cell_length_b 20.378366
_cell_length_c 9.200747
_cell_angle_alpha 90.000000
_cell_angle_beta 90.000000
_cell_angle_gamma 120.000000
_cell_volume 3308.967003
_symmetry_space_group_name_H-M "P 6 2 2"
_symmetry_group_IT_number 177
_symmetry_cell_setting 'hexagonal'
loop_
_space_group_symop_operation_xyz
x,y,z
x-y,x,z
-y,x-y,z
-x,-y,z
-x+y,-x,z
y,-x+y,z
x-y,-y,-z
-x,-x+y,-z
y,x,-z
-y,-x,-z
-x+y,y,-z
x,x-y,-z
loop_
_atom_site_type_symbol
_atom_site_label
_atom_site_fract_x
_atom_site_fract_y
_atom_site_fract_z
Si Si1 0.365126 0.818115 0.249742
Si Si2 0.680522 0.140213 0.747970
Si Si3 0.503442 0.251721 0.000000
Si Si4 0.247707 0.495413 0.500000
Si Si5 0.586155 0.016614 0.168465
O O1 0.451101 0.836392 0.255633
O O2 0.319925 0.767843 0.111115
O O3 0.319291 0.776579 0.394247
O O4 0.365609 0.897466 0.223378
O O5 0.732304 0.179646 0.610054
O O6 0.638836 0.049893 0.745194
O O7 0.724952 0.179440 0.896295
O O8 0.500000 0.000000 0.179532
O O9 0.594476 0.000000 0.000000
#
# Coordination Sequence:
#
# PCOD9582163 Si02
#       5
#    12  12   6   6  12
#     4  10  19  33  44  61  81 110 140 174 214 264
#     4  10  19  33  44  61  81 110 140 174 214 264
#     4  10  18  28  42  62  84 100 132 171 222 257
#     4  10  22  32  38  58  92 104 128 163 228 271
#     4   9  16  29  53  63  73  95 149 189 205 238
#
# _framework density 14.506038
#
# number of rings (size 3 to 8) (size 9 to 14) (size 15 to 20)
#    0.000    2.250    2.500    1.500    0.000    1.000 
#   30.000    3.750    0.000    0.000    0.000    0.000 
#    0.000    0.000    0.000    0.000    0.000    0.000 
#
# Total GULP energy -267470.795047 kJ/mol
# GULP energy per Si atom -5572.308230 kJ/mol
# Density = 1.447302 g / cm^3
# Si number density = 14.506038 Si / 1000 Ang^3
#
#
#
# Elastic Constant Matrix: (Units=GPa)
#
#
# Indices 1 2 3 4 5 6 
#
# 1 57.3147 24.8622 29.0035 0.0000 0.0000 0.0000
# 2 24.8622 57.3147 29.0035 0.0000 0.0000 0.0000
# 3 29.0035 29.0035 94.3104 0.0000 0.0000 0.0000
# 4 0.0000 0.0000 0.0000 15.6946 0.0000 0.0000
# 5 0.0000 0.0000 0.0000 0.0000 15.6946 0.0000
# 6 0.0000 0.0000 0.0000 0.0000 0.0000 16.2263
#
#
#
# Elastic Compliance Matrix: (Units=1/GPa)
#
#
# Indices 1 2 3 4 5 6 
#
# 1 0.023179 -0.007636 -0.004780 0.000000 0.000000 0.000000
# 2 -0.007636 0.023179 -0.004780 0.000000 0.000000 0.000000
# 3 -0.004780 -0.004780 0.013543 0.000000 0.000000 0.000000
# 4 0.000000 0.000000 0.000000 0.063716 0.000000 0.000000
# 5 0.000000 0.000000 0.000000 0.000000 0.063716 0.000000
# 6 0.000000 0.000000 0.000000 0.000000 0.000000 0.061628
#
#
# Mechanical properties :
#
#
# Convention : Reuss Voigt Hill
#
# Bulk Modulus (GPa) = 39.20137 41.63091 40.41614
# Shear Modulus (GPa) = 17.13177 17.92781 17.52979
#
# Velocity S-wave (km/s) = 3.44031 3.51933 3.48004
# Velocity P-wave (km/s) = 6.54705 6.72871 6.63850
#
# Compressibility (1/GPa) = 0.02550932
#
# Stress axis : x y z
#
# Youngs Moduli (GPa) = 43.14328 43.14328 73.83748
#
# Poissons Ratio (x) = 0.32943 0.35294
# Poissons Ratio (y) = 0.32943 0.35294
# Poissons Ratio (z) = 0.20622 0.20622
#
# Static dielectric constant tensor:
#      x y z
#    x 1.490320 0.000000 0.000000 
#    y 0.000000 1.490320 0.000000 
#    z 0.000000 0.000000 1.525120 
# 
# From -- ./inp_files/1274.got.cif
#   From: 2010.05.17/outbox.cif.g08.bks.cpg/sg177_1_cif.got.tgz:1274.got - 2010.05.20 11:28:44.
