data_PCOD9582712
_publ_section_title
;
Structure prediction by ZEFSAII (Michael W. Deem and Ramdas Pophale) SiO2 
 PCOD9582712
Probable space group: P 61 2 2
;
_chemical_formula_sum "Si O2"
_cell_formula_units_Z 60
_cell_length_a 17.479401
_cell_length_b 17.479401
_cell_length_c 12.056382
_cell_angle_alpha 90.000000
_cell_angle_beta 90.000000
_cell_angle_gamma 120.000000
_cell_volume 3190.073748
_symmetry_space_group_name_H-M "P 61 2 2"
_symmetry_group_IT_number 178
_symmetry_cell_setting 'hexagonal'
loop_
_space_group_symop_operation_xyz
x,y,z
x-y,x,1/6+z
-y,x-y,1/3+z
-x,-y,1/2+z
-x+y,-x,2/3+z
y,-x+y,5/6+z
x-y,-y,-z
-x,-x+y,2/3-z
y,x,1/3-z
-y,-x,5/6-z
-x+y,y,1/2-z
x,x-y,1/6-z
loop_
_atom_site_type_symbol
_atom_site_label
_atom_site_fract_x
_atom_site_fract_y
_atom_site_fract_z
Si Si1 0.380129 0.030456 0.735942
Si Si2 0.152232 0.476288 0.388471
Si Si3 0.335008 0.497049 0.711329
Si Si4 0.753961 0.687714 0.760269
Si Si5 0.663452 0.502422 0.952082
O O1 0.435265 0.099576 0.831506
O O2 0.420270 0.084421 0.621059
O O3 0.279435 0.983058 0.787663
O O4 0.387852 0.943291 0.738086
O O5 0.161014 0.571958 0.381689
O O6 0.097374 0.411319 0.287780
O O7 0.243846 0.475298 0.396679
O O8 0.255966 0.511932 0.750000
O O9 0.317473 0.476471 0.581905
O O10 0.749478 0.749478 0.666667
O O11 0.848916 0.697831 0.750000
O O12 0.597642 0.402359 0.916667
#
# Coordination Sequence:
#
# PCOD9582712 Si02
#       5
#    12  12  12  12  12
#     4  11  23  41  60  86 123 157 214 262 321 372
#     4  11  23  38  59  87 120 163 217 267 312 376
#     4  12  25  39  58  87 125 170 215 267 320 383
#     4  10  21  40  66  92 121 156 206 264 314 383
#     4  12  24  38  61  83 120 170 214 263 318 385
#
# _framework density 18.808342
#
# number of rings (size 3 to 8) (size 9 to 14) (size 15 to 20)
#    0.000    0.800    4.000    4.200    0.000    4.800 
#    0.000    0.000    0.000    0.000    0.000    1.400 
#    0.000    0.000    0.000    0.000    0.000    0.000 
#
# Total GULP energy -334188.048392 kJ/mol
# GULP energy per Si atom -5569.800807 kJ/mol
# Density = 1.876553 g / cm^3
# Si number density = 18.808342 Si / 1000 Ang^3
#
#
#
# Elastic Constant Matrix: (Units=GPa)
#
#
# Indices 1 2 3 4 5 6 
#
# 1 76.9294 47.2375 19.3934 0.0000 0.0000 0.0000
# 2 47.2375 76.9294 19.3934 0.0000 0.0000 0.0000
# 3 19.3934 19.3934 100.7624 0.0000 0.0000 0.0000
# 4 0.0000 0.0000 0.0000 2.3299 0.0000 0.0000
# 5 0.0000 0.0000 0.0000 0.0000 2.3299 0.0000
# 6 0.0000 0.0000 0.0000 0.0000 0.0000 14.8459
#
#
#
# Elastic Compliance Matrix: (Units=1/GPa)
#
#
# Indices 1 2 3 4 5 6 
#
# 1 0.021124 -0.012555 -0.001649 0.000000 0.000000 0.000000
# 2 -0.012555 0.021124 -0.001649 0.000000 0.000000 0.000000
# 3 -0.001649 -0.001649 0.010559 0.000000 0.000000 0.000000
# 4 0.000000 0.000000 0.000000 0.429211 0.000000 0.000000
# 5 0.000000 0.000000 0.000000 0.000000 0.429211 0.000000
# 6 0.000000 0.000000 0.000000 0.000000 0.000000 0.067359
#
#
# Mechanical properties :
#
#
# Convention : Reuss Voigt Hill
#
# Bulk Modulus (GPa) = 47.39337 47.40778 47.40058
# Shear Modulus (GPa) = 4.91483 15.14092 10.02787
#
# Velocity S-wave (km/s) = 1.61827 2.84035 2.31153
# Velocity P-wave (km/s) = 5.36139 6.00143 5.69042
#
# Compressibility (1/GPa) = 0.02110000
#
# Stress axis : x y z
#
# Youngs Moduli (GPa) = 47.33940 47.33940 94.70435
#
# Poissons Ratio (x) = 0.59436 0.15619
# Poissons Ratio (y) = 0.59436 0.15619
# Poissons Ratio (z) = 0.07807 0.07807
#
# Static dielectric constant tensor:
#      x y z
#    x 1.698950 0.000000 0.000000 
#    y 0.000000 1.698950 0.000000 
#    z 0.000000 0.000000 1.729370 
# 
# From -- ./inp_files/4527.got.cif
#   From: 2010.05.17/outbox.cif.g08.bks.cpg/sg178_3_cif.got.tgz:4527.got - 2010.05.20 11:30:59.
