data_PCOD9582053
_publ_section_title
;
Structure prediction by ZEFSAII (Michael W. Deem and Ramdas Pophale) SiO2 
 PCOD9582053
Probable space group: P 63/M
;
_chemical_formula_sum "Si O2"
_cell_formula_units_Z 90
_cell_length_a 16.858022
_cell_length_b 16.858022
_cell_length_c 18.445874
_cell_angle_alpha 90.000000
_cell_angle_beta 90.000000
_cell_angle_gamma 120.000000
_cell_volume 4539.866707
_symmetry_space_group_name_H-M "P 63/M"
_symmetry_group_IT_number 176
_symmetry_cell_setting 'hexagonal'
loop_
_space_group_symop_operation_xyz
x,y,z
x-y,x,1/2+z
-y,x-y,z
-x,-y,1/2+z
-x+y,-x,z
y,-x+y,1/2+z
-x,-y,-z
-x+y,-x,1/2-z
y,-x+y,-z
x,y,1/2-z
x-y,x,-z
-y,x-y,1/2-z
loop_
_atom_site_type_symbol
_atom_site_label
_atom_site_fract_x
_atom_site_fract_y
_atom_site_fract_z
Si Si1 0.657273 0.224132 0.250000
Si Si2 0.065343 0.271115 0.169792
Si Si3 0.267272 0.337255 0.389980
Si Si4 0.400271 0.943430 0.649512
Si Si5 0.995126 0.181816 0.485514
Si Si6 0.684819 0.523781 0.013225
Si Si7 0.599180 0.009611 0.624224
Si Si8 0.352770 0.852834 0.504338
O O1 0.747509 0.325176 0.250000
O O2 0.646683 0.158062 0.183496
O O3 0.046600 0.226860 0.250000
O O4 0.172650 0.311140 0.150272
O O5 0.012768 0.214111 0.097932
O O6 0.034487 0.347075 0.171143
O O7 0.348717 0.349690 0.337131
O O8 0.244344 0.264149 0.455579
O O9 0.305780 0.431461 0.434577
O O10 0.395040 0.932954 0.563132
O O11 0.507864 0.991354 0.665834
O O12 0.083853 0.178446 0.510180
O O13 0.650958 0.569702 0.074000
O O14 0.608763 0.417210 0.009333
O O15 0.783427 0.534395 0.025991
O O16 0.633536 0.096873 0.571358
#
# Coordination Sequence:
#
# PCOD9582053 Si02
#       8
#     6  12  12  12  12  12  12  12
#     4  10  28  48  58  86 126 178 222 268 322 406
#     4  11  24  40  63  95 135 163 218 270 332 394
#     4  11  21  39  66  96 128 166 209 274 325 398
#     4  11  23  40  62  85 127 171 223 261 331 388
#     4  10  22  43  69  94 123 165 211 260 323 399
#     4  11  20  35  59  94 125 164 215 271 331 373
#     4  11  21  38  59  90 124 172 212 268 321 392
#     4  11  21  35  61  91 124 163 217 277 315 387
#
# _framework density 19.824372
#
# number of rings (size 3 to 8) (size 9 to 14) (size 15 to 20)
#    0.133    1.067    5.333    1.200    7.467    0.000 
#    0.000    2.667    0.000    0.000    0.000    0.000 
#    0.000    0.000    0.000    0.000    0.000    0.000 
#
# Total GULP energy -501873.114372 kJ/mol
# GULP energy per Si atom -5576.367937 kJ/mol
# Density = 1.977925 g / cm^3
# Si number density = 19.824372 Si / 1000 Ang^3
#
#
#
# Elastic Constant Matrix: (Units=GPa)
#
#
# Indices 1 2 3 4 5 6 
#
# 1 98.0482 44.5967 29.4549 0.0000 0.0000 0.0000
# 2 44.5967 98.0482 29.4549 0.0000 0.0000 0.0000
# 3 29.4549 29.4549 105.9914 0.0000 0.0000 0.0000
# 4 0.0000 0.0000 0.0000 -27.8943 0.0000 0.0000
# 5 0.0000 0.0000 0.0000 0.0000 -27.8943 0.0000
# 6 0.0000 0.0000 0.0000 0.0000 0.0000 26.7257
#
#
#
# Elastic Compliance Matrix: (Units=1/GPa)
#
#
# Indices 1 2 3 4 5 6 
#
# 1 0.013314 -0.005395 -0.002201 0.000000 0.000000 0.000000
# 2 -0.005395 0.013314 -0.002201 0.000000 0.000000 0.000000
# 3 -0.002201 -0.002201 0.010658 0.000000 0.000000 0.000000
# 4 0.000000 0.000000 0.000000 -0.035850 0.000000 0.000000
# 5 0.000000 0.000000 0.000000 0.000000 -0.035850 0.000000
# 6 0.000000 0.000000 0.000000 0.000000 0.000000 0.037417
#
#
# Mechanical properties :
#
#
# Convention : Reuss Voigt Hill
#
# Bulk Modulus (GPa) = 56.51814 56.56676 56.54245
# Shear Modulus (GPa) = 175.47634 7.42616 91.45125
#
# Velocity S-wave (km/s) = 9.41847 1.93755 6.79933
# Velocity P-wave (km/s) = 12.11809 5.79667 9.49867
#
# Compressibility (1/GPa) = 0.01769344
#
# Stress axis : x y z
#
# Youngs Moduli (GPa) = 75.10931 75.10931 93.82705
#
# Poissons Ratio (x) = 0.40519 0.20649
# Poissons Ratio (y) = 0.40519 0.20649
# Poissons Ratio (z) = 0.16530 0.16530
#
# Static dielectric constant tensor:
#      x y z
#    x 1.716630 0.000000 0.000000 
#    y 0.000000 1.716630 0.000000 
#    z 0.000000 0.000000 1.723270 
# 
# From -- ./inp_files/3532.got.cif
#   From: 2010.05.17/outbox.cif.g08.bks.cpg/sg176_2_cif.got.tgz:3532.got - 2010.06.03 11:36:45.
