data_PCOD9582750
_publ_section_title
;
Structure prediction by ZEFSAII (Michael W. Deem and Ramdas Pophale) SiO2 
 PCOD9582750
Probable space group: P 61 2 2
;
_chemical_formula_sum "Si O2"
_cell_formula_units_Z 36
_cell_length_a 11.620138
_cell_length_b 11.620138
_cell_length_c 11.829534
_cell_angle_alpha 90.000000
_cell_angle_beta 90.000000
_cell_angle_gamma 120.000000
_cell_volume 1383.314216
_symmetry_space_group_name_H-M "P 61 2 2"
_symmetry_group_IT_number 178
_symmetry_cell_setting 'hexagonal'
loop_
_space_group_symop_operation_xyz
x,y,z
x-y,x,1/6+z
-y,x-y,1/3+z
-x,-y,1/2+z
-x+y,-x,2/3+z
y,-x+y,5/6+z
x-y,-y,-z
-x,-x+y,2/3-z
y,x,1/3-z
-y,-x,5/6-z
-x+y,y,1/2-z
x,x-y,1/6-z
loop_
_atom_site_type_symbol
_atom_site_label
_atom_site_fract_x
_atom_site_fract_y
_atom_site_fract_z
Si Si1 0.898013 0.305063 0.486621
Si Si2 0.480939 0.691095 0.266583
Si Si3 0.750775 0.851664 0.923797
O O1 0.829364 0.170637 0.416667
O O2 0.877404 0.409780 0.414837
O O3 0.821520 0.293213 0.603078
O O4 0.037475 0.323889 0.520628
O O5 0.363755 0.727510 0.250000
O O6 0.617848 0.769894 0.197652
O O7 0.827857 0.982051 0.843459
#
# Coordination Sequence:
#
# PCOD9582750 Si02
#       3
#    12  12  12
#     4   9  19  38  62 104 128 187 241 290 352 441
#     4   9  19  34  63 103 146 175 234 311 372 434
#     4  10  22  38  67 111 145 200 248 304 369 455
#
# _framework density 26.024456000000001
#
# number of rings (size 3 to 8) (size 9 to 14) (size 15 to 20)
#    0.000    2.667    0.000    0.000    9.333    5.333 
#    0.000    0.000    0.000    0.000  138.667    0.000 
#    0.000    0.000    0.000    0.000    0.000    0.000 
#
# Total GULP energy -200837.244012 kJ/mol
# GULP energy per Si atom -5578.812334 kJ/mol
# Density = 2.596522 g / cm^3
# Si number density = 26.024456 Si / 1000 Ang^3
#
#
#
# Elastic Constant Matrix: (Units=GPa)
#
#
# Indices 1 2 3 4 5 6 
#
# 1 169.2972 84.8916 39.5352 0.0000 0.0000 0.0000
# 2 84.8916 169.2972 39.5352 0.0000 0.0000 0.0000
# 3 39.5352 39.5352 57.5620 0.0000 0.0000 0.0000
# 4 0.0000 0.0000 0.0000 35.7157 0.0000 0.0000
# 5 0.0000 0.0000 0.0000 0.0000 35.7157 0.0000
# 6 0.0000 0.0000 0.0000 0.0000 0.0000 42.2028
#
#
#
# Elastic Compliance Matrix: (Units=1/GPa)
#
#
# Indices 1 2 3 4 5 6 
#
# 1 0.008425 -0.003422 -0.003436 0.000000 0.000000 0.000000
# 2 -0.003422 0.008425 -0.003436 0.000000 0.000000 0.000000
# 3 -0.003436 -0.003436 0.022093 0.000000 0.000000 0.000000
# 4 0.000000 0.000000 0.000000 0.027999 0.000000 0.000000
# 5 0.000000 0.000000 0.000000 0.000000 0.027999 0.000000
# 6 0.000000 0.000000 0.000000 0.000000 0.000000 0.023695
#
#
# Mechanical properties :
#
#
# Convention : Reuss Voigt Hill
#
# Bulk Modulus (GPa) = 54.48423 80.45336 67.46879
# Shear Modulus (GPa) = 34.40127 38.20646 36.30387
#
# Velocity S-wave (km/s) = 3.63971 3.83573 3.73901
# Velocity P-wave (km/s) = 6.21648 7.11328 6.67995
#
# Compressibility (1/GPa) = 0.01835394
#
# Stress axis : x y z
#
# Youngs Moduli (GPa) = 118.69056 118.69056 45.26378
#
# Poissons Ratio (x) = 0.40619 0.15553
# Poissons Ratio (y) = 0.40619 0.15553
# Poissons Ratio (z) = 0.40784 0.40784
#
# Static dielectric constant tensor:
#      x y z
#    x 2.084230 0.000000 0.000000 
#    y 0.000000 2.084230 0.000000 
#    z 0.000000 0.000000 2.374500 
# 
# From -- ./inp_files/5093.got.cif
#   From: 2010.05.17/outbox.cif.g08.bks.cpg/sg178_3_cif.got.tgz:5093.got - 2010.05.20 11:30:59.
