data_PCOD9582288
_publ_section_title
;
Structure prediction by ZEFSAII (Michael W. Deem and Ramdas Pophale) SiO2 
 PCOD9582288
Probable space group: P 6 2 2
;
_chemical_formula_sum "Si O2"
_cell_formula_units_Z 63
_cell_length_a 19.658735
_cell_length_b 19.658735
_cell_length_c 8.494937
_cell_angle_alpha 90.000000
_cell_angle_beta 90.000000
_cell_angle_gamma 120.000000
_cell_volume 2843.164127
_symmetry_space_group_name_H-M "P 6 2 2"
_symmetry_group_IT_number 177
_symmetry_cell_setting 'hexagonal'
loop_
_space_group_symop_operation_xyz
x,y,z
x-y,x,z
-y,x-y,z
-x,-y,z
-x+y,-x,z
y,-x+y,z
x-y,-y,-z
-x,-x+y,-z
y,x,-z
-y,-x,-z
-x+y,y,-z
x,x-y,-z
loop_
_atom_site_type_symbol
_atom_site_label
_atom_site_fract_x
_atom_site_fract_y
_atom_site_fract_z
Si Si1 0.997410 0.156379 0.311208
Si Si2 0.240323 0.453644 0.168634
Si Si3 0.500000 0.500000 0.000000
Si Si4 0.634092 0.077127 0.266892
Si Si5 0.814469 0.478704 0.545308
Si Si6 0.320429 0.282306 0.831274
O O1 0.990819 0.224439 0.226826
O O2 0.074935 0.153992 0.269656
O O3 0.000000 0.168200 0.500000
O O4 0.154347 0.437112 0.222048
O O5 0.319889 0.505674 0.270025
O O6 0.239658 0.371386 0.159269
O O7 0.245609 0.491218 0.000000
O O8 0.429384 0.483544 0.875729
O O9 0.623679 0.107495 0.437433
O O10 0.642339 0.000276 0.281321
O O11 0.755222 0.510444 0.500000
O O12 0.776084 0.388042 0.500000
O O13 0.315669 0.315669 0.000000
#
# Coordination Sequence:
#
# PCOD9582288 Si02
#       6
#    12  12   3  12  12  12
#     4  10  23  41  65  94 132 182 238 299 361 433
#     4  11  23  44  68  99 145 188 233 299 376 441
#     4  12  24  48  74 104 148 192 256 296 396 444
#     4  11  25  43  68 104 140 185 236 309 359 453
#     4  10  25  45  71 101 141 185 242 303 368 444
#     4  12  24  42  64 101 139 187 238 295 365 440
#
# _framework density 22.158411000000001
#
# number of rings (size 3 to 8) (size 9 to 14) (size 15 to 20)
#    0.000    1.143    2.857    1.524    8.000    0.762 
#    0.000    0.000    0.000    1.143    0.000    0.000 
#    0.000    0.000    0.000    0.000    0.000    0.000 
#
# Total GULP energy -351194.788584 kJ/mol
# GULP energy per Si atom -5574.520454 kJ/mol
# Density = 2.210798 g / cm^3
# Si number density = 22.158411 Si / 1000 Ang^3
#
#
#
# Elastic Constant Matrix: (Units=GPa)
#
#
# Indices 1 2 3 4 5 6 
#
# 1 124.0501 32.0964 62.5674 0.0000 0.0000 0.0000
# 2 32.0964 124.0501 62.5674 0.0000 0.0000 0.0000
# 3 62.5674 62.5674 108.7702 0.0000 0.0000 0.0000
# 4 0.0000 0.0000 0.0000 32.6183 0.0000 0.0000
# 5 0.0000 0.0000 0.0000 0.0000 32.6183 0.0000
# 6 0.0000 0.0000 0.0000 0.0000 0.0000 45.9769
#
#
#
# Elastic Compliance Matrix: (Units=1/GPa)
#
#
# Indices 1 2 3 4 5 6 
#
# 1 0.011378 0.000503 -0.006834 0.000000 0.000000 0.000000
# 2 0.000503 0.011378 -0.006834 0.000000 0.000000 0.000000
# 3 -0.006834 -0.006834 0.017056 0.000000 0.000000 0.000000
# 4 0.000000 0.000000 0.000000 0.030658 0.000000 0.000000
# 5 0.000000 0.000000 0.000000 0.000000 0.030658 0.000000
# 6 0.000000 0.000000 0.000000 0.000000 0.000000 0.021750
#
#
# Mechanical properties :
#
#
# Convention : Reuss Voigt Hill
#
# Bulk Modulus (GPa) = 74.17703 74.59255 74.38479
# Shear Modulus (GPa) = 32.53017 35.55195 34.04106
#
# Velocity S-wave (km/s) = 3.83570 4.00990 3.92377
# Velocity P-wave (km/s) = 7.29145 7.42802 7.36005
#
# Compressibility (1/GPa) = 0.01348126
#
# Stress axis : x y z
#
# Youngs Moduli (GPa) = 87.88750 87.88750 58.62898
#
# Poissons Ratio (x) = -0.04422 0.40070
# Poissons Ratio (y) = -0.04422 0.40070
# Poissons Ratio (z) = 0.60066 0.60066
#
# Static dielectric constant tensor:
#      x y z
#    x 1.824060 0.000000 0.000000 
#    y 0.000000 1.824060 0.000000 
#    z 0.000000 0.000000 1.610340 
# 
# From -- ./inp_files/1391.got.cif
#   From: 2010.05.17/outbox.cif.g08.bks.cpg/sg177_1_cif.got.tgz:1391.got - 2010.05.20 11:28:44.
