data_PCOD9582289
_publ_section_title
;
Structure prediction by ZEFSAII (Michael W. Deem and Ramdas Pophale) SiO2 
 PCOD9582289
Probable space group: P 6 2 2
;
_chemical_formula_sum "Si O2"
_cell_formula_units_Z 84
_cell_length_a 17.583806
_cell_length_b 17.583806
_cell_length_c 14.787601
_cell_angle_alpha 90.000000
_cell_angle_beta 90.000000
_cell_angle_gamma 120.000000
_cell_volume 3959.625594
_symmetry_space_group_name_H-M "P 6 2 2"
_symmetry_group_IT_number 177
_symmetry_cell_setting 'hexagonal'
loop_
_space_group_symop_operation_xyz
x,y,z
x-y,x,z
-y,x-y,z
-x,-y,z
-x+y,-x,z
y,-x+y,z
x-y,-y,-z
-x,-x+y,-z
y,x,-z
-y,-x,-z
-x+y,y,-z
x,x-y,-z
loop_
_atom_site_type_symbol
_atom_site_label
_atom_site_fract_x
_atom_site_fract_y
_atom_site_fract_z
Si Si1 0.271177 0.368257 0.475504
Si Si2 0.171016 0.503424 0.028556
Si Si3 0.727568 0.109591 0.862911
Si Si4 0.205330 0.108728 0.890601
Si Si5 0.051104 0.607195 0.810236
Si Si6 0.483403 0.307827 0.684502
Si Si7 0.641422 0.144423 0.368573
O O1 0.293725 0.293725 0.500000
O O2 0.173588 0.347175 0.500000
O O3 0.285348 0.396126 0.371231
O O4 0.338295 0.454427 0.535187
O O5 0.127916 0.418513 0.964621
O O6 0.272176 0.544351 0.000000
O O7 0.137110 0.568555 0.000000
O O8 0.140565 0.483765 0.131662
O O9 0.826268 0.129213 0.853360
O O10 0.701226 0.161466 0.790374
O O11 0.654254 0.009774 0.844708
O O12 0.148620 0.155072 0.864690
O O13 0.212365 0.106183 0.000000
O O14 0.073217 0.629504 0.705978
O O15 0.000000 0.500000 0.822066
O O16 0.509671 0.236607 0.655074
O O17 0.557800 0.402443 0.650365
#
# Coordination Sequence:
#
# PCOD9582289 Si02
#       7
#    12  12  12  12  12  12  12
#     4  10  23  42  69  98 134 172 223 282 346 408
#     4  12  25  40  59  84 125 173 217 270 319 386
#     4  12  25  38  63  91 128 167 223 271 335 392
#     4  10  24  44  68  94 123 164 215 284 353 418
#     4  12  24  41  61  90 124 174 225 275 325 392
#     4  11  23  41  62  98 135 178 223 279 327 408
#     4  11  23  40  65  94 133 178 223 272 337 396
#
# _framework density 21.214127999999999
#
# number of rings (size 3 to 8) (size 9 to 14) (size 15 to 20)
#    0.000    0.857    2.857    3.571    8.000    1.143 
#    0.000    4.286    0.000    0.143    0.000    0.000 
#    0.000    0.000    0.000    0.000    0.000    0.000 
#
# Total GULP energy -469345.815856 kJ/mol
# GULP energy per Si atom -5587.450189 kJ/mol
# Density = 2.116584 g / cm^3
# Si number density = 21.214128 Si / 1000 Ang^3
#
#
#
# Elastic Constant Matrix: (Units=GPa)
#
#
# Indices 1 2 3 4 5 6 
#
# 1 93.8279 37.9011 9.7371 0.0000 0.0000 0.0000
# 2 37.9011 93.8279 9.7371 0.0000 0.0000 0.0000
# 3 9.7371 9.7371 59.9009 0.0000 0.0000 0.0000
# 4 0.0000 0.0000 0.0000 25.3198 0.0000 0.0000
# 5 0.0000 0.0000 0.0000 0.0000 25.3198 0.0000
# 6 0.0000 0.0000 0.0000 0.0000 0.0000 27.9634
#
#
#
# Elastic Compliance Matrix: (Units=1/GPa)
#
#
# Indices 1 2 3 4 5 6 
#
# 1 0.012829 -0.005051 -0.001264 0.000000 0.000000 0.000000
# 2 -0.005051 0.012829 -0.001264 0.000000 0.000000 0.000000
# 3 -0.001264 -0.001264 0.017105 0.000000 0.000000 0.000000
# 4 0.000000 0.000000 0.000000 0.039495 0.000000 0.000000
# 5 0.000000 0.000000 0.000000 0.000000 0.039495 0.000000
# 6 0.000000 0.000000 0.000000 0.000000 0.000000 0.035761
#
#
# Mechanical properties :
#
#
# Convention : Reuss Voigt Hill
#
# Bulk Modulus (GPa) = 36.22626 40.25637 38.24132
# Shear Modulus (GPa) = 27.49129 28.39937 27.94533
#
# Velocity S-wave (km/s) = 3.60376 3.66280 3.63340
# Velocity P-wave (km/s) = 5.86768 6.07499 5.97223
#
# Compressibility (1/GPa) = 0.02760429
#
# Stress axis : x y z
#
# Youngs Moduli (GPa) = 77.94604 77.94604 58.46145
#
# Poissons Ratio (x) = 0.39372 0.07392
# Poissons Ratio (y) = 0.39372 0.07392
# Poissons Ratio (z) = 0.09855 0.09855
#
# Static dielectric constant tensor:
#      x y z
#    x 1.807780 0.000000 0.000000 
#    y 0.000000 1.807780 0.000000 
#    z 0.000000 0.000000 1.744290 
# 
# From -- ./inp_files/2622.got.cif
#   From: 2010.05.17/outbox.cif.g08.bks.cpg/sg177_2_cif.got.tgz:2622.got - 2010.05.20 11:28:44.
