data_PCOD9582427
_publ_section_title
;
Structure prediction by ZEFSAII (Michael W. Deem and Ramdas Pophale) SiO2 
 PCOD9582427
Probable space group: P 61 2 2
;
_chemical_formula_sum "Si O2"
_cell_formula_units_Z 48
_cell_length_a 14.356345
_cell_length_b 14.356345
_cell_length_c 10.971752
_cell_angle_alpha 90.000000
_cell_angle_beta 90.000000
_cell_angle_gamma 120.000000
_cell_volume 1958.368374
_symmetry_space_group_name_H-M "P 61 2 2"
_symmetry_group_IT_number 178
_symmetry_cell_setting 'hexagonal'
loop_
_space_group_symop_operation_xyz
x,y,z
x-y,x,1/6+z
-y,x-y,1/3+z
-x,-y,1/2+z
-x+y,-x,2/3+z
y,-x+y,5/6+z
x-y,-y,-z
-x,-x+y,2/3-z
y,x,1/3-z
-y,-x,5/6-z
-x+y,y,1/2-z
x,x-y,1/6-z
loop_
_atom_site_type_symbol
_atom_site_label
_atom_site_fract_x
_atom_site_fract_y
_atom_site_fract_z
Si Si1 0.000000 0.794406 0.333334
Si Si2 0.381064 0.316977 0.463297
Si Si3 0.453273 0.726637 0.083334
Si Si4 0.973325 0.810903 0.985557
Si Si5 0.722887 0.277114 0.416667
Si Si6 0.448927 0.551074 0.416667
O O1 0.050545 0.748918 0.428338
O O2 0.079497 0.898401 0.257547
O O3 0.477626 0.293099 0.481639
O O4 0.307251 0.267069 0.341790
O O5 0.421600 0.441639 0.485962
O O6 0.375617 0.620882 0.157781
O O7 0.092807 0.904154 0.032924
O O8 0.824814 0.338227 0.507828
#
# Coordination Sequence:
#
# PCOD9582427 Si02
#       6
#     6  12   6  12   6   6
#     4  10  18  36  64  88 112 156 214 266 302 386
#     4  11  20  36  65  93 118 163 219 266 319 387
#     4  11  20  42  69  98 119 170 224 277 334 390
#     4  10  20  35  62  92 124 160 209 269 310 386
#     4  10  25  42  63  94 135 166 221 284 330 386
#     4  11  25  42  66  92 136 178 219 281 336 396
#
# _framework density 24.510200999999999
#
# number of rings (size 3 to 8) (size 9 to 14) (size 15 to 20)
#    0.000    1.500    2.500    4.500    3.500    0.000 
#    0.000    0.000   16.500    0.000    0.000    0.000 
#    0.000    0.000    0.000    0.000    0.000    0.000 
#
# Total GULP energy -267348.175368 kJ/mol
# GULP energy per Si atom -5569.753654 kJ/mol
# Density = 2.445442 g / cm^3
# Si number density = 24.510201 Si / 1000 Ang^3
#
#
#
# Elastic Constant Matrix: (Units=GPa)
#
#
# Indices 1 2 3 4 5 6 
#
# 1 81.7771 60.2229 11.2238 0.0000 0.0000 0.0000
# 2 60.2229 81.7771 11.2238 0.0000 0.0000 0.0000
# 3 11.2238 11.2238 95.6319 0.0000 0.0000 0.0000
# 4 0.0000 0.0000 0.0000 -19.3579 0.0000 0.0000
# 5 0.0000 0.0000 0.0000 0.0000 -19.3579 0.0000
# 6 0.0000 0.0000 0.0000 0.0000 0.0000 10.7771
#
#
#
# Elastic Compliance Matrix: (Units=1/GPa)
#
#
# Indices 1 2 3 4 5 6 
#
# 1 0.026785 -0.019610 -0.000842 0.000000 0.000000 0.000000
# 2 -0.019610 0.026785 -0.000842 0.000000 0.000000 0.000000
# 3 -0.000842 -0.000842 0.010654 0.000000 0.000000 0.000000
# 4 0.000000 0.000000 0.000000 -0.051659 0.000000 0.000000
# 5 0.000000 0.000000 0.000000 0.000000 -0.051659 0.000000
# 6 0.000000 0.000000 0.000000 0.000000 0.000000 0.092790
#
#
# Mechanical properties :
#
#
# Convention : Reuss Voigt Hill
#
# Bulk Modulus (GPa) = 46.21787 47.16968 46.69377
# Shear Modulus (GPa) = 48.31059 6.17998 27.24528
#
# Velocity S-wave (km/s) = 4.44446 1.58961 3.33767
# Velocity P-wave (km/s) = 6.72570 4.75982 5.82627
#
# Compressibility (1/GPa) = 0.02163665
#
# Stress axis : x y z
#
# Youngs Moduli (GPa) = 37.33423 37.33423 93.85764
#
# Poissons Ratio (x) = 0.73211 0.07904
# Poissons Ratio (y) = 0.73211 0.07904
# Poissons Ratio (z) = 0.03144 0.03144
#
# Static dielectric constant tensor:
#      x y z
#    x 3.199650 0.000000 0.000000 
#    y 0.000000 3.199650 0.000000 
#    z 0.000000 0.000000 2.228670 
# 
# From -- ./inp_files/4250.got.cif
#   From: 2010.05.17/outbox.cif.g08.bks.cpg/sg178_3_cif.got.tgz:4250.got - 2010.05.20 11:30:59.
