data_PCOD9582117
_publ_section_title
;
Structure prediction by ZEFSAII (Michael W. Deem and Ramdas Pophale) SiO2 
 PCOD9582117
Probable space group: P 63/M
;
_chemical_formula_sum "Si O2"
_cell_formula_units_Z 28
_cell_length_a 13.872927
_cell_length_b 13.872927
_cell_length_c 8.414886
_cell_angle_alpha 90.000000
_cell_angle_beta 90.000000
_cell_angle_gamma 120.000000
_cell_volume 1402.539401
_symmetry_space_group_name_H-M "P 63/M"
_symmetry_group_IT_number 176
_symmetry_cell_setting 'hexagonal'
loop_
_space_group_symop_operation_xyz
x,y,z
x-y,x,1/2+z
-y,x-y,z
-x,-y,1/2+z
-x+y,-x,z
y,-x+y,1/2+z
-x,-y,-z
-x+y,-x,1/2-z
y,-x+y,-z
x,y,1/2-z
x-y,x,-z
-y,x-y,1/2-z
loop_
_atom_site_type_symbol
_atom_site_label
_atom_site_fract_x
_atom_site_fract_y
_atom_site_fract_z
Si Si1 0.804040 0.031934 0.564060
Si Si2 0.378248 0.908802 0.558531
Si Si3 0.666668 0.333335 0.443235
O O1 0.789838 0.003675 0.750000
O O2 0.712584 0.063418 0.509652
O O3 0.925492 0.136033 0.530924
O O4 0.374769 0.910310 0.750000
O O5 0.351586 0.786021 0.506429
O O6 0.500000 0.000000 0.500000
O O7 0.666667 0.333334 0.250000
#
# Coordination Sequence:
#
# PCOD9582117 Si02
#       3
#    12  12   4
#     4  12  25  43  65  93 126 164 208 260 316 377
#     4  11  22  40  64  93 126 166 211 260 312 369
#     4   9  21  39  61  86 121 162 205 254 307 360
#
# _framework density 19.963788000000001
#
# number of rings (size 3 to 8) (size 9 to 14) (size 15 to 20)
#    0.000    0.857    0.000    8.143    0.000    3.429 
#    0.000    6.429    0.000    0.000    0.000    0.000 
#    0.000    0.000    0.000    0.000    0.000    0.000 
#
# Total GULP energy -156773.817943 kJ/mol
# GULP energy per Si atom -5599.064927 kJ/mol
# Density = 1.991835 g / cm^3
# Si number density = 19.963788 Si / 1000 Ang^3
#
#
#
# Elastic Constant Matrix: (Units=GPa)
#
#
# Indices 1 2 3 4 5 6 
#
# 1 131.6746 42.5274 -23.9816 0.0000 0.0000 0.0002
# 2 42.5274 131.6784 -23.9810 0.0000 0.0000 0.0011
# 3 -23.9816 -23.9810 47.7475 0.0000 0.0000 -0.0001
# 4 0.0000 0.0000 0.0000 34.5812 0.0000 0.0000
# 5 0.0000 0.0000 0.0000 0.0000 34.5809 0.0000
# 6 0.0002 0.0011 -0.0001 0.0000 0.0000 44.5755
#
#
#
# Elastic Compliance Matrix: (Units=1/GPa)
#
#
# Indices 1 2 3 4 5 6 
#
# 1 0.008940 -0.002278 0.003346 0.000000 0.000000 0.000000
# 2 -0.002278 0.008939 0.003346 0.000000 0.000000 0.000000
# 3 0.003346 0.003346 0.024304 0.000000 0.000000 0.000000
# 4 0.000000 0.000000 0.000000 0.028917 0.000000 0.000000
# 5 0.000000 0.000000 0.000000 0.000000 0.028918 0.000000
# 6 0.000000 0.000000 0.000000 0.000000 0.000000 0.022434
#
#
# Mechanical properties :
#
#
# Convention : Reuss Voigt Hill
#
# Bulk Modulus (GPa) = 19.60372 33.35888 26.48130
# Shear Modulus (GPa) = 38.27662 43.84991 41.06326
#
# Velocity S-wave (km/s) = 4.38345 4.69174 4.54021
# Velocity P-wave (km/s) = 5.95487 6.78939 6.38578
#
# Compressibility (1/GPa) = 0.05101072
#
# Stress axis : x y z
#
# Youngs Moduli (GPa) = 111.86265 111.86675 41.14487
#
# Poissons Ratio (x) = 0.25481 -0.13767
# Poissons Ratio (y) = 0.25480 -0.13766
# Poissons Ratio (z) = -0.37429 -0.37427
#
# Static dielectric constant tensor:
#      x y z
#    x 1.661690 0.000000 0.000000 
#    y 0.000000 1.661690 0.000000 
#    z 0.000000 0.000000 1.683320 
# 
# From -- ./inp_files/296.got.cif
#   From: 2010.05.17/outbox.cif.g08.bks.cpg/sg176_1_cif.got.tgz:296.got - 2010.06.03 11:36:45.
