data_PCOD9582764
_publ_section_title
;
Structure prediction by ZEFSAII (Michael W. Deem and Ramdas Pophale) SiO2 
 PCOD9582764
Probable space group: P 61 2 2
;
_chemical_formula_sum "Si O2"
_cell_formula_units_Z 42
_cell_length_a 19.011400
_cell_length_b 19.011400
_cell_length_c 7.543216
_cell_angle_alpha 90.000000
_cell_angle_beta 90.000000
_cell_angle_gamma 120.000000
_cell_volume 2361.105401
_symmetry_space_group_name_H-M "P 61 2 2"
_symmetry_group_IT_number 178
_symmetry_cell_setting 'hexagonal'
loop_
_space_group_symop_operation_xyz
x,y,z
x-y,x,1/6+z
-y,x-y,1/3+z
-x,-y,1/2+z
-x+y,-x,2/3+z
y,-x+y,5/6+z
x-y,-y,-z
-x,-x+y,2/3-z
y,x,1/3-z
-y,-x,5/6-z
-x+y,y,1/2-z
x,x-y,1/6-z
loop_
_atom_site_type_symbol
_atom_site_label
_atom_site_fract_x
_atom_site_fract_y
_atom_site_fract_z
Si Si1 0.308869 0.000000 0.000000
Si Si2 0.765202 0.244728 0.708242
Si Si3 0.170876 0.341752 0.250000
Si Si4 0.571220 0.142440 0.250000
Si Si5 0.393276 0.486304 0.052510
O O1 0.344212 0.956107 0.130510
O O2 0.297241 0.074078 0.062712
O O3 0.812311 0.212228 0.586344
O O4 0.802404 0.338921 0.663036
O O5 0.672463 0.187469 0.649015
O O6 0.768839 0.231162 0.916667
O O7 0.577729 0.091161 0.412813
O O8 0.465296 0.534705 0.916667
#
# Coordination Sequence:
#
# PCOD9582764 Si02
#       5
#     6  12   6   6  12
#     4  10  22  40  64  82 122 148 196 250 296 376
#     4  11  21  36  54  78 118 163 208 249 289 335
#     4  10  22  44  58  88 111 150 191 248 304 368
#     4  12  20  36  56  82 119 166 211 248 284 332
#     4  11  23  36  53  85 116 162 203 246 294 331
#
# _framework density 17.788277999999998
#
# number of rings (size 3 to 8) (size 9 to 14) (size 15 to 20)
#    0.000    1.143    8.571    0.000    2.000    2.286 
#    2.571    4.286    0.000    0.000    0.000    0.000 
#   17.143    0.000    0.000    0.000    0.000    0.000 
#
# Total GULP energy -234202.025885 kJ/mol
# GULP energy per Si atom -5576.238712 kJ/mol
# Density = 1.774779 g / cm^3
# Si number density = 17.788278 Si / 1000 Ang^3
#
#
#
# Elastic Constant Matrix: (Units=GPa)
#
#
# Indices 1 2 3 4 5 6 
#
# 1 126.8284 48.6439 37.0989 0.0000 0.0000 0.0000
# 2 48.6439 126.8284 37.0989 0.0000 0.0000 0.0000
# 3 37.0989 37.0989 133.3055 0.0000 0.0000 0.0000
# 4 0.0000 0.0000 0.0000 18.1299 0.0000 0.0000
# 5 0.0000 0.0000 0.0000 0.0000 18.1299 0.0000
# 6 0.0000 0.0000 0.0000 0.0000 0.0000 39.0922
#
#
#
# Elastic Compliance Matrix: (Units=1/GPa)
#
#
# Indices 1 2 3 4 5 6 
#
# 1 0.009625 -0.003166 -0.001798 0.000000 0.000000 0.000000
# 2 -0.003166 0.009625 -0.001798 0.000000 0.000000 0.000000
# 3 -0.001798 -0.001798 0.008502 0.000000 0.000000 0.000000
# 4 0.000000 0.000000 0.000000 0.055158 0.000000 0.000000
# 5 0.000000 0.000000 0.000000 0.000000 0.055158 0.000000
# 6 0.000000 0.000000 0.000000 0.000000 0.000000 0.025581
#
#
# Mechanical properties :
#
#
# Convention : Reuss Voigt Hill
#
# Bulk Modulus (GPa) = 70.27454 70.29397 70.28425
# Shear Modulus (GPa) = 27.48588 32.67845 30.08217
#
# Velocity S-wave (km/s) = 3.93513 4.29076 4.11679
# Velocity P-wave (km/s) = 7.76137 8.00939 7.88635
#
# Compressibility (1/GPa) = 0.01422991
#
# Stress axis : x y z
#
# Youngs Moduli (GPa) = 103.90020 103.90020 117.61843
#
# Poissons Ratio (x) = 0.32891 0.21142
# Poissons Ratio (y) = 0.32891 0.21142
# Poissons Ratio (z) = 0.18676 0.18676
#
# Static dielectric constant tensor:
#      x y z
#    x 1.644330 0.000000 0.000000 
#    y 0.000000 1.644330 0.000000 
#    z 0.000000 0.000000 1.628050 
# 
# From -- ./inp_files/2455.got.cif
#   From: 2010.05.17/outbox.cif.g08.bks.cpg/sg178_2_cif.got.tgz:2455.got - 2010.05.20 11:30:59.
