data_PCOD9582076
_publ_section_title
;
Structure prediction by ZEFSAII (Michael W. Deem and Ramdas Pophale) SiO2 
 PCOD9582076
Probable space group: P 63/M
;
_chemical_formula_sum "Si O2"
_cell_formula_units_Z 52
_cell_length_a 11.548108
_cell_length_b 11.548108
_cell_length_c 19.815686
_cell_angle_alpha 90.000000
_cell_angle_beta 90.000000
_cell_angle_gamma 120.000000
_cell_volume 2288.555332
_symmetry_space_group_name_H-M "P 63/M"
_symmetry_group_IT_number 176
_symmetry_cell_setting 'hexagonal'
loop_
_space_group_symop_operation_xyz
x,y,z
x-y,x,1/2+z
-y,x-y,z
-x,-y,1/2+z
-x+y,-x,z
y,-x+y,1/2+z
-x,-y,-z
-x+y,-x,1/2-z
y,-x+y,-z
x,y,1/2-z
x-y,x,-z
-y,x-y,1/2-z
loop_
_atom_site_type_symbol
_atom_site_label
_atom_site_fract_x
_atom_site_fract_y
_atom_site_fract_z
Si Si1 0.176132 0.883104 0.398494
Si Si2 0.000000 0.000000 0.419626
Si Si3 0.272819 0.889935 0.250000
Si Si4 0.687210 0.192782 0.135712
Si Si5 0.983177 0.399249 0.750000
Si Si6 0.368368 0.365165 0.478147
O O1 0.242150 0.924828 0.324860
O O2 0.275283 0.979130 0.456707
O O3 0.118547 0.733263 0.429329
O O4 0.046137 0.898572 0.395646
O O5 0.000000 0.000000 0.500000
O O6 0.429882 0.944037 0.250000
O O7 0.160193 0.733030 0.250000
O O8 0.796999 0.348444 0.143462
O O9 0.705479 0.139491 0.065147
O O10 0.666472 0.080039 0.188413
O O11 0.500000 0.500000 0.500000
#
# Coordination Sequence:
#
# PCOD9582076 Si02
#       6
#    12   4   6  12   6  12
#     4  12  26  47  75 107 147 196 239 306 365 434
#     4  12  24  52  74 103 147 187 245 295 363 418
#     4  12  29  46  72 110 151 198 236 302 370 450
#     4  10  23  43  71 107 137 190 243 304 360 427
#     4  12  23  50  68 106 153 194 244 292 380 438
#     4  12  23  43  71 107 144 188 250 298 363 433
#
# _framework density 22.721758999999999
#
# number of rings (size 3 to 8) (size 9 to 14) (size 15 to 20)
#    0.462    0.000    4.615    3.692    0.000    2.769 
#    5.538    0.000    0.000    0.000    0.000    0.000 
#    0.000    0.000    0.000    0.000    0.000    0.000 
#
# Total GULP energy -290111.904096 kJ/mol
# GULP energy per Si atom -5579.075079 kJ/mol
# Density = 2.267004 g / cm^3
# Si number density = 22.721759 Si / 1000 Ang^3
#
#
#
# Elastic Constant Matrix: (Units=GPa)
#
#
# Indices 1 2 3 4 5 6 
#
# 1 68.0509 -0.4206 24.6445 0.0000 0.0000 0.0000
# 2 -0.4206 68.0509 24.6445 0.0000 0.0000 0.0000
# 3 24.6445 24.6445 149.8434 0.0000 0.0000 0.0000
# 4 0.0000 0.0000 0.0000 21.0069 0.0000 0.0000
# 5 0.0000 0.0000 0.0000 0.0000 21.0069 0.0000
# 6 0.0000 0.0000 0.0000 0.0000 0.0000 34.2357
#
#
#
# Elastic Compliance Matrix: (Units=1/GPa)
#
#
# Indices 1 2 3 4 5 6 
#
# 1 0.015702 0.001098 -0.002763 0.000000 0.000000 0.000000
# 2 0.001098 0.015702 -0.002763 0.000000 0.000000 0.000000
# 3 -0.002763 -0.002763 0.007583 0.000000 0.000000 0.000000
# 4 0.000000 0.000000 0.000000 0.047603 0.000000 0.000000
# 5 0.000000 0.000000 0.000000 0.000000 0.047603 0.000000
# 6 0.000000 0.000000 0.000000 0.000000 0.000000 0.029209
#
#
# Mechanical properties :
#
#
# Convention : Reuss Voigt Hill
#
# Bulk Modulus (GPa) = 33.18927 42.63135 37.91031
# Shear Modulus (GPa) = 27.42678 31.05502 29.24090
#
# Velocity S-wave (km/s) = 3.47806 3.70097 3.59125
# Velocity P-wave (km/s) = 5.54687 6.08819 5.82382
#
# Compressibility (1/GPa) = 0.03013022
#
# Stress axis : x y z
#
# Youngs Moduli (GPa) = 63.68490 63.68490 131.88246
#
# Poissons Ratio (x) = -0.06991 0.36440
# Poissons Ratio (y) = -0.06991 0.36440
# Poissons Ratio (z) = 0.17597 0.17597
#
# Static dielectric constant tensor:
#      x y z
#    x 1.842860 0.000000 0.000000 
#    y 0.000000 1.842860 0.000000 
#    z 0.000000 0.000000 1.919300 
# 
# From -- ./inp_files/3716.got.cif
#   From: 2010.05.17/outbox.cif.g08.bks.cpg/sg176_2_cif.got.tgz:3716.got - 2010.06.03 11:36:45.
