data_PCOD9582242
_publ_section_title
;
Structure prediction by ZEFSAII (Michael W. Deem and Ramdas Pophale) SiO2 
 PCOD9582242
Probable space group: P 6 2 2
;
_chemical_formula_sum "Si O2"
_cell_formula_units_Z 72
_cell_length_a 14.158348
_cell_length_b 14.158348
_cell_length_c 18.886461
_cell_angle_alpha 90.000000
_cell_angle_beta 90.000000
_cell_angle_gamma 120.000000
_cell_volume 3278.735503
_symmetry_space_group_name_H-M "P 6 2 2"
_symmetry_group_IT_number 177
_symmetry_cell_setting 'hexagonal'
loop_
_space_group_symop_operation_xyz
x,y,z
x-y,x,z
-y,x-y,z
-x,-y,z
-x+y,-x,z
y,-x+y,z
x-y,-y,-z
-x,-x+y,-z
y,x,-z
-y,-x,-z
-x+y,y,-z
x,x-y,-z
loop_
_atom_site_type_symbol
_atom_site_label
_atom_site_fract_x
_atom_site_fract_y
_atom_site_fract_z
Si Si1 0.527404 0.737688 0.422922
Si Si2 0.951709 0.760881 0.406601
Si Si3 0.122817 0.668770 0.027175
Si Si4 0.794144 0.024627 0.236139
Si Si5 0.068572 0.441360 0.815129
Si Si6 0.399465 0.876870 0.664897
O O1 0.483476 0.741738 0.500000
O O2 0.637920 0.733570 0.433235
O O3 0.554123 0.848431 0.382217
O O4 0.447056 0.640542 0.371350
O O5 0.858628 0.789716 0.427136
O O6 0.960869 0.756634 0.321042
O O7 0.127792 0.678432 0.112158
O O8 0.215298 0.784703 0.000000
O O9 0.144380 0.572190 0.000000
O O10 0.000000 0.630269 0.000000
O O11 0.909908 0.125579 0.214548
O O12 0.683686 0.014411 0.206561
O O13 0.141480 0.501218 0.746083
O O14 0.000000 0.500000 0.830502
O O15 0.500000 0.000000 0.661930
#
# Coordination Sequence:
#
# PCOD9582242 Si02
#       6
#    12  12  12  12  12  12
#     4  12  25  42  64  93 130 173 227 287 349 415
#     4  10  20  37  59  90 126 166 216 269 332 403
#     4  11  25  47  72 108 148 190 239 292 368 440
#     4  10  21  38  66 102 142 186 234 292 362 430
#     4  11  23  42  70 100 142 183 238 298 349 437
#     4  11  25  44  67  96 129 174 231 285 353 417
#
# _framework density 21.959685
#
# number of rings (size 3 to 8) (size 9 to 14) (size 15 to 20)
#    0.000    1.167    1.667    6.333    2.333    6.000 
#    0.000    0.000    0.000    1.833    0.000    0.000 
#    0.000    0.000    0.000    0.000    0.000    0.000 
#
# Total GULP energy -402586.451559 kJ/mol
# GULP energy per Si atom -5591.478494 kJ/mol
# Density = 2.190970 g / cm^3
# Si number density = 21.959685 Si / 1000 Ang^3
#
#
#
# Elastic Constant Matrix: (Units=GPa)
#
#
# Indices 1 2 3 4 5 6 
#
# 1 122.8422 56.0243 47.5438 0.0000 0.0000 0.0000
# 2 56.0243 122.8422 47.5438 0.0000 0.0000 0.0000
# 3 47.5438 47.5438 174.6784 0.0000 0.0000 0.0000
# 4 0.0000 0.0000 0.0000 20.8595 0.0000 0.0000
# 5 0.0000 0.0000 0.0000 0.0000 20.8595 0.0000
# 6 0.0000 0.0000 0.0000 0.0000 0.0000 33.4089
#
#
#
# Elastic Compliance Matrix: (Units=1/GPa)
#
#
# Indices 1 2 3 4 5 6 
#
# 1 0.010751 -0.004215 -0.001779 0.000000 0.000000 0.000000
# 2 -0.004215 0.010751 -0.001779 0.000000 0.000000 0.000000
# 3 -0.001779 -0.001779 0.006693 0.000000 0.000000 0.000000
# 4 0.000000 0.000000 0.000000 0.047940 0.000000 0.000000
# 5 0.000000 0.000000 0.000000 0.000000 0.047940 0.000000
# 6 0.000000 0.000000 0.000000 0.000000 0.000000 0.029932
#
#
# Mechanical properties :
#
#
# Convention : Reuss Voigt Hill
#
# Bulk Modulus (GPa) = 79.05172 80.28739 79.66955
# Shear Modulus (GPa) = 28.77367 32.97567 30.87467
#
# Velocity S-wave (km/s) = 3.62373 3.87931 3.75370
# Velocity P-wave (km/s) = 7.32019 7.53034 7.42601
#
# Compressibility (1/GPa) = 0.01264995
#
# Stress axis : x y z
#
# Youngs Moduli (GPa) = 93.01196 93.01196 149.40358
#
# Poissons Ratio (x) = 0.39202 0.26581
# Poissons Ratio (y) = 0.39202 0.26581
# Poissons Ratio (z) = 0.16548 0.16548
#
# Static dielectric constant tensor:
#      x y z
#    x 1.825900 0.000000 0.000000 
#    y 0.000000 1.825900 0.000000 
#    z 0.000000 0.000000 1.807760 
# 
# From -- ./inp_files/2834.got.cif
#   From: 2010.05.17/outbox.cif.g08.bks.cpg/sg177_2_cif.got.tgz:2834.got - 2010.05.20 11:28:44.
