data_PCOD9582131
_publ_section_title
;
Structure prediction by ZEFSAII (Michael W. Deem and Ramdas Pophale) SiO2 
 PCOD9582131
Probable space group: P 63/M
;
_chemical_formula_sum "Si O2"
_cell_formula_units_Z 70
_cell_length_a 14.296876
_cell_length_b 14.296876
_cell_length_c 18.775232
_cell_angle_alpha 90.000000
_cell_angle_beta 90.000000
_cell_angle_gamma 120.000000
_cell_volume 3323.519604
_symmetry_space_group_name_H-M "P 63/M"
_symmetry_group_IT_number 176
_symmetry_cell_setting 'hexagonal'
loop_
_space_group_symop_operation_xyz
x,y,z
x-y,x,1/2+z
-y,x-y,z
-x,-y,1/2+z
-x+y,-x,z
y,-x+y,1/2+z
-x,-y,-z
-x+y,-x,1/2-z
y,-x+y,-z
x,y,1/2-z
x-y,x,-z
-y,x-y,1/2-z
loop_
_atom_site_type_symbol
_atom_site_label
_atom_site_fract_x
_atom_site_fract_y
_atom_site_fract_z
Si Si1 0.421156 0.616130 0.250000
Si Si2 0.724329 0.071954 0.405610
Si Si3 0.333334 0.666667 0.833962
Si Si4 0.399029 0.158877 0.522522
Si Si5 0.947743 0.756589 0.750000
Si Si6 0.945247 0.750979 0.250000
Si Si7 0.593112 0.465786 0.421363
Si Si8 0.085120 0.417733 0.132122
O O1 0.449310 0.741670 0.250000
O O2 0.476072 0.602292 0.180743
O O3 0.820234 0.163321 0.453723
O O4 0.626974 0.096855 0.416752
O O5 0.680699 0.953423 0.439006
O O6 0.755621 0.073043 0.322889
O O7 0.333334 0.666668 0.750000
O O8 0.224254 0.655930 0.865773
O O9 0.508797 0.162901 0.496564
O O10 0.429659 0.257284 0.575286
O O11 0.851466 0.783822 0.750000
O O12 0.936024 0.681332 0.682918
O O13 0.065995 0.861629 0.750000
O O14 0.603020 0.578965 0.403176
#
# Coordination Sequence:
#
# PCOD9582131 Si02
#       8
#     6  12   4  12   6   6  12  12
#     4   9  24  42  63 104 134 185 240 301 352 428
#     4  12  28  45  77 105 151 196 249 307 384 445
#     4  12  30  48  72 111 153 199 251 307 381 465
#     4  12  25  47  68 107 142 194 245 301 373 449
#     4  11  25  47  72 107 141 187 243 313 367 445
#     4  12  27  49  77 107 143 194 251 314 373 457
#     4  12  27  47  71 108 147 194 247 303 370 449
#     4  11  25  43  74  99 147 190 240 300 371 436
#
# _framework density 21.062010999999998
#
# number of rings (size 3 to 8) (size 9 to 14) (size 15 to 20)
#    0.171    0.343    5.143    1.714    6.000    0.000 
#    0.000    0.000    0.000    1.371    0.000    0.000 
#    0.000    0.000    0.000    0.000    0.000    0.000 
#
# Total GULP energy -391772.772635 kJ/mol
# GULP energy per Si atom -5596.753895 kJ/mol
# Density = 2.101407 g / cm^3
# Si number density = 21.062011 Si / 1000 Ang^3
#
#
#
# Elastic Constant Matrix: (Units=GPa)
#
#
# Indices 1 2 3 4 5 6 
#
# 1 95.5006 45.6071 51.0998 0.0000 0.0000 0.0005
# 2 45.6071 95.5007 51.0995 0.0000 0.0000 0.0002
# 3 51.0998 51.0995 146.9435 0.0000 0.0000 0.0000
# 4 0.0000 0.0000 0.0000 5204.6075 7.5933 0.0000
# 5 0.0000 0.0000 0.0000 7.5933 5255.5494 0.0000
# 6 0.0005 0.0002 0.0000 0.0000 0.0000 24.9468
#
#
#
# Elastic Compliance Matrix: (Units=1/GPa)
#
#
# Indices 1 2 3 4 5 6 
#
# 1 0.014758 -0.005285 -0.003294 0.000000 0.000000 0.000000
# 2 -0.005285 0.014758 -0.003294 0.000000 0.000000 0.000000
# 3 -0.003294 -0.003294 0.009096 0.000000 0.000000 0.000000
# 4 0.000000 0.000000 0.000000 0.000192 0.000000 0.000000
# 5 0.000000 0.000000 0.000000 0.000000 0.000190 0.000000
# 6 0.000000 0.000000 0.000000 0.000000 0.000000 0.040085
#
#
# Mechanical properties :
#
#
# Convention : Reuss Voigt Hill
#
# Bulk Modulus (GPa) = 67.27138 70.39529 68.83333
# Shear Modulus (GPa) = 46.39042 2109.69663 1078.04352
#
# Velocity S-wave (km/s) = 4.69824 31.68334 22.64848
# Velocity P-wave (km/s) = 7.83839 37.03972 26.77108
#
# Compressibility (1/GPa) = 0.01486516
#
# Stress axis : x y z
#
# Youngs Moduli (GPa) = 67.76143 67.76168 109.93388
#
# Poissons Ratio (x) = 0.35812 0.36213
# Poissons Ratio (y) = 0.35812 0.36213
# Poissons Ratio (z) = 0.22321 0.22321
#
# Static dielectric constant tensor:
#      x y z
#    x 1.749600 0.000000 0.000000 
#    y 0.000000 1.749600 0.000000 
#    z 0.000000 0.000000 1.797170 
# 
# From -- ./inp_files/3426.got.cif
#   From: 2010.05.17/outbox.cif.g08.bks.cpg/sg176_2_cif.got.tgz:3426.got - 2010.06.03 11:36:45.
