data_PCOD9582465
_publ_section_title
;
Structure prediction by ZEFSAII (Michael W. Deem and Ramdas Pophale) SiO2 
 PCOD9582465
Probable space group: P 61 2 2
;
_chemical_formula_sum "Si O2"
_cell_formula_units_Z 78
_cell_length_a 19.553726
_cell_length_b 19.553726
_cell_length_c 13.989266
_cell_angle_alpha 90.000000
_cell_angle_beta 90.000000
_cell_angle_gamma 120.000000
_cell_volume 4632.171289
_symmetry_space_group_name_H-M "P 61 2 2"
_symmetry_group_IT_number 178
_symmetry_cell_setting 'hexagonal'
loop_
_space_group_symop_operation_xyz
x,y,z
x-y,x,1/6+z
-y,x-y,1/3+z
-x,-y,1/2+z
-x+y,-x,2/3+z
y,-x+y,5/6+z
x-y,-y,-z
-x,-x+y,2/3-z
y,x,1/3-z
-y,-x,5/6-z
-x+y,y,1/2-z
x,x-y,1/6-z
loop_
_atom_site_type_symbol
_atom_site_label
_atom_site_fract_x
_atom_site_fract_y
_atom_site_fract_z
Si Si1 0.270331 0.781986 0.517717
Si Si2 0.515210 0.484791 0.416667
Si Si3 0.476075 0.913989 0.052043
Si Si4 0.390234 0.609767 0.416667
Si Si5 0.838693 0.268734 0.617900
Si Si6 0.651612 0.625230 0.827873
Si Si7 0.679812 0.339906 0.083334
Si Si8 0.118820 0.421160 0.369862
O O1 0.228546 0.771455 0.416667
O O2 0.359489 0.852780 0.501769
O O3 0.240063 0.809501 0.608107
O O4 0.271502 0.700813 0.542132
O O5 0.575935 0.499125 0.330877
O O6 0.433827 0.448182 0.357990
O O7 0.381951 0.877348 0.050472
O O8 0.519788 0.000000 0.000000
O O9 0.345884 0.517258 0.438861
O O10 0.346888 0.625315 0.329451
O O11 0.926430 0.293279 0.583778
O O12 0.775360 0.201152 0.549889
O O13 0.633709 0.691334 0.786245
O O14 0.686891 0.605024 0.735024
#
# Coordination Sequence:
#
# PCOD9582465 Si02
#       8
#    12   6  12   6  12  12   6  12
#     4  11  25  36  49  72  96 126 171 209 269 323
#     4  10  19  33  58  68  94 130 160 214 256 306
#     4  11  21  37  53  69  95 129 168 210 260 317
#     4  10  21  30  48  67  92 120 160 198 266 308
#     4  11  23  34  54  71  99 131 160 221 261 306
#     4  10  20  36  51  77  93 119 172 206 258 319
#     4  10  20  35  42  63  94 116 148 204 258 314
#     4  10  21  35  54  73  97 126 163 215 260 312
#
# _framework density 16.838756
#
# number of rings (size 3 to 8) (size 9 to 14) (size 15 to 20)
#    0.000    1.538    3.846    2.769   12.923    0.000 
#    0.000    0.000    0.000    0.000    0.000    0.000 
#    0.000    0.000    0.000    0.000    0.000    0.000 
#
# Total GULP energy -434984.240858 kJ/mol
# GULP energy per Si atom -5576.721037 kJ/mol
# Density = 1.680043 g / cm^3
# Si number density = 16.838756 Si / 1000 Ang^3
#
#
#
# Elastic Constant Matrix: (Units=GPa)
#
#
# Indices 1 2 3 4 5 6 
#
# 1 40.1705 19.1432 8.9504 0.0000 0.0000 0.0000
# 2 19.1432 40.1705 8.9504 0.0000 0.0000 0.0000
# 3 8.9504 8.9504 88.8359 0.0000 0.0000 0.0000
# 4 0.0000 0.0000 0.0000 18.8386 0.0000 0.0000
# 5 0.0000 0.0000 0.0000 0.0000 18.8386 0.0000
# 6 0.0000 0.0000 0.0000 0.0000 0.0000 10.5137
#
#
#
# Elastic Compliance Matrix: (Units=1/GPa)
#
#
# Indices 1 2 3 4 5 6 
#
# 1 0.032473 -0.015084 -0.001752 0.000000 0.000000 0.000000
# 2 -0.015084 0.032473 -0.001752 0.000000 0.000000 0.000000
# 3 -0.001752 -0.001752 0.011610 0.000000 0.000000 0.000000
# 4 0.000000 0.000000 0.000000 0.053083 0.000000 0.000000
# 5 0.000000 0.000000 0.000000 0.000000 0.053083 0.000000
# 6 0.000000 0.000000 0.000000 0.000000 0.000000 0.095114
#
#
# Mechanical properties :
#
#
# Convention : Reuss Voigt Hill
#
# Bulk Modulus (GPa) = 25.39450 27.02942 26.21196
# Shear Modulus (GPa) = 15.23754 18.44704 16.84229
#
# Velocity S-wave (km/s) = 3.01143 3.31344 3.16604
# Velocity P-wave (km/s) = 5.21588 5.54304 5.38194
#
# Compressibility (1/GPa) = 0.03937860
#
# Stress axis : x y z
#
# Youngs Moduli (GPa) = 30.79515 30.79515 86.13468
#
# Poissons Ratio (x) = 0.46453 0.15090
# Poissons Ratio (y) = 0.46453 0.15090
# Poissons Ratio (z) = 0.05395 0.05395
#
# Static dielectric constant tensor:
#      x y z
#    x 1.576140 0.000000 0.000000 
#    y 0.000000 1.576140 0.000000 
#    z 0.000000 0.000000 1.695170 
# 
# From -- ./inp_files/6094.got.cif
#   From: 2010.05.17/outbox.cif.g08.bks.cpg/sg178_4_cif.got.tgz:6094.got - 2010.05.20 11:30:59.
