data_PCOD9582923
_publ_section_title
;
Structure prediction by ZEFSAII (Michael W. Deem and Ramdas Pophale) SiO2 
 PCOD9582923
Probable space group: P 61 2 2
;
_chemical_formula_sum "Si O2"
_cell_formula_units_Z 36
_cell_length_a 10.669483
_cell_length_b 10.669483
_cell_length_c 13.863618
_cell_angle_alpha 90.000000
_cell_angle_beta 90.000000
_cell_angle_gamma 120.000000
_cell_volume 1366.765370
_symmetry_space_group_name_H-M "P 61 2 2"
_symmetry_group_IT_number 178
_symmetry_cell_setting 'hexagonal'
loop_
_space_group_symop_operation_xyz
x,y,z
x-y,x,1/6+z
-y,x-y,1/3+z
-x,-y,1/2+z
-x+y,-x,2/3+z
y,-x+y,5/6+z
x-y,-y,-z
-x,-x+y,2/3-z
y,x,1/3-z
-y,-x,5/6-z
-x+y,y,1/2-z
x,x-y,1/6-z
loop_
_atom_site_type_symbol
_atom_site_label
_atom_site_fract_x
_atom_site_fract_y
_atom_site_fract_z
Si Si1 0.852722 0.516435 0.672211
Si Si2 0.022585 0.206406 0.069948
Si Si3 0.362907 0.912241 0.404019
O O1 0.725800 0.451600 0.750000
O O2 0.823431 0.411716 0.583334
O O3 0.860390 0.661967 0.634403
O O4 0.006731 0.540465 0.712606
O O5 0.925968 0.087568 0.148187
O O6 0.942921 0.281921 0.016526
O O7 0.259080 0.740921 0.416667
O O8 0.363803 0.000000 0.500000
#
# Coordination Sequence:
#
# PCOD9582923 Si02
#       3
#    12  12  12
#     4  10  26  51  77 121 169 224 282 362 446 538
#     4  11  25  50  77 113 163 219 285 362 448 530
#     4  11  23  46  80 120 167 223 281 354 444 546
#
# _framework density 26.339561
#
# number of rings (size 3 to 8) (size 9 to 14) (size 15 to 20)
#    0.000    1.333    3.333    0.000    4.667    1.333 
#    6.000   11.667    0.000    0.000    0.000    0.000 
#    0.000    0.000    0.000    0.000    0.000    0.000 
#
# Total GULP energy -201468.917944 kJ/mol
# GULP energy per Si atom -5596.358832 kJ/mol
# Density = 2.627961 g / cm^3
# Si number density = 26.339561 Si / 1000 Ang^3
#
#
#
# Elastic Constant Matrix: (Units=GPa)
#
#
# Indices 1 2 3 4 5 6 
#
# 1 106.9136 99.6460 68.5244 0.0000 0.0000 0.0000
# 2 99.6460 106.9136 68.5244 0.0000 0.0000 0.0000
# 3 68.5244 68.5244 189.2119 0.0000 0.0000 0.0000
# 4 0.0000 0.0000 0.0000 52.8039 0.0000 0.0000
# 5 0.0000 0.0000 0.0000 0.0000 52.8039 0.0000
# 6 0.0000 0.0000 0.0000 0.0000 0.0000 3.6338
#
#
#
# Elastic Compliance Matrix: (Units=1/GPa)
#
#
# Indices 1 2 3 4 5 6 
#
# 1 0.071985 -0.065612 -0.002308 0.000000 0.000000 0.000000
# 2 -0.065612 0.071985 -0.002308 0.000000 0.000000 0.000000
# 3 -0.002308 -0.002308 0.006957 0.000000 0.000000 0.000000
# 4 0.000000 0.000000 0.000000 0.018938 0.000000 0.000000
# 5 0.000000 0.000000 0.000000 0.000000 0.018938 0.000000
# 6 0.000000 0.000000 0.000000 0.000000 0.000000 0.275194
#
#
# Mechanical properties :
#
#
# Convention : Reuss Voigt Hill
#
# Bulk Modulus (GPa) = 95.50886 97.38098 96.44492
# Shear Modulus (GPa) = 8.22447 32.93793 20.58120
#
# Velocity S-wave (km/s) = 1.76897 3.54009 2.79835
# Velocity P-wave (km/s) = 6.36488 7.33221 6.86560
#
# Compressibility (1/GPa) = 0.01047023
#
# Stress axis : x y z
#
# Youngs Moduli (GPa) = 13.89184 13.89184 143.74710
#
# Poissons Ratio (x) = 0.91148 0.33174
# Poissons Ratio (y) = 0.91148 0.33174
# Poissons Ratio (z) = 0.03206 0.03206
#
# Static dielectric constant tensor:
#      x y z
#    x 2.087390 0.000000 0.000000 
#    y 0.000000 2.087390 0.000000 
#    z 0.000000 0.000000 2.112250 
# 
# From -- ./inp_files/5087.got.cif
#   From: 2010.05.17/outbox.cif.g08.bks.cpg/sg178_3_cif.got.tgz:5087.got - 2010.05.20 11:30:59.
