data_PCOD9582216
_publ_section_title
;
Structure prediction by ZEFSAII (Michael W. Deem and Ramdas Pophale) SiO2 
 PCOD9582216
Probable space group: P 6 2 2
;
_chemical_formula_sum "Si O2"
_cell_formula_units_Z 96
_cell_length_a 22.237557
_cell_length_b 22.237557
_cell_length_c 11.343882
_cell_angle_alpha 90.000000
_cell_angle_beta 90.000000
_cell_angle_gamma 120.000000
_cell_volume 4858.100340
_symmetry_space_group_name_H-M "P 6 2 2"
_symmetry_group_IT_number 177
_symmetry_cell_setting 'hexagonal'
loop_
_space_group_symop_operation_xyz
x,y,z
x-y,x,z
-y,x-y,z
-x,-y,z
-x+y,-x,z
y,-x+y,z
x-y,-y,-z
-x,-x+y,-z
y,x,-z
-y,-x,-z
-x+y,y,-z
x,x-y,-z
loop_
_atom_site_type_symbol
_atom_site_label
_atom_site_fract_x
_atom_site_fract_y
_atom_site_fract_z
Si Si1 0.645429 0.948683 0.390077
Si Si2 0.392573 0.875709 0.893292
Si Si3 0.532553 0.377252 0.294190
Si Si4 0.711116 0.634346 0.036494
Si Si5 0.182571 0.684340 0.458256
Si Si6 0.755763 0.478003 0.778133
Si Si7 0.646175 0.840581 0.243321
Si Si8 0.374529 0.296993 0.230898
O O1 0.564661 0.893705 0.421699
O O2 0.670714 0.895991 0.348025
O O3 0.680127 0.000000 0.500000
O O4 0.663727 0.998601 0.275501
O O5 0.434446 0.885022 0.772292
O O6 0.354358 0.920372 0.906664
O O7 0.328827 0.796058 0.884929
O O8 0.444054 0.888107 0.000000
O O9 0.538126 0.362855 0.430602
O O10 0.550365 0.325494 0.219611
O O11 0.449562 0.342474 0.286357
O O12 0.778173 0.659803 0.118953
O O13 0.693835 0.693835 0.000000
O O14 0.713101 0.609304 0.904633
O O15 0.235664 0.764337 0.500000
O O16 0.222184 0.677945 0.343484
O O17 0.795084 0.561571 0.758986
O O18 0.668074 0.783546 0.267846
#
# Coordination Sequence:
#
# PCOD9582216 Si02
#       8
#    12  12  12  12  12  12  12  12
#     4  11  20  30  54  87 112 137 182 227 263 319
#     4  11  22  35  52  78 104 138 177 237 297 340
#     4  10  19  36  54  75 105 137 179 226 288 343
#     4  11  21  38  56  76 106 149 192 231 279 346
#     4   9  18  36  58  78 105 146 185 225 271 341
#     4   8  19  35  55  73  98 135 182 224 275 345
#     4   9  20  35  55  80 106 145 187 219 272 331
#     4  11  20  35  57  78 110 149 183 229 273 337
#
# _framework density 19.760812000000001
#
# number of rings (size 3 to 8) (size 9 to 14) (size 15 to 20)
#    0.000    2.000    3.750    1.125    0.000    1.250 
#    0.750    0.000    0.000    0.000    0.000    0.000 
#    0.000    0.000    0.000    0.375    5.500    1.625 
#
# Total GULP energy -534422.487884 kJ/mol
# GULP energy per Si atom -5566.900915 kJ/mol
# Density = 1.971584 g / cm^3
# Si number density = 19.760812 Si / 1000 Ang^3
#
#
#
# Elastic Constant Matrix: (Units=GPa)
#
#
# Indices 1 2 3 4 5 6 
#
# 1 55.3709 39.5118 23.4503 0.0000 0.0000 0.0000
# 2 39.5118 55.3709 23.4503 0.0000 0.0000 0.0000
# 3 23.4503 23.4503 72.3706 0.0000 0.0000 0.0000
# 4 0.0000 0.0000 0.0000 30.6228 0.0000 0.0000
# 5 0.0000 0.0000 0.0000 0.0000 30.6228 0.0000
# 6 0.0000 0.0000 0.0000 0.0000 0.0000 7.9296
#
#
#
# Elastic Compliance Matrix: (Units=1/GPa)
#
#
# Indices 1 2 3 4 5 6 
#
# 1 0.037802 -0.025253 -0.004066 0.000000 0.000000 0.000000
# 2 -0.025253 0.037802 -0.004066 0.000000 0.000000 0.000000
# 3 -0.004066 -0.004066 0.016453 0.000000 0.000000 0.000000
# 4 0.000000 0.000000 0.000000 0.032655 0.000000 0.000000
# 5 0.000000 0.000000 0.000000 0.000000 0.032655 0.000000
# 6 0.000000 0.000000 0.000000 0.000000 0.000000 0.126110
#
#
# Mechanical properties :
#
#
# Convention : Reuss Voigt Hill
#
# Bulk Modulus (GPa) = 39.54723 39.54857 39.54790
# Shear Modulus (GPa) = 13.94005 20.28171 17.11088
#
# Velocity S-wave (km/s) = 2.65889 3.20716 2.94581
# Velocity P-wave (km/s) = 5.42980 5.81133 5.62380
#
# Compressibility (1/GPa) = 0.02528622
#
# Stress axis : x y z
#
# Youngs Moduli (GPa) = 26.45344 26.45344 60.77911
#
# Poissons Ratio (x) = 0.66803 0.24715
# Poissons Ratio (y) = 0.66803 0.24715
# Poissons Ratio (z) = 0.10757 0.10757
#
# Static dielectric constant tensor:
#      x y z
#    x 1.764440 0.000000 0.000000 
#    y 0.000000 1.764440 0.000000 
#    z 0.000000 0.000000 1.887500 
# 
# From -- ./inp_files/2201.got.cif
#   From: 2010.05.17/outbox.cif.g08.bks.cpg/sg177_2_cif.got.tgz:2201.got - 2010.05.20 11:28:44.
