data_PCOD9582007
_publ_section_title
;
Structure prediction by ZEFSAII (Michael W. Deem and Ramdas Pophale) SiO2 
 PCOD9582007
Probable space group: P 63/M
;
_chemical_formula_sum "Si O2"
_cell_formula_units_Z 44
_cell_length_a 13.257173
_cell_length_b 13.257173
_cell_length_c 14.797968
_cell_angle_alpha 90.000000
_cell_angle_beta 90.000000
_cell_angle_gamma 120.000000
_cell_volume 2252.343180
_symmetry_space_group_name_H-M "P 63/M"
_symmetry_group_IT_number 176
_symmetry_cell_setting 'hexagonal'
loop_
_space_group_symop_operation_xyz
x,y,z
x-y,x,1/2+z
-y,x-y,z
-x,-y,1/2+z
-x+y,-x,z
y,-x+y,1/2+z
-x,-y,-z
-x+y,-x,1/2-z
y,-x+y,-z
x,y,1/2-z
x-y,x,-z
-y,x-y,1/2-z
loop_
_atom_site_type_symbol
_atom_site_label
_atom_site_fract_x
_atom_site_fract_y
_atom_site_fract_z
Si Si1 0.333334 0.666667 0.859681
Si Si2 0.221453 0.966715 0.000000
Si Si3 0.362980 0.912504 0.357445
Si Si4 0.450476 0.362976 0.142555
Si Si5 0.333335 0.666667 0.359681
O O1 0.333334 0.666668 0.750000
O O2 0.449980 0.666514 0.887075
O O3 0.288196 0.953875 0.086300
O O4 0.288198 0.953878 0.913700
O O5 0.089964 0.861785 0.999999
O O6 0.341156 0.910371 0.250000
O O7 0.333497 0.783472 0.387076
O O8 0.500001 0.000004 0.372502
O O9 0.430783 0.341153 0.250000
O O10 0.333334 0.666668 0.250000
#
# Coordination Sequence:
#
# PCOD9582007 Si02
#       5
#     4  12  12  12   4
#     4   9  18  34  59  91 121 149 190 244 299 358
#     4  12  26  42  60  84 117 160 206 248 290 342
#     4  10  21  39  63  91 122 154 191 240 298 357
#     4  10  21  39  63  91 122 154 191 240 298 357
#     4   9  18  34  59  91 121 149 190 244 299 358
#
# _framework density 19.535209999999999
#
# number of rings (size 3 to 8) (size 9 to 14) (size 15 to 20)
#    0.000    1.636    0.000    4.364    0.000    8.727 
#    0.000    0.000    0.000    3.273    0.000    0.000 
#    0.000    0.000    0.000    0.000    0.000    0.000 
#
# Total GULP energy -246188.384537 kJ/mol
# GULP energy per Si atom -5595.190558 kJ/mol
# Density = 1.949075 g / cm^3
# Si number density = 19.535210 Si / 1000 Ang^3
#
#
#
# Elastic Constant Matrix: (Units=GPa)
#
#
# Indices 1 2 3 4 5 6 
#
# 1 157.2153 76.0571 76.2355 0.0000 0.0000 0.0003
# 2 76.0571 157.2121 76.2354 0.0000 0.0000 0.0001
# 3 76.2355 76.2354 99.8241 0.0000 0.0000 0.0001
# 4 0.0000 0.0000 0.0000 81.3004 0.0036 0.0000
# 5 0.0000 0.0000 0.0000 0.0036 81.3011 0.0000
# 6 0.0003 0.0001 0.0001 0.0000 0.0000 40.5773
#
#
#
# Elastic Compliance Matrix: (Units=1/GPa)
#
#
# Indices 1 2 3 4 5 6 
#
# 1 0.010441 -0.001881 -0.006537 0.000000 0.000000 0.000000
# 2 -0.001881 0.010441 -0.006537 0.000000 0.000000 0.000000
# 3 -0.006537 -0.006537 0.020002 0.000000 0.000000 0.000000
# 4 0.000000 0.000000 0.000000 0.012300 -0.000001 0.000000
# 5 0.000000 0.000000 0.000000 -0.000001 0.012300 0.000000
# 6 0.000000 0.000000 0.000000 0.000000 0.000000 0.024644
#
#
# Mechanical properties :
#
#
# Convention : Reuss Voigt Hill
#
# Bulk Modulus (GPa) = 91.12839 96.81192 93.97016
# Shear Modulus (GPa) = 40.42188 53.01735 46.71962
#
# Velocity S-wave (km/s) = 4.55376 5.21520 4.89566
# Velocity P-wave (km/s) = 8.62546 9.26982 8.95344
#
# Compressibility (1/GPa) = 0.01097353
#
# Stress axis : x y z
#
# Youngs Moduli (GPa) = 95.78071 95.77770 49.99494
#
# Poissons Ratio (x) = 0.18017 0.32680
# Poissons Ratio (y) = 0.18018 0.32682
# Poissons Ratio (z) = 0.62610 0.62610
#
# Static dielectric constant tensor:
#      x y z
#    x 1.647900 0.000000 0.000000 
#    y 0.000000 1.647910 0.000000 
#    z 0.000000 0.000000 1.699670 
# 
# From -- ./inp_files/3198.got.cif
#   From: 2010.05.17/outbox.cif.g08.bks.cpg/sg176_2_cif.got.tgz:3198.got - 2010.06.03 11:36:45.
