data_PCOD9582662
_publ_section_title
;
Structure prediction by ZEFSAII (Michael W. Deem and Ramdas Pophale) SiO2 
 PCOD9582662
Probable space group: P 61 2 2
;
_chemical_formula_sum "Si O2"
_cell_formula_units_Z 84
_cell_length_a 13.982340
_cell_length_b 13.982340
_cell_length_c 23.009959
_cell_angle_alpha 90.000000
_cell_angle_beta 90.000000
_cell_angle_gamma 120.000000
_cell_volume 3895.885579
_symmetry_space_group_name_H-M "P 61 2 2"
_symmetry_group_IT_number 178
_symmetry_cell_setting 'hexagonal'
loop_
_space_group_symop_operation_xyz
x,y,z
x-y,x,1/6+z
-y,x-y,1/3+z
-x,-y,1/2+z
-x+y,-x,2/3+z
y,-x+y,5/6+z
x-y,-y,-z
-x,-x+y,2/3-z
y,x,1/3-z
-y,-x,5/6-z
-x+y,y,1/2-z
x,x-y,1/6-z
loop_
_atom_site_type_symbol
_atom_site_label
_atom_site_fract_x
_atom_site_fract_y
_atom_site_fract_z
Si Si1 0.389400 0.389400 0.666667
Si Si2 0.455190 0.590396 0.984631
Si Si3 0.302573 0.697428 0.416667
Si Si4 0.223157 0.865826 0.600340
Si Si5 0.694209 0.701429 0.376186
Si Si6 0.763756 0.217369 0.287028
Si Si7 0.394730 0.584637 0.276684
Si Si8 0.582834 0.046425 0.573283
O O1 0.357451 0.290184 0.710526
O O2 0.420284 0.496164 0.707748
O O3 0.422611 0.577390 0.916667
O O4 0.580003 0.615917 0.982851
O O5 0.451831 0.687021 0.023271
O O6 0.398175 0.481783 0.025547
O O7 0.431520 0.740615 0.425809
O O8 0.099526 0.782892 0.578628
O O9 0.302545 0.814741 0.620750
O O10 0.223740 0.943985 0.651921
O O11 0.627007 0.738420 0.417372
O O12 0.674609 0.178876 0.337690
O O13 0.896280 0.299352 0.291880
O O14 0.306982 0.613963 0.250000
O O15 0.413836 0.499321 0.238327
#
# Coordination Sequence:
#
# PCOD9582662 Si02
#       8
#     6  12   6  12  12  12  12  12
#     4  10  20  46  70 104 144 176 256 310 384 466
#     4  11  24  40  65  98 146 199 244 313 376 462
#     4  10  26  38  62 100 142 196 252 292 384 458
#     4  11  27  44  70 106 145 200 247 305 390 456
#     4  12  27  43  70 102 151 200 252 314 376 472
#     4  11  24  40  61  95 141 186 246 304 374 451
#     4  11  23  42  66 102 139 193 247 305 381 462
#     4  10  22  43  65  98 139 186 244 316 368 465
#
# _framework density 21.561209000000002
#
# number of rings (size 3 to 8) (size 9 to 14) (size 15 to 20)
#    0.000    1.143    2.857    3.429   15.000    0.571 
#    0.000    0.000    0.000    0.000    3.714    0.000 
#    0.000    0.000    0.000    0.000    0.000    0.000 
#
# Total GULP energy -467723.693155 kJ/mol
# GULP energy per Si atom -5568.139204 kJ/mol
# Density = 2.151213 g / cm^3
# Si number density = 21.561209 Si / 1000 Ang^3
#
#
#
# Elastic Constant Matrix: (Units=GPa)
#
#
# Indices 1 2 3 4 5 6 
#
# 1 114.1888 56.6071 48.9076 0.0000 0.0000 0.0000
# 2 56.6071 114.1888 48.9076 0.0000 0.0000 0.0000
# 3 48.9076 48.9076 146.5854 0.0000 0.0000 0.0000
# 4 0.0000 0.0000 0.0000 36.1320 0.0000 0.0000
# 5 0.0000 0.0000 0.0000 0.0000 36.1320 0.0000
# 6 0.0000 0.0000 0.0000 0.0000 0.0000 28.7909
#
#
#
# Elastic Compliance Matrix: (Units=1/GPa)
#
#
# Indices 1 2 3 4 5 6 
#
# 1 0.012302 -0.005064 -0.002415 0.000000 0.000000 0.000000
# 2 -0.005064 0.012302 -0.002415 0.000000 0.000000 0.000000
# 3 -0.002415 -0.002415 0.008433 0.000000 0.000000 0.000000
# 4 0.000000 0.000000 0.000000 0.027676 0.000000 0.000000
# 5 0.000000 0.000000 0.000000 0.000000 0.027676 0.000000
# 6 0.000000 0.000000 0.000000 0.000000 0.000000 0.034733
#
#
# Mechanical properties :
#
#
# Convention : Reuss Voigt Hill
#
# Bulk Modulus (GPa) = 75.47351 75.97864 75.72608
# Shear Modulus (GPa) = 33.93772 34.91371 34.42572
#
# Velocity S-wave (km/s) = 3.97169 4.02840 4.00015
# Velocity P-wave (km/s) = 7.49085 7.54668 7.51881
#
# Compressibility (1/GPa) = 0.01324968
#
# Stress axis : x y z
#
# Youngs Moduli (GPa) = 81.28563 81.28563 118.57596
#
# Poissons Ratio (x) = 0.41166 0.28635
# Poissons Ratio (y) = 0.41166 0.28635
# Poissons Ratio (z) = 0.19630 0.19630
#
# Static dielectric constant tensor:
#      x y z
#    x 1.997910 0.000000 0.000000 
#    y 0.000000 1.997910 0.000000 
#    z 0.000000 0.000000 2.005450 
# 
# From -- ./inp_files/8369.got.cif
#   From: 2010.05.17/outbox.cif.g08.bks.cpg/sg178_5_cif.got.tgz:8369.got - 2010.05.20 11:30:59.
