data_PCOD9582912
_publ_section_title
;
Structure prediction by ZEFSAII (Michael W. Deem and Ramdas Pophale) SiO2 
 PCOD9582912
Probable space group: P 61 2 2
;
_chemical_formula_sum "Si O2"
_cell_formula_units_Z 72
_cell_length_a 11.610242
_cell_length_b 11.610242
_cell_length_c 27.173507
_cell_angle_alpha 90.000000
_cell_angle_beta 90.000000
_cell_angle_gamma 120.000000
_cell_volume 3172.187634
_symmetry_space_group_name_H-M "P 61 2 2"
_symmetry_group_IT_number 178
_symmetry_cell_setting 'hexagonal'
loop_
_space_group_symop_operation_xyz
x,y,z
x-y,x,1/6+z
-y,x-y,1/3+z
-x,-y,1/2+z
-x+y,-x,2/3+z
y,-x+y,5/6+z
x-y,-y,-z
-x,-x+y,2/3-z
y,x,1/3-z
-y,-x,5/6-z
-x+y,y,1/2-z
x,x-y,1/6-z
loop_
_atom_site_type_symbol
_atom_site_label
_atom_site_fract_x
_atom_site_fract_y
_atom_site_fract_z
Si Si1 0.732437 0.401950 0.864072
Si Si2 0.841228 0.358481 0.134430
Si Si3 0.108093 0.891908 0.916667
Si Si4 0.007154 0.000000 0.500000
Si Si5 0.355312 0.914594 0.870091
Si Si6 0.571951 0.571951 0.166667
Si Si7 0.399955 0.307548 0.756599
Si Si8 0.116460 0.883541 0.416667
O O1 0.655217 0.344784 0.916667
O O2 0.642685 0.281556 0.826725
O O3 0.723395 0.523162 0.837653
O O4 0.888497 0.444423 0.863350
O O5 0.874287 0.437144 0.083334
O O6 0.807347 0.208749 0.120747
O O7 0.958981 0.414499 0.172445
O O8 0.073947 0.954507 0.869876
O O9 0.263427 0.941346 0.906731
O O10 0.060227 0.929474 0.462556
O O11 0.452442 0.881517 0.901128
O O12 0.607280 0.702868 0.198085
O O13 0.271953 0.323351 0.763448
#
# Coordination Sequence:
#
# PCOD9582912 Si02
#       8
#    12  12   6   6  12   6  12   6
#     4  11  25  44  68 104 141 185 248 296 360 445
#     4  11  23  45  66  99 148 185 233 303 365 426
#     4  11  24  46  74 108 146 193 254 312 378 443
#     4  10  25  47  74 102 138 189 245 316 364 422
#     4  11  25  42  70 102 141 192 232 298 374 434
#     4  12  23  41  66  94 134 183 229 294 344 428
#     4  11  25  41  68 100 138 185 234 296 353 429
#     4  11  24  46  70 104 138 183 244 296 364 433
#
# _framework density 22.69727
#
# number of rings (size 3 to 8) (size 9 to 14) (size 15 to 20)
#    0.000    1.000    1.667    4.000    5.833    5.333 
#    0.000    3.333    0.000    0.000    0.000    0.000 
#    0.000    0.000    0.000    0.000    0.000    0.000 
#
# Total GULP energy -400926.951667 kJ/mol
# GULP energy per Si atom -5568.429884 kJ/mol
# Density = 2.264561 g / cm^3
# Si number density = 22.697270 Si / 1000 Ang^3
#
#
#
# Elastic Constant Matrix: (Units=GPa)
#
#
# Indices 1 2 3 4 5 6 
#
# 1 75.3578 17.6408 17.8696 0.0000 0.0000 0.0000
# 2 17.6408 75.3578 17.8696 0.0000 0.0000 0.0000
# 3 17.8696 17.8696 89.0510 0.0000 0.0000 0.0000
# 4 0.0000 0.0000 0.0000 26.6921 0.0000 0.0000
# 5 0.0000 0.0000 0.0000 0.0000 26.6921 0.0000
# 6 0.0000 0.0000 0.0000 0.0000 0.0000 28.8585
#
#
#
# Elastic Compliance Matrix: (Units=1/GPa)
#
#
# Indices 1 2 3 4 5 6 
#
# 1 0.014489 -0.002837 -0.002338 0.000000 0.000000 0.000000
# 2 -0.002837 0.014489 -0.002338 0.000000 0.000000 0.000000
# 3 -0.002338 -0.002338 0.012168 0.000000 0.000000 0.000000
# 4 0.000000 0.000000 0.000000 0.037464 0.000000 0.000000
# 5 0.000000 0.000000 0.000000 0.000000 0.037464 0.000000
# 6 0.000000 0.000000 0.000000 0.000000 0.000000 0.034652
#
#
# Mechanical properties :
#
#
# Convention : Reuss Voigt Hill
#
# Bulk Modulus (GPa) = 38.28720 38.50297 38.39508
# Shear Modulus (GPa) = 28.66013 28.87431 28.76722
#
# Velocity S-wave (km/s) = 3.55732 3.57059 3.56396
# Velocity P-wave (km/s) = 5.81188 5.83090 5.82140
#
# Compressibility (1/GPa) = 0.02611839
#
# Stress axis : x y z
#
# Youngs Moduli (GPa) = 69.01964 69.01964 82.18377
#
# Poissons Ratio (x) = 0.19583 0.19215
# Poissons Ratio (y) = 0.19583 0.19215
# Poissons Ratio (z) = 0.16137 0.16137
#
# Static dielectric constant tensor:
#      x y z
#    x 1.918150 0.000000 0.000000 
#    y 0.000000 1.918150 0.000000 
#    z 0.000000 0.000000 1.914510 
# 
# From -- ./inp_files/9644.got.cif
#   From: 2010.05.17/outbox.cif.g08.bks.cpg/sg178_5_cif.got.tgz:9644.got - 2010.05.20 11:30:59.
