data_PCOD9582863
_publ_section_title
;
Structure prediction by ZEFSAII (Michael W. Deem and Ramdas Pophale) SiO2 
 PCOD9582863
Probable space group: P 61 2 2
;
_chemical_formula_sum "Si O2"
_cell_formula_units_Z 48
_cell_length_a 14.794646
_cell_length_b 14.794646
_cell_length_c 10.750247
_cell_angle_alpha 90.000000
_cell_angle_beta 90.000000
_cell_angle_gamma 120.000000
_cell_volume 2037.784387
_symmetry_space_group_name_H-M "P 61 2 2"
_symmetry_group_IT_number 178
_symmetry_cell_setting 'hexagonal'
loop_
_space_group_symop_operation_xyz
x,y,z
x-y,x,1/6+z
-y,x-y,1/3+z
-x,-y,1/2+z
-x+y,-x,2/3+z
y,-x+y,5/6+z
x-y,-y,-z
-x,-x+y,2/3-z
y,x,1/3-z
-y,-x,5/6-z
-x+y,y,1/2-z
x,x-y,1/6-z
loop_
_atom_site_type_symbol
_atom_site_label
_atom_site_fract_x
_atom_site_fract_y
_atom_site_fract_z
Si Si1 0.635358 0.999146 0.245037
Si Si2 0.858218 0.803831 0.873469
Si Si3 0.312319 0.527860 0.013590
Si Si4 0.433605 0.554110 0.570900
O O1 0.619136 0.068049 0.349756
O O2 0.582449 0.019865 0.124952
O O3 0.754276 0.034107 0.226128
O O4 0.579528 0.881469 0.297107
O O5 0.875086 0.750172 0.750000
O O6 0.845978 0.894042 0.804595
O O7 0.376838 0.558115 0.142430
O O8 0.389197 0.610804 0.916667
O O9 0.207977 0.534942 0.998355
#
# Coordination Sequence:
#
# PCOD9582863 Si02
#       4
#    12  12  12  12
#     4  11  25  43  73 111 150 202 260 325 381 467
#     4  10  23  43  76 114 144 190 254 323 388 463
#     4  12  26  47  68 105 157 201 262 322 381 470
#     4  11  27  43  71 106 148 208 263 315 391 455
#
# _framework density 23.554994000000001
#
# number of rings (size 3 to 8) (size 9 to 14) (size 15 to 20)
#    0.000    1.000    2.500    3.000   17.500    0.000 
#    0.000    0.000    0.000   33.000    0.000    0.000 
#    0.000    0.000    0.000    0.000    0.000    0.000 
#
# Total GULP energy -267462.507298 kJ/mol
# GULP energy per Si atom -5572.135569 kJ/mol
# Density = 2.350138 g / cm^3
# Si number density = 23.554994 Si / 1000 Ang^3
#
#
#
# Elastic Constant Matrix: (Units=GPa)
#
#
# Indices 1 2 3 4 5 6 
#
# 1 121.8700 8.2254 14.1905 0.0000 0.0000 0.0000
# 2 8.2254 121.8700 14.1905 0.0000 0.0000 0.0000
# 3 14.1905 14.1905 52.7110 0.0000 0.0000 0.0000
# 4 0.0000 0.0000 0.0000 -23.8735 0.0000 0.0000
# 5 0.0000 0.0000 0.0000 0.0000 -23.8735 0.0000
# 6 0.0000 0.0000 0.0000 0.0000 0.0000 56.8223
#
#
#
# Elastic Compliance Matrix: (Units=1/GPa)
#
#
# Indices 1 2 3 4 5 6 
#
# 1 0.008483 -0.000317 -0.002198 0.000000 0.000000 0.000000
# 2 -0.000317 0.008483 -0.002198 0.000000 0.000000 0.000000
# 3 -0.002198 -0.002198 0.020155 0.000000 0.000000 0.000000
# 4 0.000000 0.000000 0.000000 -0.041887 0.000000 0.000000
# 5 0.000000 0.000000 0.000000 0.000000 -0.041887 0.000000
# 6 0.000000 0.000000 0.000000 0.000000 0.000000 0.017599
#
#
# Mechanical properties :
#
#
# Convention : Reuss Voigt Hill
#
# Bulk Modulus (GPa) = 36.10922 41.07376 38.59149
# Shear Modulus (GPa) = -480.90650 19.13800 -230.88425
#
# Velocity S-wave (km/s) = -14.30407 2.85350 -9.91121
# Velocity P-wave (km/s) = 16.04511 5.32277 10.70313
#
# Compressibility (1/GPa) = 0.02769376
#
# Stress axis : x y z
#
# Youngs Moduli (GPa) = 117.88531 117.88531 49.61524
#
# Poissons Ratio (x) = 0.03732 0.10908
# Poissons Ratio (y) = 0.03732 0.10908
# Poissons Ratio (z) = 0.25917 0.25917
#
# Static dielectric constant tensor:
#      x y z
#    x 2.040600 0.000000 0.000000 
#    y 0.000000 2.040600 0.000000 
#    z 0.000000 0.000000 2.025750 
# 
# From -- ./inp_files/4138.got.cif
#   From: 2010.05.17/outbox.cif.g08.bks.cpg/sg178_3_cif.got.tgz:4138.got - 2010.05.20 11:30:59.
