data_PCOD9582297
_publ_section_title
;
Structure prediction by ZEFSAII (Michael W. Deem and Ramdas Pophale) SiO2 
 PCOD9582297
Probable space group: P 6 2 2
;
_chemical_formula_sum "Si O2"
_cell_formula_units_Z 84
_cell_length_a 21.886157
_cell_length_b 21.886157
_cell_length_c 12.498087
_cell_angle_alpha 90.000000
_cell_angle_beta 90.000000
_cell_angle_gamma 120.000000
_cell_volume 5184.575411
_symmetry_space_group_name_H-M "P 6 2 2"
_symmetry_group_IT_number 177
_symmetry_cell_setting 'hexagonal'
loop_
_space_group_symop_operation_xyz
x,y,z
x-y,x,z
-y,x-y,z
-x,-y,z
-x+y,-x,z
y,-x+y,z
x-y,-y,-z
-x,-x+y,-z
y,x,-z
-y,-x,-z
-x+y,y,-z
x,x-y,-z
loop_
_atom_site_type_symbol
_atom_site_label
_atom_site_fract_x
_atom_site_fract_y
_atom_site_fract_z
Si Si1 0.804449 0.733356 0.931929
Si Si2 0.468361 0.088534 0.394566
Si Si3 0.743321 0.995198 0.380228
Si Si4 0.629318 0.844521 0.380226
Si Si5 0.080280 0.481530 0.357522
Si Si6 0.160289 0.123682 0.267982
Si Si7 0.101111 0.376974 0.235425
O O1 0.841215 0.789177 0.834771
O O2 0.751538 0.657180 0.880055
O O3 0.761594 0.761594 0.000000
O O4 0.865769 0.731538 0.000000
O O5 0.423715 0.125100 0.360558
O O6 0.544408 0.109393 0.345120
O O7 0.475919 0.103797 0.522126
O O8 0.432818 0.004433 0.371528
O O9 0.706340 0.912293 0.358976
O O10 0.720877 0.000000 0.500000
O O11 0.827424 0.034365 0.366803
O O12 0.716498 0.033488 0.300549
O O13 0.625664 0.812832 0.500000
O O14 0.617179 0.785477 0.295802
O O15 0.102626 0.449275 0.260594
O O16 0.093452 0.135315 0.267061
#
# Coordination Sequence:
#
# PCOD9582297 Si02
#       7
#    12  12  12  12  12  12  12
#     4  11  23  39  54  73  99 135 181 250 307 334
#     4   9  17  28  49  74 113 144 176 199 241 308
#     4  11  20  32  46  72 108 140 171 225 282 340
#     4  12  20  29  49  81 111 146 182 218 261 331
#     4   9  16  31  47  75 107 148 177 200 242 316
#     4  11  23  36  51  67  91 133 193 238 292 354
#     4  11  22  32  54  78 108 140 190 219 278 340
#
# _framework density 16.201906000000001
#
# number of rings (size 3 to 8) (size 9 to 14) (size 15 to 20)
#    0.000    1.429    5.714    2.714    2.000    0.000 
#    0.000    0.000    0.000    1.429    3.714    7.000 
#    0.000    0.000    0.000    0.000    0.000    0.000 
#
# Total GULP energy -467716.238066 kJ/mol
# GULP energy per Si atom -5568.050453 kJ/mol
# Density = 1.616503 g / cm^3
# Si number density = 16.201906 Si / 1000 Ang^3
#
#
#
# Elastic Constant Matrix: (Units=GPa)
#
#
# Indices 1 2 3 4 5 6 
#
# 1 89.1468 28.2474 19.3522 0.0000 0.0000 0.0000
# 2 28.2474 89.1468 19.3522 0.0000 0.0000 0.0000
# 3 19.3522 19.3522 46.1297 0.0000 0.0000 0.0000
# 4 0.0000 0.0000 0.0000 20.2092 0.0000 0.0000
# 5 0.0000 0.0000 0.0000 0.0000 20.2092 0.0000
# 6 0.0000 0.0000 0.0000 0.0000 0.0000 30.4497
#
#
#
# Elastic Compliance Matrix: (Units=1/GPa)
#
#
# Indices 1 2 3 4 5 6 
#
# 1 0.013153 -0.003267 -0.004147 0.000000 0.000000 0.000000
# 2 -0.003267 0.013153 -0.004147 0.000000 0.000000 0.000000
# 3 -0.004147 -0.004147 0.025158 0.000000 0.000000 0.000000
# 4 0.000000 0.000000 0.000000 0.049482 0.000000 0.000000
# 5 0.000000 0.000000 0.000000 0.000000 0.049482 0.000000
# 6 0.000000 0.000000 0.000000 0.000000 0.000000 0.032841
#
#
# Mechanical properties :
#
#
# Convention : Reuss Voigt Hill
#
# Bulk Modulus (GPa) = 35.28565 39.81410 37.54988
# Shear Modulus (GPa) = 23.16529 24.67171 23.91850
#
# Velocity S-wave (km/s) = 3.78536 3.90650 3.84640
# Velocity P-wave (km/s) = 6.39775 6.70632 6.55385
#
# Compressibility (1/GPa) = 0.02834013
#
# Stress axis : x y z
#
# Youngs Moduli (GPa) = 76.02789 76.02789 39.74931
#
# Poissons Ratio (x) = 0.24842 0.16485
# Poissons Ratio (y) = 0.24842 0.16485
# Poissons Ratio (z) = 0.31530 0.31530
#
# Static dielectric constant tensor:
#      x y z
#    x 1.600750 0.000000 0.000000 
#    y 0.000000 1.600750 0.000000 
#    z 0.000000 0.000000 1.573700 
# 
# From -- ./inp_files/2080.got.cif
#   From: 2010.05.17/outbox.cif.g08.bks.cpg/sg177_2_cif.got.tgz:2080.got - 2010.05.20 11:28:44.
