data_PCOD9582780
_publ_section_title
;
Structure prediction by ZEFSAII (Michael W. Deem and Ramdas Pophale) SiO2 
 PCOD9582780
Probable space group: P 61 2 2
;
_chemical_formula_sum "Si O2"
_cell_formula_units_Z 72
_cell_length_a 14.609561
_cell_length_b 14.609561
_cell_length_c 17.386878
_cell_angle_alpha 90.000000
_cell_angle_beta 90.000000
_cell_angle_gamma 120.000000
_cell_volume 3213.857160
_symmetry_space_group_name_H-M "P 61 2 2"
_symmetry_group_IT_number 178
_symmetry_cell_setting 'hexagonal'
loop_
_space_group_symop_operation_xyz
x,y,z
x-y,x,1/6+z
-y,x-y,1/3+z
-x,-y,1/2+z
-x+y,-x,2/3+z
y,-x+y,5/6+z
x-y,-y,-z
-x,-x+y,2/3-z
y,x,1/3-z
-y,-x,5/6-z
-x+y,y,1/2-z
x,x-y,1/6-z
loop_
_atom_site_type_symbol
_atom_site_label
_atom_site_fract_x
_atom_site_fract_y
_atom_site_fract_z
Si Si1 0.196731 0.199260 0.788620
Si Si2 0.670576 0.909671 0.446651
Si Si3 0.796650 0.999758 0.295791
Si Si4 0.533193 0.269958 0.883402
Si Si5 0.337361 0.427264 0.580058
Si Si6 0.503222 0.646949 0.083554
O O1 0.108465 0.216929 0.750000
O O2 0.151467 0.074350 0.798477
O O3 0.232019 0.243905 0.874903
O O4 0.305394 0.245241 0.741041
O O5 0.706600 0.954484 0.360529
O O6 0.754482 0.876866 0.476743
O O7 0.560271 0.802716 0.441747
O O8 0.674864 0.000000 0.500000
O O9 0.617582 0.382419 0.916667
O O10 0.480654 0.292404 0.810519
O O11 0.595334 0.205017 0.875051
O O12 0.429804 0.404893 0.550870
O O13 0.373062 0.494656 0.658263
O O14 0.547343 0.773672 0.083334
#
# Coordination Sequence:
#
# PCOD9582780 Si02
#       6
#    12  12  12  12  12  12
#     4  11  23  38  69 105 147 187 244 306 375 450
#     4  11  24  43  71 100 144 194 243 293 370 451
#     4  10  22  41  62 103 144 188 241 294 364 452
#     4  11  26  50  69 110 141 189 257 306 375 446
#     4  11  24  46  73 103 145 189 247 305 382 455
#     4  10  26  45  72 106 143 190 245 316 383 438
#
# _framework density 22.402985999999999
#
# number of rings (size 3 to 8) (size 9 to 14) (size 15 to 20)
#    0.000    1.333    3.333    1.500    9.333    6.667 
#    6.000    0.000    0.000    0.000    0.000    0.000 
#    0.000    0.000    0.000    0.000    0.000    0.000 
#
# Total GULP energy -401939.650670 kJ/mol
# GULP energy per Si atom -5582.495148 kJ/mol
# Density = 2.235200 g / cm^3
# Si number density = 22.402986 Si / 1000 Ang^3
#
#
#
# Elastic Constant Matrix: (Units=GPa)
#
#
# Indices 1 2 3 4 5 6 
#
# 1 103.7830 46.7722 40.5826 0.0000 0.0000 0.0000
# 2 46.7722 103.7830 40.5826 0.0000 0.0000 0.0000
# 3 40.5826 40.5826 88.4764 0.0000 0.0000 0.0000
# 4 0.0000 0.0000 0.0000 28.7767 0.0000 0.0000
# 5 0.0000 0.0000 0.0000 0.0000 28.7767 0.0000
# 6 0.0000 0.0000 0.0000 0.0000 0.0000 28.5054
#
#
#
# Elastic Compliance Matrix: (Units=1/GPa)
#
#
# Indices 1 2 3 4 5 6 
#
# 1 0.013182 -0.004358 -0.004047 0.000000 0.000000 0.000000
# 2 -0.004358 0.013182 -0.004047 0.000000 0.000000 0.000000
# 3 -0.004047 -0.004047 0.015015 0.000000 0.000000 0.000000
# 4 0.000000 0.000000 0.000000 0.034750 0.000000 0.000000
# 5 0.000000 0.000000 0.000000 0.000000 0.034750 0.000000
# 6 0.000000 0.000000 0.000000 0.000000 0.000000 0.035081
#
#
# Mechanical properties :
#
#
# Convention : Reuss Voigt Hill
#
# Bulk Modulus (GPa) = 60.70245 61.32412 61.01328
# Shear Modulus (GPa) = 28.35120 28.41876 28.38498
#
# Velocity S-wave (km/s) = 3.56126 3.56550 3.56338
# Velocity P-wave (km/s) = 6.63812 6.66206 6.65010
#
# Compressibility (1/GPa) = 0.01647380
#
# Stress axis : x y z
#
# Youngs Moduli (GPa) = 75.85916 75.85916 66.59812
#
# Poissons Ratio (x) = 0.33061 0.26955
# Poissons Ratio (y) = 0.33061 0.26955
# Poissons Ratio (z) = 0.30704 0.30704
#
# Static dielectric constant tensor:
#      x y z
#    x 1.861360 0.000000 0.000000 
#    y 0.000000 1.861360 0.000000 
#    z 0.000000 0.000000 1.894770 
# 
# From -- ./inp_files/6806.got.cif
#   From: 2010.05.17/outbox.cif.g08.bks.cpg/sg178_4_cif.got.tgz:6806.got - 2010.05.20 11:30:59.
