data_PCOD9582828
_publ_section_title
;
Structure prediction by ZEFSAII (Michael W. Deem and Ramdas Pophale) SiO2 
 PCOD9582828
Probable space group: P 61 2 2
;
_chemical_formula_sum "Si O2"
_cell_formula_units_Z 66
_cell_length_a 15.408210
_cell_length_b 15.408210
_cell_length_c 17.075360
_cell_angle_alpha 90.000000
_cell_angle_beta 90.000000
_cell_angle_gamma 120.000000
_cell_volume 3510.790206
_symmetry_space_group_name_H-M "P 61 2 2"
_symmetry_group_IT_number 178
_symmetry_cell_setting 'hexagonal'
loop_
_space_group_symop_operation_xyz
x,y,z
x-y,x,1/6+z
-y,x-y,1/3+z
-x,-y,1/2+z
-x+y,-x,2/3+z
y,-x+y,5/6+z
x-y,-y,-z
-x,-x+y,2/3-z
y,x,1/3-z
-y,-x,5/6-z
-x+y,y,1/2-z
x,x-y,1/6-z
loop_
_atom_site_type_symbol
_atom_site_label
_atom_site_fract_x
_atom_site_fract_y
_atom_site_fract_z
Si Si1 0.620903 0.113613 0.824070
Si Si2 0.495163 0.607972 0.692522
Si Si3 0.305887 0.756062 0.576412
Si Si4 0.168316 0.832636 0.010282
Si Si5 0.899524 0.352116 0.617460
Si Si6 0.107525 0.107525 0.166667
O O1 0.550613 0.101226 0.750000
O O2 0.569689 0.134630 0.896617
O O3 0.730124 0.208675 0.809261
O O4 0.610170 0.004839 0.829551
O O5 0.538944 0.538944 0.666667
O O6 0.415333 0.593272 0.626648
O O7 0.589125 0.718138 0.704207
O O8 0.297795 0.648898 0.583334
O O9 0.299785 0.807613 0.655600
O O10 0.106292 0.723966 0.050513
O O11 0.126832 0.908857 0.025766
O O12 0.172831 0.827170 0.916667
O O13 0.891656 0.445828 0.583334
O O14 0.080046 0.040023 0.083334
#
# Coordination Sequence:
#
# PCOD9582828 Si02
#       6
#    12  12  12  12  12   6
#     4  10  23  36  56  83 121 164 203 252 309 375
#     4  12  21  37  59  87 124 161 203 253 316 377
#     4  11  22  37  57  84 120 167 212 250 302 378
#     4  11  23  37  65  97 127 161 212 270 333 388
#     4  11  22  38  58  89 126 165 207 257 316 375
#     4  10  24  44  70 102 130 166 216 284 346 396
#
# _framework density 18.799185000000001
#
# number of rings (size 3 to 8) (size 9 to 14) (size 15 to 20)
#    0.000    1.091    2.727    5.455    2.545    2.909 
#    0.000    0.000    0.000    4.364    0.000    0.000 
#    0.000    0.000    0.000    0.000    0.000    0.000 
#
# Total GULP energy -367860.370141 kJ/mol
# GULP energy per Si atom -5573.641972 kJ/mol
# Density = 1.875640 g / cm^3
# Si number density = 18.799185 Si / 1000 Ang^3
#
#
#
# Elastic Constant Matrix: (Units=GPa)
#
#
# Indices 1 2 3 4 5 6 
#
# 1 88.4313 30.4301 22.7259 0.0000 0.0000 0.0000
# 2 30.4301 88.4313 22.7259 0.0000 0.0000 0.0000
# 3 22.7259 22.7259 72.7411 0.0000 0.0000 0.0000
# 4 0.0000 0.0000 0.0000 27.2766 0.0000 0.0000
# 5 0.0000 0.0000 0.0000 0.0000 27.2766 0.0000
# 6 0.0000 0.0000 0.0000 0.0000 0.0000 29.0006
#
#
#
# Elastic Compliance Matrix: (Units=1/GPa)
#
#
# Indices 1 2 3 4 5 6 
#
# 1 0.013398 -0.003843 -0.002985 0.000000 0.000000 0.000000
# 2 -0.003843 0.013398 -0.002985 0.000000 0.000000 0.000000
# 3 -0.002985 -0.002985 0.015613 0.000000 0.000000 0.000000
# 4 0.000000 0.000000 0.000000 0.036662 0.000000 0.000000
# 5 0.000000 0.000000 0.000000 0.000000 0.036662 0.000000
# 6 0.000000 0.000000 0.000000 0.000000 0.000000 0.034482
#
#
# Mechanical properties :
#
#
# Convention : Reuss Voigt Hill
#
# Bulk Modulus (GPa) = 43.89517 44.59639 44.24578
# Shear Modulus (GPa) = 28.17953 28.29221 28.23587
#
# Velocity S-wave (km/s) = 3.87586 3.88360 3.87973
# Velocity P-wave (km/s) = 6.59014 6.62449 6.60734
#
# Compressibility (1/GPa) = 0.02278155
#
# Stress axis : x y z
#
# Youngs Moduli (GPa) = 74.63901 74.63901 64.05091
#
# Poissons Ratio (x) = 0.28685 0.19120
# Poissons Ratio (y) = 0.28685 0.19120
# Poissons Ratio (z) = 0.22280 0.22280
#
# Static dielectric constant tensor:
#      x y z
#    x 1.682110 0.000000 0.000000 
#    y 0.000000 1.682110 0.000000 
#    z 0.000000 0.000000 2.092250 
# 
# From -- ./inp_files/6670.got.cif
#   From: 2010.05.17/outbox.cif.g08.bks.cpg/sg178_4_cif.got.tgz:6670.got - 2010.05.20 11:30:59.
