data_PCOD9582235
_publ_section_title
;
Structure prediction by ZEFSAII (Michael W. Deem and Ramdas Pophale) SiO2 
 PCOD9582235
Probable space group: P 6 2 2
;
_chemical_formula_sum "Si O2"
_cell_formula_units_Z 36
_cell_length_a 20.342409
_cell_length_b 20.342409
_cell_length_c 5.295174
_cell_angle_alpha 90.000000
_cell_angle_beta 90.000000
_cell_angle_gamma 120.000000
_cell_volume 1897.647887
_symmetry_space_group_name_H-M "P 6 2 2"
_symmetry_group_IT_number 177
_symmetry_cell_setting 'hexagonal'
loop_
_space_group_symop_operation_xyz
x,y,z
x-y,x,z
-y,x-y,z
-x,-y,z
-x+y,-x,z
y,-x+y,z
x-y,-y,-z
-x,-x+y,-z
y,x,-z
-y,-x,-z
-x+y,y,-z
x,x-y,-z
loop_
_atom_site_type_symbol
_atom_site_label
_atom_site_fract_x
_atom_site_fract_y
_atom_site_fract_z
Si Si1 0.000000 0.842269 0.000000
Si Si2 0.421143 0.132010 0.500001
Si Si3 0.248193 0.248193 0.500000
Si Si4 0.509613 0.334722 1.000000
O O1 0.924496 0.848992 0.000000
O O2 0.000000 0.796942 0.250342
O O3 0.427772 0.213886 0.500000
O O4 0.463573 0.333561 0.248052
O O5 0.332658 0.071564 0.500002
O O6 0.463572 0.130011 0.248052
O O7 0.593049 0.406952 0.000000
O O8 0.514524 0.257262 0.000000
#
# Coordination Sequence:
#
# PCOD9582235 Si02
#       4
#     6  12   6  12
#     4  12  25  42  66  94 123 152 192 242 292 342
#     4  10  21  37  57  83 115 151 197 242 284 349
#     4  12  24  42  64  88 120 164 196 230 288 352
#     4  10  20  36  58  84 115 151 195 248 300 345
#
# _framework density 18.970852000000001
#
# number of rings (size 3 to 8) (size 9 to 14) (size 15 to 20)
#    0.000    1.333    0.000    6.500    0.000    2.667 
#    0.000   10.000    0.000    0.000    0.000    0.000 
#    0.000    0.000    0.000    0.000    0.000    0.000 
#
# Total GULP energy -201187.937759 kJ/mol
# GULP energy per Si atom -5588.553827 kJ/mol
# Density = 1.892767 g / cm^3
# Si number density = 18.970852 Si / 1000 Ang^3
#
#
#
# Elastic Constant Matrix: (Units=GPa)
#
#
# Indices 1 2 3 4 5 6 
#
# 1 106.5021 53.0190 86.0898 0.0000 0.0000 0.0000
# 2 53.0190 106.5021 86.0898 0.0000 0.0000 0.0000
# 3 86.0898 86.0898 227.3739 0.0000 0.0000 0.0000
# 4 0.0000 0.0000 0.0000 146.2316 0.0000 0.0000
# 5 0.0000 0.0000 0.0000 0.0000 146.2316 0.0000
# 6 0.0000 0.0000 0.0000 0.0000 0.0000 26.7416
#
#
#
# Elastic Compliance Matrix: (Units=1/GPa)
#
#
# Indices 1 2 3 4 5 6 
#
# 1 0.014649 -0.004048 -0.004014 0.000000 0.000000 0.000000
# 2 -0.004048 0.014649 -0.004014 0.000000 0.000000 0.000000
# 3 -0.004014 -0.004014 0.007438 0.000000 0.000000 0.000000
# 4 0.000000 0.000000 0.000000 0.006838 0.000000 0.000000
# 5 0.000000 0.000000 0.000000 0.000000 0.006838 0.000000
# 6 0.000000 0.000000 0.000000 0.000000 0.000000 0.037395
#
#
# Mechanical properties :
#
#
# Convention : Reuss Voigt Hill
#
# Bulk Modulus (GPa) = 79.46372 98.97502 89.21937
# Shear Modulus (GPa) = 43.04605 78.18625 60.61615
#
# Velocity S-wave (km/s) = 4.76864 6.42677 5.65876
# Velocity P-wave (km/s) = 8.50283 10.36130 9.47773
#
# Compressibility (1/GPa) = 0.01258436
#
# Stress axis : x y z
#
# Youngs Moduli (GPa) = 68.26259 68.26259 134.45267
#
# Poissons Ratio (x) = 0.27634 0.53968
# Poissons Ratio (y) = 0.27634 0.53968
# Poissons Ratio (z) = 0.27400 0.27400
#
# Static dielectric constant tensor:
#      x y z
#    x 1.624480 0.000000 0.000000 
#    y 0.000000 1.624480 0.000000 
#    z 0.000000 0.000000 1.664730 
# 
# From -- ./inp_files/304.got.cif
#   From: 2010.05.17/outbox.cif.g08.bks.cpg/sg177_1_cif.got.tgz:304.got - 2010.05.20 11:28:44.
