data_PCOD9582933
_publ_section_title
;
Structure prediction by ZEFSAII (Michael W. Deem and Ramdas Pophale) SiO2 
 PCOD9582933
Probable space group: P 61 2 2
;
_chemical_formula_sum "Si O2"
_cell_formula_units_Z 60
_cell_length_a 13.718631
_cell_length_b 13.718631
_cell_length_c 22.194512
_cell_angle_alpha 90.000000
_cell_angle_beta 90.000000
_cell_angle_gamma 120.000000
_cell_volume 3617.410390
_symmetry_space_group_name_H-M "P 61 2 2"
_symmetry_group_IT_number 178
_symmetry_cell_setting 'hexagonal'
loop_
_space_group_symop_operation_xyz
x,y,z
x-y,x,1/6+z
-y,x-y,1/3+z
-x,-y,1/2+z
-x+y,-x,2/3+z
y,-x+y,5/6+z
x-y,-y,-z
-x,-x+y,2/3-z
y,x,1/3-z
-y,-x,5/6-z
-x+y,y,1/2-z
x,x-y,1/6-z
loop_
_atom_site_type_symbol
_atom_site_label
_atom_site_fract_x
_atom_site_fract_y
_atom_site_fract_z
Si Si1 0.383613 0.383613 0.166667
Si Si2 0.519510 0.233253 0.709345
Si Si3 0.540504 0.092085 0.396890
Si Si4 0.312123 0.687878 0.416667
Si Si5 0.012291 0.614430 0.112751
Si Si6 0.753592 0.203250 0.307817
O O1 0.453978 0.448996 0.107202
O O2 0.266043 0.383865 0.163663
O O3 0.617784 0.235568 0.750000
O O4 0.520598 0.345901 0.727353
O O5 0.551776 0.240327 0.639647
O O6 0.409146 0.114325 0.722695
O O7 0.442049 0.047520 0.347330
O O8 0.659709 0.156753 0.360867
O O9 0.438163 0.733156 0.440223
O O10 0.010924 0.505462 0.083334
O O11 0.102336 0.718675 0.073390
#
# Coordination Sequence:
#
# PCOD9582933 Si02
#       6
#     6  12  12   6  12  12
#     4  12  22  30  52  78 106 146 174 226 272 314
#     4  11  19  32  51  71 104 145 178 213 259 318
#     4  11  20  35  49  76 109 139 174 219 266 319
#     4  12  18  32  50  72 102 142 184 218 256 320
#     4   9  20  33  49  70 101 145 177 203 255 322
#     4  11  20  35  49  74 110 144 178 214 268 323
#
# _framework density 16.586449999999999
#
# number of rings (size 3 to 8) (size 9 to 14) (size 15 to 20)
#    0.000    1.200    7.000    1.800    0.000    3.200 
#    0.000    0.000    0.000    0.000    0.000    0.000 
#    0.000   17.600    0.000    0.000    0.000    0.000 
#
# Total GULP energy -334550.175943 kJ/mol
# GULP energy per Si atom -5575.836266 kJ/mol
# Density = 1.654870 g / cm^3
# Si number density = 16.586450 Si / 1000 Ang^3
#
#
#
# Elastic Constant Matrix: (Units=GPa)
#
#
# Indices 1 2 3 4 5 6 
#
# 1 49.8033 35.8853 16.5496 0.0000 0.0000 0.0000
# 2 35.8853 49.8033 16.5496 0.0000 0.0000 0.0000
# 3 16.5496 16.5496 93.8321 0.0000 0.0000 0.0000
# 4 0.0000 0.0000 0.0000 8.2684 0.0000 0.0000
# 5 0.0000 0.0000 0.0000 0.0000 8.2684 0.0000
# 6 0.0000 0.0000 0.0000 0.0000 0.0000 6.9590
#
#
#
# Elastic Compliance Matrix: (Units=1/GPa)
#
#
# Indices 1 2 3 4 5 6 
#
# 1 0.042186 -0.029663 -0.002209 0.000000 0.000000 0.000000
# 2 -0.029663 0.042186 -0.002209 0.000000 0.000000 0.000000
# 3 -0.002209 -0.002209 0.011436 0.000000 0.000000 0.000000
# 4 0.000000 0.000000 0.000000 0.120942 0.000000 0.000000
# 5 0.000000 0.000000 0.000000 0.000000 0.120942 0.000000
# 6 0.000000 0.000000 0.000000 0.000000 0.000000 0.143699
#
#
# Mechanical properties :
#
#
# Convention : Reuss Voigt Hill
#
# Bulk Modulus (GPa) = 36.16898 36.82309 36.49604
# Shear Modulus (GPa) = 8.94825 12.99612 10.97218
#
# Velocity S-wave (km/s) = 2.32522 2.80221 2.57478
# Velocity P-wave (km/s) = 5.39097 5.72003 5.55793
#
# Compressibility (1/GPa) = 0.02764800
#
# Stress axis : x y z
#
# Youngs Moduli (GPa) = 23.70434 23.70434 87.43943
#
# Poissons Ratio (x) = 0.70314 0.19314
# Poissons Ratio (y) = 0.70314 0.19314
# Poissons Ratio (z) = 0.05236 0.05236
#
# Static dielectric constant tensor:
#      x y z
#    x 1.566370 0.000000 0.000000 
#    y 0.000000 1.566370 0.000000 
#    z 0.000000 0.000000 1.601500 
# 
# From -- ./inp_files/7578.got.cif
#   From: 2010.05.17/outbox.cif.g08.bks.cpg/sg178_4_cif.got.tgz:7578.got - 2010.05.20 11:30:59.
