data_PCOD9582691
_publ_section_title
;
Structure prediction by ZEFSAII (Michael W. Deem and Ramdas Pophale) SiO2 
 PCOD9582691
Probable space group: P 61 2 2
;
_chemical_formula_sum "Si O2"
_cell_formula_units_Z 60
_cell_length_a 12.607153
_cell_length_b 12.607153
_cell_length_c 24.038670
_cell_angle_alpha 90.000000
_cell_angle_beta 90.000000
_cell_angle_gamma 120.000000
_cell_volume 3308.835024
_symmetry_space_group_name_H-M "P 61 2 2"
_symmetry_group_IT_number 178
_symmetry_cell_setting 'hexagonal'
loop_
_space_group_symop_operation_xyz
x,y,z
x-y,x,1/6+z
-y,x-y,1/3+z
-x,-y,1/2+z
-x+y,-x,2/3+z
y,-x+y,5/6+z
x-y,-y,-z
-x,-x+y,2/3-z
y,x,1/3-z
-y,-x,5/6-z
-x+y,y,1/2-z
x,x-y,1/6-z
loop_
_atom_site_type_symbol
_atom_site_label
_atom_site_fract_x
_atom_site_fract_y
_atom_site_fract_z
Si Si1 0.852152 0.166661 0.640871
Si Si2 0.670536 0.399688 0.163212
Si Si3 0.589598 0.113420 0.600084
Si Si4 0.151086 0.632863 0.215731
Si Si5 0.880435 0.973032 0.713929
O O1 0.714025 0.121222 0.621182
O O2 0.883747 0.289433 0.674142
O O3 0.919188 0.158003 0.585863
O O4 0.880047 0.084707 0.682982
O O5 0.575724 0.405300 0.206063
O O6 0.798532 0.436213 0.193171
O O7 0.693265 0.481283 0.108384
O O8 0.615703 0.257328 0.146144
O O9 0.488280 0.973119 0.603630
O O10 0.881174 0.881174 0.666667
O O11 0.002644 0.005288 0.750000
#
# Coordination Sequence:
#
# PCOD9582691 Si02
#       5
#    12  12  12  12  12
#     4  10  22  37  63  90 112 164 200 237 307 361
#     4   9  21  40  54  89 126 143 205 255 285 355
#     4  10  21  38  59  85 118 160 194 249 295 354
#     4  10  21  38  60  86 118 160 193 247 300 353
#     4   9  20  41  58  87 125 146 195 257 291 354
#
# _framework density 18.133271000000001
#
# number of rings (size 3 to 8) (size 9 to 14) (size 15 to 20)
#    0.000    2.400    0.000    0.600    5.600    1.600 
#   10.800    2.000    0.000    0.000    0.000    0.000 
#    0.000    0.000    0.000    0.000    0.000    0.000 
#
# Total GULP energy -334078.353669 kJ/mol
# GULP energy per Si atom -5567.972561 kJ/mol
# Density = 1.809200 g / cm^3
# Si number density = 18.133271 Si / 1000 Ang^3
#
#
#
# Elastic Constant Matrix: (Units=GPa)
#
#
# Indices 1 2 3 4 5 6 
#
# 1 20.6509 -8.8523 1.8529 0.0000 0.0000 0.0000
# 2 -8.8523 20.6509 1.8529 0.0000 0.0000 0.0000
# 3 1.8529 1.8529 75.2896 0.0000 0.0000 0.0000
# 4 0.0000 0.0000 0.0000 21.4329 0.0000 0.0000
# 5 0.0000 0.0000 0.0000 0.0000 21.4329 0.0000
# 6 0.0000 0.0000 0.0000 0.0000 0.0000 14.7516
#
#
#
# Elastic Compliance Matrix: (Units=1/GPa)
#
#
# Indices 1 2 3 4 5 6 
#
# 1 0.059655 0.025760 -0.002102 0.000000 0.000000 0.000000
# 2 0.025760 0.059655 -0.002102 0.000000 0.000000 0.000000
# 3 -0.002102 -0.002102 0.013386 0.000000 0.000000 0.000000
# 4 0.000000 0.000000 0.000000 0.046657 0.000000 0.000000
# 5 0.000000 0.000000 0.000000 0.000000 0.046657 0.000000
# 6 0.000000 0.000000 0.000000 0.000000 0.000000 0.067789
#
#
# Mechanical properties :
#
#
# Convention : Reuss Voigt Hill
#
# Bulk Modulus (GPa) = 5.68802 11.81095 8.74948
# Shear Modulus (GPa) = 16.16610 19.63937 17.90274
#
# Velocity S-wave (km/s) = 2.98907 3.29455 3.14552
# Velocity P-wave (km/s) = 3.88024 4.58254 4.24594
#
# Compressibility (1/GPa) = 0.17580811
#
# Stress axis : x y z
#
# Youngs Moduli (GPa) = 16.76305 16.76305 74.70769
#
# Poissons Ratio (x) = -0.43182 0.15704
# Poissons Ratio (y) = -0.43182 0.15704
# Poissons Ratio (z) = 0.03524 0.03524
#
# Static dielectric constant tensor:
#      x y z
#    x 1.598940 0.000000 0.000000 
#    y 0.000000 1.598940 0.000000 
#    z 0.000000 0.000000 1.680620 
# 
# From -- ./inp_files/8763.got.cif
#   From: 2010.05.17/outbox.cif.g08.bks.cpg/sg178_5_cif.got.tgz:8763.got - 2010.05.20 11:30:59.
