data_PCOD9582630
_publ_section_title
;
Structure prediction by ZEFSAII (Michael W. Deem and Ramdas Pophale) SiO2 
 PCOD9582630
Probable space group: P 61 2 2
;
_chemical_formula_sum "Si O2"
_cell_formula_units_Z 54
_cell_length_a 13.730669
_cell_length_b 13.730669
_cell_length_c 16.795287
_cell_angle_alpha 90.000000
_cell_angle_beta 90.000000
_cell_angle_gamma 120.000000
_cell_volume 2742.214715
_symmetry_space_group_name_H-M "P 61 2 2"
_symmetry_group_IT_number 178
_symmetry_cell_setting 'hexagonal'
loop_
_space_group_symop_operation_xyz
x,y,z
x-y,x,1/6+z
-y,x-y,1/3+z
-x,-y,1/2+z
-x+y,-x,2/3+z
y,-x+y,5/6+z
x-y,-y,-z
-x,-x+y,2/3-z
y,x,1/3-z
-y,-x,5/6-z
-x+y,y,1/2-z
x,x-y,1/6-z
loop_
_atom_site_type_symbol
_atom_site_label
_atom_site_fract_x
_atom_site_fract_y
_atom_site_fract_z
Si Si1 0.317780 0.958673 0.167306
Si Si2 0.514825 0.844585 0.968000
Si Si3 0.929428 0.247427 0.662726
Si Si4 0.000000 0.581217 0.833334
Si Si5 0.300602 0.150301 0.583334
Si Si6 0.406451 0.812902 0.250000
O O1 0.185181 0.870133 0.164782
O O2 0.381019 0.890520 0.192445
O O3 0.336568 0.041426 0.240295
O O4 0.360273 0.007586 0.080184
O O5 0.574106 0.903262 0.884395
O O6 0.444561 0.710826 0.959927
O O7 0.440605 0.894922 0.000727
O O8 0.618886 0.868579 0.023928
O O9 0.034484 0.239389 0.700027
#
# Coordination Sequence:
#
# PCOD9582630 Si02
#       6
#    12  12  12   6   6   6
#     4  11  25  41  66  94 138 175 223 266 337 398
#     4  11  22  37  68 100 134 173 213 270 335 394
#     4  11  22  41  67  97 126 175 216 287 328 383
#     4  12  24  42  62  94 134 184 218 260 324 418
#     4  12  18  40  70  99 123 160 228 282 334 374
#     4  10  20  40  62 103 135 160 210 276 324 416
#
# _framework density 19.692112999999999
#
# number of rings (size 3 to 8) (size 9 to 14) (size 15 to 20)
#    0.000    0.889    6.667    2.667    0.000    2.667 
#    0.000    4.444    0.000    5.333    0.000    0.000 
#    0.000    0.000    0.000    0.000    0.000    0.000 
#
# Total GULP energy -301677.246620 kJ/mol
# GULP energy per Si atom -5586.615678 kJ/mol
# Density = 1.964729 g / cm^3
# Si number density = 19.692113 Si / 1000 Ang^3
#
#
#
# Elastic Constant Matrix: (Units=GPa)
#
#
# Indices 1 2 3 4 5 6 
#
# 1 71.4628 23.3247 41.3452 0.0000 0.0000 0.0000
# 2 23.3247 71.4628 41.3452 0.0000 0.0000 0.0000
# 3 41.3452 41.3452 154.2108 0.0000 0.0000 0.0000
# 4 0.0000 0.0000 0.0000 13.3869 0.0000 0.0000
# 5 0.0000 0.0000 0.0000 0.0000 13.3869 0.0000
# 6 0.0000 0.0000 0.0000 0.0000 0.0000 24.0691
#
#
#
# Elastic Compliance Matrix: (Units=1/GPa)
#
#
# Indices 1 2 3 4 5 6 
#
# 1 0.017272 -0.003501 -0.003692 0.000000 0.000000 0.000000
# 2 -0.003501 0.017272 -0.003692 0.000000 0.000000 0.000000
# 3 -0.003692 -0.003692 0.008464 0.000000 0.000000 0.000000
# 4 0.000000 0.000000 0.000000 0.074700 0.000000 0.000000
# 5 0.000000 0.000000 0.000000 0.000000 0.074700 0.000000
# 6 0.000000 0.000000 0.000000 0.000000 0.000000 0.041547
#
#
# Mechanical properties :
#
#
# Convention : Reuss Voigt Hill
#
# Bulk Modulus (GPa) = 47.08609 56.57405 51.83007
# Shear Modulus (GPa) = 19.02543 22.90998 20.96770
#
# Velocity S-wave (km/s) = 3.11166 3.41458 3.26663
# Velocity P-wave (km/s) = 6.07231 6.65864 6.37222
#
# Compressibility (1/GPa) = 0.02123769
#
# Stress axis : x y z
#
# Youngs Moduli (GPa) = 57.89662 57.89662 118.14222
#
# Poissons Ratio (x) = 0.20272 0.43619
# Poissons Ratio (y) = 0.20272 0.43619
# Poissons Ratio (z) = 0.21376 0.21376
#
# Static dielectric constant tensor:
#      x y z
#    x 1.693820 0.000000 0.000000 
#    y 0.000000 1.693820 0.000000 
#    z 0.000000 0.000000 1.742250 
# 
# From -- ./inp_files/5634.got.cif
#   From: 2010.05.17/outbox.cif.g08.bks.cpg/sg178_3_cif.got.tgz:5634.got - 2010.05.20 11:30:59.
