data_PCOD9582305
_publ_section_title
;
Structure prediction by ZEFSAII (Michael W. Deem and Ramdas Pophale) SiO2 
 PCOD9582305
Probable space group: P 6 2 2
;
_chemical_formula_sum "Si O2"
_cell_formula_units_Z 48
_cell_length_a 18.286878
_cell_length_b 18.286878
_cell_length_c 7.722041
_cell_angle_alpha 90.000000
_cell_angle_beta 90.000000
_cell_angle_gamma 120.000000
_cell_volume 2236.360794
_symmetry_space_group_name_H-M "P 6 2 2"
_symmetry_group_IT_number 177
_symmetry_cell_setting 'hexagonal'
loop_
_space_group_symop_operation_xyz
x,y,z
x-y,x,z
-y,x-y,z
-x,-y,z
-x+y,-x,z
y,-x+y,z
x-y,-y,-z
-x,-x+y,-z
y,x,-z
-y,-x,-z
-x+y,y,-z
x,x-y,-z
loop_
_atom_site_type_symbol
_atom_site_label
_atom_site_fract_x
_atom_site_fract_y
_atom_site_fract_z
Si Si1 0.499730 0.671399 0.216703
Si Si2 0.739827 0.687900 0.179562
Si Si3 0.681743 0.794424 0.325882
Si Si4 0.341056 0.839787 0.796783
O O1 0.591738 0.709569 0.297866
O O2 0.479508 0.746368 0.255977
O O3 0.428350 0.578319 0.269099
O O4 0.502873 0.664251 0.007552
O O5 0.746767 0.761767 0.302049
O O6 0.829280 0.691236 0.180453
O O7 0.679159 0.592551 0.249384
O O8 0.705067 0.705067 0.000000
O O9 0.682805 0.841403 0.500000
#
# Coordination Sequence:
#
# PCOD9582305 Si02
#       4
#    12  12  12  12
#     4   9  17  32  53  87 119 159 205 261 302 351
#     4  11  21  39  62  89 117 158 210 258 305 375
#     4  11  23  39  59  87 124 161 200 256 327 383
#     4   9  17  31  57  87 120 154 215 260 298 350
#
# _framework density 21.463442000000001
#
# number of rings (size 3 to 8) (size 9 to 14) (size 15 to 20)
#    0.000    2.000    2.500    2.000    0.000    3.000 
#    0.000    5.000    0.000    6.500    0.000    3.500 
#    0.000    0.000    0.000    0.000    0.000    0.000 
#
# Total GULP energy -267739.427198 kJ/mol
# GULP energy per Si atom -5577.904733 kJ/mol
# Density = 2.141459 g / cm^3
# Si number density = 21.463442 Si / 1000 Ang^3
#
#
#
# Elastic Constant Matrix: (Units=GPa)
#
#
# Indices 1 2 3 4 5 6 
#
# 1 101.3967 83.3209 25.7146 0.0000 0.0000 0.0000
# 2 83.3209 101.3967 25.7146 0.0000 0.0000 0.0000
# 3 25.7146 25.7146 81.1739 0.0000 0.0000 0.0000
# 4 0.0000 0.0000 0.0000 14.8762 0.0000 0.0000
# 5 0.0000 0.0000 0.0000 0.0000 14.8762 0.0000
# 6 0.0000 0.0000 0.0000 0.0000 0.0000 9.0379
#
#
#
# Elastic Compliance Matrix: (Units=1/GPa)
#
#
# Indices 1 2 3 4 5 6 
#
# 1 0.030630 -0.024692 -0.001881 0.000000 0.000000 0.000000
# 2 -0.024692 0.030630 -0.001881 0.000000 0.000000 0.000000
# 3 -0.001881 -0.001881 0.013511 0.000000 0.000000 0.000000
# 4 0.000000 0.000000 0.000000 0.067221 0.000000 0.000000
# 5 0.000000 0.000000 0.000000 0.000000 0.067221 0.000000
# 6 0.000000 0.000000 0.000000 0.000000 0.000000 0.110645
#
#
# Mechanical properties :
#
#
# Convention : Reuss Voigt Hill
#
# Bulk Modulus (GPa) = 55.98432 61.49637 58.74035
# Shear Modulus (GPa) = 13.06437 17.70590 15.38513
#
# Velocity S-wave (km/s) = 2.46982 2.87528 2.68023
# Velocity P-wave (km/s) = 5.85436 6.30372 6.08319
#
# Compressibility (1/GPa) = 0.01786214
#
# Stress axis : x y z
#
# Youngs Moduli (GPa) = 32.64791 32.64791 74.01448
#
# Poissons Ratio (x) = 0.80616 0.13921
# Poissons Ratio (y) = 0.80616 0.13921
# Poissons Ratio (z) = 0.06141 0.06141
#
# Static dielectric constant tensor:
#      x y z
#    x 1.771010 0.000000 0.000000 
#    y 0.000000 1.771010 0.000000 
#    z 0.000000 0.000000 1.957720 
# 
# From -- ./inp_files/1140.got.cif
#   From: 2010.05.17/outbox.cif.g08.bks.cpg/sg177_1_cif.got.tgz:1140.got - 2010.05.20 11:28:44.
