data_PCOD9582670
_publ_section_title
;
Structure prediction by ZEFSAII (Michael W. Deem and Ramdas Pophale) SiO2 
 PCOD9582670
Probable space group: P 61 2 2
;
_chemical_formula_sum "Si O2"
_cell_formula_units_Z 60
_cell_length_a 11.705173
_cell_length_b 11.705173
_cell_length_c 24.607217
_cell_angle_alpha 90.000000
_cell_angle_beta 90.000000
_cell_angle_gamma 120.000000
_cell_volume 2919.771093
_symmetry_space_group_name_H-M "P 61 2 2"
_symmetry_group_IT_number 178
_symmetry_cell_setting 'hexagonal'
loop_
_space_group_symop_operation_xyz
x,y,z
x-y,x,1/6+z
-y,x-y,1/3+z
-x,-y,1/2+z
-x+y,-x,2/3+z
y,-x+y,5/6+z
x-y,-y,-z
-x,-x+y,2/3-z
y,x,1/3-z
-y,-x,5/6-z
-x+y,y,1/2-z
x,x-y,1/6-z
loop_
_atom_site_type_symbol
_atom_site_label
_atom_site_fract_x
_atom_site_fract_y
_atom_site_fract_z
Si Si1 0.222111 0.580024 0.171751
Si Si2 0.420590 0.201956 0.258820
Si Si3 0.675897 0.675897 0.166667
Si Si4 0.390716 0.781432 0.250000
Si Si5 0.508654 0.538374 0.062950
Si Si6 0.265642 0.925272 0.295563
O O1 0.187503 0.659784 0.128128
O O2 0.207243 0.456752 0.138285
O O3 0.359286 0.687779 0.197681
O O4 0.120231 0.544961 0.220451
O O5 0.458633 0.350563 0.272316
O O6 0.289188 0.068009 0.276563
O O7 0.568426 0.617923 0.118319
O O8 0.813110 0.695097 0.143138
O O9 0.323140 0.871489 0.247852
O O10 0.581921 0.643163 0.014359
#
# Coordination Sequence:
#
# PCOD9582670 Si02
#       6
#    12  12   6   6  12  12
#     4  10  21  34  58  86 123 163 202 257 322 378
#     4  10  22  37  57  88 125 167 207 260 324 388
#     4  12  24  38  62  96 134 172 218 272 326 390
#     4  12  18  38  58  92 128 156 208 260 324 394
#     4  11  22  39  58  94 128 163 212 268 322 388
#     4  11  23  38  61  92 131 168 210 263 334 388
#
# _framework density 20.549555999999999
#
# number of rings (size 3 to 8) (size 9 to 14) (size 15 to 20)
#    0.000    1.200    4.000    4.200    2.800    0.000 
#    0.000    0.000    0.000    0.000   10.400    1.400 
#    0.000    0.000    0.000    0.000    0.000    0.000 
#
# Total GULP energy -334398.053272 kJ/mol
# GULP energy per Si atom -5573.300888 kJ/mol
# Density = 2.050278 g / cm^3
# Si number density = 20.549556 Si / 1000 Ang^3
#
#
#
# Elastic Constant Matrix: (Units=GPa)
#
#
# Indices 1 2 3 4 5 6 
#
# 1 73.7084 40.2134 8.4024 0.0000 0.0000 0.0000
# 2 40.2134 73.7084 8.4024 0.0000 0.0000 0.0000
# 3 8.4024 8.4024 74.9600 0.0000 0.0000 0.0000
# 4 0.0000 0.0000 0.0000 19.6925 0.0000 0.0000
# 5 0.0000 0.0000 0.0000 0.0000 19.6925 0.0000
# 6 0.0000 0.0000 0.0000 0.0000 0.0000 16.7475
#
#
#
# Elastic Compliance Matrix: (Units=1/GPa)
#
#
# Indices 1 2 3 4 5 6 
#
# 1 0.019390 -0.010465 -0.001000 0.000000 0.000000 0.000000
# 2 -0.010465 0.019390 -0.001000 0.000000 0.000000 0.000000
# 3 -0.001000 -0.001000 0.013565 0.000000 0.000000 0.000000
# 4 0.000000 0.000000 0.000000 0.050781 0.000000 0.000000
# 5 0.000000 0.000000 0.000000 0.000000 0.050781 0.000000
# 6 0.000000 0.000000 0.000000 0.000000 0.000000 0.059710
#
#
# Mechanical properties :
#
#
# Convention : Reuss Voigt Hill
#
# Bulk Modulus (GPa) = 36.47784 37.37923 36.92853
# Shear Modulus (GPa) = 20.18679 22.25042 21.21860
#
# Velocity S-wave (km/s) = 3.13764 3.29411 3.21683
# Velocity P-wave (km/s) = 5.56022 5.71818 5.63975
#
# Compressibility (1/GPa) = 0.02741390
#
# Stress axis : x y z
#
# Youngs Moduli (GPa) = 51.57208 51.57208 73.72057
#
# Poissons Ratio (x) = 0.53969 0.07376
# Poissons Ratio (y) = 0.53969 0.07376
# Poissons Ratio (z) = 0.05160 0.05160
#
# Static dielectric constant tensor:
#      x y z
#    x 1.780190 0.000000 0.000000 
#    y 0.000000 1.780190 0.000000 
#    z 0.000000 0.000000 1.791320 
# 
# From -- ./inp_files/8859.got.cif
#   From: 2010.05.17/outbox.cif.g08.bks.cpg/sg178_5_cif.got.tgz:8859.got - 2010.05.20 11:30:59.
