data_PCOD9582129
_publ_section_title
;
Structure prediction by ZEFSAII (Michael W. Deem and Ramdas Pophale) SiO2 
 PCOD9582129
Probable space group: P 63/M
;
_chemical_formula_sum "Si O2"
_cell_formula_units_Z 40
_cell_length_a 11.325986
_cell_length_b 11.325986
_cell_length_c 15.342982
_cell_angle_alpha 90.000000
_cell_angle_beta 90.000000
_cell_angle_gamma 120.000000
_cell_volume 1704.482113
_symmetry_space_group_name_H-M "P 63/M"
_symmetry_group_IT_number 176
_symmetry_cell_setting 'hexagonal'
loop_
_space_group_symop_operation_xyz
x,y,z
x-y,x,1/2+z
-y,x-y,z
-x,-y,1/2+z
-x+y,-x,z
y,-x+y,1/2+z
-x,-y,-z
-x+y,-x,1/2-z
y,-x+y,-z
x,y,1/2-z
x-y,x,-z
-y,x-y,1/2-z
loop_
_atom_site_type_symbol
_atom_site_label
_atom_site_fract_x
_atom_site_fract_y
_atom_site_fract_z
Si Si1 0.000000 0.000000 0.895802
Si Si2 0.392946 0.271841 0.851247
Si Si3 0.138919 0.297706 0.649342
Si Si4 0.953705 0.402233 0.583446
O O1 0.019560 0.141322 0.860778
O O2 0.000000 0.000000 0.000000
O O3 0.366542 0.221370 0.750000
O O4 0.268922 0.291628 0.886419
O O5 0.418563 0.171955 0.913077
O O6 0.521510 0.423722 0.851562
O O7 0.169138 0.334593 0.750000
O O8 0.085299 0.391335 0.609673
O O9 0.000000 0.500000 0.500000
#
# Coordination Sequence:
#
# PCOD9582129 Si02
#       4
#     4  12  12  12
#     4  12  25  38  79 114 154 182 253 345 400 461
#     4  11  25  48  78 107 154 214 265 321 403 496
#     4  11  24  47  78 111 149 205 270 327 399 486
#     4  12  28  45  77 113 161 203 269 336 401 474
#
# _framework density 23.467538000000001
#
# number of rings (size 3 to 8) (size 9 to 14) (size 15 to 20)
#    0.000    0.600    3.000    4.200    8.400    0.000 
#    1.800    0.000    0.000    0.000    0.000    0.000 
#    0.000    0.000    0.000    0.000    0.000    0.000 
#
# Total GULP energy -223644.803550 kJ/mol
# GULP energy per Si atom -5591.120089 kJ/mol
# Density = 2.341413 g / cm^3
# Si number density = 23.467538 Si / 1000 Ang^3
#
#
#
# Elastic Constant Matrix: (Units=GPa)
#
#
# Indices 1 2 3 4 5 6 
#
# 1 166.5127 64.4857 47.3981 0.0000 0.0000 0.0000
# 2 64.4857 166.5127 47.3981 0.0000 0.0000 0.0000
# 3 47.3981 47.3981 99.8255 0.0000 0.0000 0.0000
# 4 0.0000 0.0000 0.0000 41.5250 0.0000 0.0000
# 5 0.0000 0.0000 0.0000 0.0000 41.5250 0.0000
# 6 0.0000 0.0000 0.0000 0.0000 0.0000 51.0135
#
#
#
# Elastic Compliance Matrix: (Units=1/GPa)
#
#
# Indices 1 2 3 4 5 6 
#
# 1 0.007589 -0.002212 -0.002553 0.000000 0.000000 0.000000
# 2 -0.002212 0.007589 -0.002553 0.000000 0.000000 0.000000
# 3 -0.002553 -0.002553 0.012442 0.000000 0.000000 0.000000
# 4 0.000000 0.000000 0.000000 0.024082 0.000000 0.000000
# 5 0.000000 0.000000 0.000000 0.000000 0.024082 0.000000
# 6 0.000000 0.000000 0.000000 0.000000 0.000000 0.019603
#
#
# Mechanical properties :
#
#
# Convention : Reuss Voigt Hill
#
# Bulk Modulus (GPa) = 77.02065 83.49050 80.25558
# Shear Modulus (GPa) = 43.72532 45.05065 44.38798
#
# Velocity S-wave (km/s) = 4.32119 4.38619 4.35381
# Velocity P-wave (km/s) = 7.60186 7.82980 7.71667
#
# Compressibility (1/GPa) = 0.01298353
#
# Stress axis : x y z
#
# Youngs Moduli (GPa) = 131.76960 131.76960 80.37452
#
# Poissons Ratio (x) = 0.29152 0.20519
# Poissons Ratio (y) = 0.29152 0.20519
# Poissons Ratio (z) = 0.33639 0.33639
#
# Static dielectric constant tensor:
#      x y z
#    x 1.911350 0.000000 0.000000 
#    y 0.000000 1.911350 0.000000 
#    z 0.000000 0.000000 1.916470 
# 
# From -- ./inp_files/3136.got.cif
#   From: 2010.05.17/outbox.cif.g08.bks.cpg/sg176_2_cif.got.tgz:3136.got - 2010.06.03 11:36:45.
