data_PCOD9582389
_publ_section_title
;
Structure prediction by ZEFSAII (Michael W. Deem and Ramdas Pophale) SiO2 
 PCOD9582389
Probable space group: P 61 2 2
;
_chemical_formula_sum "Si O2"
_cell_formula_units_Z 54
_cell_length_a 15.940885
_cell_length_b 15.940885
_cell_length_c 15.257401
_cell_angle_alpha 90.000000
_cell_angle_beta 90.000000
_cell_angle_gamma 120.000000
_cell_volume 3357.654842
_symmetry_space_group_name_H-M "P 61 2 2"
_symmetry_group_IT_number 178
_symmetry_cell_setting 'hexagonal'
loop_
_space_group_symop_operation_xyz
x,y,z
x-y,x,1/6+z
-y,x-y,1/3+z
-x,-y,1/2+z
-x+y,-x,2/3+z
y,-x+y,5/6+z
x-y,-y,-z
-x,-x+y,2/3-z
y,x,1/3-z
-y,-x,5/6-z
-x+y,y,1/2-z
x,x-y,1/6-z
loop_
_atom_site_type_symbol
_atom_site_label
_atom_site_fract_x
_atom_site_fract_y
_atom_site_fract_z
Si Si1 0.272560 0.549617 0.866859
Si Si2 0.396793 0.456749 0.843831
Si Si3 0.000000 0.477260 0.333334
Si Si4 0.667248 0.148045 0.204635
Si Si5 0.794625 0.311804 0.328692
O O1 0.366131 0.633870 0.916667
O O2 0.303169 0.470693 0.838679
O O3 0.237905 0.609223 0.804513
O O4 0.186933 0.503996 0.938891
O O5 0.466365 0.533636 0.916667
O O6 0.453856 0.481734 0.751524
O O7 0.394791 0.357995 0.873065
O O8 0.092854 0.465909 0.317974
O O9 0.575539 0.151078 0.250000
O O10 0.760329 0.229376 0.256000
O O11 0.739258 0.260743 0.416667
#
# Coordination Sequence:
#
# PCOD9582389 Si02
#       5
#    12  12   6  12  12
#     4  10  18  31  47  66  90 133 167 206 248 294
#     4  10  21  33  46  69  95 124 174 216 244 296
#     4  12  22  34  50  72  98 134 172 214 252 302
#     4  11  18  32  46  66  97 127 171 210 244 294
#     4  11  20  31  50  70  96 135 176 207 252 305
#
# _framework density 16.082653000000001
#
# number of rings (size 3 to 8) (size 9 to 14) (size 15 to 20)
#    0.000    1.333    6.667    4.000    0.000    0.000 
#    0.000    0.000    0.000    0.000    0.000    0.000 
#    0.000    0.000    0.000   12.000    0.000    0.000 
#
# Total GULP energy -300849.018518 kJ/mol
# GULP energy per Si atom -5571.278121 kJ/mol
# Density = 1.604605 g / cm^3
# Si number density = 16.082653 Si / 1000 Ang^3
#
#
#
# Elastic Constant Matrix: (Units=GPa)
#
#
# Indices 1 2 3 4 5 6 
#
# 1 88.6255 57.1501 12.5120 0.0000 0.0000 0.0000
# 2 57.1501 88.6255 12.5120 0.0000 0.0000 0.0000
# 3 12.5120 12.5120 58.3433 0.0000 0.0000 0.0000
# 4 0.0000 0.0000 0.0000 15.9089 0.0000 0.0000
# 5 0.0000 0.0000 0.0000 0.0000 15.9089 0.0000
# 6 0.0000 0.0000 0.0000 0.0000 0.0000 15.7377
#
#
#
# Elastic Compliance Matrix: (Units=1/GPa)
#
#
# Indices 1 2 3 4 5 6 
#
# 1 0.019446 -0.012324 -0.001527 0.000000 0.000000 0.000000
# 2 -0.012324 0.019446 -0.001527 0.000000 0.000000 0.000000
# 3 -0.001527 -0.001527 0.017795 0.000000 0.000000 0.000000
# 4 0.000000 0.000000 0.000000 0.062858 0.000000 0.000000
# 5 0.000000 0.000000 0.000000 0.000000 0.062858 0.000000
# 6 0.000000 0.000000 0.000000 0.000000 0.000000 0.063542
#
#
# Mechanical properties :
#
#
# Convention : Reuss Voigt Hill
#
# Bulk Modulus (GPa) = 38.56584 44.43806 41.50195
# Shear Modulus (GPa) = 17.52253 19.73911 18.63082
#
# Velocity S-wave (km/s) = 3.30438 3.50716 3.40728
# Velocity P-wave (km/s) = 6.21212 6.64013 6.42969
#
# Compressibility (1/GPa) = 0.02592968
#
# Stress axis : x y z
#
# Youngs Moduli (GPa) = 51.42325 51.42325 56.19546
#
# Poissons Ratio (x) = 0.63376 0.08583
# Poissons Ratio (y) = 0.63376 0.08583
# Poissons Ratio (z) = 0.07854 0.07854
#
# Static dielectric constant tensor:
#      x y z
#    x 1.562470 0.000000 0.000000 
#    y 0.000000 1.562470 0.000000 
#    z 0.000000 0.000000 1.672170 
# 
# From -- ./inp_files/6605.got.cif
#   From: 2010.05.17/outbox.cif.g08.bks.cpg/sg178_4_cif.got.tgz:6605.got - 2010.05.20 11:30:59.
