data_PCOD9582860
_publ_section_title
;
Structure prediction by ZEFSAII (Michael W. Deem and Ramdas Pophale) SiO2 
 PCOD9582860
Probable space group: P 61 2 2
;
_chemical_formula_sum "Si O2"
_cell_formula_units_Z 48
_cell_length_a 14.380004
_cell_length_b 14.380004
_cell_length_c 12.441239
_cell_angle_alpha 90.000000
_cell_angle_beta 90.000000
_cell_angle_gamma 120.000000
_cell_volume 2227.985082
_symmetry_space_group_name_H-M "P 61 2 2"
_symmetry_group_IT_number 178
_symmetry_cell_setting 'hexagonal'
loop_
_space_group_symop_operation_xyz
x,y,z
x-y,x,1/6+z
-y,x-y,1/3+z
-x,-y,1/2+z
-x+y,-x,2/3+z
y,-x+y,5/6+z
x-y,-y,-z
-x,-x+y,2/3-z
y,x,1/3-z
-y,-x,5/6-z
-x+y,y,1/2-z
x,x-y,1/6-z
loop_
_atom_site_type_symbol
_atom_site_label
_atom_site_fract_x
_atom_site_fract_y
_atom_site_fract_z
Si Si1 0.379147 0.379147 0.666667
Si Si2 0.638964 0.819482 0.583334
Si Si3 0.662837 0.337164 0.916667
Si Si4 0.706188 0.853094 0.083334
Si Si5 0.153989 0.563070 0.267023
Si Si6 0.174343 0.141941 0.924526
O O1 0.360286 0.263080 0.636146
O O2 0.426071 0.476406 0.582131
O O3 0.556973 0.691876 0.595923
O O4 0.713698 0.832676 0.480786
O O5 0.786187 0.390314 0.881289
O O6 0.605285 0.361952 0.819141
O O7 0.775694 0.942244 0.173874
O O8 0.135392 0.036197 0.854965
#
# Coordination Sequence:
#
# PCOD9582860 Si02
#       6
#     6   6   6   6  12  12
#     4  12  26  46  70 104 146 192 244 294 370 432
#     4  10  26  45  74 110 144 183 250 302 372 438
#     4   8  19  44  68  96 140 182 237 298 362 422
#     4  12  27  45  72 106 152 191 243 298 356 444
#     4  10  23  43  73 105 142 191 240 307 360 448
#     4  12  26  47  74 106 146 190 239 305 364 432
#
# _framework density 21.544132000000001
#
# number of rings (size 3 to 8) (size 9 to 14) (size 15 to 20)
#    0.000    1.500    2.500    1.500   10.500    5.000 
#    0.000    2.500    0.000    0.000    0.000    0.000 
#    0.000    0.000    0.000    0.000    0.000    0.000 
#
# Total GULP energy -267660.864786 kJ/mol
# GULP energy per Si atom -5576.268016 kJ/mol
# Density = 2.149510 g / cm^3
# Si number density = 21.544132 Si / 1000 Ang^3
#
#
#
# Elastic Constant Matrix: (Units=GPa)
#
#
# Indices 1 2 3 4 5 6 
#
# 1 114.3032 51.2505 39.5701 0.0000 0.0000 0.0000
# 2 51.2505 114.3032 39.5701 0.0000 0.0000 0.0000
# 3 39.5701 39.5701 90.2346 0.0000 0.0000 0.0000
# 4 0.0000 0.0000 0.0000 18.0717 0.0000 0.0000
# 5 0.0000 0.0000 0.0000 0.0000 18.0717 0.0000
# 6 0.0000 0.0000 0.0000 0.0000 0.0000 31.5263
#
#
#
# Elastic Compliance Matrix: (Units=1/GPa)
#
#
# Indices 1 2 3 4 5 6 
#
# 1 0.011751 -0.004109 -0.003351 0.000000 0.000000 0.000000
# 2 -0.004109 0.011751 -0.003351 0.000000 0.000000 0.000000
# 3 -0.003351 -0.003351 0.014022 0.000000 0.000000 0.000000
# 4 0.000000 0.000000 0.000000 0.055335 0.000000 0.000000
# 5 0.000000 0.000000 0.000000 0.000000 0.055335 0.000000
# 6 0.000000 0.000000 0.000000 0.000000 0.000000 0.031720
#
#
# Mechanical properties :
#
#
# Convention : Reuss Voigt Hill
#
# Bulk Modulus (GPa) = 62.88979 64.40249 63.64614
# Shear Modulus (GPa) = 24.17363 26.09727 25.13545
#
# Velocity S-wave (km/s) = 3.35334 3.48421 3.41940
# Velocity P-wave (km/s) = 6.65189 6.79297 6.72280
#
# Compressibility (1/GPa) = 0.01590083
#
# Stress axis : x y z
#
# Youngs Moduli (GPa) = 85.09849 85.09849 71.31874
#
# Poissons Ratio (x) = 0.34964 0.23902
# Poissons Ratio (y) = 0.34964 0.23902
# Poissons Ratio (z) = 0.28520 0.28520
#
# Static dielectric constant tensor:
#      x y z
#    x 1.823780 0.000000 0.000000 
#    y 0.000000 1.823780 0.000000 
#    z 0.000000 0.000000 1.843380 
# 
# From -- ./inp_files/4247.got.cif
#   From: 2010.05.17/outbox.cif.g08.bks.cpg/sg178_3_cif.got.tgz:4247.got - 2010.05.20 11:30:59.
