data_PCOD9582552
_publ_section_title
;
Structure prediction by ZEFSAII (Michael W. Deem and Ramdas Pophale) SiO2 
 PCOD9582552
Probable space group: P 61 2 2
;
_chemical_formula_sum "Si O2"
_cell_formula_units_Z 60
_cell_length_a 16.935907
_cell_length_b 16.935907
_cell_length_c 12.534358
_cell_angle_alpha 90.000000
_cell_angle_beta 90.000000
_cell_angle_gamma 120.000000
_cell_volume 3113.505568
_symmetry_space_group_name_H-M "P 61 2 2"
_symmetry_group_IT_number 178
_symmetry_cell_setting 'hexagonal'
loop_
_space_group_symop_operation_xyz
x,y,z
x-y,x,1/6+z
-y,x-y,1/3+z
-x,-y,1/2+z
-x+y,-x,2/3+z
y,-x+y,5/6+z
x-y,-y,-z
-x,-x+y,2/3-z
y,x,1/3-z
-y,-x,5/6-z
-x+y,y,1/2-z
x,x-y,1/6-z
loop_
_atom_site_type_symbol
_atom_site_label
_atom_site_fract_x
_atom_site_fract_y
_atom_site_fract_z
Si Si1 0.472370 0.297128 0.492710
Si Si2 0.434257 0.533814 0.142164
Si Si3 0.856772 0.623197 0.644012
Si Si4 0.933122 0.649393 0.973783
Si Si5 0.551500 0.212833 0.336007
O O1 0.439971 0.219986 0.583334
O O2 0.533968 0.392059 0.549996
O O3 0.389825 0.291874 0.425913
O O4 0.530667 0.276370 0.408742
O O5 0.517096 0.517096 0.166667
O O6 0.353801 0.438466 0.097339
O O7 0.421237 0.577338 0.250128
O O8 0.793897 0.587793 0.750000
O O9 0.814391 0.675098 0.575834
O O10 0.846033 0.541107 0.567125
O O11 0.960451 0.684067 0.685081
O O12 0.631150 0.262300 0.250000
#
# Coordination Sequence:
#
# PCOD9582552 Si02
#       5
#    12  12  12  12  12
#     4   9  21  38  57  84 114 151 194 236 279 328
#     4  11  20  35  58  81 113 154 196 239 279 330
#     4  11  22  38  58  85 115 149 193 241 294 348
#     4  11  22  38  60  85 114 149 192 241 295 352
#     4  10  20  35  55  81 115 157 197 235 280 330
#
# _framework density 19.270882
#
# number of rings (size 3 to 8) (size 9 to 14) (size 15 to 20)
#    0.000    1.600    0.000    6.000    0.000    0.000 
#    0.000   29.000    0.000    0.000    0.000    7.000 
#    0.000    0.000    0.000    0.000    0.000    0.000 
#
# Total GULP energy -335179.448556 kJ/mol
# GULP energy per Si atom -5586.324143 kJ/mol
# Density = 1.922702 g / cm^3
# Si number density = 19.270882 Si / 1000 Ang^3
#
#
#
# Elastic Constant Matrix: (Units=GPa)
#
#
# Indices 1 2 3 4 5 6 
#
# 1 85.1180 63.1946 50.7266 0.0000 0.0000 0.0000
# 2 63.1946 85.1180 50.7266 0.0000 0.0000 0.0000
# 3 50.7266 50.7266 127.5694 0.0000 0.0000 0.0000
# 4 0.0000 0.0000 0.0000 32.7159 0.0000 0.0000
# 5 0.0000 0.0000 0.0000 0.0000 32.7159 0.0000
# 6 0.0000 0.0000 0.0000 0.0000 0.0000 10.9617
#
#
#
# Elastic Compliance Matrix: (Units=1/GPa)
#
#
# Indices 1 2 3 4 5 6 
#
# 1 0.027437 -0.018176 -0.003683 0.000000 0.000000 0.000000
# 2 -0.018176 0.027437 -0.003683 0.000000 0.000000 0.000000
# 3 -0.003683 -0.003683 0.010768 0.000000 0.000000 0.000000
# 4 0.000000 0.000000 0.000000 0.030566 0.000000 0.000000
# 5 0.000000 0.000000 0.000000 0.000000 0.030566 0.000000
# 6 0.000000 0.000000 0.000000 0.000000 0.000000 0.091226
#
#
# Mechanical properties :
#
#
# Convention : Reuss Voigt Hill
#
# Bulk Modulus (GPa) = 68.68172 69.67790 69.17981
# Shear Modulus (GPa) = 18.25233 24.15588 21.20411
#
# Velocity S-wave (km/s) = 3.08091 3.54431 3.32070
# Velocity P-wave (km/s) = 6.95511 7.27909 7.11894
#
# Compressibility (1/GPa) = 0.01455992
#
# Stress axis : x y z
#
# Youngs Moduli (GPa) = 36.44648 36.44648 92.86991
#
# Poissons Ratio (x) = 0.66244 0.34202
# Poissons Ratio (y) = 0.66244 0.34202
# Poissons Ratio (z) = 0.13423 0.13423
#
# Static dielectric constant tensor:
#      x y z
#    x 1.690220 0.000000 0.000000 
#    y 0.000000 1.690220 0.000000 
#    z 0.000000 0.000000 1.753950 
# 
# From -- ./inp_files/4520.got.cif
#   From: 2010.05.17/outbox.cif.g08.bks.cpg/sg178_3_cif.got.tgz:4520.got - 2010.05.20 11:30:59.
