data_PCOD9582006
_publ_section_title
;
Structure prediction by ZEFSAII (Michael W. Deem and Ramdas Pophale) SiO2 
 PCOD9582006
Probable space group: P 63/M
;
_chemical_formula_sum "Si O2"
_cell_formula_units_Z 64
_cell_length_a 14.841093
_cell_length_b 14.841093
_cell_length_c 18.461300
_cell_angle_alpha 90.000000
_cell_angle_beta 90.000000
_cell_angle_gamma 120.000000
_cell_volume 3521.475608
_symmetry_space_group_name_H-M "P 63/M"
_symmetry_group_IT_number 176
_symmetry_cell_setting 'hexagonal'
loop_
_space_group_symop_operation_xyz
x,y,z
x-y,x,1/2+z
-y,x-y,z
-x,-y,1/2+z
-x+y,-x,z
y,-x+y,1/2+z
-x,-y,-z
-x+y,-x,1/2-z
y,-x+y,-z
x,y,1/2-z
x-y,x,-z
-y,x-y,1/2-z
loop_
_atom_site_type_symbol
_atom_site_label
_atom_site_fract_x
_atom_site_fract_y
_atom_site_fract_z
Si Si1 0.879357 0.115791 0.371487
Si Si2 0.333334 0.666667 0.837766
Si Si3 0.169475 0.823966 0.016826
Si Si4 0.405917 0.395533 0.029338
Si Si5 0.449019 0.315965 0.165694
Si Si6 0.117849 0.242229 0.168712
O O1 0.874621 0.124068 0.459086
O O2 0.801892 0.155624 0.343899
O O3 0.994005 0.181210 0.340861
O O4 0.832864 0.998144 0.345359
O O5 0.333334 0.666668 0.750000
O O6 0.441864 0.673750 0.859318
O O7 0.160030 0.840963 0.101166
O O8 0.092263 0.701042 0.006652
O O9 0.292000 0.886230 0.999341
O O10 0.417720 0.384424 0.115402
O O11 0.500000 0.500000 0.000000
O O12 0.457976 0.344235 0.250000
O O13 0.146177 0.285166 0.250000
#
# Coordination Sequence:
#
# PCOD9582006 Si02
#       6
#    12   4  12  12  12  12
#     4  11  22  37  56  85 127 166 205 244 302 373
#     4   9  21  36  60  96 120 150 202 263 334 372
#     4  11  22  42  62  87 124 162 204 260 310 368
#     4  11  25  42  65  90 123 164 215 251 316 383
#     4  10  21  39  63  90 125 159 203 266 318 369
#     4  12  21  34  58  89 124 162 204 248 301 366
#
# _framework density 18.174199000000002
#
# number of rings (size 3 to 8) (size 9 to 14) (size 15 to 20)
#    0.000    1.125    5.625    2.062    5.250    0.000 
#    1.125    2.812    0.000    0.000    0.000    0.000 
#    0.000    0.000    0.000    0.000    0.000    0.000 
#
# Total GULP energy -356875.552429 kJ/mol
# GULP energy per Si atom -5576.180507 kJ/mol
# Density = 1.813283 g / cm^3
# Si number density = 18.174199 Si / 1000 Ang^3
#
#
#
# Elastic Constant Matrix: (Units=GPa)
#
#
# Indices 1 2 3 4 5 6 
#
# 1 91.0611 45.6478 24.3184 0.0000 0.0000 -0.0003
# 2 45.6478 91.0619 24.3183 0.0000 0.0000 -0.0006
# 3 24.3184 24.3183 128.3198 0.0000 0.0000 0.0001
# 4 0.0000 0.0000 0.0000 19.0124 0.0000 0.0000
# 5 0.0000 0.0000 0.0000 0.0000 19.0123 0.0000
# 6 -0.0003 -0.0006 0.0001 0.0000 0.0000 22.7068
#
#
#
# Elastic Compliance Matrix: (Units=1/GPa)
#
#
# Indices 1 2 3 4 5 6 
#
# 1 0.014932 -0.007088 -0.001487 0.000000 0.000000 0.000000
# 2 -0.007088 0.014932 -0.001486 0.000000 0.000000 0.000000
# 3 -0.001487 -0.001486 0.008356 0.000000 0.000000 0.000000
# 4 0.000000 0.000000 0.000000 0.052597 0.000000 0.000000
# 5 0.000000 0.000000 0.000000 0.000000 0.052597 0.000000
# 6 0.000000 0.000000 0.000000 0.000000 0.000000 0.044040
#
#
# Mechanical properties :
#
#
# Convention : Reuss Voigt Hill
#
# Bulk Modulus (GPa) = 55.25531 55.44575 55.35053
# Shear Modulus (GPa) = 23.40729 26.55688 24.98208
#
# Velocity S-wave (km/s) = 3.59268 3.82676 3.71157
# Velocity P-wave (km/s) = 6.90500 7.07811 6.99209
#
# Compressibility (1/GPa) = 0.01809781
#
# Stress axis : x y z
#
# Youngs Moduli (GPa) = 66.97127 66.97192 119.66814
#
# Poissons Ratio (x) = 0.47470 0.17789
# Poissons Ratio (y) = 0.47470 0.17788
# Poissons Ratio (z) = 0.09955 0.09955
#
# Static dielectric constant tensor:
#      x y z
#    x 1.627080 0.000000 0.000000 
#    y 0.000000 1.627080 0.000000 
#    z 0.000000 0.000000 1.771750 
# 
# From -- ./inp_files/3304.got.cif
#   From: 2010.05.17/outbox.cif.g08.bks.cpg/sg176_2_cif.got.tgz:3304.got - 2010.06.03 11:36:45.
