data_PCOD9582874
_publ_section_title
;
Structure prediction by ZEFSAII (Michael W. Deem and Ramdas Pophale) SiO2 
 PCOD9582874
Probable space group: P 61 2 2
;
_chemical_formula_sum "Si O2"
_cell_formula_units_Z 42
_cell_length_a 10.472319
_cell_length_b 10.472319
_cell_length_c 20.560426
_cell_angle_alpha 90.000000
_cell_angle_beta 90.000000
_cell_angle_gamma 120.000000
_cell_volume 1952.758182
_symmetry_space_group_name_H-M "P 61 2 2"
_symmetry_group_IT_number 178
_symmetry_cell_setting 'hexagonal'
loop_
_space_group_symop_operation_xyz
x,y,z
x-y,x,1/6+z
-y,x-y,1/3+z
-x,-y,1/2+z
-x+y,-x,2/3+z
y,-x+y,5/6+z
x-y,-y,-z
-x,-x+y,2/3-z
y,x,1/3-z
-y,-x,5/6-z
-x+y,y,1/2-z
x,x-y,1/6-z
loop_
_atom_site_type_symbol
_atom_site_label
_atom_site_fract_x
_atom_site_fract_y
_atom_site_fract_z
Si Si1 0.233939 0.987992 0.616997
Si Si2 0.565446 0.565446 0.166667
Si Si3 0.036587 0.369906 0.576986
Si Si4 0.597127 0.835132 0.508011
O O1 0.167352 0.083676 0.583334
O O2 0.350510 0.998881 0.564070
O O3 0.313263 0.050864 0.685224
O O4 0.130279 0.815012 0.631271
O O5 0.401022 0.539600 0.162969
O O6 0.080659 0.540330 0.583334
O O7 0.877731 0.281717 0.542036
O O8 0.593255 0.796628 0.583334
O O9 0.738622 0.000000 0.500000
#
# Coordination Sequence:
#
# PCOD9582874 Si02
#       4
#    12   6  12  12
#     4  12  25  49  67 104 144 193 235 295 363 444
#     4  10  24  46  70  96 146 178 230 298 360 414
#     4  12  27  43  76 107 139 190 243 298 367 436
#     4  10  23  45  70 102 138 182 231 299 361 425
#
# _framework density 21.508037999999999
#
# number of rings (size 3 to 8) (size 9 to 14) (size 15 to 20)
#    0.857    0.000    2.857    3.429    4.000    8.000 
#    0.000    0.000    0.000    0.000    0.000    0.000 
#    0.000    0.000    0.000    0.000    0.000    0.000 
#
# Total GULP energy -234267.817762 kJ/mol
# GULP energy per Si atom -5577.805185 kJ/mol
# Density = 2.145909 g / cm^3
# Si number density = 21.508038 Si / 1000 Ang^3
#
#
#
# Elastic Constant Matrix: (Units=GPa)
#
#
# Indices 1 2 3 4 5 6 
#
# 1 74.0902 39.2666 -2.0572 0.0000 0.0000 0.0000
# 2 39.2666 74.0902 -2.0572 0.0000 0.0000 0.0000
# 3 -2.0572 -2.0572 70.2684 0.0000 0.0000 0.0000
# 4 0.0000 0.0000 0.0000 25.8837 0.0000 0.0000
# 5 0.0000 0.0000 0.0000 0.0000 25.8837 0.0000
# 6 0.0000 0.0000 0.0000 0.0000 0.0000 17.4118
#
#
#
# Elastic Compliance Matrix: (Units=1/GPa)
#
#
# Indices 1 2 3 4 5 6 
#
# 1 0.018774 -0.009943 0.000259 0.000000 0.000000 0.000000
# 2 -0.009943 0.018774 0.000259 0.000000 0.000000 0.000000
# 3 0.000259 0.000259 0.014246 0.000000 0.000000 0.000000
# 4 0.000000 0.000000 0.000000 0.038634 0.000000 0.000000
# 5 0.000000 0.000000 0.000000 0.000000 0.038634 0.000000
# 6 0.000000 0.000000 0.000000 0.000000 0.000000 0.057432
#
#
# Mechanical properties :
#
#
# Convention : Reuss Voigt Hill
#
# Bulk Modulus (GPa) = 30.35581 32.08369 31.21975
# Shear Modulus (GPa) = 23.11324 26.05561 24.58443
#
# Velocity S-wave (km/s) = 3.28172 3.48435 3.38455
# Velocity P-wave (km/s) = 5.33890 5.58005 5.46081
#
# Compressibility (1/GPa) = 0.03294262
#
# Stress axis : x y z
#
# Youngs Moduli (GPa) = 53.26628 53.26628 70.19373
#
# Poissons Ratio (x) = 0.52960 -0.01815
# Poissons Ratio (y) = 0.52960 -0.01815
# Poissons Ratio (z) = -0.01377 -0.01377
#
# Static dielectric constant tensor:
#      x y z
#    x 1.840240 0.000000 0.000000 
#    y 0.000000 1.840240 0.000000 
#    z 0.000000 0.000000 1.821040 
# 
# From -- ./inp_files/7207.got.cif
#   From: 2010.05.17/outbox.cif.g08.bks.cpg/sg178_4_cif.got.tgz:7207.got - 2010.05.20 11:30:59.
