data_PCOD9582776
_publ_section_title
;
Structure prediction by ZEFSAII (Michael W. Deem and Ramdas Pophale) SiO2 
 PCOD9582776
Probable space group: P 61 2 2
;
_chemical_formula_sum "Si O2"
_cell_formula_units_Z 48
_cell_length_a 14.915927
_cell_length_b 14.915927
_cell_length_c 11.157061
_cell_angle_alpha 90.000000
_cell_angle_beta 90.000000
_cell_angle_gamma 120.000000
_cell_volume 2149.715252
_symmetry_space_group_name_H-M "P 61 2 2"
_symmetry_group_IT_number 178
_symmetry_cell_setting 'hexagonal'
loop_
_space_group_symop_operation_xyz
x,y,z
x-y,x,1/6+z
-y,x-y,1/3+z
-x,-y,1/2+z
-x+y,-x,2/3+z
y,-x+y,5/6+z
x-y,-y,-z
-x,-x+y,2/3-z
y,x,1/3-z
-y,-x,5/6-z
-x+y,y,1/2-z
x,x-y,1/6-z
loop_
_atom_site_type_symbol
_atom_site_label
_atom_site_fract_x
_atom_site_fract_y
_atom_site_fract_z
Si Si1 0.788438 0.581416 0.612597
Si Si2 0.926102 0.808746 0.947428
Si Si3 0.540496 0.000000 0.000000
Si Si4 0.095884 0.547942 0.083334
Si Si5 0.421319 0.812866 0.110191
O O1 0.808541 0.617082 0.750000
O O2 0.833936 0.685685 0.535568
O O3 0.839220 0.511525 0.578626
O O4 0.666566 0.500728 0.608588
O O5 0.862550 0.862754 0.895546
O O6 0.000000 0.823274 0.833334
O O7 0.529236 0.892574 0.046234
O O8 0.511055 0.031931 0.126546
O O9 0.411818 0.823636 0.250000
O O10 0.395803 0.697902 0.083334
#
# Coordination Sequence:
#
# PCOD9582776 Si02
#       5
#    12  12   6   6  12
#     4  12  23  40  71 101 141 188 247 299 371 461
#     4  10  22  40  71 108 139 182 250 327 374 441
#     4  12  26  42  70  96 140 194 248 302 360 444
#     4  12  26  44  66 102 142 188 236 296 368 448
#     4  12  25  44  66 105 146 195 246 314 384 457
#
# _framework density 22.32854
#
# number of rings (size 3 to 8) (size 9 to 14) (size 15 to 20)
#    0.000    0.500    7.500    2.250    5.250    0.000 
#    0.000    0.000   13.750    0.000    0.000    0.000 
#    0.000    0.000    0.000    0.000    0.000    0.000 
#
# Total GULP energy -267616.328476 kJ/mol
# GULP energy per Si atom -5575.340177 kJ/mol
# Density = 2.227772 g / cm^3
# Si number density = 22.328540 Si / 1000 Ang^3
#
#
#
# Elastic Constant Matrix: (Units=GPa)
#
#
# Indices 1 2 3 4 5 6 
#
# 1 114.2846 61.0714 22.5359 0.0000 0.0000 0.0000
# 2 61.0714 114.2846 22.5359 0.0000 0.0000 0.0000
# 3 22.5359 22.5359 104.0967 0.0000 0.0000 0.0000
# 4 0.0000 0.0000 0.0000 15.8381 0.0000 0.0000
# 5 0.0000 0.0000 0.0000 0.0000 15.8381 0.0000
# 6 0.0000 0.0000 0.0000 0.0000 0.0000 26.6066
#
#
#
# Elastic Compliance Matrix: (Units=1/GPa)
#
#
# Indices 1 2 3 4 5 6 
#
# 1 0.012416 -0.006377 -0.001307 0.000000 0.000000 0.000000
# 2 -0.006377 0.012416 -0.001307 0.000000 0.000000 0.000000
# 3 -0.001307 -0.001307 0.010172 0.000000 0.000000 0.000000
# 4 0.000000 0.000000 0.000000 0.063139 0.000000 0.000000
# 5 0.000000 0.000000 0.000000 0.000000 0.063139 0.000000
# 6 0.000000 0.000000 0.000000 0.000000 0.000000 0.037585
#
#
# Mechanical properties :
#
#
# Convention : Reuss Voigt Hill
#
# Bulk Modulus (GPa) = 58.75225 60.55027 59.65126
# Shear Modulus (GPa) = 22.46963 26.75807 24.61385
#
# Velocity S-wave (km/s) = 3.17569 3.46552 3.32377
# Velocity P-wave (km/s) = 6.31003 6.57190 6.44229
#
# Compressibility (1/GPa) = 0.01702062
#
# Stress axis : x y z
#
# Youngs Moduli (GPa) = 80.54440 80.54440 98.30434
#
# Poissons Ratio (x) = 0.51362 0.12852
# Poissons Ratio (y) = 0.51362 0.12852
# Poissons Ratio (z) = 0.10530 0.10530
#
# Static dielectric constant tensor:
#      x y z
#    x 1.945400 0.000000 0.000000 
#    y 0.000000 1.945400 0.000000 
#    z 0.000000 0.000000 1.761890 
# 
# From -- ./inp_files/4154.got.cif
#   From: 2010.05.17/outbox.cif.g08.bks.cpg/sg178_3_cif.got.tgz:4154.got - 2010.05.20 11:30:59.
