data_PCOD9582456
_publ_section_title
;
Structure prediction by ZEFSAII (Michael W. Deem and Ramdas Pophale) SiO2 
 PCOD9582456
Probable space group: P 61 2 2
;
_chemical_formula_sum "Si O2"
_cell_formula_units_Z 84
_cell_length_a 15.655189
_cell_length_b 15.655189
_cell_length_c 22.446373
_cell_angle_alpha 90.000000
_cell_angle_beta 90.000000
_cell_angle_gamma 120.000000
_cell_volume 4764.237875
_symmetry_space_group_name_H-M "P 61 2 2"
_symmetry_group_IT_number 178
_symmetry_cell_setting 'hexagonal'
loop_
_space_group_symop_operation_xyz
x,y,z
x-y,x,1/6+z
-y,x-y,1/3+z
-x,-y,1/2+z
-x+y,-x,2/3+z
y,-x+y,5/6+z
x-y,-y,-z
-x,-x+y,2/3-z
y,x,1/3-z
-y,-x,5/6-z
-x+y,y,1/2-z
x,x-y,1/6-z
loop_
_atom_site_type_symbol
_atom_site_label
_atom_site_fract_x
_atom_site_fract_y
_atom_site_fract_z
Si Si1 0.986924 0.691512 0.163922
Si Si2 0.511126 0.161718 0.607811
Si Si3 0.658671 0.120868 0.261207
Si Si4 0.639982 0.831083 0.916469
Si Si5 0.176443 0.646527 0.947986
Si Si6 0.894409 0.389561 0.816594
Si Si7 0.533404 0.248594 0.836177
O O1 0.928903 0.587322 0.198963
O O2 0.901623 0.700219 0.127418
O O3 0.051332 0.682713 0.111248
O O4 0.067080 0.769543 0.211516
O O5 0.485519 0.242760 0.583334
O O6 0.550200 0.141662 0.545896
O O7 0.599243 0.202279 0.655043
O O8 0.545878 0.091756 0.250000
O O9 0.667639 0.122838 0.331784
O O10 0.726753 0.229495 0.233192
O O11 0.558995 0.838663 0.957514
O O12 0.565773 0.748232 0.868854
O O13 0.253761 0.746240 0.916667
O O14 0.105302 0.567068 0.900170
O O15 0.238576 0.596631 0.974237
O O16 0.000000 0.406890 0.833334
#
# Coordination Sequence:
#
# PCOD9582456 Si02
#       7
#    12  12  12  12  12  12  12
#     4  11  23  36  57  77 114 150 198 241 302 351
#     4  12  21  32  53  78 107 152 191 233 282 346
#     4   9  19  35  49  74 109 150 195 243 276 328
#     4  10  22  39  51  80 110 155 196 245 291 353
#     4  10  19  33  52  74 112 150 191 239 275 327
#     4  11  21  33  49  75 111 145 189 234 289 334
#     4   9  20  32  50  76 110 149 200 229 272 336
#
# _framework density 17.631360000000001
#
# number of rings (size 3 to 8) (size 9 to 14) (size 15 to 20)
#    0.000    1.714    2.857    3.857    4.000    0.000 
#    0.000    0.000    0.000    0.000    0.000    0.000 
#    0.000   10.286    0.000    0.857    0.000    0.000 
#
# Total GULP energy -467824.172381 kJ/mol
# GULP energy per Si atom -5569.335385 kJ/mol
# Density = 1.759123 g / cm^3
# Si number density = 17.631360 Si / 1000 Ang^3
#
#
#
# Elastic Constant Matrix: (Units=GPa)
#
#
# Indices 1 2 3 4 5 6 
#
# 1 51.1679 28.4938 33.5495 0.0000 0.0000 0.0000
# 2 28.4938 51.1679 33.5495 0.0000 0.0000 0.0000
# 3 33.5495 33.5495 117.4259 0.0000 0.0000 0.0000
# 4 0.0000 0.0000 0.0000 25.6367 0.0000 0.0000
# 5 0.0000 0.0000 0.0000 0.0000 25.6367 0.0000
# 6 0.0000 0.0000 0.0000 0.0000 0.0000 11.3371
#
#
#
# Elastic Compliance Matrix: (Units=1/GPa)
#
#
# Indices 1 2 3 4 5 6 
#
# 1 0.030317 -0.013786 -0.004723 0.000000 0.000000 0.000000
# 2 -0.013786 0.030317 -0.004723 0.000000 0.000000 0.000000
# 3 -0.004723 -0.004723 0.011215 0.000000 0.000000 0.000000
# 4 0.000000 0.000000 0.000000 0.039007 0.000000 0.000000
# 5 0.000000 0.000000 0.000000 0.000000 0.039007 0.000000
# 6 0.000000 0.000000 0.000000 0.000000 0.000000 0.088206
#
#
# Mechanical properties :
#
#
# Convention : Reuss Voigt Hill
#
# Bulk Modulus (GPa) = 39.39319 45.66078 42.52698
# Shear Modulus (GPa) = 17.06513 20.80001 18.93257
#
# Velocity S-wave (km/s) = 3.11446 3.43843 3.28045
# Velocity P-wave (km/s) = 5.94343 6.45890 6.20652
#
# Compressibility (1/GPa) = 0.02538510
#
# Stress axis : x y z
#
# Youngs Moduli (GPa) = 32.98448 32.98448 89.16725
#
# Poissons Ratio (x) = 0.45472 0.42115
# Poissons Ratio (y) = 0.45472 0.42115
# Poissons Ratio (z) = 0.15579 0.15579
#
# Static dielectric constant tensor:
#      x y z
#    x 1.631440 0.000000 0.000000 
#    y 0.000000 1.631440 0.000000 
#    z 0.000000 0.000000 1.683460 
# 
# From -- ./inp_files/8345.got.cif
#   From: 2010.05.17/outbox.cif.g08.bks.cpg/sg178_5_cif.got.tgz:8345.got - 2010.05.20 11:30:59.
