data_PCOD9582614
_publ_section_title
;
Structure prediction by ZEFSAII (Michael W. Deem and Ramdas Pophale) SiO2 
 PCOD9582614
Probable space group: P 61 2 2
;
_chemical_formula_sum "Si O2"
_cell_formula_units_Z 48
_cell_length_a 15.381558
_cell_length_b 15.381558
_cell_length_c 11.067451
_cell_angle_alpha 90.000000
_cell_angle_beta 90.000000
_cell_angle_gamma 120.000000
_cell_volume 2267.664986
_symmetry_space_group_name_H-M "P 61 2 2"
_symmetry_group_IT_number 178
_symmetry_cell_setting 'hexagonal'
loop_
_space_group_symop_operation_xyz
x,y,z
x-y,x,1/6+z
-y,x-y,1/3+z
-x,-y,1/2+z
-x+y,-x,2/3+z
y,-x+y,5/6+z
x-y,-y,-z
-x,-x+y,2/3-z
y,x,1/3-z
-y,-x,5/6-z
-x+y,y,1/2-z
x,x-y,1/6-z
loop_
_atom_site_type_symbol
_atom_site_label
_atom_site_fract_x
_atom_site_fract_y
_atom_site_fract_z
Si Si1 0.473988 0.526013 0.916667
Si Si2 0.264874 0.497212 0.997617
Si Si3 0.642542 0.686087 0.300228
Si Si4 0.698433 0.396866 0.750000
Si Si5 0.171997 0.146138 0.466758
O O1 0.500849 0.630432 0.849876
O O2 0.441996 0.424997 0.841745
O O3 0.263333 0.535862 0.131944
O O4 0.161930 0.398110 0.970001
O O5 0.261500 0.579778 0.909656
O O6 0.674606 0.674606 0.166667
O O7 0.741596 0.736677 0.382670
O O8 0.075659 0.150569 0.518670
O O9 0.198052 0.099026 0.583334
#
# Coordination Sequence:
#
# PCOD9582614 Si02
#       5
#     6  12  12   6  12
#     4  11  24  34  58  92 118 160 204 257 310 372
#     4  10  21  37  59  85 121 162 210 254 311 382
#     4  12  23  38  61  91 125 165 217 263 323 392
#     4   9  18  38  58  80 118 168 200 249 312 374
#     4  10  20  38  66  94 120 160 211 272 328 388
#
# _framework density 21.167147
#
# number of rings (size 3 to 8) (size 9 to 14) (size 15 to 20)
#    0.000    1.500    2.500    4.500    0.000    2.000 
#    0.000    0.000   13.750    0.000    0.000    0.000 
#    0.000    0.000    0.000    0.000    0.000    0.000 
#
# Total GULP energy -267929.333539 kJ/mol
# GULP energy per Si atom -5581.861115 kJ/mol
# Density = 2.111897 g / cm^3
# Si number density = 21.167147 Si / 1000 Ang^3
#
#
#
# Elastic Constant Matrix: (Units=GPa)
#
#
# Indices 1 2 3 4 5 6 
#
# 1 123.3126 43.0803 19.3528 0.0000 0.0000 0.0000
# 2 43.0803 123.3126 19.3528 0.0000 0.0000 0.0000
# 3 19.3528 19.3528 47.6295 0.0000 0.0000 0.0000
# 4 0.0000 0.0000 0.0000 15.6982 0.0000 0.0000
# 5 0.0000 0.0000 0.0000 0.0000 15.6982 0.0000
# 6 0.0000 0.0000 0.0000 0.0000 0.0000 40.1162
#
#
#
# Elastic Compliance Matrix: (Units=1/GPa)
#
#
# Indices 1 2 3 4 5 6 
#
# 1 0.009550 -0.002913 -0.002697 0.000000 0.000000 0.000000
# 2 -0.002913 0.009550 -0.002697 0.000000 0.000000 0.000000
# 3 -0.002697 -0.002697 0.023187 0.000000 0.000000 0.000000
# 4 0.000000 0.000000 0.000000 0.063701 0.000000 0.000000
# 5 0.000000 0.000000 0.000000 0.000000 0.063701 0.000000
# 6 0.000000 0.000000 0.000000 0.000000 0.000000 0.024928
#
#
# Mechanical properties :
#
#
# Convention : Reuss Voigt Hill
#
# Bulk Modulus (GPa) = 38.94987 50.86961 44.90974
# Shear Modulus (GPa) = 22.74897 28.46713 25.60805
#
# Velocity S-wave (km/s) = 3.28186 3.67123 3.48199
# Velocity P-wave (km/s) = 5.72729 6.48499 6.11788
#
# Compressibility (1/GPa) = 0.02567403
#
# Stress axis : x y z
#
# Youngs Moduli (GPa) = 104.70658 104.70658 43.12775
#
# Poissons Ratio (x) = 0.30504 0.11631
# Poissons Ratio (y) = 0.30504 0.11631
# Poissons Ratio (z) = 0.28238 0.28238
#
# Static dielectric constant tensor:
#      x y z
#    x 1.811440 0.000000 0.000000 
#    y 0.000000 1.811440 0.000000 
#    z 0.000000 0.000000 1.717610 
# 
# From -- ./inp_files/4158.got.cif
#   From: 2010.05.17/outbox.cif.g08.bks.cpg/sg178_3_cif.got.tgz:4158.got - 2010.05.20 11:30:59.
