data_PCOD9582693
_publ_section_title
;
Structure prediction by ZEFSAII (Michael W. Deem and Ramdas Pophale) SiO2 
 PCOD9582693
Probable space group: P 61 2 2
;
_chemical_formula_sum "Si O2"
_cell_formula_units_Z 72
_cell_length_a 15.435225
_cell_length_b 15.435225
_cell_length_c 17.526308
_cell_angle_alpha 90.000000
_cell_angle_beta 90.000000
_cell_angle_gamma 120.000000
_cell_volume 3616.154692
_symmetry_space_group_name_H-M "P 61 2 2"
_symmetry_group_IT_number 178
_symmetry_cell_setting 'hexagonal'
loop_
_space_group_symop_operation_xyz
x,y,z
x-y,x,1/6+z
-y,x-y,1/3+z
-x,-y,1/2+z
-x+y,-x,2/3+z
y,-x+y,5/6+z
x-y,-y,-z
-x,-x+y,2/3-z
y,x,1/3-z
-y,-x,5/6-z
-x+y,y,1/2-z
x,x-y,1/6-z
loop_
_atom_site_type_symbol
_atom_site_label
_atom_site_fract_x
_atom_site_fract_y
_atom_site_fract_z
Si Si1 0.197988 0.877781 0.002692
Si Si2 0.401665 0.512454 0.135584
Si Si3 0.597418 0.070620 0.813016
Si Si4 0.109458 0.278097 0.863549
Si Si5 0.724974 0.227277 0.000845
Si Si6 0.235453 0.284023 0.473714
O O1 0.162523 0.837478 0.916667
O O2 0.284744 0.854163 0.030757
O O3 0.106922 0.818275 0.062941
O O4 0.246750 0.000000 0.000000
O O5 0.452324 0.452324 0.166667
O O6 0.431533 0.609496 0.188780
O O7 0.460145 0.553571 0.055397
O O8 0.513529 0.027058 0.750000
O O9 0.686497 0.181333 0.787127
O O10 0.641064 0.995823 0.817580
O O11 0.143499 0.385818 0.825632
O O12 0.178816 0.231274 0.847957
O O13 0.000000 0.205639 0.833334
O O14 0.116801 0.298730 0.953704
O O15 0.729502 0.270499 0.916667
#
# Coordination Sequence:
#
# PCOD9582693 Si02
#       6
#    12  12  12  12  12  12
#     4  11  26  46  68  90 133 188 235 286 343 418
#     4  10  21  38  64  89 127 172 221 266 334 410
#     4  10  22  36  62  94 129 161 207 273 334 399
#     4  11  20  37  64  95 125 160 209 271 344 410
#     4   9  18  35  58  90 126 164 197 256 331 390
#     4  11  24  40  65  92 129 168 220 273 343 405
#
# _framework density 19.910653
#
# number of rings (size 3 to 8) (size 9 to 14) (size 15 to 20)
#    0.000    1.667    0.000    6.000    9.333    0.667 
#    0.000    7.500    0.000    0.000    0.000    0.000 
#    0.000    0.000    0.000    0.000    0.000    0.000 
#
# Total GULP energy -401048.417900 kJ/mol
# GULP energy per Si atom -5570.116915 kJ/mol
# Density = 1.986534 g / cm^3
# Si number density = 19.910653 Si / 1000 Ang^3
#
#
#
# Elastic Constant Matrix: (Units=GPa)
#
#
# Indices 1 2 3 4 5 6 
#
# 1 86.9880 34.3956 11.1183 0.0000 0.0000 0.0000
# 2 34.3956 86.9880 11.1183 0.0000 0.0000 0.0000
# 3 11.1183 11.1183 78.8861 0.0000 0.0000 0.0000
# 4 0.0000 0.0000 0.0000 27.1170 0.0000 0.0000
# 5 0.0000 0.0000 0.0000 0.0000 27.1170 0.0000
# 6 0.0000 0.0000 0.0000 0.0000 0.0000 26.2962
#
#
#
# Elastic Compliance Matrix: (Units=1/GPa)
#
#
# Indices 1 2 3 4 5 6 
#
# 1 0.013735 -0.005279 -0.001192 0.000000 0.000000 0.000000
# 2 -0.005279 0.013735 -0.001192 0.000000 0.000000 0.000000
# 3 -0.001192 -0.001192 0.013012 0.000000 0.000000 0.000000
# 4 0.000000 0.000000 0.000000 0.036877 0.000000 0.000000
# 5 0.000000 0.000000 0.000000 0.000000 0.036877 0.000000
# 6 0.000000 0.000000 0.000000 0.000000 0.000000 0.038028
#
#
# Mechanical properties :
#
#
# Convention : Reuss Voigt Hill
#
# Bulk Modulus (GPa) = 39.74831 40.68068 40.21450
# Shear Modulus (GPa) = 28.41277 29.18804 28.80040
#
# Velocity S-wave (km/s) = 3.78168 3.83293 3.80739
# Velocity P-wave (km/s) = 6.25099 6.32965 6.29044
#
# Compressibility (1/GPa) = 0.02515830
#
# Stress axis : x y z
#
# Youngs Moduli (GPa) = 72.80444 72.80444 76.84930
#
# Poissons Ratio (x) = 0.38431 0.09160
# Poissons Ratio (y) = 0.38431 0.09160
# Poissons Ratio (z) = 0.08678 0.08678
#
# Static dielectric constant tensor:
#      x y z
#    x 1.741000 0.000000 0.000000 
#    y 0.000000 1.741000 0.000000 
#    z 0.000000 0.000000 1.750780 
# 
# From -- ./inp_files/6764.got.cif
#   From: 2010.05.17/outbox.cif.g08.bks.cpg/sg178_4_cif.got.tgz:6764.got - 2010.05.20 11:30:59.
