data_PCOD9582582
_publ_section_title
;
Structure prediction by ZEFSAII (Michael W. Deem and Ramdas Pophale) SiO2 
 PCOD9582582
Probable space group: P 61 2 2
;
_chemical_formula_sum "Si O2"
_cell_formula_units_Z 84
_cell_length_a 17.575806
_cell_length_b 17.575806
_cell_length_c 14.827191
_cell_angle_alpha 90.000000
_cell_angle_beta 90.000000
_cell_angle_gamma 120.000000
_cell_volume 3966.614675
_symmetry_space_group_name_H-M "P 61 2 2"
_symmetry_group_IT_number 178
_symmetry_cell_setting 'hexagonal'
loop_
_space_group_symop_operation_xyz
x,y,z
x-y,x,1/6+z
-y,x-y,1/3+z
-x,-y,1/2+z
-x+y,-x,2/3+z
y,-x+y,5/6+z
x-y,-y,-z
-x,-x+y,2/3-z
y,x,1/3-z
-y,-x,5/6-z
-x+y,y,1/2-z
x,x-y,1/6-z
loop_
_atom_site_type_symbol
_atom_site_label
_atom_site_fract_x
_atom_site_fract_y
_atom_site_fract_z
Si Si1 0.807663 0.371652 0.175774
Si Si2 0.497569 0.248785 0.583334
Si Si3 0.461619 0.283088 0.771651
Si Si4 0.051486 0.942304 0.714672
Si Si5 0.588079 0.120983 0.348513
Si Si6 0.784591 0.215410 0.416667
Si Si7 0.393370 0.357415 0.266954
Si Si8 0.683876 0.830940 0.766824
O O1 0.783273 0.433766 0.229124
O O2 0.735101 0.273724 0.143911
O O3 0.874160 0.357880 0.234836
O O4 0.848411 0.424206 0.083334
O O5 0.443121 0.242216 0.671943
O O6 0.506459 0.388221 0.765957
O O7 0.376992 0.230385 0.835547
O O8 0.109698 0.897158 0.735191
O O9 0.032712 0.936442 0.606861
O O10 0.948997 0.897994 0.750000
O O11 0.574799 0.149598 0.250000
O O12 0.683013 0.180455 0.392608
O O13 0.588534 0.029965 0.342607
O O14 0.808785 0.173822 0.502569
O O15 0.367527 0.367527 0.166667
O O16 0.325528 0.261156 0.302655
#
# Coordination Sequence:
#
# PCOD9582582 Si02
#       8
#    12   6  12  12  12   6  12  12
#     4   9  20  36  55  81 114 167 226 289 326 392
#     4  10  20  36  64  80 119 179 246 282 328 400
#     4  10  23  38  59  91 131 179 239 292 345 404
#     4  10  25  44  79 116 139 174 224 289 368 464
#     4  12  25  38  60  93 134 183 238 293 353 405
#     4  12  26  40  64 102 145 187 240 300 346 414
#     4  11  22  36  56  89 129 171 211 278 347 408
#     4  11  25  43  66 103 144 179 225 290 367 427
#
# _framework density 21.176746999999999
#
# number of rings (size 3 to 8) (size 9 to 14) (size 15 to 20)
#    0.000    1.429    2.857    1.286   13.000    0.000 
#    0.000    0.000    7.857    0.000    0.000    0.000 
#    0.000    0.000    0.000    0.000    0.000    0.000 
#
# Total GULP energy -468082.748971 kJ/mol
# GULP energy per Si atom -5572.413678 kJ/mol
# Density = 2.112855 g / cm^3
# Si number density = 21.176747 Si / 1000 Ang^3
#
#
#
# Elastic Constant Matrix: (Units=GPa)
#
#
# Indices 1 2 3 4 5 6 
#
# 1 58.7857 44.3114 36.9959 0.0000 0.0000 0.0000
# 2 44.3114 58.7857 36.9959 0.0000 0.0000 0.0000
# 3 36.9959 36.9959 102.5704 0.0000 0.0000 0.0000
# 4 0.0000 0.0000 0.0000 23.9975 0.0000 0.0000
# 5 0.0000 0.0000 0.0000 0.0000 23.9975 0.0000
# 6 0.0000 0.0000 0.0000 0.0000 0.0000 7.2372
#
#
#
# Elastic Compliance Matrix: (Units=1/GPa)
#
#
# Indices 1 2 3 4 5 6 
#
# 1 0.041088 -0.028000 -0.004720 0.000000 0.000000 0.000000
# 2 -0.028000 0.041088 -0.004720 0.000000 0.000000 0.000000
# 3 -0.004720 -0.004720 0.013155 0.000000 0.000000 0.000000
# 4 0.000000 0.000000 0.000000 0.041671 0.000000 0.000000
# 5 0.000000 0.000000 0.000000 0.000000 0.041671 0.000000
# 6 0.000000 0.000000 0.000000 0.000000 0.000000 0.138176
#
#
# Mechanical properties :
#
#
# Convention : Reuss Voigt Hill
#
# Bulk Modulus (GPa) = 48.90551 50.74980 49.82765
# Shear Modulus (GPa) = 12.54560 17.83566 15.19063
#
# Velocity S-wave (km/s) = 2.43662 2.90527 2.68120
# Velocity P-wave (km/s) = 5.57317 5.93894 5.75896
#
# Compressibility (1/GPa) = 0.02044759
#
# Stress axis : x y z
#
# Youngs Moduli (GPa) = 24.33821 24.33821 76.01880
#
# Poissons Ratio (x) = 0.68148 0.35884
# Poissons Ratio (y) = 0.68148 0.35884
# Poissons Ratio (z) = 0.11489 0.11489
#
# Static dielectric constant tensor:
#      x y z
#    x 2.032260 0.000000 0.000000 
#    y 0.000000 2.032260 0.000000 
#    z 0.000000 0.000000 1.836320 
# 
# From -- ./inp_files/6060.got.cif
#   From: 2010.05.17/outbox.cif.g08.bks.cpg/sg178_4_cif.got.tgz:6060.got - 2010.05.20 11:30:59.
