data_PCOD9582438
_publ_section_title
;
Structure prediction by ZEFSAII (Michael W. Deem and Ramdas Pophale) SiO2 
 PCOD9582438
Probable space group: P 61 2 2
;
_chemical_formula_sum "Si O2"
_cell_formula_units_Z 42
_cell_length_a 13.945385
_cell_length_b 13.945385
_cell_length_c 11.204247
_cell_angle_alpha 90.000000
_cell_angle_beta 90.000000
_cell_angle_gamma 120.000000
_cell_volume 1887.010529
_symmetry_space_group_name_H-M "P 61 2 2"
_symmetry_group_IT_number 178
_symmetry_cell_setting 'hexagonal'
loop_
_space_group_symop_operation_xyz
x,y,z
x-y,x,1/6+z
-y,x-y,1/3+z
-x,-y,1/2+z
-x+y,-x,2/3+z
y,-x+y,5/6+z
x-y,-y,-z
-x,-x+y,2/3-z
y,x,1/3-z
-y,-x,5/6-z
-x+y,y,1/2-z
x,x-y,1/6-z
loop_
_atom_site_type_symbol
_atom_site_label
_atom_site_fract_x
_atom_site_fract_y
_atom_site_fract_z
Si Si1 0.379198 0.293335 0.357544
Si Si2 0.792768 0.585536 0.250000
Si Si3 0.585352 0.452095 0.658299
Si Si4 0.816095 0.000000 0.500000
Si Si5 0.093838 0.546919 0.083334
O O1 0.352856 0.208951 0.465295
O O2 0.489106 0.324053 0.278682
O O3 0.283441 0.230799 0.261804
O O4 0.400162 0.411559 0.412677
O O5 0.840992 0.506228 0.279662
O O6 0.532732 0.532732 0.666667
O O7 0.601053 0.435336 0.797502
O O8 0.836439 0.918220 0.583334
#
# Coordination Sequence:
#
# PCOD9582438 Si02
#       5
#    12   6  12   6   6
#     4  11  22  43  72 105 145 193 241 294 378 459
#     4  12  22  34  69 112 148 196 237 294 350 448
#     4  10  20  39  64  94 151 194 235 285 348 440
#     4  12  30  56  78 100 138 192 266 342 412 458
#     4  10  18  42  69  94 144 196 237 284 336 452
#
# _framework density 22.257425999999999
#
# number of rings (size 3 to 8) (size 9 to 14) (size 15 to 20)
#    0.000    1.143   10.000    0.000    4.000    0.000 
#    2.571    8.571    0.000    0.000    0.000    0.000 
#    0.000    0.000    0.000    0.000    0.000    0.000 
#
# Total GULP energy -234102.804870 kJ/mol
# GULP energy per Si atom -5573.876306 kJ/mol
# Density = 2.220677 g / cm^3
# Si number density = 22.257426 Si / 1000 Ang^3
#
#
#
# Elastic Constant Matrix: (Units=GPa)
#
#
# Indices 1 2 3 4 5 6 
#
# 1 42.5466 29.2922 43.1740 0.0000 0.0000 0.0000
# 2 29.2922 42.5466 43.1740 0.0000 0.0000 0.0000
# 3 43.1740 43.1740 219.0160 0.0000 0.0000 0.0000
# 4 0.0000 0.0000 0.0000 55.3828 0.0000 0.0000
# 5 0.0000 0.0000 0.0000 0.0000 55.3828 0.0000
# 6 0.0000 0.0000 0.0000 0.0000 0.0000 6.6272
#
#
#
# Elastic Compliance Matrix: (Units=1/GPa)
#
#
# Indices 1 2 3 4 5 6 
#
# 1 0.046845 -0.028602 -0.003596 0.000000 0.000000 0.000000
# 2 -0.028602 0.046845 -0.003596 0.000000 0.000000 0.000000
# 3 -0.003596 -0.003596 0.005984 0.000000 0.000000 0.000000
# 4 0.000000 0.000000 0.000000 0.018056 0.000000 0.000000
# 5 0.000000 0.000000 0.000000 0.000000 0.018056 0.000000
# 6 0.000000 0.000000 0.000000 0.000000 0.000000 0.150894
#
#
# Mechanical properties :
#
#
# Convention : Reuss Voigt Hill
#
# Bulk Modulus (GPa) = 35.60721 59.48772 47.54746
# Shear Modulus (GPa) = 13.60064 36.04313 24.82188
#
# Velocity S-wave (km/s) = 2.47465 4.02851 3.34311
# Velocity P-wave (km/s) = 4.91913 6.95871 6.02584
#
# Compressibility (1/GPa) = 0.02808420
#
# Stress axis : x y z
#
# Youngs Moduli (GPa) = 21.34712 21.34712 167.12217
#
# Poissons Ratio (x) = 0.61058 0.60098
# Poissons Ratio (y) = 0.61058 0.60098
# Poissons Ratio (z) = 0.07677 0.07677
#
# Static dielectric constant tensor:
#      x y z
#    x 1.841220 0.000000 0.000000 
#    y 0.000000 1.841220 0.000000 
#    z 0.000000 0.000000 1.874570 
# 
# From -- ./inp_files/4058.got.cif
#   From: 2010.05.17/outbox.cif.g08.bks.cpg/sg178_3_cif.got.tgz:4058.got - 2010.05.20 11:30:59.
