data_PCOD9582611
_publ_section_title
;
Structure prediction by ZEFSAII (Michael W. Deem and Ramdas Pophale) SiO2 
 PCOD9582611
Probable space group: P 61 2 2
;
_chemical_formula_sum "Si O2"
_cell_formula_units_Z 60
_cell_length_a 14.751806
_cell_length_b 14.751806
_cell_length_c 14.606734
_cell_angle_alpha 90.000000
_cell_angle_beta 90.000000
_cell_angle_gamma 120.000000
_cell_volume 2752.796687
_symmetry_space_group_name_H-M "P 61 2 2"
_symmetry_group_IT_number 178
_symmetry_cell_setting 'hexagonal'
loop_
_space_group_symop_operation_xyz
x,y,z
x-y,x,1/6+z
-y,x-y,1/3+z
-x,-y,1/2+z
-x+y,-x,2/3+z
y,-x+y,5/6+z
x-y,-y,-z
-x,-x+y,2/3-z
y,x,1/3-z
-y,-x,5/6-z
-x+y,y,1/2-z
x,x-y,1/6-z
loop_
_atom_site_type_symbol
_atom_site_label
_atom_site_fract_x
_atom_site_fract_y
_atom_site_fract_z
Si Si1 0.029681 0.688722 0.191947
Si Si2 0.951967 0.475984 0.583334
Si Si3 0.851608 0.501598 0.767469
Si Si4 0.155817 0.090143 0.871938
Si Si5 0.265275 0.000000 0.000000
Si Si6 0.313129 0.466087 0.685048
O O1 0.999291 0.592761 0.121959
O O2 0.038255 0.792728 0.152805
O O3 0.137050 0.717267 0.247954
O O4 0.933672 0.634051 0.261192
O O5 0.892784 0.485383 0.671303
O O6 0.730657 0.461313 0.750000
O O7 0.871163 0.431632 0.840605
O O8 0.908873 0.621632 0.799581
O O9 0.215216 0.035933 0.920465
O O10 0.103441 0.020853 0.780894
O O11 0.252811 0.505622 0.750000
#
# Coordination Sequence:
#
# PCOD9582611 Si02
#       6
#    12   6  12  12   6  12
#     4  10  21  42  68  95 135 184 230 287 360 430
#     4  10  20  38  62  96 128 176 236 276 350 428
#     4  11  23  39  65  96 136 187 230 304 367 437
#     4  12  26  46  73 105 139 183 241 307 371 447
#     4  12  24  46  68  96 138 184 246 306 376 444
#     4  10  22  41  63  98 138 180 235 288 359 449
#
# _framework density 21.796016999999999
#
# number of rings (size 3 to 8) (size 9 to 14) (size 15 to 20)
#    0.000    1.200    0.000    7.800    1.400    0.000 
#    1.800   14.000    0.000    0.000    0.000    0.000 
#    0.000    0.000    0.000    0.000    0.000    0.000 
#
# Total GULP energy -334620.385105 kJ/mol
# GULP energy per Si atom -5577.006418 kJ/mol
# Density = 2.174641 g / cm^3
# Si number density = 21.796017 Si / 1000 Ang^3
#
#
#
# Elastic Constant Matrix: (Units=GPa)
#
#
# Indices 1 2 3 4 5 6 
#
# 1 109.5444 33.6896 48.1058 0.0000 0.0000 0.0000
# 2 33.6896 109.5444 48.1058 0.0000 0.0000 0.0000
# 3 48.1058 48.1058 105.0898 0.0000 0.0000 0.0000
# 4 0.0000 0.0000 0.0000 250.0969 0.0000 0.0000
# 5 0.0000 0.0000 0.0000 0.0000 250.0969 0.0000
# 6 0.0000 0.0000 0.0000 0.0000 0.0000 37.9274
#
#
#
# Elastic Compliance Matrix: (Units=1/GPa)
#
#
# Indices 1 2 3 4 5 6 
#
# 1 0.011632 -0.001551 -0.004615 0.000000 0.000000 0.000000
# 2 -0.001551 0.011632 -0.004615 0.000000 0.000000 0.000000
# 3 -0.004615 -0.004615 0.013741 0.000000 0.000000 0.000000
# 4 0.000000 0.000000 0.000000 0.003998 0.000000 0.000000
# 5 0.000000 0.000000 0.000000 0.000000 0.003998 0.000000
# 6 0.000000 0.000000 0.000000 0.000000 0.000000 0.026366
#
#
# Mechanical properties :
#
#
# Convention : Reuss Voigt Hill
#
# Bulk Modulus (GPa) = 64.74978 64.88675 64.81827
# Shear Modulus (GPa) = 50.98019 120.57607 85.77813
#
# Velocity S-wave (km/s) = 4.84153 7.44583 6.28016
# Velocity P-wave (km/s) = 7.81189 10.18602 9.07691
#
# Compressibility (1/GPa) = 0.01544407
#
# Stress axis : x y z
#
# Youngs Moduli (GPa) = 85.96790 85.96790 72.77671
#
# Poissons Ratio (x) = 0.13332 0.33585
# Poissons Ratio (y) = 0.13332 0.33585
# Poissons Ratio (z) = 0.39673 0.39673
#
# Static dielectric constant tensor:
#      x y z
#    x 1.800880 0.000000 0.000000 
#    y 0.000000 1.800880 0.000000 
#    z 0.000000 0.000000 1.882310 
# 
# From -- ./inp_files/5733.got.cif
#   From: 2010.05.17/outbox.cif.g08.bks.cpg/sg178_3_cif.got.tgz:5733.got - 2010.05.20 11:30:59.
