data_PCOD9582713
_publ_section_title
;
Structure prediction by ZEFSAII (Michael W. Deem and Ramdas Pophale) SiO2 
 PCOD9582713
Probable space group: P 61 2 2
;
_chemical_formula_sum "Si O2"
_cell_formula_units_Z 78
_cell_length_a 19.244964
_cell_length_b 19.244964
_cell_length_c 12.714714
_cell_angle_alpha 90.000000
_cell_angle_beta 90.000000
_cell_angle_gamma 120.000000
_cell_volume 4078.227356
_symmetry_space_group_name_H-M "P 61 2 2"
_symmetry_group_IT_number 178
_symmetry_cell_setting 'hexagonal'
loop_
_space_group_symop_operation_xyz
x,y,z
x-y,x,1/6+z
-y,x-y,1/3+z
-x,-y,1/2+z
-x+y,-x,2/3+z
y,-x+y,5/6+z
x-y,-y,-z
-x,-x+y,2/3-z
y,x,1/3-z
-y,-x,5/6-z
-x+y,y,1/2-z
x,x-y,1/6-z
loop_
_atom_site_type_symbol
_atom_site_label
_atom_site_fract_x
_atom_site_fract_y
_atom_site_fract_z
Si Si1 0.682567 0.629792 0.932886
Si Si2 0.577221 0.490131 0.220516
Si Si3 0.317590 0.082807 0.043917
Si Si4 0.756176 0.398666 0.958432
Si Si5 0.231801 0.426206 0.025437
Si Si6 0.501274 0.498726 0.416667
Si Si7 0.112259 0.371020 0.696359
O O1 0.705410 0.646788 0.809798
O O2 0.748280 0.611543 0.979785
O O3 0.593548 0.551131 0.939962
O O4 0.686209 0.705787 0.993353
O O5 0.530554 0.530554 0.166667
O O6 0.589578 0.414505 0.206207
O O7 0.519325 0.456892 0.321591
O O8 0.668267 0.562179 0.234812
O O9 0.291904 0.145952 0.083334
O O10 0.382272 0.129989 0.952131
O O11 0.246546 0.000000 0.000000
O O12 0.676557 0.323444 0.916667
O O13 0.753712 0.480139 0.953623
O O14 0.769245 0.384623 0.083334
O O15 0.260436 0.412519 0.913782
O O16 0.172114 0.344228 0.750000
#
# Coordination Sequence:
#
# PCOD9582713 Si02
#       7
#    12  12  12  12  12   6  12
#     4  10  23  39  61  93 122 165 215 265 327 378
#     4  11  24  41  64  86 118 172 220 264 330 387
#     4  10  21  40  67  95 125 165 209 261 321 379
#     4  12  26  43  63  89 128 175 221 277 339 383
#     4  11  24  41  62  89 131 166 220 270 321 385
#     4  10  22  38  60  86 120 156 220 264 320 384
#     4  11  23  40  64  88 123 165 213 267 325 393
#
# _framework density 19.125955999999999
#
# number of rings (size 3 to 8) (size 9 to 14) (size 15 to 20)
#    0.000    1.231    3.846    1.385    7.538    1.846 
#    0.000    0.000    0.000    0.000    0.000    4.308 
#    0.000    0.000    0.000    0.000    0.000    0.000 
#
# Total GULP energy -434326.627161 kJ/mol
# GULP energy per Si atom -5568.290092 kJ/mol
# Density = 1.908242 g / cm^3
# Si number density = 19.125956 Si / 1000 Ang^3
#
#
#
# Elastic Constant Matrix: (Units=GPa)
#
#
# Indices 1 2 3 4 5 6 
#
# 1 92.2545 61.5598 27.0927 0.0000 0.0000 0.0000
# 2 61.5598 92.2545 27.0927 0.0000 0.0000 0.0000
# 3 27.0927 27.0927 58.5487 0.0000 0.0000 0.0000
# 4 0.0000 0.0000 0.0000 18.9054 0.0000 0.0000
# 5 0.0000 0.0000 0.0000 0.0000 18.9054 0.0000
# 6 0.0000 0.0000 0.0000 0.0000 0.0000 15.3473
#
#
#
# Elastic Compliance Matrix: (Units=1/GPa)
#
#
# Indices 1 2 3 4 5 6 
#
# 1 0.020173 -0.012406 -0.003594 0.000000 0.000000 0.000000
# 2 -0.012406 0.020173 -0.003594 0.000000 0.000000 0.000000
# 3 -0.003594 -0.003594 0.020406 0.000000 0.000000 0.000000
# 4 0.000000 0.000000 0.000000 0.052895 0.000000 0.000000
# 5 0.000000 0.000000 0.000000 0.000000 0.052895 0.000000
# 6 0.000000 0.000000 0.000000 0.000000 0.000000 0.065158
#
#
# Mechanical properties :
#
#
# Convention : Reuss Voigt Hill
#
# Bulk Modulus (GPa) = 46.37354 52.72756 49.55055
# Shear Modulus (GPa) = 17.98063 19.11914 18.54988
#
# Velocity S-wave (km/s) = 3.06946 3.16514 3.11767
# Velocity P-wave (km/s) = 6.07134 6.40203 6.23887
#
# Compressibility (1/GPa) = 0.02156402
#
# Stress axis : x y z
#
# Youngs Moduli (GPa) = 49.57061 49.57061 49.00454
#
# Poissons Ratio (x) = 0.61496 0.17614
# Poissons Ratio (y) = 0.61496 0.17614
# Poissons Ratio (z) = 0.17817 0.17817
#
# Static dielectric constant tensor:
#      x y z
#    x 1.692540 0.000000 0.000000 
#    y 0.000000 1.692540 0.000000 
#    z 0.000000 0.000000 1.771410 
# 
# From -- ./inp_files/5985.got.cif
#   From: 2010.05.17/outbox.cif.g08.bks.cpg/sg178_3_cif.got.tgz:5985.got - 2010.05.20 11:30:59.
