data_PCOD9582243
_publ_section_title
;
Structure prediction by ZEFSAII (Michael W. Deem and Ramdas Pophale) SiO2 
 PCOD9582243
Probable space group: P 6 2 2
;
_chemical_formula_sum "Si O2"
_cell_formula_units_Z 64
_cell_length_a 13.734171
_cell_length_b 13.734171
_cell_length_c 18.475183
_cell_angle_alpha 90.000000
_cell_angle_beta 90.000000
_cell_angle_gamma 120.000000
_cell_volume 3018.035065
_symmetry_space_group_name_H-M "P 6 2 2"
_symmetry_group_IT_number 177
_symmetry_cell_setting 'hexagonal'
loop_
_space_group_symop_operation_xyz
x,y,z
x-y,x,z
-y,x-y,z
-x,-y,z
-x+y,-x,z
y,-x+y,z
x-y,-y,-z
-x,-x+y,-z
y,x,-z
-y,-x,-z
-x+y,y,-z
x,x-y,-z
loop_
_atom_site_type_symbol
_atom_site_label
_atom_site_fract_x
_atom_site_fract_y
_atom_site_fract_z
Si Si1 0.044744 0.804372 0.106247
Si Si2 0.738329 0.529590 0.081058
Si Si3 0.055535 0.252567 0.718931
Si Si4 0.883723 0.493995 0.673717
Si Si5 0.333333 0.666667 0.413948
Si Si6 0.599577 0.127428 0.172817
O O1 0.084791 0.722051 0.076002
O O2 0.248726 0.048624 0.193725
O O3 0.926875 0.785922 0.082523
O O4 0.840314 0.559553 0.138517
O O5 0.631275 0.434116 0.120417
O O6 0.750316 0.500632 0.000000
O O7 0.154022 0.224926 0.696107
O O8 0.087045 0.379092 0.695175
O O9 0.783430 0.435619 0.616832
O O10 0.843685 0.411100 0.744422
O O11 0.000000 0.500000 0.650090
O O12 0.333334 0.666667 0.500000
O O13 0.500000 0.000000 0.167592
#
# Coordination Sequence:
#
# PCOD9582243 Si02
#       6
#    12  12  12  12   4  12
#     4  10  21  36  56  80 112 151 198 255 319 386
#     4  12  24  38  55  80 115 157 206 262 328 398
#     4  10  20  37  64  97 131 165 213 271 333 389
#     4  11  23  41  71  98 129 174 225 276 325 394
#     4  12  27  45  66 102 148 179 211 261 330 414
#     4  11  24  40  62  84 113 153 207 270 321 375
#
# _framework density 21.205849000000001
#
# number of rings (size 3 to 8) (size 9 to 14) (size 15 to 20)
#    0.000    1.125    1.875    4.688    7.875    5.625 
#    0.000    0.000    0.000    1.125    0.000    0.000 
#    0.000    1.500    0.000    0.000    0.000    0.000 
#
# Total GULP energy -357721.578093 kJ/mol
# GULP energy per Si atom -5589.399658 kJ/mol
# Density = 2.115758 g / cm^3
# Si number density = 21.205849 Si / 1000 Ang^3
#
#
#
# Elastic Constant Matrix: (Units=GPa)
#
#
# Indices 1 2 3 4 5 6 
#
# 1 103.6613 40.3432 38.0498 0.0000 0.0000 0.0000
# 2 40.3432 103.6612 38.0497 0.0000 0.0000 0.0000
# 3 38.0498 38.0497 98.8015 0.0000 0.0000 0.0000
# 4 0.0000 0.0000 0.0000 14.8031 0.0000 0.0000
# 5 0.0000 0.0000 0.0000 0.0000 14.8031 0.0000
# 6 0.0000 0.0000 0.0000 0.0000 0.0000 31.6590
#
#
#
# Elastic Compliance Matrix: (Units=1/GPa)
#
#
# Indices 1 2 3 4 5 6 
#
# 1 0.012256 -0.003537 -0.003358 0.000000 0.000000 0.000000
# 2 -0.003537 0.012256 -0.003358 0.000000 0.000000 0.000000
# 3 -0.003358 -0.003358 0.012707 0.000000 0.000000 0.000000
# 4 0.000000 0.000000 0.000000 0.067554 0.000000 0.000000
# 5 0.000000 0.000000 0.000000 0.000000 0.067554 0.000000
# 6 0.000000 0.000000 0.000000 0.000000 0.000000 0.031587
#
#
# Mechanical properties :
#
#
# Convention : Reuss Voigt Hill
#
# Bulk Modulus (GPa) = 59.82990 59.88994 59.85992
# Shear Modulus (GPa) = 21.74010 24.89844 23.31927
#
# Velocity S-wave (km/s) = 3.20534 3.43028 3.31971
# Velocity P-wave (km/s) = 6.47874 6.63269 6.55616
#
# Compressibility (1/GPa) = 0.01671405
#
# Stress axis : x y z
#
# Youngs Moduli (GPa) = 81.59313 81.59313 78.69406
#
# Poissons Ratio (x) = 0.28862 0.26423
# Poissons Ratio (y) = 0.28862 0.26423
# Poissons Ratio (z) = 0.27396 0.27396
#
# Static dielectric constant tensor:
#      x y z
#    x 1.868260 0.000000 0.000000 
#    y 0.000000 1.868260 0.000000 
#    z 0.000000 0.000000 1.717200 
# 
# From -- ./inp_files/2816.got.cif
#   From: 2010.05.17/outbox.cif.g08.bks.cpg/sg177_2_cif.got.tgz:2816.got - 2010.05.20 11:28:44.
