data_PCOD9582935
_publ_section_title
;
Structure prediction by ZEFSAII (Michael W. Deem and Ramdas Pophale) SiO2 
 PCOD9582935
Probable space group: P 61 2 2
;
_chemical_formula_sum "Si O2"
_cell_formula_units_Z 48
_cell_length_a 25.679044
_cell_length_b 25.679044
_cell_length_c 4.969862
_cell_angle_alpha 90.000000
_cell_angle_beta 90.000000
_cell_angle_gamma 120.000000
_cell_volume 2838.132483
_symmetry_space_group_name_H-M "P 61 2 2"
_symmetry_group_IT_number 178
_symmetry_cell_setting 'hexagonal'
loop_
_space_group_symop_operation_xyz
x,y,z
x-y,x,1/6+z
-y,x-y,1/3+z
-x,-y,1/2+z
-x+y,-x,2/3+z
y,-x+y,5/6+z
x-y,-y,-z
-x,-x+y,2/3-z
y,x,1/3-z
-y,-x,5/6-z
-x+y,y,1/2-z
x,x-y,1/6-z
loop_
_atom_site_type_symbol
_atom_site_label
_atom_site_fract_x
_atom_site_fract_y
_atom_site_fract_z
Si Si1 0.070590 0.700382 0.761535
Si Si2 0.000000 0.188597 0.833334
Si Si3 0.421122 0.954846 0.244978
Si Si4 0.000000 0.881467 0.833334
Si Si5 0.679823 0.895530 0.930311
O O1 0.075403 0.733916 0.488425
O O2 0.000000 0.664629 0.833334
O O3 0.085321 0.648140 0.677902
O O4 0.107298 0.749997 0.993558
O O5 0.020254 0.163998 0.583250
O O6 0.055951 0.250176 0.945250
O O7 0.461233 0.922465 0.250000
O O8 0.432584 0.000000 0.500000
O O9 0.451701 0.000000 0.000000
O O10 0.944318 0.888635 0.750000
O O11 0.673137 0.836569 0.083334
#
# Coordination Sequence:
#
# PCOD9582935 Si02
#       5
#    12   6  12   6  12
#     4  11  19  35  52  73 102 135 172 214 260 310
#     4  12  24  43  56  76  98 129 170 222 272 344
#     4   9  17  29  49  76 105 135 168 205 244 293
#     4  12  26  43  62  78  94 115 152 218 302 374
#     4  12  23  36  53  74 100 135 179 222 271 321
#
# _framework density 16.912531000000001
#
# number of rings (size 3 to 8) (size 9 to 14) (size 15 to 20)
#    0.000    1.000    2.500    7.500    0.000    1.000 
#    0.000    0.000    0.000    0.000    0.000    0.000 
#    0.000    0.000    0.000    4.500    0.000   25.750 
#
# Total GULP energy -267401.564584 kJ/mol
# GULP energy per Si atom -5570.865929 kJ/mol
# Density = 1.687404 g / cm^3
# Si number density = 16.912531 Si / 1000 Ang^3
#
#
#
# Elastic Constant Matrix: (Units=GPa)
#
#
# Indices 1 2 3 4 5 6 
#
# 1 90.2107 29.0925 22.0197 0.0000 0.0000 0.0000
# 2 29.0925 90.2107 22.0197 0.0000 0.0000 0.0000
# 3 22.0197 22.0197 111.4015 0.0000 0.0000 0.0000
# 4 0.0000 0.0000 0.0000 21.9147 0.0000 0.0000
# 5 0.0000 0.0000 0.0000 0.0000 21.9147 0.0000
# 6 0.0000 0.0000 0.0000 0.0000 0.0000 30.5591
#
#
#
# Elastic Compliance Matrix: (Units=1/GPa)
#
#
# Indices 1 2 3 4 5 6 
#
# 1 0.012702 -0.003660 -0.001787 0.000000 0.000000 0.000000
# 2 -0.003660 0.012702 -0.001787 0.000000 0.000000 0.000000
# 3 -0.001787 -0.001787 0.009683 0.000000 0.000000 0.000000
# 4 0.000000 0.000000 0.000000 0.045631 0.000000 0.000000
# 5 0.000000 0.000000 0.000000 0.000000 0.045631 0.000000
# 6 0.000000 0.000000 0.000000 0.000000 0.000000 0.032723
#
#
# Mechanical properties :
#
#
# Convention : Reuss Voigt Hill
#
# Bulk Modulus (GPa) = 48.50195 48.67631 48.58913
# Shear Modulus (GPa) = 27.71402 29.45712 28.58557
#
# Velocity S-wave (km/s) = 4.05244 4.17794 4.11567
# Velocity P-wave (km/s) = 7.11595 7.21923 7.16777
#
# Compressibility (1/GPa) = 0.02061773
#
# Stress axis : x y z
#
# Youngs Moduli (GPa) = 78.72943 78.72943 103.27320
#
# Poissons Ratio (x) = 0.28815 0.18457
# Poissons Ratio (y) = 0.28815 0.18457
# Poissons Ratio (z) = 0.14070 0.14070
#
# Static dielectric constant tensor:
#      x y z
#    x 1.654330 0.000000 0.000000 
#    y 0.000000 1.654330 0.000000 
#    z 0.000000 0.000000 1.564080 
# 
# From -- ./inp_files/1077.got.cif
#   From: 2010.05.17/outbox.cif.g08.bks.cpg/sg178_1_cif.got.tgz:1077.got - 2010.05.20 11:30:59.
