data_PCOD9582980
_publ_section_title
;
Structure prediction by ZEFSAII (Michael W. Deem and Ramdas Pophale) SiO2 
 PCOD9582980
Probable space group: P 61 2 2
;
_chemical_formula_sum "Si O2"
_cell_formula_units_Z 48
_cell_length_a 14.396529
_cell_length_b 14.396529
_cell_length_c 13.422919
_cell_angle_alpha 90.000000
_cell_angle_beta 90.000000
_cell_angle_gamma 120.000000
_cell_volume 2409.312834
_symmetry_space_group_name_H-M "P 61 2 2"
_symmetry_group_IT_number 178
_symmetry_cell_setting 'hexagonal'
loop_
_space_group_symop_operation_xyz
x,y,z
x-y,x,1/6+z
-y,x-y,1/3+z
-x,-y,1/2+z
-x+y,-x,2/3+z
y,-x+y,5/6+z
x-y,-y,-z
-x,-x+y,2/3-z
y,x,1/3-z
-y,-x,5/6-z
-x+y,y,1/2-z
x,x-y,1/6-z
loop_
_atom_site_type_symbol
_atom_site_label
_atom_site_fract_x
_atom_site_fract_y
_atom_site_fract_z
Si Si1 0.635368 0.684942 0.276739
Si Si2 0.540673 0.968294 0.615115
Si Si3 0.587105 0.869320 0.238707
Si Si4 0.707551 0.415101 0.250000
Si Si5 0.535046 0.267523 0.083334
O O1 0.665250 0.665250 0.166667
O O2 0.525234 0.577654 0.306514
O O3 0.613277 0.781943 0.280797
O O4 0.725375 0.688438 0.347867
O O5 0.533796 0.853390 0.623976
O O6 0.560837 0.000000 0.500000
O O7 0.629895 0.067112 0.677606
O O8 0.493589 0.806404 0.155673
O O9 0.611758 0.342469 0.173572
#
# Coordination Sequence:
#
# PCOD9582980 Si02
#       5
#    12  12  12   6   6
#     4  11  22  43  66 103 135 185 235 295 359 434
#     4  11  27  42  66  99 146 188 234 296 369 441
#     4  12  25  44  69 104 143 183 247 298 359 447
#     4  12  26  44  75 104 151 190 248 306 364 472
#     4  12  28  44  67 108 141 200 244 304 386 440
#
# _framework density 19.922692999999999
#
# number of rings (size 3 to 8) (size 9 to 14) (size 15 to 20)
#    0.000    0.500    5.000    2.250   14.000    0.000 
#    0.000    0.000    0.000    0.000   13.000    0.000 
#    0.000    0.000    0.000    0.000    0.000    0.000 
#
# Total GULP energy -268626.955688 kJ/mol
# GULP energy per Si atom -5596.394910 kJ/mol
# Density = 1.987735 g / cm^3
# Si number density = 19.922693 Si / 1000 Ang^3
#
#
#
# Elastic Constant Matrix: (Units=GPa)
#
#
# Indices 1 2 3 4 5 6 
#
# 1 148.0888 84.1082 58.1641 0.0000 0.0000 0.0000
# 2 84.1082 148.0888 58.1641 0.0000 0.0000 0.0000
# 3 58.1641 58.1641 109.4592 0.0000 0.0000 0.0000
# 4 0.0000 0.0000 0.0000 38.1080 0.0000 0.0000
# 5 0.0000 0.0000 0.0000 0.0000 38.1080 0.0000
# 6 0.0000 0.0000 0.0000 0.0000 0.0000 31.9903
#
#
#
# Elastic Compliance Matrix: (Units=1/GPa)
#
#
# Indices 1 2 3 4 5 6 
#
# 1 0.010749 -0.004880 -0.003119 0.000000 0.000000 0.000000
# 2 -0.004880 0.010749 -0.003119 0.000000 0.000000 0.000000
# 3 -0.003119 -0.003119 0.012450 0.000000 0.000000 0.000000
# 4 0.000000 0.000000 0.000000 0.026241 0.000000 0.000000
# 5 0.000000 0.000000 0.000000 0.000000 0.026241 0.000000
# 6 0.000000 0.000000 0.000000 0.000000 0.000000 0.031259
#
#
# Mechanical properties :
#
#
# Convention : Reuss Voigt Hill
#
# Bulk Modulus (GPa) = 85.37058 89.61218 87.49138
# Shear Modulus (GPa) = 34.76301 35.32130 35.04216
#
# Velocity S-wave (km/s) = 4.18173 4.21517 4.19848
# Velocity P-wave (km/s) = 8.14001 8.29264 8.21668
#
# Compressibility (1/GPa) = 0.01171364
#
# Stress axis : x y z
#
# Youngs Moduli (GPa) = 93.02811 93.02811 80.31963
#
# Poissons Ratio (x) = 0.45401 0.25049
# Poissons Ratio (y) = 0.45401 0.25049
# Poissons Ratio (z) = 0.29013 0.29013
#
# Static dielectric constant tensor:
#      x y z
#    x 1.710780 0.000000 0.000000 
#    y 0.000000 1.710780 0.000000 
#    z 0.000000 0.000000 1.778230 
# 
# From -- ./inp_files/5516.got.cif
#   From: 2010.05.17/outbox.cif.g08.bks.cpg/sg178_3_cif.got.tgz:5516.got - 2010.05.20 11:30:59.
