data_PCOD9582843
_publ_section_title
;
Structure prediction by ZEFSAII (Michael W. Deem and Ramdas Pophale) SiO2 
 PCOD9582843
Probable space group: P 61 2 2
;
_chemical_formula_sum "Si O2"
_cell_formula_units_Z 72
_cell_length_a 13.953228
_cell_length_b 13.953228
_cell_length_c 20.046382
_cell_angle_alpha 90.000000
_cell_angle_beta 90.000000
_cell_angle_gamma 120.000000
_cell_volume 3379.994668
_symmetry_space_group_name_H-M "P 61 2 2"
_symmetry_group_IT_number 178
_symmetry_cell_setting 'hexagonal'
loop_
_space_group_symop_operation_xyz
x,y,z
x-y,x,1/6+z
-y,x-y,1/3+z
-x,-y,1/2+z
-x+y,-x,2/3+z
y,-x+y,5/6+z
x-y,-y,-z
-x,-x+y,2/3-z
y,x,1/3-z
-y,-x,5/6-z
-x+y,y,1/2-z
x,x-y,1/6-z
loop_
_atom_site_type_symbol
_atom_site_label
_atom_site_fract_x
_atom_site_fract_y
_atom_site_fract_z
Si Si1 0.216209 0.569609 0.890926
Si Si2 0.473367 0.918360 0.442946
Si Si3 0.201735 0.124344 0.008827
Si Si4 0.115029 0.644285 0.529625
Si Si5 0.234215 0.892602 0.109017
Si Si6 0.353553 0.481406 0.471830
O O1 0.329043 0.670958 0.916667
O O2 0.186982 0.614798 0.825059
O O3 0.242623 0.471910 0.872793
O O4 0.134263 0.530111 0.954237
O O5 0.396183 0.887149 0.379042
O O6 0.596066 0.956828 0.416015
O O7 0.471974 0.000000 0.500000
O O8 0.242046 0.121023 0.083334
O O9 0.198037 0.237778 0.008333
O O10 0.287839 0.130431 0.955065
O O11 0.093564 0.000000 0.000000
O O12 0.114115 0.557058 0.583334
O O13 0.992978 0.626713 0.539220
O O14 0.215353 0.776222 0.135983
O O15 0.427536 0.572465 0.416667
#
# Coordination Sequence:
#
# PCOD9582843 Si02
#       6
#    12  12  12  12  12  12
#     4  11  23  40  62  88 125 168 210 265 326 389
#     4  12  23  39  61  92 126 167 207 266 331 395
#     4   9  20  39  58  94 129 158 201 266 330 400
#     4  10  23  41  62  85 126 165 212 264 322 388
#     4  11  23  35  66  90 126 167 210 260 332 392
#     4  11  24  39  60  95 128 167 225 269 319 397
#
# _framework density 21.30181
#
# number of rings (size 3 to 8) (size 9 to 14) (size 15 to 20)
#    0.000    1.333    1.667    5.000    7.000    3.333 
#    0.000    0.000    0.000    7.000    0.000    0.000 
#    0.000    0.000    0.000    0.000    0.000    0.000 
#
# Total GULP energy -401370.789014 kJ/mol
# GULP energy per Si atom -5574.594292 kJ/mol
# Density = 2.125333 g / cm^3
# Si number density = 21.301810 Si / 1000 Ang^3
#
#
#
# Elastic Constant Matrix: (Units=GPa)
#
#
# Indices 1 2 3 4 5 6 
#
# 1 68.2715 11.8392 21.6615 0.0000 0.0000 0.0000
# 2 11.8392 68.2715 21.6615 0.0000 0.0000 0.0000
# 3 21.6615 21.6615 139.3374 0.0000 0.0000 0.0000
# 4 0.0000 0.0000 0.0000 24.3651 0.0000 0.0000
# 5 0.0000 0.0000 0.0000 0.0000 24.3651 0.0000
# 6 0.0000 0.0000 0.0000 0.0000 0.0000 28.2161
#
#
#
# Elastic Compliance Matrix: (Units=1/GPa)
#
#
# Indices 1 2 3 4 5 6 
#
# 1 0.015674 -0.002046 -0.002119 0.000000 0.000000 0.000000
# 2 -0.002046 0.015674 -0.002119 0.000000 0.000000 0.000000
# 3 -0.002119 -0.002119 0.007836 0.000000 0.000000 0.000000
# 4 0.000000 0.000000 0.000000 0.041042 0.000000 0.000000
# 5 0.000000 0.000000 0.000000 0.000000 0.041042 0.000000
# 6 0.000000 0.000000 0.000000 0.000000 0.000000 0.035441
#
#
# Mechanical properties :
#
#
# Convention : Reuss Voigt Hill
#
# Bulk Modulus (GPa) = 37.56888 42.91164 40.24026
# Shear Modulus (GPa) = 28.06637 30.10380 29.08509
#
# Velocity S-wave (km/s) = 3.63376 3.76334 3.69911
# Velocity P-wave (km/s) = 5.93973 6.25076 6.09722
#
# Compressibility (1/GPa) = 0.02661777
#
# Stress axis : x y z
#
# Youngs Moduli (GPa) = 63.79821 63.79821 127.62309
#
# Poissons Ratio (x) = 0.13053 0.27039
# Poissons Ratio (y) = 0.13053 0.27039
# Poissons Ratio (z) = 0.13517 0.13517
#
# Static dielectric constant tensor:
#      x y z
#    x 1.896880 0.000000 0.000000 
#    y 0.000000 1.896880 0.000000 
#    z 0.000000 0.000000 1.790750 
# 
# From -- ./inp_files/6787.got.cif
#   From: 2010.05.17/outbox.cif.g08.bks.cpg/sg178_4_cif.got.tgz:6787.got - 2010.05.20 11:30:59.
