data_PCOD9582493
_publ_section_title
;
Structure prediction by ZEFSAII (Michael W. Deem and Ramdas Pophale) SiO2 
 PCOD9582493
Probable space group: P 61 2 2
;
_chemical_formula_sum "Si O2"
_cell_formula_units_Z 54
_cell_length_a 15.478527
_cell_length_b 15.478527
_cell_length_c 12.403867
_cell_angle_alpha 90.000000
_cell_angle_beta 90.000000
_cell_angle_gamma 120.000000
_cell_volume 2573.635217
_symmetry_space_group_name_H-M "P 61 2 2"
_symmetry_group_IT_number 178
_symmetry_cell_setting 'hexagonal'
loop_
_space_group_symop_operation_xyz
x,y,z
x-y,x,1/6+z
-y,x-y,1/3+z
-x,-y,1/2+z
-x+y,-x,2/3+z
y,-x+y,5/6+z
x-y,-y,-z
-x,-x+y,2/3-z
y,x,1/3-z
-y,-x,5/6-z
-x+y,y,1/2-z
x,x-y,1/6-z
loop_
_atom_site_type_symbol
_atom_site_label
_atom_site_fract_x
_atom_site_fract_y
_atom_site_fract_z
Si Si1 0.550519 0.409696 0.762641
Si Si2 0.302205 0.071007 0.659974
Si Si3 0.228942 0.771059 0.916667
Si Si4 0.163193 0.792385 0.142767
Si Si5 0.510722 0.092858 0.634902
O O1 0.662674 0.468761 0.801779
O O2 0.471920 0.299899 0.804588
O O3 0.501747 0.478383 0.789888
O O4 0.571950 0.418286 0.634251
O O5 0.266822 0.133411 0.583334
O O6 0.331965 0.114453 0.779098
O O7 0.408046 0.092321 0.614415
O O8 0.237479 0.952601 0.674527
O O9 0.180710 0.792574 0.811145
O O10 0.564100 0.128199 0.750000
#
# Coordination Sequence:
#
# PCOD9582493 Si02
#       5
#    12  12   6  12  12
#     4  10  21  39  57  87 132 171 216 267 318 392
#     4  11  21  41  67  95 130 168 226 281 339 409
#     4  12  24  40  62  90 144 180 226 278 328 406
#     4  11  24  42  65  99 129 176 227 279 346 410
#     4  10  19  36  62  87 122 168 217 264 322 387
#
# _framework density 20.981992999999999
#
# number of rings (size 3 to 8) (size 9 to 14) (size 15 to 20)
#    0.000    1.333    2.222    5.333    0.000    2.667 
#   10.000    0.000    0.000    0.000   14.444    0.000 
#    0.000    0.000    0.000    0.000    0.000    0.000 
#
# Total GULP energy -300913.564126 kJ/mol
# GULP energy per Si atom -5572.473410 kJ/mol
# Density = 2.093424 g / cm^3
# Si number density = 20.981993 Si / 1000 Ang^3
#
#
#
# Elastic Constant Matrix: (Units=GPa)
#
#
# Indices 1 2 3 4 5 6 
#
# 1 49.4112 18.9149 0.3342 0.0000 0.0000 0.0000
# 2 18.9149 49.4112 0.3342 0.0000 0.0000 0.0000
# 3 0.3342 0.3342 133.8620 0.0000 0.0000 0.0000
# 4 0.0000 0.0000 0.0000 27.3404 0.0000 0.0000
# 5 0.0000 0.0000 0.0000 0.0000 27.3404 0.0000
# 6 0.0000 0.0000 0.0000 0.0000 0.0000 15.2481
#
#
#
# Elastic Compliance Matrix: (Units=1/GPa)
#
#
# Indices 1 2 3 4 5 6 
#
# 1 0.023713 -0.009077 -0.000037 0.000000 0.000000 0.000000
# 2 -0.009077 0.023713 -0.000037 0.000000 0.000000 0.000000
# 3 -0.000037 -0.000037 0.007471 0.000000 0.000000 0.000000
# 4 0.000000 0.000000 0.000000 0.036576 0.000000 0.000000
# 5 0.000000 0.000000 0.000000 0.000000 0.036576 0.000000
# 6 0.000000 0.000000 0.000000 0.000000 0.000000 0.065582
#
#
# Mechanical properties :
#
#
# Convention : Reuss Voigt Hill
#
# Bulk Modulus (GPa) = 27.32502 30.20568 28.76535
# Shear Modulus (GPa) = 22.30839 28.19253 25.25046
#
# Velocity S-wave (km/s) = 3.26424 3.66956 3.47282
# Velocity P-wave (km/s) = 5.22095 5.69048 5.46076
#
# Compressibility (1/GPa) = 0.03659650
#
# Stress axis : x y z
#
# Youngs Moduli (GPa) = 42.17011 42.17011 133.85874
#
# Poissons Ratio (x) = 0.38280 0.00489
# Poissons Ratio (y) = 0.38280 0.00489
# Poissons Ratio (z) = 0.00154 0.00154
#
# Static dielectric constant tensor:
#      x y z
#    x 1.689830 0.000000 0.000000 
#    y 0.000000 1.689830 0.000000 
#    z 0.000000 0.000000 1.800950 
# 
# From -- ./inp_files/5547.got.cif
#   From: 2010.05.17/outbox.cif.g08.bks.cpg/sg178_3_cif.got.tgz:5547.got - 2010.05.20 11:30:59.
