data_PCOD9582741
_publ_section_title
;
Structure prediction by ZEFSAII (Michael W. Deem and Ramdas Pophale) SiO2 
 PCOD9582741
Probable space group: P 61 2 2
;
_chemical_formula_sum "Si O2"
_cell_formula_units_Z 54
_cell_length_a 24.807955
_cell_length_b 24.807955
_cell_length_c 5.198579
_cell_angle_alpha 90.000000
_cell_angle_beta 90.000000
_cell_angle_gamma 120.000000
_cell_volume 2770.749163
_symmetry_space_group_name_H-M "P 61 2 2"
_symmetry_group_IT_number 178
_symmetry_cell_setting 'hexagonal'
loop_
_space_group_symop_operation_xyz
x,y,z
x-y,x,1/6+z
-y,x-y,1/3+z
-x,-y,1/2+z
-x+y,-x,2/3+z
y,-x+y,5/6+z
x-y,-y,-z
-x,-x+y,2/3-z
y,x,1/3-z
-y,-x,5/6-z
-x+y,y,1/2-z
x,x-y,1/6-z
loop_
_atom_site_type_symbol
_atom_site_label
_atom_site_fract_x
_atom_site_fract_y
_atom_site_fract_z
Si Si1 0.791542 0.135702 0.671798
Si Si2 0.480330 0.183536 0.944159
Si Si3 0.400041 0.902655 0.649315
Si Si4 0.000000 0.299925 0.333334
Si Si5 0.190598 0.595299 0.583334
Si Si6 0.371204 0.000000 0.500000
O O1 0.827923 0.172078 0.416667
O O2 0.735725 0.151654 0.719334
O O3 0.760995 0.062670 0.599506
O O4 0.837316 0.162685 0.916667
O O5 0.550499 0.217294 0.827564
O O6 0.477131 0.238566 0.083334
O O7 0.477098 0.130662 0.136296
O O8 0.471062 0.942124 0.750000
O O9 0.405110 0.850934 0.486294
O O10 0.382314 0.942327 0.464252
O O11 0.984831 0.328693 0.582741
#
# Coordination Sequence:
#
# PCOD9582741 Si02
#       6
#    12  12  12   6   6   6
#     4  11  24  41  66  94 124 166 204 255 316 367
#     4  10  22  39  61  80 109 150 202 256 325 390
#     4  10  23  38  55  84 111 151 195 251 323 386
#     4  12  24  41  64  96 126 160 212 251 300 386
#     4  10  22  38  58  76 110 148 196 260 320 390
#     4  12  24  37  60  88 122 156 196 257 306 376
#
# _framework density 19.489312999999999
#
# number of rings (size 3 to 8) (size 9 to 14) (size 15 to 20)
#    0.000    1.333    2.222    2.667   14.000    0.000 
#    0.000    0.000   24.444    0.000    0.000    0.000 
#    0.000    0.000    0.000    2.000    0.000    1.778 
#
# Total GULP energy -300695.845829 kJ/mol
# GULP energy per Si atom -5568.441589 kJ/mol
# Density = 1.944495 g / cm^3
# Si number density = 19.489313 Si / 1000 Ang^3
#
#
#
# Elastic Constant Matrix: (Units=GPa)
#
#
# Indices 1 2 3 4 5 6 
#
# 1 83.7312 56.6939 28.0429 0.0000 0.0000 0.0000
# 2 56.6939 83.7312 28.0429 0.0000 0.0000 0.0000
# 3 28.0429 28.0429 98.5151 0.0000 0.0000 0.0000
# 4 0.0000 0.0000 0.0000 27.4042 0.0000 0.0000
# 5 0.0000 0.0000 0.0000 0.0000 27.4042 0.0000
# 6 0.0000 0.0000 0.0000 0.0000 0.0000 13.5187
#
#
#
# Elastic Compliance Matrix: (Units=1/GPa)
#
#
# Indices 1 2 3 4 5 6 
#
# 1 0.022510 -0.014476 -0.002287 0.000000 0.000000 0.000000
# 2 -0.014476 0.022510 -0.002287 0.000000 0.000000 0.000000
# 3 -0.002287 -0.002287 0.011453 0.000000 0.000000 0.000000
# 4 0.000000 0.000000 0.000000 0.036491 0.000000 0.000000
# 5 0.000000 0.000000 0.000000 0.000000 0.036491 0.000000
# 6 0.000000 0.000000 0.000000 0.000000 0.000000 0.073972
#
#
# Mechanical properties :
#
#
# Convention : Reuss Voigt Hill
#
# Bulk Modulus (GPa) = 54.42552 54.61521 54.52036
# Shear Modulus (GPa) = 20.18970 23.87860 22.03415
#
# Velocity S-wave (km/s) = 3.22209 3.50410 3.36605
# Velocity P-wave (km/s) = 6.46753 6.66751 6.56828
#
# Compressibility (1/GPa) = 0.01837373
#
# Stress axis : x y z
#
# Youngs Moduli (GPa) = 44.42409 44.42409 87.31474
#
# Poissons Ratio (x) = 0.64307 0.19970
# Poissons Ratio (y) = 0.64307 0.19970
# Poissons Ratio (z) = 0.10160 0.10160
#
# Static dielectric constant tensor:
#      x y z
#    x 1.749890 0.000000 0.000000 
#    y 0.000000 1.749890 0.000000 
#    z 0.000000 0.000000 1.824420 
# 
# From -- ./inp_files/1237.got.cif
#   From: 2010.05.17/outbox.cif.g08.bks.cpg/sg178_1_cif.got.tgz:1237.got - 2010.05.20 11:30:59.
