data_PCOD9582197
_publ_section_title
;
Structure prediction by ZEFSAII (Michael W. Deem and Ramdas Pophale) SiO2 
 PCOD9582197
Probable space group: P 6 2 2
;
_chemical_formula_sum "Si O2"
_cell_formula_units_Z 54
_cell_length_a 20.043219
_cell_length_b 20.043219
_cell_length_c 9.726909
_cell_angle_alpha 90.000000
_cell_angle_beta 90.000000
_cell_angle_gamma 120.000000
_cell_volume 3384.078495
_symmetry_space_group_name_H-M "P 6 2 2"
_symmetry_group_IT_number 177
_symmetry_cell_setting 'hexagonal'
loop_
_space_group_symop_operation_xyz
x,y,z
x-y,x,z
-y,x-y,z
-x,-y,z
-x+y,-x,z
y,-x+y,z
x-y,-y,-z
-x,-x+y,-z
y,x,-z
-y,-x,-z
-x+y,y,-z
x,x-y,-z
loop_
_atom_site_type_symbol
_atom_site_label
_atom_site_fract_x
_atom_site_fract_y
_atom_site_fract_z
Si Si1 0.586663 0.567197 0.159812
Si Si2 0.283250 0.716751 0.000000
Si Si3 0.588651 0.660399 0.402709
Si Si4 0.497854 0.804749 0.266099
Si Si5 0.803904 0.607809 0.500000
Si Si6 0.588447 0.411553 0.500000
O O1 0.500000 0.500000 0.192843
O O2 0.601657 0.640173 0.250459
O O3 0.641806 0.533295 0.205144
O O4 0.587274 0.587274 0.000000
O O5 0.249245 0.624623 0.000000
O O6 0.267776 0.747453 0.860422
O O7 0.611460 0.611460 0.500000
O O8 0.639934 0.749758 0.446296
O O9 0.498040 0.626344 0.437467
O O10 0.558148 0.801473 0.368280
O O11 0.424747 0.783058 0.366559
#
# Coordination Sequence:
#
# PCOD9582197 Si02
#       6
#    12   6  12  12   6   6
#     4  11  22  32  56  76  95 130 172 226 263 308
#     4  10  28  36  44  62 105 144 160 220 272 333
#     4  11  18  36  51  77  98 123 172 213 265 312
#     4  11  23  37  50  76  96 132 174 219 271 319
#     4  10  24  32  57  72  97 132 159 226 263 318
#     4  10  19  32  61  70  89 124 176 226 252 312
#
# _framework density 15.957077999999999
#
# number of rings (size 3 to 8) (size 9 to 14) (size 15 to 20)
#    0.222    1.111    6.667    0.333   12.444    0.000 
#    0.000    1.111    0.000    0.000    0.000    0.000 
#    0.000    0.000    0.000    0.333    0.000    0.000 
#
# Total GULP energy -300748.995352 kJ/mol
# GULP energy per Si atom -5569.425840 kJ/mol
# Density = 1.592076 g / cm^3
# Si number density = 15.957078 Si / 1000 Ang^3
#
#
#
# Elastic Constant Matrix: (Units=GPa)
#
#
# Indices 1 2 3 4 5 6 
#
# 1 15.7691 21.7230 25.6326 0.0000 0.0000 0.0000
# 2 21.7230 15.7691 25.6326 0.0000 0.0000 0.0000
# 3 25.6326 25.6326 119.5178 0.0000 0.0000 0.0000
# 4 0.0000 0.0000 0.0000 17.8494 0.0000 0.0000
# 5 0.0000 0.0000 0.0000 0.0000 17.8494 0.0000
# 6 0.0000 0.0000 0.0000 0.0000 0.0000 -2.9770
#
#
#
# Elastic Compliance Matrix: (Units=1/GPa)
#
#
# Indices 1 2 3 4 5 6 
#
# 1 -0.065109 0.102848 -0.008094 0.000000 0.000000 0.000000
# 2 0.102848 -0.065109 -0.008094 0.000000 0.000000 0.000000
# 3 -0.008094 -0.008094 0.011839 0.000000 0.000000 0.000000
# 4 0.000000 0.000000 0.000000 0.056024 0.000000 0.000000
# 5 0.000000 0.000000 0.000000 0.000000 0.056024 0.000000
# 6 0.000000 0.000000 0.000000 0.000000 0.000000 -0.335913
#
#
# Mechanical properties :
#
#
# Convention : Reuss Voigt Hill
#
# Bulk Modulus (GPa) = 18.20094 33.00358 25.60226
# Shear Modulus (GPa) = -10.05532 11.74888 0.84678
#
# Velocity S-wave (km/s) = -2.51300 2.71639 0.72926
# Velocity P-wave (km/s) = 1.73515 5.52865 4.09736
#
# Compressibility (1/GPa) = 0.05494222
#
# Stress axis : x y z
#
# Youngs Moduli (GPa) = -15.35897 -15.35897 84.46890
#
# Poissons Ratio (x) = 1.57964 0.68368
# Poissons Ratio (y) = 1.57964 0.68368
# Poissons Ratio (z) = -0.12431 -0.12431
#
# Static dielectric constant tensor:
#      x y z
#    x 1.575660 0.000000 0.000000 
#    y 0.000000 1.575660 0.000000 
#    z 0.000000 0.000000 1.627440 
# 
# From -- ./inp_files/1363.got.cif
#   From: 2010.05.17/outbox.cif.g08.bks.cpg/sg177_1_cif.got.tgz:1363.got - 2010.05.20 11:28:44.
