data_PCOD9582388
_publ_section_title
;
Structure prediction by ZEFSAII (Michael W. Deem and Ramdas Pophale) SiO2 
 PCOD9582388
Probable space group: P 61 2 2
;
_chemical_formula_sum "Si O2"
_cell_formula_units_Z 66
_cell_length_a 18.300163
_cell_length_b 18.300163
_cell_length_c 15.562388
_cell_angle_alpha 90.000000
_cell_angle_beta 90.000000
_cell_angle_gamma 120.000000
_cell_volume 4513.534710
_symmetry_space_group_name_H-M "P 61 2 2"
_symmetry_group_IT_number 178
_symmetry_cell_setting 'hexagonal'
loop_
_space_group_symop_operation_xyz
x,y,z
x-y,x,1/6+z
-y,x-y,1/3+z
-x,-y,1/2+z
-x+y,-x,2/3+z
y,-x+y,5/6+z
x-y,-y,-z
-x,-x+y,2/3-z
y,x,1/3-z
-y,-x,5/6-z
-x+y,y,1/2-z
x,x-y,1/6-z
loop_
_atom_site_type_symbol
_atom_site_label
_atom_site_fract_x
_atom_site_fract_y
_atom_site_fract_z
Si Si1 0.668556 0.337112 0.750000
Si Si2 0.574479 0.624286 0.249400
Si Si3 0.761241 0.233257 0.122959
Si Si4 0.793532 0.470614 0.632119
Si Si5 0.547078 0.946203 0.583464
Si Si6 0.382999 0.446681 0.918427
O O1 0.568166 0.283862 0.754428
O O2 0.704572 0.399492 0.669146
O O3 0.626190 0.626190 0.166667
O O4 0.571510 0.709592 0.256955
O O5 0.479065 0.546649 0.235866
O O6 0.606030 0.598727 0.334992
O O7 0.744660 0.223242 0.225610
O O8 0.857342 0.290172 0.095821
O O9 0.830483 0.415242 0.583334
O O10 0.854876 0.524922 0.710287
O O11 0.600513 0.000000 0.500000
O O12 0.591618 0.006318 0.664136
O O13 0.453471 0.546530 0.916667
#
# Coordination Sequence:
#
# PCOD9582388 Si02
#       6
#     6  12  12  12  12  12
#     4  10  20  28  42  68  88 124 162 208 250 278
#     4  10  20  34  48  62  92 129 158 207 259 293
#     4  11  20  34  47  69  94 124 164 220 249 288
#     4  10  18  32  45  59  97 122 153 210 260 284
#     4  10  18  31  47  64  88 128 159 196 256 308
#     4  10  20  33  48  69  92 122 168 208 247 301
#
# _framework density 14.622687000000001
#
# number of rings (size 3 to 8) (size 9 to 14) (size 15 to 20)
#    0.000    1.818    6.364    0.545    2.545    2.182 
#    3.273    0.000    0.000    0.000    0.000    0.000 
#    0.000    0.000    0.000    0.000    0.000   16.364 
#
# Total GULP energy -367488.936047 kJ/mol
# GULP energy per Si atom -5568.014183 kJ/mol
# Density = 1.458940 g / cm^3
# Si number density = 14.622687 Si / 1000 Ang^3
#
#
#
# Elastic Constant Matrix: (Units=GPa)
#
#
# Indices 1 2 3 4 5 6 
#
# 1 54.8083 25.3508 15.2640 0.0000 0.0000 0.0000
# 2 25.3508 54.8083 15.2640 0.0000 0.0000 0.0000
# 3 15.2640 15.2640 77.1936 0.0000 0.0000 0.0000
# 4 0.0000 0.0000 0.0000 10.7965 0.0000 0.0000
# 5 0.0000 0.0000 0.0000 0.0000 10.7965 0.0000
# 6 0.0000 0.0000 0.0000 0.0000 0.0000 14.7288
#
#
#
# Elastic Compliance Matrix: (Units=1/GPa)
#
#
# Indices 1 2 3 4 5 6 
#
# 1 0.023719 -0.010228 -0.002668 0.000000 0.000000 0.000000
# 2 -0.010228 0.023719 -0.002668 0.000000 0.000000 0.000000
# 3 -0.002668 -0.002668 0.014009 0.000000 0.000000 0.000000
# 4 0.000000 0.000000 0.000000 0.092622 0.000000 0.000000
# 5 0.000000 0.000000 0.000000 0.000000 0.092622 0.000000
# 6 0.000000 0.000000 0.000000 0.000000 0.000000 0.067894
#
#
# Mechanical properties :
#
#
# Convention : Reuss Voigt Hill
#
# Bulk Modulus (GPa) = 32.98045 33.17418 33.07731
# Shear Modulus (GPa) = 14.05202 15.99313 15.02258
#
# Velocity S-wave (km/s) = 3.10332 3.31073 3.20870
# Velocity P-wave (km/s) = 5.95349 6.11152 6.03302
#
# Compressibility (1/GPa) = 0.03032100
#
# Stress axis : x y z
#
# Youngs Moduli (GPa) = 42.16003 42.16003 71.38043
#
# Poissons Ratio (x) = 0.43121 0.19042
# Poissons Ratio (y) = 0.43121 0.19042
# Poissons Ratio (z) = 0.11247 0.11247
#
# Static dielectric constant tensor:
#      x y z
#    x 1.511930 0.000000 0.000000 
#    y 0.000000 1.511930 0.000000 
#    z 0.000000 0.000000 1.532930 
# 
# From -- ./inp_files/5914.got.cif
#   From: 2010.05.17/outbox.cif.g08.bks.cpg/sg178_3_cif.got.tgz:5914.got - 2010.05.20 11:30:59.
