data_PCOD9582361
_publ_section_title
;
Structure prediction by ZEFSAII (Michael W. Deem and Ramdas Pophale) SiO2 
 PCOD9582361
Probable space group: P 61 2 2
;
_chemical_formula_sum "Si O2"
_cell_formula_units_Z 96
_cell_length_a 14.676122
_cell_length_b 14.676122
_cell_length_c 26.720604
_cell_angle_alpha 90.000000
_cell_angle_beta 90.000000
_cell_angle_gamma 120.000000
_cell_volume 4984.246690
_symmetry_space_group_name_H-M "P 61 2 2"
_symmetry_group_IT_number 178
_symmetry_cell_setting 'hexagonal'
loop_
_space_group_symop_operation_xyz
x,y,z
x-y,x,1/6+z
-y,x-y,1/3+z
-x,-y,1/2+z
-x+y,-x,2/3+z
y,-x+y,5/6+z
x-y,-y,-z
-x,-x+y,2/3-z
y,x,1/3-z
-y,-x,5/6-z
-x+y,y,1/2-z
x,x-y,1/6-z
loop_
_atom_site_type_symbol
_atom_site_label
_atom_site_fract_x
_atom_site_fract_y
_atom_site_fract_z
Si Si1 0.051795 0.754440 0.525515
Si Si2 0.777660 0.017745 0.361118
Si Si3 0.928057 0.717785 0.872507
Si Si4 0.881178 0.467134 0.139490
Si Si5 0.570440 0.847765 0.752653
Si Si6 0.078627 0.472159 0.184119
Si Si7 0.465012 0.698472 0.310116
Si Si8 0.293714 0.122317 0.383870
O O1 0.117948 0.693976 0.519094
O O2 0.117870 0.855976 0.561165
O O3 0.951930 0.671698 0.558961
O O4 0.994586 0.758416 0.474122
O O5 0.870721 0.109582 0.330234
O O6 0.693747 0.055619 0.373185
O O7 0.796958 0.984207 0.414991
O O8 0.728985 0.919298 0.323513
O O9 0.839627 0.612878 0.898776
O O10 0.000000 0.700490 0.833334
O O11 0.918914 0.459457 0.083334
O O12 0.769430 0.359250 0.141573
O O13 0.968721 0.470642 0.177280
O O14 0.530457 0.882121 0.705266
O O15 0.492866 0.796873 0.798349
O O16 0.171303 0.578202 0.208234
O O17 0.579265 0.757200 0.283502
#
# Coordination Sequence:
#
# PCOD9582361 Si02
#       8
#    12  12  12  12  12  12  12  12
#     4  11  19  29  51  73 108 147 190 239 306 350
#     4  11  19  35  52  76 112 150 197 241 298 369
#     4  11  21  33  51  74 104 155 189 232 294 379
#     4  12  17  27  45  72 106 143 189 242 289 341
#     4  10  17  32  49  69 103 146 191 228 288 359
#     4  11  18  30  52  73 102 153 196 241 294 354
#     4  11  19  27  47  76 103 143 201 242 291 340
#     4  11  17  30  50  76 100 148 188 235 299 363
#
# _framework density 19.260683
#
# number of rings (size 3 to 8) (size 9 to 14) (size 15 to 20)
#    0.000    1.000   11.250    0.750    0.000    0.000 
#    0.000    2.500    0.000    0.000    0.000    0.000 
#    0.000    8.000    0.500    0.750    0.250    0.000 
#
# Total GULP energy -534859.802105 kJ/mol
# GULP energy per Si atom -5571.456272 kJ/mol
# Density = 1.921685 g / cm^3
# Si number density = 19.260683 Si / 1000 Ang^3
#
#
#
# Elastic Constant Matrix: (Units=GPa)
#
#
# Indices 1 2 3 4 5 6 
#
# 1 63.7951 19.9657 12.5678 0.0000 0.0000 0.0000
# 2 19.9657 63.7951 12.5678 0.0000 0.0000 0.0000
# 3 12.5678 12.5678 50.5057 0.0000 0.0000 0.0000
# 4 0.0000 0.0000 0.0000 17.7987 0.0000 0.0000
# 5 0.0000 0.0000 0.0000 0.0000 17.7987 0.0000
# 6 0.0000 0.0000 0.0000 0.0000 0.0000 21.9147
#
#
#
# Elastic Compliance Matrix: (Units=1/GPa)
#
#
# Indices 1 2 3 4 5 6 
#
# 1 0.017859 -0.004957 -0.003211 0.000000 0.000000 0.000000
# 2 -0.004957 0.017859 -0.003211 0.000000 0.000000 0.000000
# 3 -0.003211 -0.003211 0.021398 0.000000 0.000000 0.000000
# 4 0.000000 0.000000 0.000000 0.056184 0.000000 0.000000
# 5 0.000000 0.000000 0.000000 0.000000 0.056184 0.000000
# 6 0.000000 0.000000 0.000000 0.000000 0.000000 0.045631
#
#
# Mechanical properties :
#
#
# Convention : Reuss Voigt Hill
#
# Bulk Modulus (GPa) = 29.10385 29.81093 29.45739
# Shear Modulus (GPa) = 20.05425 20.36873 20.21149
#
# Velocity S-wave (km/s) = 3.23027 3.25550 3.24291
# Velocity P-wave (km/s) = 5.39037 5.44447 5.41749
#
# Compressibility (1/GPa) = 0.03435971
#
# Stress axis : x y z
#
# Youngs Moduli (GPa) = 55.99427 55.99427 46.73427
#
# Poissons Ratio (x) = 0.27755 0.15004
# Poissons Ratio (y) = 0.27755 0.15004
# Poissons Ratio (z) = 0.17977 0.17977
#
# Static dielectric constant tensor:
#      x y z
#    x 1.738600 0.000000 0.000000 
#    y 0.000000 1.738600 0.000000 
#    z 0.000000 0.000000 1.684530 
# 
# From -- ./inp_files/9711.got.cif
#   From: 2010.05.17/outbox.cif.g08.bks.cpg/sg178_5_cif.got.tgz:9711.got - 2010.05.20 11:30:59.
