data_PCOD9582833
_publ_section_title
;
Structure prediction by ZEFSAII (Michael W. Deem and Ramdas Pophale) SiO2 
 PCOD9582833
Probable space group: P 61 2 2
;
_chemical_formula_sum "Si O2"
_cell_formula_units_Z 84
_cell_length_a 18.087812
_cell_length_b 18.087812
_cell_length_c 14.795500
_cell_angle_alpha 90.000000
_cell_angle_beta 90.000000
_cell_angle_gamma 120.000000
_cell_volume 4192.106901
_symmetry_space_group_name_H-M "P 61 2 2"
_symmetry_group_IT_number 178
_symmetry_cell_setting 'hexagonal'
loop_
_space_group_symop_operation_xyz
x,y,z
x-y,x,1/6+z
-y,x-y,1/3+z
-x,-y,1/2+z
-x+y,-x,2/3+z
y,-x+y,5/6+z
x-y,-y,-z
-x,-x+y,2/3-z
y,x,1/3-z
-y,-x,5/6-z
-x+y,y,1/2-z
x,x-y,1/6-z
loop_
_atom_site_type_symbol
_atom_site_label
_atom_site_fract_x
_atom_site_fract_y
_atom_site_fract_z
Si Si1 0.449234 0.593656 0.313865
Si Si2 0.199018 0.862890 0.078165
Si Si3 0.421850 0.348829 0.103192
Si Si4 0.365396 0.360981 0.568426
Si Si5 0.010934 0.290648 0.118700
Si Si6 0.656993 0.475198 0.293508
Si Si7 0.225401 0.706337 0.663559
O O1 0.438370 0.561631 0.416667
O O2 0.377845 0.517815 0.254045
O O3 0.545199 0.622038 0.282284
O O4 0.436241 0.674454 0.312890
O O5 0.100067 0.808906 0.053087
O O6 0.231900 0.803063 0.123447
O O7 0.219171 0.936575 0.152019
O O8 0.260422 0.897152 0.990068
O O9 0.418867 0.418867 0.166667
O O10 0.375538 0.343202 0.008923
O O11 0.325200 0.325200 0.666667
O O12 0.314518 0.301811 0.483170
O O13 0.457516 0.368632 0.573874
O O14 0.743214 0.486428 0.250000
O O15 0.675139 0.493791 0.400094
O O16 0.580603 0.378699 0.281665
#
# Coordination Sequence:
#
# PCOD9582833 Si02
#       7
#    12  12  12  12  12  12  12
#     4  12  23  40  61  89 124 172 231 270 326 383
#     4  11  23  43  66  95 129 169 210 275 337 401
#     4  10  23  38  66  93 127 171 215 275 324 392
#     4  12  25  39  64  87 123 172 228 271 328 389
#     4  11  23  44  65  96 129 167 216 268 333 399
#     4  11  26  41  58  84 127 173 228 273 328 386
#     4  11  24  39  59  87 126 170 223 280 323 384
#
# _framework density 20.037658
#
# number of rings (size 3 to 8) (size 9 to 14) (size 15 to 20)
#    0.000    0.857    4.286    2.143   10.000    0.000 
#    2.571    0.000    0.000    0.000    0.000    0.000 
#    0.000   35.429    0.000    0.000    0.000    0.000 
#
# Total GULP energy -469621.467158 kJ/mol
# GULP energy per Si atom -5590.731752 kJ/mol
# Density = 1.999205 g / cm^3
# Si number density = 20.037658 Si / 1000 Ang^3
#
#
#
# Elastic Constant Matrix: (Units=GPa)
#
#
# Indices 1 2 3 4 5 6 
#
# 1 60.9312 44.3690 22.3438 0.0000 0.0000 0.0000
# 2 44.3690 60.9312 22.3438 0.0000 0.0000 0.0000
# 3 22.3438 22.3438 134.4082 0.0000 0.0000 0.0000
# 4 0.0000 0.0000 0.0000 21.4461 0.0000 0.0000
# 5 0.0000 0.0000 0.0000 0.0000 21.4461 0.0000
# 6 0.0000 0.0000 0.0000 0.0000 0.0000 8.2811
#
#
#
# Elastic Compliance Matrix: (Units=1/GPa)
#
#
# Indices 1 2 3 4 5 6 
#
# 1 0.035298 -0.025081 -0.001699 0.000000 0.000000 0.000000
# 2 -0.025081 0.035298 -0.001699 0.000000 0.000000 0.000000
# 3 -0.001699 -0.001699 0.008005 0.000000 0.000000 0.000000
# 4 0.000000 0.000000 0.000000 0.046628 0.000000 0.000000
# 5 0.000000 0.000000 0.000000 0.000000 0.046628 0.000000
# 6 0.000000 0.000000 0.000000 0.000000 0.000000 0.120757
#
#
# Mechanical properties :
#
#
# Convention : Reuss Voigt Hill
#
# Bulk Modulus (GPa) = 46.19883 48.26487 47.23185
# Shear Modulus (GPa) = 14.01403 21.38226 17.69814
#
# Velocity S-wave (km/s) = 2.64746 3.27020 2.97517
# Velocity P-wave (km/s) = 5.69662 6.19664 5.95188
#
# Compressibility (1/GPa) = 0.02164557
#
# Stress axis : x y z
#
# Youngs Moduli (GPa) = 28.33019 28.33019 124.92581
#
# Poissons Ratio (x) = 0.71054 0.21219
# Poissons Ratio (y) = 0.71054 0.21219
# Poissons Ratio (z) = 0.04812 0.04812
#
# Static dielectric constant tensor:
#      x y z
#    x 1.703380 0.000000 0.000000 
#    y 0.000000 1.703380 0.000000 
#    z 0.000000 0.000000 1.770980 
# 
# From -- ./inp_files/6035.got.cif
#   From: 2010.05.17/outbox.cif.g08.bks.cpg/sg178_4_cif.got.tgz:6035.got - 2010.05.20 11:30:59.
