data_PCOD9582845
_publ_section_title
;
Structure prediction by ZEFSAII (Michael W. Deem and Ramdas Pophale) SiO2 
 PCOD9582845
Probable space group: P 61 2 2
;
_chemical_formula_sum "Si O2"
_cell_formula_units_Z 54
_cell_length_a 12.642497
_cell_length_b 12.642497
_cell_length_c 19.114575
_cell_angle_alpha 90.000000
_cell_angle_beta 90.000000
_cell_angle_gamma 120.000000
_cell_volume 2645.824273
_symmetry_space_group_name_H-M "P 61 2 2"
_symmetry_group_IT_number 178
_symmetry_cell_setting 'hexagonal'
loop_
_space_group_symop_operation_xyz
x,y,z
x-y,x,1/6+z
-y,x-y,1/3+z
-x,-y,1/2+z
-x+y,-x,2/3+z
y,-x+y,5/6+z
x-y,-y,-z
-x,-x+y,2/3-z
y,x,1/3-z
-y,-x,5/6-z
-x+y,y,1/2-z
x,x-y,1/6-z
loop_
_atom_site_type_symbol
_atom_site_label
_atom_site_fract_x
_atom_site_fract_y
_atom_site_fract_z
Si Si1 0.000000 0.947177 0.833334
Si Si2 0.723148 0.991334 0.675798
Si Si3 0.818482 0.415632 0.281403
Si Si4 0.571099 0.833850 0.797135
Si Si5 0.909264 0.431542 0.431173
O O1 0.125102 0.943055 0.833328
O O2 0.998004 0.996007 0.750000
O O3 0.657660 0.948928 0.750054
O O4 0.611505 0.934336 0.620078
O O5 0.795768 0.137785 0.671629
O O6 0.729650 0.459299 0.250000
O O7 0.772710 0.281610 0.251600
O O8 0.823329 0.404968 0.364516
O O9 0.956773 0.499130 0.255717
O O10 0.479763 0.858865 0.841347
#
# Coordination Sequence:
#
# PCOD9582845 Si02
#       5
#     6  12  12  12  12
#     4  12  26  46  74 110 146 186 242 300 372 430
#     4  11  24  41  71 100 139 178 233 299 358 422
#     4  10  23  41  65  96 131 181 231 293 357 422
#     4  11  24  41  65 101 133 180 232 289 356 427
#     4  10  24  42  65  95 137 181 234 288 358 437
#
# _framework density 20.409519
#
# number of rings (size 3 to 8) (size 9 to 14) (size 15 to 20)
#    0.000    1.333    2.222    2.000    6.222    2.667 
#    0.000    3.333    0.000    0.000    0.000    0.000 
#    0.000    0.000    0.000    0.000    0.000    0.000 
#
# Total GULP energy -301397.430283 kJ/mol
# GULP energy per Si atom -5581.433894 kJ/mol
# Density = 2.036307 g / cm^3
# Si number density = 20.409519 Si / 1000 Ang^3
#
#
#
# Elastic Constant Matrix: (Units=GPa)
#
#
# Indices 1 2 3 4 5 6 
#
# 1 92.1344 46.6357 40.6687 0.0000 0.0000 0.0000
# 2 46.6357 92.1344 40.6687 0.0000 0.0000 0.0000
# 3 40.6687 40.6687 111.5141 0.0000 0.0000 0.0000
# 4 0.0000 0.0000 0.0000 35.4295 0.0000 0.0000
# 5 0.0000 0.0000 0.0000 0.0000 35.4295 0.0000
# 6 0.0000 0.0000 0.0000 0.0000 0.0000 22.7493
#
#
#
# Elastic Compliance Matrix: (Units=1/GPa)
#
#
# Indices 1 2 3 4 5 6 
#
# 1 0.015572 -0.006407 -0.003343 0.000000 0.000000 0.000000
# 2 -0.006407 0.015572 -0.003343 0.000000 0.000000 0.000000
# 3 -0.003343 -0.003343 0.011406 0.000000 0.000000 0.000000
# 4 0.000000 0.000000 0.000000 0.028225 0.000000 0.000000
# 5 0.000000 0.000000 0.000000 0.000000 0.028225 0.000000
# 6 0.000000 0.000000 0.000000 0.000000 0.000000 0.043957
#
#
# Mechanical properties :
#
#
# Convention : Reuss Voigt Hill
#
# Bulk Modulus (GPa) = 61.10247 61.30324 61.20285
# Shear Modulus (GPa) = 28.63755 29.90898 29.27327
#
# Velocity S-wave (km/s) = 3.74992 3.83226 3.79132
# Velocity P-wave (km/s) = 6.98230 7.04865 7.01555
#
# Compressibility (1/GPa) = 0.01636595
#
# Stress axis : x y z
#
# Youngs Moduli (GPa) = 64.21779 64.21779 87.67693
#
# Poissons Ratio (x) = 0.41142 0.29307
# Poissons Ratio (y) = 0.41142 0.29307
# Poissons Ratio (z) = 0.21465 0.21465
#
# Static dielectric constant tensor:
#      x y z
#    x 1.723830 0.000000 0.000000 
#    y 0.000000 1.723830 0.000000 
#    z 0.000000 0.000000 2.043940 
# 
# From -- ./inp_files/7411.got.cif
#   From: 2010.05.17/outbox.cif.g08.bks.cpg/sg178_4_cif.got.tgz:7411.got - 2010.05.20 11:30:59.
