data_PCOD9582266
_publ_section_title
;
Structure prediction by ZEFSAII (Michael W. Deem and Ramdas Pophale) SiO2 
 PCOD9582266
Probable space group: P 6 2 2
;
_chemical_formula_sum "Si O2"
_cell_formula_units_Z 60
_cell_length_a 17.694057
_cell_length_b 17.694057
_cell_length_c 12.028353
_cell_angle_alpha 90.000000
_cell_angle_beta 90.000000
_cell_angle_gamma 120.000000
_cell_volume 3261.306685
_symmetry_space_group_name_H-M "P 6 2 2"
_symmetry_group_IT_number 177
_symmetry_cell_setting 'hexagonal'
loop_
_space_group_symop_operation_xyz
x,y,z
x-y,x,z
-y,x-y,z
-x,-y,z
-x+y,-x,z
y,-x+y,z
x-y,-y,-z
-x,-x+y,-z
y,x,-z
-y,-x,-z
-x+y,y,-z
x,x-y,-z
loop_
_atom_site_type_symbol
_atom_site_label
_atom_site_fract_x
_atom_site_fract_y
_atom_site_fract_z
Si Si1 0.844991 0.332878 0.277830
Si Si2 0.825553 0.825553 0.135458
Si Si3 0.372645 0.099995 0.500000
Si Si4 0.844991 0.512113 0.277830
Si Si5 0.000000 0.649480 0.867177
O O1 0.880695 0.313740 0.391662
O O2 0.836999 0.418499 0.289919
O O3 0.751738 0.248262 0.254108
O O4 0.914674 0.346921 0.183349
O O5 0.912407 0.824815 0.172196
O O6 0.737868 0.737868 0.168254
O O7 0.827033 0.827033 0.000000
O O8 0.340318 0.170159 0.500000
O O9 0.433045 0.119305 0.608338
O O10 0.297885 0.000000 0.500000
O O11 0.914673 0.567752 0.183349
O O12 0.000000 0.646160 0.000000
#
# Coordination Sequence:
#
# PCOD9582266 Si02
#       5
#    12  12  12  12  12
#     4  11  23  39  61  88 119 153 194 246 302 358
#     4   9  17  31  52  77 105 138 182 237 292 342
#     4  10  21  39  65  94 121 152 192 242 298 356
#     4  11  23  39  61  88 119 153 194 246 302 358
#     4  11  23  38  57  81 115 161 206 244 289 352
#
# _framework density 18.397532000000002
#
# number of rings (size 3 to 8) (size 9 to 14) (size 15 to 20)
#    0.000    1.600    2.000    3.000    0.000    5.600 
#    0.000    2.000    0.000    2.600    0.000    0.000 
#    0.000    0.000    0.000    0.000    0.000    0.000 
#
# Total GULP energy -335308.853208 kJ/mol
# GULP energy per Si atom -5588.480887 kJ/mol
# Density = 1.835566 g / cm^3
# Si number density = 18.397532 Si / 1000 Ang^3
#
#
#
# Elastic Constant Matrix: (Units=GPa)
#
#
# Indices 1 2 3 4 5 6 
#
# 1 134.4358 117.4833 44.5950 0.0000 0.0000 0.0000
# 2 117.4833 134.4358 44.5950 0.0000 0.0000 0.0000
# 3 44.5950 44.5950 80.6997 0.0000 0.0000 0.0000
# 4 0.0000 0.0000 0.0000 18.6637 0.0000 0.0000
# 5 0.0000 0.0000 0.0000 0.0000 18.6637 0.0000
# 6 0.0000 0.0000 0.0000 0.0000 0.0000 8.4763
#
#
#
# Elastic Compliance Matrix: (Units=1/GPa)
#
#
# Indices 1 2 3 4 5 6 
#
# 1 0.031962 -0.027027 -0.002727 0.000000 0.000000 0.000000
# 2 -0.027027 0.031962 -0.002727 0.000000 0.000000 0.000000
# 3 -0.002727 -0.002727 0.015406 0.000000 0.000000 0.000000
# 4 0.000000 0.000000 0.000000 0.053580 0.000000 0.000000
# 5 0.000000 0.000000 0.000000 0.000000 0.053580 0.000000
# 6 0.000000 0.000000 0.000000 0.000000 0.000000 0.117977
#
#
# Mechanical properties :
#
#
# Convention : Reuss Voigt Hill
#
# Bulk Modulus (GPa) = 69.60277 84.76867 77.18572
# Shear Modulus (GPa) = 13.36126 18.68728 16.02427
#
# Velocity S-wave (km/s) = 2.69783 3.19054 2.95447
# Velocity P-wave (km/s) = 6.90067 7.72974 7.32694
#
# Compressibility (1/GPa) = 0.01436724
#
# Stress axis : x y z
#
# Youngs Moduli (GPa) = 31.28745 31.28745 64.91117
#
# Poissons Ratio (x) = 0.84559 0.17702
# Poissons Ratio (y) = 0.84559 0.17702
# Poissons Ratio (z) = 0.08532 0.08532
#
# Static dielectric constant tensor:
#      x y z
#    x 1.611230 0.000000 0.000000 
#    y 0.000000 1.611230 0.000000 
#    z 0.000000 0.000000 1.623990 
# 
# From -- ./inp_files/1985.got.cif
#   From: 2010.05.17/outbox.cif.g08.bks.cpg/sg177_1_cif.got.tgz:1985.got - 2010.05.20 11:28:44.
