data_PCOD9582651
_publ_section_title
;
Structure prediction by ZEFSAII (Michael W. Deem and Ramdas Pophale) SiO2 
 PCOD9582651
Probable space group: P 61 2 2
;
_chemical_formula_sum "Si O2"
_cell_formula_units_Z 54
_cell_length_a 11.775489
_cell_length_b 11.775489
_cell_length_c 22.459598
_cell_angle_alpha 90.000000
_cell_angle_beta 90.000000
_cell_angle_gamma 120.000000
_cell_volume 2697.059407
_symmetry_space_group_name_H-M "P 61 2 2"
_symmetry_group_IT_number 178
_symmetry_cell_setting 'hexagonal'
loop_
_space_group_symop_operation_xyz
x,y,z
x-y,x,1/6+z
-y,x-y,1/3+z
-x,-y,1/2+z
-x+y,-x,2/3+z
y,-x+y,5/6+z
x-y,-y,-z
-x,-x+y,2/3-z
y,x,1/3-z
-y,-x,5/6-z
-x+y,y,1/2-z
x,x-y,1/6-z
loop_
_atom_site_type_symbol
_atom_site_label
_atom_site_fract_x
_atom_site_fract_y
_atom_site_fract_z
Si Si1 0.361969 0.245794 0.287467
Si Si2 0.224764 0.844252 0.484858
Si Si3 0.178137 0.821864 0.916667
Si Si4 0.024538 0.651018 0.580771
Si Si5 0.366950 0.847839 0.016884
O O1 0.247637 0.269459 0.259676
O O2 0.366532 0.277720 0.356657
O O3 0.495677 0.345477 0.253716
O O4 0.352099 0.111319 0.266582
O O5 0.178103 0.821898 0.416667
O O6 0.112275 0.746860 0.528517
O O7 0.332283 0.799652 0.494831
O O8 0.290946 0.000000 0.500000
O O9 0.210769 0.760263 0.858843
O O10 0.011081 0.505541 0.583334
O O11 0.442979 0.000000 0.000000
#
# Coordination Sequence:
#
# PCOD9582651 Si02
#       5
#    12  12   6  12  12
#     4  11  23  45  68 108 136 179 236 296 355 416
#     4  11  24  46  67  98 140 190 236 283 359 426
#     4  10  20  42  70 102 132 180 232 294 352 414
#     4  12  27  43  70 104 146 186 240 297 358 434
#     4   9  20  39  69  95 133 175 229 285 345 414
#
# _framework density 20.021806999999999
#
# number of rings (size 3 to 8) (size 9 to 14) (size 15 to 20)
#    0.000    1.333    2.222    2.667    1.556    6.222 
#    6.000    0.000    0.000    0.000    0.000    0.000 
#    0.000    0.000    0.000    0.000    0.000    0.000 
#
# Total GULP energy -300978.868680 kJ/mol
# GULP energy per Si atom -5573.682753 kJ/mol
# Density = 1.997624 g / cm^3
# Si number density = 20.021807 Si / 1000 Ang^3
#
#
#
# Elastic Constant Matrix: (Units=GPa)
#
#
# Indices 1 2 3 4 5 6 
#
# 1 92.4143 49.4804 44.9722 0.0000 0.0000 0.0000
# 2 49.4804 92.4143 44.9722 0.0000 0.0000 0.0000
# 3 44.9722 44.9722 167.6080 0.0000 0.0000 0.0000
# 4 0.0000 0.0000 0.0000 24.5884 0.0000 0.0000
# 5 0.0000 0.0000 0.0000 0.0000 24.5884 0.0000
# 6 0.0000 0.0000 0.0000 0.0000 0.0000 21.4670
#
#
#
# Elastic Compliance Matrix: (Units=1/GPa)
#
#
# Indices 1 2 3 4 5 6 
#
# 1 0.015892 -0.007400 -0.002278 0.000000 0.000000 0.000000
# 2 -0.007400 0.015892 -0.002278 0.000000 0.000000 0.000000
# 3 -0.002278 -0.002278 0.007189 0.000000 0.000000 0.000000
# 4 0.000000 0.000000 0.000000 0.040670 0.000000 0.000000
# 5 0.000000 0.000000 0.000000 0.000000 0.040670 0.000000
# 6 0.000000 0.000000 0.000000 0.000000 0.000000 0.046583
#
#
# Mechanical properties :
#
#
# Convention : Reuss Voigt Hill
#
# Bulk Modulus (GPa) = 66.40727 70.14294 68.27511
# Shear Modulus (GPa) = 25.53262 28.32956 26.93109
#
# Velocity S-wave (km/s) = 3.57492 3.76564 3.67152
# Velocity P-wave (km/s) = 7.09081 7.34956 7.22135
#
# Compressibility (1/GPa) = 0.01505859
#
# Stress axis : x y z
#
# Youngs Moduli (GPa) = 62.92599 62.92599 139.10091
#
# Poissons Ratio (x) = 0.46565 0.31694
# Poissons Ratio (y) = 0.46565 0.31694
# Poissons Ratio (z) = 0.14338 0.14338
#
# Static dielectric constant tensor:
#      x y z
#    x 1.725260 0.000000 0.000000 
#    y 0.000000 1.725260 0.000000 
#    z 0.000000 0.000000 1.747990 
# 
# From -- ./inp_files/7373.got.cif
#   From: 2010.05.17/outbox.cif.g08.bks.cpg/sg178_4_cif.got.tgz:7373.got - 2010.05.20 11:30:59.
