data_PCOD9582482
_publ_section_title
;
Structure prediction by ZEFSAII (Michael W. Deem and Ramdas Pophale) SiO2 
 PCOD9582482
Probable space group: P 61 2 2
;
_chemical_formula_sum "Si O2"
_cell_formula_units_Z 48
_cell_length_a 17.282964
_cell_length_b 17.282964
_cell_length_c 10.697532
_cell_angle_alpha 90.000000
_cell_angle_beta 90.000000
_cell_angle_gamma 120.000000
_cell_volume 2767.264531
_symmetry_space_group_name_H-M "P 61 2 2"
_symmetry_group_IT_number 178
_symmetry_cell_setting 'hexagonal'
loop_
_space_group_symop_operation_xyz
x,y,z
x-y,x,1/6+z
-y,x-y,1/3+z
-x,-y,1/2+z
-x+y,-x,2/3+z
y,-x+y,5/6+z
x-y,-y,-z
-x,-x+y,2/3-z
y,x,1/3-z
-y,-x,5/6-z
-x+y,y,1/2-z
x,x-y,1/6-z
loop_
_atom_site_type_symbol
_atom_site_label
_atom_site_fract_x
_atom_site_fract_y
_atom_site_fract_z
Si Si1 0.427736 0.427736 0.666667
Si Si2 0.127638 0.777452 0.287020
Si Si3 0.277755 0.769259 0.166593
Si Si4 0.153595 0.000000 0.500000
Si Si5 0.464762 0.929523 0.250000
Si Si6 0.380248 0.690124 0.583334
O O1 0.327434 0.407483 0.648385
O O2 0.482677 0.468068 0.539059
O O3 0.174752 0.825249 0.416667
O O4 0.197359 0.788687 0.181372
O O5 0.060867 0.814792 0.255813
O O6 0.364140 0.861067 0.206288
O O7 0.271052 0.688119 0.252110
O O8 0.287060 0.731962 0.034064
O O9 0.136748 0.068374 0.583334
#
# Coordination Sequence:
#
# PCOD9582482 Si02
#       6
#     6  12  12   6   6   6
#     4  11  22  34  54  85 114 158 198 245 278 338
#     4  10  19  35  59  84 111 147 188 239 292 336
#     4  10  19  35  54  79 120 159 201 234 274 334
#     4   9  20  38  66  89 102 130 186 245 306 370
#     4  11  22  34  54  80 122 158 200 240 284 323
#     4   9  20  30  54  84 116 174 202 222 262 329
#
# _framework density 17.345649999999999
#
# number of rings (size 3 to 8) (size 9 to 14) (size 15 to 20)
#    0.000    2.000    2.500    1.500    3.500    4.000 
#    0.000    0.000    2.750    0.000    0.000    0.000 
#    0.000    0.000    0.000    0.000    0.000    0.000 
#
# Total GULP energy -267205.534874 kJ/mol
# GULP energy per Si atom -5566.781977 kJ/mol
# Density = 1.730617 g / cm^3
# Si number density = 17.345650 Si / 1000 Ang^3
#
#
#
# Elastic Constant Matrix: (Units=GPa)
#
#
# Indices 1 2 3 4 5 6 
#
# 1 142.3067 11.5994 49.4085 0.0000 0.0000 0.0000
# 2 11.5994 142.3067 49.4085 0.0000 0.0000 0.0000
# 3 49.4085 49.4085 93.3502 0.0000 0.0000 0.0000
# 4 0.0000 0.0000 0.0000 19.5007 0.0000 0.0000
# 5 0.0000 0.0000 0.0000 0.0000 19.5007 0.0000
# 6 0.0000 0.0000 0.0000 0.0000 0.0000 65.3537
#
#
#
# Elastic Compliance Matrix: (Units=1/GPa)
#
#
# Indices 1 2 3 4 5 6 
#
# 1 0.008746 0.001096 -0.005209 0.000000 0.000000 0.000000
# 2 0.001096 0.008746 -0.005209 0.000000 0.000000 0.000000
# 3 -0.005209 -0.005209 0.016227 0.000000 0.000000 0.000000
# 4 0.000000 0.000000 0.000000 0.051280 0.000000 0.000000
# 5 0.000000 0.000000 0.000000 0.000000 0.051280 0.000000
# 6 0.000000 0.000000 0.000000 0.000000 0.000000 0.015301
#
#
# Mechanical properties :
#
#
# Convention : Reuss Voigt Hill
#
# Bulk Modulus (GPa) = 66.33980 66.53294 66.43637
# Shear Modulus (GPa) = 28.53039 38.70747 33.61893
#
# Velocity S-wave (km/s) = 4.06003 4.72904 4.40725
# Velocity P-wave (km/s) = 7.76578 8.26189 8.01767
#
# Compressibility (1/GPa) = 0.01507391
#
# Stress axis : x y z
#
# Youngs Moduli (GPa) = 114.33268 114.33268 61.62689
#
# Poissons Ratio (x) = -0.12528 0.32103
# Poissons Ratio (y) = -0.12528 0.32103
# Poissons Ratio (z) = 0.59559 0.59559
#
# Static dielectric constant tensor:
#      x y z
#    x 1.631770 0.000000 0.000000 
#    y 0.000000 1.631770 0.000000 
#    z 0.000000 0.000000 1.603780 
# 
# From -- ./inp_files/4358.got.cif
#   From: 2010.05.17/outbox.cif.g08.bks.cpg/sg178_3_cif.got.tgz:4358.got - 2010.05.20 11:30:59.
