data_PCOD9582773
_publ_section_title
;
Structure prediction by ZEFSAII (Michael W. Deem and Ramdas Pophale) SiO2 
 PCOD9582773
Probable space group: P 61 2 2
;
_chemical_formula_sum "Si O2"
_cell_formula_units_Z 42
_cell_length_a 13.855381
_cell_length_b 13.855381
_cell_length_c 9.444078
_cell_angle_alpha 90.000000
_cell_angle_beta 90.000000
_cell_angle_gamma 120.000000
_cell_volume 1570.099381
_symmetry_space_group_name_H-M "P 61 2 2"
_symmetry_group_IT_number 178
_symmetry_cell_setting 'hexagonal'
loop_
_space_group_symop_operation_xyz
x,y,z
x-y,x,1/6+z
-y,x-y,1/3+z
-x,-y,1/2+z
-x+y,-x,2/3+z
y,-x+y,5/6+z
x-y,-y,-z
-x,-x+y,2/3-z
y,x,1/3-z
-y,-x,5/6-z
-x+y,y,1/2-z
x,x-y,1/6-z
loop_
_atom_site_type_symbol
_atom_site_label
_atom_site_fract_x
_atom_site_fract_y
_atom_site_fract_z
Si Si1 0.626554 0.599183 0.871592
Si Si2 0.523129 0.729198 0.767520
Si Si3 0.988942 0.175923 0.035239
Si Si4 0.270543 0.541085 0.750000
O O1 0.506422 0.493579 0.916667
O O2 0.599182 0.672875 0.764646
O O3 0.707794 0.700583 0.976682
O O4 0.707253 0.547378 0.850789
O O5 0.401530 0.625882 0.740001
O O6 0.523829 0.757878 0.936025
O O7 0.925108 0.106984 0.175887
O O8 0.902517 0.097484 0.916667
#
# Coordination Sequence:
#
# PCOD9582773 Si02
#       4
#    12  12  12   6
#     4  12  23  39  65 102 137 178 230 276 343 416
#     4  11  24  41  65  99 140 178 227 284 337 419
#     4  10  22  40  69 103 135 178 232 287 345 407
#     4  10  22  42  62  94 140 178 226 274 342 400
#
# _framework density 26.749898000000002
#
# number of rings (size 3 to 8) (size 9 to 14) (size 15 to 20)
#    0.000    1.143    7.143    0.000    2.000    1.143 
#    0.000    0.000    0.000   17.143    0.000    0.000 
#    0.000    0.000    0.000    0.000    0.000    0.000 
#
# Total GULP energy -234684.610685 kJ/mol
# GULP energy per Si atom -5587.728826 kJ/mol
# Density = 2.668901 g / cm^3
# Si number density = 26.749898 Si / 1000 Ang^3
#
#
#
# Elastic Constant Matrix: (Units=GPa)
#
#
# Indices 1 2 3 4 5 6 
#
# 1 207.6324 96.4367 59.0714 0.0000 0.0000 0.0000
# 2 96.4367 207.6324 59.0714 0.0000 0.0000 0.0000
# 3 59.0714 59.0714 74.5940 0.0000 0.0000 0.0000
# 4 0.0000 0.0000 0.0000 43.6081 0.0000 0.0000
# 5 0.0000 0.0000 0.0000 0.0000 43.6081 0.0000
# 6 0.0000 0.0000 0.0000 0.0000 0.0000 55.5979
#
#
#
# Elastic Compliance Matrix: (Units=1/GPa)
#
#
# Indices 1 2 3 4 5 6 
#
# 1 0.006872 -0.002121 -0.003762 0.000000 0.000000 0.000000
# 2 -0.002121 0.006872 -0.003762 0.000000 0.000000 0.000000
# 3 -0.003762 -0.003762 0.019364 0.000000 0.000000 0.000000
# 4 0.000000 0.000000 0.000000 0.022932 0.000000 0.000000
# 5 0.000000 0.000000 0.000000 0.000000 0.022932 0.000000
# 6 0.000000 0.000000 0.000000 0.000000 0.000000 0.017986
#
#
# Mechanical properties :
#
#
# Convention : Reuss Voigt Hill
#
# Bulk Modulus (GPa) = 72.37293 102.11310 87.24302
# Shear Modulus (GPa) = 41.37269 46.91476 44.14372
#
# Velocity S-wave (km/s) = 3.93701 4.19242 4.06672
# Velocity P-wave (km/s) = 6.91237 7.85438 7.39838
#
# Compressibility (1/GPa) = 0.01381732
#
# Stress axis : x y z
#
# Youngs Moduli (GPa) = 145.52339 145.52339 51.64239
#
# Poissons Ratio (x) = 0.30871 0.19427
# Poissons Ratio (y) = 0.30871 0.19427
# Poissons Ratio (z) = 0.54743 0.54743
#
# Static dielectric constant tensor:
#      x y z
#    x 2.144340 0.000000 0.000000 
#    y 0.000000 2.144340 0.000000 
#    z 0.000000 0.000000 2.254910 
# 
# From -- ./inp_files/3913.got.cif
#   From: 2010.05.17/outbox.cif.g08.bks.cpg/sg178_2_cif.got.tgz:3913.got - 2010.05.20 11:30:59.
