data_PCOD9582382
_publ_section_title
;
Structure prediction by ZEFSAII (Michael W. Deem and Ramdas Pophale) SiO2 
 PCOD9582382
Probable space group: P 61 2 2
;
_chemical_formula_sum "Si O2"
_cell_formula_units_Z 72
_cell_length_a 24.004715
_cell_length_b 24.004715
_cell_length_c 7.946638
_cell_angle_alpha 90.000000
_cell_angle_beta 90.000000
_cell_angle_gamma 120.000000
_cell_volume 3965.584145
_symmetry_space_group_name_H-M "P 61 2 2"
_symmetry_group_IT_number 178
_symmetry_cell_setting 'hexagonal'
loop_
_space_group_symop_operation_xyz
x,y,z
x-y,x,1/6+z
-y,x-y,1/3+z
-x,-y,1/2+z
-x+y,-x,2/3+z
y,-x+y,5/6+z
x-y,-y,-z
-x,-x+y,2/3-z
y,x,1/3-z
-y,-x,5/6-z
-x+y,y,1/2-z
x,x-y,1/6-z
loop_
_atom_site_type_symbol
_atom_site_label
_atom_site_fract_x
_atom_site_fract_y
_atom_site_fract_z
Si Si1 0.827458 0.073908 0.040331
Si Si2 0.468990 0.074649 0.453820
Si Si3 0.364345 0.089173 0.651755
Si Si4 0.037503 0.748748 0.998653
Si Si5 0.595628 0.520131 0.717607
Si Si6 0.588540 0.850497 0.490065
O O1 0.817323 0.070712 0.239965
O O2 0.886472 0.113528 0.916667
O O3 0.776073 0.094597 0.982826
O O4 0.800403 0.000000 0.000000
O O5 0.428554 0.099820 0.558378
O O6 0.471418 0.081039 0.251446
O O7 0.542192 0.094621 0.497894
O O8 0.430109 0.000000 0.500000
O O9 0.314643 0.016911 0.730245
O O10 0.380901 0.139055 0.804454
O O11 0.094399 0.737549 0.939506
O O12 0.000000 0.749648 0.833334
O O13 0.566924 0.566924 0.666667
O O14 0.662828 0.537919 0.634022
O O15 0.567146 0.783573 0.583334
#
# Coordination Sequence:
#
# PCOD9582382 Si02
#       6
#    12  12  12  12  12  12
#     4  10  19  32  49  71 101 135 167 202 246 299
#     4  10  18  30  48  70  96 125 156 192 247 306
#     4  10  19  30  48  70  96 131 158 197 247 306
#     4   9  18  31  46  67  97 133 169 204 254 313
#     4  10  20  31  46  68  97 127 158 198 247 302
#     4  11  20  30  44  65  96 129 165 204 247 297
#
# _framework density 18.156213999999999
#
# number of rings (size 3 to 8) (size 9 to 14) (size 15 to 20)
#    0.000    2.000    0.000    7.000    0.000    2.000 
#    0.000    0.000    0.000    0.000    0.000    0.000 
#   25.000   16.000    0.000    0.000    4.000    0.000 
#
# Total GULP energy -400807.280078 kJ/mol
# GULP energy per Si atom -5566.767779 kJ/mol
# Density = 1.811489 g / cm^3
# Si number density = 18.156214 Si / 1000 Ang^3
#
#
#
# Elastic Constant Matrix: (Units=GPa)
#
#
# Indices 1 2 3 4 5 6 
#
# 1 71.2674 44.8098 29.1189 0.0000 0.0000 0.0000
# 2 44.8098 71.2674 29.1189 0.0000 0.0000 0.0000
# 3 29.1189 29.1189 77.9450 0.0000 0.0000 0.0000
# 4 0.0000 0.0000 0.0000 20.1643 0.0000 0.0000
# 5 0.0000 0.0000 0.0000 0.0000 20.1643 0.0000
# 6 0.0000 0.0000 0.0000 0.0000 0.0000 13.2288
#
#
#
# Elastic Compliance Matrix: (Units=1/GPa)
#
#
# Indices 1 2 3 4 5 6 
#
# 1 0.024199 -0.013597 -0.003961 0.000000 0.000000 0.000000
# 2 -0.013597 0.024199 -0.003961 0.000000 0.000000 0.000000
# 3 -0.003961 -0.003961 0.015789 0.000000 0.000000 0.000000
# 4 0.000000 0.000000 0.000000 0.049593 0.000000 0.000000
# 5 0.000000 0.000000 0.000000 0.000000 0.049593 0.000000
# 6 0.000000 0.000000 0.000000 0.000000 0.000000 0.075593
#
#
# Mechanical properties :
#
#
# Convention : Reuss Voigt Hill
#
# Bulk Modulus (GPa) = 47.28112 47.39722 47.33917
# Shear Modulus (GPa) = 17.29790 18.54030 17.91910
#
# Velocity S-wave (km/s) = 3.08997 3.19902 3.14497
# Velocity P-wave (km/s) = 6.23124 6.30927 6.27038
#
# Compressibility (1/GPa) = 0.02115009
#
# Stress axis : x y z
#
# Youngs Moduli (GPa) = 41.32365 41.32365 63.33560
#
# Poissons Ratio (x) = 0.56188 0.25086
# Poissons Ratio (y) = 0.56188 0.25086
# Poissons Ratio (z) = 0.16367 0.16367
#
# Static dielectric constant tensor:
#      x y z
#    x 1.670160 0.000000 0.000000 
#    y 0.000000 1.670160 0.000000 
#    z 0.000000 0.000000 1.626010 
# 
# From -- ./inp_files/3458.got.cif
#   From: 2010.05.17/outbox.cif.g08.bks.cpg/sg178_2_cif.got.tgz:3458.got - 2010.05.20 11:30:59.
