data_PCOD9582407
_publ_section_title
;
Structure prediction by ZEFSAII (Michael W. Deem and Ramdas Pophale) SiO2 
 PCOD9582407
Probable space group: P 61 2 2
;
_chemical_formula_sum "Si O2"
_cell_formula_units_Z 42
_cell_length_a 12.129272
_cell_length_b 12.129272
_cell_length_c 17.573479
_cell_angle_alpha 90.000000
_cell_angle_beta 90.000000
_cell_angle_gamma 120.000000
_cell_volume 2239.019361
_symmetry_space_group_name_H-M "P 61 2 2"
_symmetry_group_IT_number 178
_symmetry_cell_setting 'hexagonal'
loop_
_space_group_symop_operation_xyz
x,y,z
x-y,x,1/6+z
-y,x-y,1/3+z
-x,-y,1/2+z
-x+y,-x,2/3+z
y,-x+y,5/6+z
x-y,-y,-z
-x,-x+y,2/3-z
y,x,1/3-z
-y,-x,5/6-z
-x+y,y,1/2-z
x,x-y,1/6-z
loop_
_atom_site_type_symbol
_atom_site_label
_atom_site_fract_x
_atom_site_fract_y
_atom_site_fract_z
Si Si1 0.282913 0.717088 0.416667
Si Si2 0.224857 0.432772 0.444787
Si Si3 0.933390 0.297970 0.454143
Si Si4 0.186878 0.641640 0.262174
O O1 0.230745 0.567610 0.431452
O O2 0.206633 0.714273 0.341651
O O3 0.293009 0.407105 0.374194
O O4 0.293924 0.451477 0.525159
O O5 0.076941 0.330228 0.448983
O O6 0.836296 0.163705 0.416667
O O7 0.910684 0.401764 0.409359
O O8 0.324677 0.649353 0.250000
#
# Coordination Sequence:
#
# PCOD9582407 Si02
#       4
#     6  12  12  12
#     4  10  18  34  48  78 112 154 184 230 296 358
#     4  11  20  34  53  80 118 147 196 238 299 356
#     4  11  20  34  54  79 117 149 194 245 293 353
#     4   9  18  32  49  73 113 150 186 230 293 351
#
# _framework density 18.758210999999999
#
# number of rings (size 3 to 8) (size 9 to 14) (size 15 to 20)
#    0.000    1.714    8.571    0.857    0.000    6.857 
#    0.000    0.000    0.000    0.000    0.000    0.000 
#   68.571    0.000    0.000    0.000    0.000    0.000 
#
# Total GULP energy -234293.005830 kJ/mol
# GULP energy per Si atom -5578.404901 kJ/mol
# Density = 1.871552 g / cm^3
# Si number density = 18.758211 Si / 1000 Ang^3
#
#
#
# Elastic Constant Matrix: (Units=GPa)
#
#
# Indices 1 2 3 4 5 6 
#
# 1 40.4344 24.6883 12.2457 0.0000 0.0000 0.0000
# 2 24.6883 40.4344 12.2457 0.0000 0.0000 0.0000
# 3 12.2457 12.2457 138.1293 0.0000 0.0000 0.0000
# 4 0.0000 0.0000 0.0000 6.7911 0.0000 0.0000
# 5 0.0000 0.0000 0.0000 0.0000 6.7911 0.0000
# 6 0.0000 0.0000 0.0000 0.0000 0.0000 7.8731
#
#
#
# Elastic Compliance Matrix: (Units=1/GPa)
#
#
# Indices 1 2 3 4 5 6 
#
# 1 0.039696 -0.023811 -0.001408 0.000000 0.000000 0.000000
# 2 -0.023811 0.039696 -0.001408 0.000000 0.000000 0.000000
# 3 -0.001408 -0.001408 0.007489 0.000000 0.000000 0.000000
# 4 0.000000 0.000000 0.000000 0.147252 0.000000 0.000000
# 5 0.000000 0.000000 0.000000 0.000000 0.147252 0.000000
# 6 0.000000 0.000000 0.000000 0.000000 0.000000 0.127015
#
#
# Mechanical properties :
#
#
# Convention : Reuss Voigt Hill
#
# Bulk Modulus (GPa) = 29.73832 35.26195 32.50013
# Shear Modulus (GPa) = 8.72805 15.61228 12.17016
#
# Velocity S-wave (km/s) = 2.15940 2.88807 2.54990
# Velocity P-wave (km/s) = 4.70162 5.47360 5.10223
#
# Compressibility (1/GPa) = 0.03362665
#
# Stress axis : x y z
#
# Youngs Moduli (GPa) = 25.19124 25.19124 133.52397
#
# Poissons Ratio (x) = 0.59983 0.18804
# Poissons Ratio (y) = 0.59983 0.18804
# Poissons Ratio (z) = 0.03548 0.03548
#
# Static dielectric constant tensor:
#      x y z
#    x 1.652400 0.000000 0.000000 
#    y 0.000000 1.652400 0.000000 
#    z 0.000000 0.000000 1.756020 
# 
# From -- ./inp_files/6358.got.cif
#   From: 2010.05.17/outbox.cif.g08.bks.cpg/sg178_4_cif.got.tgz:6358.got - 2010.05.20 11:30:59.
