data_PCOD9582701
_publ_section_title
;
Structure prediction by ZEFSAII (Michael W. Deem and Ramdas Pophale) SiO2 
 PCOD9582701
Probable space group: P 61 2 2
;
_chemical_formula_sum "Si O2"
_cell_formula_units_Z 60
_cell_length_a 18.904739
_cell_length_b 18.904739
_cell_length_c 9.657521
_cell_angle_alpha 90.000000
_cell_angle_beta 90.000000
_cell_angle_gamma 120.000000
_cell_volume 2989.080866
_symmetry_space_group_name_H-M "P 61 2 2"
_symmetry_group_IT_number 178
_symmetry_cell_setting 'hexagonal'
loop_
_space_group_symop_operation_xyz
x,y,z
x-y,x,1/6+z
-y,x-y,1/3+z
-x,-y,1/2+z
-x+y,-x,2/3+z
y,-x+y,5/6+z
x-y,-y,-z
-x,-x+y,2/3-z
y,x,1/3-z
-y,-x,5/6-z
-x+y,y,1/2-z
x,x-y,1/6-z
loop_
_atom_site_type_symbol
_atom_site_label
_atom_site_fract_x
_atom_site_fract_y
_atom_site_fract_z
Si Si1 0.939440 0.229202 0.611195
Si Si2 0.653113 0.777218 0.909262
Si Si3 0.082345 0.917656 0.916667
Si Si4 0.753272 0.506543 0.250000
Si Si5 0.679286 0.588526 0.701773
Si Si6 0.382064 0.785530 0.910496
O O1 0.874731 0.184630 0.733812
O O2 0.933941 0.156375 0.517462
O O3 0.910543 0.281086 0.515772
O O4 0.035152 0.288773 0.640287
O O5 0.637005 0.746470 0.749949
O O6 0.566517 0.739444 0.983711
O O7 0.000000 0.889724 0.833334
O O8 0.671596 0.452318 0.161805
O O9 0.607443 0.607443 0.666667
O O10 0.647042 0.493072 0.696818
O O11 0.304616 0.695385 0.916667
O O12 0.404078 0.808155 0.750000
#
# Coordination Sequence:
#
# PCOD9582701 Si02
#       6
#    12  12   6   6  12  12
#     4  11  19  39  70  98 128 178 230 283 336 421
#     4  11  23  40  65  96 135 175 228 273 347 409
#     4  12  20  36  67 104 136 180 238 291 350 418
#     4  12  28  44  63  96 134 184 214 295 350 414
#     4  10  21  39  64  98 129 166 221 283 333 405
#     4  12  24  44  69  94 129 174 233 283 344 410
#
# _framework density 20.073060000000002
#
# number of rings (size 3 to 8) (size 9 to 14) (size 15 to 20)
#    0.000    0.800    5.000    4.200    0.000    0.800 
#   10.800    1.000    0.000    0.000    0.000    0.000 
#    0.000    0.000    0.000    0.000    0.000    0.000 
#
# Total GULP energy -335490.945183 kJ/mol
# GULP energy per Si atom -5591.515753 kJ/mol
# Density = 2.002737 g / cm^3
# Si number density = 20.073060 Si / 1000 Ang^3
#
#
#
# Elastic Constant Matrix: (Units=GPa)
#
#
# Indices 1 2 3 4 5 6 
#
# 1 141.7390 77.2896 33.6046 0.0000 0.0000 0.0000
# 2 77.2896 141.7390 33.6046 0.0000 0.0000 0.0000
# 3 33.6046 33.6046 52.0810 0.0000 0.0000 0.0000
# 4 0.0000 0.0000 0.0000 32.5889 0.0000 0.0000
# 5 0.0000 0.0000 0.0000 0.0000 32.5889 0.0000
# 6 0.0000 0.0000 0.0000 0.0000 0.0000 32.2247
#
#
#
# Elastic Compliance Matrix: (Units=1/GPa)
#
#
# Indices 1 2 3 4 5 6 
#
# 1 0.010604 -0.004912 -0.003673 0.000000 0.000000 0.000000
# 2 -0.004912 0.010604 -0.003673 0.000000 0.000000 0.000000
# 3 -0.003673 -0.003673 0.023941 0.000000 0.000000 0.000000
# 4 0.000000 0.000000 0.000000 0.030685 0.000000 0.000000
# 5 0.000000 0.000000 0.000000 0.000000 0.030685 0.000000
# 6 0.000000 0.000000 0.000000 0.000000 0.000000 0.031032
#
#
# Mechanical properties :
#
#
# Convention : Reuss Voigt Hill
#
# Bulk Modulus (GPa) = 48.46418 69.39517 58.92967
# Shear Modulus (GPa) = 29.59519 32.21784 30.90651
#
# Velocity S-wave (km/s) = 3.84392 4.01063 3.92816
# Velocity P-wave (km/s) = 6.62550 7.48954 7.07073
#
# Compressibility (1/GPa) = 0.02063380
#
# Stress axis : x y z
#
# Youngs Moduli (GPa) = 94.30055 94.30055 41.76935
#
# Poissons Ratio (x) = 0.46317 0.15343
# Poissons Ratio (y) = 0.46317 0.15343
# Poissons Ratio (z) = 0.34638 0.34638
#
# Static dielectric constant tensor:
#      x y z
#    x 1.696040 0.000000 0.000000 
#    y 0.000000 1.696040 0.000000 
#    z 0.000000 0.000000 1.395970 
# 
# From -- ./inp_files/4606.got.cif
#   From: 2010.05.17/outbox.cif.g08.bks.cpg/sg178_3_cif.got.tgz:4606.got - 2010.05.20 11:30:59.
