data_PCOD9582737
_publ_section_title
;
Structure prediction by ZEFSAII (Michael W. Deem and Ramdas Pophale) SiO2 
 PCOD9582737
Probable space group: P 61 2 2
;
_chemical_formula_sum "Si O2"
_cell_formula_units_Z 84
_cell_length_a 14.876046
_cell_length_b 14.876046
_cell_length_c 23.809902
_cell_angle_alpha 90.000000
_cell_angle_beta 90.000000
_cell_angle_gamma 120.000000
_cell_volume 4563.134446
_symmetry_space_group_name_H-M "P 61 2 2"
_symmetry_group_IT_number 178
_symmetry_cell_setting 'hexagonal'
loop_
_space_group_symop_operation_xyz
x,y,z
x-y,x,1/6+z
-y,x-y,1/3+z
-x,-y,1/2+z
-x+y,-x,2/3+z
y,-x+y,5/6+z
x-y,-y,-z
-x,-x+y,2/3-z
y,x,1/3-z
-y,-x,5/6-z
-x+y,y,1/2-z
x,x-y,1/6-z
loop_
_atom_site_type_symbol
_atom_site_label
_atom_site_fract_x
_atom_site_fract_y
_atom_site_fract_z
Si Si1 0.224766 0.765413 0.686502
Si Si2 0.006549 0.410266 0.207018
Si Si3 0.325430 0.000000 0.500000
Si Si4 0.776710 0.190569 0.851283
Si Si5 0.304910 0.645427 0.851661
Si Si6 0.000000 0.653049 0.833334
Si Si7 0.795280 0.223907 0.518368
Si Si8 0.599250 0.628419 0.291833
O O1 0.102020 0.682364 0.683102
O O2 0.284100 0.700240 0.679227
O O3 0.244240 0.813512 0.748784
O O4 0.274733 0.860644 0.642862
O O5 0.001817 0.401883 0.274767
O O6 0.106030 0.407959 0.184025
O O7 0.024632 0.522420 0.190835
O O8 0.218355 0.892606 0.496942
O O9 0.375143 0.990388 0.558143
O O10 0.780150 0.219851 0.916667
O O11 0.746648 0.268404 0.820804
O O12 0.694845 0.069884 0.845445
O O13 0.325369 0.674632 0.916667
O O14 0.238650 0.696195 0.828788
O O15 0.893712 0.654769 0.836958
#
# Coordination Sequence:
#
# PCOD9582737 Si02
#       8
#    12  12   6  12  12   6  12  12
#     4  11  24  39  56  85 123 156 197 245 299 357
#     4  11  22  39  59  87 119 158 197 245 298 357
#     4  10  23  38  60  85 114 156 202 241 292 357
#     4  10  22  37  57  80 115 150 194 240 285 339
#     4  12  22  33  53  84 116 158 195 235 286 349
#     4  10  23  38  60  87 116 158 204 245 290 355
#     4  11  24  38  59  83 121 158 200 245 295 353
#     4  11  22  39  58  86 117 156 194 245 297 353
#
# _framework density 18.408398999999999
#
# number of rings (size 3 to 8) (size 9 to 14) (size 15 to 20)
#    0.000    1.143    2.857    3.857    8.000    2.286 
#    0.000    0.000    0.000    0.857    0.000    4.000 
#    0.000    0.000    0.000    0.000    0.000    0.000 
#
# Total GULP energy -469099.566446 kJ/mol
# GULP energy per Si atom -5584.518648 kJ/mol
# Density = 1.836650 g / cm^3
# Si number density = 18.408399 Si / 1000 Ang^3
#
#
#
# Elastic Constant Matrix: (Units=GPa)
#
#
# Indices 1 2 3 4 5 6 
#
# 1 102.4081 59.5260 31.8803 0.0000 0.0000 0.0000
# 2 59.5260 102.4081 31.8803 0.0000 0.0000 0.0000
# 3 31.8803 31.8803 64.1935 0.0000 0.0000 0.0000
# 4 0.0000 0.0000 0.0000 23.0448 0.0000 0.0000
# 5 0.0000 0.0000 0.0000 0.0000 23.0448 0.0000
# 6 0.0000 0.0000 0.0000 0.0000 0.0000 21.4411
#
#
#
# Elastic Compliance Matrix: (Units=1/GPa)
#
#
# Indices 1 2 3 4 5 6 
#
# 1 0.015498 -0.007822 -0.003812 0.000000 0.000000 0.000000
# 2 -0.007822 0.015498 -0.003812 0.000000 0.000000 0.000000
# 3 -0.003812 -0.003812 0.019365 0.000000 0.000000 0.000000
# 4 0.000000 0.000000 0.000000 0.043394 0.000000 0.000000
# 5 0.000000 0.000000 0.000000 0.000000 0.043394 0.000000
# 6 0.000000 0.000000 0.000000 0.000000 0.000000 0.046639
#
#
# Mechanical properties :
#
#
# Convention : Reuss Voigt Hill
#
# Bulk Modulus (GPa) = 51.36619 57.28700 54.32660
# Shear Modulus (GPa) = 22.60706 23.22099 22.91403
#
# Velocity S-wave (km/s) = 3.50821 3.55552 3.53194
# Velocity P-wave (km/s) = 6.66140 6.93132 6.79770
#
# Compressibility (1/GPa) = 0.01946806
#
# Stress axis : x y z
#
# Youngs Moduli (GPa) = 64.52410 64.52410 51.64085
#
# Poissons Ratio (x) = 0.50469 0.19687
# Poissons Ratio (y) = 0.50469 0.19687
# Poissons Ratio (z) = 0.24599 0.24599
#
# Static dielectric constant tensor:
#      x y z
#    x 1.629180 0.000000 0.000000 
#    y 0.000000 1.629180 0.000000 
#    z 0.000000 0.000000 1.671140 
# 
# From -- ./inp_files/8366.got.cif
#   From: 2010.05.17/outbox.cif.g08.bks.cpg/sg178_5_cif.got.tgz:8366.got - 2010.05.20 11:30:59.
