data_PCOD9582995
_publ_section_title
;
Structure prediction by ZEFSAII (Michael W. Deem and Ramdas Pophale) SiO2 
 PCOD9582995
Probable space group: P 61 2 2
;
_chemical_formula_sum "Si O2"
_cell_formula_units_Z 36
_cell_length_a 8.042839
_cell_length_b 8.042839
_cell_length_c 24.596352
_cell_angle_alpha 90.000000
_cell_angle_beta 90.000000
_cell_angle_gamma 120.000000
_cell_volume 1377.907556
_symmetry_space_group_name_H-M "P 61 2 2"
_symmetry_group_IT_number 178
_symmetry_cell_setting 'hexagonal'
loop_
_space_group_symop_operation_xyz
x,y,z
x-y,x,1/6+z
-y,x-y,1/3+z
-x,-y,1/2+z
-x+y,-x,2/3+z
y,-x+y,5/6+z
x-y,-y,-z
-x,-x+y,2/3-z
y,x,1/3-z
-y,-x,5/6-z
-x+y,y,1/2-z
x,x-y,1/6-z
loop_
_atom_site_type_symbol
_atom_site_label
_atom_site_fract_x
_atom_site_fract_y
_atom_site_fract_z
Si Si1 0.780222 0.300108 0.531951
Si Si2 0.941957 0.195695 0.216356
Si Si3 0.208822 0.832047 0.352335
O O1 0.884715 0.442358 0.583334
O O2 0.704720 0.108344 0.567575
O O3 0.608314 0.329205 0.509821
O O4 0.916412 0.287872 0.488125
O O5 0.052770 0.105540 0.250000
O O6 0.770366 0.031564 0.178588
O O7 0.175134 0.824867 0.416667
O O8 0.000000 0.681266 0.333334
#
# Coordination Sequence:
#
# PCOD9582995 Si02
#       3
#    12  12  12
#     4  11  28  47  77 119 158 213 274 344 416 502
#     4  12  25  50  80 113 164 214 270 349 429 497
#     4  11  23  43  74 113 150 203 269 325 412 508
#
# _framework density 26.126567999999999
#
# number of rings (size 3 to 8) (size 9 to 14) (size 15 to 20)
#    0.000    0.667    0.000    8.000    9.333    0.000 
#    6.000    0.000    0.000    0.000    0.000    0.000 
#    0.000    0.000    0.000    0.000    0.000    0.000 
#
# Total GULP energy -200800.127407 kJ/mol
# GULP energy per Si atom -5577.781317 kJ/mol
# Density = 2.606710 g / cm^3
# Si number density = 26.126568 Si / 1000 Ang^3
#
#
#
# Elastic Constant Matrix: (Units=GPa)
#
#
# Indices 1 2 3 4 5 6 
#
# 1 150.2089 64.4980 86.8468 0.0000 0.0000 0.0000
# 2 64.4980 150.2089 86.8468 0.0000 0.0000 0.0000
# 3 86.8468 86.8468 166.8617 0.0000 0.0000 0.0000
# 4 0.0000 0.0000 0.0000 50.2935 0.0000 0.0000
# 5 0.0000 0.0000 0.0000 0.0000 50.2935 0.0000
# 6 0.0000 0.0000 0.0000 0.0000 0.0000 42.8554
#
#
#
# Elastic Compliance Matrix: (Units=1/GPa)
#
#
# Indices 1 2 3 4 5 6 
#
# 1 0.009856 -0.001811 -0.004187 0.000000 0.000000 0.000000
# 2 -0.001811 0.009856 -0.004187 0.000000 0.000000 0.000000
# 3 -0.004187 -0.004187 0.010352 0.000000 0.000000 0.000000
# 4 0.000000 0.000000 0.000000 0.019883 0.000000 0.000000
# 5 0.000000 0.000000 0.000000 0.000000 0.019883 0.000000
# 6 0.000000 0.000000 0.000000 0.000000 0.000000 0.023334
#
#
# Mechanical properties :
#
#
# Convention : Reuss Voigt Hill
#
# Bulk Modulus (GPa) = 103.17006 104.85143 104.01074
# Shear Modulus (GPa) = 42.82074 43.96100 43.39087
#
# Velocity S-wave (km/s) = 4.05282 4.10642 4.07971
# Velocity P-wave (km/s) = 7.84058 7.91851 7.87964
#
# Compressibility (1/GPa) = 0.00969273
#
# Stress axis : x y z
#
# Youngs Moduli (GPa) = 101.46148 101.46148 96.60433
#
# Poissons Ratio (x) = 0.18376 0.40449
# Poissons Ratio (y) = 0.18376 0.40449
# Poissons Ratio (z) = 0.42483 0.42483
#
# Static dielectric constant tensor:
#      x y z
#    x 2.317490 0.000000 0.000000 
#    y 0.000000 2.317490 0.000000 
#    z 0.000000 0.000000 1.836630 
# 
# From -- ./inp_files/8537.got.cif
#   From: 2010.05.17/outbox.cif.g08.bks.cpg/sg178_5_cif.got.tgz:8537.got - 2010.05.20 11:30:59.
