data_PCOD9582499
_publ_section_title
;
Structure prediction by ZEFSAII (Michael W. Deem and Ramdas Pophale) SiO2 
 PCOD9582499
Probable space group: P 61 2 2
;
_chemical_formula_sum "Si O2"
_cell_formula_units_Z 84
_cell_length_a 14.688965
_cell_length_b 14.688965
_cell_length_c 23.386402
_cell_angle_alpha 90.000000
_cell_angle_beta 90.000000
_cell_angle_gamma 120.000000
_cell_volume 4369.949663
_symmetry_space_group_name_H-M "P 61 2 2"
_symmetry_group_IT_number 178
_symmetry_cell_setting 'hexagonal'
loop_
_space_group_symop_operation_xyz
x,y,z
x-y,x,1/6+z
-y,x-y,1/3+z
-x,-y,1/2+z
-x+y,-x,2/3+z
y,-x+y,5/6+z
x-y,-y,-z
-x,-x+y,2/3-z
y,x,1/3-z
-y,-x,5/6-z
-x+y,y,1/2-z
x,x-y,1/6-z
loop_
_atom_site_type_symbol
_atom_site_label
_atom_site_fract_x
_atom_site_fract_y
_atom_site_fract_z
Si Si1 0.179101 0.501633 0.614365
Si Si2 0.536528 0.664373 0.078045
Si Si3 0.354826 0.462206 0.574164
Si Si4 0.361226 0.207567 0.866554
Si Si5 0.152558 0.689179 0.955311
Si Si6 0.554271 0.308426 0.223132
Si Si7 0.704087 0.687580 0.459269
O O1 0.226668 0.613334 0.583334
O O2 0.139929 0.499951 0.678144
O O3 0.265701 0.465906 0.611738
O O4 0.082839 0.421623 0.574782
O O5 0.574515 0.787258 0.083334
O O6 0.617734 0.626321 0.091793
O O7 0.431133 0.595270 0.114072
O O8 0.304168 0.427452 0.510465
O O9 0.459432 0.576416 0.572747
O O10 0.449870 0.201278 0.904820
O O11 0.298751 0.104215 0.827080
O O12 0.291103 0.231925 0.910407
O O13 0.206145 0.793855 0.916667
O O14 0.249021 0.715565 0.997263
O O15 0.058600 0.680266 0.993678
O O16 0.650665 0.301329 0.250000
#
# Coordination Sequence:
#
# PCOD9582499 Si02
#       7
#    12  12  12  12  12  12  12
#     4  11  22  37  63  85 117 167 214 250 302 379
#     4  11  24  38  54  89 127 162 207 258 307 362
#     4  11  21  36  57  85 121 168 210 248 304 376
#     4  10  19  37  60  90 115 161 210 252 299 373
#     4  11  23  37  58  91 124 164 204 256 315 379
#     4  10  20  35  54  82 124 165 205 247 294 364
#     4  10  22  37  63  88 122 160 207 254 310 376
#
# _framework density 19.222190999999999
#
# number of rings (size 3 to 8) (size 9 to 14) (size 15 to 20)
#    0.000    1.429    2.857    3.857    6.000    0.571 
#    0.000    5.714    0.000    0.000    0.000   12.000 
#    0.000    0.000    0.000    0.000    0.000    0.000 
#
# Total GULP energy -469092.314238 kJ/mol
# GULP energy per Si atom -5584.432312 kJ/mol
# Density = 1.917844 g / cm^3
# Si number density = 19.222191 Si / 1000 Ang^3
#
#
#
# Elastic Constant Matrix: (Units=GPa)
#
#
# Indices 1 2 3 4 5 6 
#
# 1 80.7260 49.5013 16.5695 0.0000 0.0000 0.0000
# 2 49.5013 80.7260 16.5695 0.0000 0.0000 0.0000
# 3 16.5695 16.5695 48.4905 0.0000 0.0000 0.0000
# 4 0.0000 0.0000 0.0000 28.9589 0.0000 0.0000
# 5 0.0000 0.0000 0.0000 0.0000 28.9589 0.0000
# 6 0.0000 0.0000 0.0000 0.0000 0.0000 15.6123
#
#
#
# Elastic Compliance Matrix: (Units=1/GPa)
#
#
# Indices 1 2 3 4 5 6 
#
# 1 0.020218 -0.011808 -0.002874 0.000000 0.000000 0.000000
# 2 -0.011808 0.020218 -0.002874 0.000000 0.000000 0.000000
# 3 -0.002874 -0.002874 0.022587 0.000000 0.000000 0.000000
# 4 0.000000 0.000000 0.000000 0.034532 0.000000 0.000000
# 5 0.000000 0.000000 0.000000 0.000000 0.034532 0.000000
# 6 0.000000 0.000000 0.000000 0.000000 0.000000 0.064052
#
#
# Mechanical properties :
#
#
# Convention : Reuss Voigt Hill
#
# Bulk Modulus (GPa) = 35.82723 41.69142 38.75932
# Shear Modulus (GPa) = 20.78545 23.19285 21.98915
#
# Velocity S-wave (km/s) = 3.29192 3.47733 3.38590
# Velocity P-wave (km/s) = 5.75569 6.15295 5.95763
#
# Compressibility (1/GPa) = 0.02791173
#
# Stress axis : x y z
#
# Youngs Moduli (GPa) = 49.46073 49.46073 44.27408
#
# Poissons Ratio (x) = 0.58403 0.12723
# Poissons Ratio (y) = 0.58403 0.12723
# Poissons Ratio (z) = 0.14214 0.14214
#
# Static dielectric constant tensor:
#      x y z
#    x 1.674370 0.000000 0.000000 
#    y 0.000000 1.674370 0.000000 
#    z 0.000000 0.000000 1.765150 
# 
# From -- ./inp_files/8316.got.cif
#   From: 2010.05.17/outbox.cif.g08.bks.cpg/sg178_5_cif.got.tgz:8316.got - 2010.05.20 11:30:59.
