data_PCOD9582413
_publ_section_title
;
Structure prediction by ZEFSAII (Michael W. Deem and Ramdas Pophale) SiO2 
 PCOD9582413
Probable space group: P 61 2 2
;
_chemical_formula_sum "Si O2"
_cell_formula_units_Z 84
_cell_length_a 21.121053
_cell_length_b 21.121053
_cell_length_c 11.764129
_cell_angle_alpha 90.000000
_cell_angle_beta 90.000000
_cell_angle_gamma 120.000000
_cell_volume 4544.870808
_symmetry_space_group_name_H-M "P 61 2 2"
_symmetry_group_IT_number 178
_symmetry_cell_setting 'hexagonal'
loop_
_space_group_symop_operation_xyz
x,y,z
x-y,x,1/6+z
-y,x-y,1/3+z
-x,-y,1/2+z
-x+y,-x,2/3+z
y,-x+y,5/6+z
x-y,-y,-z
-x,-x+y,2/3-z
y,x,1/3-z
-y,-x,5/6-z
-x+y,y,1/2-z
x,x-y,1/6-z
loop_
_atom_site_type_symbol
_atom_site_label
_atom_site_fract_x
_atom_site_fract_y
_atom_site_fract_z
Si Si1 0.754056 0.000000 0.000000
Si Si2 0.094127 0.905874 0.416667
Si Si3 0.437437 0.919855 0.624987
Si Si4 0.150063 0.302243 0.115881
Si Si5 0.092410 0.129579 0.410843
Si Si6 0.636397 0.692795 0.351163
Si Si7 0.314433 0.365804 0.057738
Si Si8 0.522400 0.090238 0.876895
O O1 0.834126 0.070259 0.989826
O O2 0.705121 0.992219 0.894466
O O3 0.024998 0.886803 0.495030
O O4 0.444746 0.889492 0.750000
O O5 0.362686 0.922528 0.628491
O O6 0.439050 0.885277 0.501975
O O7 0.506772 0.003076 0.623821
O O8 0.159501 0.319001 0.250000
O O9 0.088746 0.216341 0.106601
O O10 0.122600 0.352706 0.058103
O O11 0.226859 0.320167 0.061125
O O12 0.101109 0.088228 0.300975
O O13 0.648877 0.653392 0.456040
O O14 0.342497 0.342497 0.166667
O O15 0.351001 0.452792 0.052786
O O16 0.558252 0.116503 0.750000
#
# Coordination Sequence:
#
# PCOD9582413 Si02
#       8
#     6   6  12  12  12  12  12  12
#     4  12  26  38  60  82 110 160 204 274 340 380
#     4  12  22  44  60  74 104 154 226 280 336 396
#     4  10  18  34  59  92 117 154 188 233 293 360
#     4  12  27  41  58  87 123 162 206 261 341 392
#     4  12  25  47  59  77 103 153 225 292 343 395
#     4  12  23  39  60  87 128 155 201 255 309 392
#     4  12  22  39  61  85 125 162 197 254 304 370
#     4  10  18  34  61  95 120 150 193 233 292 358
#
# _framework density 18.482374
#
# number of rings (size 3 to 8) (size 9 to 14) (size 15 to 20)
#    0.000    0.571    8.571    1.714    2.000    0.000 
#    6.429    0.000    0.000    0.000    0.000    0.000 
#    4.286    0.000    0.000    0.000    0.000    0.000 
#
# Total GULP energy -468598.256985 kJ/mol
# GULP energy per Si atom -5578.550678 kJ/mol
# Density = 1.844031 g / cm^3
# Si number density = 18.482374 Si / 1000 Ang^3
#
#
#
# Elastic Constant Matrix: (Units=GPa)
#
#
# Indices 1 2 3 4 5 6 
#
# 1 75.8132 20.7446 20.9731 0.0000 0.0000 0.0000
# 2 20.7446 75.8132 20.9731 0.0000 0.0000 0.0000
# 3 20.9731 20.9731 107.8418 0.0000 0.0000 0.0000
# 4 0.0000 0.0000 0.0000 37.0001 0.0000 0.0000
# 5 0.0000 0.0000 0.0000 0.0000 37.0001 0.0000
# 6 0.0000 0.0000 0.0000 0.0000 0.0000 27.5343
#
#
#
# Elastic Compliance Matrix: (Units=1/GPa)
#
#
# Indices 1 2 3 4 5 6 
#
# 1 0.014736 -0.003423 -0.002200 0.000000 0.000000 0.000000
# 2 -0.003423 0.014736 -0.002200 0.000000 0.000000 0.000000
# 3 -0.002200 -0.002200 0.010129 0.000000 0.000000 0.000000
# 4 0.000000 0.000000 0.000000 0.027027 0.000000 0.000000
# 5 0.000000 0.000000 0.000000 0.000000 0.027027 0.000000
# 6 0.000000 0.000000 0.000000 0.000000 0.000000 0.036318
#
#
# Mechanical properties :
#
#
# Convention : Reuss Voigt Hill
#
# Bulk Modulus (GPa) = 41.74849 42.76109 42.25479
# Shear Modulus (GPa) = 32.55135 33.42539 32.98837
#
# Velocity S-wave (km/s) = 4.20123 4.25726 4.22934
# Velocity P-wave (km/s) = 6.79493 6.88128 6.83824
#
# Compressibility (1/GPa) = 0.02395296
#
# Stress axis : x y z
#
# Youngs Moduli (GPa) = 67.86247 67.86247 98.73077
#
# Poissons Ratio (x) = 0.23233 0.21721
# Poissons Ratio (y) = 0.23233 0.21721
# Poissons Ratio (z) = 0.14930 0.14930
#
# Static dielectric constant tensor:
#      x y z
#    x 1.623620 0.000000 0.000000 
#    y 0.000000 1.623620 0.000000 
#    z 0.000000 0.000000 1.723260 
# 
# From -- ./inp_files/4829.got.cif
#   From: 2010.05.17/outbox.cif.g08.bks.cpg/sg178_3_cif.got.tgz:4829.got - 2010.05.20 11:30:59.
