data_PCOD9582287
_publ_section_title
;
Structure prediction by ZEFSAII (Michael W. Deem and Ramdas Pophale) SiO2 
 PCOD9582287
Probable space group: P 6 2 2
;
_chemical_formula_sum "Si O2"
_cell_formula_units_Z 84
_cell_length_a 19.401608
_cell_length_b 19.401608
_cell_length_c 13.001004
_cell_angle_alpha 90.000000
_cell_angle_beta 90.000000
_cell_angle_gamma 120.000000
_cell_volume 4238.214909
_symmetry_space_group_name_H-M "P 6 2 2"
_symmetry_group_IT_number 177
_symmetry_cell_setting 'hexagonal'
loop_
_space_group_symop_operation_xyz
x,y,z
x-y,x,z
-y,x-y,z
-x,-y,z
-x+y,-x,z
y,-x+y,z
x-y,-y,-z
-x,-x+y,-z
y,x,-z
-y,-x,-z
-x+y,y,-z
x,x-y,-z
loop_
_atom_site_type_symbol
_atom_site_label
_atom_site_fract_x
_atom_site_fract_y
_atom_site_fract_z
Si Si1 0.827258 0.334960 0.037577
Si Si2 0.756509 0.087968 0.041311
Si Si3 0.142243 0.331039 0.264660
Si Si4 0.181219 0.517311 0.518264
Si Si5 0.331290 0.885705 0.734321
Si Si6 0.187184 0.089371 0.389089
Si Si7 0.613857 0.956265 0.604612
O O1 0.855843 0.349499 0.158031
O O2 0.740284 0.259717 0.000000
O O3 0.831763 0.415882 0.000000
O O4 0.887815 0.309460 0.988521
O O5 0.768334 0.095697 0.162413
O O6 0.841606 0.158395 0.000000
O O7 0.728118 0.000000 0.000000
O O8 0.236305 0.387662 0.255722
O O9 0.130145 0.246795 0.295849
O O10 0.100794 0.356302 0.351229
O O11 0.244024 0.488047 0.500000
O O12 0.220356 0.610178 0.500000
O O13 0.154769 0.500359 0.635981
O O14 0.104749 0.473444 0.441893
O O15 0.373354 0.978310 0.692804
O O16 0.135418 0.131581 0.385315
O O17 0.230358 0.115179 0.500000
O O18 0.660534 0.000000 0.500000
#
# Coordination Sequence:
#
# PCOD9582287 Si02
#       7
#    12  12  12  12  12  12  12
#     4  11  24  47  73 106 137 178 231 293 352 419
#     4  11  25  45  69  98 135 178 234 292 349 411
#     4  12  22  39  67  94 134 176 225 274 340 399
#     4  11  24  43  66  97 134 176 220 270 336 414
#     4  11  23  42  68  99 137 177 223 277 345 401
#     4  10  23  37  59  92 134 179 227 280 338 404
#     4  10  24  39  65  98 137 173 219 276 329 406
#
# _framework density 19.819666000000002
#
# number of rings (size 3 to 8) (size 9 to 14) (size 15 to 20)
#    0.000    1.143    4.286    2.143    8.000    5.714 
#    0.000    1.429    0.000    0.143    0.000    0.000 
#    0.000    0.000    0.000    0.000    0.000    0.000 
#
# Total GULP energy -468288.063350 kJ/mol
# GULP energy per Si atom -5574.857897 kJ/mol
# Density = 1.977456 g / cm^3
# Si number density = 19.819666 Si / 1000 Ang^3
#
#
#
# Elastic Constant Matrix: (Units=GPa)
#
#
# Indices 1 2 3 4 5 6 
#
# 1 112.3822 51.2139 63.9513 0.0000 0.0000 0.0000
# 2 51.2139 112.3822 63.9513 0.0000 0.0000 0.0000
# 3 63.9513 63.9513 129.0063 0.0000 0.0000 0.0000
# 4 0.0000 0.0000 0.0000 30.6107 0.0000 0.0000
# 5 0.0000 0.0000 0.0000 0.0000 30.6107 0.0000
# 6 0.0000 0.0000 0.0000 0.0000 0.0000 30.5842
#
#
#
# Elastic Compliance Matrix: (Units=1/GPa)
#
#
# Indices 1 2 3 4 5 6 
#
# 1 0.013165 -0.003184 -0.004948 0.000000 0.000000 0.000000
# 2 -0.003184 0.013165 -0.004948 0.000000 0.000000 0.000000
# 3 -0.004948 -0.004948 0.012657 0.000000 0.000000 0.000000
# 4 0.000000 0.000000 0.000000 0.032668 0.000000 0.000000
# 5 0.000000 0.000000 0.000000 0.000000 0.032668 0.000000
# 6 0.000000 0.000000 0.000000 0.000000 0.000000 0.032697
#
#
# Mechanical properties :
#
#
# Convention : Reuss Voigt Hill
#
# Bulk Modulus (GPa) = 77.95611 79.11156 78.53384
# Shear Modulus (GPa) = 29.85900 30.00473 29.93186
#
# Velocity S-wave (km/s) = 3.88562 3.89509 3.89036
# Velocity P-wave (km/s) = 7.71679 7.76088 7.73887
#
# Compressibility (1/GPa) = 0.01282773
#
# Stress axis : x y z
#
# Youngs Moduli (GPa) = 75.96137 75.96137 79.00797
#
# Poissons Ratio (x) = 0.24184 0.39091
# Poissons Ratio (y) = 0.24184 0.39091
# Poissons Ratio (z) = 0.37584 0.37584
#
# Static dielectric constant tensor:
#      x y z
#    x 1.718250 0.000000 0.000000 
#    y 0.000000 1.718250 0.000000 
#    z 0.000000 0.000000 1.744490 
# 
# From -- ./inp_files/2085.got.cif
#   From: 2010.05.17/outbox.cif.g08.bks.cpg/sg177_2_cif.got.tgz:2085.got - 2010.05.20 11:28:44.
