data_PCOD9582830
_publ_section_title
;
Structure prediction by ZEFSAII (Michael W. Deem and Ramdas Pophale) SiO2 
 PCOD9582830
Probable space group: P 61 2 2
;
_chemical_formula_sum "Si O2"
_cell_formula_units_Z 60
_cell_length_a 12.379813
_cell_length_b 12.379813
_cell_length_c 19.982364
_cell_angle_alpha 90.000000
_cell_angle_beta 90.000000
_cell_angle_gamma 120.000000
_cell_volume 2652.196312
_symmetry_space_group_name_H-M "P 61 2 2"
_symmetry_group_IT_number 178
_symmetry_cell_setting 'hexagonal'
loop_
_space_group_symop_operation_xyz
x,y,z
x-y,x,1/6+z
-y,x-y,1/3+z
-x,-y,1/2+z
-x+y,-x,2/3+z
y,-x+y,5/6+z
x-y,-y,-z
-x,-x+y,2/3-z
y,x,1/3-z
-y,-x,5/6-z
-x+y,y,1/2-z
x,x-y,1/6-z
loop_
_atom_site_type_symbol
_atom_site_label
_atom_site_fract_x
_atom_site_fract_y
_atom_site_fract_z
Si Si1 0.747815 0.435617 0.368528
Si Si2 0.861369 0.695336 0.103227
Si Si3 0.232997 0.116499 0.083334
Si Si4 0.112257 0.224514 0.750000
Si Si5 0.865350 0.700683 0.602560
Si Si6 0.211455 0.652408 0.739126
O O1 0.684086 0.315915 0.416667
O O2 0.440881 0.189118 0.419784
O O3 0.830628 0.425496 0.308806
O O4 0.631017 0.429063 0.325615
O O5 0.849869 0.812586 0.077632
O O6 0.844753 0.696833 0.182983
O O7 0.998936 0.725258 0.084335
O O8 0.147287 0.179608 0.084500
O O9 0.312650 0.151465 0.150872
O O10 0.750009 0.584273 0.567652
O O11 0.362516 0.725031 0.750000
#
# Coordination Sequence:
#
# PCOD9582830 Si02
#       6
#    12  12   6   6  12  12
#     4   9  21  40  63  92 129 168 215 285 331 398
#     4  11  22  39  66  92 132 172 223 275 345 404
#     4  10  25  40  60  92 136 172 223 286 336 414
#     4  10  23  38  60  98 130 170 215 290 344 394
#     4  11  22  41  65  94 131 180 228 275 345 420
#     4   8  22  40  60  91 133 163 226 277 329 415
#
# _framework density 22.622758999999999
#
# number of rings (size 3 to 8) (size 9 to 14) (size 15 to 20)
#    1.200    0.800    0.000    3.000    7.000    4.000 
#    0.000    8.000    0.000    0.000    0.000    0.000 
#    0.000    0.000    0.000    0.000    0.000    0.000 
#
# Total GULP energy -334350.658429 kJ/mol
# GULP energy per Si atom -5572.510974 kJ/mol
# Density = 2.257127 g / cm^3
# Si number density = 22.622759 Si / 1000 Ang^3
#
#
#
# Elastic Constant Matrix: (Units=GPa)
#
#
# Indices 1 2 3 4 5 6 
#
# 1 72.6099 30.7710 -11.6815 0.0000 0.0000 0.0000
# 2 30.7710 72.6099 -11.6815 0.0000 0.0000 0.0000
# 3 -11.6815 -11.6815 80.0498 0.0000 0.0000 0.0000
# 4 0.0000 0.0000 0.0000 21.5971 0.0000 0.0000
# 5 0.0000 0.0000 0.0000 0.0000 21.5971 0.0000
# 6 0.0000 0.0000 0.0000 0.0000 0.0000 20.9194
#
#
#
# Elastic Compliance Matrix: (Units=1/GPa)
#
#
# Indices 1 2 3 4 5 6 
#
# 1 0.016952 -0.006949 0.001460 0.000000 0.000000 0.000000
# 2 -0.006949 0.016952 0.001460 0.000000 0.000000 0.000000
# 3 0.001460 0.001460 0.012918 0.000000 0.000000 0.000000
# 4 0.000000 0.000000 0.000000 0.046303 0.000000 0.000000
# 5 0.000000 0.000000 0.000000 0.000000 0.046303 0.000000
# 6 0.000000 0.000000 0.000000 0.000000 0.000000 0.047802
#
#
# Mechanical properties :
#
#
# Convention : Reuss Voigt Hill
#
# Bulk Modulus (GPa) = 25.79802 26.67620 26.23711
# Shear Modulus (GPa) = 24.01417 27.34681 25.68049
#
# Velocity S-wave (km/s) = 3.26161 3.48058 3.37287
# Velocity P-wave (km/s) = 5.06087 5.28866 5.17602
#
# Compressibility (1/GPa) = 0.03876267
#
# Stress axis : x y z
#
# Youngs Moduli (GPa) = 58.98995 58.98995 77.40997
#
# Poissons Ratio (x) = 0.40993 -0.11299
# Poissons Ratio (y) = 0.40993 -0.11299
# Poissons Ratio (z) = -0.08611 -0.08611
#
# Static dielectric constant tensor:
#      x y z
#    x 1.860860 0.000000 0.000000 
#    y 0.000000 1.860860 0.000000 
#    z 0.000000 0.000000 1.923340 
# 
# From -- ./inp_files/7596.got.cif
#   From: 2010.05.17/outbox.cif.g08.bks.cpg/sg178_4_cif.got.tgz:7596.got - 2010.05.20 11:30:59.
