data_PCOD9582522
_publ_section_title
;
Structure prediction by ZEFSAII (Michael W. Deem and Ramdas Pophale) SiO2 
 PCOD9582522
Probable space group: P 61 2 2
;
_chemical_formula_sum "Si O2"
_cell_formula_units_Z 42
_cell_length_a 15.053449
_cell_length_b 15.053449
_cell_length_c 11.868327
_cell_angle_alpha 90.000000
_cell_angle_beta 90.000000
_cell_angle_gamma 120.000000
_cell_volume 2329.121618
_symmetry_space_group_name_H-M "P 61 2 2"
_symmetry_group_IT_number 178
_symmetry_cell_setting 'hexagonal'
loop_
_space_group_symop_operation_xyz
x,y,z
x-y,x,1/6+z
-y,x-y,1/3+z
-x,-y,1/2+z
-x+y,-x,2/3+z
y,-x+y,5/6+z
x-y,-y,-z
-x,-x+y,2/3-z
y,x,1/3-z
-y,-x,5/6-z
-x+y,y,1/2-z
x,x-y,1/6-z
loop_
_atom_site_type_symbol
_atom_site_label
_atom_site_fract_x
_atom_site_fract_y
_atom_site_fract_z
Si Si1 0.000000 0.573431 0.833334
Si Si2 0.649620 0.490785 0.248032
Si Si3 0.685741 0.039307 0.731697
Si Si4 0.907142 0.690456 0.405718
O O1 0.900344 0.460855 0.855176
O O2 0.998556 0.631424 0.720545
O O3 0.716914 0.433828 0.250000
O O4 0.646387 0.537626 0.369990
O O5 0.720979 0.592475 0.174722
O O6 0.808996 0.109998 0.729346
O O7 0.665485 0.948873 0.815877
O O8 0.000000 0.780794 0.333334
#
# Coordination Sequence:
#
# PCOD9582522 Si02
#       4
#     6  12  12  12
#     4  12  20  32  58  82 122 158 188 256 312 364
#     4   9  18  33  55  79 109 156 209 244 284 357
#     4  10  20  32  58  85 113 151 201 237 313 371
#     4   9  17  35  58  84 105 145 204 242 286 366
#
# _framework density 18.032548999999999
#
# number of rings (size 3 to 8) (size 9 to 14) (size 15 to 20)
#    0.000    2.286    4.286    3.429    0.000    1.143 
#    0.000    0.000   25.143    0.000   18.571    0.000 
#    0.000    0.000    0.000    0.000    0.000    0.000 
#
# Total GULP energy -233809.152789 kJ/mol
# GULP energy per Si atom -5566.884590 kJ/mol
# Density = 1.799151 g / cm^3
# Si number density = 18.032549 Si / 1000 Ang^3
#
#
#
# Elastic Constant Matrix: (Units=GPa)
#
#
# Indices 1 2 3 4 5 6 
#
# 1 76.2803 29.7220 48.8700 0.0000 0.0000 0.0000
# 2 29.7220 76.2803 48.8700 0.0000 0.0000 0.0000
# 3 48.8700 48.8700 163.7285 0.0000 0.0000 0.0000
# 4 0.0000 0.0000 0.0000 13.6124 0.0000 0.0000
# 5 0.0000 0.0000 0.0000 0.0000 13.6124 0.0000
# 6 0.0000 0.0000 0.0000 0.0000 0.0000 23.2792
#
#
#
# Elastic Compliance Matrix: (Units=1/GPa)
#
#
# Indices 1 2 3 4 5 6 
#
# 1 0.017247 -0.004231 -0.003885 0.000000 0.000000 0.000000
# 2 -0.004231 0.017247 -0.003885 0.000000 0.000000 0.000000
# 3 -0.003885 -0.003885 0.008427 0.000000 0.000000 0.000000
# 4 0.000000 0.000000 0.000000 0.073462 0.000000 0.000000
# 5 0.000000 0.000000 0.000000 0.000000 0.073462 0.000000
# 6 0.000000 0.000000 0.000000 0.000000 0.000000 0.042957
#
#
# Mechanical properties :
#
#
# Convention : Reuss Voigt Hill
#
# Bulk Modulus (GPa) = 52.85770 63.46812 58.16291
# Shear Modulus (GPa) = 19.00334 22.68927 20.84630
#
# Velocity S-wave (km/s) = 3.24980 3.55102 3.40374
# Velocity P-wave (km/s) = 6.59224 7.21705 6.91171
#
# Compressibility (1/GPa) = 0.01891872
#
# Stress axis : x y z
#
# Youngs Moduli (GPa) = 57.98038 57.98038 118.66751
#
# Poissons Ratio (x) = 0.24533 0.46103
# Poissons Ratio (y) = 0.24533 0.46103
# Poissons Ratio (z) = 0.22526 0.22526
#
# Static dielectric constant tensor:
#      x y z
#    x 1.667390 0.000000 0.000000 
#    y 0.000000 1.667390 0.000000 
#    z 0.000000 0.000000 1.621470 
# 
# From -- ./inp_files/3962.got.cif
#   From: 2010.05.17/outbox.cif.g08.bks.cpg/sg178_2_cif.got.tgz:3962.got - 2010.05.20 11:30:59.
