data_PCOD9582875
_publ_section_title
;
Structure prediction by ZEFSAII (Michael W. Deem and Ramdas Pophale) SiO2 
 PCOD9582875
Probable space group: P 61 2 2
;
_chemical_formula_sum "Si O2"
_cell_formula_units_Z 60
_cell_length_a 16.399453
_cell_length_b 16.399453
_cell_length_c 12.900061
_cell_angle_alpha 90.000000
_cell_angle_beta 90.000000
_cell_angle_gamma 120.000000
_cell_volume 3004.561657
_symmetry_space_group_name_H-M "P 61 2 2"
_symmetry_group_IT_number 178
_symmetry_cell_setting 'hexagonal'
loop_
_space_group_symop_operation_xyz
x,y,z
x-y,x,1/6+z
-y,x-y,1/3+z
-x,-y,1/2+z
-x+y,-x,2/3+z
y,-x+y,5/6+z
x-y,-y,-z
-x,-x+y,2/3-z
y,x,1/3-z
-y,-x,5/6-z
-x+y,y,1/2-z
x,x-y,1/6-z
loop_
_atom_site_type_symbol
_atom_site_label
_atom_site_fract_x
_atom_site_fract_y
_atom_site_fract_z
Si Si1 0.594616 0.594616 0.166667
Si Si2 0.947145 0.717057 0.198606
Si Si3 0.000000 0.865917 0.833334
Si Si4 0.244704 0.509135 0.082329
Si Si5 0.136629 0.296091 0.483988
Si Si6 0.176773 0.585526 0.253103
O O1 0.629609 0.682823 0.088398
O O2 0.579200 0.500681 0.111387
O O3 0.868140 0.736280 0.250000
O O4 0.055330 0.800506 0.200339
O O5 0.924562 0.700086 0.077840
O O6 0.074501 0.848174 0.772720
O O7 0.946962 0.893923 0.750000
O O8 0.204673 0.400634 0.059458
O O9 0.172606 0.514362 0.164387
O O10 0.343985 0.562440 0.144305
O O11 0.241991 0.557587 0.974054
#
# Coordination Sequence:
#
# PCOD9582875 Si02
#       6
#     6  12   6  12  12  12
#     4  12  24  47  73 112 140 184 254 296 369 449
#     4  12  23  44  72 103 144 187 238 304 363 431
#     4  12  28  45  69 102 140 184 238 288 357 439
#     4  10  23  47  67 102 142 187 232 297 363 423
#     4  12  25  45  71 100 144 188 238 297 366 435
#     4  10  23  45  72 101 144 185 236 297 354 437
#
# _framework density 19.969636000000001
#
# number of rings (size 3 to 8) (size 9 to 14) (size 15 to 20)
#    0.000    0.800    6.000    0.000    2.800    3.200 
#   25.200    0.000    0.000    0.000    0.000    0.000 
#    0.000    0.000    0.000    0.000    0.000    0.000 
#
# Total GULP energy -334953.017495 kJ/mol
# GULP energy per Si atom -5582.550292 kJ/mol
# Density = 1.992418 g / cm^3
# Si number density = 19.969636 Si / 1000 Ang^3
#
#
#
# Elastic Constant Matrix: (Units=GPa)
#
#
# Indices 1 2 3 4 5 6 
#
# 1 116.5882 49.4490 59.8511 0.0000 0.0000 0.0000
# 2 49.4490 116.5882 59.8511 0.0000 0.0000 0.0000
# 3 59.8511 59.8511 116.9664 0.0000 0.0000 0.0000
# 4 0.0000 0.0000 0.0000 3016.1862 0.0012 0.0000
# 5 0.0000 0.0000 0.0000 0.0012 3016.1847 0.0000
# 6 0.0000 0.0000 0.0000 0.0000 0.0000 33.5696
#
#
#
# Elastic Compliance Matrix: (Units=1/GPa)
#
#
# Indices 1 2 3 4 5 6 
#
# 1 0.012219 -0.002676 -0.004883 0.000000 0.000000 0.000000
# 2 -0.002676 0.012219 -0.004883 0.000000 0.000000 0.000000
# 3 -0.004883 -0.004883 0.013547 0.000000 0.000000 0.000000
# 4 0.000000 0.000000 0.000000 0.000332 0.000000 0.000000
# 5 0.000000 0.000000 0.000000 0.000000 0.000332 0.000000
# 6 0.000000 0.000000 0.000000 0.000000 0.000000 0.029789
#
#
# Mechanical properties :
#
#
# Convention : Reuss Voigt Hill
#
# Bulk Modulus (GPa) = 76.33310 76.49394 76.41352
# Shear Modulus (GPa) = 51.18366 1225.25421 638.21894
#
# Velocity S-wave (km/s) = 5.06817 24.79699 17.89661
# Velocity P-wave (km/s) = 8.51799 29.29577 21.57311
#
# Compressibility (1/GPa) = 0.01310048
#
# Stress axis : x y z
#
# Youngs Moduli (GPa) = 81.84089 81.84089 73.81760
#
# Poissons Ratio (x) = 0.21897 0.36047
# Poissons Ratio (y) = 0.21897 0.36047
# Poissons Ratio (z) = 0.39965 0.39965
#
# Static dielectric constant tensor:
#      x y z
#    x 0.931660 0.000000 0.000000 
#    y 0.000000 0.931670 0.000000 
#    z 0.000000 0.000000 1.754270 
# 
# From -- ./inp_files/4566.got.cif
#   From: 2010.05.17/outbox.cif.g08.bks.cpg/sg178_3_cif.got.tgz:4566.got - 2010.05.20 11:30:59.
