data_PCOD9582803
_publ_section_title
;
Structure prediction by ZEFSAII (Michael W. Deem and Ramdas Pophale) SiO2 
 PCOD9582803
Probable space group: P 61 2 2
;
_chemical_formula_sum "Si O2"
_cell_formula_units_Z 36
_cell_length_a 10.626056
_cell_length_b 10.626056
_cell_length_c 13.003938
_cell_angle_alpha 90.000000
_cell_angle_beta 90.000000
_cell_angle_gamma 120.000000
_cell_volume 1271.597667
_symmetry_space_group_name_H-M "P 61 2 2"
_symmetry_group_IT_number 178
_symmetry_cell_setting 'hexagonal'
loop_
_space_group_symop_operation_xyz
x,y,z
x-y,x,1/6+z
-y,x-y,1/3+z
-x,-y,1/2+z
-x+y,-x,2/3+z
y,-x+y,5/6+z
x-y,-y,-z
-x,-x+y,2/3-z
y,x,1/3-z
-y,-x,5/6-z
-x+y,y,1/2-z
x,x-y,1/6-z
loop_
_atom_site_type_symbol
_atom_site_label
_atom_site_fract_x
_atom_site_fract_y
_atom_site_fract_z
Si Si1 0.812200 0.772694 0.964395
Si Si2 0.323618 0.000000 0.000000
Si Si3 0.698973 0.301028 0.916667
Si Si4 0.616970 0.490262 0.056625
O O1 0.809871 0.900973 0.901479
O O2 0.886042 0.710919 0.886351
O O3 0.657801 0.637174 0.997352
O O4 0.381148 0.934298 0.911003
O O5 0.827848 0.330139 0.840149
O O6 0.576456 0.299201 0.840946
#
# Coordination Sequence:
#
# PCOD9582803 Si02
#       4
#    12   6   6  12
#     4  12  29  54  85 120 174 229 282 348 425 511
#     4  12  26  50  80 118 166 226 280 342 420 506
#     4  10  22  42  74 120 162 196 272 346 420 486
#     4  11  24  45  77 121 159 214 277 346 418 494
#
# _framework density 28.310842999999998
#
# number of rings (size 3 to 8) (size 9 to 14) (size 15 to 20)
#    0.000    0.667    3.333    3.000    9.333    0.000 
#    0.000    8.333    0.000    0.000    0.000    0.000 
#    0.000    0.000    0.000    0.000    0.000    0.000 
#
# Total GULP energy -201666.908706 kJ/mol
# GULP energy per Si atom -5601.858575 kJ/mol
# Density = 2.824641 g / cm^3
# Si number density = 28.310843 Si / 1000 Ang^3
#
#
#
# Elastic Constant Matrix: (Units=GPa)
#
#
# Indices 1 2 3 4 5 6 
#
# 1 84.0963 11.5217 49.5761 0.0000 0.0000 0.0000
# 2 11.5217 84.0963 49.5761 0.0000 0.0000 0.0000
# 3 49.5761 49.5761 196.1985 0.0000 0.0000 0.0000
# 4 0.0000 0.0000 0.0000 84.4754 0.0000 0.0000
# 5 0.0000 0.0000 0.0000 0.0000 84.4754 0.0000
# 6 0.0000 0.0000 0.0000 0.0000 0.0000 36.2873
#
#
#
# Elastic Compliance Matrix: (Units=1/GPa)
#
#
# Indices 1 2 3 4 5 6 
#
# 1 0.013975 0.000196 -0.003581 0.000000 0.000000 0.000000
# 2 0.000196 0.013975 -0.003581 0.000000 0.000000 0.000000
# 3 -0.003581 -0.003581 0.006907 0.000000 0.000000 0.000000
# 4 0.000000 0.000000 0.000000 0.011838 0.000000 0.000000
# 5 0.000000 0.000000 0.000000 0.000000 0.011838 0.000000
# 6 0.000000 0.000000 0.000000 0.000000 0.000000 0.027558
#
#
# Mechanical properties :
#
#
# Convention : Reuss Voigt Hill
#
# Bulk Modulus (GPa) = 47.78746 65.08211 56.43478
# Shear Modulus (GPa) = 46.73038 57.96210 52.34624
#
# Velocity S-wave (km/s) = 4.06719 4.52967 4.30464
# Velocity P-wave (km/s) = 6.24277 7.09898 6.68460
#
# Compressibility (1/GPa) = 0.02092599
#
# Stress axis : x y z
#
# Youngs Moduli (GPa) = 71.55513 71.55513 144.79005
#
# Poissons Ratio (x) = -0.01405 0.51848
# Poissons Ratio (y) = -0.01405 0.51848
# Poissons Ratio (z) = 0.25623 0.25623
#
# Static dielectric constant tensor:
#      x y z
#    x 2.271430 0.000000 0.000000 
#    y 0.000000 2.271430 0.000000 
#    z 0.000000 0.000000 2.172720 
# 
# From -- ./inp_files/5173.got.cif
#   From: 2010.05.17/outbox.cif.g08.bks.cpg/sg178_3_cif.got.tgz:5173.got - 2010.05.20 11:30:59.
