data_PCOD9582636
_publ_section_title
;
Structure prediction by ZEFSAII (Michael W. Deem and Ramdas Pophale) SiO2 
 PCOD9582636
Probable space group: P 61 2 2
;
_chemical_formula_sum "Si O2"
_cell_formula_units_Z 66
_cell_length_a 15.228922
_cell_length_b 15.228922
_cell_length_c 16.506518
_cell_angle_alpha 90.000000
_cell_angle_beta 90.000000
_cell_angle_gamma 120.000000
_cell_volume 3315.312157
_symmetry_space_group_name_H-M "P 61 2 2"
_symmetry_group_IT_number 178
_symmetry_cell_setting 'hexagonal'
loop_
_space_group_symop_operation_xyz
x,y,z
x-y,x,1/6+z
-y,x-y,1/3+z
-x,-y,1/2+z
-x+y,-x,2/3+z
y,-x+y,5/6+z
x-y,-y,-z
-x,-x+y,2/3-z
y,x,1/3-z
-y,-x,5/6-z
-x+y,y,1/2-z
x,x-y,1/6-z
loop_
_atom_site_type_symbol
_atom_site_label
_atom_site_fract_x
_atom_site_fract_y
_atom_site_fract_z
Si Si1 0.946537 0.681830 0.022363
Si Si2 0.449974 0.860597 0.930419
Si Si3 0.229309 0.458617 0.250000
Si Si4 0.722469 0.884195 0.470258
Si Si5 0.925074 0.476727 0.948057
Si Si6 0.259411 0.447840 0.840779
O O1 0.896657 0.648140 0.110218
O O2 0.050353 0.788742 0.016442
O O3 0.879647 0.699866 0.957541
O O4 0.949170 0.583827 0.985625
O O5 0.342204 0.808591 0.885299
O O6 0.502813 0.793985 0.940396
O O7 0.521240 0.968244 0.889693
O O8 0.428180 0.883620 0.022498
O O9 0.232100 0.380573 0.186139
O O10 0.804503 0.000000 0.500000
O O11 0.847913 0.377782 0.997130
O O12 0.212298 0.424595 0.750000
#
# Coordination Sequence:
#
# PCOD9582636 Si02
#       6
#    12  12   6  12  12  12
#     4  12  24  41  67 101 129 177 226 281 342 412
#     4  10  21  38  64  95 136 180 216 273 340 398
#     4  12  20  38  64  98 138 176 216 270 342 408
#     4  12  23  42  69 100 135 165 221 289 349 403
#     4  10  20  40  63  94 137 175 220 272 330 410
#     4  10  25  44  63  93 141 189 224 276 334 413
#
# _framework density 19.907627000000002
#
# number of rings (size 3 to 8) (size 9 to 14) (size 15 to 20)
#    0.000    1.091    5.455    0.545    5.091    0.000 
#    0.000    0.909    0.000    4.364    0.000    0.000 
#    0.000    0.000    0.000    0.000    0.000    0.000 
#
# Total GULP energy -367878.031246 kJ/mol
# GULP energy per Si atom -5573.909564 kJ/mol
# Density = 1.986232 g / cm^3
# Si number density = 19.907627 Si / 1000 Ang^3
#
#
#
# Elastic Constant Matrix: (Units=GPa)
#
#
# Indices 1 2 3 4 5 6 
#
# 1 98.1472 50.6559 15.5140 0.0000 0.0000 0.0000
# 2 50.6559 98.1472 15.5140 0.0000 0.0000 0.0000
# 3 15.5140 15.5140 61.2794 0.0000 0.0000 0.0000
# 4 0.0000 0.0000 0.0000 26.4822 0.0000 0.0000
# 5 0.0000 0.0000 0.0000 0.0000 26.4822 0.0000
# 6 0.0000 0.0000 0.0000 0.0000 0.0000 23.7457
#
#
#
# Elastic Compliance Matrix: (Units=1/GPa)
#
#
# Indices 1 2 3 4 5 6 
#
# 1 0.014076 -0.006981 -0.001796 0.000000 0.000000 0.000000
# 2 -0.006981 0.014076 -0.001796 0.000000 0.000000 0.000000
# 3 -0.001796 -0.001796 0.017228 0.000000 0.000000 0.000000
# 4 0.000000 0.000000 0.000000 0.037761 0.000000 0.000000
# 5 0.000000 0.000000 0.000000 0.000000 0.037761 0.000000
# 6 0.000000 0.000000 0.000000 0.000000 0.000000 0.042113
#
#
# Mechanical properties :
#
#
# Convention : Reuss Voigt Hill
#
# Bulk Modulus (GPa) = 41.26589 46.77128 44.01859
# Shear Modulus (GPa) = 26.00932 27.06803 26.53868
#
# Velocity S-wave (km/s) = 3.61848 3.69139 3.65511
# Velocity P-wave (km/s) = 6.18316 6.45861 6.32239
#
# Compressibility (1/GPa) = 0.02423309
#
# Stress axis : x y z
#
# Youngs Moduli (GPa) = 71.04474 71.04474 58.04443
#
# Poissons Ratio (x) = 0.49595 0.10426
# Poissons Ratio (y) = 0.49595 0.10426
# Poissons Ratio (z) = 0.12761 0.12761
#
# Static dielectric constant tensor:
#      x y z
#    x 1.716600 0.000000 0.000000 
#    y 0.000000 1.716600 0.000000 
#    z 0.000000 0.000000 1.764100 
# 
# From -- ./inp_files/6718.got.cif
#   From: 2010.05.17/outbox.cif.g08.bks.cpg/sg178_4_cif.got.tgz:6718.got - 2010.05.20 11:30:59.
