data_PCOD9582554
_publ_section_title
;
Structure prediction by ZEFSAII (Michael W. Deem and Ramdas Pophale) SiO2 
 PCOD9582554
Probable space group: P 61 2 2
;
_chemical_formula_sum "Si O2"
_cell_formula_units_Z 36
_cell_length_a 21.377660
_cell_length_b 21.377660
_cell_length_c 5.056030
_cell_angle_alpha 90.000000
_cell_angle_beta 90.000000
_cell_angle_gamma 120.000000
_cell_volume 2001.062277
_symmetry_space_group_name_H-M "P 61 2 2"
_symmetry_group_IT_number 178
_symmetry_cell_setting 'hexagonal'
loop_
_space_group_symop_operation_xyz
x,y,z
x-y,x,1/6+z
-y,x-y,1/3+z
-x,-y,1/2+z
-x+y,-x,2/3+z
y,-x+y,5/6+z
x-y,-y,-z
-x,-x+y,2/3-z
y,x,1/3-z
-y,-x,5/6-z
-x+y,y,1/2-z
x,x-y,1/6-z
loop_
_atom_site_type_symbol
_atom_site_label
_atom_site_fract_x
_atom_site_fract_y
_atom_site_fract_z
Si Si1 0.046796 0.220566 0.586614
Si Si2 0.849273 0.613856 0.994359
Si Si3 0.596753 0.544471 0.417971
O O1 0.099681 0.199362 0.750000
O O2 0.092631 0.300712 0.466023
O O3 0.000000 0.172461 0.333334
O O4 0.000000 0.222815 0.833334
O O5 0.794984 0.589968 0.750000
O O6 0.804379 0.608758 0.250000
O O7 0.889221 0.568943 0.044638
O O8 0.574095 0.574095 0.666667
O O9 0.541543 0.458458 0.416667
O O10 0.580272 0.580272 0.166667
#
# Coordination Sequence:
#
# PCOD9582554 Si02
#       3
#    12  12  12
#     4  11  21  35  54  79 109 141 176 219 271 324
#     4  11  21  34  54  82 112 144 178 221 272 320
#     4  10  20  35  56  81 110 145 182 222 267 318
#
# _framework density 17.990445999999999
#
# number of rings (size 3 to 8) (size 9 to 14) (size 15 to 20)
#    0.000    1.333    0.000    9.000    0.000    0.000 
#    0.000    0.000    0.000    4.000    0.000    2.333 
#    0.000    0.000    0.000    0.000    0.000    0.000 
#
# Total GULP energy -200813.357561 kJ/mol
# GULP energy per Si atom -5578.148821 kJ/mol
# Density = 1.794950 g / cm^3
# Si number density = 17.990446 Si / 1000 Ang^3
#
#
#
# Elastic Constant Matrix: (Units=GPa)
#
#
# Indices 1 2 3 4 5 6 
#
# 1 104.6603 58.0819 36.3201 0.0000 0.0000 0.0000
# 2 58.0819 104.6603 36.3201 0.0000 0.0000 0.0000
# 3 36.3201 36.3201 124.9335 0.0000 0.0000 0.0000
# 4 0.0000 0.0000 0.0000 28.9176 0.0000 0.0000
# 5 0.0000 0.0000 0.0000 0.0000 28.9176 0.0000
# 6 0.0000 0.0000 0.0000 0.0000 0.0000 23.2892
#
#
#
# Elastic Compliance Matrix: (Units=1/GPa)
#
#
# Indices 1 2 3 4 5 6 
#
# 1 0.014265 -0.007204 -0.002053 0.000000 0.000000 0.000000
# 2 -0.007204 0.014265 -0.002053 0.000000 0.000000 0.000000
# 3 -0.002053 -0.002053 0.009198 0.000000 0.000000 0.000000
# 4 0.000000 0.000000 0.000000 0.034581 0.000000 0.000000
# 5 0.000000 0.000000 0.000000 0.000000 0.034581 0.000000
# 6 0.000000 0.000000 0.000000 0.000000 0.000000 0.042938
#
#
# Mechanical properties :
#
#
# Convention : Reuss Voigt Hill
#
# Bulk Modulus (GPa) = 66.18687 66.18871 66.18779
# Shear Modulus (GPa) = 28.17158 29.79366 28.98262
#
# Velocity S-wave (km/s) = 3.96146 4.07391 4.01808
# Velocity P-wave (km/s) = 7.60224 7.68114 7.64180
#
# Compressibility (1/GPa) = 0.01510874
#
# Stress axis : x y z
#
# Youngs Moduli (GPa) = 70.10135 70.10135 108.72199
#
# Poissons Ratio (x) = 0.50502 0.22318
# Poissons Ratio (y) = 0.50502 0.22318
# Poissons Ratio (z) = 0.14390 0.14390
#
# Static dielectric constant tensor:
#      x y z
#    x 1.674940 0.000000 0.000000 
#    y 0.000000 1.674940 0.000000 
#    z 0.000000 0.000000 1.616830 
# 
# From -- ./inp_files/597.got.cif
#   From: 2010.05.17/outbox.cif.g08.bks.cpg/sg178_1_cif.got.tgz:597.got - 2010.05.20 11:30:59.
