data_PCOD9582972
_publ_section_title
;
Structure prediction by ZEFSAII (Michael W. Deem and Ramdas Pophale) SiO2 
 PCOD9582972
Probable space group: P 61 2 2
;
_chemical_formula_sum "Si O2"
_cell_formula_units_Z 60
_cell_length_a 15.811408
_cell_length_b 15.811408
_cell_length_c 13.908130
_cell_angle_alpha 90.000000
_cell_angle_beta 90.000000
_cell_angle_gamma 120.000000
_cell_volume 3011.205978
_symmetry_space_group_name_H-M "P 61 2 2"
_symmetry_group_IT_number 178
_symmetry_cell_setting 'hexagonal'
loop_
_space_group_symop_operation_xyz
x,y,z
x-y,x,1/6+z
-y,x-y,1/3+z
-x,-y,1/2+z
-x+y,-x,2/3+z
y,-x+y,5/6+z
x-y,-y,-z
-x,-x+y,2/3-z
y,x,1/3-z
-y,-x,5/6-z
-x+y,y,1/2-z
x,x-y,1/6-z
loop_
_atom_site_type_symbol
_atom_site_label
_atom_site_fract_x
_atom_site_fract_y
_atom_site_fract_z
Si Si1 0.171067 0.823061 0.031032
Si Si2 0.212659 0.534508 0.014459
Si Si3 0.675164 0.965070 0.316710
Si Si4 0.502418 0.001345 0.384809
Si Si5 0.474039 0.294233 0.489141
O O1 0.207250 0.756079 0.082689
O O2 0.231239 0.924457 0.084960
O O3 0.179831 0.820170 0.916667
O O4 0.057121 0.772180 0.053150
O O5 0.274651 0.538485 0.921688
O O6 0.103016 0.508755 0.981543
O O7 0.256011 0.628006 0.083334
O O8 0.595084 0.997459 0.342241
O O9 0.627369 0.882658 0.235589
O O10 0.404655 0.902539 0.351206
O O11 0.505694 0.000000 0.500000
O O12 0.465969 0.232985 0.583334
#
# Coordination Sequence:
#
# PCOD9582972 Si02
#       5
#    12  12  12  12  12
#     4  11  22  39  63  92 122 166 226 266 328 395
#     4  11  22  40  62  88 133 177 217 276 321 381
#     4  11  24  41  65  95 129 171 222 269 329 393
#     4  12  21  41  69  87 133 180 217 274 326 380
#     4  11  23  39  63  96 124 173 227 266 327 384
#
# _framework density 19.92557
#
# number of rings (size 3 to 8) (size 9 to 14) (size 15 to 20)
#    0.000    0.800    6.000    2.400    0.000    0.000 
#    0.000   13.000    0.000    0.000    0.000    7.000 
#    0.000    0.000    0.000    0.000    0.000    0.000 
#
# Total GULP energy -335357.901806 kJ/mol
# GULP energy per Si atom -5589.298363 kJ/mol
# Density = 1.988022 g / cm^3
# Si number density = 19.925570 Si / 1000 Ang^3
#
#
#
# Elastic Constant Matrix: (Units=GPa)
#
#
# Indices 1 2 3 4 5 6 
#
# 1 79.5234 37.5546 30.1955 0.0000 0.0000 0.0000
# 2 37.5546 79.5234 30.1955 0.0000 0.0000 0.0000
# 3 30.1955 30.1955 146.1057 0.0000 0.0000 0.0000
# 4 0.0000 0.0000 0.0000 24.4006 0.0000 0.0000
# 5 0.0000 0.0000 0.0000 0.0000 24.4006 0.0000
# 6 0.0000 0.0000 0.0000 0.0000 0.0000 20.9844
#
#
#
# Elastic Compliance Matrix: (Units=1/GPa)
#
#
# Indices 1 2 3 4 5 6 
#
# 1 0.016694 -0.007133 -0.001976 0.000000 0.000000 0.000000
# 2 -0.007133 0.016694 -0.001976 0.000000 0.000000 0.000000
# 3 -0.001976 -0.001976 0.007661 0.000000 0.000000 0.000000
# 4 0.000000 0.000000 0.000000 0.040983 0.000000 0.000000
# 5 0.000000 0.000000 0.000000 0.000000 0.040983 0.000000
# 6 0.000000 0.000000 0.000000 0.000000 0.000000 0.047654
#
#
# Mechanical properties :
#
#
# Convention : Reuss Voigt Hill
#
# Bulk Modulus (GPa) = 52.96995 55.67150 54.32072
# Shear Modulus (GPa) = 25.10907 27.77094 26.44000
#
# Velocity S-wave (km/s) = 3.55370 3.73732 3.64667
# Velocity P-wave (km/s) = 6.59394 6.82817 6.71207
#
# Compressibility (1/GPa) = 0.01887863
#
# Stress axis : x y z
#
# Youngs Moduli (GPa) = 59.90230 59.90230 130.53031
#
# Poissons Ratio (x) = 0.42730 0.25791
# Poissons Ratio (y) = 0.42730 0.25791
# Poissons Ratio (z) = 0.11836 0.11836
#
# Static dielectric constant tensor:
#      x y z
#    x 1.718310 0.000000 0.000000 
#    y 0.000000 1.718310 0.000000 
#    z 0.000000 0.000000 1.715360 
# 
# From -- ./inp_files/5663.got.cif
#   From: 2010.05.17/outbox.cif.g08.bks.cpg/sg178_3_cif.got.tgz:5663.got - 2010.05.20 11:30:59.
