data_PCOD9582529
_publ_section_title
;
Structure prediction by ZEFSAII (Michael W. Deem and Ramdas Pophale) SiO2 
 PCOD9582529
Probable space group: P 61 2 2
;
_chemical_formula_sum "Si O2"
_cell_formula_units_Z 72
_cell_length_a 15.325716
_cell_length_b 15.325716
_cell_length_c 19.805136
_cell_angle_alpha 90.000000
_cell_angle_beta 90.000000
_cell_angle_gamma 120.000000
_cell_volume 4028.561589
_symmetry_space_group_name_H-M "P 61 2 2"
_symmetry_group_IT_number 178
_symmetry_cell_setting 'hexagonal'
loop_
_space_group_symop_operation_xyz
x,y,z
x-y,x,1/6+z
-y,x-y,1/3+z
-x,-y,1/2+z
-x+y,-x,2/3+z
y,-x+y,5/6+z
x-y,-y,-z
-x,-x+y,2/3-z
y,x,1/3-z
-y,-x,5/6-z
-x+y,y,1/2-z
x,x-y,1/6-z
loop_
_atom_site_type_symbol
_atom_site_label
_atom_site_fract_x
_atom_site_fract_y
_atom_site_fract_z
Si Si1 0.396936 0.423498 0.455703
Si Si2 0.529960 0.842834 0.542354
Si Si3 0.297956 0.798795 0.241497
Si Si4 0.392699 0.182589 0.897111
Si Si5 0.224097 0.974253 0.921901
Si Si6 0.457375 0.375833 0.720588
O O1 0.472283 0.527718 0.416667
O O2 0.436185 0.347594 0.437128
O O3 0.282377 0.383997 0.433656
O O4 0.398883 0.437867 0.536410
O O5 0.476602 0.738301 0.583334
O O6 0.565038 0.829665 0.468598
O O7 0.629263 0.912902 0.587401
O O8 0.462506 0.893177 0.535129
O O9 0.383826 0.767652 0.250000
O O10 0.272333 0.802977 0.162851
O O11 0.190623 0.725342 0.276289
O O12 0.285451 0.080609 0.884269
O O13 0.106011 0.893990 0.916667
O O14 0.236021 0.000000 0.000000
O O15 0.381960 0.381960 0.666667
#
# Coordination Sequence:
#
# PCOD9582529 Si02
#       6
#    12  12  12  12  12  12
#     4  10  23  39  60  82 119 159 195 244 297 358
#     4  10  20  33  58  87 120 144 181 236 292 352
#     4  10  24  39  59  84 114 156 202 238 292 354
#     4  10  21  37  57  86 115 153 191 238 299 354
#     4   9  19  31  54  86 113 144 180 230 292 347
#     4  11  23  39  57  87 117 155 201 241 289 348
#
# _framework density 17.872384
#
# number of rings (size 3 to 8) (size 9 to 14) (size 15 to 20)
#    0.000    2.000    0.000    3.000   16.333    2.000 
#    0.000    0.000    0.000    1.000    0.000    0.000 
#    0.000    0.000    0.000    0.000    0.000    0.000 
#
# Total GULP energy -401456.055856 kJ/mol
# GULP energy per Si atom -5575.778554 kJ/mol
# Density = 1.783171 g / cm^3
# Si number density = 17.872384 Si / 1000 Ang^3
#
#
#
# Elastic Constant Matrix: (Units=GPa)
#
#
# Indices 1 2 3 4 5 6 
#
# 1 114.9048 64.9791 40.3715 0.0000 0.0000 0.0000
# 2 64.9791 114.9048 40.3715 0.0000 0.0000 0.0000
# 3 40.3715 40.3715 83.7716 0.0000 0.0000 0.0000
# 4 0.0000 0.0000 0.0000 24.5120 0.0000 0.0000
# 5 0.0000 0.0000 0.0000 0.0000 24.5120 0.0000
# 6 0.0000 0.0000 0.0000 0.0000 0.0000 24.9628
#
#
#
# Elastic Compliance Matrix: (Units=1/GPa)
#
#
# Indices 1 2 3 4 5 6 
#
# 1 0.013562 -0.006468 -0.003419 0.000000 0.000000 0.000000
# 2 -0.006468 0.013562 -0.003419 0.000000 0.000000 0.000000
# 3 -0.003419 -0.003419 0.015232 0.000000 0.000000 0.000000
# 4 0.000000 0.000000 0.000000 0.040796 0.000000 0.000000
# 5 0.000000 0.000000 0.000000 0.000000 0.040796 0.000000
# 6 0.000000 0.000000 0.000000 0.000000 0.000000 0.040060
#
#
# Mechanical properties :
#
#
# Convention : Reuss Voigt Hill
#
# Bulk Modulus (GPa) = 63.51175 67.22505 65.36840
# Shear Modulus (GPa) = 25.52757 25.98797 25.75777
#
# Velocity S-wave (km/s) = 3.78342 3.81738 3.80044
# Velocity P-wave (km/s) = 7.39588 7.55814 7.47745
#
# Compressibility (1/GPa) = 0.01574512
#
# Stress axis : x y z
#
# Youngs Moduli (GPa) = 73.73705 73.73705 65.65032
#
# Poissons Ratio (x) = 0.47694 0.22443
# Poissons Ratio (y) = 0.47694 0.22443
# Poissons Ratio (z) = 0.25208 0.25208
#
# Static dielectric constant tensor:
#      x y z
#    x 1.673090 0.000000 0.000000 
#    y 0.000000 1.673090 0.000000 
#    z 0.000000 0.000000 1.620790 
# 
# From -- ./inp_files/6763.got.cif
#   From: 2010.05.17/outbox.cif.g08.bks.cpg/sg178_4_cif.got.tgz:6763.got - 2010.05.20 11:30:59.
