data_PCOD9582188
_publ_section_title
;
Structure prediction by ZEFSAII (Michael W. Deem and Ramdas Pophale) SiO2 
 PCOD9582188
Probable space group: P 6 2 2
;
_chemical_formula_sum "Si O2"
_cell_formula_units_Z 52
_cell_length_a 12.549182
_cell_length_b 12.549182
_cell_length_c 21.712756
_cell_angle_alpha 90.000000
_cell_angle_beta 90.000000
_cell_angle_gamma 120.000000
_cell_volume 2961.259176
_symmetry_space_group_name_H-M "P 6 2 2"
_symmetry_group_IT_number 177
_symmetry_cell_setting 'hexagonal'
loop_
_space_group_symop_operation_xyz
x,y,z
x-y,x,z
-y,x-y,z
-x,-y,z
-x+y,-x,z
y,-x+y,z
x-y,-y,-z
-x,-x+y,-z
y,x,-z
-y,-x,-z
-x+y,y,-z
x,x-y,-z
loop_
_atom_site_type_symbol
_atom_site_label
_atom_site_fract_x
_atom_site_fract_y
_atom_site_fract_z
Si Si1 0.000000 0.256172 0.000000
Si Si2 0.333334 0.666668 0.574217
Si Si3 0.043579 0.274059 0.734148
Si Si4 0.978545 0.243775 0.131831
Si Si5 0.434093 0.079339 0.385402
Si Si6 0.253261 0.000000 0.500000
O O1 0.121222 0.242444 0.000000
O O2 0.013315 0.321782 0.933949
O O3 0.333334 0.666667 0.500000
O O4 0.318742 0.781264 0.597163
O O5 0.150752 0.239375 0.730130
O O6 0.038713 0.328385 0.801643
O O7 0.069197 0.364949 0.677911
O O8 0.104939 0.240375 0.131777
O O9 0.500000 0.000000 0.379260
O O10 0.335138 0.017268 0.440102
O O11 0.120555 0.879446 0.500000
#
# Coordination Sequence:
#
# PCOD9582188 Si02
#       6
#     6   4  12  12  12   6
#     4   8  11  16  28  52  85 124 164 200 238 288
#     4  12  24  42  63  81 102 135 178 227 280 333
#     4  10  19  32  49  73 104 138 171 208 257 314
#     4   8  13  20  34  57  90 128 165 201 243 296
#     4  12  24  39  58  79 103 134 174 219 266 317
#     4  12  24  40  60  84 110 136 166 204 252 310
#
# _framework density 17.560099000000001
#
# number of rings (size 3 to 8) (size 9 to 14) (size 15 to 20)
#    0.000    1.846    0.000    7.269    0.000    3.692 
#    0.000    2.308    0.000    0.000    0.000    0.808 
#    0.000    0.000    0.000    6.000    0.000    0.692 
#
# Total GULP energy -289546.651121 kJ/mol
# GULP energy per Si atom -5568.204829 kJ/mol
# Density = 1.752013 g / cm^3
# Si number density = 17.560099 Si / 1000 Ang^3
#
#
#
# Elastic Constant Matrix: (Units=GPa)
#
#
# Indices 1 2 3 4 5 6 
#
# 1 78.6271 23.2590 61.1332 -0.0002 -0.0002 0.0000
# 2 23.2590 78.6263 61.1330 -0.0001 -0.0001 -0.0001
# 3 61.1332 61.1330 232.1794 0.0002 -0.0001 0.0000
# 4 -0.0002 -0.0001 0.0002 85.6991 0.0008 0.0000
# 5 -0.0002 -0.0001 -0.0001 0.0008 85.6983 0.0001
# 6 0.0000 -0.0001 0.0000 0.0000 0.0001 27.6838
#
#
#
# Elastic Compliance Matrix: (Units=1/GPa)
#
#
# Indices 1 2 3 4 5 6 
#
# 1 0.016205 -0.001856 -0.003778 0.000000 0.000000 0.000000
# 2 -0.001856 0.016205 -0.003778 0.000000 0.000000 0.000000
# 3 -0.003778 -0.003778 0.006297 0.000000 0.000000 0.000000
# 4 0.000000 0.000000 0.000000 0.011669 0.000000 0.000000
# 5 0.000000 0.000000 0.000000 0.000000 0.011669 0.000000
# 6 0.000000 0.000000 0.000000 0.000000 0.000000 0.036122
#
#
# Mechanical properties :
#
#
# Convention : Reuss Voigt Hill
#
# Bulk Modulus (GPa) = 50.29729 75.60925 62.95327
# Shear Modulus (GPa) = 40.44725 56.07675 48.26200
#
# Velocity S-wave (km/s) = 4.80454 5.65716 5.24820
# Velocity P-wave (km/s) = 7.71254 9.26403 8.52366
#
# Compressibility (1/GPa) = 0.01988179
#
# Stress axis : x y z
#
# Youngs Moduli (GPa) = 61.71017 61.70953 158.81763
#
# Poissons Ratio (x) = 0.11454 0.60001
# Poissons Ratio (y) = 0.11455 0.60002
# Poissons Ratio (z) = 0.23314 0.23314
#
# Static dielectric constant tensor:
#      x y z
#    x 1.535170 0.000000 0.000000 
#    y 0.000000 1.535170 0.000000 
#    z 0.000000 0.000000 1.675300 
# 
# From -- ./inp_files/3007.got.cif
#   From: 2010.05.17/outbox.cif.g08.bks.cpg/sg177_2_cif.got.tgz:3007.got - 2010.05.20 11:28:44.
