data_PCOD9582840
_publ_section_title
;
Structure prediction by ZEFSAII (Michael W. Deem and Ramdas Pophale) SiO2 
 PCOD9582840
Probable space group: P 61 2 2
;
_chemical_formula_sum "Si O2"
_cell_formula_units_Z 54
_cell_length_a 16.948836
_cell_length_b 16.948836
_cell_length_c 11.574312
_cell_angle_alpha 90.000000
_cell_angle_beta 90.000000
_cell_angle_gamma 120.000000
_cell_volume 2879.423678
_symmetry_space_group_name_H-M "P 61 2 2"
_symmetry_group_IT_number 178
_symmetry_cell_setting 'hexagonal'
loop_
_space_group_symop_operation_xyz
x,y,z
x-y,x,1/6+z
-y,x-y,1/3+z
-x,-y,1/2+z
-x+y,-x,2/3+z
y,-x+y,5/6+z
x-y,-y,-z
-x,-x+y,2/3-z
y,x,1/3-z
-y,-x,5/6-z
-x+y,y,1/2-z
x,x-y,1/6-z
loop_
_atom_site_type_symbol
_atom_site_label
_atom_site_fract_x
_atom_site_fract_y
_atom_site_fract_z
Si Si1 0.538486 0.205512 0.492711
Si Si2 0.404943 0.410974 0.922907
Si Si3 0.697876 0.202613 0.616376
Si Si4 0.600943 0.600943 0.166667
Si Si5 0.347198 0.094447 0.061687
O O1 0.497429 0.248715 0.583334
O O2 0.636241 0.232542 0.544418
O O3 0.525797 0.241043 0.369807
O O4 0.490810 0.096487 0.493893
O O5 0.511508 0.488493 0.916667
O O6 0.362436 0.368473 0.797229
O O7 0.358729 0.468072 0.974023
O O8 0.391115 0.328624 0.004548
O O9 0.743157 0.167979 0.523257
O O10 0.291140 0.145570 0.083334
O O11 0.284755 0.000000 0.000000
#
# Coordination Sequence:
#
# PCOD9582840 Si02
#       5
#    12  12  12   6  12
#     4  12  23  40  61  87 125 157 215 258 309 365
#     4  11  20  38  60  89 121 159 205 246 309 364
#     4  11  23  41  63  88 123 162 204 265 304 368
#     4  12  22  36  64  84 114 170 202 248 314 364
#     4  10  23  40  61  89 123 154 204 257 304 371
#
# _framework density 18.753753
#
# number of rings (size 3 to 8) (size 9 to 14) (size 15 to 20)
#    0.000    0.889    4.444    3.333    3.111    1.778 
#    0.000    5.556    0.000    0.000    0.000    0.000 
#   30.000    0.000    0.000    0.000    0.000    0.000 
#
# Total GULP energy -300729.334812 kJ/mol
# GULP energy per Si atom -5569.061756 kJ/mol
# Density = 1.871107 g / cm^3
# Si number density = 18.753753 Si / 1000 Ang^3
#
#
#
# Elastic Constant Matrix: (Units=GPa)
#
#
# Indices 1 2 3 4 5 6 
#
# 1 84.2079 54.7723 40.4601 0.0000 0.0000 0.0000
# 2 54.7723 84.2079 40.4601 0.0000 0.0000 0.0000
# 3 40.4601 40.4601 121.1345 0.0000 0.0000 0.0000
# 4 0.0000 0.0000 0.0000 21.9276 0.0000 0.0000
# 5 0.0000 0.0000 0.0000 0.0000 21.9276 0.0000
# 6 0.0000 0.0000 0.0000 0.0000 0.0000 14.7178
#
#
#
# Elastic Compliance Matrix: (Units=1/GPa)
#
#
# Indices 1 2 3 4 5 6 
#
# 1 0.021452 -0.012520 -0.002984 0.000000 0.000000 0.000000
# 2 -0.012520 0.021452 -0.002984 0.000000 0.000000 0.000000
# 3 -0.002984 -0.002984 0.010248 0.000000 0.000000 0.000000
# 4 0.000000 0.000000 0.000000 0.045605 0.000000 0.000000
# 5 0.000000 0.000000 0.000000 0.000000 0.045605 0.000000
# 6 0.000000 0.000000 0.000000 0.000000 0.000000 0.067945
#
#
# Mechanical properties :
#
#
# Convention : Reuss Voigt Hill
#
# Bulk Modulus (GPa) = 61.80817 62.32614 62.06715
# Shear Modulus (GPa) = 19.63293 21.97181 20.80237
#
# Velocity S-wave (km/s) = 3.23906 3.42657 3.33414
# Velocity P-wave (km/s) = 6.85697 6.99723 6.92746
#
# Compressibility (1/GPa) = 0.01617909
#
# Stress axis : x y z
#
# Youngs Moduli (GPa) = 46.61485 46.61485 97.57695
#
# Poissons Ratio (x) = 0.58362 0.29112
# Poissons Ratio (y) = 0.58362 0.29112
# Poissons Ratio (z) = 0.13908 0.13908
#
# Static dielectric constant tensor:
#      x y z
#    x 1.685020 0.000000 0.000000 
#    y 0.000000 1.685020 0.000000 
#    z 0.000000 0.000000 1.793980 
# 
# From -- ./inp_files/4397.got.cif
#   From: 2010.05.17/outbox.cif.g08.bks.cpg/sg178_3_cif.got.tgz:4397.got - 2010.05.20 11:30:59.
