data_PCOD9582244
_publ_section_title
;
Structure prediction by ZEFSAII (Michael W. Deem and Ramdas Pophale) SiO2 
 PCOD9582244
Probable space group: P 6 2 2
;
_chemical_formula_sum "Si O2"
_cell_formula_units_Z 60
_cell_length_a 17.319859
_cell_length_b 17.319859
_cell_length_c 11.617765
_cell_angle_alpha 90.000000
_cell_angle_beta 90.000000
_cell_angle_gamma 120.000000
_cell_volume 3018.157668
_symmetry_space_group_name_H-M "P 6 2 2"
_symmetry_group_IT_number 177
_symmetry_cell_setting 'hexagonal'
loop_
_space_group_symop_operation_xyz
x,y,z
x-y,x,z
-y,x-y,z
-x,-y,z
-x+y,-x,z
y,-x+y,z
x-y,-y,-z
-x,-x+y,-z
y,x,-z
-y,-x,-z
-x+y,y,-z
x,x-y,-z
loop_
_atom_site_type_symbol
_atom_site_label
_atom_site_fract_x
_atom_site_fract_y
_atom_site_fract_z
Si Si1 0.000000 0.179589 0.500000
Si Si2 0.422208 0.895561 0.876715
Si Si3 0.161446 0.784913 0.128496
Si Si4 0.785851 0.571701 0.500000
Si Si5 0.125551 0.458744 0.292388
Si Si6 0.723828 0.044529 0.672176
O O1 0.013194 0.241205 0.390855
O O2 0.085356 0.170712 0.500000
O O3 0.320364 0.870419 0.871769
O O4 0.452228 0.861583 0.766636
O O5 0.500000 0.000000 0.880494
O O6 0.428409 0.856817 0.000000
O O7 0.253643 0.838984 0.198198
O O8 0.083305 0.777992 0.209814
O O9 0.176602 0.823399 0.000000
O O10 0.818497 0.524030 0.409083
O O11 0.871877 0.625803 0.584694
O O12 0.021571 0.382541 0.313435
#
# Coordination Sequence:
#
# PCOD9582244 Si02
#       6
#     6  12  12   6  12  12
#     4  12  21  38  60  95 130 172 214 262 332 403
#     4  11  22  40  61  92 131 169 222 277 333 389
#     4  11  23  39  61  98 126 172 224 280 340 398
#     4  10  20  38  66  95 128 166 228 268 343 396
#     4  11  21  38  65  90 127 172 220 280 335 396
#     4  11  20  38  64  93 129 170 215 285 330 400
#
# _framework density 19.879677000000001
#
# number of rings (size 3 to 8) (size 9 to 14) (size 15 to 20)
#    0.000    1.000    7.000    1.300    0.000    0.800 
#    1.200    5.000    4.400    0.000    0.000    0.000 
#    0.000    1.600    0.000    0.000    0.000    0.000 
#
# Total GULP energy -334432.297378 kJ/mol
# GULP energy per Si atom -5573.871623 kJ/mol
# Density = 1.983443 g / cm^3
# Si number density = 19.879677 Si / 1000 Ang^3
#
#
#
# Elastic Constant Matrix: (Units=GPa)
#
#
# Indices 1 2 3 4 5 6 
#
# 1 51.8689 17.4572 35.1415 0.0000 0.0000 0.0000
# 2 17.4572 51.8689 35.1415 0.0000 0.0000 0.0000
# 3 35.1415 35.1415 166.1421 0.0000 0.0000 0.0000
# 4 0.0000 0.0000 0.0000 33.5289 0.0000 0.0000
# 5 0.0000 0.0000 0.0000 0.0000 33.5289 0.0000
# 6 0.0000 0.0000 0.0000 0.0000 0.0000 17.2058
#
#
#
# Elastic Compliance Matrix: (Units=1/GPa)
#
#
# Indices 1 2 3 4 5 6 
#
# 1 0.023711 -0.005349 -0.003884 0.000000 0.000000 0.000000
# 2 -0.005349 0.023711 -0.003884 0.000000 0.000000 0.000000
# 3 -0.003884 -0.003884 0.007662 0.000000 0.000000 0.000000
# 4 0.000000 0.000000 0.000000 0.029825 0.000000 0.000000
# 5 0.000000 0.000000 0.000000 0.000000 0.029825 0.000000
# 6 0.000000 0.000000 0.000000 0.000000 0.000000 0.058120
#
#
# Mechanical properties :
#
#
# Convention : Reuss Voigt Hill
#
# Bulk Modulus (GPa) = 34.66125 49.48445 42.07285
# Shear Modulus (GPa) = 23.95741 28.99538 26.47639
#
# Velocity S-wave (km/s) = 3.47525 3.82323 3.65339
# Velocity P-wave (km/s) = 5.79453 6.66599 6.24548
#
# Compressibility (1/GPa) = 0.02885066
#
# Stress axis : x y z
#
# Youngs Moduli (GPa) = 42.17458 42.17458 130.51563
#
# Poissons Ratio (x) = 0.22559 0.50690
# Poissons Ratio (y) = 0.22559 0.50690
# Poissons Ratio (z) = 0.16380 0.16380
#
# Static dielectric constant tensor:
#      x y z
#    x 1.744570 0.000000 0.000000 
#    y 0.000000 1.744570 0.000000 
#    z 0.000000 0.000000 1.761330 
# 
# From -- ./inp_files/2016.got.cif
#   From: 2010.05.17/outbox.cif.g08.bks.cpg/sg177_2_cif.got.tgz:2016.got - 2010.05.20 11:28:44.
