data_PCOD9582432
_publ_section_title
;
Structure prediction by ZEFSAII (Michael W. Deem and Ramdas Pophale) SiO2 
 PCOD9582432
Probable space group: P 61 2 2
;
_chemical_formula_sum "Si O2"
_cell_formula_units_Z 48
_cell_length_a 17.309954
_cell_length_b 17.309954
_cell_length_c 8.491505
_cell_angle_alpha 90.000000
_cell_angle_beta 90.000000
_cell_angle_gamma 120.000000
_cell_volume 2203.469933
_symmetry_space_group_name_H-M "P 61 2 2"
_symmetry_group_IT_number 178
_symmetry_cell_setting 'hexagonal'
loop_
_space_group_symop_operation_xyz
x,y,z
x-y,x,1/6+z
-y,x-y,1/3+z
-x,-y,1/2+z
-x+y,-x,2/3+z
y,-x+y,5/6+z
x-y,-y,-z
-x,-x+y,2/3-z
y,x,1/3-z
-y,-x,5/6-z
-x+y,y,1/2-z
x,x-y,1/6-z
loop_
_atom_site_type_symbol
_atom_site_label
_atom_site_fract_x
_atom_site_fract_y
_atom_site_fract_z
Si Si1 0.047964 0.179674 0.580949
Si Si2 0.000000 0.426675 0.833334
Si Si3 0.956188 0.315829 0.115661
Si Si4 0.688555 0.311446 0.416667
Si Si5 0.482645 0.372755 0.085027
O O1 0.100548 0.153119 0.454522
O O2 0.097475 0.194949 0.750000
O O3 0.051515 0.271869 0.536154
O O4 0.059395 0.401400 0.723891
O O5 0.060764 0.520210 0.919729
O O6 0.900946 0.338524 0.241659
O O7 0.058629 0.393456 0.147804
O O8 0.650187 0.325094 0.583334
O O9 0.655757 0.209081 0.384236
#
# Coordination Sequence:
#
# PCOD9582432 Si02
#       5
#    12   6  12   6  12
#     4  10  22  42  63  99 136 179 233 291 366 437
#     4  10  18  38  70  94 126 180 228 288 352 418
#     4  10  21  40  72  96 131 179 238 293 346 433
#     4  12  28  46  68 104 152 192 236 294 372 452
#     4  10  23  43  62  98 137 178 230 295 357 423
#
# _framework density 21.783823000000002
#
# number of rings (size 3 to 8) (size 9 to 14) (size 15 to 20)
#    0.000    2.000    0.000    6.000    7.000    0.000 
#    4.500   15.000    0.000    0.000    0.000    0.000 
#    0.000    0.000    0.000    0.000    0.000    0.000 
#
# Total GULP energy -267573.443941 kJ/mol
# GULP energy per Si atom -5574.446749 kJ/mol
# Density = 2.173424 g / cm^3
# Si number density = 21.783823 Si / 1000 Ang^3
#
#
#
# Elastic Constant Matrix: (Units=GPa)
#
#
# Indices 1 2 3 4 5 6 
#
# 1 89.6195 51.0410 18.5921 0.0000 0.0000 0.0000
# 2 51.0410 89.6195 18.5921 0.0000 0.0000 0.0000
# 3 18.5921 18.5921 87.5906 0.0000 0.0000 0.0000
# 4 0.0000 0.0000 0.0000 14.3473 0.0000 0.0000
# 5 0.0000 0.0000 0.0000 0.0000 14.3473 0.0000
# 6 0.0000 0.0000 0.0000 0.0000 0.0000 19.2893
#
#
#
# Elastic Compliance Matrix: (Units=1/GPa)
#
#
# Indices 1 2 3 4 5 6 
#
# 1 0.016727 -0.009195 -0.001599 0.000000 0.000000 0.000000
# 2 -0.009195 0.016727 -0.001599 0.000000 0.000000 0.000000
# 3 -0.001599 -0.001599 0.012095 0.000000 0.000000 0.000000
# 4 0.000000 0.000000 0.000000 0.069699 0.000000 0.000000
# 5 0.000000 0.000000 0.000000 0.000000 0.069699 0.000000
# 6 0.000000 0.000000 0.000000 0.000000 0.000000 0.051842
#
#
# Mechanical properties :
#
#
# Convention : Reuss Voigt Hill
#
# Bulk Modulus (GPa) = 48.15937 49.25332 48.70635
# Shear Modulus (GPa) = 18.62229 21.50374 20.06301
#
# Velocity S-wave (km/s) = 2.92698 3.14529 3.03810
# Velocity P-wave (km/s) = 5.79472 5.98745 5.89188
#
# Compressibility (1/GPa) = 0.02076439
#
# Stress axis : x y z
#
# Youngs Moduli (GPa) = 59.78516 59.78516 82.67575
#
# Poissons Ratio (x) = 0.54970 0.13218
# Poissons Ratio (y) = 0.54970 0.13218
# Poissons Ratio (z) = 0.09558 0.09558
#
# Static dielectric constant tensor:
#      x y z
#    x 1.894830 0.000000 0.000000 
#    y 0.000000 1.894830 0.000000 
#    z 0.000000 0.000000 2.000580 
# 
# From -- ./inp_files/2705.got.cif
#   From: 2010.05.17/outbox.cif.g08.bks.cpg/sg178_2_cif.got.tgz:2705.got - 2010.05.20 11:30:59.
