data_PCOD9582410
_publ_section_title
;
Structure prediction by ZEFSAII (Michael W. Deem and Ramdas Pophale) SiO2 
 PCOD9582410
Probable space group: P 61 2 2
;
_chemical_formula_sum "Si O2"
_cell_formula_units_Z 48
_cell_length_a 18.430916
_cell_length_b 18.430916
_cell_length_c 8.653026
_cell_angle_alpha 90.000000
_cell_angle_beta 90.000000
_cell_angle_gamma 120.000000
_cell_volume 2545.613585
_symmetry_space_group_name_H-M "P 61 2 2"
_symmetry_group_IT_number 178
_symmetry_cell_setting 'hexagonal'
loop_
_space_group_symop_operation_xyz
x,y,z
x-y,x,1/6+z
-y,x-y,1/3+z
-x,-y,1/2+z
-x+y,-x,2/3+z
y,-x+y,5/6+z
x-y,-y,-z
-x,-x+y,2/3-z
y,x,1/3-z
-y,-x,5/6-z
-x+y,y,1/2-z
x,x-y,1/6-z
loop_
_atom_site_type_symbol
_atom_site_label
_atom_site_fract_x
_atom_site_fract_y
_atom_site_fract_z
Si Si1 0.000000 0.738848 0.833334
Si Si2 0.582211 0.417790 0.916667
Si Si3 0.120646 0.948159 0.259674
Si Si4 0.465136 0.709214 0.915629
Si Si5 0.447356 0.141248 0.027639
O O1 0.925633 0.648703 0.781117
O O2 0.032086 0.804020 0.690700
O O3 0.555782 0.331673 0.828493
O O4 0.609888 0.491221 0.789981
O O5 0.106635 0.893366 0.416667
O O6 0.036065 0.900299 0.160002
O O7 0.377257 0.622744 0.916667
O O8 0.527327 0.689408 0.818189
O O9 0.496321 0.748161 0.083334
O O10 0.462407 0.231204 0.083334
#
# Coordination Sequence:
#
# PCOD9582410 Si02
#       5
#     6   6  12  12  12
#     4  12  24  42  58  86 134 170 194 244 328 406
#     4  10  18  34  56  84 114 150 204 258 302 360
#     4  10  22  39  67  96 123 156 211 262 310 368
#     4  11  17  31  59  88 113 141 205 274 312 342
#     4  10  22  37  58  83 116 162 200 249 317 368
#
# _framework density 18.855965000000001
#
# number of rings (size 3 to 8) (size 9 to 14) (size 15 to 20)
#    0.000    1.500    3.750    3.000    0.000    7.000 
#    2.250    2.500    0.000    0.000    0.000    0.000 
#    0.000    0.000    0.000    0.000    0.000    0.000 
#
# Total GULP energy -267479.454230 kJ/mol
# GULP energy per Si atom -5572.488630 kJ/mol
# Density = 1.881305 g / cm^3
# Si number density = 18.855965 Si / 1000 Ang^3
#
#
#
# Elastic Constant Matrix: (Units=GPa)
#
#
# Indices 1 2 3 4 5 6 
#
# 1 82.6970 21.9382 49.7895 0.0000 0.0000 0.0000
# 2 21.9382 82.6970 49.7895 0.0000 0.0000 0.0000
# 3 49.7895 49.7895 122.9010 0.0000 0.0000 0.0000
# 4 0.0000 0.0000 0.0000 11.2460 0.0000 0.0000
# 5 0.0000 0.0000 0.0000 0.0000 11.2460 0.0000
# 6 0.0000 0.0000 0.0000 0.0000 0.0000 30.3794
#
#
#
# Elastic Compliance Matrix: (Units=1/GPa)
#
#
# Indices 1 2 3 4 5 6 
#
# 1 0.016006 -0.000452 -0.006301 0.000000 0.000000 0.000000
# 2 -0.000452 0.016006 -0.006301 0.000000 0.000000 0.000000
# 3 -0.006301 -0.006301 0.013242 0.000000 0.000000 0.000000
# 4 0.000000 0.000000 0.000000 0.088921 0.000000 0.000000
# 5 0.000000 0.000000 0.000000 0.000000 0.088921 0.000000
# 6 0.000000 0.000000 0.000000 0.000000 0.000000 0.032917
#
#
# Mechanical properties :
#
#
# Convention : Reuss Voigt Hill
#
# Bulk Modulus (GPa) = 52.23308 59.03659 55.63484
# Shear Modulus (GPa) = 17.33084 21.69279 19.51181
#
# Velocity S-wave (km/s) = 3.03498 3.39550 3.22029
# Velocity P-wave (km/s) = 6.32793 6.83738 6.58758
#
# Compressibility (1/GPa) = 0.01914495
#
# Stress axis : x y z
#
# Youngs Moduli (GPa) = 62.47634 62.47634 75.51739
#
# Poissons Ratio (x) = 0.02827 0.47584
# Poissons Ratio (y) = 0.02827 0.47584
# Poissons Ratio (z) = 0.39367 0.39367
#
# Static dielectric constant tensor:
#      x y z
#    x 1.644380 0.000000 0.000000 
#    y 0.000000 1.644380 0.000000 
#    z 0.000000 0.000000 1.743270 
# 
# From -- ./inp_files/2694.got.cif
#   From: 2010.05.17/outbox.cif.g08.bks.cpg/sg178_2_cif.got.tgz:2694.got - 2010.05.20 11:30:59.
