data_PCOD9582268
_publ_section_title
;
Structure prediction by ZEFSAII (Michael W. Deem and Ramdas Pophale) SiO2 
 PCOD9582268
Probable space group: P 6 2 2
;
_chemical_formula_sum "Si O2"
_cell_formula_units_Z 34
_cell_length_a 12.446444
_cell_length_b 12.446444
_cell_length_c 12.492966
_cell_angle_alpha 90.000000
_cell_angle_beta 90.000000
_cell_angle_gamma 120.000000
_cell_volume 1676.049221
_symmetry_space_group_name_H-M "P 6 2 2"
_symmetry_group_IT_number 177
_symmetry_cell_setting 'hexagonal'
loop_
_space_group_symop_operation_xyz
x,y,z
x-y,x,z
-y,x-y,z
-x,-y,z
-x+y,-x,z
y,-x+y,z
x-y,-y,-z
-x,-x+y,-z
y,x,-z
-y,-x,-z
-x+y,y,-z
x,x-y,-z
loop_
_atom_site_type_symbol
_atom_site_label
_atom_site_fract_x
_atom_site_fract_y
_atom_site_fract_z
Si Si1 0.706129 0.873533 0.382197
Si Si2 0.000000 0.738448 0.000000
Si Si3 0.333334 0.666668 0.123830
Si Si4 0.442053 0.359915 0.796444
O O1 0.782862 0.802654 0.371926
O O2 0.647732 0.823866 0.500000
O O3 0.611027 0.861807 0.291639
O O4 0.012106 0.670637 0.107642
O O5 0.874386 0.748771 0.000000
O O6 0.200495 0.641022 0.157298
O O7 0.333334 0.666667 0.000000
O O8 0.500000 0.500000 0.751578
#
# Coordination Sequence:
#
# PCOD9582268 Si02
#       4
#    12   6   4  12
#     4  10  21  40  65  93 125 165 212 267 328 392
#     4  12  24  40  64  96 134 176 222 280 342 408
#     4  12  24  42  64  89 124 171 213 258 328 407
#     4  12  24  41  64  94 130 172 220 272 332 405
#
# _framework density 20.285800999999999
#
# number of rings (size 3 to 8) (size 9 to 14) (size 15 to 20)
#    0.000    0.706    0.000   10.588    0.000    1.412 
#    0.000   15.882    0.000    0.000    0.000    0.000 
#    0.000    0.000    0.000    0.000    0.000    0.000 
#
# Total GULP energy -189638.121303 kJ/mol
# GULP energy per Si atom -5577.591803 kJ/mol
# Density = 2.023963 g / cm^3
# Si number density = 20.285801 Si / 1000 Ang^3
#
#
#
# Elastic Constant Matrix: (Units=GPa)
#
#
# Indices 1 2 3 4 5 6 
#
# 1 92.1821 2.3812 21.9270 0.0002 0.0004 -0.0002
# 2 2.3812 92.1853 21.9292 0.0000 0.0007 0.0001
# 3 21.9270 21.9292 82.0163 0.0004 0.0009 -0.0003
# 4 0.0002 0.0000 0.0004 23.0885 0.0000 -0.0001
# 5 0.0004 0.0007 0.0009 0.0000 23.0888 -0.0001
# 6 -0.0002 0.0001 -0.0003 -0.0001 -0.0001 44.9014
#
#
#
# Elastic Compliance Matrix: (Units=1/GPa)
#
#
# Indices 1 2 3 4 5 6 
#
# 1 0.011604 0.000468 -0.003227 0.000000 0.000000 0.000000
# 2 0.000468 0.011603 -0.003228 0.000000 0.000000 0.000000
# 3 -0.003227 -0.003228 0.013919 0.000000 0.000000 0.000000
# 4 0.000000 0.000000 0.000000 0.043312 0.000000 0.000000
# 5 0.000000 0.000000 0.000000 0.000000 0.043311 0.000000
# 6 0.000000 0.000000 0.000000 0.000000 0.000000 0.022271
#
#
# Mechanical properties :
#
#
# Convention : Reuss Voigt Hill
#
# Bulk Modulus (GPa) = 39.75877 39.87317 39.81597
# Shear Modulus (GPa) = 30.05220 32.89215 31.47218
#
# Velocity S-wave (km/s) = 3.85312 4.03108 3.94310
# Velocity P-wave (km/s) = 6.27991 6.43152 6.35617
#
# Compressibility (1/GPa) = 0.02515168
#
# Stress axis : x y z
#
# Youngs Moduli (GPa) = 86.17955 86.18153 71.84672
#
# Poissons Ratio (x) = -0.04033 0.23188
# Poissons Ratio (y) = -0.04033 0.23189
# Poissons Ratio (z) = 0.27813 0.27816
#
# Static dielectric constant tensor:
#      x y z
#    x 1.700040 0.000000 -0.000010 
#    y 0.000000 1.700030 0.000000 
#    z -0.000010 0.000000 2.267340 
# 
# From -- ./inp_files/2271.got.cif
#   From: 2010.05.17/outbox.cif.g08.bks.cpg/sg177_2_cif.got.tgz:2271.got - 2010.05.20 11:28:44.
