data_PCOD9582267
_publ_section_title
;
Structure prediction by ZEFSAII (Michael W. Deem and Ramdas Pophale) SiO2 
 PCOD9582267
Probable space group: P 6 2 2
;
_chemical_formula_sum "Si O2"
_cell_formula_units_Z 84
_cell_length_a 18.203505
_cell_length_b 18.203505
_cell_length_c 14.467061
_cell_angle_alpha 90.000000
_cell_angle_beta 90.000000
_cell_angle_gamma 120.000000
_cell_volume 4151.652347
_symmetry_space_group_name_H-M "P 6 2 2"
_symmetry_group_IT_number 177
_symmetry_cell_setting 'hexagonal'
loop_
_space_group_symop_operation_xyz
x,y,z
x-y,x,z
-y,x-y,z
-x,-y,z
-x+y,-x,z
y,-x+y,z
x-y,-y,-z
-x,-x+y,-z
y,x,-z
-y,-x,-z
-x+y,y,-z
x,x-y,-z
loop_
_atom_site_type_symbol
_atom_site_label
_atom_site_fract_x
_atom_site_fract_y
_atom_site_fract_z
Si Si1 0.196960 0.052481 0.265798
Si Si2 0.330171 0.828400 0.485281
Si Si3 0.513731 0.093188 0.877573
Si Si4 0.687469 0.517943 0.051855
Si Si5 0.727496 0.670345 0.408338
Si Si6 0.395611 0.449219 0.682820
Si Si7 0.922303 0.711860 0.932397
O O1 0.164367 0.119972 0.273076
O O2 0.265695 0.074227 0.348358
O O3 0.239019 0.057555 0.164773
O O4 0.270930 0.729071 0.500000
O O5 0.427804 0.855607 0.500000
O O6 0.287227 0.868313 0.551274
O O7 0.340223 0.868484 0.385035
O O8 0.614749 0.159017 0.878314
O O9 0.468426 0.092136 0.784253
O O10 0.500000 0.000000 0.883678
O O11 0.473975 0.109695 0.966585
O O12 0.747701 0.611634 0.089612
O O13 0.741379 0.482757 0.000000
O O14 0.715119 0.715119 0.500000
O O15 0.648431 0.638965 0.338579
O O16 0.500000 0.500000 0.669543
O O17 0.868885 0.737769 0.000000
O O18 0.000000 0.728747 0.000000
#
# Coordination Sequence:
#
# PCOD9582267 Si02
#       7
#    12  12  12  12  12  12  12
#     4  12  28  47  71 102 138 181 228 289 362 428
#     4  11  23  43  67  98 141 179 216 278 345 407
#     4  10  21  40  64  90 125 178 231 275 337 403
#     4  10  22  38  59  91 135 171 220 283 335 392
#     4  10  25  43  71 101 136 174 234 288 343 417
#     4  10  21  40  68  97 126 175 233 280 339 403
#     4  11  22  39  63  96 133 172 223 281 339 413
#
# _framework density 20.232907999999998
#
# number of rings (size 3 to 8) (size 9 to 14) (size 15 to 20)
#    0.000    1.429    2.857    2.000   10.000    0.000 
#    6.000    0.000    0.000    0.857    0.000    0.000 
#    0.000    0.000    0.000    0.000    0.000    0.000 
#
# Total GULP energy -468304.928941 kJ/mol
# GULP energy per Si atom -5575.058678 kJ/mol
# Density = 2.018686 g / cm^3
# Si number density = 20.232908 Si / 1000 Ang^3
#
#
#
# Elastic Constant Matrix: (Units=GPa)
#
#
# Indices 1 2 3 4 5 6 
#
# 1 62.9025 14.8594 35.0875 0.0000 0.0000 0.0000
# 2 14.8594 62.9025 35.0875 0.0000 0.0000 0.0000
# 3 35.0875 35.0875 110.2279 0.0000 0.0000 0.0000
# 4 0.0000 0.0000 0.0000 19.2100 0.0000 0.0000
# 5 0.0000 0.0000 0.0000 0.0000 19.2100 0.0000
# 6 0.0000 0.0000 0.0000 0.0000 0.0000 24.0215
#
#
#
# Elastic Compliance Matrix: (Units=1/GPa)
#
#
# Indices 1 2 3 4 5 6 
#
# 1 0.019429 -0.001386 -0.005743 0.000000 0.000000 0.000000
# 2 -0.001386 0.019429 -0.005743 0.000000 0.000000 0.000000
# 3 -0.005743 -0.005743 0.012729 0.000000 0.000000 0.000000
# 4 0.000000 0.000000 0.000000 0.052056 0.000000 0.000000
# 5 0.000000 0.000000 0.000000 0.000000 0.052056 0.000000
# 6 0.000000 0.000000 0.000000 0.000000 0.000000 0.041629
#
#
# Mechanical properties :
#
#
# Convention : Reuss Voigt Hill
#
# Bulk Modulus (GPa) = 38.69865 45.12243 41.91054
# Shear Modulus (GPa) = 21.58089 22.55487 22.06788
#
# Velocity S-wave (km/s) = 3.26946 3.34243 3.30615
# Velocity P-wave (km/s) = 5.78106 6.10292 5.94417
#
# Compressibility (1/GPa) = 0.02584069
#
# Stress axis : x y z
#
# Youngs Moduli (GPa) = 51.47025 51.47025 78.56373
#
# Poissons Ratio (x) = 0.07134 0.45122
# Poissons Ratio (y) = 0.07134 0.45122
# Poissons Ratio (z) = 0.29561 0.29561
#
# Static dielectric constant tensor:
#      x y z
#    x 1.803980 0.000000 0.000000 
#    y 0.000000 1.803980 0.000000 
#    z 0.000000 0.000000 1.712160 
# 
# From -- ./inp_files/2613.got.cif
#   From: 2010.05.17/outbox.cif.g08.bks.cpg/sg177_2_cif.got.tgz:2613.got - 2010.05.20 11:28:44.
