data_PCOD9582786
_publ_section_title
;
Structure prediction by ZEFSAII (Michael W. Deem and Ramdas Pophale) SiO2 
 PCOD9582786
Probable space group: P 61 2 2
;
_chemical_formula_sum "Si O2"
_cell_formula_units_Z 36
_cell_length_a 8.030286
_cell_length_b 8.030286
_cell_length_c 27.839783
_cell_angle_alpha 90.000000
_cell_angle_beta 90.000000
_cell_angle_gamma 120.000000
_cell_volume 1554.742618
_symmetry_space_group_name_H-M "P 61 2 2"
_symmetry_group_IT_number 178
_symmetry_cell_setting 'hexagonal'
loop_
_space_group_symop_operation_xyz
x,y,z
x-y,x,1/6+z
-y,x-y,1/3+z
-x,-y,1/2+z
-x+y,-x,2/3+z
y,-x+y,5/6+z
x-y,-y,-z
-x,-x+y,2/3-z
y,x,1/3-z
-y,-x,5/6-z
-x+y,y,1/2-z
x,x-y,1/6-z
loop_
_atom_site_type_symbol
_atom_site_label
_atom_site_fract_x
_atom_site_fract_y
_atom_site_fract_z
Si Si1 0.854330 0.832409 0.890285
Si Si2 0.280872 0.343686 0.842769
Si Si3 0.276613 0.582479 0.138807
O O1 0.704151 0.766382 0.934433
O O2 0.646021 0.828537 0.469888
O O3 0.825796 0.981503 0.857668
O O4 0.057707 0.942293 0.916667
O O5 0.247656 0.518891 0.828828
O O6 0.501745 0.396319 0.837374
O O7 0.298435 0.649218 0.083334
#
# Coordination Sequence:
#
# PCOD9582786 Si02
#       3
#    12  12  12
#     4  11  24  44  73 104 153 194 242 307 378 451
#     4  11  22  45  74 105 144 188 244 309 375 447
#     4  10  22  41  72 104 138 187 241 301 369 447
#
# _framework density 23.154959999999999
#
# number of rings (size 3 to 8) (size 9 to 14) (size 15 to 20)
#    0.000    1.333    3.333    2.000    0.000    0.000 
#    0.000   20.000    0.000    0.000    0.000    0.000 
#    0.000    0.000    0.000    0.000    0.000    0.000 
#
# Total GULP energy -201266.977129 kJ/mol
# GULP energy per Si atom -5590.749365 kJ/mol
# Density = 2.310226 g / cm^3
# Si number density = 23.154960 Si / 1000 Ang^3
#
#
#
# Elastic Constant Matrix: (Units=GPa)
#
#
# Indices 1 2 3 4 5 6 
#
# 1 86.8008 181.0338 65.4794 0.0000 0.0000 0.0000
# 2 181.0338 86.8008 65.4794 0.0000 0.0000 0.0000
# 3 65.4794 65.4794 96.0621 0.0000 0.0000 0.0000
# 4 0.0000 0.0000 0.0000 36.4139 0.0000 0.0000
# 5 0.0000 0.0000 0.0000 0.0000 36.4139 0.0000
# 6 0.0000 0.0000 0.0000 0.0000 0.0000 -47.1165
#
#
#
# Elastic Compliance Matrix: (Units=1/GPa)
#
#
# Indices 1 2 3 4 5 6 
#
# 1 -0.002506 0.008106 -0.003817 0.000000 0.000000 0.000000
# 2 0.008106 -0.002506 -0.003817 0.000000 0.000000 0.000000
# 3 -0.003817 -0.003817 0.015614 0.000000 0.000000 0.000000
# 4 0.000000 0.000000 0.000000 0.027462 0.000000 0.000000
# 5 0.000000 0.000000 0.000000 0.000000 0.027462 0.000000
# 6 0.000000 0.000000 0.000000 0.000000 0.000000 -0.021224
#
#
# Mechanical properties :
#
#
# Convention : Reuss Voigt Hill
#
# Bulk Modulus (GPa) = 86.61662 99.29436 92.95549
# Shear Modulus (GPa) = 105.91588 2.32033 54.11811
#
# Velocity S-wave (km/s) = 6.77064 1.00213 4.83972
# Velocity P-wave (km/s) = 9.93029 6.65693 8.45356
#
# Compressibility (1/GPa) = 0.01154513
#
# Stress axis : x y z
#
# Youngs Moduli (GPa) = -399.05028 -399.05028 64.04569
#
# Poissons Ratio (x) = 3.23472 0.24448
# Poissons Ratio (y) = 3.23472 0.24448
# Poissons Ratio (z) = -1.52327 -1.52327
#
# Static dielectric constant tensor:
#      x y z
#    x 1.885310 0.000000 0.000000 
#    y 0.000000 1.885310 0.000000 
#    z 0.000000 0.000000 1.879590 
# 
# From -- ./inp_files/8533.got.cif
#   From: 2010.05.17/outbox.cif.g08.bks.cpg/sg178_5_cif.got.tgz:8533.got - 2010.05.20 11:30:59.
