data_PCOD9582726
_publ_section_title
;
Structure prediction by ZEFSAII (Michael W. Deem and Ramdas Pophale) SiO2 
 PCOD9582726
Probable space group: P 61 2 2
;
_chemical_formula_sum "Si O2"
_cell_formula_units_Z 54
_cell_length_a 11.414783
_cell_length_b 11.414783
_cell_length_c 20.678416
_cell_angle_alpha 90.000000
_cell_angle_beta 90.000000
_cell_angle_gamma 120.000000
_cell_volume 2333.367902
_symmetry_space_group_name_H-M "P 61 2 2"
_symmetry_group_IT_number 178
_symmetry_cell_setting 'hexagonal'
loop_
_space_group_symop_operation_xyz
x,y,z
x-y,x,1/6+z
-y,x-y,1/3+z
-x,-y,1/2+z
-x+y,-x,2/3+z
y,-x+y,5/6+z
x-y,-y,-z
-x,-x+y,2/3-z
y,x,1/3-z
-y,-x,5/6-z
-x+y,y,1/2-z
x,x-y,1/6-z
loop_
_atom_site_type_symbol
_atom_site_label
_atom_site_fract_x
_atom_site_fract_y
_atom_site_fract_z
Si Si1 0.350304 0.000000 0.500000
Si Si2 0.734234 0.233852 0.786287
Si Si3 0.308808 0.617616 0.750000
Si Si4 0.092638 0.185275 0.750000
Si Si5 0.868639 0.252154 0.288149
Si Si6 0.056830 0.259651 0.522462
O O1 0.357855 0.887661 0.541407
O O2 0.217532 0.926203 0.457752
O O3 0.635229 0.270459 0.750000
O O4 0.677669 0.207035 0.859280
O O5 0.745586 0.118355 0.746479
O O6 0.242495 0.699496 0.782196
O O7 0.147521 0.100485 0.790971
O O8 0.892492 0.224516 0.213245
O O9 0.000000 0.345763 0.333334
O O10 0.807599 0.102742 0.316550
#
# Coordination Sequence:
#
# PCOD9582726 Si02
#       6
#     6  12   6   6  12  12
#     4  10  22  40  74 112 140 196 260 326 396 484
#     4  11  24  48  78 109 157 212 266 337 411 497
#     4  12  29  52  74 116 158 223 280 330 406 513
#     4  10  21  42  76 112 146 197 262 336 410 477
#     4  12  29  49  78 117 162 213 268 341 416 500
#     4  11  25  50  79 117 161 206 267 344 416 498
#
# _framework density 23.142513000000001
#
# number of rings (size 3 to 8) (size 9 to 14) (size 15 to 20)
#    0.000    0.889    2.222    4.000    7.778    3.556 
#    0.000    0.000    0.000    0.000    0.000    0.000 
#    0.000    0.000    0.000    0.000    0.000    0.000 
#
# Total GULP energy -301140.578702 kJ/mol
# GULP energy per Si atom -5576.677383 kJ/mol
# Density = 2.308984 g / cm^3
# Si number density = 23.142513 Si / 1000 Ang^3
#
#
#
# Elastic Constant Matrix: (Units=GPa)
#
#
# Indices 1 2 3 4 5 6 
#
# 1 118.1977 100.8299 22.9369 0.0000 0.0000 0.0000
# 2 100.8299 118.1977 22.9369 0.0000 0.0000 0.0000
# 3 22.9369 22.9369 87.8072 0.0000 0.0000 0.0000
# 4 0.0000 0.0000 0.0000 49.6683 0.0000 0.0000
# 5 0.0000 0.0000 0.0000 0.0000 49.6683 0.0000
# 6 0.0000 0.0000 0.0000 0.0000 0.0000 8.6839
#
#
#
# Elastic Compliance Matrix: (Units=1/GPa)
#
#
# Indices 1 2 3 4 5 6 
#
# 1 0.031204 -0.026374 -0.001262 0.000000 0.000000 0.000000
# 2 -0.026374 0.031204 -0.001262 0.000000 0.000000 0.000000
# 3 -0.001262 -0.001262 0.012048 0.000000 0.000000 0.000000
# 4 0.000000 0.000000 0.000000 0.020134 0.000000 0.000000
# 5 0.000000 0.000000 0.000000 0.000000 0.020134 0.000000
# 6 0.000000 0.000000 0.000000 0.000000 0.000000 0.115156
#
#
# Mechanical properties :
#
#
# Convention : Reuss Voigt Hill
#
# Bulk Modulus (GPa) = 60.02088 68.62331 64.32209
# Shear Modulus (GPa) = 17.05167 33.43738 25.24452
#
# Velocity S-wave (km/s) = 2.71737 3.80524 3.30635
# Velocity P-wave (km/s) = 5.98641 7.00166 6.51385
#
# Compressibility (1/GPa) = 0.01666087
#
# Stress axis : x y z
#
# Youngs Moduli (GPa) = 32.04733 32.04733 83.00322
#
# Poissons Ratio (x) = 0.84522 0.10472
# Poissons Ratio (y) = 0.84522 0.10472
# Poissons Ratio (z) = 0.04043 0.04043
#
# Static dielectric constant tensor:
#      x y z
#    x 1.849910 0.000000 0.000000 
#    y 0.000000 1.849910 0.000000 
#    z 0.000000 0.000000 1.923660 
# 
# From -- ./inp_files/7464.got.cif
#   From: 2010.05.17/outbox.cif.g08.bks.cpg/sg178_4_cif.got.tgz:7464.got - 2010.05.20 11:30:59.
