data_PCOD9582157
_publ_section_title
;
Structure prediction by ZEFSAII (Michael W. Deem and Ramdas Pophale) SiO2 
 PCOD9582157
Probable space group: P 63/M
;
_chemical_formula_sum "Si O2"
_cell_formula_units_Z 52
_cell_length_a 12.000000
_cell_length_b 12.000000
_cell_length_c 21.000000
_cell_angle_alpha 90.000000
_cell_angle_beta 90.000000
_cell_angle_gamma 120.000000
_cell_volume 2618.860821
_symmetry_space_group_name_H-M "P 63/M"
_symmetry_group_IT_number 176
_symmetry_cell_setting 'hexagonal'
loop_
_space_group_symop_operation_xyz
x,y,z
x-y,x,1/2+z
-y,x-y,z
-x,-y,1/2+z
-x+y,-x,z
y,-x+y,1/2+z
-x,-y,-z
-x+y,-x,1/2-z
y,-x+y,-z
x,y,1/2-z
x-y,x,-z
-y,x-y,1/2-z
loop_
_atom_site_type_symbol
_atom_site_label
_atom_site_fract_x
_atom_site_fract_y
_atom_site_fract_z
Si Si1 0.126434 0.813269 0.750000
Si Si2 0.705586 0.879435 0.250000
Si Si3 0.386665 0.030805 0.483788
Si Si4 0.000000 0.000000 0.077907
Si Si5 0.497534 0.782860 0.629825
Si Si6 0.859406 0.162968 0.600632
O O1 0.154252 0.752408 0.687195
O O2 0.980529 0.782505 0.750000
O O3 0.216426 0.966529 0.750000
O O4 0.648475 0.847674 0.175108
O O5 0.441535 0.158014 0.438507
O O6 0.336595 0.056682 0.550995
O O7 0.500000 0.000000 0.500000
O O8 0.275306 0.922271 0.438119
O O9 0.076940 0.147402 0.101643
O O10 0.000000 0.000000 0.000000
O O11 0.372366 0.801652 0.635380
#
# Coordination Sequence:
#
# PCOD9582157 Si02
#       6
#     6   6  12   4  12  12
#     4  12  23  46  66 108 146 187 226 296 370 450
#     4  12  27  40  70 102 154 181 226 284 382 442
#     4  12  25  44  72 100 144 188 251 299 356 427
#     4  12  21  40  77 106 150 163 233 295 369 415
#     4  10  24  44  72 104 135 185 248 306 350 413
#     4  12  25  45  67 112 140 191 227 301 368 430
#
# _framework density 19.855962000000002
#
# number of rings (size 3 to 8) (size 9 to 14) (size 15 to 20)
#    0.462    0.000    4.615    3.692    6.462    0.000 
#    1.385    1.154    0.000    0.000    0.000    0.000 
#    0.000    0.000    0.000    0.000    0.000    0.000 
#
# Total GULP energy -290287.626660 kJ/mol
# GULP energy per Si atom -5582.454359 kJ/mol
# Density = 1.981077 g / cm^3
# Si number density = 19.855962 Si / 1000 Ang^3
#
#
#
# Elastic Constant Matrix: (Units=GPa)
#
#
# Indices 1 2 3 4 5 6 
#
# 1 104.3196 29.5534 42.4187 0.0000 0.0000 0.0000
# 2 29.5534 104.3196 42.4187 0.0000 0.0000 0.0000
# 3 42.4187 42.4187 193.9763 0.0000 0.0000 0.0000
# 4 0.0000 0.0000 0.0000 34.7024 0.0000 0.0000
# 5 0.0000 0.0000 0.0000 0.0000 34.7024 0.0000
# 6 0.0000 0.0000 0.0000 0.0000 0.0000 37.3831
#
#
#
# Elastic Compliance Matrix: (Units=1/GPa)
#
#
# Indices 1 2 3 4 5 6 
#
# 1 0.011023 -0.002352 -0.001896 0.000000 0.000000 0.000000
# 2 -0.002352 0.011023 -0.001896 0.000000 0.000000 0.000000
# 3 -0.001896 -0.001896 0.005985 0.000000 0.000000 0.000000
# 4 0.000000 0.000000 0.000000 0.028816 0.000000 0.000000
# 5 0.000000 0.000000 0.000000 0.000000 0.028816 0.000000
# 6 0.000000 0.000000 0.000000 0.000000 0.000000 0.026750
#
#
# Mechanical properties :
#
#
# Convention : Reuss Voigt Hill
#
# Bulk Modulus (GPa) = 63.52250 70.15524 66.83887
# Shear Modulus (GPa) = 38.47628 40.57256 39.52442
#
# Velocity S-wave (km/s) = 4.40679 4.52524 4.46641
# Velocity P-wave (km/s) = 7.61276 7.91912 7.76745
#
# Compressibility (1/GPa) = 0.01574245
#
# Stress axis : x y z
#
# Youngs Moduli (GPa) = 90.71741 90.71741 167.09481
#
# Poissons Ratio (x) = 0.21335 0.31686
# Poissons Ratio (y) = 0.21335 0.31686
# Poissons Ratio (z) = 0.17203 0.17203
#
# Static dielectric constant tensor:
#      x y z
#    x 1.713710 0.000000 0.000000 
#    y 0.000000 1.713710 0.000000 
#    z 0.000000 0.000000 1.728200 
# 
# From -- ./inp_files/3722.got.cif
#   From: 2010.05.17/outbox.ucp.g08.bks.cvg/sg176_2_cif.got.tgz:3722.got - 2010.06.11 15:18:56.
