data_PCOD9582377
_publ_section_title
;
Structure prediction by ZEFSAII (Michael W. Deem and Ramdas Pophale) SiO2 
 PCOD9582377
Probable space group: P 61 2 2
;
_chemical_formula_sum "Si O2"
_cell_formula_units_Z 60
_cell_length_a 17.851898
_cell_length_b 17.851898
_cell_length_c 15.227813
_cell_angle_alpha 90.000000
_cell_angle_beta 90.000000
_cell_angle_gamma 120.000000
_cell_volume 4202.782935
_symmetry_space_group_name_H-M "P 61 2 2"
_symmetry_group_IT_number 178
_symmetry_cell_setting 'hexagonal'
loop_
_space_group_symop_operation_xyz
x,y,z
x-y,x,1/6+z
-y,x-y,1/3+z
-x,-y,1/2+z
-x+y,-x,2/3+z
y,-x+y,5/6+z
x-y,-y,-z
-x,-x+y,2/3-z
y,x,1/3-z
-y,-x,5/6-z
-x+y,y,1/2-z
x,x-y,1/6-z
loop_
_atom_site_type_symbol
_atom_site_label
_atom_site_fract_x
_atom_site_fract_y
_atom_site_fract_z
Si Si1 0.508805 0.311190 0.813406
Si Si2 0.414027 0.001902 0.899651
Si Si3 0.998769 0.593488 0.433581
Si Si4 0.342200 0.475561 0.916376
Si Si5 0.509696 0.191380 0.151569
O O1 0.437762 0.340996 0.803632
O O2 0.489688 0.229052 0.755491
O O3 0.600532 0.396563 0.792327
O O4 0.514274 0.291737 0.915766
O O5 0.507378 0.007550 0.903140
O O6 0.352350 0.910245 0.854388
O O7 0.427040 0.079570 0.837375
O O8 0.385560 0.000000 0.000000
O O9 0.000000 0.621974 0.333334
O O10 0.075973 0.654516 0.499386
O O11 0.430153 0.569848 0.916667
O O12 0.486240 0.243120 0.083334
#
# Coordination Sequence:
#
# PCOD9582377 Si02
#       5
#    12  12  12  12  12
#     4  10  19  30  44  64  88 117 155 195 228 270
#     4   9  16  28  44  60  82 115 147 180 223 278
#     4   9  18  31  44  59  84 117 154 189 228 271
#     4  10  18  30  45  63  86 119 156 189 229 278
#     4  10  18  29  43  64  90 115 148 194 233 260
#
# _framework density 14.276255000000001
#
# number of rings (size 3 to 8) (size 9 to 14) (size 15 to 20)
#    0.000    2.400    2.000    1.800    0.000    2.400 
#    0.000    0.000    0.000    0.000    0.000    0.000 
#    0.000    0.000    0.000    0.000   15.200    0.000 
#
# Total GULP energy -334183.779666 kJ/mol
# GULP energy per Si atom -5569.729661 kJ/mol
# Density = 1.424376 g / cm^3
# Si number density = 14.276255 Si / 1000 Ang^3
#
#
#
# Elastic Constant Matrix: (Units=GPa)
#
#
# Indices 1 2 3 4 5 6 
#
# 1 44.4550 25.9262 19.0049 0.0000 0.0000 0.0000
# 2 25.9262 44.4550 19.0049 0.0000 0.0000 0.0000
# 3 19.0049 19.0049 71.0095 0.0000 0.0000 0.0000
# 4 0.0000 0.0000 0.0000 18.7181 0.0000 0.0000
# 5 0.0000 0.0000 0.0000 0.0000 18.7181 0.0000
# 6 0.0000 0.0000 0.0000 0.0000 0.0000 9.2644
#
#
#
# Elastic Compliance Matrix: (Units=1/GPa)
#
#
# Indices 1 2 3 4 5 6 
#
# 1 0.035290 -0.018681 -0.004445 0.000000 0.000000 0.000000
# 2 -0.018681 0.035290 -0.004445 0.000000 0.000000 0.000000
# 3 -0.004445 -0.004445 0.016462 0.000000 0.000000 0.000000
# 4 0.000000 0.000000 0.000000 0.053424 0.000000 0.000000
# 5 0.000000 0.000000 0.000000 0.000000 0.053424 0.000000
# 6 0.000000 0.000000 0.000000 0.000000 0.000000 0.107940
#
#
# Mechanical properties :
#
#
# Convention : Reuss Voigt Hill
#
# Bulk Modulus (GPa) = 31.34875 31.97685 31.66280
# Shear Modulus (GPa) = 13.60157 15.73902 14.67029
#
# Velocity S-wave (km/s) = 3.09000 3.32394 3.20910
# Velocity P-wave (km/s) = 5.89382 6.09743 5.99649
#
# Compressibility (1/GPa) = 0.03189920
#
# Stress axis : x y z
#
# Youngs Moduli (GPa) = 28.33701 28.33701 60.74578
#
# Poissons Ratio (x) = 0.52935 0.27003
# Poissons Ratio (y) = 0.52935 0.27003
# Poissons Ratio (z) = 0.12596 0.12596
#
# Static dielectric constant tensor:
#      x y z
#    x 1.452850 0.000000 0.000000 
#    y 0.000000 1.452850 0.000000 
#    z 0.000000 0.000000 1.515370 
# 
# From -- ./inp_files/5806.got.cif
#   From: 2010.05.17/outbox.cif.g08.bks.cpg/sg178_3_cif.got.tgz:5806.got - 2010.05.20 11:30:59.
