data_PCOD9582146
_publ_section_title
;
Structure prediction by ZEFSAII (Michael W. Deem and Ramdas Pophale) SiO2 
 PCOD9582146
Probable space group: P 63/M
;
_chemical_formula_sum "Si O2"
_cell_formula_units_Z 72
_cell_length_a 24.000000
_cell_length_b 24.000000
_cell_length_c 9.000000
_cell_angle_alpha 90.000000
_cell_angle_beta 90.000000
_cell_angle_gamma 120.000000
_cell_volume 4489.475693
_symmetry_space_group_name_H-M "P 63/M"
_symmetry_group_IT_number 176
_symmetry_cell_setting 'hexagonal'
loop_
_space_group_symop_operation_xyz
x,y,z
x-y,x,1/2+z
-y,x-y,z
-x,-y,1/2+z
-x+y,-x,z
y,-x+y,1/2+z
-x,-y,-z
-x+y,-x,1/2-z
y,-x+y,-z
x,y,1/2-z
x-y,x,-z
-y,x-y,1/2-z
loop_
_atom_site_type_symbol
_atom_site_label
_atom_site_fract_x
_atom_site_fract_y
_atom_site_fract_z
Si Si1 0.085299 0.712551 0.930185
Si Si2 0.142241 0.065168 0.069443
Si Si3 0.590201 0.506050 0.078279
Si Si4 0.055046 0.352140 0.928128
Si Si5 0.527403 0.599144 0.420604
Si Si6 0.849415 0.141103 0.429963
O O1 0.079258 0.709182 0.750000
O O2 0.110296 0.663426 0.972008
O O3 0.127279 0.786234 0.976871
O O4 0.015376 0.685340 0.000744
O O5 0.136412 0.061236 0.250000
O O6 0.217936 0.102053 0.027830
O O7 0.111067 0.105710 0.003213
O O8 0.589133 0.487619 0.250000
O O9 0.558744 0.552515 0.073341
O O10 0.544278 0.443975 0.982733
O O11 0.050491 0.350133 0.750000
O O12 0.094220 0.317577 0.978816
O O13 0.086502 0.425582 0.982809
O O14 0.527910 0.617085 0.250000
O O15 0.848763 0.140894 0.250000
#
# Coordination Sequence:
#
# PCOD9582146 Si02
#       6
#    12  12  12  12  12  12
#     4   9  17  31  47  64  89 120 151 183 226 273
#     4  11  22  37  54  71  90 116 156 205 258 308
#     4   8  14  24  41  63  86 113 143 173 206 248
#     4  10  18  29  45  66  91 118 150 185 225 271
#     4   9  16  26  41  62  89 118 144 171 206 249
#     4   9  19  33  49  68  92 121 152 191 239 291
#
# _framework density 16.037507000000002
#
# number of rings (size 3 to 8) (size 9 to 14) (size 15 to 20)
#    0.000    2.667    0.000    3.667    0.000    4.000 
#    0.000    5.000    0.000    0.000    0.000    0.000 
#    1.667    0.000    3.000    0.000    1.000    0.000 
#
# Total GULP energy -401081.707856 kJ/mol
# GULP energy per Si atom -5570.579276 kJ/mol
# Density = 1.600101 g / cm^3
# Si number density = 16.037507 Si / 1000 Ang^3
#
#
#
# Elastic Constant Matrix: (Units=GPa)
#
#
# Indices 1 2 3 4 5 6 
#
# 1 20.4641 -18.6052 -8.9206 0.0000 0.0000 0.0000
# 2 -18.6052 20.4641 -8.9206 0.0000 0.0000 0.0000
# 3 -8.9206 -8.9206 21.9629 0.0000 0.0000 0.0000
# 4 0.0000 0.0000 0.0000 15.0727 0.0000 0.0000
# 5 0.0000 0.0000 0.0000 0.0000 15.0727 0.0000
# 6 0.0000 0.0000 0.0000 0.0000 0.0000 19.5346
#
#
#
# Elastic Compliance Matrix: (Units=1/GPa)
#
#
# Indices 1 2 3 4 5 6 
#
# 1 -0.080009 -0.105604 -0.075390 0.000000 0.000000 0.000000
# 2 -0.105604 -0.080009 -0.075390 0.000000 0.000000 0.000000
# 3 -0.075390 -0.075390 -0.015711 0.000000 0.000000 0.000000
# 4 0.000000 0.000000 0.000000 0.066345 0.000000 0.000000
# 5 0.000000 0.000000 0.000000 0.000000 0.066345 0.000000
# 6 0.000000 0.000000 0.000000 0.000000 0.000000 0.051191
#
#
# Mechanical properties :
#
#
# Convention : Reuss Voigt Hill
#
# Bulk Modulus (GPa) = -1.45244 -1.11129 -1.28186
# Shear Modulus (GPa) = 17.15719 16.55850 16.85785
#
# Velocity S-wave (km/s) = 3.27435 3.21672 3.24566
# Velocity P-wave (km/s) = 3.65890 3.61966 3.63933
#
# Compressibility (1/GPa) = -0.68849775
#
# Stress axis : x y z
#
# Youngs Moduli (GPa) = -12.49861 -12.49861 -63.65124
#
# Poissons Ratio (x) = -1.31991 -4.79867
# Poissons Ratio (y) = -1.31991 -4.79867
# Poissons Ratio (z) = -0.94227 -0.94227
#
# Static dielectric constant tensor:
#      x y z
#    x 1.539960 0.000000 0.000000 
#    y 0.000000 1.539960 0.000000 
#    z 0.000000 0.000000 1.534550 
# 
# From -- ./inp_files/1198.got.cif
#   From: 2010.05.17/outbox.ucp.g08.bks.cvg/sg176_1_cif.got.tgz:1198.got - 2010.06.11 15:18:56.
