data_PCOD9582408
_publ_section_title
;
Structure prediction by ZEFSAII (Michael W. Deem and Ramdas Pophale) SiO2 
 PCOD9582408
Probable space group: P 61 2 2
;
_chemical_formula_sum "Si O2"
_cell_formula_units_Z 30
_cell_length_a 20.533348
_cell_length_b 20.533348
_cell_length_c 4.953252
_cell_angle_alpha 90.000000
_cell_angle_beta 90.000000
_cell_angle_gamma 120.000000
_cell_volume 1808.591938
_symmetry_space_group_name_H-M "P 61 2 2"
_symmetry_group_IT_number 178
_symmetry_cell_setting 'hexagonal'
loop_
_space_group_symop_operation_xyz
x,y,z
x-y,x,1/6+z
-y,x-y,1/3+z
-x,-y,1/2+z
-x+y,-x,2/3+z
y,-x+y,5/6+z
x-y,-y,-z
-x,-x+y,2/3-z
y,x,1/3-z
-y,-x,5/6-z
-x+y,y,1/2-z
x,x-y,1/6-z
loop_
_atom_site_type_symbol
_atom_site_label
_atom_site_fract_x
_atom_site_fract_y
_atom_site_fract_z
Si Si1 0.308115 0.950578 0.234916
Si Si2 0.544721 0.000000 0.500000
Si Si3 0.174969 0.087485 0.083334
Si Si4 0.716175 0.858088 0.083334
O O1 0.372180 0.936430 0.104002
O O2 0.226459 0.888231 0.318953
O O3 0.345252 0.000000 0.500000
O O4 0.299193 0.000000 0.000000
O O5 0.511397 0.022794 0.250000
O O6 0.124043 0.124043 0.166667
O O7 0.228854 0.096279 0.335556
#
# Coordination Sequence:
#
# PCOD9582408 Si02
#       4
#    12   6   6   6
#     4  10  20  33  52  79 108 144 182 212 285 329
#     4  10  18  34  54  78 110 140 164 210 268 346
#     4  12  26  39  54  70 104 156 216 256 302 328
#     4  12  22  37  56  78 110 146 190 254 284 330
#
# _framework density 16.587486999999999
#
# number of rings (size 3 to 8) (size 9 to 14) (size 15 to 20)
#    1.200    0.000    2.000    7.200    0.000    1.600 
#    0.000    0.000    0.000    0.000    0.000    0.000 
#    0.000    6.400    0.000    0.000    0.000    0.000 
#
# Total GULP energy -167030.149448 kJ/mol
# GULP energy per Si atom -5567.671648 kJ/mol
# Density = 1.654973 g / cm^3
# Si number density = 16.587487 Si / 1000 Ang^3
#
#
#
# Elastic Constant Matrix: (Units=GPa)
#
#
# Indices 1 2 3 4 5 6 
#
# 1 107.6089 66.3577 51.2962 0.0000 0.0000 0.0000
# 2 66.3577 107.6089 51.2962 0.0000 0.0000 0.0000
# 3 51.2962 51.2962 136.7419 0.0000 0.0000 0.0000
# 4 0.0000 0.0000 0.0000 17.6635 0.0000 0.0000
# 5 0.0000 0.0000 0.0000 0.0000 17.6635 0.0000
# 6 0.0000 0.0000 0.0000 0.0000 0.0000 20.6256
#
#
#
# Elastic Compliance Matrix: (Units=1/GPa)
#
#
# Indices 1 2 3 4 5 6 
#
# 1 0.015811 -0.008430 -0.002769 0.000000 0.000000 0.000000
# 2 -0.008430 0.015811 -0.002769 0.000000 0.000000 0.000000
# 3 -0.002769 -0.002769 0.009390 0.000000 0.000000 0.000000
# 4 0.000000 0.000000 0.000000 0.056614 0.000000 0.000000
# 5 0.000000 0.000000 0.000000 0.000000 0.056614 0.000000
# 6 0.000000 0.000000 0.000000 0.000000 0.000000 0.048483
#
#
# Mechanical properties :
#
#
# Convention : Reuss Voigt Hill
#
# Bulk Modulus (GPa) = 76.46950 76.65112 76.56031
# Shear Modulus (GPa) = 21.27479 23.39114 22.33297
#
# Velocity S-wave (km/s) = 3.58520 3.75929 3.67328
# Velocity P-wave (km/s) = 7.95858 8.07178 8.01538
#
# Compressibility (1/GPa) = 0.01307711
#
# Stress axis : x y z
#
# Youngs Moduli (GPa) = 63.24541 63.24541 106.49121
#
# Poissons Ratio (x) = 0.53318 0.29486
# Poissons Ratio (y) = 0.53318 0.29486
# Poissons Ratio (z) = 0.17512 0.17512
#
# Static dielectric constant tensor:
#      x y z
#    x 1.584450 0.000000 0.000000 
#    y 0.000000 1.584450 0.000000 
#    z 0.000000 0.000000 1.591880 
# 
# From -- ./inp_files/482.got.cif
#   From: 2010.05.17/outbox.cif.g08.bks.cpg/sg178_1_cif.got.tgz:482.got - 2010.05.20 11:30:59.
