data_PCOD9582746
_publ_section_title
;
Structure prediction by ZEFSAII (Michael W. Deem and Ramdas Pophale) SiO2 
 PCOD9582746
Probable space group: P 61 2 2
;
_chemical_formula_sum "Si O2"
_cell_formula_units_Z 84
_cell_length_a 20.069478
_cell_length_b 20.069478
_cell_length_c 12.108138
_cell_angle_alpha 90.000000
_cell_angle_beta 90.000000
_cell_angle_gamma 120.000000
_cell_volume 4223.574385
_symmetry_space_group_name_H-M "P 61 2 2"
_symmetry_group_IT_number 178
_symmetry_cell_setting 'hexagonal'
loop_
_space_group_symop_operation_xyz
x,y,z
x-y,x,1/6+z
-y,x-y,1/3+z
-x,-y,1/2+z
-x+y,-x,2/3+z
y,-x+y,5/6+z
x-y,-y,-z
-x,-x+y,2/3-z
y,x,1/3-z
-y,-x,5/6-z
-x+y,y,1/2-z
x,x-y,1/6-z
loop_
_atom_site_type_symbol
_atom_site_label
_atom_site_fract_x
_atom_site_fract_y
_atom_site_fract_z
Si Si1 0.718219 0.551442 0.963297
Si Si2 0.582865 0.417136 0.916667
Si Si3 0.731762 0.967590 0.125035
Si Si4 0.963536 0.300043 0.508784
Si Si5 0.092086 0.553775 0.841801
Si Si6 0.116422 0.716857 0.786652
Si Si7 0.293297 0.852053 0.445835
Si Si8 0.071594 0.143188 0.750000
O O1 0.675011 0.461793 0.930555
O O2 0.667635 0.581094 0.898840
O O3 0.804261 0.591868 0.918832
O O4 0.718906 0.572835 0.089803
O O5 0.556747 0.437818 0.801439
O O6 0.640448 0.903380 0.117002
O O7 0.794649 0.942289 0.149370
O O8 0.745232 0.026967 0.222694
O O9 0.749006 0.000000 0.000000
O O10 0.915876 0.263294 0.396949
O O11 0.048647 0.359353 0.469053
O O12 0.124960 0.642131 0.807414
O O13 0.119006 0.502909 0.770295
O O14 0.000000 0.512026 0.833334
O O15 0.236731 0.763270 0.416667
O O16 0.093661 0.093661 0.666667
#
# Coordination Sequence:
#
# PCOD9582746 Si02
#       8
#    12   6  12  12  12  12  12   6
#     4  11  22  41  65  91 131 175 219 275 332 403
#     4  10  22  38  62  89 118 176 222 246 325 396
#     4  11  21  39  66 101 128 171 217 271 327 398
#     4  11  22  39  65  97 131 166 223 272 337 386
#     4  11  22  40  61  90 124 167 218 265 320 389
#     4  11  23  40  63  96 131 173 223 278 331 405
#     4  11  23  39  60  95 131 166 213 274 331 382
#     4  10  24  44  76  97 134 178 222 268 337 422
#
# _framework density 19.888369000000001
#
# number of rings (size 3 to 8) (size 9 to 14) (size 15 to 20)
#    0.000    1.143    5.000    1.714    2.000    0.000 
#    3.857    0.000    6.286    0.000    0.000    0.000 
#    0.000    0.000    0.000    0.000    0.000    0.000 
#
# Total GULP energy -467786.502637 kJ/mol
# GULP energy per Si atom -5568.886936 kJ/mol
# Density = 1.984310 g / cm^3
# Si number density = 19.888369 Si / 1000 Ang^3
#
#
#
# Elastic Constant Matrix: (Units=GPa)
#
#
# Indices 1 2 3 4 5 6 
#
# 1 86.6983 26.7505 24.6822 0.0000 0.0000 0.0000
# 2 26.7505 86.6983 24.6822 0.0000 0.0000 0.0000
# 3 24.6822 24.6822 90.7886 0.0000 0.0000 0.0000
# 4 0.0000 0.0000 0.0000 21.1297 0.0000 0.0000
# 5 0.0000 0.0000 0.0000 0.0000 21.1297 0.0000
# 6 0.0000 0.0000 0.0000 0.0000 0.0000 29.9739
#
#
#
# Elastic Compliance Matrix: (Units=1/GPa)
#
#
# Indices 1 2 3 4 5 6 
#
# 1 0.013339 -0.003342 -0.002718 0.000000 0.000000 0.000000
# 2 -0.003342 0.013339 -0.002718 0.000000 0.000000 0.000000
# 3 -0.002718 -0.002718 0.012492 0.000000 0.000000 0.000000
# 4 0.000000 0.000000 0.000000 0.047327 0.000000 0.000000
# 5 0.000000 0.000000 0.000000 0.000000 0.047327 0.000000
# 6 0.000000 0.000000 0.000000 0.000000 0.000000 0.033362
#
#
# Mechanical properties :
#
#
# Convention : Reuss Voigt Hill
#
# Bulk Modulus (GPa) = 46.26372 46.26835 46.26603
# Shear Modulus (GPa) = 26.04882 26.98467 26.51674
#
# Velocity S-wave (km/s) = 3.62297 3.68748 3.65537
# Velocity P-wave (km/s) = 6.38854 6.43774 6.41319
#
# Compressibility (1/GPa) = 0.02161521
#
# Stress axis : x y z
#
# Youngs Moduli (GPa) = 74.96717 74.96717 80.04877
#
# Poissons Ratio (x) = 0.25054 0.21756
# Poissons Ratio (y) = 0.25054 0.21756
# Poissons Ratio (z) = 0.20375 0.20375
#
# Static dielectric constant tensor:
#      x y z
#    x 1.772070 0.000000 0.000000 
#    y 0.000000 1.772070 0.000000 
#    z 0.000000 0.000000 1.725810 
# 
# From -- ./inp_files/4817.got.cif
#   From: 2010.05.17/outbox.cif.g08.bks.cpg/sg178_3_cif.got.tgz:4817.got - 2010.05.20 11:30:59.
