data_PCOD9582608
_publ_section_title
;
Structure prediction by ZEFSAII (Michael W. Deem and Ramdas Pophale) SiO2 
 PCOD9582608
Probable space group: P 61 2 2
;
_chemical_formula_sum "Si O2"
_cell_formula_units_Z 66
_cell_length_a 20.718477
_cell_length_b 20.718477
_cell_length_c 8.077910
_cell_angle_alpha 90.000000
_cell_angle_beta 90.000000
_cell_angle_gamma 120.000000
_cell_volume 3002.930611
_symmetry_space_group_name_H-M "P 61 2 2"
_symmetry_group_IT_number 178
_symmetry_cell_setting 'hexagonal'
loop_
_space_group_symop_operation_xyz
x,y,z
x-y,x,1/6+z
-y,x-y,1/3+z
-x,-y,1/2+z
-x+y,-x,2/3+z
y,-x+y,5/6+z
x-y,-y,-z
-x,-x+y,2/3-z
y,x,1/3-z
-y,-x,5/6-z
-x+y,y,1/2-z
x,x-y,1/6-z
loop_
_atom_site_type_symbol
_atom_site_label
_atom_site_fract_x
_atom_site_fract_y
_atom_site_fract_z
Si Si1 0.513512 0.346958 0.953943
Si Si2 0.728006 0.115579 0.771488
Si Si3 0.776975 0.320886 0.168723
Si Si4 0.778984 0.014032 0.679383
Si Si5 0.749168 0.107772 0.140692
Si Si6 0.080340 0.160680 0.750000
O O1 0.566362 0.433639 0.916667
O O2 0.537381 0.297673 0.838527
O O3 0.426056 0.311992 0.918426
O O4 0.531453 0.335324 0.141240
O O5 0.676996 0.152632 0.755846
O O6 0.808381 0.185565 0.726652
O O7 0.729553 0.054179 0.655169
O O8 0.720244 0.082628 0.954669
O O9 0.760268 0.380134 0.083334
O O10 0.721435 0.939294 0.775429
O O11 0.801553 0.000000 0.500000
O O12 0.851769 0.063266 0.791478
O O13 0.109234 0.109234 0.666667
#
# Coordination Sequence:
#
# PCOD9582608 Si02
#       6
#    12  12  12  12  12   6
#     4  10  21  35  56  86 126 170 217 272 328 394
#     4  10  20  38  62  89 123 164 215 272 318 387
#     4  10  21  34  55  86 126 169 218 270 333 393
#     4  12  25  43  71  99 130 172 217 263 324 393
#     4  10  21  40  63  91 125 165 214 267 325 387
#     4  12  28  48  70 102 138 168 206 256 314 378
#
# _framework density 21.978528000000001
#
# number of rings (size 3 to 8) (size 9 to 14) (size 15 to 20)
#    0.000    1.455    0.000    6.000    2.545    6.545 
#    0.000    0.909    0.000    0.000    0.000    0.000 
#    0.000    0.000    0.000    0.000    0.000    0.000 
#
# Total GULP energy -368556.638264 kJ/mol
# GULP energy per Si atom -5584.191489 kJ/mol
# Density = 2.192850 g / cm^3
# Si number density = 21.978528 Si / 1000 Ang^3
#
#
#
# Elastic Constant Matrix: (Units=GPa)
#
#
# Indices 1 2 3 4 5 6 
#
# 1 102.9768 38.4934 41.6270 0.0000 0.0000 0.0000
# 2 38.4934 102.9768 41.6270 0.0000 0.0000 0.0000
# 3 41.6270 41.6270 112.0280 0.0000 0.0000 0.0000
# 4 0.0000 0.0000 0.0000 33.8340 0.0000 0.0000
# 5 0.0000 0.0000 0.0000 0.0000 33.8340 0.0000
# 6 0.0000 0.0000 0.0000 0.0000 0.0000 32.2417
#
#
#
# Elastic Compliance Matrix: (Units=1/GPa)
#
#
# Indices 1 2 3 4 5 6 
#
# 1 0.012277 -0.003230 -0.003362 0.000000 0.000000 0.000000
# 2 -0.003230 0.012277 -0.003362 0.000000 0.000000 0.000000
# 3 -0.003362 -0.003362 0.011425 0.000000 0.000000 0.000000
# 4 0.000000 0.000000 0.000000 0.029556 0.000000 0.000000
# 5 0.000000 0.000000 0.000000 0.000000 0.029556 0.000000
# 6 0.000000 0.000000 0.000000 0.000000 0.000000 0.031016
#
#
# Mechanical properties :
#
#
# Convention : Reuss Voigt Hill
#
# Bulk Modulus (GPa) = 62.22051 62.38629 62.30340
# Shear Modulus (GPa) = 33.03123 33.06422 33.04773
#
# Velocity S-wave (km/s) = 3.88091 3.88285 3.88188
# Velocity P-wave (km/s) = 6.96083 6.96770 6.96426
#
# Compressibility (1/GPa) = 0.01607187
#
# Stress axis : x y z
#
# Youngs Moduli (GPa) = 81.45057 81.45057 87.53088
#
# Poissons Ratio (x) = 0.26312 0.29425
# Poissons Ratio (y) = 0.26312 0.29425
# Poissons Ratio (z) = 0.27381 0.27381
#
# Static dielectric constant tensor:
#      x y z
#    x 1.835150 0.000000 0.000000 
#    y 0.000000 1.835150 0.000000 
#    z 0.000000 0.000000 1.858710 
# 
# From -- ./inp_files/3278.got.cif
#   From: 2010.05.17/outbox.cif.g08.bks.cpg/sg178_2_cif.got.tgz:3278.got - 2010.05.20 11:30:59.
