data_PCOD9582880
_publ_section_title
;
Structure prediction by ZEFSAII (Michael W. Deem and Ramdas Pophale) SiO2 
 PCOD9582880
Probable space group: P 61 2 2
;
_chemical_formula_sum "Si O2"
_cell_formula_units_Z 60
_cell_length_a 15.338268
_cell_length_b 15.338268
_cell_length_c 13.727612
_cell_angle_alpha 90.000000
_cell_angle_beta 90.000000
_cell_angle_gamma 120.000000
_cell_volume 2796.908578
_symmetry_space_group_name_H-M "P 61 2 2"
_symmetry_group_IT_number 178
_symmetry_cell_setting 'hexagonal'
loop_
_space_group_symop_operation_xyz
x,y,z
x-y,x,1/6+z
-y,x-y,1/3+z
-x,-y,1/2+z
-x+y,-x,2/3+z
y,-x+y,5/6+z
x-y,-y,-z
-x,-x+y,2/3-z
y,x,1/3-z
-y,-x,5/6-z
-x+y,y,1/2-z
x,x-y,1/6-z
loop_
_atom_site_type_symbol
_atom_site_label
_atom_site_fract_x
_atom_site_fract_y
_atom_site_fract_z
Si Si1 0.403062 0.868175 0.147297
Si Si2 0.808029 0.204993 0.706822
Si Si3 0.073818 0.926183 0.416667
Si Si4 0.639898 0.000000 0.500000
Si Si5 0.862578 0.725156 0.750000
Si Si6 0.764234 0.528467 0.250000
Si Si7 0.230972 0.986066 0.739043
O O1 0.457165 0.914329 0.250000
O O2 0.286635 0.786766 0.170722
O O3 0.460964 0.814335 0.105771
O O4 0.397817 0.947763 0.077152
O O5 0.822419 0.230868 0.820947
O O6 0.903846 0.257393 0.636553
O O7 0.769675 0.085223 0.707610
O O8 0.000000 0.917261 0.333334
O O9 0.026251 0.821244 0.474243
O O10 0.746497 0.084791 0.453108
O O11 0.927321 0.782722 0.653987
#
# Coordination Sequence:
#
# PCOD9582880 Si02
#       7
#    12  12   6   6   6   6  12
#     4  10  23  47  71 104 143 185 243 308 373 445
#     4  11  23  43  72 100 144 188 241 297 367 443
#     4  12  27  43  60 104 142 182 246 288 346 432
#     4  12  24  48  76 112 146 198 252 306 388 466
#     4  12  24  45  76 103 150 199 242 306 367 462
#     4  10  25  44  72  99 142 185 238 322 373 434
#     4  12  23  42  70 103 144 194 239 296 360 441
#
# _framework density 21.452255999999998
#
# number of rings (size 3 to 8) (size 9 to 14) (size 15 to 20)
#    0.000    0.800    6.000    0.600    0.000    4.000 
#    5.400    0.000    6.600    0.000    0.000    0.000 
#    0.000    0.000    0.000    0.000    0.000    0.000 
#
# Total GULP energy -334941.293389 kJ/mol
# GULP energy per Si atom -5582.354890 kJ/mol
# Density = 2.140343 g / cm^3
# Si number density = 21.452256 Si / 1000 Ang^3
#
#
#
# Elastic Constant Matrix: (Units=GPa)
#
#
# Indices 1 2 3 4 5 6 
#
# 1 -88.6177 196.5251 42.6103 0.0000 0.0000 0.0000
# 2 196.5251 -88.6177 42.6103 0.0000 0.0000 0.0000
# 3 42.6103 42.6103 134.8249 0.0000 0.0000 0.0000
# 4 0.0000 0.0000 0.0000 42.1045 0.0000 0.0000
# 5 0.0000 0.0000 0.0000 0.0000 42.1045 0.0000
# 6 0.0000 0.0000 0.0000 0.0000 0.0000 -142.5714
#
#
#
# Elastic Compliance Matrix: (Units=1/GPa)
#
#
# Indices 1 2 3 4 5 6 
#
# 1 0.004421 0.007928 -0.003903 0.000000 0.000000 0.000000
# 2 0.007928 0.004421 -0.003903 0.000000 0.000000 0.000000
# 3 -0.003903 -0.003903 0.009884 0.000000 0.000000 0.000000
# 4 0.000000 0.000000 0.000000 0.023750 0.000000 0.000000
# 5 0.000000 0.000000 0.000000 0.000000 0.023750 0.000000
# 6 0.000000 0.000000 0.000000 0.000000 0.000000 -0.007014
#
#
# Mechanical properties :
#
#
# Convention : Reuss Voigt Hill
#
# Bulk Modulus (GPa) = 52.71119 57.89788 55.30453
# Shear Modulus (GPa) = 76.57841 -33.28289 21.64776
#
# Velocity S-wave (km/s) = 5.98119 -3.94316 3.18010
# Velocity P-wave (km/s) = 8.50437 2.51324 6.27059
#
# Compressibility (1/GPa) = 0.01897130
#
# Stress axis : x y z
#
# Youngs Moduli (GPa) = 226.17780 226.17780 101.17317
#
# Poissons Ratio (x) = -1.79321 0.39488
# Poissons Ratio (y) = -1.79321 0.39488
# Poissons Ratio (z) = 0.88277 0.88277
#
# Static dielectric constant tensor:
#      x y z
#    x 1.804770 0.000000 0.000000 
#    y 0.000000 1.804770 0.000000 
#    z 0.000000 0.000000 1.822780 
# 
# From -- ./inp_files/5777.got.cif
#   From: 2010.05.17/outbox.cif.g08.bks.cpg/sg178_3_cif.got.tgz:5777.got - 2010.05.20 11:30:59.
