data_PCOD9582356
_publ_section_title
;
Structure prediction by ZEFSAII (Michael W. Deem and Ramdas Pophale) SiO2 
 PCOD9582356
Probable space group: P 61 2 2
;
_chemical_formula_sum "Si O2"
_cell_formula_units_Z 84
_cell_length_a 17.521599
_cell_length_b 17.521599
_cell_length_c 15.759617
_cell_angle_alpha 90.000000
_cell_angle_beta 90.000000
_cell_angle_gamma 120.000000
_cell_volume 4190.093982
_symmetry_space_group_name_H-M "P 61 2 2"
_symmetry_group_IT_number 178
_symmetry_cell_setting 'hexagonal'
loop_
_space_group_symop_operation_xyz
x,y,z
x-y,x,1/6+z
-y,x-y,1/3+z
-x,-y,1/2+z
-x+y,-x,2/3+z
y,-x+y,5/6+z
x-y,-y,-z
-x,-x+y,2/3-z
y,x,1/3-z
-y,-x,5/6-z
-x+y,y,1/2-z
x,x-y,1/6-z
loop_
_atom_site_type_symbol
_atom_site_label
_atom_site_fract_x
_atom_site_fract_y
_atom_site_fract_z
Si Si1 0.200229 0.495654 0.402285
Si Si2 0.701765 0.911910 0.827926
Si Si3 0.128486 0.634723 0.131673
Si Si4 0.154092 0.491507 0.593704
Si Si5 0.894582 0.691805 0.833999
Si Si6 0.313163 0.200599 0.494752
Si Si7 0.403784 0.762083 0.955267
O O1 0.300787 0.517644 0.411203
O O2 0.162342 0.467338 0.496511
O O3 0.145293 0.413867 0.340276
O O4 0.200699 0.582525 0.371485
O O5 0.610464 0.912363 0.809718
O O6 0.713223 0.857990 0.750861
O O7 0.694134 0.862412 0.916440
O O8 0.779019 0.012592 0.828913
O O9 0.083104 0.541552 0.083334
O O10 0.160775 0.621397 0.222774
O O11 0.118990 0.559495 0.583334
O O12 0.108443 0.402486 0.646328
O O13 0.253362 0.545824 0.630937
O O14 0.855662 0.711324 0.750000
O O15 0.000000 0.743424 0.833334
O O16 0.318267 0.159134 0.583334
O O17 0.308734 0.691267 0.916667
#
# Coordination Sequence:
#
# PCOD9582356 Si02
#       7
#    12  12  12  12  12  12  12
#     4  10  20  35  55  90 131 171 223 259 311 359
#     4  11  25  47  68  99 133 166 218 274 335 411
#     4  10  19  34  58  91 131 175 221 258 311 362
#     4  10  23  36  60  93 132 179 222 273 303 359
#     4  11  23  41  69  98 128 169 206 262 343 407
#     4  12  25  47  73  94 128 174 220 271 340 407
#     4  10  17  29  55  84 124 172 221 254 291 352
#
# _framework density 20.047283
#
# number of rings (size 3 to 8) (size 9 to 14) (size 15 to 20)
#    0.000    1.429    5.714    1.714    4.000    0.571 
#    0.000    1.429    0.000    8.571    0.000    0.000 
#    0.000    0.000    0.000    0.000    0.000    0.000 
#
# Total GULP energy -468971.932193 kJ/mol
# GULP energy per Si atom -5582.999193 kJ/mol
# Density = 2.000165 g / cm^3
# Si number density = 20.047283 Si / 1000 Ang^3
#
#
#
# Elastic Constant Matrix: (Units=GPa)
#
#
# Indices 1 2 3 4 5 6 
#
# 1 77.6854 58.1311 51.8822 0.0000 0.0000 0.0000
# 2 58.1311 77.6854 51.8822 0.0000 0.0000 0.0000
# 3 51.8822 51.8822 125.7404 0.0000 0.0000 0.0000
# 4 0.0000 0.0000 0.0000 9.9261 0.0000 0.0000
# 5 0.0000 0.0000 0.0000 0.0000 9.9261 0.0000
# 6 0.0000 0.0000 0.0000 0.0000 0.0000 9.7771
#
#
#
# Elastic Compliance Matrix: (Units=1/GPa)
#
#
# Indices 1 2 3 4 5 6 
#
# 1 0.030946 -0.020194 -0.004437 0.000000 0.000000 0.000000
# 2 -0.020194 0.030946 -0.004437 0.000000 0.000000 0.000000
# 3 -0.004437 -0.004437 0.011614 0.000000 0.000000 0.000000
# 4 0.000000 0.000000 0.000000 0.100744 0.000000 0.000000
# 5 0.000000 0.000000 0.000000 0.000000 0.100744 0.000000
# 6 0.000000 0.000000 0.000000 0.000000 0.000000 0.102280
#
#
# Mechanical properties :
#
#
# Convention : Reuss Voigt Hill
#
# Bulk Modulus (GPa) = 65.05086 67.21135 66.13111
# Shear Modulus (GPa) = 11.34989 13.87357 12.61173
#
# Velocity S-wave (km/s) = 2.38198 2.63352 2.51091
# Velocity P-wave (km/s) = 6.33122 6.54572 6.43936
#
# Compressibility (1/GPa) = 0.01537259
#
# Stress axis : x y z
#
# Youngs Moduli (GPa) = 32.31420 32.31420 86.10218
#
# Poissons Ratio (x) = 0.65254 0.38200
# Poissons Ratio (y) = 0.65254 0.38200
# Poissons Ratio (z) = 0.14337 0.14337
#
# Static dielectric constant tensor:
#      x y z
#    x 1.709120 0.000000 0.000000 
#    y 0.000000 1.709120 0.000000 
#    z 0.000000 0.000000 1.721100 
# 
# From -- ./inp_files/6024.got.cif
#   From: 2010.05.17/outbox.cif.g08.bks.cpg/sg178_4_cif.got.tgz:6024.got - 2010.05.20 11:30:59.
