data_PCOD9582122
_publ_section_title
;
Structure prediction by ZEFSAII (Michael W. Deem and Ramdas Pophale) SiO2 
 PCOD9582122
Probable space group: P 63/M
;
_chemical_formula_sum "Si O2"
_cell_formula_units_Z 40
_cell_length_a 15.112963
_cell_length_b 15.112963
_cell_length_c 7.479062
_cell_angle_alpha 90.000000
_cell_angle_beta 90.000000
_cell_angle_gamma 120.000000
_cell_volume 1479.370667
_symmetry_space_group_name_H-M "P 63/M"
_symmetry_group_IT_number 176
_symmetry_cell_setting 'hexagonal'
loop_
_space_group_symop_operation_xyz
x,y,z
x-y,x,1/2+z
-y,x-y,z
-x,-y,1/2+z
-x+y,-x,z
y,-x+y,1/2+z
-x,-y,-z
-x+y,-x,1/2-z
y,-x+y,-z
x,y,1/2-z
x-y,x,-z
-y,x-y,1/2-z
loop_
_atom_site_type_symbol
_atom_site_label
_atom_site_fract_x
_atom_site_fract_y
_atom_site_fract_z
Si Si1 0.234082 0.128755 0.045306
Si Si2 0.336627 0.923474 0.968491
Si Si3 0.666668 0.333334 0.972733
Si Si4 0.138762 0.644683 0.455223
O O1 0.249285 0.110788 0.250000
O O2 0.343830 0.218957 0.975057
O O3 0.178450 0.017909 0.956959
O O4 0.340370 0.922685 0.750000
O O5 0.394439 0.042770 0.029406
O O6 0.414219 0.888520 0.040398
O O7 0.666667 0.333334 0.750000
O O8 0.554201 0.250705 0.038371
O O9 0.149052 0.676021 0.250000
#
# Coordination Sequence:
#
# PCOD9582122 Si02
#       4
#    12  12   4  12
#     4  11  24  41  62  86 114 146 186 234 287 344
#     4   9  20  37  56  82 113 147 188 231 276 329
#     4   9  18  30  55  86 112 147 187 224 268 327
#     4   9  18  34  56  82 114 151 190 228 270 326
#
# _framework density 27.038523000000001
#
# number of rings (size 3 to 8) (size 9 to 14) (size 15 to 20)
#    0.000    2.400    0.000    1.200    4.200    2.400 
#    0.000    1.500    0.000    0.000    0.000    0.000 
#    0.000    0.000    0.000    0.000    0.000    0.000 
#
# Total GULP energy -223688.757189 kJ/mol
# GULP energy per Si atom -5592.218930 kJ/mol
# Density = 2.697698 g / cm^3
# Si number density = 27.038523 Si / 1000 Ang^3
#
#
#
# Elastic Constant Matrix: (Units=GPa)
#
#
# Indices 1 2 3 4 5 6 
#
# 1 119.2376 -1.4004 16.7278 0.0000 0.0000 -0.0003
# 2 -1.4004 119.2404 16.7280 0.0000 0.0000 -0.0012
# 3 16.7278 16.7280 120.7427 0.0000 0.0000 0.0000
# 4 0.0000 0.0000 0.0000 21.9333 -0.0002 0.0000
# 5 0.0000 0.0000 0.0000 -0.0002 21.9325 0.0000
# 6 -0.0003 -0.0012 0.0000 0.0000 0.0000 60.3194
#
#
#
# Elastic Compliance Matrix: (Units=1/GPa)
#
#
# Indices 1 2 3 4 5 6 
#
# 1 0.008562 0.000272 -0.001224 0.000000 0.000000 0.000000
# 2 0.000272 0.008561 -0.001224 0.000000 0.000000 0.000000
# 3 -0.001224 -0.001224 0.008621 0.000000 0.000000 0.000000
# 4 0.000000 0.000000 0.000000 0.045593 0.000000 0.000000
# 5 0.000000 0.000000 0.000000 0.000000 0.045594 0.000000
# 6 0.000000 0.000000 0.000000 0.000000 0.000000 0.016578
#
#
# Mechanical properties :
#
#
# Convention : Reuss Voigt Hill
#
# Bulk Modulus (GPa) = 46.74393 47.03683 46.89038
# Shear Modulus (GPa) = 34.48475 42.64805 38.56640
#
# Velocity S-wave (km/s) = 3.57514 3.97584 3.78080
# Velocity P-wave (km/s) = 5.86239 6.20568 6.03647
#
# Compressibility (1/GPa) = 0.02139315
#
# Stress axis : x y z
#
# Youngs Moduli (GPa) = 116.80193 116.80460 115.99348
#
# Poissons Ratio (x) = -0.03180 0.14196
# Poissons Ratio (y) = -0.03180 0.14195
# Poissons Ratio (z) = 0.14295 0.14295
#
# Static dielectric constant tensor:
#      x y z
#    x 2.178620 0.000010 0.000000 
#    y 0.000010 2.178620 0.000000 
#    z 0.000000 0.000000 1.973790 
# 
# From -- ./inp_files/468.got.cif
#   From: 2010.05.17/outbox.cif.g08.bks.cpg/sg176_1_cif.got.tgz:468.got - 2010.06.03 11:36:45.
