data_PCOD9582975
_publ_section_title
;
Structure prediction by ZEFSAII (Michael W. Deem and Ramdas Pophale) SiO2 
 PCOD9582975
Probable space group: P 61 2 2
;
_chemical_formula_sum "Si O2"
_cell_formula_units_Z 78
_cell_length_a 18.322273
_cell_length_b 18.322273
_cell_length_c 13.969361
_cell_angle_alpha 90.000000
_cell_angle_beta 90.000000
_cell_angle_gamma 120.000000
_cell_volume 4061.307489
_symmetry_space_group_name_H-M "P 61 2 2"
_symmetry_group_IT_number 178
_symmetry_cell_setting 'hexagonal'
loop_
_space_group_symop_operation_xyz
x,y,z
x-y,x,1/6+z
-y,x-y,1/3+z
-x,-y,1/2+z
-x+y,-x,2/3+z
y,-x+y,5/6+z
x-y,-y,-z
-x,-x+y,2/3-z
y,x,1/3-z
-y,-x,5/6-z
-x+y,y,1/2-z
x,x-y,1/6-z
loop_
_atom_site_type_symbol
_atom_site_label
_atom_site_fract_x
_atom_site_fract_y
_atom_site_fract_z
Si Si1 0.659308 0.078198 0.101186
Si Si2 0.779444 0.220557 0.416667
Si Si3 0.741110 0.348651 0.195509
Si Si4 0.587110 0.774278 0.793412
Si Si5 0.661651 0.041577 0.740279
Si Si6 0.465198 0.151359 0.594251
Si Si7 0.067835 0.481534 0.243266
O O1 0.739164 0.164153 0.136341
O O2 0.571216 0.077076 0.118958
O O3 0.671923 0.014392 0.169504
O O4 0.662328 0.082489 0.986548
O O5 0.805161 0.196408 0.517546
O O6 0.674967 0.158907 0.418758
O O7 0.651206 0.302412 0.250000
O O8 0.793800 0.302392 0.210065
O O9 0.793764 0.435496 0.254635
O O10 0.730866 0.365433 0.083334
O O11 0.645920 0.741778 0.839889
O O12 0.655533 0.112911 0.801486
O O13 0.584100 0.982505 0.674261
O O14 0.430321 0.215161 0.583334
O O15 0.000000 0.443899 0.333334
#
# Coordination Sequence:
#
# PCOD9582975 Si02
#       7
#    12   6  12  12  12  12  12
#     4  12  26  41  63  91 119 168 219 271 336 402
#     4  12  26  42  60  86 118 158 216 272 334 384
#     4  11  23  36  56  78 115 159 200 266 327 381
#     4  12  25  41  60  85 122 155 215 275 331 389
#     4  12  24  41  63  85 119 158 213 269 324 393
#     4  11  22  41  59  87 119 158 207 263 331 387
#     4  12  26  43  65  89 124 170 227 280 335 393
#
# _framework density 19.205636999999999
#
# number of rings (size 3 to 8) (size 9 to 14) (size 15 to 20)
#    0.000    0.308    6.154    3.692    7.538    0.000 
#    0.000    0.000    0.000    0.000    0.000    0.000 
#    0.000    0.000    0.000    0.000   43.846    0.000 
#
# Total GULP energy -434358.669380 kJ/mol
# GULP energy per Si atom -5568.700889 kJ/mol
# Density = 1.916192 g / cm^3
# Si number density = 19.205637 Si / 1000 Ang^3
#
#
#
# Elastic Constant Matrix: (Units=GPa)
#
#
# Indices 1 2 3 4 5 6 
#
# 1 63.4945 24.5404 19.7857 0.0000 0.0000 0.0000
# 2 24.5404 63.4945 19.7857 0.0000 0.0000 0.0000
# 3 19.7857 19.7857 148.1162 0.0000 0.0000 0.0000
# 4 0.0000 0.0000 0.0000 33.7625 0.0000 0.0000
# 5 0.0000 0.0000 0.0000 0.0000 33.7625 0.0000
# 6 0.0000 0.0000 0.0000 0.0000 0.0000 19.4770
#
#
#
# Elastic Compliance Matrix: (Units=1/GPa)
#
#
# Indices 1 2 3 4 5 6 
#
# 1 0.018878 -0.006793 -0.001614 0.000000 0.000000 0.000000
# 2 -0.006793 0.018878 -0.001614 0.000000 0.000000 0.000000
# 3 -0.001614 -0.001614 0.007183 0.000000 0.000000 0.000000
# 4 0.000000 0.000000 0.000000 0.029619 0.000000 0.000000
# 5 0.000000 0.000000 0.000000 0.000000 0.029619 0.000000
# 6 0.000000 0.000000 0.000000 0.000000 0.000000 0.051343
#
#
# Mechanical properties :
#
#
# Convention : Reuss Voigt Hill
#
# Bulk Modulus (GPa) = 40.16868 44.81431 42.49150
# Shear Modulus (GPa) = 27.19449 31.46661 29.33055
#
# Velocity S-wave (km/s) = 3.76701 4.05211 3.91216
# Velocity P-wave (km/s) = 6.31514 6.72885 6.52527
#
# Compressibility (1/GPa) = 0.02489502
#
# Stress axis : x y z
#
# Youngs Moduli (GPa) = 52.97168 52.97168 139.22260
#
# Poissons Ratio (x) = 0.35985 0.22475
# Poissons Ratio (y) = 0.35985 0.22475
# Poissons Ratio (z) = 0.08551 0.08551
#
# Static dielectric constant tensor:
#      x y z
#    x 1.650500 0.000000 0.000000 
#    y 0.000000 1.650500 0.000000 
#    z 0.000000 0.000000 1.768100 
# 
# From -- ./inp_files/5991.got.cif
#   From: 2010.05.17/outbox.cif.g08.bks.cpg/sg178_3_cif.got.tgz:5991.got - 2010.05.20 11:30:59.
