data_PCOD9582276
_publ_section_title
;
Structure prediction by ZEFSAII (Michael W. Deem and Ramdas Pophale) SiO2 
 PCOD9582276
Probable space group: P 6 2 2
;
_chemical_formula_sum "Si O2"
_cell_formula_units_Z 59
_cell_length_a 15.029842
_cell_length_b 15.029842
_cell_length_c 15.637625
_cell_angle_alpha 90.000000
_cell_angle_beta 90.000000
_cell_angle_gamma 120.000000
_cell_volume 3059.216804
_symmetry_space_group_name_H-M "P 6 2 2"
_symmetry_group_IT_number 177
_symmetry_cell_setting 'hexagonal'
loop_
_space_group_symop_operation_xyz
x,y,z
x-y,x,z
-y,x-y,z
-x,-y,z
-x+y,-x,z
y,-x+y,z
x-y,-y,-z
-x,-x+y,-z
y,x,-z
-y,-x,-z
-x+y,y,-z
x,x-y,-z
loop_
_atom_site_type_symbol
_atom_site_label
_atom_site_fract_x
_atom_site_fract_y
_atom_site_fract_z
Si Si1 0.156463 0.578232 0.500000
Si Si2 0.927771 0.163898 0.827133
Si Si3 0.000000 0.354478 0.500000
Si Si4 0.822518 0.771952 0.622883
Si Si5 0.000000 0.500000 0.000000
Si Si6 0.666668 0.333334 0.174648
Si Si7 0.542927 0.833324 0.915759
Si Si8 0.666668 0.333334 0.622321
O O1 0.086402 0.622505 0.464647
O O2 0.227869 0.645815 0.577887
O O3 0.934817 0.181781 0.724526
O O4 0.883628 0.231012 0.869103
O O5 0.044709 0.195494 0.850092
O O6 0.945585 0.266443 0.570666
O O7 0.802571 0.864812 0.600598
O O8 0.074715 0.476101 0.056323
O O9 0.695151 0.249387 0.139436
O O10 0.666668 0.333334 0.277070
O O11 0.546348 0.773174 0.000000
#
# Coordination Sequence:
#
# PCOD9582276 Si02
#       8
#     6  12   6  12   3   4  12   4
#     4   9  24  44  58  90 128 172 214 271 338 394
#     4  10  23  42  66  99 135 177 223 276 333 403
#     4  11  22  38  63  88 126 170 219 274 324 397
#     4  10  22  37  62  91 129 167 215 269 327 386
#     4  12  24  44  68  92 138 178 208 276 346 396
#     4  12  26  44  72 100 134 172 234 284 335 417
#     4  12  24  46  69 102 136 179 222 280 343 410
#     4  10  25  43  70  85 131 172 217 271 343 391
#
# _framework density 19.285981
#
# number of rings (size 3 to 8) (size 9 to 14) (size 15 to 20)
#    0.000    1.424    2.034    2.237    8.542    3.254 
#    0.000    1.017    0.000    1.220    0.000    0.000 
#    0.000    0.000    0.000    0.000    0.000    0.000 
#
# Total GULP energy -329440.659929 kJ/mol
# GULP energy per Si atom -5583.739999 kJ/mol
# Density = 1.924208 g / cm^3
# Si number density = 19.285981 Si / 1000 Ang^3
#
#
#
# Elastic Constant Matrix: (Units=GPa)
#
#
# Indices 1 2 3 4 5 6 
#
# 1 147.1321 67.2907 59.1417 -0.0001 0.0001 -0.0002
# 2 67.2907 147.1322 59.1419 -0.0001 0.0002 -0.0001
# 3 59.1417 59.1419 99.5088 -0.0002 0.0000 0.0000
# 4 -0.0001 -0.0001 -0.0002 30.5865 0.0000 0.0000
# 5 0.0001 0.0002 0.0000 0.0000 30.5865 0.0000
# 6 -0.0002 -0.0001 0.0000 0.0000 0.0000 39.9210
#
#
#
# Elastic Compliance Matrix: (Units=1/GPa)
#
#
# Indices 1 2 3 4 5 6 
#
# 1 0.009732 -0.002793 -0.004124 0.000000 0.000000 0.000000
# 2 -0.002793 0.009732 -0.004124 0.000000 0.000000 0.000000
# 3 -0.004124 -0.004124 0.014951 0.000000 0.000000 0.000000
# 4 0.000000 0.000000 0.000000 0.032694 0.000000 0.000000
# 5 0.000000 0.000000 0.000000 0.000000 0.032694 0.000000
# 6 0.000000 0.000000 0.000000 0.000000 0.000000 0.025049
#
#
# Mechanical properties :
#
#
# Convention : Reuss Voigt Hill
#
# Bulk Modulus (GPa) = 81.08324 84.99130 83.03727
# Shear Modulus (GPa) = 33.10271 34.09872 33.60072
#
# Velocity S-wave (km/s) = 4.14746 4.20939 4.17854
# Velocity P-wave (km/s) = 8.06654 8.23346 8.15043
#
# Compressibility (1/GPa) = 0.01233301
#
# Stress axis : x y z
#
# Youngs Moduli (GPa) = 102.75721 102.75706 66.88400
#
# Poissons Ratio (x) = 0.28702 0.27582
# Poissons Ratio (y) = 0.28702 0.27582
# Poissons Ratio (z) = 0.42375 0.42376
#
# Static dielectric constant tensor:
#      x y z
#    x 1.664170 0.000000 0.000000 
#    y 0.000000 1.664170 0.000000 
#    z 0.000000 0.000000 1.658350 
# 
# From -- ./inp_files/2481.got.cif
#   From: 2010.05.17/outbox.cif.g08.bks.cpg/sg177_2_cif.got.tgz:2481.got - 2010.05.20 11:28:44.
