data_PCOD9582517
_publ_section_title
;
Structure prediction by ZEFSAII (Michael W. Deem and Ramdas Pophale) SiO2 
 PCOD9582517
Probable space group: P 61 2 2
;
_chemical_formula_sum "Si O2"
_cell_formula_units_Z 60
_cell_length_a 17.084059
_cell_length_b 17.084059
_cell_length_c 11.577326
_cell_angle_alpha 90.000000
_cell_angle_beta 90.000000
_cell_angle_gamma 120.000000
_cell_volume 2926.314636
_symmetry_space_group_name_H-M "P 61 2 2"
_symmetry_group_IT_number 178
_symmetry_cell_setting 'hexagonal'
loop_
_space_group_symop_operation_xyz
x,y,z
x-y,x,1/6+z
-y,x-y,1/3+z
-x,-y,1/2+z
-x+y,-x,2/3+z
y,-x+y,5/6+z
x-y,-y,-z
-x,-x+y,2/3-z
y,x,1/3-z
-y,-x,5/6-z
-x+y,y,1/2-z
x,x-y,1/6-z
loop_
_atom_site_type_symbol
_atom_site_label
_atom_site_fract_x
_atom_site_fract_y
_atom_site_fract_z
Si Si1 0.672976 0.506710 0.399539
Si Si2 0.089292 0.346502 0.064900
Si Si3 0.645934 0.461273 0.808900
Si Si4 0.130445 0.662532 0.309240
Si Si5 0.065900 0.330555 0.443176
O O1 0.593341 0.406660 0.416667
O O2 0.658160 0.544051 0.278602
O O3 0.766166 0.507039 0.383014
O O4 0.678279 0.567171 0.508485
O O5 0.124476 0.437310 0.143143
O O6 0.166295 0.318994 0.073476
O O7 0.997348 0.269241 0.118359
O O8 0.079597 0.380519 0.938732
O O9 0.727295 0.454589 0.750000
O O10 0.556276 0.429288 0.732006
O O11 0.607253 0.392748 0.916667
O O12 0.000000 0.304110 0.333334
#
# Coordination Sequence:
#
# PCOD9582517 Si02
#       5
#    12  12  12  12  12
#     4  10  22  36  55  86 120 165 204 255 283 338
#     4  10  23  41  60  85 116 154 195 256 302 377
#     4  10  20  31  54  79 113 161 205 250 288 335
#     4   9  21  36  56  85 120 158 212 245 294 333
#     4  11  23  41  60  85 119 151 202 244 313 369
#
# _framework density 20.503605
#
# number of rings (size 3 to 8) (size 9 to 14) (size 15 to 20)
#    0.000    2.000    0.000    2.400   14.000    3.200 
#    0.000    0.000    0.000    0.000    0.000    0.000 
#   72.000    0.000    0.000    0.000    0.000    0.000 
#
# Total GULP energy -335272.819479 kJ/mol
# GULP energy per Si atom -5587.880325 kJ/mol
# Density = 2.045694 g / cm^3
# Si number density = 20.503605 Si / 1000 Ang^3
#
#
#
# Elastic Constant Matrix: (Units=GPa)
#
#
# Indices 1 2 3 4 5 6 
#
# 1 53.7469 54.4934 12.7687 0.0000 0.0000 0.0000
# 2 54.4934 53.7469 12.7687 0.0000 0.0000 0.0000
# 3 12.7687 12.7687 63.4641 0.0000 0.0000 0.0000
# 4 0.0000 0.0000 0.0000 25.0524 0.0000 0.0000
# 5 0.0000 0.0000 0.0000 0.0000 25.0524 0.0000
# 6 0.0000 0.0000 0.0000 0.0000 0.0000 -0.3733
#
#
#
# Elastic Compliance Matrix: (Units=1/GPa)
#
#
# Indices 1 2 3 4 5 6 
#
# 1 -0.664915 0.674614 -0.001951 0.000000 0.000000 0.000000
# 2 0.674614 -0.664915 -0.001951 0.000000 0.000000 0.000000
# 3 -0.001951 -0.001951 0.016542 0.000000 0.000000 0.000000
# 4 0.000000 0.000000 0.000000 0.039916 0.000000 0.000000
# 5 0.000000 0.000000 0.000000 0.000000 0.039916 0.000000
# 6 0.000000 0.000000 0.000000 0.000000 0.000000 -2.679057
#
#
# Mechanical properties :
#
#
# Convention : Reuss Voigt Hill
#
# Bulk Modulus (GPa) = 35.54330 36.77996 36.16163
# Shear Modulus (GPa) = -0.95337 16.00810 7.52737
#
# Velocity S-wave (km/s) = -0.68263 2.79721 1.91813
# Velocity P-wave (km/s) = 4.09286 5.33008 4.75191
#
# Compressibility (1/GPa) = 0.02813470
#
# Stress axis : x y z
#
# Youngs Moduli (GPa) = -1.50395 -1.50395 60.45157
#
# Poissons Ratio (x) = 1.01459 0.11797
# Poissons Ratio (y) = 1.01459 0.11797
# Poissons Ratio (z) = -0.00293 -0.00293
#
# Static dielectric constant tensor:
#      x y z
#    x 1.731900 0.000000 0.000000 
#    y 0.000000 1.731900 0.000000 
#    z 0.000000 0.000000 1.817780 
# 
# From -- ./inp_files/4537.got.cif
#   From: 2010.05.17/outbox.cif.g08.bks.cpg/sg178_3_cif.got.tgz:4537.got - 2010.05.20 11:30:59.
