data_PCOD9582616
_publ_section_title
;
Structure prediction by ZEFSAII (Michael W. Deem and Ramdas Pophale) SiO2 
 PCOD9582616
Probable space group: P 61 2 2
;
_chemical_formula_sum "Si O2"
_cell_formula_units_Z 60
_cell_length_a 15.477826
_cell_length_b 15.477826
_cell_length_c 14.190077
_cell_angle_alpha 90.000000
_cell_angle_beta 90.000000
_cell_angle_gamma 120.000000
_cell_volume 2943.983041
_symmetry_space_group_name_H-M "P 61 2 2"
_symmetry_group_IT_number 178
_symmetry_cell_setting 'hexagonal'
loop_
_space_group_symop_operation_xyz
x,y,z
x-y,x,1/6+z
-y,x-y,1/3+z
-x,-y,1/2+z
-x+y,-x,2/3+z
y,-x+y,5/6+z
x-y,-y,-z
-x,-x+y,2/3-z
y,x,1/3-z
-y,-x,5/6-z
-x+y,y,1/2-z
x,x-y,1/6-z
loop_
_atom_site_type_symbol
_atom_site_label
_atom_site_fract_x
_atom_site_fract_y
_atom_site_fract_z
Si Si1 0.546736 0.273441 0.968624
Si Si2 0.882105 0.219079 0.597935
Si Si3 0.063992 0.338190 0.736524
Si Si4 0.470110 0.537754 0.758381
Si Si5 0.319802 0.307011 0.278636
O O1 0.642959 0.357041 0.916667
O O2 0.456164 0.278908 0.917993
O O3 0.539494 0.170286 0.941030
O O4 0.545124 0.272562 0.083334
O O5 0.795798 0.113045 0.632756
O O6 0.981170 0.266437 0.660907
O O7 0.923108 0.224700 0.493331
O O8 0.167388 0.334776 0.750000
O O9 0.086419 0.449531 0.706896
O O10 0.000000 0.304087 0.833334
O O11 0.491066 0.491066 0.666667
O O12 0.576402 0.595406 0.813637
O O13 0.318404 0.318404 0.166667
#
# Coordination Sequence:
#
# PCOD9582616 Si02
#       5
#    12  12  12  12  12
#     4  11  24  40  66  98 137 175 228 280 335 406
#     4  11  23  39  66  94 125 178 220 269 338 397
#     4  11  24  41  63  89 129 168 214 267 331 407
#     4   9  20  38  62  88 131 168 212 266 322 384
#     4  10  20  39  64  94 125 166 219 276 323 391
#
# _framework density 20.380551000000001
#
# number of rings (size 3 to 8) (size 9 to 14) (size 15 to 20)
#    0.000    1.600    0.000    6.000    8.400    0.000 
#    7.200    0.000    0.000   12.000    0.000    0.000 
#    0.000    0.000    0.000    0.000    0.000    0.000 
#
# Total GULP energy -334120.243876 kJ/mol
# GULP energy per Si atom -5568.670731 kJ/mol
# Density = 2.033416 g / cm^3
# Si number density = 20.380551 Si / 1000 Ang^3
#
#
#
# Elastic Constant Matrix: (Units=GPa)
#
#
# Indices 1 2 3 4 5 6 
#
# 1 112.9309 68.7832 18.2812 0.0000 0.0000 0.0000
# 2 68.7832 112.9309 18.2812 0.0000 0.0000 0.0000
# 3 18.2812 18.2812 61.1164 0.0000 0.0000 0.0000
# 4 0.0000 0.0000 0.0000 22.6234 0.0000 0.0000
# 5 0.0000 0.0000 0.0000 0.0000 22.6234 0.0000
# 6 0.0000 0.0000 0.0000 0.0000 0.0000 22.0738
#
#
#
# Elastic Compliance Matrix: (Units=1/GPa)
#
#
# Indices 1 2 3 4 5 6 
#
# 1 0.014253 -0.008398 -0.001752 0.000000 0.000000 0.000000
# 2 -0.008398 0.014253 -0.001752 0.000000 0.000000 0.000000
# 3 -0.001752 -0.001752 0.017410 0.000000 0.000000 0.000000
# 4 0.000000 0.000000 0.000000 0.044202 0.000000 0.000000
# 5 0.000000 0.000000 0.000000 0.000000 0.044202 0.000000
# 6 0.000000 0.000000 0.000000 0.000000 0.000000 0.045302
#
#
# Mechanical properties :
#
#
# Convention : Reuss Voigt Hill
#
# Bulk Modulus (GPa) = 45.21800 55.29661 50.25730
# Shear Modulus (GPa) = 23.71953 25.57297 24.64625
#
# Velocity S-wave (km/s) = 3.41520 3.54612 3.48128
# Velocity P-wave (km/s) = 6.14707 6.63005 6.39312
#
# Compressibility (1/GPa) = 0.02211509
#
# Stress axis : x y z
#
# Youngs Moduli (GPa) = 70.15866 70.15866 57.43808
#
# Poissons Ratio (x) = 0.58918 0.10060
# Poissons Ratio (y) = 0.58918 0.10060
# Poissons Ratio (z) = 0.12288 0.12288
#
# Static dielectric constant tensor:
#      x y z
#    x 1.756080 0.000000 0.000000 
#    y 0.000000 1.756080 0.000000 
#    z 0.000000 0.000000 1.845520 
# 
# From -- ./inp_files/5667.got.cif
#   From: 2010.05.17/outbox.cif.g08.bks.cpg/sg178_3_cif.got.tgz:5667.got - 2010.05.20 11:30:59.
