data_PCOD9582669
_publ_section_title
;
Structure prediction by ZEFSAII (Michael W. Deem and Ramdas Pophale) SiO2 
 PCOD9582669
Probable space group: P 61 2 2
;
_chemical_formula_sum "Si O2"
_cell_formula_units_Z 60
_cell_length_a 12.451442
_cell_length_b 12.451442
_cell_length_c 24.459523
_cell_angle_alpha 90.000000
_cell_angle_beta 90.000000
_cell_angle_gamma 120.000000
_cell_volume 3284.111661
_symmetry_space_group_name_H-M "P 61 2 2"
_symmetry_group_IT_number 178
_symmetry_cell_setting 'hexagonal'
loop_
_space_group_symop_operation_xyz
x,y,z
x-y,x,1/6+z
-y,x-y,1/3+z
-x,-y,1/2+z
-x+y,-x,2/3+z
y,-x+y,5/6+z
x-y,-y,-z
-x,-x+y,2/3-z
y,x,1/3-z
-y,-x,5/6-z
-x+y,y,1/2-z
x,x-y,1/6-z
loop_
_atom_site_type_symbol
_atom_site_label
_atom_site_fract_x
_atom_site_fract_y
_atom_site_fract_z
Si Si1 0.817601 0.404496 0.803084
Si Si2 0.327297 0.024018 0.352216
Si Si3 0.696672 0.885444 0.958156
Si Si4 0.261560 0.698646 0.140062
Si Si5 0.489628 0.942265 0.412312
O O1 0.836707 0.287109 0.794407
O O2 0.671512 0.351911 0.813701
O O3 0.878239 0.460645 0.861925
O O4 0.913011 0.504750 0.758400
O O5 0.268484 0.075435 0.395851
O O6 0.452748 0.129579 0.325315
O O7 0.226382 0.941618 0.308699
O O8 0.368402 0.942734 0.389140
O O9 0.764557 0.000000 0.000000
O O10 0.255318 0.627659 0.083334
O O11 0.346137 0.846722 0.128304
#
# Coordination Sequence:
#
# PCOD9582669 Si02
#       5
#    12  12  12  12  12
#     4   9  16  32  56  79 110 150 192 236 295 351
#     4  11  22  34  55  90 118 149 195 258 311 356
#     4  11  20  34  60  87 113 145 198 253 311 351
#     4  10  21  34  52  84 128 158 195 246 304 371
#     4   9  17  31  53  79 114 145 191 241 292 354
#
# _framework density 18.269780000000001
#
# number of rings (size 3 to 8) (size 9 to 14) (size 15 to 20)
#    0.000    2.000    6.000    0.600    0.000    4.800 
#    0.000    0.000    0.000    0.000   41.600    0.000 
#    0.000    0.000    0.000    0.000    0.000    0.000 
#
# Total GULP energy -334056.431051 kJ/mol
# GULP energy per Si atom -5567.607184 kJ/mol
# Density = 1.822820 g / cm^3
# Si number density = 18.269780 Si / 1000 Ang^3
#
#
#
# Elastic Constant Matrix: (Units=GPa)
#
#
# Indices 1 2 3 4 5 6 
#
# 1 230.3653 -118.3669 15.3237 0.0000 0.0000 0.0000
# 2 -118.3669 230.3653 15.3237 0.0000 0.0000 0.0000
# 3 15.3237 15.3237 41.7481 0.0000 0.0000 0.0000
# 4 0.0000 0.0000 0.0000 11.4389 0.0000 0.0000
# 5 0.0000 0.0000 0.0000 0.0000 11.4389 0.0000
# 6 0.0000 0.0000 0.0000 0.0000 0.0000 174.3661
#
#
#
# Elastic Compliance Matrix: (Units=1/GPa)
#
#
# Indices 1 2 3 4 5 6 
#
# 1 0.006397 0.003529 -0.003643 0.000000 0.000000 0.000000
# 2 0.003529 0.006397 -0.003643 0.000000 0.000000 0.000000
# 3 -0.003643 -0.003643 0.026628 0.000000 0.000000 0.000000
# 4 0.000000 0.000000 0.000000 0.087421 0.000000 0.000000
# 5 0.000000 0.000000 0.000000 0.000000 0.087421 0.000000
# 6 0.000000 0.000000 0.000000 0.000000 0.000000 0.005735
#
#
# Mechanical properties :
#
#
# Convention : Reuss Voigt Hill
#
# Bulk Modulus (GPa) = 31.34196 36.33772 33.83984
# Shear Modulus (GPa) = 20.99533 78.79532 49.89532
#
# Velocity S-wave (km/s) = 3.39364 6.57437 5.23160
# Velocity P-wave (km/s) = 5.70509 8.80696 7.41993
#
# Compressibility (1/GPa) = 0.03190611
#
# Stress axis : x y z
#
# Youngs Moduli (GPa) = 156.33338 156.33338 37.55486
#
# Poissons Ratio (x) = -0.55171 0.13682
# Poissons Ratio (y) = -0.55171 0.13682
# Poissons Ratio (z) = 0.56956 0.56956
#
# Static dielectric constant tensor:
#      x y z
#    x 1.659330 0.000000 0.000000 
#    y 0.000000 1.659330 0.000000 
#    z 0.000000 0.000000 1.686060 
# 
# From -- ./inp_files/8826.got.cif
#   From: 2010.05.17/outbox.cif.g08.bks.cpg/sg178_5_cif.got.tgz:8826.got - 2010.05.20 11:30:59.
