data_PCOD9582165
_publ_section_title
;
Structure prediction by ZEFSAII (Michael W. Deem and Ramdas Pophale) SiO2 
 PCOD9582165
Probable space group: P 6 2 2
;
_chemical_formula_sum "Si O2"
_cell_formula_units_Z 84
_cell_length_a 22.970294
_cell_length_b 22.970294
_cell_length_c 12.972923
_cell_angle_alpha 90.000000
_cell_angle_beta 90.000000
_cell_angle_gamma 120.000000
_cell_volume 5927.909704
_symmetry_space_group_name_H-M "P 6 2 2"
_symmetry_group_IT_number 177
_symmetry_cell_setting 'hexagonal'
loop_
_space_group_symop_operation_xyz
x,y,z
x-y,x,z
-y,x-y,z
-x,-y,z
-x+y,-x,z
y,-x+y,z
x-y,-y,-z
-x,-x+y,-z
y,x,-z
-y,-x,-z
-x+y,y,-z
x,x-y,-z
loop_
_atom_site_type_symbol
_atom_site_label
_atom_site_fract_x
_atom_site_fract_y
_atom_site_fract_z
Si Si1 0.529272 0.920092 0.381629
Si Si2 0.287060 0.850621 0.199582
Si Si3 0.079908 0.470728 0.381629
Si Si4 0.715251 0.923703 0.124513
Si Si5 0.208452 0.284749 0.875487
Si Si6 0.149379 0.436439 0.800418
Si Si7 0.666528 0.193878 0.000000
O O1 0.454323 0.908646 0.369827
O O2 0.536473 0.903235 0.500000
O O3 0.543938 0.878919 0.297494
O O4 0.579166 0.000000 0.367621
O O5 0.334981 0.878919 0.297494
O O6 0.257794 0.899106 0.169072
O O7 0.222336 0.777664 0.219790
O O8 0.325029 0.841875 0.101295
O O9 0.734760 0.867380 0.153755
O O10 0.641312 0.899106 0.169072
O O11 0.766942 1.000000 0.155673
O O12 0.709647 0.922073 0.000000
O O13 0.158125 0.483154 0.898705
O O14 0.730098 0.269903 0.000000
O O15 0.596781 0.193562 0.000000
#
# Coordination Sequence:
#
# PCOD9582165 Si02
#       7
#    12  12  12  12  12  12  12
#     4   9  18  32  47  62  83 112 145 181 220 260
#     4  10  18  29  45  65  88 112 143 180 217 260
#     4   9  18  32  47  62  83 112 145 181 220 260
#     4   9  16  27  43  63  88 115 141 171 209 253
#     4   9  16  27  43  63  88 115 141 171 209 253
#     4  10  18  29  45  65  88 112 143 180 217 260
#     4  10  19  30  43  61  86 115 144 178 219 261
#
# _framework density 14.170256999999999
#
# number of rings (size 3 to 8) (size 9 to 14) (size 15 to 20)
#    0.000    2.571    1.429    2.714    0.000    0.571 
#    0.000    0.000    0.000    4.286    0.000    2.000 
#    0.000    0.000    0.000    0.000    0.000    0.000 
#
# Total GULP energy -468071.117398 kJ/mol
# GULP energy per Si atom -5572.275207 kJ/mol
# Density = 1.413800 g / cm^3
# Si number density = 14.170257 Si / 1000 Ang^3
#
#
#
# Elastic Constant Matrix: (Units=GPa)
#
#
# Indices 1 2 3 4 5 6 
#
# 1 95.8361 63.9803 64.1744 0.0000 0.0000 0.0000
# 2 63.9803 95.8361 64.1744 0.0000 0.0000 0.0000
# 3 64.1744 64.1744 102.2589 0.0000 0.0000 0.0000
# 4 0.0000 0.0000 0.0000 23.9572 0.0000 0.0000
# 5 0.0000 0.0000 0.0000 0.0000 23.9572 0.0000
# 6 0.0000 0.0000 0.0000 0.0000 0.0000 15.9279
#
#
#
# Elastic Compliance Matrix: (Units=1/GPa)
#
#
# Indices 1 2 3 4 5 6 
#
# 1 0.022003 -0.009388 -0.007917 0.000000 0.000000 0.000000
# 2 -0.009388 0.022003 -0.007917 0.000000 0.000000 0.000000
# 3 -0.007917 -0.007917 0.019716 0.000000 0.000000 0.000000
# 4 0.000000 0.000000 0.000000 0.041741 0.000000 0.000000
# 5 0.000000 0.000000 0.000000 0.000000 0.041741 0.000000
# 6 0.000000 0.000000 0.000000 0.000000 0.000000 0.062783
#
#
# Mechanical properties :
#
#
# Convention : Reuss Voigt Hill
#
# Bulk Modulus (GPa) = 75.30843 75.39882 75.35363
# Shear Modulus (GPa) = 18.87804 19.54192 19.20998
#
# Velocity S-wave (km/s) = 3.65393 3.71763 3.68592
# Velocity P-wave (km/s) = 8.42985 8.47068 8.45029
#
# Compressibility (1/GPa) = 0.01327873
#
# Stress axis : x y z
#
# Youngs Moduli (GPa) = 45.44763 45.44763 50.72025
#
# Poissons Ratio (x) = 0.42666 0.40155
# Poissons Ratio (y) = 0.42666 0.40155
# Poissons Ratio (z) = 0.35981 0.35981
#
# Static dielectric constant tensor:
#      x y z
#    x 1.456100 0.000000 0.000000 
#    y 0.000000 1.456100 0.000000 
#    z 0.000000 0.000000 1.445170 
# 
# From -- ./inp_files/2162.got.cif
#   From: 2010.05.17/outbox.cif.g08.bks.cpg/sg177_2_cif.got.tgz:2162.got - 2010.05.20 11:28:44.
