data_PCOD9582932
_publ_section_title
;
Structure prediction by ZEFSAII (Michael W. Deem and Ramdas Pophale) SiO2 
 PCOD9582932
Probable space group: P 61 2 2
;
_chemical_formula_sum "Si O2"
_cell_formula_units_Z 60
_cell_length_a 11.044919
_cell_length_b 11.044919
_cell_length_c 28.123961
_cell_angle_alpha 90.000000
_cell_angle_beta 90.000000
_cell_angle_gamma 120.000000
_cell_volume 2971.202072
_symmetry_space_group_name_H-M "P 61 2 2"
_symmetry_group_IT_number 178
_symmetry_cell_setting 'hexagonal'
loop_
_space_group_symop_operation_xyz
x,y,z
x-y,x,1/6+z
-y,x-y,1/3+z
-x,-y,1/2+z
-x+y,-x,2/3+z
y,-x+y,5/6+z
x-y,-y,-z
-x,-x+y,2/3-z
y,x,1/3-z
-y,-x,5/6-z
-x+y,y,1/2-z
x,x-y,1/6-z
loop_
_atom_site_type_symbol
_atom_site_label
_atom_site_fract_x
_atom_site_fract_y
_atom_site_fract_z
Si Si1 0.165833 0.086004 0.869610
Si Si2 0.756970 0.995855 0.054369
Si Si3 0.151320 0.418864 0.975479
Si Si4 0.717298 0.829964 0.697073
Si Si5 0.551530 0.566141 0.468668
O O1 0.051826 0.129144 0.881812
O O2 0.287510 0.219905 0.843758
O O3 0.221236 0.055897 0.918059
O O4 0.132861 0.963037 0.833361
O O5 0.739575 0.102379 0.088773
O O6 0.697881 0.848941 0.083334
O O7 0.710977 0.000000 0.000000
O O8 0.314552 0.455385 0.981089
O O9 0.088608 0.515533 0.992626
O O10 0.698908 0.698908 0.666667
O O11 0.598781 0.869353 0.703589
O O12 0.500540 0.499461 0.416667
#
# Coordination Sequence:
#
# PCOD9582932 Si02
#       5
#    12  12  12  12  12
#     4  11  18  34  60  99 132 164 210 278 340 406
#     4  12  20  32  62 103 138 168 224 295 353 400
#     4  11  23  41  67  97 135 186 234 280 352 437
#     4  11  21  34  64 100 135 168 224 287 347 406
#     4  11  23  44  71  95 135 190 240 283 364 452
#
# _framework density 20.193847000000002
#
# number of rings (size 3 to 8) (size 9 to 14) (size 15 to 20)
#    0.000    0.800    8.000    2.400    0.000    0.000 
#    0.000    5.000    0.000    9.600    0.000    0.000 
#    0.000    0.000    0.000    0.000    0.000    0.000 
#
# Total GULP energy -334087.122723 kJ/mol
# GULP energy per Si atom -5568.118712 kJ/mol
# Density = 2.014789 g / cm^3
# Si number density = 20.193847 Si / 1000 Ang^3
#
#
#
# Elastic Constant Matrix: (Units=GPa)
#
#
# Indices 1 2 3 4 5 6 
#
# 1 71.4717 29.4407 28.8817 0.0000 0.0000 0.0000
# 2 29.4407 71.4717 28.8817 0.0000 0.0000 0.0000
# 3 28.8817 28.8817 131.2146 0.0000 0.0000 0.0000
# 4 0.0000 0.0000 0.0000 14.9059 0.0000 0.0000
# 5 0.0000 0.0000 0.0000 0.0000 14.9059 0.0000
# 6 0.0000 0.0000 0.0000 0.0000 0.0000 21.0155
#
#
#
# Elastic Compliance Matrix: (Units=1/GPa)
#
#
# Indices 1 2 3 4 5 6 
#
# 1 0.017565 -0.006227 -0.002496 0.000000 0.000000 0.000000
# 2 -0.006227 0.017565 -0.002496 0.000000 0.000000 0.000000
# 3 -0.002496 -0.002496 0.008720 0.000000 0.000000 0.000000
# 4 0.000000 0.000000 0.000000 0.067088 0.000000 0.000000
# 5 0.000000 0.000000 0.000000 0.000000 0.067088 0.000000
# 6 0.000000 0.000000 0.000000 0.000000 0.000000 0.047584
#
#
# Mechanical properties :
#
#
# Convention : Reuss Voigt Hill
#
# Bulk Modulus (GPa) = 46.69969 49.84068 48.27018
# Shear Modulus (GPa) = 19.59378 22.62906 21.11142
#
# Velocity S-wave (km/s) = 3.11832 3.35116 3.23683
# Velocity P-wave (km/s) = 6.01175 6.30146 6.15831
#
# Compressibility (1/GPa) = 0.02141342
#
# Stress axis : x y z
#
# Youngs Moduli (GPa) = 56.93126 56.93126 114.68246
#
# Poissons Ratio (x) = 0.35451 0.28621
# Poissons Ratio (y) = 0.35451 0.28621
# Poissons Ratio (z) = 0.14208 0.14208
#
# Static dielectric constant tensor:
#      x y z
#    x 1.814350 0.000000 0.000000 
#    y 0.000000 1.814350 0.000000 
#    z 0.000000 0.000000 1.755440 
# 
# From -- ./inp_files/8764.got.cif
#   From: 2010.05.17/outbox.cif.g08.bks.cpg/sg178_5_cif.got.tgz:8764.got - 2010.05.20 11:30:59.
