data_PCOD9582884
_publ_section_title
;
Structure prediction by ZEFSAII (Michael W. Deem and Ramdas Pophale) SiO2 
 PCOD9582884
Probable space group: P 61 2 2
;
_chemical_formula_sum "Si O2"
_cell_formula_units_Z 84
_cell_length_a 19.219887
_cell_length_b 19.219887
_cell_length_c 13.872487
_cell_angle_alpha 90.000000
_cell_angle_beta 90.000000
_cell_angle_gamma 120.000000
_cell_volume 4437.993054
_symmetry_space_group_name_H-M "P 61 2 2"
_symmetry_group_IT_number 178
_symmetry_cell_setting 'hexagonal'
loop_
_space_group_symop_operation_xyz
x,y,z
x-y,x,1/6+z
-y,x-y,1/3+z
-x,-y,1/2+z
-x+y,-x,2/3+z
y,-x+y,5/6+z
x-y,-y,-z
-x,-x+y,2/3-z
y,x,1/3-z
-y,-x,5/6-z
-x+y,y,1/2-z
x,x-y,1/6-z
loop_
_atom_site_type_symbol
_atom_site_label
_atom_site_fract_x
_atom_site_fract_y
_atom_site_fract_z
Si Si1 0.980502 0.259390 0.050875
Si Si2 0.161887 0.838114 0.416667
Si Si3 0.860214 0.294924 0.174157
Si Si4 0.273878 0.401769 0.567078
Si Si5 0.541525 0.083050 0.750000
Si Si6 0.790952 0.050578 0.402345
Si Si7 0.051245 0.538540 0.238095
Si Si8 0.444801 0.302162 0.097181
O O1 0.005762 0.221189 0.136841
O O2 0.929807 0.291236 0.112533
O O3 0.055255 0.327745 0.990762
O O4 0.918796 0.193783 0.977308
O O5 0.143498 0.768628 0.338339
O O6 0.779514 0.210693 0.157099
O O7 0.861711 0.372424 0.130571
O O8 0.875378 0.307592 0.288100
O O9 0.365862 0.470176 0.579112
O O10 0.536793 0.019222 0.828285
O O11 0.880677 0.119323 0.416667
O O12 0.738221 0.094149 0.385579
O O13 0.760573 0.000000 0.500000
O O14 0.107301 0.498846 0.221345
O O15 0.000000 0.498525 0.333334
O O16 0.474717 0.237359 0.083334
#
# Coordination Sequence:
#
# PCOD9582884 Si02
#       8
#    12   6  12  12   6  12  12  12
#     4  11  21  40  62  93 129 163 203 266 320 381
#     4  10  24  38  64  91 128 162 214 266 317 378
#     4  11  23  42  64  92 129 169 219 276 327 386
#     4  11  24  40  63  91 126 174 216 271 325 383
#     4  12  24  40  66  93 126 176 226 274 331 394
#     4  11  22  37  62  97 126 157 198 251 312 372
#     4  12  24  40  66  92 125 174 225 269 327 400
#     4  11  23  40  61  93 131 167 213 273 324 379
#
# _framework density 18.927474
#
# number of rings (size 3 to 8) (size 9 to 14) (size 15 to 20)
#    0.000    0.857    4.286    4.286    6.000    0.000 
#    1.286    0.000    0.000    0.000    1.857    0.000 
#    0.000    0.000    0.000    0.000    0.000    0.000 
#
# Total GULP energy -469023.272075 kJ/mol
# GULP energy per Si atom -5583.610382 kJ/mol
# Density = 1.888439 g / cm^3
# Si number density = 18.927474 Si / 1000 Ang^3
#
#
#
# Elastic Constant Matrix: (Units=GPa)
#
#
# Indices 1 2 3 4 5 6 
#
# 1 132.4946 -11.9028 12.8704 0.0000 0.0000 0.0000
# 2 -11.9028 132.4946 12.8704 0.0000 0.0000 0.0000
# 3 12.8704 12.8704 87.6417 0.0000 0.0000 0.0000
# 4 0.0000 0.0000 0.0000 26.6640 0.0000 0.0000
# 5 0.0000 0.0000 0.0000 0.0000 26.6640 0.0000
# 6 0.0000 0.0000 0.0000 0.0000 0.0000 72.1987
#
#
#
# Elastic Compliance Matrix: (Units=1/GPa)
#
#
# Indices 1 2 3 4 5 6 
#
# 1 0.007743 0.000818 -0.001257 0.000000 0.000000 0.000000
# 2 0.000818 0.007743 -0.001257 0.000000 0.000000 0.000000
# 3 -0.001257 -0.001257 0.011779 0.000000 0.000000 0.000000
# 4 0.000000 0.000000 0.000000 0.037504 0.000000 0.000000
# 5 0.000000 0.000000 0.000000 0.000000 0.037504 0.000000
# 6 0.000000 0.000000 0.000000 0.000000 0.000000 0.013851
#
#
# Mechanical properties :
#
#
# Convention : Reuss Voigt Hill
#
# Bulk Modulus (GPa) = 41.88969 42.25631 42.07300
# Shear Modulus (GPa) = 39.22358 47.69151 43.45755
#
# Velocity S-wave (km/s) = 4.55720 5.02510 4.79686
# Velocity P-wave (km/s) = 7.06191 7.48617 7.27713
#
# Compressibility (1/GPa) = 0.02387222
#
# Stress axis : x y z
#
# Youngs Moduli (GPa) = 129.14790 129.14790 84.89445
#
# Poissons Ratio (x) = -0.10561 0.10673
# Poissons Ratio (y) = -0.10561 0.10673
# Poissons Ratio (z) = 0.16236 0.16236
#
# Static dielectric constant tensor:
#      x y z
#    x 1.661740 0.000000 0.000000 
#    y 0.000000 1.661740 0.000000 
#    z 0.000000 0.000000 1.655360 
# 
# From -- ./inp_files/6054.got.cif
#   From: 2010.05.17/outbox.cif.g08.bks.cpg/sg178_4_cif.got.tgz:6054.got - 2010.05.20 11:30:59.
