data_PCOD9582990
_publ_section_title
;
Structure prediction by ZEFSAII (Michael W. Deem and Ramdas Pophale) SiO2 
 PCOD9582990
Probable space group: P 61 2 2
;
_chemical_formula_sum "Si O2"
_cell_formula_units_Z 36
_cell_length_a 7.923985
_cell_length_b 7.923985
_cell_length_c 31.896869
_cell_angle_alpha 90.000000
_cell_angle_beta 90.000000
_cell_angle_gamma 120.000000
_cell_volume 1734.466739
_symmetry_space_group_name_H-M "P 61 2 2"
_symmetry_group_IT_number 178
_symmetry_cell_setting 'hexagonal'
loop_
_space_group_symop_operation_xyz
x,y,z
x-y,x,1/6+z
-y,x-y,1/3+z
-x,-y,1/2+z
-x+y,-x,2/3+z
y,-x+y,5/6+z
x-y,-y,-z
-x,-x+y,2/3-z
y,x,1/3-z
-y,-x,5/6-z
-x+y,y,1/2-z
x,x-y,1/6-z
loop_
_atom_site_type_symbol
_atom_site_label
_atom_site_fract_x
_atom_site_fract_y
_atom_site_fract_z
Si Si1 0.614461 0.611863 0.877711
Si Si2 0.617422 0.621271 0.296004
Si Si3 0.906253 0.459948 0.878029
O O1 0.465329 0.534672 0.916667
O O2 0.513651 0.487439 0.836013
O O3 0.778632 0.558849 0.889396
O O4 0.686950 0.837586 0.868679
O O5 0.507871 0.547783 0.251508
O O6 0.779771 0.554818 0.294870
O O7 0.000000 0.541015 0.833334
#
# Coordination Sequence:
#
# PCOD9582990 Si02
#       3
#    12  12  12
#     4  12  22  42  69 100 135 189 234 292 365 422
#     4  11  23  41  68  97 137 183 232 292 356 421
#     4  11  24  43  65 103 141 179 238 297 355 433
#
# _framework density 20.755659000000001
#
# number of rings (size 3 to 8) (size 9 to 14) (size 15 to 20)
#    0.000    0.667    6.667    2.000    0.000    1.333 
#    0.000    3.333    0.000    0.000    0.000    0.000 
#    0.000    0.000    0.000    0.000    0.000    0.000 
#
# Total GULP energy -201018.180921 kJ/mol
# GULP energy per Si atom -5583.838359 kJ/mol
# Density = 2.070842 g / cm^3
# Si number density = 20.755659 Si / 1000 Ang^3
#
#
#
# Elastic Constant Matrix: (Units=GPa)
#
#
# Indices 1 2 3 4 5 6 
#
# 1 109.6594 43.9305 3.8509 0.0000 0.0000 0.0000
# 2 43.9305 109.6594 3.8509 0.0000 0.0000 0.0000
# 3 3.8509 3.8509 119.7748 0.0000 0.0000 0.0000
# 4 0.0000 0.0000 0.0000 37.7644 0.0000 0.0000
# 5 0.0000 0.0000 0.0000 0.0000 37.7644 0.0000
# 6 0.0000 0.0000 0.0000 0.0000 0.0000 32.8645
#
#
#
# Elastic Compliance Matrix: (Units=1/GPa)
#
#
# Indices 1 2 3 4 5 6 
#
# 1 0.010868 -0.004346 -0.000210 0.000000 0.000000 0.000000
# 2 -0.004346 0.010868 -0.000210 0.000000 0.000000 0.000000
# 3 -0.000210 -0.000210 0.008362 0.000000 0.000000 0.000000
# 4 0.000000 0.000000 0.000000 0.026480 0.000000 0.000000
# 5 0.000000 0.000000 0.000000 0.000000 0.026480 0.000000
# 6 0.000000 0.000000 0.000000 0.000000 0.000000 0.030428
#
#
# Mechanical properties :
#
#
# Convention : Reuss Voigt Hill
#
# Bulk Modulus (GPa) = 48.62272 49.15093 48.88683
# Shear Modulus (GPa) = 38.49927 40.84274 39.67100
#
# Velocity S-wave (km/s) = 4.31150 4.44079 4.37662
# Velocity P-wave (km/s) = 6.94712 7.07293 7.01031
#
# Compressibility (1/GPa) = 0.02056652
#
# Stress axis : x y z
#
# Youngs Moduli (GPa) = 92.01601 92.01601 119.58170
#
# Poissons Ratio (x) = 0.39993 0.02507
# Poissons Ratio (y) = 0.39993 0.02507
# Poissons Ratio (z) = 0.01929 0.01929
#
# Static dielectric constant tensor:
#      x y z
#    x 1.772750 0.000000 0.000000 
#    y 0.000000 1.772750 0.000000 
#    z 0.000000 0.000000 1.754950 
# 
# From -- ./inp_files/8548.got.cif
#   From: 2010.05.17/outbox.cif.g08.bks.cpg/sg178_5_cif.got.tgz:8548.got - 2010.05.20 11:30:59.
