data_PCOD9582993
_publ_section_title
;
Structure prediction by ZEFSAII (Michael W. Deem and Ramdas Pophale) SiO2 
 PCOD9582993
Probable space group: P 61 2 2
;
_chemical_formula_sum "Si O2"
_cell_formula_units_Z 72
_cell_length_a 15.401211
_cell_length_b 15.401211
_cell_length_c 16.367985
_cell_angle_alpha 90.000000
_cell_angle_beta 90.000000
_cell_angle_gamma 120.000000
_cell_volume 3362.293273
_symmetry_space_group_name_H-M "P 61 2 2"
_symmetry_group_IT_number 178
_symmetry_cell_setting 'hexagonal'
loop_
_space_group_symop_operation_xyz
x,y,z
x-y,x,1/6+z
-y,x-y,1/3+z
-x,-y,1/2+z
-x+y,-x,2/3+z
y,-x+y,5/6+z
x-y,-y,-z
-x,-x+y,2/3-z
y,x,1/3-z
-y,-x,5/6-z
-x+y,y,1/2-z
x,x-y,1/6-z
loop_
_atom_site_type_symbol
_atom_site_label
_atom_site_fract_x
_atom_site_fract_y
_atom_site_fract_z
Si Si1 0.588890 0.092226 0.442701
Si Si2 0.521343 0.658888 0.949624
Si Si3 0.970837 0.633769 0.428098
Si Si4 0.358151 0.711247 0.006196
Si Si5 0.768525 0.093504 0.348428
Si Si6 0.854863 0.662101 0.991537
O O1 0.615556 0.176153 0.511721
O O2 0.674469 0.104614 0.380153
O O3 0.566148 0.000000 0.500000
O O4 0.488176 0.080500 0.400839
O O5 0.453401 0.546600 0.916667
O O6 0.451762 0.692493 0.997704
O O7 0.560782 0.722575 0.867012
O O8 0.609268 0.672495 0.009168
O O9 0.000000 0.656479 0.333334
O O10 0.902433 0.680805 0.453512
O O11 0.313147 0.686854 0.916667
O O12 0.296058 0.648029 0.083334
O O13 0.853932 0.146069 0.416667
O O14 0.813401 0.156213 0.265684
O O15 0.733396 0.975650 0.338720
#
# Coordination Sequence:
#
# PCOD9582993 Si02
#       6
#    12  12  12  12  12  12
#     4  11  23  43  69 101 142 190 240 291 355 431
#     4  11  24  44  70 104 150 189 238 295 354 438
#     4  11  24  44  74 105 147 191 242 296 365 445
#     4  11  24  41  63  98 140 187 232 287 346 416
#     4  12  27  47  76 102 145 192 251 305 366 442
#     4  12  25  47  72 109 138 190 243 302 373 432
#
# _framework density 21.413958000000001
#
# number of rings (size 3 to 8) (size 9 to 14) (size 15 to 20)
#    0.000    0.667    3.333    5.000    0.000    8.000 
#    0.000    0.000    0.000    4.000    0.000    0.000 
#    0.000    0.000    0.000    0.000    0.000    0.000 
#
# Total GULP energy -402181.979183 kJ/mol
# GULP energy per Si atom -5585.860822 kJ/mol
# Density = 2.136522 g / cm^3
# Si number density = 21.413958 Si / 1000 Ang^3
#
#
#
# Elastic Constant Matrix: (Units=GPa)
#
#
# Indices 1 2 3 4 5 6 
#
# 1 47.5857 75.7685 51.6923 0.0000 0.0000 0.0000
# 2 75.7685 47.5857 51.6923 0.0000 0.0000 0.0000
# 3 51.6923 51.6923 162.7308 0.0000 0.0000 0.0000
# 4 0.0000 0.0000 0.0000 30.7488 0.0000 0.0000
# 5 0.0000 0.0000 0.0000 0.0000 30.7488 0.0000
# 6 0.0000 0.0000 0.0000 0.0000 0.0000 -14.0914
#
#
#
# Elastic Compliance Matrix: (Units=1/GPa)
#
#
# Indices 1 2 3 4 5 6 
#
# 1 -0.012217 0.023265 -0.003509 0.000000 0.000000 0.000000
# 2 0.023265 -0.012217 -0.003509 0.000000 0.000000 0.000000
# 3 -0.003509 -0.003509 0.008375 0.000000 0.000000 0.000000
# 4 0.000000 0.000000 0.000000 0.032522 0.000000 0.000000
# 5 0.000000 0.000000 0.000000 0.000000 0.032522 0.000000
# 6 0.000000 0.000000 0.000000 0.000000 0.000000 -0.070965
#
#
# Mechanical properties :
#
#
# Convention : Reuss Voigt Hill
#
# Bulk Modulus (GPa) = 60.85334 68.46760 64.66047
# Shear Modulus (GPa) = -102.04695 14.73119 -43.65788
#
# Velocity S-wave (km/s) = -6.91071 2.62568 -4.52016
# Velocity P-wave (km/s) = 5.93278 6.42145 1.73741
#
# Compressibility (1/GPa) = 0.01643295
#
# Stress axis : x y z
#
# Youngs Moduli (GPa) = -81.85128 -81.85128 119.40702
#
# Poissons Ratio (x) = 1.90430 0.41906
# Poissons Ratio (y) = 1.90430 0.41906
# Poissons Ratio (z) = -0.28725 -0.28725
#
# Static dielectric constant tensor:
#      x y z
#    x 1.932010 0.000000 0.000000 
#    y 0.000000 1.932010 0.000000 
#    z 0.000000 0.000000 1.829460 
# 
# From -- ./inp_files/6793.got.cif
#   From: 2010.05.17/outbox.cif.g08.bks.cpg/sg178_4_cif.got.tgz:6793.got - 2010.05.20 11:30:59.
