data_PCOD9582383
_publ_section_title
;
Structure prediction by ZEFSAII (Michael W. Deem and Ramdas Pophale) SiO2 
 PCOD9582383
Probable space group: P 61 2 2
;
_chemical_formula_sum "Si O2"
_cell_formula_units_Z 96
_cell_length_a 16.990587
_cell_length_b 16.990587
_cell_length_c 23.726063
_cell_angle_alpha 90.000000
_cell_angle_beta 90.000000
_cell_angle_gamma 120.000000
_cell_volume 5931.616679
_symmetry_space_group_name_H-M "P 61 2 2"
_symmetry_group_IT_number 178
_symmetry_cell_setting 'hexagonal'
loop_
_space_group_symop_operation_xyz
x,y,z
x-y,x,1/6+z
-y,x-y,1/3+z
-x,-y,1/2+z
-x+y,-x,2/3+z
y,-x+y,5/6+z
x-y,-y,-z
-x,-x+y,2/3-z
y,x,1/3-z
-y,-x,5/6-z
-x+y,y,1/2-z
x,x-y,1/6-z
loop_
_atom_site_type_symbol
_atom_site_label
_atom_site_fract_x
_atom_site_fract_y
_atom_site_fract_z
Si Si1 0.521535 0.841639 0.399208
Si Si2 0.516635 0.853152 0.737401
Si Si3 0.024202 0.617613 0.179006
Si Si4 0.551616 0.955231 0.619945
Si Si5 0.394436 0.305988 0.706283
Si Si6 0.418346 0.173878 0.644953
Si Si7 0.355243 0.623966 0.851502
Si Si8 0.608162 0.438968 0.684839
O O1 0.549985 0.769316 0.420599
O O2 0.448589 0.780505 0.350629
O O3 0.473916 0.854012 0.454674
O O4 0.592106 0.946860 0.382988
O O5 0.407979 0.815957 0.750000
O O6 0.564756 0.928861 0.785594
O O7 0.542412 0.896652 0.675447
O O8 0.015243 0.524533 0.202975
O O9 0.077921 0.690978 0.227054
O O10 0.928467 0.610973 0.178614
O O11 0.517443 0.887280 0.565235
O O12 0.343996 0.343996 0.666667
O O13 0.368106 0.206763 0.686989
O O14 0.501611 0.370273 0.694254
O O15 0.403755 0.201878 0.583334
O O16 0.525454 0.227114 0.657323
O O17 0.378705 0.621296 0.916667
O O18 0.280567 0.658406 0.853136
#
# Coordination Sequence:
#
# PCOD9582383 Si02
#       8
#    12  12  12  12  12  12  12  12
#     4  12  22  37  56  74 106 145 192 230 279 331
#     4  10  24  36  53  75 105 144 181 234 283 322
#     4  10  20  35  48  72 106 137 175 223 276 317
#     4  10  22  37  54  73 105 142 183 235 281 320
#     4  10  18  30  49  72  98 131 177 218 261 310
#     4  11  20  33  51  72  99 142 183 221 259 318
#     4  11  24  30  50  79 103 139 191 233 263 314
#     4  10  21  35  52  74 102 140 179 235 276 310
#
# _framework density 16.184457999999999
#
# number of rings (size 3 to 8) (size 9 to 14) (size 15 to 20)
#    0.000    1.500    2.500    4.500   10.500    0.000 
#    0.000    0.000    0.000    0.000    0.000    0.000 
#    0.000    0.000    0.000   22.500    0.000    0.000 
#
# Total GULP energy -534537.509357 kJ/mol
# GULP energy per Si atom -5568.099056 kJ/mol
# Density = 1.614762 g / cm^3
# Si number density = 16.184458 Si / 1000 Ang^3
#
#
#
# Elastic Constant Matrix: (Units=GPa)
#
#
# Indices 1 2 3 4 5 6 
#
# 1 50.5081 17.5685 16.3025 0.0000 0.0000 0.0000
# 2 17.5685 50.5081 16.3025 0.0000 0.0000 0.0000
# 3 16.3025 16.3025 91.6055 0.0000 0.0000 0.0000
# 4 0.0000 0.0000 0.0000 20.2905 0.0000 0.0000
# 5 0.0000 0.0000 0.0000 0.0000 20.2905 0.0000
# 6 0.0000 0.0000 0.0000 0.0000 0.0000 16.4698
#
#
#
# Elastic Compliance Matrix: (Units=1/GPa)
#
#
# Indices 1 2 3 4 5 6 
#
# 1 0.023208 -0.007150 -0.002858 0.000000 0.000000 0.000000
# 2 -0.007150 0.023208 -0.002858 0.000000 0.000000 0.000000
# 3 -0.002858 -0.002858 0.011934 0.000000 0.000000 0.000000
# 4 0.000000 0.000000 0.000000 0.049284 0.000000 0.000000
# 5 0.000000 0.000000 0.000000 0.000000 0.049284 0.000000
# 6 0.000000 0.000000 0.000000 0.000000 0.000000 0.060717
#
#
# Mechanical properties :
#
#
# Convention : Reuss Voigt Hill
#
# Bulk Modulus (GPa) = 30.65740 32.55211 31.60475
# Shear Modulus (GPa) = 19.66646 20.90671 20.28659
#
# Velocity S-wave (km/s) = 3.48967 3.59803 3.54427
# Velocity P-wave (km/s) = 5.93470 6.11702 6.02655
#
# Compressibility (1/GPa) = 0.03261856
#
# Stress axis : x y z
#
# Youngs Moduli (GPa) = 43.08803 43.08803 83.79742
#
# Poissons Ratio (x) = 0.30809 0.23947
# Poissons Ratio (y) = 0.30809 0.23947
# Poissons Ratio (z) = 0.12314 0.12314
#
# Static dielectric constant tensor:
#      x y z
#    x 1.540490 0.000000 0.000000 
#    y 0.000000 1.540490 0.000000 
#    z 0.000000 0.000000 1.582450 
# 
# From -- ./inp_files/8400.got.cif
#   From: 2010.05.17/outbox.cif.g08.bks.cpg/sg178_5_cif.got.tgz:8400.got - 2010.05.20 11:30:59.
