data_PCOD9582185
_publ_section_title
;
Structure prediction by ZEFSAII (Michael W. Deem and Ramdas Pophale) SiO2 
 PCOD9582185
Probable space group: P 6 2 2
;
_chemical_formula_sum "Si O2"
_cell_formula_units_Z 84
_cell_length_a 28.387998
_cell_length_b 28.387998
_cell_length_c 5.549717
_cell_angle_alpha 90.000000
_cell_angle_beta 90.000000
_cell_angle_gamma 120.000000
_cell_volume 3873.209613
_symmetry_space_group_name_H-M "P 6 2 2"
_symmetry_group_IT_number 177
_symmetry_cell_setting 'hexagonal'
loop_
_space_group_symop_operation_xyz
x,y,z
x-y,x,z
-y,x-y,z
-x,-y,z
-x+y,-x,z
y,-x+y,z
x-y,-y,-z
-x,-x+y,-z
y,x,-z
-y,-x,-z
-x+y,y,-z
x,x-y,-z
loop_
_atom_site_type_symbol
_atom_site_label
_atom_site_fract_x
_atom_site_fract_y
_atom_site_fract_z
Si Si1 0.968710 0.362197 0.250000
Si Si2 0.846657 0.344386 0.250000
Si Si3 0.843266 0.632290 0.250000
Si Si4 0.280152 0.029842 0.250000
Si Si5 0.878266 0.749003 0.750000
Si Si6 0.150927 0.681780 0.750000
Si Si7 0.468738 0.913451 0.750000
O O1 0.907817 0.352509 0.250000
O O2 0.962838 0.302679 0.250000
O O3 0.000000 0.390527 0.500000
O O4 0.000000 0.390527 0.000000
O O5 0.819573 0.313259 0.496457
O O6 0.860466 0.406968 0.250000
O O7 0.819573 0.313259 0.003543
O O8 0.809477 0.618954 0.500000
O O9 0.880896 0.697566 0.250000
O O10 0.871146 0.595185 0.250000
O O11 0.809477 0.618954 0.000000
O O12 0.280506 0.086089 0.250000
O O13 0.252423 0.000000 0.500000
O O14 0.252423 0.000000 0.000000
O O15 0.890028 0.780056 0.500000
O O16 0.890028 0.780056 0.000000
O O17 0.105516 0.618319 0.750000
O O18 0.470766 0.941532 0.500000
O O19 0.470766 0.941532 0.000000
#
# Coordination Sequence:
#
# PCOD9582185 Si02
#       7
#    12  12  12  12  12  12  12
#     4  10  21  33  47  70  93 128 175 215 250 300
#     4  10  19  31  53  68  94 123 173 201 245 292
#     4  10  21  32  45  75 103 125 153 195 267 324
#     4  10  21  36  51  70 102 145 184 210 263 343
#     4  10  21  33  51  75 105 128 175 224 278 314
#     4  10  19  31  51  69  94 130 151 191 252 324
#     4   8  16  30  46  69  87 117 164 188 229 299
#
# _framework density 21.687439999999999
#
# number of rings (size 3 to 8) (size 9 to 14) (size 15 to 20)
#    0.000    2.286    0.000    2.571    8.000    0.000 
#    0.000    0.000    0.000   23.143    0.000    0.000 
#    0.000    0.000    0.000  231.429    0.000    0.000 
#
# Total GULP energy -468857.746882 kJ/mol
# GULP energy per Si atom -5581.639844 kJ/mol
# Density = 2.163808 g / cm^3
# Si number density = 21.687440 Si / 1000 Ang^3
#
#
#
# Elastic Constant Matrix: (Units=GPa)
#
#
# Indices 1 2 3 4 5 6 
#
# 1 29.9029 11.8124 20.2305 0.0000 0.0000 0.0000
# 2 11.8124 29.9029 20.2305 0.0000 0.0000 0.0000
# 3 20.2305 20.2305 265.6343 0.0000 0.0000 0.0000
# 4 0.0000 0.0000 0.0000 19.4935 0.0000 0.0000
# 5 0.0000 0.0000 0.0000 0.0000 19.4935 0.0000
# 6 0.0000 0.0000 0.0000 0.0000 0.0000 9.0452
#
#
#
# Elastic Compliance Matrix: (Units=1/GPa)
#
#
# Indices 1 2 3 4 5 6 
#
# 1 0.040581 -0.014697 -0.001971 0.000000 0.000000 0.000000
# 2 -0.014697 0.040581 -0.001971 0.000000 0.000000 0.000000
# 3 -0.001971 -0.001971 0.004065 0.000000 0.000000 0.000000
# 4 0.000000 0.000000 0.000000 0.051299 0.000000 0.000000
# 5 0.000000 0.000000 0.000000 0.000000 0.051299 0.000000
# 6 0.000000 0.000000 0.000000 0.000000 0.000000 0.110556
#
#
# Mechanical properties :
#
#
# Convention : Reuss Voigt Hill
#
# Bulk Modulus (GPa) = 20.85605 47.77631 34.31618
# Shear Modulus (GPa) = 14.21899 27.81755 21.01827
#
# Velocity S-wave (km/s) = 2.56331 3.58531 3.11649
# Velocity P-wave (km/s) = 4.28932 6.26231 5.36725
#
# Compressibility (1/GPa) = 0.04794771
#
# Stress axis : x y z
#
# Youngs Moduli (GPa) = 24.64212 24.64212 246.01220
#
# Poissons Ratio (x) = 0.36216 0.48496
# Poissons Ratio (y) = 0.36216 0.48496
# Poissons Ratio (z) = 0.04858 0.04858
#
# Static dielectric constant tensor:
#      x y z
#    x 1.773250 0.000000 0.000000 
#    y 0.000000 1.773250 0.000000 
#    z 0.000000 0.000000 1.987540 
# 
# From -- ./inp_files/721.got.cif
#   From: 2010.05.17/outbox.cif.g08.bks.cpg/sg177_1_cif.got.tgz:721.got - 2010.05.20 11:28:44.
