data_PCOD9582755
_publ_section_title
;
Structure prediction by ZEFSAII (Michael W. Deem and Ramdas Pophale) SiO2 
 PCOD9582755
Probable space group: P 61 2 2
;
_chemical_formula_sum "Si O2"
_cell_formula_units_Z 36
_cell_length_a 8.793165
_cell_length_b 8.793165
_cell_length_c 27.174021
_cell_angle_alpha 90.000000
_cell_angle_beta 90.000000
_cell_angle_gamma 120.000000
_cell_volume 1819.596042
_symmetry_space_group_name_H-M "P 61 2 2"
_symmetry_group_IT_number 178
_symmetry_cell_setting 'hexagonal'
loop_
_space_group_symop_operation_xyz
x,y,z
x-y,x,1/6+z
-y,x-y,1/3+z
-x,-y,1/2+z
-x+y,-x,2/3+z
y,-x+y,5/6+z
x-y,-y,-z
-x,-x+y,2/3-z
y,x,1/3-z
-y,-x,5/6-z
-x+y,y,1/2-z
x,x-y,1/6-z
loop_
_atom_site_type_symbol
_atom_site_label
_atom_site_fract_x
_atom_site_fract_y
_atom_site_fract_z
Si Si1 0.869543 0.780653 0.431770
Si Si2 0.432108 0.875473 0.610153
Si Si3 0.604873 0.807673 0.364678
O O1 0.894489 0.616252 0.416910
O O2 0.693265 0.751868 0.406510
O O3 0.844155 0.757516 0.490452
O O4 0.035888 0.964113 0.416667
O O5 0.462862 0.731431 0.583334
O O6 0.351171 0.811079 0.665122
O O7 0.606455 0.061300 0.614824
#
# Coordination Sequence:
#
# PCOD9582755 Si02
#       3
#    12  12  12
#     4  10  22  41  63  93 128 173 218 277 340 404
#     4  10  22  39  63  92 128 170 219 274 343 403
#     4  10  22  41  66  92 134 170 227 279 338 414
#
# _framework density 19.784611999999999
#
# number of rings (size 3 to 8) (size 9 to 14) (size 15 to 20)
#    2.000    0.000    0.000    4.000    0.000    0.000 
#    6.000    0.000    0.000    0.000    0.000    0.000 
#    0.000    0.000    0.000    0.000    0.000    0.000 
#
# Total GULP energy -200599.984731 kJ/mol
# GULP energy per Si atom -5572.221798 kJ/mol
# Density = 1.973958 g / cm^3
# Si number density = 19.784612 Si / 1000 Ang^3
#
#
#
# Elastic Constant Matrix: (Units=GPa)
#
#
# Indices 1 2 3 4 5 6 
#
# 1 86.5715 4.3874 4.7990 0.0000 0.0000 0.0000
# 2 4.3874 86.5715 4.7990 0.0000 0.0000 0.0000
# 3 4.7990 4.7990 36.4691 0.0000 0.0000 0.0000
# 4 0.0000 0.0000 0.0000 37.4489 0.0000 0.0000
# 5 0.0000 0.0000 0.0000 0.0000 37.4489 0.0000
# 6 0.0000 0.0000 0.0000 0.0000 0.0000 41.0921
#
#
#
# Elastic Compliance Matrix: (Units=1/GPa)
#
#
# Indices 1 2 3 4 5 6 
#
# 1 0.011658 -0.000510 -0.001467 0.000000 0.000000 0.000000
# 2 -0.000510 0.011658 -0.001467 0.000000 0.000000 0.000000
# 3 -0.001467 -0.001467 0.027807 0.000000 0.000000 0.000000
# 4 0.000000 0.000000 0.000000 0.026703 0.000000 0.000000
# 5 0.000000 0.000000 0.000000 0.000000 0.026703 0.000000
# 6 0.000000 0.000000 0.000000 0.000000 0.000000 0.024336
#
#
# Mechanical properties :
#
#
# Convention : Reuss Voigt Hill
#
# Bulk Modulus (GPa) = 22.60611 26.39809 24.50210
# Shear Modulus (GPa) = 33.22314 36.23974 34.73144
#
# Velocity S-wave (km/s) = 4.10230 4.28450 4.19439
# Velocity P-wave (km/s) = 5.82146 6.15204 5.98903
#
# Compressibility (1/GPa) = 0.04423583
#
# Stress axis : x y z
#
# Youngs Moduli (GPa) = 85.77584 85.77584 35.96273
#
# Poissons Ratio (x) = 0.04370 0.05276
# Poissons Ratio (y) = 0.04370 0.05276
# Poissons Ratio (z) = 0.12584 0.12584
#
# Static dielectric constant tensor:
#      x y z
#    x 1.680800 0.000000 0.000000 
#    y 0.000000 1.680800 0.000000 
#    z 0.000000 0.000000 1.701080 
# 
# From -- ./inp_files/8485.got.cif
#   From: 2010.05.17/outbox.cif.g08.bks.cpg/sg178_5_cif.got.tgz:8485.got - 2010.05.20 11:30:59.
