data_PCOD9582937
_publ_section_title
;
Structure prediction by ZEFSAII (Michael W. Deem and Ramdas Pophale) SiO2 
 PCOD9582937
Probable space group: P 61 2 2
;
_chemical_formula_sum "Si O2"
_cell_formula_units_Z 72
_cell_length_a 15.394779
_cell_length_b 15.394779
_cell_length_c 17.873376
_cell_angle_alpha 90.000000
_cell_angle_beta 90.000000
_cell_angle_gamma 120.000000
_cell_volume 3668.462981
_symmetry_space_group_name_H-M "P 61 2 2"
_symmetry_group_IT_number 178
_symmetry_cell_setting 'hexagonal'
loop_
_space_group_symop_operation_xyz
x,y,z
x-y,x,1/6+z
-y,x-y,1/3+z
-x,-y,1/2+z
-x+y,-x,2/3+z
y,-x+y,5/6+z
x-y,-y,-z
-x,-x+y,2/3-z
y,x,1/3-z
-y,-x,5/6-z
-x+y,y,1/2-z
x,x-y,1/6-z
loop_
_atom_site_type_symbol
_atom_site_label
_atom_site_fract_x
_atom_site_fract_y
_atom_site_fract_z
Si Si1 0.062358 0.763358 0.637603
Si Si2 0.461574 0.999290 0.173391
Si Si3 0.314485 0.195206 0.660631
Si Si4 0.890806 0.161828 0.303265
Si Si5 0.504526 0.606669 0.118277
Si Si6 0.155537 0.479575 0.287410
O O1 0.124992 0.825826 0.565024
O O2 0.110120 0.816144 0.715756
O O3 0.055656 0.655474 0.638638
O O4 0.950683 0.749192 0.644251
O O5 0.521942 0.043884 0.250000
O O6 0.471667 0.078315 0.109902
O O7 0.501215 0.930707 0.133489
O O8 0.257001 0.257001 0.666667
O O9 0.274239 0.137120 0.583334
O O10 0.430556 0.278671 0.643501
O O11 0.874076 0.244011 0.347770
O O12 0.000000 0.183696 0.333334
O O13 0.554592 0.554592 0.166667
O O14 0.391143 0.549751 0.146214
O O15 0.262394 0.524788 0.250000
#
# Coordination Sequence:
#
# PCOD9582937 Si02
#       6
#    12  12  12  12  12  12
#     4  12  24  39  70  98 133 186 242 282 354 433
#     4  11  21  36  64  99 124 172 232 275 342 430
#     4  11  24  46  65  90 132 184 234 279 341 412
#     4  12  21  40  65 103 138 178 228 296 355 409
#     4   9  20  40  63  84 129 169 211 277 337 400
#     4  11  19  39  65  96 137 169 205 284 358 403
#
# _framework density 19.626747999999999
#
# number of rings (size 3 to 8) (size 9 to 14) (size 15 to 20)
#    0.000    1.000    5.000    3.000    0.000    2.667 
#    0.000    8.333    0.000    0.000    0.000    0.000 
#    0.000    0.000    0.000    0.000    0.000    0.000 
#
# Total GULP energy -401444.137300 kJ/mol
# GULP energy per Si atom -5575.613018 kJ/mol
# Density = 1.958208 g / cm^3
# Si number density = 19.626748 Si / 1000 Ang^3
#
#
#
# Elastic Constant Matrix: (Units=GPa)
#
#
# Indices 1 2 3 4 5 6 
#
# 1 70.7103 27.2257 38.3722 0.0000 0.0000 0.0000
# 2 27.2257 70.7103 38.3722 0.0000 0.0000 0.0000
# 3 38.3722 38.3722 159.6274 0.0000 0.0000 0.0000
# 4 0.0000 0.0000 0.0000 32.7613 0.0000 0.0000
# 5 0.0000 0.0000 0.0000 0.0000 32.7613 0.0000
# 6 0.0000 0.0000 0.0000 0.0000 0.0000 21.7423
#
#
#
# Elastic Compliance Matrix: (Units=1/GPa)
#
#
# Indices 1 2 3 4 5 6 
#
# 1 0.017789 -0.005208 -0.003024 0.000000 0.000000 0.000000
# 2 -0.005208 0.017789 -0.003024 0.000000 0.000000 0.000000
# 3 -0.003024 -0.003024 0.007719 0.000000 0.000000 0.000000
# 4 0.000000 0.000000 0.000000 0.030524 0.000000 0.000000
# 5 0.000000 0.000000 0.000000 0.000000 0.030524 0.000000
# 6 0.000000 0.000000 0.000000 0.000000 0.000000 0.045993
#
#
# Mechanical properties :
#
#
# Convention : Reuss Voigt Hill
#
# Bulk Modulus (GPa) = 48.11651 56.55425 52.33538
# Shear Modulus (GPa) = 27.81222 30.59152 29.20187
#
# Velocity S-wave (km/s) = 3.76847 3.95228 3.86146
# Velocity P-wave (km/s) = 6.59577 7.05016 6.82674
#
# Compressibility (1/GPa) = 0.02078289
#
# Stress axis : x y z
#
# Youngs Moduli (GPa) = 56.21579 56.21579 129.55817
#
# Poissons Ratio (x) = 0.29277 0.39181
# Poissons Ratio (y) = 0.29277 0.39181
# Poissons Ratio (z) = 0.17001 0.17001
#
# Static dielectric constant tensor:
#      x y z
#    x 1.749990 0.000000 0.000000 
#    y 0.000000 1.749990 0.000000 
#    z 0.000000 0.000000 1.699470 
# 
# From -- ./inp_files/6766.got.cif
#   From: 2010.05.17/outbox.cif.g08.bks.cpg/sg178_4_cif.got.tgz:6766.got - 2010.05.20 11:30:59.
