data_PCOD9582099
_publ_section_title
;
Structure prediction by ZEFSAII (Michael W. Deem and Ramdas Pophale) SiO2 
 PCOD9582099
Probable space group: P 63/M
;
_chemical_formula_sum "Si O2"
_cell_formula_units_Z 54
_cell_length_a 11.806137
_cell_length_b 11.806137
_cell_length_c 21.758606
_cell_angle_alpha 90.000000
_cell_angle_beta 90.000000
_cell_angle_gamma 120.000000
_cell_volume 2626.499587
_symmetry_space_group_name_H-M "P 63/M"
_symmetry_group_IT_number 176
_symmetry_cell_setting 'hexagonal'
loop_
_space_group_symop_operation_xyz
x,y,z
x-y,x,1/2+z
-y,x-y,z
-x,-y,1/2+z
-x+y,-x,z
y,-x+y,1/2+z
-x,-y,-z
-x+y,-x,1/2-z
y,-x+y,-z
x,y,1/2-z
x-y,x,-z
-y,x-y,1/2-z
loop_
_atom_site_type_symbol
_atom_site_label
_atom_site_fract_x
_atom_site_fract_y
_atom_site_fract_z
Si Si1 0.782582 0.719829 0.144229
Si Si2 0.503259 0.790428 0.750000
Si Si3 0.333333 0.666667 0.949930
Si Si4 0.616996 0.827837 0.090410
Si Si5 0.731744 0.124028 0.046368
Si Si6 0.000000 0.000000 0.177631
Si Si7 0.333334 0.666667 0.401774
O O1 0.741583 0.601743 0.192518
O O2 0.689284 0.781803 0.137966
O O3 0.793674 0.665315 0.078596
O O4 0.922503 0.848964 0.157163
O O5 0.370336 0.802265 0.750000
O O6 0.348762 0.805291 0.931758
O O7 0.333334 0.666667 0.023811
O O8 0.474036 0.780477 0.116651
O O9 0.676629 0.977809 0.070248
O O10 0.608193 0.751909 0.026543
O O11 0.000000 0.000000 0.250000
#
# Coordination Sequence:
#
# PCOD9582099 Si02
#       7
#    12   6   4  12  12   4   4
#     4  12  24  42  71  97 137 176 231 289 341 407
#     4  10  28  50  70 102 126 180 238 284 334 400
#     4   9  24  36  60  91 140 190 228 273 328 407
#     4  11  23  40  63  98 144 183 223 287 346 421
#     4  11  23  38  64 101 138 184 230 280 346 415
#     4  12  24  45  64  98 130 174 225 280 353 403
#     4   9  24  39  54  94 143 187 225 261 352 416
#
# _framework density 20.559685000000002
#
# number of rings (size 3 to 8) (size 9 to 14) (size 15 to 20)
#    0.222    0.889    5.556    0.000    6.222    2.667 
#    0.000    2.222    0.000    0.000    0.000    0.000 
#    0.000    0.000    0.000    0.000    0.000    0.000 
#
# Total GULP energy -300886.162811 kJ/mol
# GULP energy per Si atom -5571.965978 kJ/mol
# Density = 2.051289 g / cm^3
# Si number density = 20.559685 Si / 1000 Ang^3
#
#
#
# Elastic Constant Matrix: (Units=GPa)
#
#
# Indices 1 2 3 4 5 6 
#
# 1 164.0738 29.5292 15.3160 0.0000 0.0000 -0.0006
# 2 29.5292 164.0764 15.3163 0.0000 0.0000 -0.0003
# 3 15.3160 15.3163 44.5048 0.0000 0.0000 0.0000
# 4 0.0000 0.0000 0.0000 24.8339 -0.0001 0.0000
# 5 0.0000 0.0000 0.0000 -0.0001 24.8335 0.0000
# 6 -0.0006 -0.0003 0.0000 0.0000 0.0000 67.2747
#
#
#
# Elastic Compliance Matrix: (Units=1/GPa)
#
#
# Indices 1 2 3 4 5 6 
#
# 1 0.006448 -0.000985 -0.001880 0.000000 0.000000 0.000000
# 2 -0.000985 0.006447 -0.001880 0.000000 0.000000 0.000000
# 3 -0.001880 -0.001880 0.023763 0.000000 0.000000 0.000000
# 4 0.000000 0.000000 0.000000 0.040267 0.000000 0.000000
# 5 0.000000 0.000000 0.000000 0.000000 0.040268 0.000000
# 6 0.000000 0.000000 0.000000 0.000000 0.000000 0.014864
#
#
# Mechanical properties :
#
#
# Convention : Reuss Voigt Hill
#
# Bulk Modulus (GPa) = 36.80678 54.77533 45.79105
# Shear Modulus (GPa) = 33.19959 44.22135 38.71047
#
# Velocity S-wave (km/s) = 4.02281 4.64279 4.34387
# Velocity P-wave (km/s) = 6.28638 7.44584 6.89054
#
# Compressibility (1/GPa) = 0.02716891
#
# Stress axis : x y z
#
# Youngs Moduli (GPa) = 155.09735 155.09975 42.08150
#
# Poissons Ratio (x) = 0.15276 0.07911
# Poissons Ratio (y) = 0.15275 0.07911
# Poissons Ratio (z) = 0.29157 0.29158
#
# Static dielectric constant tensor:
#      x y z
#    x 1.885240 0.000000 0.000000 
#    y 0.000000 1.885240 0.000000 
#    z 0.000000 0.000000 1.724740 
# 
# From -- ./inp_files/4045.got.cif
#   From: 2010.05.17/outbox.cif.g08.bks.cpg/sg176_3_cif.got.tgz:4045.got - 2010.06.03 11:36:45.
