data_PCOD9582125
_publ_section_title
;
Structure prediction by ZEFSAII (Michael W. Deem and Ramdas Pophale) SiO2 
 PCOD9582125
Probable space group: P 63/M
;
_chemical_formula_sum "Si O2"
_cell_formula_units_Z 48
_cell_length_a 17.014452
_cell_length_b 17.014452
_cell_length_c 8.283000
_cell_angle_alpha 90.000000
_cell_angle_beta 90.000000
_cell_angle_gamma 120.000000
_cell_volume 2076.606576
_symmetry_space_group_name_H-M "P 63/M"
_symmetry_group_IT_number 176
_symmetry_cell_setting 'hexagonal'
loop_
_space_group_symop_operation_xyz
x,y,z
x-y,x,1/2+z
-y,x-y,z
-x,-y,1/2+z
-x+y,-x,z
y,-x+y,1/2+z
-x,-y,-z
-x+y,-x,1/2-z
y,-x+y,-z
x,y,1/2-z
x-y,x,-z
-y,x-y,1/2-z
loop_
_atom_site_type_symbol
_atom_site_label
_atom_site_fract_x
_atom_site_fract_y
_atom_site_fract_z
Si Si1 0.474671 0.859273 0.563939
Si Si2 0.806711 0.946528 0.062055
Si Si3 0.663263 0.665552 0.556755
Si Si4 0.281746 0.806773 0.064660
O O1 0.454204 0.867526 0.750000
O O2 0.563165 0.950442 0.506390
O O3 0.500371 0.780764 0.542535
O O4 0.385846 0.832593 0.459819
O O5 0.799673 0.919849 0.250000
O O6 0.715159 0.945813 0.011668
O O7 0.833255 0.884488 0.958789
O O8 0.658015 0.666423 0.750000
O O9 0.616671 0.719425 0.484399
O O10 0.252768 0.782915 0.250000
#
# Coordination Sequence:
#
# PCOD9582125 Si02
#       4
#    12  12  12  12
#     4  12  25  43  66  94 128 167 210 260 314 374
#     4  11  24  41  64  91 125 163 206 255 308 367
#     4  11  24  43  66  95 127 165 210 259 314 375
#     4  12  25  43  66  94 128 167 210 260 314 374
#
# _framework density 23.114633999999999
#
# number of rings (size 3 to 8) (size 9 to 14) (size 15 to 20)
#    0.000    0.500    0.000    9.000    0.000    8.000 
#    0.000    0.000    0.000    0.000    0.000    0.000 
#    0.000    0.000    0.000    0.000    0.000    0.000 
#
# Total GULP energy -269171.887904 kJ/mol
# GULP energy per Si atom -5607.747665 kJ/mol
# Density = 2.306202 g / cm^3
# Si number density = 23.114634 Si / 1000 Ang^3
#
#
#
# Elastic Constant Matrix: (Units=GPa)
#
#
# Indices 1 2 3 4 5 6 
#
# 1 74.9892 0.4767 -10.0212 0.0000 0.0000 0.0000
# 2 0.4767 74.9892 -10.0212 0.0000 0.0000 0.0000
# 3 -10.0212 -10.0212 60.6117 0.0000 0.0000 0.0000
# 4 0.0000 0.0000 0.0000 32.9977 0.0000 0.0000
# 5 0.0000 0.0000 0.0000 0.0000 32.9977 0.0000
# 6 0.0000 0.0000 0.0000 0.0000 0.0000 37.2563
#
#
#
# Elastic Compliance Matrix: (Units=1/GPa)
#
#
# Indices 1 2 3 4 5 6 
#
# 1 0.013640 0.000220 0.002291 0.000000 0.000000 0.000000
# 2 0.000220 0.013640 0.002291 0.000000 0.000000 0.000000
# 3 0.002291 0.002291 0.017256 0.000000 0.000000 0.000000
# 4 0.000000 0.000000 0.000000 0.030305 0.000000 0.000000
# 5 0.000000 0.000000 0.000000 0.000000 0.030305 0.000000
# 6 0.000000 0.000000 0.000000 0.000000 0.000000 0.026841
#
#
# Mechanical properties :
#
#
# Convention : Reuss Voigt Hill
#
# Bulk Modulus (GPa) = 18.47020 19.05095 18.76057
# Shear Modulus (GPa) = 35.60492 35.99403 35.79947
#
# Velocity S-wave (km/s) = 3.92900 3.95041 3.93972
# Velocity P-wave (km/s) = 5.34704 5.39143 5.36928
#
# Compressibility (1/GPa) = 0.05414128
#
# Stress axis : x y z
#
# Youngs Moduli (GPa) = 73.31333 73.31333 57.95020
#
# Poissons Ratio (x) = -0.01609 -0.13279
# Poissons Ratio (y) = -0.01609 -0.13279
# Poissons Ratio (z) = -0.16800 -0.16800
#
# Static dielectric constant tensor:
#      x y z
#    x 1.849750 0.000000 0.000000 
#    y 0.000000 1.849750 0.000000 
#    z 0.000000 0.000000 1.771410 
# 
# From -- ./inp_files/584.got.cif
#   From: 2010.05.17/outbox.cif.g08.bks.cpg/sg176_1_cif.got.tgz:584.got - 2010.06.03 11:36:45.
