data_PCOD9582695
_publ_section_title
;
Structure prediction by ZEFSAII (Michael W. Deem and Ramdas Pophale) SiO2 
 PCOD9582695
Probable space group: P 61 2 2
;
_chemical_formula_sum "Si O2"
_cell_formula_units_Z 90
_cell_length_a 17.384283
_cell_length_b 17.384283
_cell_length_c 19.219106
_cell_angle_alpha 90.000000
_cell_angle_beta 90.000000
_cell_angle_gamma 120.000000
_cell_volume 5030.108817
_symmetry_space_group_name_H-M "P 61 2 2"
_symmetry_group_IT_number 178
_symmetry_cell_setting 'hexagonal'
loop_
_space_group_symop_operation_xyz
x,y,z
x-y,x,1/6+z
-y,x-y,1/3+z
-x,-y,1/2+z
-x+y,-x,2/3+z
y,-x+y,5/6+z
x-y,-y,-z
-x,-x+y,2/3-z
y,x,1/3-z
-y,-x,5/6-z
-x+y,y,1/2-z
x,x-y,1/6-z
loop_
_atom_site_type_symbol
_atom_site_label
_atom_site_fract_x
_atom_site_fract_y
_atom_site_fract_z
Si Si1 0.092457 0.184914 0.250000
Si Si2 0.494451 0.964274 0.076853
Si Si3 0.864610 0.103069 0.570243
Si Si4 0.285734 0.534473 0.933474
Si Si5 0.688195 0.086928 0.636323
Si Si6 0.148301 0.423556 0.696389
Si Si7 0.512761 0.124776 0.319843
Si Si8 0.980826 0.682075 0.562456
O O1 0.146275 0.131684 0.256889
O O2 0.108970 0.240866 0.319961
O O3 0.391309 0.934840 0.083442
O O4 0.516672 0.887927 0.099936
O O5 0.542184 0.042478 0.133805
O O6 0.530391 0.000000 0.000000
O O7 0.774720 0.096231 0.598983
O O8 0.945147 0.194920 0.597696
O O9 0.377005 0.622996 0.916667
O O10 0.258435 0.480029 0.861738
O O11 0.298328 0.471553 0.988489
O O12 0.212062 0.553035 0.966203
O O13 0.665260 0.013526 0.696672
O O14 0.195082 0.390163 0.750000
O O15 0.063554 0.346760 0.656421
O O16 0.567732 0.135464 0.250000
O O17 0.412444 0.096896 0.297947
#
# Coordination Sequence:
#
# PCOD9582695 Si02
#       8
#     6  12  12  12  12  12  12  12
#     4  10  24  36  64  94 128 154 194 262 314 390
#     4  11  23  38  62  92 125 167 208 263 315 371
#     4  11  21  41  62  93 120 159 204 252 320 378
#     4  11  22  39  62  88 121 173 206 252 323 373
#     4  11  21  38  63  90 119 163 212 248 304 389
#     4  10  22  40  64  89 124 162 215 262 307 378
#     4  11  22  40  61  90 127 164 218 268 308 373
#     4  10  21  38  68  87 118 164 210 254 312 377
#
# _framework density 17.892257000000001
#
# number of rings (size 3 to 8) (size 9 to 14) (size 15 to 20)
#    0.000    1.333    5.333    0.800    1.867    0.533 
#    2.400    0.000    7.333    0.000    0.000    0.000 
#    0.000    0.000    0.000    0.000    0.000    0.000 
#
# Total GULP energy -502152.514526 kJ/mol
# GULP energy per Si atom -5579.472384 kJ/mol
# Density = 1.785153 g / cm^3
# Si number density = 17.892257 Si / 1000 Ang^3
#
#
#
# Elastic Constant Matrix: (Units=GPa)
#
#
# Indices 1 2 3 4 5 6 
#
# 1 82.3422 48.1891 34.5741 0.0000 0.0000 0.0000
# 2 48.1891 82.3422 34.5741 0.0000 0.0000 0.0000
# 3 34.5741 34.5741 108.3339 0.0000 0.0000 0.0000
# 4 0.0000 0.0000 0.0000 25.8074 0.0000 0.0000
# 5 0.0000 0.0000 0.0000 0.0000 25.8074 0.0000
# 6 0.0000 0.0000 0.0000 0.0000 0.0000 17.0765
#
#
#
# Elastic Compliance Matrix: (Units=1/GPa)
#
#
# Indices 1 2 3 4 5 6 
#
# 1 0.019250 -0.010030 -0.002942 0.000000 0.000000 0.000000
# 2 -0.010030 0.019250 -0.002942 0.000000 0.000000 0.000000
# 3 -0.002942 -0.002942 0.011109 0.000000 0.000000 0.000000
# 4 0.000000 0.000000 0.000000 0.038749 0.000000 0.000000
# 5 0.000000 0.000000 0.000000 0.000000 0.038749 0.000000
# 6 0.000000 0.000000 0.000000 0.000000 0.000000 0.058560
#
#
# Mechanical properties :
#
#
# Convention : Reuss Voigt Hill
#
# Bulk Modulus (GPa) = 56.24736 56.41031 56.32883
# Shear Modulus (GPa) = 22.37923 24.11702 23.24813
#
# Velocity S-wave (km/s) = 3.54047 3.67536 3.60855
# Velocity P-wave (km/s) = 6.94393 7.04324 6.99376
#
# Compressibility (1/GPa) = 0.01777861
#
# Stress axis : x y z
#
# Youngs Moduli (GPa) = 51.94851 51.94851 90.01848
#
# Poissons Ratio (x) = 0.52105 0.26487
# Poissons Ratio (y) = 0.52105 0.26487
# Poissons Ratio (z) = 0.15285 0.15285
#
# Static dielectric constant tensor:
#      x y z
#    x 1.609620 0.000000 0.000000 
#    y 0.000000 1.609620 0.000000 
#    z 0.000000 0.000000 1.610910 
# 
# From -- ./inp_files/6997.got.cif
#   From: 2010.05.17/outbox.cif.g08.bks.cpg/sg178_4_cif.got.tgz:6997.got - 2010.05.20 11:30:59.
