data_PCOD9582093
_publ_section_title
;
Structure prediction by ZEFSAII (Michael W. Deem and Ramdas Pophale) SiO2 
 PCOD9582093
Probable space group: P 63/M
;
_chemical_formula_sum "Si O2"
_cell_formula_units_Z 42
_cell_length_a 9.859089
_cell_length_b 9.859089
_cell_length_c 22.098043
_cell_angle_alpha 90.000000
_cell_angle_beta 90.000000
_cell_angle_gamma 120.000000
_cell_volume 1860.193062
_symmetry_space_group_name_H-M "P 63/M"
_symmetry_group_IT_number 176
_symmetry_cell_setting 'hexagonal'
loop_
_space_group_symop_operation_xyz
x,y,z
x-y,x,1/2+z
-y,x-y,z
-x,-y,1/2+z
-x+y,-x,z
y,-x+y,1/2+z
-x,-y,-z
-x+y,-x,1/2-z
y,-x+y,-z
x,y,1/2-z
x-y,x,-z
-y,x-y,1/2-z
loop_
_atom_site_type_symbol
_atom_site_label
_atom_site_fract_x
_atom_site_fract_y
_atom_site_fract_z
Si Si1 0.333334 0.666667 0.147879
Si Si2 0.334215 0.083303 0.514878
Si Si3 0.601258 0.605374 0.647487
Si Si4 0.333334 0.666667 0.000686
Si Si5 0.977460 0.813250 0.250000
Si Si6 0.333334 0.666668 0.822760
O O1 0.394650 0.550101 0.166657
O O2 0.333334 0.666667 0.074230
O O3 0.276283 0.209020 0.521790
O O4 0.504689 0.180279 0.484038
O O5 0.353676 0.023178 0.579846
O O6 0.714511 0.745481 0.691776
O O7 0.432503 0.588706 0.654068
O O8 0.844957 0.863255 0.250000
O O9 0.333334 0.666668 0.750000
#
# Coordination Sequence:
#
# PCOD9582093 Si02
#       6
#     4  12  12   4   6   4
#     4   9  24  43  71 100 142 187 229 298 355 422
#     4  11  25  42  70 103 141 186 234 290 353 424
#     4  11  26  46  72 106 146 185 243 294 364 426
#     4   9  21  46  65  97 138 188 239 279 343 419
#     4  10  26  40  70 102 146 182 234 296 358 426
#     4  12  27  49  74 103 136 185 244 304 365 430
#
# _framework density 22.578303999999999
#
# number of rings (size 3 to 8) (size 9 to 14) (size 15 to 20)
#    0.286    1.143    1.429    1.143    8.000    8.000 
#    0.000    0.000    0.000    0.000    0.000    0.000 
#    0.000    0.000    0.000    0.000    0.000    0.000 
#
# Total GULP energy -235162.768433 kJ/mol
# GULP energy per Si atom -5599.113534 kJ/mol
# Density = 2.252691 g / cm^3
# Si number density = 22.578304 Si / 1000 Ang^3
#
#
#
# Elastic Constant Matrix: (Units=GPa)
#
#
# Indices 1 2 3 4 5 6 
#
# 1 117.7523 36.9117 30.5385 0.0000 0.0000 0.0005
# 2 36.9117 117.7549 30.5379 0.0000 0.0000 0.0013
# 3 30.5385 30.5379 83.6312 0.0000 0.0000 0.0003
# 4 0.0000 0.0000 0.0000 23.5512 -0.0001 0.0000
# 5 0.0000 0.0000 0.0000 -0.0001 23.5510 0.0000
# 6 0.0005 0.0013 0.0003 0.0000 0.0000 40.4202
#
#
#
# Elastic Compliance Matrix: (Units=1/GPa)
#
#
# Indices 1 2 3 4 5 6 
#
# 1 0.009963 -0.002407 -0.002759 0.000000 0.000000 0.000000
# 2 -0.002407 0.009962 -0.002759 0.000000 0.000000 0.000000
# 3 -0.002759 -0.002759 0.013972 0.000000 0.000000 0.000000
# 4 0.000000 0.000000 0.000000 0.042461 0.000000 0.000000
# 5 0.000000 0.000000 0.000000 0.000000 0.042461 0.000000
# 6 0.000000 0.000000 0.000000 0.000000 0.000000 0.024740
#
#
# Mechanical properties :
#
#
# Convention : Reuss Voigt Hill
#
# Bulk Modulus (GPa) = 55.41076 57.23495 56.32286
# Shear Modulus (GPa) = 30.22533 32.24782 31.23657
#
# Velocity S-wave (km/s) = 3.66278 3.78334 3.72355
# Velocity P-wave (km/s) = 6.51788 6.67004 6.59440
#
# Compressibility (1/GPa) = 0.01804704
#
# Stress axis : x y z
#
# Youngs Moduli (GPa) = 100.37596 100.37883 71.57182
#
# Poissons Ratio (x) = 0.24165 0.19745
# Poissons Ratio (y) = 0.24165 0.19744
# Poissons Ratio (z) = 0.27692 0.27691
#
# Static dielectric constant tensor:
#      x y z
#    x 1.834210 0.000000 0.000000 
#    y 0.000000 1.834210 0.000000 
#    z 0.000000 0.000000 1.818770 
# 
# From -- ./inp_files/4433.got.cif
#   From: 2010.05.17/outbox.cif.g08.bks.cpg/sg176_3_cif.got.tgz:4433.got - 2010.06.03 11:36:45.
