data_PCOD9582274
_publ_section_title
;
Structure prediction by ZEFSAII (Michael W. Deem and Ramdas Pophale) SiO2 
 PCOD9582274
Probable space group: P 6 2 2
;
_chemical_formula_sum "Si O2"
_cell_formula_units_Z 42
_cell_length_a 21.102387
_cell_length_b 21.102387
_cell_length_c 5.814703
_cell_angle_alpha 90.000000
_cell_angle_beta 90.000000
_cell_angle_gamma 120.000000
_cell_volume 2242.442601
_symmetry_space_group_name_H-M "P 6 2 2"
_symmetry_group_IT_number 177
_symmetry_cell_setting 'hexagonal'
loop_
_space_group_symop_operation_xyz
x,y,z
x-y,x,z
-y,x-y,z
-x,-y,z
-x+y,-x,z
y,-x+y,z
x-y,-y,-z
-x,-x+y,-z
y,x,-z
-y,-x,-z
-x+y,y,-z
x,x-y,-z
loop_
_atom_site_type_symbol
_atom_site_label
_atom_site_fract_x
_atom_site_fract_y
_atom_site_fract_z
Si Si1 0.305297 0.792269 0.164797
Si Si2 0.364722 0.435306 0.161790
Si Si3 0.798473 0.640133 0.254003
Si Si4 0.434246 0.868491 0.500000
O O1 0.232040 0.791774 0.249468
O O2 0.361826 0.811505 0.364047
O O3 0.277458 0.722543 0.000000
O O4 0.347129 0.862213 0.003065
O O5 0.284376 0.374068 0.252469
O O6 0.412724 0.491939 0.358725
O O7 0.402086 0.402086 0.000000
O O8 0.837026 0.674052 0.500000
O O9 0.835677 0.671354 0.000000
#
# Coordination Sequence:
#
# PCOD9582274 Si02
#       4
#    12  12  12   6
#     4   9  21  35  53  72  93 128 168 206 263 330
#     4  10  22  35  51  79 102 124 162 216 268 335
#     4   9  17  37  56  71  93 134 165 197 253 324
#     4  12  20  35  58  68 100 132 164 208 286 326
#
# _framework density 18.729576000000002
#
# number of rings (size 3 to 8) (size 9 to 14) (size 15 to 20)
#    0.000    2.857    2.857    0.857    0.000    4.571 
#    0.000    0.000    0.000   91.429    0.000    0.000 
#    0.000    0.000    0.000    0.000    0.000    0.000 
#
# Total GULP energy -233938.468767 kJ/mol
# GULP energy per Si atom -5569.963542 kJ/mol
# Density = 1.868695 g / cm^3
# Si number density = 18.729576 Si / 1000 Ang^3
#
#
#
# Elastic Constant Matrix: (Units=GPa)
#
#
# Indices 1 2 3 4 5 6 
#
# 1 52.9426 53.1111 41.5241 0.0000 0.0000 0.0000
# 2 53.1111 52.9426 41.5241 0.0000 0.0000 0.0000
# 3 41.5241 41.5241 127.0370 0.0000 0.0000 0.0000
# 4 0.0000 0.0000 0.0000 64.9375 0.0000 0.0000
# 5 0.0000 0.0000 0.0000 0.0000 64.9375 0.0000
# 6 0.0000 0.0000 0.0000 0.0000 0.0000 -0.0842
#
#
#
# Elastic Compliance Matrix: (Units=1/GPa)
#
#
# Indices 1 2 3 4 5 6 
#
# 1 -2.961130 2.973803 -0.004142 0.000000 0.000000 -0.000001
# 2 2.973803 -2.961130 -0.004142 0.000000 0.000000 0.000001
# 3 -0.004142 -0.004142 0.010580 0.000000 0.000000 0.000000
# 4 0.000000 0.000000 0.000000 0.015399 0.000000 0.000000
# 5 0.000000 0.000000 0.000000 0.000000 0.015399 0.000000
# 6 -0.000001 0.000001 0.000000 0.000000 0.000000-11.869865
#
#
# Mechanical properties :
#
#
# Convention : Reuss Voigt Hill
#
# Bulk Modulus (GPa) = 51.66302 56.13786 53.90044
# Shear Modulus (GPa) = -0.21119 32.40900 16.09891
#
# Velocity S-wave (km/s) = -0.33616 4.16428 2.93498
# Velocity P-wave (km/s) = 5.24336 7.29106 6.35029
#
# Compressibility (1/GPa) = 0.01935621
#
# Stress axis : x y z
#
# Youngs Moduli (GPa) = -0.33771 -0.33771 94.52044
#
# Poissons Ratio (x) = 1.00428 0.39154
# Poissons Ratio (y) = 1.00428 0.39154
# Poissons Ratio (z) = -0.00140 -0.00140
#
# Static dielectric constant tensor:
#      x y z
#    x 1.629940 0.000000 0.000000 
#    y 0.000000 1.629940 0.000000 
#    z 0.000000 0.000000 1.733520 
# 
# From -- ./inp_files/341.got.cif
#   From: 2010.05.17/outbox.cif.g08.bks.cpg/sg177_1_cif.got.tgz:341.got - 2010.05.20 11:28:44.
