data_PCOD9582121
_publ_section_title
;
Structure prediction by ZEFSAII (Michael W. Deem and Ramdas Pophale) SiO2 
 PCOD9582121
Probable space group: P 63/M
;
_chemical_formula_sum "Si O2"
_cell_formula_units_Z 66
_cell_length_a 22.280756
_cell_length_b 22.280756
_cell_length_c 7.704756
_cell_angle_alpha 90.000000
_cell_angle_beta 90.000000
_cell_angle_gamma 120.000000
_cell_volume 3312.450268
_symmetry_space_group_name_H-M "P 63/M"
_symmetry_group_IT_number 176
_symmetry_cell_setting 'hexagonal'
loop_
_space_group_symop_operation_xyz
x,y,z
x-y,x,1/2+z
-y,x-y,z
-x,-y,1/2+z
-x+y,-x,z
y,-x+y,1/2+z
-x,-y,-z
-x+y,-x,1/2-z
y,-x+y,-z
x,y,1/2-z
x-y,x,-z
-y,x-y,1/2-z
loop_
_atom_site_type_symbol
_atom_site_label
_atom_site_fract_x
_atom_site_fract_y
_atom_site_fract_z
Si Si1 0.220443 0.700375 0.952832
Si Si2 0.578710 0.030439 0.057190
Si Si3 0.288935 0.961906 0.445895
Si Si4 0.369942 0.818757 0.446841
Si Si5 0.636297 0.825259 0.541952
Si Si6 0.229756 0.290122 0.250000
O O1 0.209061 0.683318 0.750000
O O2 0.183563 0.744537 0.997729
O O3 0.301928 0.751293 0.985499
O O4 0.193714 0.628517 0.049451
O O5 0.578984 0.004829 0.250000
O O6 0.629238 0.013215 0.949138
O O7 0.611730 0.113069 0.053323
O O8 0.500000 0.000000 0.000000
O O9 0.270081 0.971020 0.250000
O O10 0.246144 0.881060 0.499154
O O11 0.274634 0.002471 0.595854
O O12 0.356543 0.831826 0.250000
O O13 0.649769 0.840092 0.750000
O O14 0.688753 0.880853 0.405836
#
# Coordination Sequence:
#
# PCOD9582121 Si02
#       6
#    12  12  12  12  12   6
#     4  11  24  41  60  83 118 165 222 289 360 420
#     4  12  25  42  61  89 126 172 226 289 357 418
#     4  12  24  45  69  99 140 185 229 290 356 413
#     4  12  25  39  60  85 115 160 217 287 354 414
#     4  11  24  44  69 100 135 179 233 290 351 416
#     4  12  26  42  74  98 132 182 234 272 330 430
#
# _framework density 19.924828000000002
#
# number of rings (size 3 to 8) (size 9 to 14) (size 15 to 20)
#    0.000    0.364    4.545    4.727    5.091    0.000 
#    0.000    0.000    0.000    0.000    0.000    0.000 
#    0.000    0.000    0.000    5.455    0.000    0.000 
#
# Total GULP energy -367494.365245 kJ/mol
# GULP energy per Si atom -5568.096443 kJ/mol
# Density = 1.987948 g / cm^3
# Si number density = 19.924828 Si / 1000 Ang^3
#
#
#
# Elastic Constant Matrix: (Units=GPa)
#
#
# Indices 1 2 3 4 5 6 
#
# 1 3.2745 36.8437 6.9087 0.0000 0.0000 0.0000
# 2 36.8437 3.2745 6.9087 0.0000 0.0000 0.0000
# 3 6.9087 6.9087 129.1885 0.0000 0.0000 0.0000
# 4 0.0000 0.0000 0.0000 27.1756 0.0000 0.0000
# 5 0.0000 0.0000 0.0000 0.0000 27.1756 0.0000
# 6 0.0000 0.0000 0.0000 0.0000 0.0000 -16.7846
#
#
#
# Elastic Compliance Matrix: (Units=1/GPa)
#
#
# Indices 1 2 3 4 5 6 
#
# 1 -0.002198 0.027592 -0.001358 0.000000 0.000000 0.000000
# 2 0.027592 -0.002198 -0.001358 0.000000 0.000000 0.000000
# 3 -0.001358 -0.001358 0.007886 0.000000 0.000000 0.000000
# 4 0.000000 0.000000 0.000000 0.036798 0.000000 0.000000
# 5 0.000000 0.000000 0.000000 0.000000 0.036798 0.000000
# 6 0.000000 0.000000 0.000000 0.000000 0.000000 -0.059578
#
#
# Mechanical properties :
#
#
# Convention : Reuss Voigt Hill
#
# Bulk Modulus (GPa) = 18.78216 26.33996 22.56106
# Shear Modulus (GPa) = -344.91630 13.18509 -165.86560
#
# Velocity S-wave (km/s) = -13.17136 2.57523 -9.13381
# Velocity P-wave (km/s) = 14.89516 4.70008 9.99438
#
# Compressibility (1/GPa) = 0.05324201
#
# Stress axis : x y z
#
# Youngs Moduli (GPa) = -455.05076 -455.05075 126.80899
#
# Poissons Ratio (x) = 12.55561 0.17221
# Poissons Ratio (y) = 12.55561 0.17221
# Poissons Ratio (z) = -0.61797 -0.61797
#
# Static dielectric constant tensor:
#      x y z
#    x 1.696240 0.000000 0.000000 
#    y 0.000000 1.696240 0.000000 
#    z 0.000000 0.000000 1.702390 
# 
# From -- ./inp_files/963.got.cif
#   From: 2010.05.17/outbox.cif.g08.bks.cpg/sg176_1_cif.got.tgz:963.got - 2010.06.03 11:36:45.
