data_PCOD9582558
_publ_section_title
;
Structure prediction by ZEFSAII (Michael W. Deem and Ramdas Pophale) SiO2 
 PCOD9582558
Probable space group: P 61 2 2
;
_chemical_formula_sum "Si O2"
_cell_formula_units_Z 78
_cell_length_a 17.139488
_cell_length_b 17.139488
_cell_length_c 16.048334
_cell_angle_alpha 90.000000
_cell_angle_beta 90.000000
_cell_angle_gamma 120.000000
_cell_volume 4082.782783
_symmetry_space_group_name_H-M "P 61 2 2"
_symmetry_group_IT_number 178
_symmetry_cell_setting 'hexagonal'
loop_
_space_group_symop_operation_xyz
x,y,z
x-y,x,1/6+z
-y,x-y,1/3+z
-x,-y,1/2+z
-x+y,-x,2/3+z
y,-x+y,5/6+z
x-y,-y,-z
-x,-x+y,2/3-z
y,x,1/3-z
-y,-x,5/6-z
-x+y,y,1/2-z
x,x-y,1/6-z
loop_
_atom_site_type_symbol
_atom_site_label
_atom_site_fract_x
_atom_site_fract_y
_atom_site_fract_z
Si Si1 0.787933 0.676056 0.982424
Si Si2 0.608875 0.079386 0.684246
Si Si3 0.385324 0.192662 0.583334
Si Si4 0.128953 0.499180 0.211860
Si Si5 0.350750 0.448036 0.621009
Si Si6 0.773865 0.075379 0.767145
Si Si7 0.531185 0.729352 0.709717
O O1 0.766221 0.737995 0.926663
O O2 0.814171 0.618696 0.923004
O O3 0.701505 0.611881 0.040140
O O4 0.865513 0.728538 0.048924
O O5 0.546448 0.092896 0.750000
O O6 0.697713 0.095306 0.731944
O O7 0.644247 0.151185 0.607465
O O8 0.556169 0.973406 0.656578
O O9 0.439962 0.164400 0.520128
O O10 0.321147 0.214686 0.528420
O O11 0.136539 0.588839 0.251439
O O12 0.143120 0.449745 0.290929
O O13 0.211200 0.516294 0.149381
O O14 0.410538 0.410538 0.666667
#
# Coordination Sequence:
#
# PCOD9582558 Si02
#       7
#    12  12   6  12  12  12  12
#     4  10  20  38  59  88 125 154 205 255 313 368
#     4  11  22  38  68  88 120 169 217 263 315 379
#     4  10  22  36  56  92 126 148 214 260 308 364
#     4  11  23  39  64  87 124 165 217 265 317 388
#     4  11  21  36  63  87 121 170 213 260 314 384
#     4  10  20  35  60  88 123 151 197 259 303 374
#     4  10  23  40  57  91 122 156 217 265 317 368
#
# _framework density 19.104617999999999
#
# number of rings (size 3 to 8) (size 9 to 14) (size 15 to 20)
#    0.000    1.538    3.077    2.308    2.154    0.000 
#    0.000    3.077    6.769    0.000    0.000    0.000 
#   41.538    0.000    0.000    0.000    0.000    0.000 
#
# Total GULP energy -434698.241410 kJ/mol
# GULP energy per Si atom -5573.054377 kJ/mol
# Density = 1.906114 g / cm^3
# Si number density = 19.104618 Si / 1000 Ang^3
#
#
#
# Elastic Constant Matrix: (Units=GPa)
#
#
# Indices 1 2 3 4 5 6 
#
# 1 68.3263 33.8701 29.0903 0.0000 0.0000 0.0000
# 2 33.8701 68.3263 29.0903 0.0000 0.0000 0.0000
# 3 29.0903 29.0903 74.0692 0.0000 0.0000 0.0000
# 4 0.0000 0.0000 0.0000 32.1287 0.0000 0.0000
# 5 0.0000 0.0000 0.0000 0.0000 32.1287 0.0000
# 6 0.0000 0.0000 0.0000 0.0000 0.0000 17.2281
#
#
#
# Elastic Compliance Matrix: (Units=1/GPa)
#
#
# Indices 1 2 3 4 5 6 
#
# 1 0.020813 -0.008210 -0.004950 0.000000 0.000000 0.000000
# 2 -0.008210 0.020813 -0.004950 0.000000 0.000000 0.000000
# 3 -0.004950 -0.004950 0.017389 0.000000 0.000000 0.000000
# 4 0.000000 0.000000 0.000000 0.031125 0.000000 0.000000
# 5 0.000000 0.000000 0.000000 0.000000 0.031125 0.000000
# 6 0.000000 0.000000 0.000000 0.000000 0.000000 0.058045
#
#
# Mechanical properties :
#
#
# Convention : Reuss Voigt Hill
#
# Bulk Modulus (GPa) = 43.86769 43.86923 43.86846
# Shear Modulus (GPa) = 22.40892 24.20851 23.30872
#
# Velocity S-wave (km/s) = 3.42856 3.56357 3.49672
# Velocity P-wave (km/s) = 6.21973 6.32017 6.27015
#
# Compressibility (1/GPa) = 0.02279582
#
# Stress axis : x y z
#
# Youngs Moduli (GPa) = 48.04771 48.04771 57.50811
#
# Poissons Ratio (x) = 0.39446 0.28465
# Poissons Ratio (y) = 0.39446 0.28465
# Poissons Ratio (z) = 0.23782 0.23782
#
# Static dielectric constant tensor:
#      x y z
#    x 1.679820 0.000000 0.000000 
#    y 0.000000 1.679820 0.000000 
#    z 0.000000 0.000000 1.721620 
# 
# From -- ./inp_files/5960.got.cif
#   From: 2010.05.17/outbox.cif.g08.bks.cpg/sg178_3_cif.got.tgz:5960.got - 2010.05.20 11:30:59.
