data_PCOD9582915
_publ_section_title
;
Structure prediction by ZEFSAII (Michael W. Deem and Ramdas Pophale) SiO2 
 PCOD9582915
Probable space group: P 61 2 2
;
_chemical_formula_sum "Si O2"
_cell_formula_units_Z 60
_cell_length_a 10.812406
_cell_length_b 10.812406
_cell_length_c 25.650015
_cell_angle_alpha 90.000000
_cell_angle_beta 90.000000
_cell_angle_gamma 120.000000
_cell_volume 2596.946154
_symmetry_space_group_name_H-M "P 61 2 2"
_symmetry_group_IT_number 178
_symmetry_cell_setting 'hexagonal'
loop_
_space_group_symop_operation_xyz
x,y,z
x-y,x,1/6+z
-y,x-y,1/3+z
-x,-y,1/2+z
-x+y,-x,2/3+z
y,-x+y,5/6+z
x-y,-y,-z
-x,-x+y,2/3-z
y,x,1/3-z
-y,-x,5/6-z
-x+y,y,1/2-z
x,x-y,1/6-z
loop_
_atom_site_type_symbol
_atom_site_label
_atom_site_fract_x
_atom_site_fract_y
_atom_site_fract_z
Si Si1 0.466170 0.733085 0.083334
Si Si2 0.758890 0.970820 0.254740
Si Si3 0.193938 0.193938 0.166667
Si Si4 0.887895 0.443948 0.083334
Si Si5 0.315382 0.301149 0.811191
Si Si6 0.797573 0.202428 0.416667
Si Si7 0.359066 0.624291 0.505341
O O1 0.568695 0.690751 0.050932
O O2 0.351143 0.620057 0.124867
O O3 0.611779 0.975344 0.261871
O O4 0.716496 0.809735 0.265600
O O5 0.780733 0.988923 0.192567
O O6 0.879164 0.064880 0.297543
O O7 0.309387 0.235305 0.121368
O O8 0.775719 0.392765 0.130831
O O9 0.464296 0.327378 0.836847
O O10 0.677461 0.186113 0.377264
#
# Coordination Sequence:
#
# PCOD9582915 Si02
#       7
#     6  12   6   6  12   6  12
#     4  12  26  48  81 121 146 222 268 332 440 492
#     4  11  25  49  73 113 158 205 272 326 412 488
#     4  12  28  46  80 116 162 224 256 332 424 490
#     4   9  20  49  74 103 154 201 262 332 391 472
#     4  11  27  47  82 112 158 209 271 342 402 500
#     4  11  28  47  71 116 160 201 270 328 393 496
#     4  10  25  48  76 114 151 202 270 339 398 484
#
# _framework density 23.104061000000002
#
# number of rings (size 3 to 8) (size 9 to 14) (size 15 to 20)
#    0.000    1.200    2.000    1.200    8.400    3.200 
#    0.000    0.000    0.000    0.000    0.000    0.000 
#    0.000    0.000    0.000    0.000    0.000    0.000 
#
# Total GULP energy -334050.081321 kJ/mol
# GULP energy per Si atom -5567.501355 kJ/mol
# Density = 2.305147 g / cm^3
# Si number density = 23.104061 Si / 1000 Ang^3
#
#
#
# Elastic Constant Matrix: (Units=GPa)
#
#
# Indices 1 2 3 4 5 6 
#
# 1 104.3432 44.5640 63.8904 0.0000 0.0000 0.0000
# 2 44.5640 104.3432 63.8904 0.0000 0.0000 0.0000
# 3 63.8904 63.8904 154.6275 0.0000 0.0000 0.0000
# 4 0.0000 0.0000 0.0000 23.2818 0.0000 0.0000
# 5 0.0000 0.0000 0.0000 0.0000 23.2818 0.0000
# 6 0.0000 0.0000 0.0000 0.0000 0.0000 29.8896
#
#
#
# Elastic Compliance Matrix: (Units=1/GPa)
#
#
# Indices 1 2 3 4 5 6 
#
# 1 0.013567 -0.003162 -0.004299 0.000000 0.000000 0.000000
# 2 -0.003162 0.013567 -0.004299 0.000000 0.000000 0.000000
# 3 -0.004299 -0.004299 0.010020 0.000000 0.000000 0.000000
# 4 0.000000 0.000000 0.000000 0.042952 0.000000 0.000000
# 5 0.000000 0.000000 0.000000 0.000000 0.042952 0.000000
# 6 0.000000 0.000000 0.000000 0.000000 0.000000 0.033456
#
#
# Mechanical properties :
#
#
# Convention : Reuss Voigt Hill
#
# Bulk Modulus (GPa) = 73.35211 78.66707 76.00959
# Shear Modulus (GPa) = 27.08886 28.02191 27.55538
#
# Velocity S-wave (km/s) = 3.42785 3.48639 3.45724
# Velocity P-wave (km/s) = 6.89089 7.09433 6.99335
#
# Compressibility (1/GPa) = 0.01363287
#
# Stress axis : x y z
#
# Youngs Moduli (GPa) = 73.71095 73.71095 99.80160
#
# Poissons Ratio (x) = 0.23305 0.42906
# Poissons Ratio (y) = 0.23305 0.42906
# Poissons Ratio (z) = 0.31689 0.31689
#
# Static dielectric constant tensor:
#      x y z
#    x 1.890640 0.000000 0.000000 
#    y 0.000000 1.890640 0.000000 
#    z 0.000000 0.000000 1.332190 
# 
# From -- ./inp_files/8875.got.cif
#   From: 2010.05.17/outbox.cif.g08.bks.cpg/sg178_5_cif.got.tgz:8875.got - 2010.05.20 11:30:59.
