data_PCOD9582113
_publ_section_title
;
Structure prediction by ZEFSAII (Michael W. Deem and Ramdas Pophale) SiO2 
 PCOD9582113
Probable space group: P 63/M
;
_chemical_formula_sum "Si O2"
_cell_formula_units_Z 96
_cell_length_a 18.640576
_cell_length_b 18.640576
_cell_length_c 16.553858
_cell_angle_alpha 90.000000
_cell_angle_beta 90.000000
_cell_angle_gamma 120.000000
_cell_volume 4981.366701
_symmetry_space_group_name_H-M "P 63/M"
_symmetry_group_IT_number 176
_symmetry_cell_setting 'hexagonal'
loop_
_space_group_symop_operation_xyz
x,y,z
x-y,x,1/2+z
-y,x-y,z
-x,-y,1/2+z
-x+y,-x,z
y,-x+y,1/2+z
-x,-y,-z
-x+y,-x,1/2-z
y,-x+y,-z
x,y,1/2-z
x-y,x,-z
-y,x-y,1/2-z
loop_
_atom_site_type_symbol
_atom_site_label
_atom_site_fract_x
_atom_site_fract_y
_atom_site_fract_z
Si Si1 0.956669 0.186610 0.580028
Si Si2 0.282682 0.412426 0.152820
Si Si3 0.132309 0.284405 0.659852
Si Si4 0.021055 0.228462 0.401015
Si Si5 0.415384 0.292413 0.652516
Si Si6 0.528767 0.480922 0.848532
Si Si7 0.527200 0.764626 0.848815
Si Si8 0.428887 0.572082 0.651363
O O1 0.920614 0.243579 0.612107
O O2 0.888653 0.092592 0.603049
O O3 0.047407 0.222817 0.616468
O O4 0.972078 0.197418 0.484899
O O5 0.283354 0.401452 0.250000
O O6 0.218942 0.445307 0.136671
O O7 0.376093 0.471743 0.125179
O O8 0.109394 0.296342 0.750000
O O9 0.188517 0.241839 0.661993
O O10 0.184869 0.377127 0.623424
O O11 0.068760 0.327291 0.390588
O O12 0.401956 0.291791 0.750000
O O13 0.479055 0.385312 0.626922
O O14 0.529197 0.481739 0.750000
O O15 0.480682 0.528439 0.874858
O O16 0.528881 0.767685 0.750000
O O17 0.475176 0.668376 0.872872
O O18 0.480413 0.813652 0.875014
O O19 0.428129 0.571657 0.750000
#
# Coordination Sequence:
#
# PCOD9582113 Si02
#       8
#    12  12  12  12  12  12  12  12
#     4  11  22  39  58  80 111 148 187 233 294 349
#     4   9  18  33  55  81 110 145 187 234 282 335
#     4  11  22  37  59  86 111 147 196 238 280 344
#     4  11  22  39  58  80 111 148 187 233 294 349
#     4   9  18  33  55  81 110 145 187 234 282 335
#     4   9  16  29  49  78 111 141 180 232 279 321
#     4   9  17  28  47  79 114 149 186 225 278 339
#     4   9  15  24  41  69 109 145 172 215 273 328
#
# _framework density 19.271820000000002
#
# number of rings (size 3 to 8) (size 9 to 14) (size 15 to 20)
#    0.000    2.250    1.250    2.500    0.000    6.500 
#    1.500    1.250    0.000    0.000    0.000    0.000 
#    0.000    0.000    0.000    0.000    0.000    0.000 
#
# Total GULP energy -535594.462165 kJ/mol
# GULP energy per Si atom -5579.108981 kJ/mol
# Density = 1.922796 g / cm^3
# Si number density = 19.271820 Si / 1000 Ang^3
#
#
#
# Elastic Constant Matrix: (Units=GPa)
#
#
# Indices 1 2 3 4 5 6 
#
# 1 147.1194 103.3253 12.2930 0.0000 0.0000 0.0000
# 2 103.3253 147.1194 12.2930 0.0000 0.0000 0.0000
# 3 12.2930 12.2930 11.5987 0.0000 0.0000 0.0000
# 4 0.0000 0.0000 0.0000 52.2423 0.0000 0.0000
# 5 0.0000 0.0000 0.0000 0.0000 52.2423 0.0000
# 6 0.0000 0.0000 0.0000 0.0000 0.0000 21.8971
#
#
#
# Elastic Compliance Matrix: (Units=1/GPa)
#
#
# Indices 1 2 3 4 5 6 
#
# 1 0.013645 -0.009189 -0.004723 0.000000 0.000000 0.000000
# 2 -0.009189 0.013645 -0.004723 0.000000 0.000000 0.000000
# 3 -0.004723 -0.004723 0.096229 0.000000 0.000000 0.000000
# 4 0.000000 0.000000 0.000000 0.019142 0.000000 0.000000
# 5 0.000000 0.000000 0.000000 0.000000 0.019142 0.000000
# 6 0.000000 0.000000 0.000000 0.000000 0.000000 0.045668
#
#
# Mechanical properties :
#
#
# Convention : Reuss Voigt Hill
#
# Bulk Modulus (GPa) = 11.59441 62.40669 37.00055
# Shear Modulus (GPa) = 18.28211 37.13807 27.71009
#
# Velocity S-wave (km/s) = 3.08335 4.39460 3.79602
# Velocity P-wave (km/s) = 4.32497 7.62907 6.20113
#
# Compressibility (1/GPa) = 0.08624843
#
# Stress axis : x y z
#
# Youngs Moduli (GPa) = 73.28502 73.28502 10.39190
#
# Poissons Ratio (x) = 0.67340 0.04908
# Poissons Ratio (y) = 0.67340 0.04908
# Poissons Ratio (z) = 0.34615 0.34615
#
# Static dielectric constant tensor:
#      x y z
#    x 1.653530 0.000000 0.000000 
#    y 0.000000 1.653530 0.000000 
#    z 0.000000 0.000000 1.739670 
# 
# From -- ./inp_files/3886.got.cif
#   From: 2010.05.17/outbox.cif.g08.bks.cpg/sg176_2_cif.got.tgz:3886.got - 2010.06.03 11:36:45.
