data_PCOD9582245
_publ_section_title
;
Structure prediction by ZEFSAII (Michael W. Deem and Ramdas Pophale) SiO2 
 PCOD9582245
Probable space group: P 6 2 2
;
_chemical_formula_sum "Si O2"
_cell_formula_units_Z 54
_cell_length_a 22.831826
_cell_length_b 22.831826
_cell_length_c 6.173125
_cell_angle_alpha 90.000000
_cell_angle_beta 90.000000
_cell_angle_gamma 120.000000
_cell_volume 2786.871825
_symmetry_space_group_name_H-M "P 6 2 2"
_symmetry_group_IT_number 177
_symmetry_cell_setting 'hexagonal'
loop_
_space_group_symop_operation_xyz
x,y,z
x-y,x,z
-y,x-y,z
-x,-y,z
-x+y,-x,z
y,-x+y,z
x-y,-y,-z
-x,-x+y,-z
y,x,-z
-y,-x,-z
-x+y,y,-z
x,x-y,-z
loop_
_atom_site_type_symbol
_atom_site_label
_atom_site_fract_x
_atom_site_fract_y
_atom_site_fract_z
Si Si1 0.530643 0.374098 0.643811
Si Si2 0.557692 0.778846 0.500000
Si Si3 0.671355 0.791796 0.181551
Si Si4 0.710564 0.710564 0.500000
Si Si5 0.753179 0.376590 0.000000
Si Si6 0.662449 0.600123 0.123297
O O1 0.558896 0.441105 0.500000
O O2 0.491307 0.301677 0.522729
O O3 0.475844 0.363113 0.819957
O O4 0.597019 0.389167 0.777173
O O5 0.611145 0.796505 0.303800
O O6 0.714684 0.773846 0.357654
O O7 0.704453 0.852227 0.000000
O O8 0.633794 0.724485 0.040500
O O9 0.687759 0.648060 0.335116
O O10 0.703869 0.407737 0.000000
O O11 0.603564 0.603564 0.000000
#
# Coordination Sequence:
#
# PCOD9582245 Si02
#       6
#    12   6  12   6   6  12
#     4  12  25  39  61  83 109 147 189 250 322 406
#     4  12  24  40  62  86 112 144 204 249 324 397
#     4  11  20  36  64  90 114 159 195 252 320 391
#     4  10  20  40  57  92 122 148 198 260 306 391
#     4  10  26  42  57  80 108 136 180 250 318 400
#     4  10  23  39  63  83 117 149 197 251 317 391
#
# _framework density 19.376566
#
# number of rings (size 3 to 8) (size 9 to 14) (size 15 to 20)
#    0.222    0.889    4.444    1.333    6.222    0.000 
#    0.667    3.333    0.000    0.000    0.000    0.000 
#    0.000    0.000    0.000    0.000    0.000    0.000 
#
# Total GULP energy -300716.644684 kJ/mol
# GULP energy per Si atom -5568.826753 kJ/mol
# Density = 1.933246 g / cm^3
# Si number density = 19.376566 Si / 1000 Ang^3
#
#
#
# Elastic Constant Matrix: (Units=GPa)
#
#
# Indices 1 2 3 4 5 6 
#
# 1 -33.9675 111.2569 17.7999 0.0000 0.0000 0.0000
# 2 111.2569 -33.9675 17.7999 0.0000 0.0000 0.0000
# 3 17.7999 17.7999 77.0249 0.0000 0.0000 0.0000
# 4 0.0000 0.0000 0.0000 12.3802 0.0000 0.0000
# 5 0.0000 0.0000 0.0000 0.0000 12.3802 0.0000
# 6 0.0000 0.0000 0.0000 0.0000 0.0000 -72.6122
#
#
#
# Elastic Compliance Matrix: (Units=1/GPa)
#
#
# Indices 1 2 3 4 5 6 
#
# 1 0.003797 0.010683 -0.003346 0.000000 0.000000 0.000000
# 2 0.010683 0.003797 -0.003346 0.000000 0.000000 0.000000
# 3 -0.003346 -0.003346 0.014529 0.000000 0.000000 0.000000
# 4 0.000000 0.000000 0.000000 0.080774 0.000000 0.000000
# 5 0.000000 0.000000 0.000000 0.000000 0.080774 0.000000
# 6 0.000000 0.000000 0.000000 0.000000 0.000000 -0.013772
#
#
# Mechanical properties :
#
#
# Convention : Reuss Voigt Hill
#
# Bulk Modulus (GPa) = 33.21812 33.64481 33.43146
# Shear Modulus (GPa) = 29.07774 -18.75479 5.16148
#
# Velocity S-wave (km/s) = 3.87804 -3.11450 1.63388
# Velocity P-wave (km/s) = 6.10188 2.11373 4.56623
#
# Compressibility (1/GPa) = 0.03010405
#
# Stress axis : x y z
#
# Youngs Moduli (GPa) = 263.37560 263.37560 68.82626
#
# Poissons Ratio (x) = -2.81358 0.23030
# Poissons Ratio (y) = -2.81358 0.23030
# Poissons Ratio (z) = 0.88129 0.88129
#
# Static dielectric constant tensor:
#      x y z
#    x 1.713660 0.000000 0.000000 
#    y 0.000000 1.713660 0.000000 
#    z 0.000000 0.000000 1.863790 
# 
# From -- ./inp_files/536.got.cif
#   From: 2010.05.17/outbox.cif.g08.bks.cpg/sg177_1_cif.got.tgz:536.got - 2010.05.20 11:28:44.
