data_PCOD9582896
_publ_section_title
;
Structure prediction by ZEFSAII (Michael W. Deem and Ramdas Pophale) SiO2 
 PCOD9582896
Probable space group: P 61 2 2
;
_chemical_formula_sum "Si O2"
_cell_formula_units_Z 54
_cell_length_a 10.003217
_cell_length_b 10.003217
_cell_length_c 25.332613
_cell_angle_alpha 90.000000
_cell_angle_beta 90.000000
_cell_angle_gamma 120.000000
_cell_volume 2195.280402
_symmetry_space_group_name_H-M "P 61 2 2"
_symmetry_group_IT_number 178
_symmetry_cell_setting 'hexagonal'
loop_
_space_group_symop_operation_xyz
x,y,z
x-y,x,1/6+z
-y,x-y,1/3+z
-x,-y,1/2+z
-x+y,-x,2/3+z
y,-x+y,5/6+z
x-y,-y,-z
-x,-x+y,2/3-z
y,x,1/3-z
-y,-x,5/6-z
-x+y,y,1/2-z
x,x-y,1/6-z
loop_
_atom_site_type_symbol
_atom_site_label
_atom_site_fract_x
_atom_site_fract_y
_atom_site_fract_z
Si Si1 0.107492 0.842838 0.533411
Si Si2 0.956651 0.156869 0.277016
Si Si3 0.545673 0.272837 0.583334
Si Si4 0.343011 0.822987 0.802143
Si Si5 0.579794 0.640957 0.278815
O O1 0.226110 0.822898 0.572405
O O2 0.990901 0.851896 0.574296
O O3 0.001528 0.706796 0.492792
O O4 0.199205 0.000000 0.500000
O O5 0.828593 0.207513 0.289970
O O6 0.000000 0.120906 0.333334
O O7 0.126357 0.252713 0.250000
O O8 0.659206 0.321023 0.633091
O O9 0.452010 0.359470 0.588547
O O10 0.451497 0.902994 0.750000
O O11 0.422828 0.896048 0.857177
#
# Coordination Sequence:
#
# PCOD9582896 Si02
#       5
#    12  12   6  12  12
#     4  12  23  44  71 112 143 206 266 326 384 476
#     4  12  26  44  74 108 148 197 261 325 391 464
#     4  10  24  46  70 102 146 192 250 306 386 470
#     4  10  26  47  73 101 152 200 246 316 397 467
#     4  12  24  45  78 104 153 204 260 320 394 484
#
# _framework density 24.598226
#
# number of rings (size 3 to 8) (size 9 to 14) (size 15 to 20)
#    0.667    0.000    4.444    3.333    6.222    0.000 
#    4.000    0.000    0.000    0.000    0.000    0.000 
#    0.000    0.000    0.000    0.000    0.000    0.000 
#
# Total GULP energy -300927.520740 kJ/mol
# GULP energy per Si atom -5572.731866 kJ/mol
# Density = 2.454224 g / cm^3
# Si number density = 24.598226 Si / 1000 Ang^3
#
#
#
# Elastic Constant Matrix: (Units=GPa)
#
#
# Indices 1 2 3 4 5 6 
#
# 1 70.9133 24.5626 23.6769 0.0000 0.0000 0.0000
# 2 24.5626 70.9133 23.6769 0.0000 0.0000 0.0000
# 3 23.6769 23.6769 109.3060 0.0000 0.0000 0.0000
# 4 0.0000 0.0000 0.0000 -181.9186 0.0000 0.0000
# 5 0.0000 0.0000 0.0000 0.0000 -181.9186 0.0000
# 6 0.0000 0.0000 0.0000 0.0000 0.0000 23.1754
#
#
#
# Elastic Compliance Matrix: (Units=1/GPa)
#
#
# Indices 1 2 3 4 5 6 
#
# 1 0.016655 -0.004920 -0.002542 0.000000 0.000000 0.000000
# 2 -0.004920 0.016655 -0.002542 0.000000 0.000000 0.000000
# 3 -0.002542 -0.002542 0.010250 0.000000 0.000000 0.000000
# 4 0.000000 0.000000 0.000000 -0.005497 0.000000 0.000000
# 5 0.000000 0.000000 0.000000 0.000000 -0.005497 0.000000
# 6 0.000000 0.000000 0.000000 0.000000 0.000000 0.043149
#
#
# Mechanical properties :
#
#
# Convention : Reuss Voigt Hill
#
# Bulk Modulus (GPa) = 42.46006 43.88506 43.17256
# Shear Modulus (GPa) = 48.27552 -56.18461 -3.95455
#
# Velocity S-wave (km/s) = 4.43489 -4.78440 -1.26931
# Velocity P-wave (km/s) = 6.59721 3.55545 3.92950
#
# Compressibility (1/GPa) = 0.02355155
#
# Stress axis : x y z
#
# Youngs Moduli (GPa) = 60.04357 60.04357 97.56281
#
# Poissons Ratio (x) = 0.29542 0.24799
# Poissons Ratio (y) = 0.29542 0.24799
# Poissons Ratio (z) = 0.15262 0.15262
#
# Static dielectric constant tensor:
#      x y z
#    x 2.223590 0.000000 0.000000 
#    y 0.000000 2.223590 0.000000 
#    z 0.000000 0.000000 1.499900 
# 
# From -- ./inp_files/8144.got.cif
#   From: 2010.05.17/outbox.cif.g08.bks.cpg/sg178_5_cif.got.tgz:8144.got - 2010.05.20 11:30:59.
