data_PCOD9582675
_publ_section_title
;
Structure prediction by ZEFSAII (Michael W. Deem and Ramdas Pophale) SiO2 
 PCOD9582675
Probable space group: P 61 2 2
;
_chemical_formula_sum "Si O2"
_cell_formula_units_Z 42
_cell_length_a 19.202359
_cell_length_b 19.202359
_cell_length_c 7.967787
_cell_angle_alpha 90.000000
_cell_angle_beta 90.000000
_cell_angle_gamma 120.000000
_cell_volume 2544.353894
_symmetry_space_group_name_H-M "P 61 2 2"
_symmetry_group_IT_number 178
_symmetry_cell_setting 'hexagonal'
loop_
_space_group_symop_operation_xyz
x,y,z
x-y,x,1/6+z
-y,x-y,1/3+z
-x,-y,1/2+z
-x+y,-x,2/3+z
y,-x+y,5/6+z
x-y,-y,-z
-x,-x+y,2/3-z
y,x,1/3-z
-y,-x,5/6-z
-x+y,y,1/2-z
x,x-y,1/6-z
loop_
_atom_site_type_symbol
_atom_site_label
_atom_site_fract_x
_atom_site_fract_y
_atom_site_fract_z
Si Si1 0.472184 0.280903 0.343186
Si Si2 0.404902 0.968021 0.307701
Si Si3 0.354817 0.645183 0.916667
Si Si4 0.858452 0.347456 0.529359
O O1 0.420789 0.315479 0.434380
O O2 0.552895 0.320281 0.448930
O O3 0.457464 0.191327 0.307797
O O4 0.494165 0.322341 0.159704
O O5 0.472415 0.944830 0.250000
O O6 0.422827 0.000000 0.500000
O O7 0.425433 0.047352 0.203601
O O8 0.341439 0.682877 0.750000
O O9 0.851763 0.425882 0.583334
#
# Coordination Sequence:
#
# PCOD9582675 Si02
#       4
#    12  12   6  12
#     4  11  21  34  51  70  91 129 160 208 258 303
#     4  11  22  34  49  68  95 126 162 207 255 309
#     4  12  24  34  50  74  98 126 166 220 266 304
#     4  10  21  36  52  70  96 123 167 213 257 306
#
# _framework density 16.507137
#
# number of rings (size 3 to 8) (size 9 to 14) (size 15 to 20)
#    0.000    1.143    1.429    8.571    4.000    0.000 
#    0.000    0.000    0.000    0.000    0.000    0.000 
#    0.000    0.000    0.000    0.000    0.000   34.286 
#
# Total GULP energy -233984.358040 kJ/mol
# GULP energy per Si atom -5571.056144 kJ/mol
# Density = 1.646957 g / cm^3
# Si number density = 16.507137 Si / 1000 Ang^3
#
#
#
# Elastic Constant Matrix: (Units=GPa)
#
#
# Indices 1 2 3 4 5 6 
#
# 1 81.4011 42.8149 15.2493 0.0000 0.0000 0.0000
# 2 42.8149 81.4011 15.2493 0.0000 0.0000 0.0000
# 3 15.2493 15.2493 72.5946 0.0000 0.0000 0.0000
# 4 0.0000 0.0000 0.0000 19.8319 0.0000 0.0000
# 5 0.0000 0.0000 0.0000 0.0000 19.8319 0.0000
# 6 0.0000 0.0000 0.0000 0.0000 0.0000 19.2931
#
#
#
# Elastic Compliance Matrix: (Units=1/GPa)
#
#
# Indices 1 2 3 4 5 6 
#
# 1 0.017202 -0.008714 -0.001783 0.000000 0.000000 0.000000
# 2 -0.008714 0.017202 -0.001783 0.000000 0.000000 0.000000
# 3 -0.001783 -0.001783 0.014524 0.000000 0.000000 0.000000
# 4 0.000000 0.000000 0.000000 0.050424 0.000000 0.000000
# 5 0.000000 0.000000 0.000000 0.000000 0.050424 0.000000
# 6 0.000000 0.000000 0.000000 0.000000 0.000000 0.051832
#
#
# Mechanical properties :
#
#
# Convention : Reuss Voigt Hill
#
# Bulk Modulus (GPa) = 41.03648 42.44710 41.74179
# Shear Modulus (GPa) = 21.34100 22.59694 21.96897
#
# Velocity S-wave (km/s) = 3.59950 3.70390 3.65208
# Velocity P-wave (km/s) = 6.49531 6.63793 6.56701
#
# Compressibility (1/GPa) = 0.02436856
#
# Stress axis : x y z
#
# Youngs Moduli (GPa) = 58.13233 58.13233 68.85041
#
# Poissons Ratio (x) = 0.50656 0.12276
# Poissons Ratio (y) = 0.50656 0.12276
# Poissons Ratio (z) = 0.10365 0.10365
#
# Static dielectric constant tensor:
#      x y z
#    x 1.622240 0.000000 0.000000 
#    y 0.000000 1.622240 0.000000 
#    z 0.000000 0.000000 1.639700 
# 
# From -- ./inp_files/2353.got.cif
#   From: 2010.05.17/outbox.cif.g08.bks.cpg/sg178_2_cif.got.tgz:2353.got - 2010.05.20 11:30:59.
