data_PCOD9582510
_publ_section_title
;
Structure prediction by ZEFSAII (Michael W. Deem and Ramdas Pophale) SiO2 
 PCOD9582510
Probable space group: P 61 2 2
;
_chemical_formula_sum "Si O2"
_cell_formula_units_Z 66
_cell_length_a 13.421579
_cell_length_b 13.421579
_cell_length_c 18.240781
_cell_angle_alpha 90.000000
_cell_angle_beta 90.000000
_cell_angle_gamma 120.000000
_cell_volume 2845.648701
_symmetry_space_group_name_H-M "P 61 2 2"
_symmetry_group_IT_number 178
_symmetry_cell_setting 'hexagonal'
loop_
_space_group_symop_operation_xyz
x,y,z
x-y,x,1/6+z
-y,x-y,1/3+z
-x,-y,1/2+z
-x+y,-x,2/3+z
y,-x+y,5/6+z
x-y,-y,-z
-x,-x+y,2/3-z
y,x,1/3-z
-y,-x,5/6-z
-x+y,y,1/2-z
x,x-y,1/6-z
loop_
_atom_site_type_symbol
_atom_site_label
_atom_site_fract_x
_atom_site_fract_y
_atom_site_fract_z
Si Si1 0.000000 0.248265 0.833334
Si Si2 0.154142 0.347135 0.169135
Si Si3 0.573579 0.931264 0.112665
Si Si4 0.787529 0.714081 0.418935
Si Si5 0.820561 0.304585 0.208812
Si Si6 0.875177 0.435667 0.661757
O O1 0.085637 0.364993 0.790010
O O2 0.080013 0.229149 0.891542
O O3 0.149533 0.299065 0.250000
O O4 0.268099 0.411470 0.118435
O O5 0.135770 0.456133 0.183634
O O6 0.052878 0.253079 0.118024
O O7 0.648672 0.937295 0.182068
O O8 0.437481 0.855973 0.123539
O O9 0.589947 0.058709 0.109150
O O10 0.744671 0.614942 0.480530
O O11 0.684374 0.234631 0.192827
O O12 0.943135 0.471568 0.583334
#
# Coordination Sequence:
#
# PCOD9582510 Si02
#       6
#     6  12  12  12  12  12
#     4  12  28  40  70 106 144 198 264 310 376 464
#     4  11  25  41  68 105 149 195 246 313 383 450
#     4  12  23  42  68 104 146 195 240 301 371 445
#     4  12  23  46  66  99 150 199 249 312 378 438
#     4  11  23  39  70 100 147 201 243 300 368 457
#     4  10  19  41  63  98 149 191 235 288 366 443
#
# _framework density 23.193304000000001
#
# number of rings (size 3 to 8) (size 9 to 14) (size 15 to 20)
#    0.000    0.727    7.273    1.091    2.545    6.545 
#    0.000    0.000    0.000    0.000    0.000   50.909 
#    0.000    0.000    0.000    0.000    0.000    0.000 
#
# Total GULP energy -368372.740972 kJ/mol
# GULP energy per Si atom -5581.405166 kJ/mol
# Density = 2.314052 g / cm^3
# Si number density = 23.193304 Si / 1000 Ang^3
#
#
#
# Elastic Constant Matrix: (Units=GPa)
#
#
# Indices 1 2 3 4 5 6 
#
# 1 69.0044 39.9237 23.7955 0.0000 0.0000 0.0000
# 2 39.9237 69.0044 23.7955 0.0000 0.0000 0.0000
# 3 23.7955 23.7955 117.6973 0.0000 0.0000 0.0000
# 4 0.0000 0.0000 0.0000 35.2413 0.0000 0.0000
# 5 0.0000 0.0000 0.0000 0.0000 35.2413 0.0000
# 6 0.0000 0.0000 0.0000 0.0000 0.0000 14.5404
#
#
#
# Elastic Compliance Matrix: (Units=1/GPa)
#
#
# Indices 1 2 3 4 5 6 
#
# 1 0.022228 -0.012159 -0.002036 0.000000 0.000000 0.000000
# 2 -0.012159 0.022228 -0.002036 0.000000 0.000000 0.000000
# 3 -0.002036 -0.002036 0.009320 0.000000 0.000000 0.000000
# 4 0.000000 0.000000 0.000000 0.028376 0.000000 0.000000
# 5 0.000000 0.000000 0.000000 0.000000 0.028376 0.000000
# 6 0.000000 0.000000 0.000000 0.000000 0.000000 0.068774
#
#
# Mechanical properties :
#
#
# Convention : Reuss Voigt Hill
#
# Bulk Modulus (GPa) = 46.91360 47.85948 47.38654
# Shear Modulus (GPa) = 22.84482 28.21735 25.53109
#
# Velocity S-wave (km/s) = 3.14184 3.49179 3.32142
# Velocity P-wave (km/s) = 5.78210 6.07755 5.93166
#
# Compressibility (1/GPa) = 0.02131578
#
# Stress axis : x y z
#
# Youngs Moduli (GPa) = 44.98744 44.98744 107.30100
#
# Poissons Ratio (x) = 0.54698 0.21845
# Poissons Ratio (y) = 0.54698 0.21845
# Poissons Ratio (z) = 0.09159 0.09159
#
# Static dielectric constant tensor:
#      x y z
#    x 1.967830 0.000000 0.000000 
#    y 0.000000 1.967830 0.000000 
#    z 0.000000 0.000000 1.941740 
# 
# From -- ./inp_files/6689.got.cif
#   From: 2010.05.17/outbox.cif.g08.bks.cpg/sg178_4_cif.got.tgz:6689.got - 2010.05.20 11:30:59.
