data_PCOD9582374
_publ_section_title
;
Structure prediction by ZEFSAII (Michael W. Deem and Ramdas Pophale) SiO2 
 PCOD9582374
Probable space group: P 61 2 2
;
_chemical_formula_sum "Si O2"
_cell_formula_units_Z 84
_cell_length_a 13.128537
_cell_length_b 13.128537
_cell_length_c 30.425690
_cell_angle_alpha 90.000000
_cell_angle_beta 90.000000
_cell_angle_gamma 120.000000
_cell_volume 4541.546160
_symmetry_space_group_name_H-M "P 61 2 2"
_symmetry_group_IT_number 178
_symmetry_cell_setting 'hexagonal'
loop_
_space_group_symop_operation_xyz
x,y,z
x-y,x,1/6+z
-y,x-y,1/3+z
-x,-y,1/2+z
-x+y,-x,2/3+z
y,-x+y,5/6+z
x-y,-y,-z
-x,-x+y,2/3-z
y,x,1/3-z
-y,-x,5/6-z
-x+y,y,1/2-z
x,x-y,1/6-z
loop_
_atom_site_type_symbol
_atom_site_label
_atom_site_fract_x
_atom_site_fract_y
_atom_site_fract_z
Si Si1 0.623675 0.616091 0.949357
Si Si2 0.372260 0.307918 0.290804
Si Si3 0.236043 0.432305 0.947095
Si Si4 0.858853 0.408898 0.480611
Si Si5 0.121818 0.177948 0.467334
Si Si6 0.029659 0.168399 0.934741
Si Si7 0.755516 0.273041 0.562174
O O1 0.555559 0.671769 0.924047
O O2 0.740188 0.721948 0.970264
O O3 0.672447 0.562959 0.912364
O O4 0.567336 0.514892 0.985987
O O5 0.416509 0.284572 0.338495
O O6 0.371685 0.428550 0.290247
O O7 0.244632 0.192025 0.286880
O O8 0.454811 0.307718 0.251673
O O9 0.114812 0.310139 0.935915
O O10 0.205527 0.535597 0.952836
O O11 0.766884 0.300252 0.510732
O O12 0.120639 0.091565 0.431198
O O13 0.092326 0.129385 0.516138
O O14 0.895426 0.104575 0.916667
O O15 0.709643 0.354822 0.583334
#
# Coordination Sequence:
#
# PCOD9582374 Si02
#       7
#    12  12  12  12  12  12  12
#     4   9  16  29  47  72 102 135 174 220 265 321
#     4  10  18  27  47  75  99 132 180 219 268 317
#     4  10  18  29  46  75 105 134 178 217 271 330
#     4  11  18  30  51  74 109 143 172 224 281 313
#     4   9  18  31  49  76 104 133 172 228 277 328
#     4  10  18  31  50  74 107 133 173 221 286 340
#     4   9  15  26  44  71  98 127 167 223 261 302
#
# _framework density 18.495902999999998
#
# number of rings (size 3 to 8) (size 9 to 14) (size 15 to 20)
#    0.000    2.286    7.143    0.429    2.000    0.000 
#    0.000    0.714    0.000    0.000    3.714    0.000 
#    0.000    0.000    0.000    0.000    0.000    0.000 
#
# Total GULP energy -467611.299716 kJ/mol
# GULP energy per Si atom -5566.801187 kJ/mol
# Density = 1.845381 g / cm^3
# Si number density = 18.495903 Si / 1000 Ang^3
#
#
#
# Elastic Constant Matrix: (Units=GPa)
#
#
# Indices 1 2 3 4 5 6 
#
# 1 30.5351 -6.3863 5.9901 0.0000 0.0000 0.0000
# 2 -6.3863 30.5351 5.9901 0.0000 0.0000 0.0000
# 3 5.9901 5.9901 53.8200 0.0000 0.0000 0.0000
# 4 0.0000 0.0000 0.0000 20.4274 0.0000 0.0000
# 5 0.0000 0.0000 0.0000 0.0000 20.4274 0.0000
# 6 0.0000 0.0000 0.0000 0.0000 0.0000 18.4607
#
#
#
# Elastic Compliance Matrix: (Units=1/GPa)
#
#
# Indices 1 2 3 4 5 6 
#
# 1 0.035457 0.008373 -0.004878 0.000000 0.000000 0.000000
# 2 0.008373 0.035457 -0.004878 0.000000 0.000000 0.000000
# 3 -0.004878 -0.004878 0.019666 0.000000 0.000000 0.000000
# 4 0.000000 0.000000 0.000000 0.048954 0.000000 0.000000
# 5 0.000000 0.000000 0.000000 0.000000 0.048954 0.000000
# 6 0.000000 0.000000 0.000000 0.000000 0.000000 0.054169
#
#
# Mechanical properties :
#
#
# Convention : Reuss Voigt Hill
#
# Bulk Modulus (GPa) = 11.38778 14.00867 12.69823
# Shear Modulus (GPa) = 18.20191 19.14951 18.67571
#
# Velocity S-wave (km/s) = 3.14045 3.22116 3.18106
# Velocity P-wave (km/s) = 4.39547 4.62870 4.51359
#
# Compressibility (1/GPa) = 0.08781344
#
# Stress axis : x y z
#
# Youngs Moduli (GPa) = 28.20295 28.20295 50.84831
#
# Poissons Ratio (x) = -0.23614 0.24805
# Poissons Ratio (y) = -0.23614 0.24805
# Poissons Ratio (z) = 0.13758 0.13758
#
# Static dielectric constant tensor:
#      x y z
#    x 1.682910 0.000000 0.000000 
#    y 0.000000 1.682910 0.000000 
#    z 0.000000 0.000000 1.670560 
# 
# From -- ./inp_files/9669.got.cif
#   From: 2010.05.17/outbox.cif.g08.bks.cpg/sg178_5_cif.got.tgz:9669.got - 2010.05.20 11:30:59.
