data_PCOD9582944
_publ_section_title
;
Structure prediction by ZEFSAII (Michael W. Deem and Ramdas Pophale) SiO2 
 PCOD9582944
Probable space group: P 61 2 2
;
_chemical_formula_sum "Si O2"
_cell_formula_units_Z 48
_cell_length_a 11.915901
_cell_length_b 11.915901
_cell_length_c 18.974758
_cell_angle_alpha 90.000000
_cell_angle_beta 90.000000
_cell_angle_gamma 120.000000
_cell_volume 2333.246645
_symmetry_space_group_name_H-M "P 61 2 2"
_symmetry_group_IT_number 178
_symmetry_cell_setting 'hexagonal'
loop_
_space_group_symop_operation_xyz
x,y,z
x-y,x,1/6+z
-y,x-y,1/3+z
-x,-y,1/2+z
-x+y,-x,2/3+z
y,-x+y,5/6+z
x-y,-y,-z
-x,-x+y,2/3-z
y,x,1/3-z
-y,-x,5/6-z
-x+y,y,1/2-z
x,x-y,1/6-z
loop_
_atom_site_type_symbol
_atom_site_label
_atom_site_fract_x
_atom_site_fract_y
_atom_site_fract_z
Si Si1 0.709164 0.518368 0.552155
Si Si2 0.625028 0.238582 0.480155
Si Si3 0.634559 0.630096 0.427987
Si Si4 0.850686 0.651890 0.331594
O O1 0.665230 0.382687 0.510571
O O2 0.627378 0.476362 0.623680
O O3 0.690777 0.616753 0.502849
O O4 0.852844 0.573881 0.582549
O O5 0.725617 0.274383 0.416667
O O6 0.474915 0.169498 0.459473
O O7 0.516046 0.483954 0.416667
O O8 0.748071 0.678699 0.370420
O O9 0.809146 0.618292 0.250000
O O10 0.000000 0.761841 0.333334
#
# Coordination Sequence:
#
# PCOD9582944 Si02
#       4
#    12  12  12  12
#     4  11  22  37  61  91 132 173 213 273 334 394
#     4  11  20  36  59  94 128 172 207 269 337 396
#     4  12  21  39  63  90 135 173 221 273 338 396
#     4  12  23  36  58  95 138 169 217 274 332 402
#
# _framework density 20.572194
#
# number of rings (size 3 to 8) (size 9 to 14) (size 15 to 20)
#    0.000    0.500   10.000    1.500    0.000    2.000 
#    0.000    0.000    0.000    0.000    0.000   28.000 
#    0.000    0.000    0.000    0.000    0.000    0.000 
#
# Total GULP energy -267855.302714 kJ/mol
# GULP energy per Si atom -5580.318807 kJ/mol
# Density = 2.052537 g / cm^3
# Si number density = 20.572194 Si / 1000 Ang^3
#
#
#
# Elastic Constant Matrix: (Units=GPa)
#
#
# Indices 1 2 3 4 5 6 
#
# 1 62.3273 22.0379 -4.0449 0.0000 0.0000 0.0000
# 2 22.0379 62.3273 -4.0449 0.0000 0.0000 0.0000
# 3 -4.0449 -4.0449 51.3674 0.0000 0.0000 0.0000
# 4 0.0000 0.0000 0.0000 15.2709 0.0000 0.0000
# 5 0.0000 0.0000 0.0000 0.0000 15.2709 0.0000
# 6 0.0000 0.0000 0.0000 0.0000 0.0000 20.1447
#
#
#
# Elastic Compliance Matrix: (Units=1/GPa)
#
#
# Indices 1 2 3 4 5 6 
#
# 1 0.018382 -0.006438 0.000940 0.000000 0.000000 0.000000
# 2 -0.006438 0.018382 0.000940 0.000000 0.000000 0.000000
# 3 0.000940 0.000940 0.019616 0.000000 0.000000 0.000000
# 4 0.000000 0.000000 0.000000 0.065484 0.000000 0.000000
# 5 0.000000 0.000000 0.000000 0.000000 0.065484 0.000000
# 6 0.000000 0.000000 0.000000 0.000000 0.000000 0.049641
#
#
# Mechanical properties :
#
#
# Convention : Reuss Voigt Hill
#
# Bulk Modulus (GPa) = 21.15754 22.65756 21.90755
# Shear Modulus (GPa) = 19.09431 20.94224 20.01828
#
# Velocity S-wave (km/s) = 3.04988 3.19405 3.12280
# Velocity P-wave (km/s) = 4.76542 4.96389 4.86567
#
# Compressibility (1/GPa) = 0.04726448
#
# Stress axis : x y z
#
# Youngs Moduli (GPa) = 54.40134 54.40134 50.97952
#
# Poissons Ratio (x) = 0.35026 -0.04795
# Poissons Ratio (y) = 0.35026 -0.04795
# Poissons Ratio (z) = -0.05116 -0.05116
#
# Static dielectric constant tensor:
#      x y z
#    x 1.734390 0.000000 0.000000 
#    y 0.000000 1.734390 0.000000 
#    z 0.000000 0.000000 1.796500 
# 
# From -- ./inp_files/7252.got.cif
#   From: 2010.05.17/outbox.cif.g08.bks.cpg/sg178_4_cif.got.tgz:7252.got - 2010.05.20 11:30:59.
