data_PCOD9582491
_publ_section_title
;
Structure prediction by ZEFSAII (Michael W. Deem and Ramdas Pophale) SiO2 
 PCOD9582491
Probable space group: P 61 2 2
;
_chemical_formula_sum "Si O2"
_cell_formula_units_Z 66
_cell_length_a 10.159339
_cell_length_b 10.159339
_cell_length_c 32.933139
_cell_angle_alpha 90.000000
_cell_angle_beta 90.000000
_cell_angle_gamma 120.000000
_cell_volume 2943.707561
_symmetry_space_group_name_H-M "P 61 2 2"
_symmetry_group_IT_number 178
_symmetry_cell_setting 'hexagonal'
loop_
_space_group_symop_operation_xyz
x,y,z
x-y,x,1/6+z
-y,x-y,1/3+z
-x,-y,1/2+z
-x+y,-x,2/3+z
y,-x+y,5/6+z
x-y,-y,-z
-x,-x+y,2/3-z
y,x,1/3-z
-y,-x,5/6-z
-x+y,y,1/2-z
x,x-y,1/6-z
loop_
_atom_site_type_symbol
_atom_site_label
_atom_site_fract_x
_atom_site_fract_y
_atom_site_fract_z
Si Si1 0.028235 0.362584 0.625102
Si Si2 0.990940 0.649348 0.040190
Si Si3 0.580651 0.790326 0.583334
Si Si4 0.705236 0.104741 0.619912
Si Si5 0.498978 0.178571 0.995647
Si Si6 0.738225 0.563080 0.293593
O O1 0.076388 0.324873 0.581755
O O2 0.067397 0.536477 0.626647
O O3 0.847654 0.271571 0.617408
O O4 0.085906 0.333468 0.667532
O O5 0.172868 0.741928 0.033038
O O6 0.937747 0.678187 0.997586
O O7 0.684282 0.713309 0.576431
O O8 0.484928 0.757044 0.541692
O O9 0.548091 0.106245 0.618363
O O10 0.655174 0.203934 0.977074
O O11 0.384248 0.000000 0.000000
O O12 0.814721 0.629441 0.250000
#
# Coordination Sequence:
#
# PCOD9582491 Si02
#       6
#    12  12   6  12  12  12
#     4  10  19  36  58  80 118 156 194 242 299 374
#     4   9  19  34  56  87 111 151 198 239 302 358
#     4  10  22  36  62 100 116 154 210 260 318 354
#     4  10  20  37  61  89 120 155 199 260 305 362
#     4  11  21  36  59  89 127 153 195 260 308 371
#     4  11  22  37  57  89 126 164 197 251 317 369
#
# _framework density 22.420707
#
# number of rings (size 3 to 8) (size 9 to 14) (size 15 to 20)
#    0.000    1.818    1.818    3.273    0.000    2.909 
#    3.273    0.000    0.000    6.545    9.455    0.000 
#    0.000    0.000    0.000    0.000    0.000    0.000 
#
# Total GULP energy -367667.630354 kJ/mol
# GULP energy per Si atom -5570.721672 kJ/mol
# Density = 2.236968 g / cm^3
# Si number density = 22.420707 Si / 1000 Ang^3
#
#
#
# Elastic Constant Matrix: (Units=GPa)
#
#
# Indices 1 2 3 4 5 6 
#
# 1 31.4606 2.5540 35.9429 0.0000 0.0000 0.0000
# 2 2.5540 31.4606 35.9429 0.0000 0.0000 0.0000
# 3 35.9429 35.9429 209.8171 0.0000 0.0000 0.0000
# 4 0.0000 0.0000 0.0000 18.7259 0.0000 0.0000
# 5 0.0000 0.0000 0.0000 0.0000 18.7259 0.0000
# 6 0.0000 0.0000 0.0000 0.0000 0.0000 14.4533
#
#
#
# Elastic Compliance Matrix: (Units=1/GPa)
#
#
# Indices 1 2 3 4 5 6 
#
# 1 0.040339 0.005744 -0.007894 0.000000 0.000000 0.000000
# 2 0.005744 0.040339 -0.007894 0.000000 0.000000 0.000000
# 3 -0.007894 -0.007894 0.007471 0.000000 0.000000 0.000000
# 4 0.000000 0.000000 0.000000 0.053402 0.000000 0.000000
# 5 0.000000 0.000000 0.000000 0.000000 0.053402 0.000000
# 6 0.000000 0.000000 0.000000 0.000000 0.000000 0.069188
#
#
# Mechanical properties :
#
#
# Convention : Reuss Voigt Hill
#
# Bulk Modulus (GPa) = 14.69307 46.84642 30.76974
# Shear Modulus (GPa) = 16.29116 23.60091 19.94604
#
# Velocity S-wave (km/s) = 2.69850 3.24796 2.98590
# Velocity P-wave (km/s) = 4.03445 5.91653 5.06370
#
# Compressibility (1/GPa) = 0.06805931
#
# Stress axis : x y z
#
# Youngs Moduli (GPa) = 24.79021 24.79021 133.85579
#
# Poissons Ratio (x) = -0.14240 1.05669
# Poissons Ratio (y) = -0.14240 1.05669
# Poissons Ratio (z) = 0.19570 0.19570
#
# Static dielectric constant tensor:
#      x y z
#    x 1.861900 0.000000 0.000000 
#    y 0.000000 1.861900 0.000000 
#    z 0.000000 0.000000 1.996320 
# 
# From -- ./inp_files/9516.got.cif
#   From: 2010.05.17/outbox.cif.g08.bks.cpg/sg178_5_cif.got.tgz:9516.got - 2010.05.20 11:30:59.
