data_PCOD9582112
_publ_section_title
;
Structure prediction by ZEFSAII (Michael W. Deem and Ramdas Pophale) SiO2 
 PCOD9582112
Probable space group: P 63/M
;
_chemical_formula_sum "Si O2"
_cell_formula_units_Z 72
_cell_length_a 23.339680
_cell_length_b 23.339680
_cell_length_c 7.384160
_cell_angle_alpha 90.000000
_cell_angle_beta 90.000000
_cell_angle_gamma 120.000000
_cell_volume 3483.545800
_symmetry_space_group_name_H-M "P 63/M"
_symmetry_group_IT_number 176
_symmetry_cell_setting 'hexagonal'
loop_
_space_group_symop_operation_xyz
x,y,z
x-y,x,1/2+z
-y,x-y,z
-x,-y,1/2+z
-x+y,-x,z
y,-x+y,1/2+z
-x,-y,-z
-x+y,-x,1/2-z
y,-x+y,-z
x,y,1/2-z
x-y,x,-z
-y,x-y,1/2-z
loop_
_atom_site_type_symbol
_atom_site_label
_atom_site_fract_x
_atom_site_fract_y
_atom_site_fract_z
Si Si1 0.322252 0.292186 0.529602
Si Si2 0.409526 0.492119 0.471989
Si Si3 0.537928 0.609220 0.457059
Si Si4 0.850211 0.134243 0.972170
Si Si5 0.121882 0.729719 0.043364
Si Si6 0.145561 0.040952 0.955066
O O1 0.322481 0.296554 0.750000
O O2 0.399022 0.325571 0.467525
O O3 0.282744 0.215719 0.477693
O O4 0.293096 0.336844 0.457616
O O5 0.410378 0.490651 0.250000
O O6 0.463769 0.565843 0.532719
O O7 0.435491 0.443255 0.538042
O O8 0.333352 0.457889 0.532460
O O9 0.530398 0.624622 0.250000
O O10 0.852772 0.135921 0.750000
O O11 0.845221 0.197202 0.036371
O O12 0.916970 0.136325 0.033646
O O13 0.145504 0.737269 0.250000
O O14 0.150225 0.021876 0.750000
O O15 0.119269 0.093061 0.951217
#
# Coordination Sequence:
#
# PCOD9582112 Si02
#       6
#    12  12  12  12  12  12
#     4   9  16  27  41  57  79 104 131 160 195 236
#     4   8  13  21  35  55  77  99 122 148 177 214
#     4   8  13  21  35  55  77  99 122 148 177 214
#     4   9  18  30  44  61  81 106 134 166 204 252
#     4   9  16  27  41  57  79 104 131 160 195 236
#     4  11  22  36  51  65  80 100 134 178 224 268
#
# _framework density 20.668595
#
# number of rings (size 3 to 8) (size 9 to 14) (size 15 to 20)
#    0.000    3.000    0.000    1.667    0.000    0.000 
#    0.000    2.500    0.000    0.000    0.000    0.000 
#    1.667    0.000    5.000    0.000    0.000    0.000 
#
# Total GULP energy -401129.703803 kJ/mol
# GULP energy per Si atom -5571.245886 kJ/mol
# Density = 2.062155 g / cm^3
# Si number density = 20.668595 Si / 1000 Ang^3
#
#
#
# Elastic Constant Matrix: (Units=GPa)
#
#
# Indices 1 2 3 4 5 6 
#
# 1 53.2774 -10.1969 -3.3740 0.0000 0.0000 0.0000
# 2 -10.1969 53.2774 -3.3740 0.0000 0.0000 0.0000
# 3 -3.3740 -3.3740 81.3202 0.0000 0.0000 0.0000
# 4 0.0000 0.0000 0.0000 -8.6405 0.0000 0.0000
# 5 0.0000 0.0000 0.0000 0.0000 -8.6405 0.0000
# 6 0.0000 0.0000 0.0000 0.0000 0.0000 31.7371
#
#
#
# Elastic Compliance Matrix: (Units=1/GPa)
#
#
# Indices 1 2 3 4 5 6 
#
# 1 0.019559 0.003805 0.000969 0.000000 0.000000 0.000000
# 2 0.003805 0.019559 0.000969 0.000000 0.000000 0.000000
# 3 0.000969 0.000969 0.012378 0.000000 0.000000 0.000000
# 4 0.000000 0.000000 0.000000 -0.115734 0.000000 0.000000
# 5 0.000000 0.000000 0.000000 0.000000 -0.115734 0.000000
# 6 0.000000 0.000000 0.000000 0.000000 0.000000 0.031509
#
#
# Mechanical properties :
#
#
# Convention : Reuss Voigt Hill
#
# Bulk Modulus (GPa) = 15.87716 17.10944 16.49330
# Shear Modulus (GPa) = -35.98245 16.54590 -9.71827
#
# Velocity S-wave (km/s) = -4.17696 2.83244 -2.17075
# Velocity P-wave (km/s) = 3.94516 4.35809 1.30932
#
# Compressibility (1/GPa) = 0.06298354
#
# Stress axis : x y z
#
# Youngs Moduli (GPa) = 51.12654 51.12654 80.79169
#
# Poissons Ratio (x) = -0.19453 -0.07832
# Poissons Ratio (y) = -0.19453 -0.07832
# Poissons Ratio (z) = -0.04956 -0.04956
#
# Static dielectric constant tensor:
#      x y z
#    x 1.767810 0.000000 0.000000 
#    y 0.000000 1.767810 0.000000 
#    z 0.000000 0.000000 2.054600 
# 
# From -- ./inp_files/1139.got.cif
#   From: 2010.05.17/outbox.cif.g08.bks.cpg/sg176_1_cif.got.tgz:1139.got - 2010.06.03 11:36:45.
