data_PCOD9582262
_publ_section_title
;
Structure prediction by ZEFSAII (Michael W. Deem and Ramdas Pophale) SiO2 
 PCOD9582262
Probable space group: P 6 2 2
;
_chemical_formula_sum "Si O2"
_cell_formula_units_Z 84
_cell_length_a 21.167088
_cell_length_b 21.167088
_cell_length_c 12.455977
_cell_angle_alpha 90.000000
_cell_angle_beta 90.000000
_cell_angle_gamma 120.000000
_cell_volume 4833.154296
_symmetry_space_group_name_H-M "P 6 2 2"
_symmetry_group_IT_number 177
_symmetry_cell_setting 'hexagonal'
loop_
_space_group_symop_operation_xyz
x,y,z
x-y,x,z
-y,x-y,z
-x,-y,z
-x+y,-x,z
y,-x+y,z
x-y,-y,-z
-x,-x+y,-z
y,x,-z
-y,-x,-z
-x+y,y,-z
x,x-y,-z
loop_
_atom_site_type_symbol
_atom_site_label
_atom_site_fract_x
_atom_site_fract_y
_atom_site_fract_z
Si Si1 0.521059 0.336262 0.500000
Si Si2 0.087595 0.665458 0.691347
Si Si3 0.833649 0.667298 0.369875
Si Si4 0.835015 0.917508 0.630647
Si Si5 0.334542 0.422137 0.308653
Si Si6 0.814278 0.333115 0.127756
Si Si7 0.518837 0.333115 0.127756
O O1 0.606501 0.393500 0.500000
O O2 0.507435 0.253718 0.500000
O O3 0.483707 0.351408 0.398140
O O4 0.483706 0.351408 0.601860
O O5 0.119979 0.751731 0.673573
O O6 0.115924 0.654245 0.805326
O O7 0.000000 0.619159 0.678715
O O8 0.830633 0.661265 0.500000
O O9 0.875704 0.751408 0.339237
O O10 0.751731 0.631752 0.326427
O O11 0.875753 0.875753 0.668461
O O12 0.837491 0.918746 0.500000
O O13 0.345755 0.461679 0.194675
O O14 0.743284 0.256716 0.160691
O O15 0.799884 0.399942 0.148508
O O16 0.824283 0.330447 0.000000
#
# Coordination Sequence:
#
# PCOD9582262 Si02
#       7
#    12  12  12  12  12  12  12
#     4  12  24  41  59  82 113 151 192 234 279 329
#     4  12  23  37  58  83 115 151 187 231 279 333
#     4  11  20  37  55  78 113 155 199 226 272 337
#     4   9  17  28  47  75 107 145 190 239 282 324
#     4  12  23  37  58  83 115 151 187 231 279 333
#     4  10  21  39  62  85 111 144 186 232 280 333
#     4  10  21  39  62  85 111 144 186 232 280 333
#
# _framework density 17.379954000000001
#
# number of rings (size 3 to 8) (size 9 to 14) (size 15 to 20)
#    0.000    1.143    4.286    2.714    0.000    6.286 
#    0.000    4.286    0.000    0.000    0.000    0.000 
#    0.000    0.000    0.000    0.000    0.000   10.143 
#
# Total GULP energy -468982.623120 kJ/mol
# GULP energy per Si atom -5583.126466 kJ/mol
# Density = 1.734040 g / cm^3
# Si number density = 17.379954 Si / 1000 Ang^3
#
#
#
# Elastic Constant Matrix: (Units=GPa)
#
#
# Indices 1 2 3 4 5 6 
#
# 1 103.1508 67.7408 33.3689 0.0000 0.0000 0.0000
# 2 67.7408 103.1508 33.3689 0.0000 0.0000 0.0000
# 3 33.3689 33.3689 45.7952 0.0000 0.0000 0.0000
# 4 0.0000 0.0000 0.0000 7.7866 0.0000 0.0000
# 5 0.0000 0.0000 0.0000 0.0000 7.7866 0.0000
# 6 0.0000 0.0000 0.0000 0.0000 0.0000 17.7050
#
#
#
# Elastic Compliance Matrix: (Units=1/GPa)
#
#
# Indices 1 2 3 4 5 6 
#
# 1 0.018210 -0.010031 -0.005960 0.000000 0.000000 0.000000
# 2 -0.010031 0.018210 -0.005960 0.000000 0.000000 0.000000
# 3 -0.005960 -0.005960 0.030522 0.000000 0.000000 0.000000
# 4 0.000000 0.000000 0.000000 0.128425 0.000000 0.000000
# 5 0.000000 0.000000 0.000000 0.000000 0.128425 0.000000
# 6 0.000000 0.000000 0.000000 0.000000 0.000000 0.056481
#
#
# Mechanical properties :
#
#
# Convention : Reuss Voigt Hill
#
# Bulk Modulus (GPa) = 43.40132 57.89489 50.64811
# Shear Modulus (GPa) = 11.57799 14.49687 13.03743
#
# Velocity S-wave (km/s) = 2.58383 2.89124 2.74184
# Velocity P-wave (km/s) = 5.82476 6.67303 6.26327
#
# Compressibility (1/GPa) = 0.02304077
#
# Stress axis : x y z
#
# Youngs Moduli (GPa) = 54.91536 54.91536 32.76373
#
# Poissons Ratio (x) = 0.55084 0.19526
# Poissons Ratio (y) = 0.55084 0.19526
# Poissons Ratio (z) = 0.32728 0.32728
#
# Static dielectric constant tensor:
#      x y z
#    x 1.580810 0.000000 0.000000 
#    y 0.000000 1.580810 0.000000 
#    z 0.000000 0.000000 1.598140 
# 
# From -- ./inp_files/2071.got.cif
#   From: 2010.05.17/outbox.cif.g08.bks.cpg/sg177_2_cif.got.tgz:2071.got - 2010.05.20 11:28:44.
