data_PCOD9582785
_publ_section_title
;
Structure prediction by ZEFSAII (Michael W. Deem and Ramdas Pophale) SiO2 
 PCOD9582785
Probable space group: P 61 2 2
;
_chemical_formula_sum "Si O2"
_cell_formula_units_Z 60
_cell_length_a 14.549501
_cell_length_b 14.549501
_cell_length_c 15.030462
_cell_angle_alpha 90.000000
_cell_angle_beta 90.000000
_cell_angle_gamma 120.000000
_cell_volume 2755.492029
_symmetry_space_group_name_H-M "P 61 2 2"
_symmetry_group_IT_number 178
_symmetry_cell_setting 'hexagonal'
loop_
_space_group_symop_operation_xyz
x,y,z
x-y,x,1/6+z
-y,x-y,1/3+z
-x,-y,1/2+z
-x+y,-x,2/3+z
y,-x+y,5/6+z
x-y,-y,-z
-x,-x+y,2/3-z
y,x,1/3-z
-y,-x,5/6-z
-x+y,y,1/2-z
x,x-y,1/6-z
loop_
_atom_site_type_symbol
_atom_site_label
_atom_site_fract_x
_atom_site_fract_y
_atom_site_fract_z
Si Si1 0.704896 0.582220 0.809488
Si Si2 0.734421 0.367211 0.583334
Si Si3 0.479455 0.479455 0.166667
Si Si4 0.919133 0.684758 0.053058
Si Si5 0.218095 0.229872 0.764052
Si Si6 0.148934 0.542122 0.488670
O O1 0.802236 0.604471 0.750000
O O2 0.671636 0.480920 0.871894
O O3 0.610178 0.546991 0.739599
O O4 0.731065 0.691172 0.856199
O O5 0.655381 0.274392 0.649077
O O6 0.559692 0.467615 0.235887
O O7 0.929836 0.681465 0.160396
O O8 0.857459 0.750100 0.039971
O O9 0.863458 0.574945 0.998765
O O10 0.269696 0.269696 0.666667
O O11 0.091783 0.183565 0.750000
O O12 0.102455 0.551228 0.583334
#
# Coordination Sequence:
#
# PCOD9582785 Si02
#       6
#    12   6   6  12  12  12
#     4  11  23  42  69  97 135 183 231 289 361 417
#     4  12  24  46  72  96 144 192 232 306 352 434
#     4  10  24  44  66  96 140 174 236 298 346 428
#     4  10  22  41  67  96 137 180 231 293 358 435
#     4   9  19  41  66  95 134 179 229 291 363 431
#     4  11  25  45  67 104 140 182 244 290 366 441
#
# _framework density 21.774695000000001
#
# number of rings (size 3 to 8) (size 9 to 14) (size 15 to 20)
#    0.000    1.600    2.000    1.800    8.400    0.000 
#    7.200    8.000    0.000    0.000    0.000    0.000 
#    0.000    0.000    0.000    0.000    0.000    0.000 
#
# Total GULP energy -334014.178855 kJ/mol
# GULP energy per Si atom -5566.902981 kJ/mol
# Density = 2.172513 g / cm^3
# Si number density = 21.774695 Si / 1000 Ang^3
#
#
#
# Elastic Constant Matrix: (Units=GPa)
#
#
# Indices 1 2 3 4 5 6 
#
# 1 72.3871 23.6379 23.3854 0.0000 0.0000 0.0000
# 2 23.6379 72.3871 23.3854 0.0000 0.0000 0.0000
# 3 23.3854 23.3854 124.6546 0.0000 0.0000 0.0000
# 4 0.0000 0.0000 0.0000 38.1094 0.0000 0.0000
# 5 0.0000 0.0000 0.0000 0.0000 38.1094 0.0000
# 6 0.0000 0.0000 0.0000 0.0000 0.0000 24.3746
#
#
#
# Elastic Compliance Matrix: (Units=1/GPa)
#
#
# Indices 1 2 3 4 5 6 
#
# 1 0.015987 -0.004526 -0.002150 0.000000 0.000000 0.000000
# 2 -0.004526 0.015987 -0.002150 0.000000 0.000000 0.000000
# 3 -0.002150 -0.002150 0.008829 0.000000 0.000000 0.000000
# 4 0.000000 0.000000 0.000000 0.026240 0.000000 0.000000
# 5 0.000000 0.000000 0.000000 0.000000 0.026240 0.000000
# 6 0.000000 0.000000 0.000000 0.000000 0.000000 0.041026
#
#
# Mechanical properties :
#
#
# Convention : Reuss Voigt Hill
#
# Bulk Modulus (GPa) = 43.19506 45.58288 44.38897
# Shear Modulus (GPa) = 31.31271 33.38669 32.34970
#
# Velocity S-wave (km/s) = 3.79625 3.91996 3.85860
# Velocity P-wave (km/s) = 6.25266 6.43952 6.34678
#
# Compressibility (1/GPa) = 0.02315080
#
# Stress axis : x y z
#
# Youngs Moduli (GPa) = 62.55004 62.55004 113.26434
#
# Poissons Ratio (x) = 0.28310 0.24353
# Poissons Ratio (y) = 0.28310 0.24353
# Poissons Ratio (z) = 0.13449 0.13449
#
# Static dielectric constant tensor:
#      x y z
#    x 1.850600 0.000000 0.000000 
#    y 0.000000 1.850600 0.000000 
#    z 0.000000 0.000000 1.818820 
# 
# From -- ./inp_files/5760.got.cif
#   From: 2010.05.17/outbox.cif.g08.bks.cpg/sg178_3_cif.got.tgz:5760.got - 2010.05.20 11:30:59.
