data_PCOD9582613
_publ_section_title
;
Structure prediction by ZEFSAII (Michael W. Deem and Ramdas Pophale) SiO2 
 PCOD9582613
Probable space group: P 61 2 2
;
_chemical_formula_sum "Si O2"
_cell_formula_units_Z 84
_cell_length_a 17.913422
_cell_length_b 17.913422
_cell_length_c 14.091618
_cell_angle_alpha 90.000000
_cell_angle_beta 90.000000
_cell_angle_gamma 120.000000
_cell_volume 3916.053419
_symmetry_space_group_name_H-M "P 61 2 2"
_symmetry_group_IT_number 178
_symmetry_cell_setting 'hexagonal'
loop_
_space_group_symop_operation_xyz
x,y,z
x-y,x,1/6+z
-y,x-y,1/3+z
-x,-y,1/2+z
-x+y,-x,2/3+z
y,-x+y,5/6+z
x-y,-y,-z
-x,-x+y,2/3-z
y,x,1/3-z
-y,-x,5/6-z
-x+y,y,1/2-z
x,x-y,1/6-z
loop_
_atom_site_type_symbol
_atom_site_label
_atom_site_fract_x
_atom_site_fract_y
_atom_site_fract_z
Si Si1 0.458474 0.051357 0.128274
Si Si2 0.289902 0.076700 0.657447
Si Si3 0.776772 0.345438 0.995305
Si Si4 0.631392 0.048215 0.151961
Si Si5 0.200598 0.783544 0.620101
Si Si6 0.902562 0.996300 0.203203
Si Si7 0.132594 0.656505 0.774776
O O1 0.538700 0.033119 0.119337
O O2 0.437691 0.063938 0.235354
O O3 0.375685 0.963934 0.093870
O O4 0.479587 0.127658 0.054278
O O5 0.306246 0.153123 0.583334
O O6 0.323629 0.125898 0.757605
O O7 0.187720 0.015336 0.668952
O O8 0.338446 0.022534 0.635267
O O9 0.733630 0.366815 0.083334
O O10 0.815225 0.292554 0.046754
O O11 0.711129 0.288872 0.916667
O O12 0.841712 0.433639 0.943489
O O13 0.705904 0.135404 0.105228
O O14 0.192652 0.747793 0.725857
O O15 0.901665 0.980190 0.316426
O O16 0.918337 0.918337 0.166667
#
# Coordination Sequence:
#
# PCOD9582613 Si02
#       7
#    12  12  12  12  12  12  12
#     4  10  22  43  67  89 126 178 229 263 340 406
#     4  12  23  38  64  98 135 165 214 279 344 391
#     4  10  21  39  57  88 126 167 211 270 333 388
#     4  11  24  40  65 100 133 171 223 281 334 420
#     4  11  23  37  61  95 131 165 218 276 338 393
#     4  10  20  38  63  93 131 175 212 257 335 404
#     4  10  21  41  66  85 124 181 219 274 328 396
#
# _framework density 21.450168000000001
#
# number of rings (size 3 to 8) (size 9 to 14) (size 15 to 20)
#    0.000    1.429    2.857    3.000    4.000    2.857 
#   15.429    0.000    0.000   15.429    0.000    0.000 
#    0.000    0.000    0.000    0.000    0.000    0.000 
#
# Total GULP energy -468263.957785 kJ/mol
# GULP energy per Si atom -5574.570926 kJ/mol
# Density = 2.140135 g / cm^3
# Si number density = 21.450168 Si / 1000 Ang^3
#
#
#
# Elastic Constant Matrix: (Units=GPa)
#
#
# Indices 1 2 3 4 5 6 
#
# 1 16.1608 64.4549 13.2776 0.0000 0.0000 0.0000
# 2 64.4549 16.1608 13.2776 0.0000 0.0000 0.0000
# 3 13.2776 13.2776 103.4928 0.0000 0.0000 0.0000
# 4 0.0000 0.0000 0.0000 25.5225 0.0000 0.0000
# 5 0.0000 0.0000 0.0000 0.0000 25.5225 0.0000
# 6 0.0000 0.0000 0.0000 0.0000 0.0000 -24.1471
#
#
#
# Elastic Compliance Matrix: (Units=1/GPa)
#
#
# Indices 1 2 3 4 5 6 
#
# 1 -0.003877 0.016829 -0.001662 0.000000 0.000000 0.000000
# 2 0.016829 -0.003877 -0.001662 0.000000 0.000000 0.000000
# 3 -0.001662 -0.001662 0.010089 0.000000 0.000000 0.000000
# 4 0.000000 0.000000 0.000000 0.039181 0.000000 0.000000
# 5 0.000000 0.000000 0.000000 0.000000 0.039181 0.000000
# 6 0.000000 0.000000 0.000000 0.000000 0.000000 -0.041413
#
#
# Mechanical properties :
#
#
# Convention : Reuss Voigt Hill
#
# Bulk Modulus (GPa) = 34.07617 35.31495 34.69556
# Shear Modulus (GPa) = 226.71569 8.36652 117.54111
#
# Velocity S-wave (km/s) = 10.29192 1.97710 7.41055
# Velocity P-wave (km/s) = 12.53603 4.65954 9.45684
#
# Compressibility (1/GPa) = 0.02934602
#
# Stress axis : x y z
#
# Youngs Moduli (GPa) = -257.91275 -257.91275 99.11906
#
# Poissons Ratio (x) = 4.34046 0.16470
# Poissons Ratio (y) = 4.34046 0.16470
# Poissons Ratio (z) = -0.42856 -0.42856
#
# Static dielectric constant tensor:
#      x y z
#    x 1.794800 0.000000 0.000000 
#    y 0.000000 1.794800 0.000000 
#    z 0.000000 0.000000 1.868780 
# 
# From -- ./inp_files/6045.got.cif
#   From: 2010.05.17/outbox.cif.g08.bks.cpg/sg178_4_cif.got.tgz:6045.got - 2010.05.20 11:30:59.
