data_PCOD9582048
_publ_section_title
;
Structure prediction by ZEFSAII (Michael W. Deem and Ramdas Pophale) SiO2 
 PCOD9582048
Probable space group: P 63/M
;
_chemical_formula_sum "Si O2"
_cell_formula_units_Z 48
_cell_length_a 16.400699
_cell_length_b 16.400699
_cell_length_c 10.132859
_cell_angle_alpha 90.000000
_cell_angle_beta 90.000000
_cell_angle_gamma 120.000000
_cell_volume 2360.409465
_symmetry_space_group_name_H-M "P 63/M"
_symmetry_group_IT_number 176
_symmetry_cell_setting 'hexagonal'
loop_
_space_group_symop_operation_xyz
x,y,z
x-y,x,1/2+z
-y,x-y,z
-x,-y,1/2+z
-x+y,-x,z
y,-x+y,1/2+z
-x,-y,-z
-x+y,-x,1/2-z
y,-x+y,-z
x,y,1/2-z
x-y,x,-z
-y,x-y,1/2-z
loop_
_atom_site_type_symbol
_atom_site_label
_atom_site_fract_x
_atom_site_fract_y
_atom_site_fract_z
Si Si1 0.139487 0.918531 0.250000
Si Si2 0.784283 0.867979 0.750000
Si Si3 0.813633 0.161199 0.504017
Si Si4 0.366043 0.465185 0.400716
Si Si5 0.382611 0.874824 0.901919
O O1 0.189933 0.904185 0.376197
O O2 0.029089 0.840704 0.250000
O O3 0.148067 0.019973 0.250000
O O4 0.717810 0.842370 0.876614
O O5 0.886579 0.267586 0.547050
O O6 0.717374 0.159674 0.470190
O O7 0.353942 0.489521 0.250000
O O8 0.441663 0.430030 0.395877
O O9 0.405423 0.551005 0.503874
O O10 0.374296 0.841461 0.750000
#
# Coordination Sequence:
#
# PCOD9582048 Si02
#       5
#     6   6  12  12  12
#     4  12  25  42  66  98 140 188 238 288 335 394
#     4  12  25  42  66  98 140 188 238 288 335 394
#     4  12  24  42  67  98 134 178 225 280 340 410
#     4  10  22  41  65  94 125 161 210 268 329 397
#     4  10  22  41  65  94 125 161 210 268 329 397
#
# _framework density 20.335453000000001
#
# number of rings (size 3 to 8) (size 9 to 14) (size 15 to 20)
#    0.000    1.000    2.500    4.750    3.500    0.000 
#    1.500    2.500    0.000    0.000    0.000    0.000 
#    0.000    0.000    0.000    0.000    0.000    0.000 
#
# Total GULP energy -268322.123067 kJ/mol
# GULP energy per Si atom -5590.044231 kJ/mol
# Density = 2.028917 g / cm^3
# Si number density = 20.335453 Si / 1000 Ang^3
#
#
#
# Elastic Constant Matrix: (Units=GPa)
#
#
# Indices 1 2 3 4 5 6 
#
# 1 73.6891 -9.7617 31.5412 0.0000 0.0000 0.0000
# 2 -9.7617 73.6891 31.5412 0.0000 0.0000 0.0000
# 3 31.5412 31.5412 172.7221 0.0000 0.0000 0.0000
# 4 0.0000 0.0000 0.0000 21.5530 0.0000 0.0000
# 5 0.0000 0.0000 0.0000 0.0000 21.5530 0.0000
# 6 0.0000 0.0000 0.0000 0.0000 0.0000 41.7254
#
#
#
# Elastic Compliance Matrix: (Units=1/GPa)
#
#
# Indices 1 2 3 4 5 6 
#
# 1 0.015532 0.003549 -0.003484 0.000000 0.000000 0.000000
# 2 0.003549 0.015532 -0.003484 0.000000 0.000000 0.000000
# 3 -0.003484 -0.003484 0.007062 0.000000 0.000000 0.000000
# 4 0.000000 0.000000 0.000000 0.046397 0.000000 0.000000
# 5 0.000000 0.000000 0.000000 0.000000 0.046397 0.000000
# 6 0.000000 0.000000 0.000000 0.000000 0.000000 0.023966
#
#
# Mechanical properties :
#
#
# Convention : Reuss Voigt Hill
#
# Bulk Modulus (GPa) = 31.96247 47.41575 39.68911
# Shear Modulus (GPa) = 29.04345 34.75160 31.89753
#
# Velocity S-wave (km/s) = 3.78328 4.13839 3.96481
# Velocity P-wave (km/s) = 5.90220 6.79724 6.36547
#
# Compressibility (1/GPa) = 0.03128669
#
# Stress axis : x y z
#
# Youngs Moduli (GPa) = 64.38276 64.38276 141.59789
#
# Poissons Ratio (x) = -0.22849 0.49339
# Poissons Ratio (y) = -0.22849 0.49339
# Poissons Ratio (z) = 0.22434 0.22434
#
# Static dielectric constant tensor:
#      x y z
#    x 1.719970 0.000000 0.000000 
#    y 0.000000 1.719970 0.000000 
#    z 0.000000 0.000000 1.671160 
# 
# From -- ./inp_files/618.got.cif
#   From: 2010.05.17/outbox.cif.g08.bks.cpg/sg176_1_cif.got.tgz:618.got - 2010.06.03 11:36:45.
