data_PCOD9582515
_publ_section_title
;
Structure prediction by ZEFSAII (Michael W. Deem and Ramdas Pophale) SiO2 
 PCOD9582515
Probable space group: P 61 2 2
;
_chemical_formula_sum "Si O2"
_cell_formula_units_Z 48
_cell_length_a 23.559915
_cell_length_b 23.559915
_cell_length_c 8.054820
_cell_angle_alpha 90.000000
_cell_angle_beta 90.000000
_cell_angle_gamma 120.000000
_cell_volume 3871.987173
_symmetry_space_group_name_H-M "P 61 2 2"
_symmetry_group_IT_number 178
_symmetry_cell_setting 'hexagonal'
loop_
_space_group_symop_operation_xyz
x,y,z
x-y,x,1/6+z
-y,x-y,1/3+z
-x,-y,1/2+z
-x+y,-x,2/3+z
y,-x+y,5/6+z
x-y,-y,-z
-x,-x+y,2/3-z
y,x,1/3-z
-y,-x,5/6-z
-x+y,y,1/2-z
x,x-y,1/6-z
loop_
_atom_site_type_symbol
_atom_site_label
_atom_site_fract_x
_atom_site_fract_y
_atom_site_fract_z
Si Si1 0.840502 0.488035 0.077069
Si Si2 0.395884 0.926291 0.939233
Si Si3 0.728469 0.427698 0.563602
Si Si4 0.123835 0.623967 0.234939
O O1 0.852331 0.426166 0.083334
O O2 0.869426 0.524941 0.250799
O O3 0.877657 0.529081 0.914486
O O4 0.762622 0.454411 0.052273
O O5 0.454781 0.909208 0.925700
O O6 0.366301 0.913278 0.753703
O O7 0.425859 0.000000 0.000000
O O8 0.725546 0.451092 0.750000
O O9 0.699332 0.349666 0.583334
O O10 0.801386 0.455672 0.493955
#
# Coordination Sequence:
#
# PCOD9582515 Si02
#       4
#    12  12  12  12
#     4  10  20  30  43  59  75 102 119 146 188 217
#     4  10  20  32  44  58  75  93 125 157 182 219
#     4  12  19  32  43  59  84 100 125 150 181 239
#     4  10  20  32  42  61  72  95 123 149 189 217
#
# _framework density 12.396735
#
# number of rings (size 3 to 8) (size 9 to 14) (size 15 to 20)
#    0.000    1.500    5.000    3.000   10.500    0.000 
#    0.000    0.000    0.000    0.000    0.000    0.000 
#    0.000    0.000    0.000    0.000    0.000    0.000 
#
# Total GULP energy -267232.671515 kJ/mol
# GULP energy per Si atom -5567.347323 kJ/mol
# Density = 1.236852 g / cm^3
# Si number density = 12.396735 Si / 1000 Ang^3
#
#
#
# Elastic Constant Matrix: (Units=GPa)
#
#
# Indices 1 2 3 4 5 6 
#
# 1 48.4648 2.8615 23.3031 0.0000 0.0000 0.0000
# 2 2.8615 48.4648 23.3031 0.0000 0.0000 0.0000
# 3 23.3031 23.3031 110.9691 0.0000 0.0000 0.0000
# 4 0.0000 0.0000 0.0000 11.4816 0.0000 0.0000
# 5 0.0000 0.0000 0.0000 0.0000 11.4816 0.0000
# 6 0.0000 0.0000 0.0000 0.0000 0.0000 22.8017
#
#
#
# Elastic Compliance Matrix: (Units=1/GPa)
#
#
# Indices 1 2 3 4 5 6 
#
# 1 0.023001 0.001073 -0.005055 0.000000 0.000000 0.000000
# 2 0.001073 0.023001 -0.005055 0.000000 0.000000 0.000000
# 3 -0.005055 -0.005055 0.011135 0.000000 0.000000 0.000000
# 4 0.000000 0.000000 0.000000 0.087096 0.000000 0.000000
# 5 0.000000 0.000000 0.000000 0.000000 0.087096 0.000000
# 6 0.000000 0.000000 0.000000 0.000000 0.000000 0.043856
#
#
# Mechanical properties :
#
#
# Convention : Reuss Voigt Hill
#
# Bulk Modulus (GPa) = 25.60131 34.09269 29.84700
# Shear Modulus (GPa) = 16.32492 19.71507 18.01999
#
# Velocity S-wave (km/s) = 3.63281 3.99224 3.81676
# Velocity P-wave (km/s) = 6.18813 6.98653 6.59941
#
# Compressibility (1/GPa) = 0.03906051
#
# Stress axis : x y z
#
# Youngs Moduli (GPa) = 43.47652 43.47652 89.80905
#
# Poissons Ratio (x) = -0.04664 0.45402
# Poissons Ratio (y) = -0.04664 0.45402
# Poissons Ratio (z) = 0.21979 0.21979
#
# Static dielectric constant tensor:
#      x y z
#    x 1.385980 0.000000 0.000000 
#    y 0.000000 1.385980 0.000000 
#    z 0.000000 0.000000 1.508920 
# 
# From -- ./inp_files/2948.got.cif
#   From: 2010.05.17/outbox.cif.g08.bks.cpg/sg178_2_cif.got.tgz:2948.got - 2010.05.20 11:30:59.
