data_PCOD9582572
_publ_section_title
;
Structure prediction by ZEFSAII (Michael W. Deem and Ramdas Pophale) SiO2 
 PCOD9582572
Probable space group: P 61 2 2
;
_chemical_formula_sum "Si O2"
_cell_formula_units_Z 54
_cell_length_a 16.242341
_cell_length_b 16.242341
_cell_length_c 11.717907
_cell_angle_alpha 90.000000
_cell_angle_beta 90.000000
_cell_angle_gamma 120.000000
_cell_volume 2677.182187
_symmetry_space_group_name_H-M "P 61 2 2"
_symmetry_group_IT_number 178
_symmetry_cell_setting 'hexagonal'
loop_
_space_group_symop_operation_xyz
x,y,z
x-y,x,1/6+z
-y,x-y,1/3+z
-x,-y,1/2+z
-x+y,-x,2/3+z
y,-x+y,5/6+z
x-y,-y,-z
-x,-x+y,2/3-z
y,x,1/3-z
-y,-x,5/6-z
-x+y,y,1/2-z
x,x-y,1/6-z
loop_
_atom_site_type_symbol
_atom_site_label
_atom_site_fract_x
_atom_site_fract_y
_atom_site_fract_z
Si Si1 0.670547 0.669840 0.305736
Si Si2 0.518602 0.037204 0.750000
Si Si3 0.801578 0.625815 0.473786
Si Si4 0.246224 0.571701 0.872203
Si Si5 0.891159 0.361080 0.297859
O O1 0.658366 0.658366 0.166667
O O2 0.572567 0.587541 0.364569
O O3 0.750746 0.655150 0.373506
O O4 0.690676 0.776564 0.323761
O O5 0.518340 0.104831 0.847328
O O6 0.791136 0.524634 0.440771
O O7 0.745234 0.604248 0.593235
O O8 0.343225 0.656776 0.916667
O O9 0.274192 0.548383 0.750000
O O10 0.173971 0.613151 0.874199
O O11 0.000000 0.412478 0.333334
#
# Coordination Sequence:
#
# PCOD9582572 Si02
#       5
#    12   6  12  12  12
#     4  11  22  39  63  89 120 157 203 256 304 362
#     4  10  20  36  58  84 114 158 198 240 298 358
#     4  11  24  40  61  89 119 159 207 251 310 363
#     4  12  22  37  57  85 122 164 209 248 294 354
#     4  11  23  39  57  84 124 160 200 252 298 361
#
# _framework density 20.170461
#
# number of rings (size 3 to 8) (size 9 to 14) (size 15 to 20)
#    0.000    0.889    2.222    8.000    1.556    5.333 
#    2.000    0.000    0.000    0.000    0.000    7.778 
#    0.000    0.000    0.000    0.000    0.000    0.000 
#
# Total GULP energy -301156.777228 kJ/mol
# GULP energy per Si atom -5576.977356 kJ/mol
# Density = 2.012455 g / cm^3
# Si number density = 20.170461 Si / 1000 Ang^3
#
#
#
# Elastic Constant Matrix: (Units=GPa)
#
#
# Indices 1 2 3 4 5 6 
#
# 1 88.9286 80.4513 27.0274 0.0000 0.0000 0.0000
# 2 80.4513 88.9286 27.0274 0.0000 0.0000 0.0000
# 3 27.0274 27.0274 12.1217 0.0000 0.0000 0.0000
# 4 0.0000 0.0000 0.0000 21.9689 0.0000 0.0000
# 5 0.0000 0.0000 0.0000 0.0000 21.9689 0.0000
# 6 0.0000 0.0000 0.0000 0.0000 0.0000 4.2386
#
#
#
# Elastic Compliance Matrix: (Units=1/GPa)
#
#
# Indices 1 2 3 4 5 6 
#
# 1 0.069216 -0.048747 -0.045638 0.000000 0.000000 0.000000
# 2 -0.048747 0.069216 -0.045638 0.000000 0.000000 0.000000
# 3 -0.045638 -0.045638 0.286014 0.000000 0.000000 0.000000
# 4 0.000000 0.000000 0.000000 0.045519 0.000000 0.000000
# 5 0.000000 0.000000 0.000000 0.000000 0.045519 0.000000
# 6 0.000000 0.000000 0.000000 0.000000 0.000000 0.235925
#
#
# Mechanical properties :
#
#
# Convention : Reuss Voigt Hill
#
# Bulk Modulus (GPa) = 6.92531 50.99901 28.96216
# Shear Modulus (GPa) = 4.63139 13.33346 8.98242
#
# Velocity S-wave (km/s) = 1.51694 2.57386 2.11256
# Velocity P-wave (km/s) = 2.55127 5.84567 4.51004
#
# Compressibility (1/GPa) = 0.14439792
#
# Stress axis : x y z
#
# Youngs Moduli (GPa) = 14.44760 14.44760 3.49633
#
# Poissons Ratio (x) = 0.70428 0.15957
# Poissons Ratio (y) = 0.70428 0.15957
# Poissons Ratio (z) = 0.65936 0.65936
#
# Static dielectric constant tensor:
#      x y z
#    x 1.770120 0.000000 0.000000 
#    y 0.000000 1.770120 0.000000 
#    z 0.000000 0.000000 1.847440 
# 
# From -- ./inp_files/4375.got.cif
#   From: 2010.05.17/outbox.cif.g08.bks.cpg/sg178_3_cif.got.tgz:4375.got - 2010.05.20 11:30:59.
