data_PCOD9582334
_publ_section_title
;
Structure prediction by ZEFSAII (Michael W. Deem and Ramdas Pophale) SiO2 
 PCOD9582334
Probable space group: P 61 2 2
;
_chemical_formula_sum "Si O2"
_cell_formula_units_Z 72
_cell_length_a 13.882800
_cell_length_b 13.882800
_cell_length_c 24.491533
_cell_angle_alpha 90.000000
_cell_angle_beta 90.000000
_cell_angle_gamma 120.000000
_cell_volume 4087.904446
_symmetry_space_group_name_H-M "P 61 2 2"
_symmetry_group_IT_number 178
_symmetry_cell_setting 'hexagonal'
loop_
_space_group_symop_operation_xyz
x,y,z
x-y,x,1/6+z
-y,x-y,1/3+z
-x,-y,1/2+z
-x+y,-x,2/3+z
y,-x+y,5/6+z
x-y,-y,-z
-x,-x+y,2/3-z
y,x,1/3-z
-y,-x,5/6-z
-x+y,y,1/2-z
x,x-y,1/6-z
loop_
_atom_site_type_symbol
_atom_site_label
_atom_site_fract_x
_atom_site_fract_y
_atom_site_fract_z
Si Si1 0.805341 0.194660 0.416667
Si Si2 0.167775 0.433371 0.008568
Si Si3 0.643766 0.287532 0.250000
Si Si4 0.341400 0.960360 0.107857
Si Si5 0.481047 0.048300 0.689120
Si Si6 0.745929 0.279439 0.772584
Si Si7 0.374484 0.851535 0.007420
O O1 0.732204 0.191982 0.468282
O O2 0.931623 0.259827 0.438140
O O3 0.215347 0.552329 0.038446
O O4 0.227045 0.376069 0.040869
O O5 0.036805 0.388220 0.011263
O O6 0.211768 0.454700 0.946776
O O7 0.599074 0.356293 0.217980
O O8 0.438092 0.970530 0.148553
O O9 0.381363 0.945244 0.048028
O O10 0.516389 0.032778 0.750000
O O11 0.505069 0.174710 0.688789
O O12 0.657155 0.314309 0.750000
O O13 0.849712 0.383121 0.801557
#
# Coordination Sequence:
#
# PCOD9582334 Si02
#       7
#     6  12   6  12  12  12  12
#     4  12  24  38  51  80 126 156 191 242 300 370
#     4  11  20  32  52  77 110 150 196 239 285 346
#     4  10  16  26  47  70  96 142 189 224 266 330
#     4  11  24  35  54  84 115 163 197 238 306 364
#     4  11  21  35  54  83 115 156 205 243 288 363
#     4  11  18  34  53  80 111 156 193 238 286 348
#     4  11  20  34  53  77 114 156 188 231 292 351
#
# _framework density 17.612936000000001
#
# number of rings (size 3 to 8) (size 9 to 14) (size 15 to 20)
#    0.000    1.000    6.667    3.500    2.333    0.000 
#    0.000    0.000    0.000    0.000    0.000    0.000 
#    0.000   40.000    0.000    0.000    0.000    0.000 
#
# Total GULP energy -401405.645803 kJ/mol
# GULP energy per Si atom -5575.078414 kJ/mol
# Density = 1.757285 g / cm^3
# Si number density = 17.612936 Si / 1000 Ang^3
#
#
#
# Elastic Constant Matrix: (Units=GPa)
#
#
# Indices 1 2 3 4 5 6 
#
# 1 89.1903 34.9834 16.7234 0.0000 0.0000 0.0000
# 2 34.9834 89.1903 16.7234 0.0000 0.0000 0.0000
# 3 16.7234 16.7234 90.7921 0.0000 0.0000 0.0000
# 4 0.0000 0.0000 0.0000 24.3283 0.0000 0.0000
# 5 0.0000 0.0000 0.0000 0.0000 24.3283 0.0000
# 6 0.0000 0.0000 0.0000 0.0000 0.0000 27.1034
#
#
#
# Elastic Compliance Matrix: (Units=1/GPa)
#
#
# Indices 1 2 3 4 5 6 
#
# 1 0.013461 -0.004987 -0.001561 0.000000 0.000000 0.000000
# 2 -0.004987 0.013461 -0.001561 0.000000 0.000000 0.000000
# 3 -0.001561 -0.001561 0.011589 0.000000 0.000000 0.000000
# 4 0.000000 0.000000 0.000000 0.041104 0.000000 0.000000
# 5 0.000000 0.000000 0.000000 0.000000 0.041104 0.000000
# 6 0.000000 0.000000 0.000000 0.000000 0.000000 0.036896
#
#
# Mechanical properties :
#
#
# Convention : Reuss Voigt Hill
#
# Bulk Modulus (GPa) = 44.85660 45.11476 44.98568
# Shear Modulus (GPa) = 27.58412 28.53482 28.05947
#
# Velocity S-wave (km/s) = 3.96173 4.02942 3.99572
# Velocity P-wave (km/s) = 6.81545 6.87884 6.84722
#
# Compressibility (1/GPa) = 0.02229326
#
# Stress axis : x y z
#
# Youngs Moduli (GPa) = 74.29005 74.29005 86.28755
#
# Poissons Ratio (x) = 0.37049 0.13468
# Poissons Ratio (y) = 0.37049 0.13468
# Poissons Ratio (z) = 0.11595 0.11595
#
# Static dielectric constant tensor:
#      x y z
#    x 1.659560 0.000000 0.000000 
#    y 0.000000 1.659560 0.000000 
#    z 0.000000 0.000000 1.651440 
# 
# From -- ./inp_files/7703.got.cif
#   From: 2010.05.17/outbox.cif.g08.bks.cpg/sg178_4_cif.got.tgz:7703.got - 2010.05.20 11:30:59.
