data_PCOD9582052
_publ_section_title
;
Structure prediction by ZEFSAII (Michael W. Deem and Ramdas Pophale) SiO2 
 PCOD9582052
Probable space group: P 63/M
;
_chemical_formula_sum "Si O2"
_cell_formula_units_Z 42
_cell_length_a 8.863897
_cell_length_b 8.863897
_cell_length_c 32.561779
_cell_angle_alpha 90.000000
_cell_angle_beta 90.000000
_cell_angle_gamma 120.000000
_cell_volume 2215.583681
_symmetry_space_group_name_H-M "P 63/M"
_symmetry_group_IT_number 176
_symmetry_cell_setting 'hexagonal'
loop_
_space_group_symop_operation_xyz
x,y,z
x-y,x,1/2+z
-y,x-y,z
-x,-y,1/2+z
-x+y,-x,z
y,-x+y,1/2+z
-x,-y,-z
-x+y,-x,1/2-z
y,-x+y,-z
x,y,1/2-z
x-y,x,-z
-y,x-y,1/2-z
loop_
_atom_site_type_symbol
_atom_site_label
_atom_site_fract_x
_atom_site_fract_y
_atom_site_fract_z
Si Si1 0.656755 0.675908 0.418341
Si Si2 0.333334 0.666667 0.937724
Si Si3 0.000000 0.000000 0.049060
Si Si4 0.211393 0.180587 0.750000
Si Si5 0.666667 0.333333 0.536255
Si Si6 0.703467 0.156328 0.827439
O O1 0.633435 0.485691 0.422383
O O2 0.511092 0.685854 0.445852
O O3 0.630169 0.714782 0.371548
O O4 0.845635 0.817405 0.434523
O O5 0.333334 0.666667 0.987258
O O6 0.000000 0.000000 0.000000
O O7 0.324568 0.267012 0.790320
O O8 0.026566 0.174235 0.750000
O O9 0.842390 0.363835 0.824688
#
# Coordination Sequence:
#
# PCOD9582052 Si02
#       6
#    12   4   4   6   4  12
#     4  12  24  42  67  99 135 186 233 288 349 414
#     4  12  27  39  69  97 146 178 240 294 336 411
#     4  12  27  42  66  97 137 187 240 294 348 405
#     4  10  24  38  68 106 126 166 218 278 322 416
#     4  12  21  48  63 100 137 187 234 285 357 405
#     4  10  22  43  69  93 133 179 220 264 352 405
#
# _framework density 18.956630000000001
#
# number of rings (size 3 to 8) (size 9 to 14) (size 15 to 20)
#    0.857    0.000    2.857    5.143    4.000    0.000 
#    0.000    0.000    0.000    4.571    0.000    0.000 
#    0.000    0.000    0.000    0.000    0.000    0.000 
#
# Total GULP energy -234664.757033 kJ/mol
# GULP energy per Si atom -5587.256120 kJ/mol
# Density = 1.891348 g / cm^3
# Si number density = 18.956630 Si / 1000 Ang^3
#
#
#
# Elastic Constant Matrix: (Units=GPa)
#
#
# Indices 1 2 3 4 5 6 
#
# 1 69.8194 -19.3724 44.1932 0.0000 0.0000 0.0012
# 2 -19.3724 69.8198 44.1946 0.0000 0.0000 -0.0010
# 3 44.1932 44.1946 159.0194 0.0000 0.0000 0.0000
# 4 0.0000 0.0000 0.0000 72.0303 0.0070 0.0000
# 5 0.0000 0.0000 0.0000 0.0070 72.0331 0.0000
# 6 0.0012 -0.0010 0.0000 0.0000 0.0000 44.5953
#
#
#
# Elastic Compliance Matrix: (Units=1/GPa)
#
#
# Indices 1 2 3 4 5 6 
#
# 1 0.024924 0.013712 -0.010737 0.000000 0.000000 0.000000
# 2 0.013712 0.024924 -0.010738 0.000000 0.000000 0.000000
# 3 -0.010737 -0.010738 0.012257 0.000000 0.000000 0.000000
# 4 0.000000 0.000000 0.000000 0.013883 -0.000001 0.000000
# 5 0.000000 0.000000 0.000000 -0.000001 0.013883 0.000000
# 6 0.000000 0.000000 0.000000 0.000000 0.000000 0.022424
#
#
# Mechanical properties :
#
#
# Convention : Reuss Voigt Hill
#
# Bulk Modulus (GPa) = 21.46923 48.52105 34.99514
# Shear Modulus (GPa) = 34.88074 53.04128 43.96101
#
# Velocity S-wave (km/s) = 4.29421 5.29538 4.82086
# Velocity P-wave (km/s) = 5.99475 7.93974 7.03479
#
# Compressibility (1/GPa) = 0.04657828
#
# Stress axis : x y z
#
# Youngs Moduli (GPa) = 40.12261 40.12228 81.58776
#
# Poissons Ratio (x) = -0.55015 0.87604
# Poissons Ratio (y) = -0.55016 0.87605
# Poissons Ratio (z) = 0.43081 0.43081
#
# Static dielectric constant tensor:
#      x y z
#    x 1.654730 0.000000 0.000000 
#    y 0.000000 1.654720 0.000000 
#    z 0.000000 0.000000 1.611510 
# 
# From -- ./inp_files/4421.got.cif
#   From: 2010.05.17/outbox.cif.g08.bks.cpg/sg176_3_cif.got.tgz:4421.got - 2010.06.03 11:36:45.
