data_PCOD9582913
_publ_section_title
;
Structure prediction by ZEFSAII (Michael W. Deem and Ramdas Pophale) SiO2 
 PCOD9582913
Probable space group: P 61 2 2
;
_chemical_formula_sum "Si O2"
_cell_formula_units_Z 36
_cell_length_a 10.759450
_cell_length_b 10.759450
_cell_length_c 13.926166
_cell_angle_alpha 90.000000
_cell_angle_beta 90.000000
_cell_angle_gamma 120.000000
_cell_volume 1396.182990
_symmetry_space_group_name_H-M "P 61 2 2"
_symmetry_group_IT_number 178
_symmetry_cell_setting 'hexagonal'
loop_
_space_group_symop_operation_xyz
x,y,z
x-y,x,1/6+z
-y,x-y,1/3+z
-x,-y,1/2+z
-x+y,-x,2/3+z
y,-x+y,5/6+z
x-y,-y,-z
-x,-x+y,2/3-z
y,x,1/3-z
-y,-x,5/6-z
-x+y,y,1/2-z
x,x-y,1/6-z
loop_
_atom_site_type_symbol
_atom_site_label
_atom_site_fract_x
_atom_site_fract_y
_atom_site_fract_z
Si Si1 0.471041 0.784048 0.476510
Si Si2 0.314330 0.912068 0.595213
Si Si3 0.343807 0.983982 0.193966
O O1 0.349952 0.650049 0.416667
O O2 0.380150 0.566183 0.609768
O O3 0.599243 0.749548 0.496264
O O4 0.543821 0.917426 0.402478
O O5 0.391866 0.994428 0.693787
O O6 0.326410 0.000000 0.500000
O O7 0.146566 0.818099 0.622072
#
# Coordination Sequence:
#
# PCOD9582913 Si02
#       3
#    12  12  12
#     4  11  24  48  74 112 159 213 271 352 445 521
#     4  11  24  49  78 115 161 218 289 363 445 549
#     4  10  25  48  74 114 161 213 283 361 444 530
#
# _framework density 25.784583999999999
#
# number of rings (size 3 to 8) (size 9 to 14) (size 15 to 20)
#    0.000    1.333    0.000    4.000    0.000   12.000 
#   42.000    0.000    0.000   88.000    0.000    0.000 
#    0.000    0.000    0.000    0.000    0.000    0.000 
#
# Total GULP energy -200601.628149 kJ/mol
# GULP energy per Si atom -5572.267449 kJ/mol
# Density = 2.572590 g / cm^3
# Si number density = 25.784584 Si / 1000 Ang^3
#
#
#
# Elastic Constant Matrix: (Units=GPa)
#
#
# Indices 1 2 3 4 5 6 
#
# 1 114.4565 57.9144 42.9035 0.0000 0.0000 0.0000
# 2 57.9144 114.4565 42.9035 0.0000 0.0000 0.0000
# 3 42.9035 42.9035 225.6259 0.0000 0.0000 0.0000
# 4 0.0000 0.0000 0.0000 64.1803 0.0000 0.0000
# 5 0.0000 0.0000 0.0000 0.0000 64.1803 0.0000
# 6 0.0000 0.0000 0.0000 0.0000 0.0000 28.2710
#
#
#
# Elastic Compliance Matrix: (Units=1/GPa)
#
#
# Indices 1 2 3 4 5 6 
#
# 1 0.012047 -0.005639 -0.001219 0.000000 0.000000 0.000000
# 2 -0.005639 0.012047 -0.001219 0.000000 0.000000 0.000000
# 3 -0.001219 -0.001219 0.004896 0.000000 0.000000 0.000000
# 4 0.000000 0.000000 0.000000 0.015581 0.000000 0.000000
# 5 0.000000 0.000000 0.000000 0.000000 0.015581 0.000000
# 6 0.000000 0.000000 0.000000 0.000000 0.000000 0.035372
#
#
# Mechanical properties :
#
#
# Convention : Reuss Voigt Hill
#
# Bulk Modulus (GPa) = 77.89653 82.44239 80.16946
# Shear Modulus (GPa) = 43.12028 52.04750 47.58389
#
# Velocity S-wave (km/s) = 4.09385 4.49770 4.30052
# Velocity P-wave (km/s) = 7.25412 7.68215 7.47120
#
# Compressibility (1/GPa) = 0.01283754
#
# Stress axis : x y z
#
# Youngs Moduli (GPa) = 83.00830 83.00830 204.26837
#
# Poissons Ratio (x) = 0.46808 0.24890
# Poissons Ratio (y) = 0.46808 0.24890
# Poissons Ratio (z) = 0.10115 0.10115
#
# Static dielectric constant tensor:
#      x y z
#    x 2.152360 0.000000 0.000000 
#    y 0.000000 2.152360 0.000000 
#    z 0.000000 0.000000 2.402840 
# 
# From -- ./inp_files/6263.got.cif
#   From: 2010.05.17/outbox.cif.g08.bks.cpg/sg178_4_cif.got.tgz:6263.got - 2010.05.20 11:30:59.
