data_PCOD9582018
_publ_section_title
;
Structure prediction by ZEFSAII (Michael W. Deem and Ramdas Pophale) SiO2 
 PCOD9582018
Probable space group: P 63/M
;
_chemical_formula_sum "Si O2"
_cell_formula_units_Z 52
_cell_length_a 11.639808
_cell_length_b 11.639808
_cell_length_c 22.563565
_cell_angle_alpha 90.000000
_cell_angle_beta 90.000000
_cell_angle_gamma 120.000000
_cell_volume 2647.463513
_symmetry_space_group_name_H-M "P 63/M"
_symmetry_group_IT_number 176
_symmetry_cell_setting 'hexagonal'
loop_
_space_group_symop_operation_xyz
x,y,z
x-y,x,1/2+z
-y,x-y,z
-x,-y,1/2+z
-x+y,-x,z
y,-x+y,1/2+z
-x,-y,-z
-x+y,-x,1/2-z
y,-x+y,-z
x,y,1/2-z
x-y,x,-z
-y,x-y,1/2-z
loop_
_atom_site_type_symbol
_atom_site_label
_atom_site_fract_x
_atom_site_fract_y
_atom_site_fract_z
Si Si1 0.929420 0.358335 0.680272
Si Si2 0.594695 0.692165 0.126190
Si Si3 0.884633 0.688640 0.499556
Si Si4 0.618382 0.810344 0.631385
Si Si5 0.333335 0.666668 0.820027
O O1 0.933641 0.387723 0.750000
O O2 0.932692 0.478206 0.642986
O O3 0.796319 0.224308 0.663005
O O4 0.054049 0.340044 0.663515
O O5 0.601195 0.726134 0.056356
O O6 0.738303 0.706675 0.139379
O O7 0.798031 0.759640 0.510804
O O8 0.830470 0.609954 0.438462
O O9 0.475959 0.772262 0.656437
O O10 0.333334 0.666668 0.750000
#
# Coordination Sequence:
#
# PCOD9582018 Si02
#       5
#    12  12  12  12   4
#     4  12  25  43  66  96 137 179 222 276 335 401
#     4  11  25  44  69 100 132 178 228 274 340 402
#     4  10  21  41  68  99 138 174 221 279 340 402
#     4  11  24  42  69  99 129 177 223 280 337 402
#     4  12  24  42  66  93 135 177 223 284 337 399
#
# _framework density 19.641439999999999
#
# number of rings (size 3 to 8) (size 9 to 14) (size 15 to 20)
#    0.000    0.923    4.615    2.077    0.000    5.538 
#    1.385    0.000    0.000    0.000    0.000    0.000 
#    0.000    0.000    0.000    0.000    0.000    0.000 
#
# Total GULP energy -290580.860168 kJ/mol
# GULP energy per Si atom -5588.093465 kJ/mol
# Density = 1.959674 g / cm^3
# Si number density = 19.641440 Si / 1000 Ang^3
#
#
#
# Elastic Constant Matrix: (Units=GPa)
#
#
# Indices 1 2 3 4 5 6 
#
# 1 88.8668 25.6636 45.3218 0.0000 0.0000 0.0002
# 2 25.6636 88.8677 45.3227 0.0000 0.0000 0.0002
# 3 45.3218 45.3227 144.1685 0.0000 0.0000 0.0006
# 4 0.0000 0.0000 0.0000 24.1513 -0.0005 0.0000
# 5 0.0000 0.0000 0.0000 -0.0005 24.1505 0.0000
# 6 0.0002 0.0002 0.0006 0.0000 0.0000 31.6011
#
#
#
# Elastic Compliance Matrix: (Units=1/GPa)
#
#
# Indices 1 2 3 4 5 6 
#
# 1 0.013723 -0.002099 -0.003654 0.000000 0.000000 0.000000
# 2 -0.002099 0.013722 -0.003654 0.000000 0.000000 0.000000
# 3 -0.003654 -0.003654 0.009234 0.000000 0.000000 0.000000
# 4 0.000000 0.000000 0.000000 0.041406 0.000001 0.000000
# 5 0.000000 0.000000 0.000000 0.000001 0.041407 0.000000
# 6 0.000000 0.000000 0.000000 0.000000 0.000000 0.031644
#
#
# Mechanical properties :
#
#
# Convention : Reuss Voigt Hill
#
# Bulk Modulus (GPa) = 55.97794 61.61325 58.79559
# Shear Modulus (GPa) = 28.42439 29.68690 29.05565
#
# Velocity S-wave (km/s) = 3.80829 3.89194 3.85034
# Velocity P-wave (km/s) = 6.92092 7.18564 7.05452
#
# Compressibility (1/GPa) = 0.01786418
#
# Stress axis : x y z
#
# Youngs Moduli (GPa) = 72.87265 72.87305 108.29858
#
# Poissons Ratio (x) = 0.15299 0.39572
# Poissons Ratio (y) = 0.15298 0.39572
# Poissons Ratio (z) = 0.26627 0.26628
#
# Static dielectric constant tensor:
#      x y z
#    x 1.757030 -0.000050 0.000000 
#    y -0.000050 1.756920 0.000000 
#    z 0.000000 0.000000 1.668590 
# 
# From -- ./inp_files/3693.got.cif
#   From: 2010.05.17/outbox.cif.g08.bks.cpg/sg176_2_cif.got.tgz:3693.got - 2010.06.03 11:36:45.
