data_PCOD9582323
_publ_section_title
;
Structure prediction by ZEFSAII (Michael W. Deem and Ramdas Pophale) SiO2 
 PCOD9582323
Probable space group: P 6 2 2
;
_chemical_formula_sum "Si O2"
_cell_formula_units_Z 90
_cell_length_a 21.000000
_cell_length_b 21.000000
_cell_length_c 15.000000
_cell_angle_alpha 90.000000
_cell_angle_beta 90.000000
_cell_angle_gamma 120.000000
_cell_volume 5728.758046
_symmetry_space_group_name_H-M "P 6 2 2"
_symmetry_group_IT_number 177
_symmetry_cell_setting 'hexagonal'
loop_
_space_group_symop_operation_xyz
x,y,z
x-y,x,z
-y,x-y,z
-x,-y,z
-x+y,-x,z
y,-x+y,z
x-y,-y,-z
-x,-x+y,-z
y,x,-z
-y,-x,-z
-x+y,y,-z
x,x-y,-z
loop_
_atom_site_type_symbol
_atom_site_label
_atom_site_fract_x
_atom_site_fract_y
_atom_site_fract_z
Si Si1 0.318461 0.085916 0.323495
Si Si2 0.849853 0.548258 0.809596
Si Si3 0.681539 0.767455 0.323495
Si Si4 0.914206 0.457103 0.711242
Si Si5 0.443707 0.556294 0.500000
Si Si6 0.301595 0.849853 0.190404
Si Si7 0.532537 0.621134 0.000000
Si Si8 0.913026 0.318659 0.500000
O O1 0.371903 0.105579 0.237844
O O2 0.292240 0.146120 0.327155
O O3 0.368210 0.097166 0.411706
O O4 0.256643 0.000000 0.321953
O O5 0.871718 0.497386 0.750210
O O6 0.763931 0.527862 0.807973
O O7 0.876416 0.545284 0.910108
O O8 0.628097 0.733676 0.237844
O O9 0.631790 0.728956 0.411706
O O10 0.917194 0.458598 0.603219
O O11 0.871718 0.374333 0.750210
O O12 0.000000 0.500000 0.742685
O O13 0.356345 0.494111 0.500000
O O14 0.331132 0.876416 0.089892
O O15 0.586247 0.586247 0.000000
O O16 0.449190 0.550810 0.000000
O O17 0.000000 0.383743 0.500000
#
# Coordination Sequence:
#
# PCOD9582323 Si02
#       8
#    12  12  12  12   6  12  12  12
#     4  10  20  34  53  78 108 138 172 219 270 323
#     4  11  23  37  54  81 112 142 179 226 280 326
#     4  10  20  34  53  78 108 138 172 219 270 323
#     4  12  21  37  60  83 107 146 197 237 272 331
#     4  12  21  30  56  86 112 142 186 236 274 312
#     4  11  23  37  54  81 112 142 179 226 280 326
#     4  11  21  36  60  84 101 134 187 235 270 317
#     4  10  18  29  48  77 105 135 173 217 265 310
#
# _framework density 15.710210999999999
#
# number of rings (size 3 to 8) (size 9 to 14) (size 15 to 20)
#    0.000    1.200    4.000    4.400    0.000    0.000 
#    0.800    0.667    0.000    0.267    0.000    0.000 
#    0.000    3.200    0.000    0.000    0.000   27.733 
#
# Total GULP energy -501504.454402 kJ/mol
# GULP energy per Si atom -5572.271716 kJ/mol
# Density = 1.567445 g / cm^3
# Si number density = 15.710211 Si / 1000 Ang^3
#
#
#
# Elastic Constant Matrix: (Units=GPa)
#
#
# Indices 1 2 3 4 5 6 
#
# 1 115.4744 65.7709 41.2833 0.0000 0.0000 0.0000
# 2 65.7709 115.4744 41.2833 0.0000 0.0000 0.0000
# 3 41.2833 41.2833 134.8040 0.0000 0.0000 0.0000
# 4 0.0000 0.0000 0.0000 24.3596 0.0000 0.0000
# 5 0.0000 0.0000 0.0000 0.0000 24.3596 0.0000
# 6 0.0000 0.0000 0.0000 0.0000 0.0000 24.8517
#
#
#
# Elastic Compliance Matrix: (Units=1/GPa)
#
#
# Indices 1 2 3 4 5 6 
#
# 1 0.013266 -0.006854 -0.001964 0.000000 0.000000 0.000000
# 2 -0.006854 0.013266 -0.001964 0.000000 0.000000 0.000000
# 3 -0.001964 -0.001964 0.008621 0.000000 0.000000 0.000000
# 4 0.000000 0.000000 0.000000 0.041051 0.000000 0.000000
# 5 0.000000 0.000000 0.000000 0.000000 0.041051 0.000000
# 6 0.000000 0.000000 0.000000 0.000000 0.000000 0.040239
#
#
# Mechanical properties :
#
#
# Convention : Reuss Voigt Hill
#
# Bulk Modulus (GPa) = 73.58241 73.60310 73.59275
# Shear Modulus (GPa) = 27.23522 29.20855 28.22188
#
# Velocity S-wave (km/s) = 4.16817 4.31653 4.24300
# Velocity P-wave (km/s) = 8.37280 8.47322 8.42316
#
# Compressibility (1/GPa) = 0.01359021
#
# Stress axis : x y z
#
# Youngs Moduli (GPa) = 75.38279 75.38279 115.99734
#
# Poissons Ratio (x) = 0.51665 0.22778
# Poissons Ratio (y) = 0.51665 0.22778
# Poissons Ratio (z) = 0.14802 0.14802
#
# Static dielectric constant tensor:
#      x y z
#    x 1.526490 0.000000 0.000000 
#    y 0.000000 1.526490 0.000000 
#    z 0.000000 0.000000 1.529730 
# 
# From -- ./inp_files/2695.got.cif
#   From: 2010.05.17/outbox.ucp.g08.bks.cvg/sg177_2_cif.got.tgz:2695.got - 2010.06.11 15:19:11.
