data_PCOD9582463
_publ_section_title
;
Structure prediction by ZEFSAII (Michael W. Deem and Ramdas Pophale) SiO2 
 PCOD9582463
Probable space group: P 61 2 2
;
_chemical_formula_sum "Si O2"
_cell_formula_units_Z 66
_cell_length_a 11.364126
_cell_length_b 11.364126
_cell_length_c 26.223861
_cell_angle_alpha 90.000000
_cell_angle_beta 90.000000
_cell_angle_gamma 120.000000
_cell_volume 2932.914121
_symmetry_space_group_name_H-M "P 61 2 2"
_symmetry_group_IT_number 178
_symmetry_cell_setting 'hexagonal'
loop_
_space_group_symop_operation_xyz
x,y,z
x-y,x,1/6+z
-y,x-y,1/3+z
-x,-y,1/2+z
-x+y,-x,2/3+z
y,-x+y,5/6+z
x-y,-y,-z
-x,-x+y,2/3-z
y,x,1/3-z
-y,-x,5/6-z
-x+y,y,1/2-z
x,x-y,1/6-z
loop_
_atom_site_type_symbol
_atom_site_label
_atom_site_fract_x
_atom_site_fract_y
_atom_site_fract_z
Si Si1 0.552837 0.478246 0.066817
Si Si2 0.248092 0.557191 0.135264
Si Si3 0.902665 0.747536 0.651611
Si Si4 0.239310 0.377738 0.924219
Si Si5 0.384985 0.546358 0.833492
Si Si6 0.382360 0.191180 0.083334
O O1 0.706265 0.585354 0.080950
O O2 0.479373 0.345412 0.102746
O O3 0.556234 0.407611 0.013174
O O4 0.473757 0.555533 0.052186
O O5 0.211775 0.605888 0.083334
O O6 0.210462 0.400897 0.130165
O O7 0.392785 0.681428 0.152689
O O8 0.845306 0.845306 0.666667
O O9 0.921980 0.708197 0.709031
O O10 0.031658 0.797792 0.615196
O O11 0.310454 0.412603 0.868805
O O12 0.345568 0.491031 0.964203
#
# Coordination Sequence:
#
# PCOD9582463 Si02
#       6
#    12  12  12  12  12   6
#     4  10  19  33  56  77 112 148 184 233 274 338
#     4  10  20  34  52  85 114 146 187 231 285 336
#     4  11  23  34  54  83 118 146 177 241 289 339
#     4  10  19  35  53  81 110 144 194 224 280 343
#     4  10  19  34  58  78 109 152 189 231 274 343
#     4  10  20  36  48  84 114 144 182 228 296 326
#
# _framework density 22.503218
#
# number of rings (size 3 to 8) (size 9 to 14) (size 15 to 20)
#    0.000    1.818    3.636    4.364    2.545    1.455 
#    0.000    0.000    0.000    1.091    2.364    0.000 
#    0.000    0.000    0.000    0.000    0.000    0.000 
#
# Total GULP energy -367829.743885 kJ/mol
# GULP energy per Si atom -5573.177938 kJ/mol
# Density = 2.245200 g / cm^3
# Si number density = 22.503218 Si / 1000 Ang^3
#
#
#
# Elastic Constant Matrix: (Units=GPa)
#
#
# Indices 1 2 3 4 5 6 
#
# 1 61.2158 30.1956 -10.7001 0.0000 0.0000 0.0000
# 2 30.1956 61.2158 -10.7001 0.0000 0.0000 0.0000
# 3 -10.7001 -10.7001 32.9733 0.0000 0.0000 0.0000
# 4 0.0000 0.0000 0.0000 26.8230 0.0000 0.0000
# 5 0.0000 0.0000 0.0000 0.0000 26.8230 0.0000
# 6 0.0000 0.0000 0.0000 0.0000 0.0000 15.5101
#
#
#
# Elastic Compliance Matrix: (Units=1/GPa)
#
#
# Indices 1 2 3 4 5 6 
#
# 1 0.022038 -0.010199 0.003842 0.000000 0.000000 0.000000
# 2 -0.010199 0.022038 0.003842 0.000000 0.000000 0.000000
# 3 0.003842 0.003842 0.032821 0.000000 0.000000 0.000000
# 4 0.000000 0.000000 0.000000 0.037281 0.000000 0.000000
# 5 0.000000 0.000000 0.000000 0.000000 0.037281 0.000000
# 6 0.000000 0.000000 0.000000 0.000000 0.000000 0.064474
#
#
# Mechanical properties :
#
#
# Convention : Reuss Voigt Hill
#
# Bulk Modulus (GPa) = 13.91473 19.22175 16.56824
# Shear Modulus (GPa) = 20.41483 23.60520 22.01002
#
# Velocity S-wave (km/s) = 3.01524 3.24229 3.13082
# Velocity P-wave (km/s) = 4.28008 4.75152 4.52195
#
# Compressibility (1/GPa) = 0.07186626
#
# Stress axis : x y z
#
# Youngs Moduli (GPa) = 45.37618 45.37618 30.46831
#
# Poissons Ratio (x) = 0.46279 -0.11705
# Poissons Ratio (y) = 0.46279 -0.11705
# Poissons Ratio (z) = -0.17433 -0.17433
#
# Static dielectric constant tensor:
#      x y z
#    x 1.890640 0.000000 0.000000 
#    y 0.000000 1.890640 0.000000 
#    z 0.000000 0.000000 1.911780 
# 
# From -- ./inp_files/9532.got.cif
#   From: 2010.05.17/outbox.cif.g08.bks.cpg/sg178_5_cif.got.tgz:9532.got - 2010.05.20 11:30:59.
