data_PCOD9582624
_publ_section_title
;
Structure prediction by ZEFSAII (Michael W. Deem and Ramdas Pophale) SiO2 
 PCOD9582624
Probable space group: P 61 2 2
;
_chemical_formula_sum "Si O2"
_cell_formula_units_Z 78
_cell_length_a 17.337989
_cell_length_b 17.337989
_cell_length_c 14.255135
_cell_angle_alpha 90.000000
_cell_angle_beta 90.000000
_cell_angle_gamma 120.000000
_cell_volume 3711.072274
_symmetry_space_group_name_H-M "P 61 2 2"
_symmetry_group_IT_number 178
_symmetry_cell_setting 'hexagonal'
loop_
_space_group_symop_operation_xyz
x,y,z
x-y,x,1/6+z
-y,x-y,1/3+z
-x,-y,1/2+z
-x+y,-x,2/3+z
y,-x+y,5/6+z
x-y,-y,-z
-x,-x+y,2/3-z
y,x,1/3-z
-y,-x,5/6-z
-x+y,y,1/2-z
x,x-y,1/6-z
loop_
_atom_site_type_symbol
_atom_site_label
_atom_site_fract_x
_atom_site_fract_y
_atom_site_fract_z
Si Si1 0.254050 0.820867 0.517769
Si Si2 0.540865 0.817289 0.372375
Si Si3 0.460179 0.565561 0.654430
Si Si4 0.025857 0.763180 0.727204
Si Si5 0.137187 0.718652 0.986068
Si Si6 0.952275 0.086495 0.694547
Si Si7 0.000000 0.759941 0.333334
O O1 0.222284 0.777717 0.416667
O O2 0.196874 0.746194 0.595978
O O3 0.356638 0.850519 0.532760
O O4 0.246163 0.910777 0.515929
O O5 0.473801 0.844119 0.421886
O O6 0.635418 0.899689 0.401982
O O7 0.537751 0.731626 0.421118
O O8 0.501985 0.501985 0.666667
O O9 0.516535 0.628725 0.568171
O O10 0.065333 0.856994 0.677574
O O11 0.000000 0.771688 0.833334
O O12 0.944906 0.681631 0.671969
O O13 0.205203 0.794798 0.916667
O O14 0.011930 0.087302 0.608441
O O15 0.002333 0.183353 0.744108
#
# Coordination Sequence:
#
# PCOD9582624 Si02
#       7
#    12  12  12  12  12  12   6
#     4  12  28  48  74 103 140 192 241 286 360 442
#     4  11  23  44  73 103 141 185 230 296 357 420
#     4  11  22  48  74 106 144 177 235 303 354 429
#     4  12  21  41  73 106 137 181 242 300 348 409
#     4  10  20  39  70 106 141 175 229 294 362 417
#     4  12  28  48  68 100 147 191 237 297 358 422
#     4  12  26  52  72  94 142 194 242 292 348 436
#
# _framework density 21.018184999999999
#
# number of rings (size 3 to 8) (size 9 to 14) (size 15 to 20)
#    0.000    0.615    6.923    2.308    0.000    1.231 
#   15.231    1.538    0.000    0.000    0.000    0.000 
#    0.000    0.000    0.000    0.000    0.000    0.000 
#
# Total GULP energy -435831.995134 kJ/mol
# GULP energy per Si atom -5587.589681 kJ/mol
# Density = 2.097035 g / cm^3
# Si number density = 21.018185 Si / 1000 Ang^3
#
#
#
# Elastic Constant Matrix: (Units=GPa)
#
#
# Indices 1 2 3 4 5 6 
#
# 1 47.4831 20.5759 -3.9014 0.0000 0.0000 0.0000
# 2 20.5759 47.4831 -3.9014 0.0000 0.0000 0.0000
# 3 -3.9014 -3.9014 91.3597 0.0000 0.0000 0.0000
# 4 0.0000 0.0000 0.0000 0.3730 0.0000 0.0000
# 5 0.0000 0.0000 0.0000 0.0000 0.3730 0.0000
# 6 0.0000 0.0000 0.0000 0.0000 0.0000 13.4536
#
#
#
# Elastic Compliance Matrix: (Units=1/GPa)
#
#
# Indices 1 2 3 4 5 6 
#
# 1 0.025965 -0.011200 0.000631 0.000000 0.000000 0.000000
# 2 -0.011200 0.025965 0.000631 0.000000 0.000000 0.000000
# 3 0.000631 0.000631 0.011000 0.000000 0.000000 0.000000
# 4 0.000000 0.000000 0.000000 2.681173 0.000000 0.000000
# 5 0.000000 0.000000 0.000000 0.000000 2.681173 0.000000
# 6 0.000000 0.000000 0.000000 0.000000 0.000000 0.074330
#
#
# Mechanical properties :
#
#
# Convention : Reuss Voigt Hill
#
# Bulk Modulus (GPa) = 23.22741 23.54136 23.38438
# Shear Modulus (GPa) = 0.90353 14.41009 7.65681
#
# Velocity S-wave (km/s) = 0.65636 2.62124 1.91072
# Velocity P-wave (km/s) = 3.41314 4.51508 4.00222
#
# Compressibility (1/GPa) = 0.04305258
#
# Stress axis : x y z
#
# Youngs Moduli (GPa) = 38.51321 38.51321 90.91245
#
# Poissons Ratio (x) = 0.43134 -0.05732
# Poissons Ratio (y) = 0.43134 -0.05732
# Poissons Ratio (z) = -0.02428 -0.02428
#
# Static dielectric constant tensor:
#      x y z
#    x 1.775100 0.000000 0.000000 
#    y 0.000000 1.775100 0.000000 
#    z 0.000000 0.000000 1.828860 
# 
# From -- ./inp_files/5987.got.cif
#   From: 2010.05.17/outbox.cif.g08.bks.cpg/sg178_3_cif.got.tgz:5987.got - 2010.05.20 11:30:59.
