data_PCOD9582318
_publ_section_title
;
Structure prediction by ZEFSAII (Michael W. Deem and Ramdas Pophale) SiO2 
 PCOD9582318
Probable space group: P 6 2 2
;
_chemical_formula_sum "Si O2"
_cell_formula_units_Z 58
_cell_length_a 14.046318
_cell_length_b 14.046318
_cell_length_c 15.429170
_cell_angle_alpha 90.000000
_cell_angle_beta 90.000000
_cell_angle_gamma 120.000000
_cell_volume 2636.320390
_symmetry_space_group_name_H-M "P 6 2 2"
_symmetry_group_IT_number 177
_symmetry_cell_setting 'hexagonal'
loop_
_space_group_symop_operation_xyz
x,y,z
x-y,x,z
-y,x-y,z
-x,-y,z
-x+y,-x,z
y,-x+y,z
x-y,-y,-z
-x,-x+y,-z
y,x,-z
-y,-x,-z
-x+y,y,-z
x,x-y,-z
loop_
_atom_site_type_symbol
_atom_site_label
_atom_site_fract_x
_atom_site_fract_y
_atom_site_fract_z
Si Si1 0.489016 0.601525 0.160414
Si Si2 0.666668 0.333335 0.897771
Si Si3 0.747714 0.921462 0.134586
Si Si4 0.000000 0.647977 0.000000
Si Si5 0.017066 0.395001 0.602704
Si Si6 0.204343 0.386899 0.703192
O O1 0.500000 0.500000 0.195096
O O2 0.370634 0.582411 0.136249
O O3 0.536368 0.700271 0.228632
O O4 0.555880 0.628373 0.070337
O O5 0.666668 0.333334 0.000000
O O6 0.795903 0.841966 0.122410
O O7 0.697347 0.890439 0.230701
O O8 0.665037 0.916764 0.061421
O O9 0.925079 0.278789 0.644860
O O10 0.000000 0.500000 0.618288
O O11 0.000000 0.373600 0.500000
O O12 0.136823 0.425241 0.641384
#
# Coordination Sequence:
#
# PCOD9582318 Si02
#       6
#    12   4  12   6  12  12
#     4  12  29  47  72 104 152 203 262 324 381 449
#     4  12  30  42  72 108 142 209 271 309 375 450
#     4  12  25  42  69 101 147 200 253 308 366 448
#     4  12  25  46  69  98 154 208 254 317 381 428
#     4  11  26  51  81 114 155 200 254 327 405 489
#     4  12  25  46  78 109 148 198 252 315 394 465
#
# _framework density 22.000363
#
# number of rings (size 3 to 8) (size 9 to 14) (size 15 to 20)
#    0.000    0.207    4.138    3.621   11.586    0.000 
#    1.241    1.034    0.000    0.000    0.000    2.897 
#    0.000    0.000    0.000    0.000    0.000    0.000 
#
# Total GULP energy -323875.776313 kJ/mol
# GULP energy per Si atom -5584.065109 kJ/mol
# Density = 2.195029 g / cm^3
# Si number density = 22.000363 Si / 1000 Ang^3
#
#
#
# Elastic Constant Matrix: (Units=GPa)
#
#
# Indices 1 2 3 4 5 6 
#
# 1 131.4028 66.6333 66.0414 -0.0002 0.0001 0.0003
# 2 66.6333 131.4031 66.0420 0.0000 -0.0001 0.0002
# 3 66.0414 66.0420 177.6882 -0.0001 -0.0001 0.0003
# 4 -0.0002 0.0000 -0.0001 33.9306 0.0001 0.0001
# 5 0.0001 -0.0001 -0.0001 0.0001 33.9306 0.0001
# 6 0.0003 0.0002 0.0003 0.0001 0.0001 32.3858
#
#
#
# Elastic Compliance Matrix: (Units=1/GPa)
#
#
# Indices 1 2 3 4 5 6 
#
# 1 0.011077 -0.004363 -0.002495 0.000000 0.000000 0.000000
# 2 -0.004363 0.011077 -0.002495 0.000000 0.000000 0.000000
# 3 -0.002495 -0.002495 0.007483 0.000000 0.000000 0.000000
# 4 0.000000 0.000000 0.000000 0.029472 0.000000 0.000000
# 5 0.000000 0.000000 0.000000 0.000000 0.029472 0.000000
# 6 0.000000 0.000000 0.000000 0.000000 0.000000 0.030878
#
#
# Mechanical properties :
#
#
# Convention : Reuss Voigt Hill
#
# Bulk Modulus (GPa) = 91.49895 93.10306 92.30100
# Shear Modulus (GPa) = 35.25906 36.16788 35.71347
#
# Velocity S-wave (km/s) = 4.00766 4.05899 4.03341
# Velocity P-wave (km/s) = 7.94325 8.02358 7.98352
#
# Compressibility (1/GPa) = 0.01092909
#
# Stress axis : x y z
#
# Youngs Moduli (GPa) = 90.28032 90.28023 133.64061
#
# Poissons Ratio (x) = 0.39387 0.33348
# Poissons Ratio (y) = 0.39387 0.33349
# Poissons Ratio (z) = 0.22528 0.22529
#
# Static dielectric constant tensor:
#      x y z
#    x 1.885040 0.000000 0.000000 
#    y 0.000000 1.885050 0.000000 
#    z 0.000000 0.000000 1.950170 
# 
# From -- ./inp_files/2458.got.cif
#   From: 2010.05.17/outbox.cif.g08.bks.cpg/sg177_2_cif.got.tgz:2458.got - 2010.05.20 11:28:44.
