data_PCOD9582625
_publ_section_title
;
Structure prediction by ZEFSAII (Michael W. Deem and Ramdas Pophale) SiO2 
 PCOD9582625
Probable space group: P 61 2 2
;
_chemical_formula_sum "Si O2"
_cell_formula_units_Z 84
_cell_length_a 16.450124
_cell_length_b 16.450124
_cell_length_c 15.168585
_cell_angle_alpha 90.000000
_cell_angle_beta 90.000000
_cell_angle_gamma 120.000000
_cell_volume 3554.790847
_symmetry_space_group_name_H-M "P 61 2 2"
_symmetry_group_IT_number 178
_symmetry_cell_setting 'hexagonal'
loop_
_space_group_symop_operation_xyz
x,y,z
x-y,x,1/6+z
-y,x-y,1/3+z
-x,-y,1/2+z
-x+y,-x,2/3+z
y,-x+y,5/6+z
x-y,-y,-z
-x,-x+y,2/3-z
y,x,1/3-z
-y,-x,5/6-z
-x+y,y,1/2-z
x,x-y,1/6-z
loop_
_atom_site_type_symbol
_atom_site_label
_atom_site_fract_x
_atom_site_fract_y
_atom_site_fract_z
Si Si1 0.939406 0.335573 0.202919
Si Si2 0.241067 0.133271 0.275307
Si Si3 0.241812 0.032746 0.598005
Si Si4 0.202781 0.101391 0.083334
Si Si5 0.143576 0.473348 0.277179
Si Si6 0.544825 0.772413 0.083334
Si Si7 0.467049 0.373821 0.726964
Si Si8 0.921907 0.570221 0.156531
O O1 0.911973 0.229328 0.182039
O O2 0.879301 0.333799 0.285655
O O3 0.922749 0.372031 0.111861
O O4 0.048344 0.393100 0.230368
O O5 0.264336 0.138149 0.171541
O O6 0.145917 0.137650 0.269293
O O7 0.229706 0.047620 0.332452
O O8 0.197607 0.098803 0.583334
O O9 0.345875 0.097736 0.638165
O O10 0.248856 0.000000 0.500000
O O11 0.235945 0.471889 0.250000
O O12 0.146964 0.570147 0.254472
O O13 0.561385 0.723548 0.178672
O O14 0.492995 0.827264 0.129541
O O15 0.439753 0.439753 0.666667
O O16 0.411233 0.380305 0.812399
#
# Coordination Sequence:
#
# PCOD9582625 Si02
#       8
#    12  12  12   6  12   6  12  12
#     4  11  25  41  69 103 137 184 246 296 371 435
#     4  11  24  37  62  85 128 179 236 295 359 405
#     4  12  24  41  59  93 136 181 240 297 349 429
#     4  10  20  40  52  81 116 174 230 282 351 400
#     4  11  25  47  74 106 146 188 241 317 375 456
#     4  10  22  44  74 101 138 196 234 296 379 452
#     4  10  22  47  73 102 147 185 239 306 385 454
#     4  11  24  41  72 101 138 189 243 299 363 450
#
# _framework density 23.630082000000002
#
# number of rings (size 3 to 8) (size 9 to 14) (size 15 to 20)
#    0.000    1.143    2.143    5.571    8.000    0.571 
#    9.000    2.857    0.000    0.000    0.000    0.000 
#    0.000    0.000    0.000    0.000    0.000    0.000 
#
# Total GULP energy -467962.961408 kJ/mol
# GULP energy per Si atom -5570.987636 kJ/mol
# Density = 2.357630 g / cm^3
# Si number density = 23.630082 Si / 1000 Ang^3
#
#
#
# Elastic Constant Matrix: (Units=GPa)
#
#
# Indices 1 2 3 4 5 6 
#
# 1 99.5762 55.4137 24.8150 0.0000 0.0000 0.0000
# 2 55.4137 99.5762 24.8150 0.0000 0.0000 0.0000
# 3 24.8150 24.8150 138.0917 0.0000 0.0000 0.0000
# 4 0.0000 0.0000 0.0000 10.1988 0.0000 0.0000
# 5 0.0000 0.0000 0.0000 0.0000 10.1988 0.0000
# 6 0.0000 0.0000 0.0000 0.0000 0.0000 22.0812
#
#
#
# Elastic Compliance Matrix: (Units=1/GPa)
#
#
# Indices 1 2 3 4 5 6 
#
# 1 0.014745 -0.007899 -0.001230 0.000000 0.000000 0.000000
# 2 -0.007899 0.014745 -0.001230 0.000000 0.000000 0.000000
# 3 -0.001230 -0.001230 0.007684 0.000000 0.000000 0.000000
# 4 0.000000 0.000000 0.000000 0.098051 0.000000 0.000000
# 5 0.000000 0.000000 0.000000 0.000000 0.098051 0.000000
# 6 0.000000 0.000000 0.000000 0.000000 0.000000 0.045287
#
#
# Mechanical properties :
#
#
# Convention : Reuss Voigt Hill
#
# Bulk Modulus (GPa) = 60.77265 60.81461 60.79363
# Shear Modulus (GPa) = 16.40605 23.97580 20.19092
#
# Velocity S-wave (km/s) = 2.63779 3.18878 2.92628
# Velocity P-wave (km/s) = 5.92042 6.27294 6.09923
#
# Compressibility (1/GPa) = 0.01645477
#
# Stress axis : x y z
#
# Youngs Moduli (GPa) = 67.82047 67.82047 130.14560
#
# Poissons Ratio (x) = 0.53570 0.16011
# Poissons Ratio (y) = 0.53570 0.16011
# Poissons Ratio (z) = 0.08343 0.08343
#
# Static dielectric constant tensor:
#      x y z
#    x 2.105900 0.000000 0.000000 
#    y 0.000000 2.105900 0.000000 
#    z 0.000000 0.000000 2.242500 
# 
# From -- ./inp_files/6052.got.cif
#   From: 2010.05.17/outbox.cif.g08.bks.cpg/sg178_4_cif.got.tgz:6052.got - 2010.05.20 11:30:59.
