data_PCOD9582135
_publ_section_title
;
Structure prediction by ZEFSAII (Michael W. Deem and Ramdas Pophale) SiO2 
 PCOD9582135
Probable space group: P 63/M
;
_chemical_formula_sum "Si O2"
_cell_formula_units_Z 64
_cell_length_a 14.127929
_cell_length_b 14.127929
_cell_length_c 17.719209
_cell_angle_alpha 90.000000
_cell_angle_beta 90.000000
_cell_angle_gamma 120.000000
_cell_volume 3062.894019
_symmetry_space_group_name_H-M "P 63/M"
_symmetry_group_IT_number 176
_symmetry_cell_setting 'hexagonal'
loop_
_space_group_symop_operation_xyz
x,y,z
x-y,x,1/2+z
-y,x-y,z
-x,-y,1/2+z
-x+y,-x,z
y,-x+y,1/2+z
-x,-y,-z
-x+y,-x,1/2-z
y,-x+y,-z
x,y,1/2-z
x-y,x,-z
-y,x-y,1/2-z
loop_
_atom_site_type_symbol
_atom_site_label
_atom_site_fract_x
_atom_site_fract_y
_atom_site_fract_z
Si Si1 0.555794 0.115546 0.163988
Si Si2 0.000000 0.000000 0.090878
Si Si3 0.587478 0.786143 0.889381
Si Si4 0.200318 0.216551 0.161719
Si Si5 0.805786 0.217937 0.939624
Si Si6 0.467417 0.550757 0.071056
O O1 0.592179 0.143580 0.250000
O O2 0.461578 0.143826 0.146313
O O3 0.662530 0.178246 0.111606
O O4 0.505803 0.988997 0.144774
O O5 0.892417 0.997526 0.123217
O O6 0.000000 0.000000 0.000000
O O7 0.685596 0.783518 0.846424
O O8 0.627809 0.826399 0.973794
O O9 0.177075 0.220379 0.250000
O O10 0.208498 0.319161 0.116345
O O11 0.679586 0.133970 0.924114
O O12 0.827913 0.341153 0.936957
O O13 0.500000 0.500000 0.000000
#
# Coordination Sequence:
#
# PCOD9582135 Si02
#       6
#    12   4  12  12  12  12
#     4  12  25  43  70 106 144 184 237 301 369 425
#     4  12  28  50  73  99 133 188 241 291 364 437
#     4  12  24  44  73 106 145 187 238 296 364 435
#     4  12  27  47  71 105 145 187 242 306 362 429
#     4  12  24  44  73 102 144 189 239 293 358 441
#     4  12  24  44  68 105 142 189 237 292 356 438
#
# _framework density 20.895271999999999
#
# number of rings (size 3 to 8) (size 9 to 14) (size 15 to 20)
#    0.000    0.000    5.625    4.125    2.625    0.750 
#    0.000    0.000    0.000    2.250    0.000    0.000 
#    0.000    0.000    0.000    0.000    0.000    0.000 
#
# Total GULP energy -358167.325206 kJ/mol
# GULP energy per Si atom -5596.364456 kJ/mol
# Density = 2.084771 g / cm^3
# Si number density = 20.895272 Si / 1000 Ang^3
#
#
#
# Elastic Constant Matrix: (Units=GPa)
#
#
# Indices 1 2 3 4 5 6 
#
# 1 114.0346 33.7342 33.9310 0.0000 0.0000 0.0000
# 2 33.7342 114.0346 33.9310 0.0000 0.0000 0.0000
# 3 33.9310 33.9310 145.1674 0.0000 0.0000 0.0000
# 4 0.0000 0.0000 0.0000 16.0619 0.0000 0.0000
# 5 0.0000 0.0000 0.0000 0.0000 16.0619 0.0000
# 6 0.0000 0.0000 0.0000 0.0000 0.0000 40.1502
#
#
#
# Elastic Compliance Matrix: (Units=1/GPa)
#
#
# Indices 1 2 3 4 5 6 
#
# 1 0.010017 -0.002436 -0.001772 0.000000 0.000000 0.000000
# 2 -0.002436 0.010017 -0.001772 0.000000 0.000000 0.000000
# 3 -0.001772 -0.001772 0.007717 0.000000 0.000000 0.000000
# 4 0.000000 0.000000 0.000000 0.062259 0.000000 0.000000
# 5 0.000000 0.000000 0.000000 0.000000 0.062259 0.000000
# 6 0.000000 0.000000 0.000000 0.000000 0.000000 0.024906
#
#
# Mechanical properties :
#
#
# Convention : Reuss Voigt Hill
#
# Bulk Modulus (GPa) = 63.32632 64.04767 63.68700
# Shear Modulus (GPa) = 25.72019 32.56417 29.14218
#
# Velocity S-wave (km/s) = 3.51224 3.95200 3.73859
# Velocity P-wave (km/s) = 6.84252 7.17932 7.01294
#
# Compressibility (1/GPa) = 0.01579122
#
# Stress axis : x y z
#
# Youngs Moduli (GPa) = 99.82863 99.82863 129.58483
#
# Poissons Ratio (x) = 0.24319 0.22962
# Poissons Ratio (y) = 0.24319 0.22962
# Poissons Ratio (z) = 0.17689 0.17689
#
# Static dielectric constant tensor:
#      x y z
#    x 1.739120 0.000000 0.000000 
#    y 0.000000 1.739120 0.000000 
#    z 0.000000 0.000000 1.752310 
# 
# From -- ./inp_files/3334.got.cif
#   From: 2010.05.17/outbox.cif.g08.bks.cpg/sg176_2_cif.got.tgz:3334.got - 2010.06.03 11:36:45.
