data_PCOD9582652
_publ_section_title
;
Structure prediction by ZEFSAII (Michael W. Deem and Ramdas Pophale) SiO2 
 PCOD9582652
Probable space group: P 61 2 2
;
_chemical_formula_sum "Si O2"
_cell_formula_units_Z 66
_cell_length_a 20.033903
_cell_length_b 20.033903
_cell_length_c 8.438889
_cell_angle_alpha 90.000000
_cell_angle_beta 90.000000
_cell_angle_gamma 120.000000
_cell_volume 2933.236223
_symmetry_space_group_name_H-M "P 61 2 2"
_symmetry_group_IT_number 178
_symmetry_cell_setting 'hexagonal'
loop_
_space_group_symop_operation_xyz
x,y,z
x-y,x,1/6+z
-y,x-y,1/3+z
-x,-y,1/2+z
-x+y,-x,2/3+z
y,-x+y,5/6+z
x-y,-y,-z
-x,-x+y,2/3-z
y,x,1/3-z
-y,-x,5/6-z
-x+y,y,1/2-z
x,x-y,1/6-z
loop_
_atom_site_type_symbol
_atom_site_label
_atom_site_fract_x
_atom_site_fract_y
_atom_site_fract_z
Si Si1 0.241547 0.483093 0.250000
Si Si2 0.081000 0.673730 0.770667
Si Si3 0.059796 0.905849 0.686608
Si Si4 0.822128 0.149110 0.740765
Si Si5 0.491732 0.208277 0.418270
Si Si6 0.073430 0.549506 0.270571
O O1 0.278226 0.429218 0.222913
O O2 0.271379 0.525594 0.418920
O O3 0.102286 0.729000 0.619216
O O4 0.076896 0.591086 0.781804
O O5 0.000000 0.657904 0.833334
O O6 0.110809 0.863355 0.688981
O O7 0.997793 0.881413 0.542888
O O8 0.000000 0.873223 0.833334
O O9 0.836743 0.235803 0.719276
O O10 0.850108 0.149893 0.916667
O O11 0.504622 0.252311 0.583334
O O12 0.523360 0.151363 0.446080
O O13 0.000000 0.553002 0.333334
O O14 0.062334 0.531167 0.083334
#
# Coordination Sequence:
#
# PCOD9582652 Si02
#       6
#     6  12  12  12  12  12
#     4  10  20  42  70  98 146 190 228 302 366 432
#     4  10  22  41  76 104 141 195 240 302 378 449
#     4  10  23  47  69  99 140 195 255 310 384 456
#     4  10  23  43  64 105 142 186 244 309 371 443
#     4  10  23  45  70 104 146 189 243 302 369 452
#     4  11  24  46  74 112 145 189 244 307 383 453
#
# _framework density 22.500744000000001
#
# number of rings (size 3 to 8) (size 9 to 14) (size 15 to 20)
#    0.000    1.818    1.818    0.545    0.000   18.182 
#   16.364    0.000    8.000    1.091    0.000    0.000 
#    0.000    0.000    0.000    0.000    0.000    0.000 
#
# Total GULP energy -367544.311740 kJ/mol
# GULP energy per Si atom -5568.853208 kJ/mol
# Density = 2.244953 g / cm^3
# Si number density = 22.500744 Si / 1000 Ang^3
#
#
#
# Elastic Constant Matrix: (Units=GPa)
#
#
# Indices 1 2 3 4 5 6 
#
# 1 92.3283 12.7611 39.5575 0.0000 0.0000 0.0000
# 2 12.7611 92.3283 39.5575 0.0000 0.0000 0.0000
# 3 39.5575 39.5575 134.6707 0.0000 0.0000 0.0000
# 4 0.0000 0.0000 0.0000 12.4354 0.0000 0.0000
# 5 0.0000 0.0000 0.0000 0.0000 12.4354 0.0000
# 6 0.0000 0.0000 0.0000 0.0000 0.0000 39.7836
#
#
#
# Elastic Compliance Matrix: (Units=1/GPa)
#
#
# Indices 1 2 3 4 5 6 
#
# 1 0.012393 -0.000175 -0.003589 0.000000 0.000000 0.000000
# 2 -0.000175 0.012393 -0.003589 0.000000 0.000000 0.000000
# 3 -0.003589 -0.003589 0.009534 0.000000 0.000000 0.000000
# 4 0.000000 0.000000 0.000000 0.080415 0.000000 0.000000
# 5 0.000000 0.000000 0.000000 0.000000 0.080415 0.000000
# 6 0.000000 0.000000 0.000000 0.000000 0.000000 0.025136
#
#
# Mechanical properties :
#
#
# Convention : Reuss Voigt Hill
#
# Bulk Modulus (GPa) = 50.98442 55.89775 53.44108
# Shear Modulus (GPa) = 20.70142 28.09430 24.39786
#
# Velocity S-wave (km/s) = 3.03649 3.53738 3.29646
# Velocity P-wave (km/s) = 5.91624 6.44830 6.18799
#
# Compressibility (1/GPa) = 0.01961383
#
# Stress axis : x y z
#
# Youngs Moduli (GPa) = 80.69269 80.69269 104.89038
#
# Poissons Ratio (x) = 0.01415 0.37642
# Poissons Ratio (y) = 0.01415 0.37642
# Poissons Ratio (z) = 0.28958 0.28958
#
# Static dielectric constant tensor:
#      x y z
#    x 1.906280 0.000000 0.000000 
#    y 0.000000 1.906280 0.000000 
#    z 0.000000 0.000000 2.777260 
# 
# From -- ./inp_files/3272.got.cif
#   From: 2010.05.17/outbox.cif.g08.bks.cpg/sg178_2_cif.got.tgz:3272.got - 2010.05.20 11:30:59.
