data_PCOD9582246
_publ_section_title
;
Structure prediction by ZEFSAII (Michael W. Deem and Ramdas Pophale) SiO2 
 PCOD9582246
Probable space group: P 6 2 2
;
_chemical_formula_sum "Si O2"
_cell_formula_units_Z 69
_cell_length_a 14.441071
_cell_length_b 14.441071
_cell_length_c 18.404908
_cell_angle_alpha 90.000000
_cell_angle_beta 90.000000
_cell_angle_gamma 120.000000
_cell_volume 3324.015873
_symmetry_space_group_name_H-M "P 6 2 2"
_symmetry_group_IT_number 177
_symmetry_cell_setting 'hexagonal'
loop_
_space_group_symop_operation_xyz
x,y,z
x-y,x,z
-y,x-y,z
-x,-y,z
-x+y,-x,z
y,-x+y,z
x-y,-y,-z
-x,-x+y,-z
y,x,-z
-y,-x,-z
-x+y,y,-z
x,x-y,-z
loop_
_atom_site_type_symbol
_atom_site_label
_atom_site_fract_x
_atom_site_fract_y
_atom_site_fract_z
Si Si1 0.482663 0.207745 0.891759
Si Si2 0.574488 0.904440 0.623651
Si Si3 0.252308 0.121430 0.170753
Si Si4 0.500000 0.000000 0.500000
Si Si5 0.415482 0.830964 0.000000
Si Si6 0.561931 0.122084 0.765392
Si Si7 0.123162 0.368533 0.688928
O O1 0.364416 0.181670 0.872448
O O2 0.541031 0.194852 0.820824
O O3 0.547273 0.318944 0.938029
O O4 0.482899 0.120800 0.948077
O O5 0.491406 0.879350 0.688916
O O6 0.597002 0.807414 0.625973
O O7 0.529814 0.929325 0.551908
O O8 0.680108 0.010487 0.651163
O O9 0.187653 0.183057 0.155631
O O10 0.285216 0.129355 0.256082
O O11 0.678392 0.145435 0.742305
O O12 0.500000 0.000000 0.794329
#
# Coordination Sequence:
#
# PCOD9582246 Si02
#       7
#    12  12  12   3   6  12  12
#     4  11  22  43  67 100 150 182 236 303 368 434
#     4  11  23  42  66  98 141 195 239 301 367 445
#     4  12  24  44  74 108 142 189 248 317 373 440
#     4  12  24  48  64  96 168 180 248 296 364 480
#     4  10  24  42  65 100 132 186 226 280 365 434
#     4  10  20  40  66 101 133 187 239 294 363 446
#     4  11  20  39  68  98 133 185 248 294 366 427
#
# _framework density 20.758023000000001
#
# number of rings (size 3 to 8) (size 9 to 14) (size 15 to 20)
#    0.000    1.043    6.087    3.652    0.000    0.696 
#    1.043    8.261    0.000    0.000    0.000    4.870 
#    0.000    2.783    0.000    0.000    0.000    0.000 
#
# Total GULP energy -384580.344173 kJ/mol
# GULP energy per Si atom -5573.628176 kJ/mol
# Density = 2.071078 g / cm^3
# Si number density = 20.758023 Si / 1000 Ang^3
#
#
#
# Elastic Constant Matrix: (Units=GPa)
#
#
# Indices 1 2 3 4 5 6 
#
# 1 114.8754 62.7282 50.2417 0.0000 0.0000 0.0000
# 2 62.7282 114.8754 50.2417 0.0000 0.0000 0.0000
# 3 50.2417 50.2417 122.3625 0.0000 0.0000 0.0000
# 4 0.0000 0.0000 0.0000 29.2666 0.0000 0.0000
# 5 0.0000 0.0000 0.0000 0.0000 29.2666 0.0000
# 6 0.0000 0.0000 0.0000 0.0000 0.0000 26.0736
#
#
#
# Elastic Compliance Matrix: (Units=1/GPa)
#
#
# Indices 1 2 3 4 5 6 
#
# 1 0.013255 -0.005921 -0.003011 0.000000 0.000000 0.000000
# 2 -0.005921 0.013255 -0.003011 0.000000 0.000000 0.000000
# 3 -0.003011 -0.003011 0.010645 0.000000 0.000000 0.000000
# 4 0.000000 0.000000 0.000000 0.034169 0.000000 0.000000
# 5 0.000000 0.000000 0.000000 0.000000 0.034169 0.000000
# 6 0.000000 0.000000 0.000000 0.000000 0.000000 0.038353
#
#
# Mechanical properties :
#
#
# Convention : Reuss Voigt Hill
#
# Bulk Modulus (GPa) = 75.36786 75.39295 75.38041
# Shear Modulus (GPa) = 29.04323 29.51481 29.27902
#
# Velocity S-wave (km/s) = 3.74456 3.77483 3.75973
# Velocity P-wave (km/s) = 7.42174 7.44298 7.43237
#
# Compressibility (1/GPa) = 0.01326825
#
# Stress axis : x y z
#
# Youngs Moduli (GPa) = 75.44099 75.44099 93.93716
#
# Poissons Ratio (x) = 0.44669 0.28289
# Poissons Ratio (y) = 0.44669 0.28289
# Poissons Ratio (z) = 0.22719 0.22719
#
# Static dielectric constant tensor:
#      x y z
#    x 1.817960 0.000000 0.000000 
#    y 0.000000 1.817960 0.000000 
#    z 0.000000 0.000000 1.766680 
# 
# From -- ./inp_files/2873.got.cif
#   From: 2010.05.17/outbox.cif.g08.bks.cpg/sg177_2_cif.got.tgz:2873.got - 2010.05.20 11:28:44.
