data_PCOD9582619
_publ_section_title
;
Structure prediction by ZEFSAII (Michael W. Deem and Ramdas Pophale) SiO2 
 PCOD9582619
Probable space group: P 61 2 2
;
_chemical_formula_sum "Si O2"
_cell_formula_units_Z 42
_cell_length_a 15.041683
_cell_length_b 15.041683
_cell_length_c 10.829189
_cell_angle_alpha 90.000000
_cell_angle_beta 90.000000
_cell_angle_gamma 120.000000
_cell_volume 2121.873206
_symmetry_space_group_name_H-M "P 61 2 2"
_symmetry_group_IT_number 178
_symmetry_cell_setting 'hexagonal'
loop_
_space_group_symop_operation_xyz
x,y,z
x-y,x,1/6+z
-y,x-y,1/3+z
-x,-y,1/2+z
-x+y,-x,2/3+z
y,-x+y,5/6+z
x-y,-y,-z
-x,-x+y,2/3-z
y,x,1/3-z
-y,-x,5/6-z
-x+y,y,1/2-z
x,x-y,1/6-z
loop_
_atom_site_type_symbol
_atom_site_label
_atom_site_fract_x
_atom_site_fract_y
_atom_site_fract_z
Si Si1 0.441545 0.554065 0.282134
Si Si2 0.123191 0.494253 0.476487
Si Si3 0.165510 0.000000 0.500000
Si Si4 0.776907 0.618261 0.107607
O O1 0.417606 0.582395 0.416667
O O2 0.452066 0.452194 0.301763
O O3 0.371091 0.532977 0.162209
O O4 0.546957 0.655564 0.245224
O O5 0.162195 0.581097 0.583334
O O6 0.158561 0.416012 0.522186
O O7 0.193951 0.928357 0.580857
O O8 0.071481 0.928520 0.416667
O O9 0.805276 0.610552 0.250000
#
# Coordination Sequence:
#
# PCOD9582619 Si02
#       4
#    12  12   6  12
#     4  10  22  38  64  97 146 169 222 282 332 417
#     4  10  20  39  65  97 135 179 221 275 335 409
#     4  10  24  42  72  98 122 176 254 304 344 412
#     4  11  22  41  72  96 129 193 233 275 348 417
#
# _framework density 19.793831000000001
#
# number of rings (size 3 to 8) (size 9 to 14) (size 15 to 20)
#    0.000    1.714    2.857    1.714   12.000    1.143 
#    5.143    2.857    0.000    0.000    0.000    0.000 
#    0.000    0.000    0.000    0.000    0.000    0.000 
#
# Total GULP energy -234314.561770 kJ/mol
# GULP energy per Si atom -5578.918137 kJ/mol
# Density = 1.974878 g / cm^3
# Si number density = 19.793831 Si / 1000 Ang^3
#
#
#
# Elastic Constant Matrix: (Units=GPa)
#
#
# Indices 1 2 3 4 5 6 
#
# 1 117.7406 73.2111 40.0549 0.0000 0.0000 0.0000
# 2 73.2111 117.7406 40.0549 0.0000 0.0000 0.0000
# 3 40.0549 40.0549 172.0591 0.0000 0.0000 0.0000
# 4 0.0000 0.0000 0.0000 3.5486 0.0000 0.0000
# 5 0.0000 0.0000 0.0000 0.0000 3.5486 0.0000
# 6 0.0000 0.0000 0.0000 0.0000 0.0000 22.2648
#
#
#
# Elastic Compliance Matrix: (Units=1/GPa)
#
#
# Indices 1 2 3 4 5 6 
#
# 1 0.014130 -0.008327 -0.001351 0.000000 0.000000 0.000000
# 2 -0.008327 0.014130 -0.001351 0.000000 0.000000 0.000000
# 3 -0.001351 -0.001351 0.006441 0.000000 0.000000 0.000000
# 4 0.000000 0.000000 0.000000 0.281798 0.000000 0.000000
# 5 0.000000 0.000000 0.000000 0.000000 0.281798 0.000000
# 6 0.000000 0.000000 0.000000 0.000000 0.000000 0.044914
#
#
# Mechanical properties :
#
#
# Convention : Reuss Voigt Hill
#
# Bulk Modulus (GPa) = 79.08810 79.35360 79.22085
# Shear Modulus (GPa) = 7.46844 22.82037 15.14440
#
# Velocity S-wave (km/s) = 1.94456 3.39913 2.76906
# Velocity P-wave (km/s) = 6.71449 7.45537 7.09461
#
# Compressibility (1/GPa) = 0.01264413
#
# Stress axis : x y z
#
# Youngs Moduli (GPa) = 70.76950 70.76950 155.25491
#
# Poissons Ratio (x) = 0.58927 0.20976
# Poissons Ratio (y) = 0.58927 0.20976
# Poissons Ratio (z) = 0.09562 0.09562
#
# Static dielectric constant tensor:
#      x y z
#    x 1.705600 0.000000 0.000000 
#    y 0.000000 1.705600 0.000000 
#    z 0.000000 0.000000 1.937280 
# 
# From -- ./inp_files/3924.got.cif
#   From: 2010.05.17/outbox.cif.g08.bks.cpg/sg178_2_cif.got.tgz:3924.got - 2010.05.20 11:30:59.
