data_PCOD9582871
_publ_section_title
;
Structure prediction by ZEFSAII (Michael W. Deem and Ramdas Pophale) SiO2 
 PCOD9582871
Probable space group: P 61 2 2
;
_chemical_formula_sum "Si O2"
_cell_formula_units_Z 36
_cell_length_a 7.958519
_cell_length_b 7.958519
_cell_length_c 29.769756
_cell_angle_alpha 90.000000
_cell_angle_beta 90.000000
_cell_angle_gamma 120.000000
_cell_volume 1632.940730
_symmetry_space_group_name_H-M "P 61 2 2"
_symmetry_group_IT_number 178
_symmetry_cell_setting 'hexagonal'
loop_
_space_group_symop_operation_xyz
x,y,z
x-y,x,1/6+z
-y,x-y,1/3+z
-x,-y,1/2+z
-x+y,-x,2/3+z
y,-x+y,5/6+z
x-y,-y,-z
-x,-x+y,2/3-z
y,x,1/3-z
-y,-x,5/6-z
-x+y,y,1/2-z
x,x-y,1/6-z
loop_
_atom_site_type_symbol
_atom_site_label
_atom_site_fract_x
_atom_site_fract_y
_atom_site_fract_z
Si Si1 0.256795 0.798309 0.554675
Si Si2 0.606657 0.397926 0.628162
Si Si3 0.213903 0.000000 0.000000
Si Si4 0.991077 0.982154 0.250000
O O1 0.235536 0.617768 0.583334
O O2 0.237676 0.748432 0.500590
O O3 0.471100 0.987456 0.555387
O O4 0.135899 0.895308 0.574284
O O5 0.667289 0.333645 0.583334
O O6 0.772575 0.582255 0.653816
O O7 0.075415 0.957392 0.958898
#
# Coordination Sequence:
#
# PCOD9582871 Si02
#       4
#    12  12   6   6
#     4  10  23  44  77 105 141 200 252 308 382 465
#     4  10  23  47  72 103 145 197 253 320 374 458
#     4  10  26  40  72 102 148 190 252 306 376 460
#     4  12  24  46  68 110 150 198 244 322 386 446
#
# _framework density 22.046116000000001
#
# number of rings (size 3 to 8) (size 9 to 14) (size 15 to 20)
#    0.000    2.000    1.667    2.000    9.333    4.000 
#    0.000    0.000    0.000    0.000    0.000    0.000 
#    0.000    0.000    0.000    0.000    0.000    0.000 
#
# Total GULP energy -200599.379006 kJ/mol
# GULP energy per Si atom -5572.204972 kJ/mol
# Density = 2.199594 g / cm^3
# Si number density = 22.046116 Si / 1000 Ang^3
#
#
#
# Elastic Constant Matrix: (Units=GPa)
#
#
# Indices 1 2 3 4 5 6 
#
# 1 94.3787 58.8253 75.4249 0.0000 0.0000 0.0000
# 2 58.8253 94.3787 75.4249 0.0000 0.0000 0.0000
# 3 75.4249 75.4249 182.2080 0.0000 0.0000 0.0000
# 4 0.0000 0.0000 0.0000 79.3843 0.0000 0.0000
# 5 0.0000 0.0000 0.0000 0.0000 79.3843 0.0000
# 6 0.0000 0.0000 0.0000 0.0000 0.0000 17.7767
#
#
#
# Elastic Compliance Matrix: (Units=1/GPa)
#
#
# Indices 1 2 3 4 5 6 
#
# 1 0.019572 -0.008554 -0.004561 0.000000 0.000000 0.000000
# 2 -0.008554 0.019572 -0.004561 0.000000 0.000000 0.000000
# 3 -0.004561 -0.004561 0.009264 0.000000 0.000000 0.000000
# 4 0.000000 0.000000 0.000000 0.012597 0.000000 0.000000
# 5 0.000000 0.000000 0.000000 0.000000 0.012597 0.000000
# 6 0.000000 0.000000 0.000000 0.000000 0.000000 0.056253
#
#
# Mechanical properties :
#
#
# Convention : Reuss Voigt Hill
#
# Bulk Modulus (GPa) = 76.58917 87.81284 82.20101
# Shear Modulus (GPa) = 29.48790 46.06175 37.77483
#
# Velocity S-wave (km/s) = 3.66123 4.57588 4.14387
# Velocity P-wave (km/s) = 7.25869 8.23627 7.76289
#
# Compressibility (1/GPa) = 0.01305668
#
# Stress axis : x y z
#
# Youngs Moduli (GPa) = 51.09230 51.09230 107.94213
#
# Poissons Ratio (x) = 0.43706 0.49232
# Poissons Ratio (y) = 0.43706 0.49232
# Poissons Ratio (z) = 0.23303 0.23303
#
# Static dielectric constant tensor:
#      x y z
#    x 1.884580 0.000000 0.000000 
#    y 0.000000 1.884580 0.000000 
#    z 0.000000 0.000000 1.848060 
# 
# From -- ./inp_files/9158.got.cif
#   From: 2010.05.17/outbox.cif.g08.bks.cpg/sg178_5_cif.got.tgz:9158.got - 2010.05.20 11:30:59.
