data_PCOD9582794
_publ_section_title
;
Structure prediction by ZEFSAII (Michael W. Deem and Ramdas Pophale) SiO2 
 PCOD9582794
Probable space group: P 61 2 2
;
_chemical_formula_sum "Si O2"
_cell_formula_units_Z 60
_cell_length_a 11.894886
_cell_length_b 11.894886
_cell_length_c 24.749197
_cell_angle_alpha 90.000000
_cell_angle_beta 90.000000
_cell_angle_gamma 120.000000
_cell_volume 3032.580322
_symmetry_space_group_name_H-M "P 61 2 2"
_symmetry_group_IT_number 178
_symmetry_cell_setting 'hexagonal'
loop_
_space_group_symop_operation_xyz
x,y,z
x-y,x,1/6+z
-y,x-y,1/3+z
-x,-y,1/2+z
-x+y,-x,2/3+z
y,-x+y,5/6+z
x-y,-y,-z
-x,-x+y,2/3-z
y,x,1/3-z
-y,-x,5/6-z
-x+y,y,1/2-z
x,x-y,1/6-z
loop_
_atom_site_type_symbol
_atom_site_label
_atom_site_fract_x
_atom_site_fract_y
_atom_site_fract_z
Si Si1 0.709303 0.290698 0.916667
Si Si2 0.488704 0.511297 0.916667
Si Si3 0.765789 0.595730 0.345937
Si Si4 0.088137 0.927784 0.052926
Si Si5 0.701746 0.794616 0.289025
Si Si6 0.428943 0.236076 0.896275
O O1 0.777939 0.272258 0.864698
O O2 0.556440 0.229487 0.907031
O O3 0.377619 0.488580 0.873792
O O4 0.441845 0.360353 0.929616
O O5 0.766174 0.712357 0.311578
O O6 0.870559 0.650004 0.394353
O O7 0.171542 0.880925 0.086522
O O8 0.946963 0.805895 0.040298
O O9 0.062701 0.031351 0.083334
O O10 0.165583 0.000000 0.000000
O O11 0.584724 0.751338 0.331909
#
# Coordination Sequence:
#
# PCOD9582794 Si02
#       6
#     6   6  12  12  12  12
#     4  11  26  42  64  94 136 175 216 268 318 403
#     4   9  18  40  70  88 122 177 218 260 308 397
#     4  11  23  40  67  95 131 170 219 268 326 383
#     4  12  22  38  68  99 128 164 215 276 329 383
#     4  11  21  42  69  96 126 171 217 274 327 389
#     4  10  22  42  67  96 130 172 219 260 326 399
#
# _framework density 19.785132000000001
#
# number of rings (size 3 to 8) (size 9 to 14) (size 15 to 20)
#    0.000    1.200    6.000    1.200    1.400    0.800 
#    3.600    0.000    2.200    0.000    0.000    0.000 
#    0.000    0.000    0.000    0.000    0.000    0.000 
#
# Total GULP energy -334526.938732 kJ/mol
# GULP energy per Si atom -5575.448979 kJ/mol
# Density = 1.974010 g / cm^3
# Si number density = 19.785132 Si / 1000 Ang^3
#
#
#
# Elastic Constant Matrix: (Units=GPa)
#
#
# Indices 1 2 3 4 5 6 
#
# 1 64.1008 24.7086 31.5353 0.0000 0.0000 0.0000
# 2 24.7086 64.1008 31.5353 0.0000 0.0000 0.0000
# 3 31.5353 31.5353 98.6964 0.0000 0.0000 0.0000
# 4 0.0000 0.0000 0.0000 21.6087 0.0000 0.0000
# 5 0.0000 0.0000 0.0000 0.0000 21.6087 0.0000
# 6 0.0000 0.0000 0.0000 0.0000 0.0000 19.6961
#
#
#
# Elastic Compliance Matrix: (Units=1/GPa)
#
#
# Indices 1 2 3 4 5 6 
#
# 1 0.019975 -0.005410 -0.004654 0.000000 0.000000 0.000000
# 2 -0.005410 0.019975 -0.004654 0.000000 0.000000 0.000000
# 3 -0.004654 -0.004654 0.013106 0.000000 0.000000 0.000000
# 4 0.000000 0.000000 0.000000 0.046278 0.000000 0.000000
# 5 0.000000 0.000000 0.000000 0.000000 0.046278 0.000000
# 6 0.000000 0.000000 0.000000 0.000000 0.000000 0.050771
#
#
# Mechanical properties :
#
#
# Convention : Reuss Voigt Hill
#
# Bulk Modulus (GPa) = 42.33522 44.71738 43.52630
# Shear Modulus (GPa) = 21.39557 21.85729 21.62643
#
# Velocity S-wave (km/s) = 3.29203 3.32736 3.30974
# Velocity P-wave (km/s) = 5.99115 6.11656 6.05418
#
# Compressibility (1/GPa) = 0.02362099
#
# Stress axis : x y z
#
# Youngs Moduli (GPa) = 50.06155 50.06155 76.30068
#
# Poissons Ratio (x) = 0.27085 0.35509
# Poissons Ratio (y) = 0.27085 0.35509
# Poissons Ratio (z) = 0.23298 0.23298
#
# Static dielectric constant tensor:
#      x y z
#    x 1.709290 0.000000 0.000000 
#    y 0.000000 1.709290 0.000000 
#    z 0.000000 0.000000 1.734200 
# 
# From -- ./inp_files/8829.got.cif
#   From: 2010.05.17/outbox.cif.g08.bks.cpg/sg178_5_cif.got.tgz:8829.got - 2010.05.20 11:30:59.
