data_PCOD9582023
_publ_section_title
;
Structure prediction by ZEFSAII (Michael W. Deem and Ramdas Pophale) SiO2 
 PCOD9582023
Probable space group: P 63/M
;
_chemical_formula_sum "Si O2"
_cell_formula_units_Z 58
_cell_length_a 14.662198
_cell_length_b 14.662198
_cell_length_c 15.753226
_cell_angle_alpha 90.000000
_cell_angle_beta 90.000000
_cell_angle_gamma 120.000000
_cell_volume 2932.907021
_symmetry_space_group_name_H-M "P 63/M"
_symmetry_group_IT_number 176
_symmetry_cell_setting 'hexagonal'
loop_
_space_group_symop_operation_xyz
x,y,z
x-y,x,1/2+z
-y,x-y,z
-x,-y,1/2+z
-x+y,-x,z
y,-x+y,1/2+z
-x,-y,-z
-x+y,-x,1/2-z
y,-x+y,-z
x,y,1/2-z
x-y,x,-z
-y,x-y,1/2-z
loop_
_atom_site_type_symbol
_atom_site_label
_atom_site_fract_x
_atom_site_fract_y
_atom_site_fract_z
Si Si1 0.237411 0.533087 0.750000
Si Si2 0.904002 0.420652 0.651255
Si Si3 0.823638 0.769901 0.647917
Si Si4 0.098790 0.412519 0.907515
Si Si5 0.439678 0.252599 0.594533
Si Si6 0.000000 0.000000 0.646513
O O1 0.363781 0.586828 0.750000
O O2 0.183027 0.465260 0.832626
O O3 0.917970 0.400812 0.750000
O O4 0.809967 0.312214 0.612597
O O5 0.870432 0.508298 0.644451
O O6 0.011855 0.449218 0.603179
O O7 0.812105 0.769742 0.750000
O O8 0.712869 0.742927 0.606712
O O9 0.848358 0.678357 0.623436
O O10 0.915560 0.883028 0.619491
O O11 0.157178 0.440329 0.996834
O O12 0.000000 0.000000 0.750000
#
# Coordination Sequence:
#
# PCOD9582023 Si02
#       6
#     6  12  12  12  12   4
#     4  10  24  42  66  86 126 174 214 246 326 390
#     4  11  22  42  64  91 134 171 208 264 325 385
#     4  10  21  45  65  91 132 169 213 267 327 381
#     4  11  22  43  61  94 130 169 209 274 314 380
#     4  11  24  37  65  97 125 167 221 263 316 381
#     4   9  21  39  67  95 121 169 218 262 312 385
#
# _framework density 19.775601999999999
#
# number of rings (size 3 to 8) (size 9 to 14) (size 15 to 20)
#    0.207    1.241    2.069    4.138    2.897    3.310 
#    3.724    1.034    0.000    0.000    0.000    0.000 
#    0.000    0.000    0.000    0.000    0.000    0.000 
#
# Total GULP energy -324162.024975 kJ/mol
# GULP energy per Si atom -5589.000431 kJ/mol
# Density = 1.973059 g / cm^3
# Si number density = 19.775602 Si / 1000 Ang^3
#
#
#
# Elastic Constant Matrix: (Units=GPa)
#
#
# Indices 1 2 3 4 5 6 
#
# 1 96.2475 50.6011 17.2651 0.0000 0.0000 0.0000
# 2 50.6011 96.2475 17.2651 0.0000 0.0000 0.0000
# 3 17.2651 17.2651 101.0886 0.0000 0.0000 0.0000
# 4 0.0000 0.0000 0.0000 17.1286 0.0000 0.0000
# 5 0.0000 0.0000 0.0000 0.0000 17.1286 0.0000
# 6 0.0000 0.0000 0.0000 0.0000 0.0000 22.8232
#
#
#
# Elastic Compliance Matrix: (Units=1/GPa)
#
#
# Indices 1 2 3 4 5 6 
#
# 1 0.014501 -0.007406 -0.001212 0.000000 0.000000 0.000000
# 2 -0.007406 0.014501 -0.001212 0.000000 0.000000 0.000000
# 3 -0.001212 -0.001212 0.010306 0.000000 0.000000 0.000000
# 4 0.000000 0.000000 0.000000 0.058382 0.000000 0.000000
# 5 0.000000 0.000000 0.000000 0.000000 0.058382 0.000000
# 6 0.000000 0.000000 0.000000 0.000000 0.000000 0.043815
#
#
# Mechanical properties :
#
#
# Convention : Reuss Voigt Hill
#
# Bulk Modulus (GPa) = 50.89398 51.53848 51.21623
# Shear Modulus (GPa) = 22.11446 25.31291 23.71368
#
# Velocity S-wave (km/s) = 3.34768 3.58160 3.46661
# Velocity P-wave (km/s) = 6.38234 6.57435 6.47905
#
# Compressibility (1/GPa) = 0.01964869
#
# Stress axis : x y z
#
# Youngs Moduli (GPa) = 68.96032 68.96032 97.02883
#
# Poissons Ratio (x) = 0.51075 0.11757
# Poissons Ratio (y) = 0.51075 0.11757
# Poissons Ratio (z) = 0.08356 0.08356
#
# Static dielectric constant tensor:
#      x y z
#    x 1.678900 0.000000 0.000000 
#    y 0.000000 1.678900 0.000000 
#    z 0.000000 0.000000 1.684390 
# 
# From -- ./inp_files/2680.got.cif
#   From: 2010.05.17/outbox.cif.g08.bks.cpg/sg176_2_cif.got.tgz:2680.got - 2010.06.03 11:36:45.
