data_PCOD9582036
_publ_section_title
;
Structure prediction by ZEFSAII (Michael W. Deem and Ramdas Pophale) SiO2 
 PCOD9582036
Probable space group: P 63/M
;
_chemical_formula_sum "Si O2"
_cell_formula_units_Z 54
_cell_length_a 11.891385
_cell_length_b 11.891385
_cell_length_c 21.980427
_cell_angle_alpha 90.000000
_cell_angle_beta 90.000000
_cell_angle_gamma 120.000000
_cell_volume 2691.730881
_symmetry_space_group_name_H-M "P 63/M"
_symmetry_group_IT_number 176
_symmetry_cell_setting 'hexagonal'
loop_
_space_group_symop_operation_xyz
x,y,z
x-y,x,1/2+z
-y,x-y,z
-x,-y,1/2+z
-x+y,-x,z
y,-x+y,1/2+z
-x,-y,-z
-x+y,-x,1/2-z
y,-x+y,-z
x,y,1/2-z
x-y,x,-z
-y,x-y,1/2-z
loop_
_atom_site_type_symbol
_atom_site_label
_atom_site_fract_x
_atom_site_fract_y
_atom_site_fract_z
Si Si1 0.201631 0.503995 0.250000
Si Si2 0.045535 0.264719 0.820488
Si Si3 0.943583 0.712420 0.852828
Si Si4 0.645229 0.072783 0.425608
Si Si5 0.595846 0.910302 0.961032
O O1 0.358655 0.560817 0.250000
O O2 0.130998 0.412782 0.308582
O O3 0.013717 0.258666 0.750000
O O4 0.180486 0.265183 0.827193
O O5 0.053525 0.386233 0.855777
O O6 0.924919 0.141973 0.852680
O O7 0.973612 0.676585 0.919147
O O8 0.542114 0.118912 0.434884
O O9 0.785528 0.176649 0.450907
O O10 0.599898 0.948676 0.468892
#
# Coordination Sequence:
#
# PCOD9582036 Si02
#       5
#     6  12  12  12  12
#     4  10  24  38  58  92 134 160 200 262 310 384
#     4  11  21  37  62  88 122 161 209 258 310 371
#     4  11  22  39  62  92 123 166 212 260 317 368
#     4  10  22  39  60  84 118 159 201 257 310 380
#     4  10  22  40  62  87 120 159 208 257 314 379
#
# _framework density 20.061440000000001
#
# number of rings (size 3 to 8) (size 9 to 14) (size 15 to 20)
#    0.222    1.333    2.222    2.222    3.111    0.000 
#    0.000    0.000    0.000    7.111    0.000    0.000 
#    0.000    0.000    0.000    0.000    0.000    0.000 
#
# Total GULP energy -301333.048622 kJ/mol
# GULP energy per Si atom -5580.241641 kJ/mol
# Density = 2.001578 g / cm^3
# Si number density = 20.061440 Si / 1000 Ang^3
#
#
#
# Elastic Constant Matrix: (Units=GPa)
#
#
# Indices 1 2 3 4 5 6 
#
# 1 75.3061 11.3951 11.6540 0.0000 0.0000 0.0000
# 2 11.3951 75.3061 11.6540 0.0000 0.0000 0.0000
# 3 11.6540 11.6540 38.5705 0.0000 0.0000 0.0000
# 4 0.0000 0.0000 0.0000 -10.0893 0.0000 0.0000
# 5 0.0000 0.0000 0.0000 0.0000 -10.0893 0.0000
# 6 0.0000 0.0000 0.0000 0.0000 0.0000 31.9555
#
#
#
# Elastic Compliance Matrix: (Units=1/GPa)
#
#
# Indices 1 2 3 4 5 6 
#
# 1 0.014100 -0.001547 -0.003793 0.000000 0.000000 0.000000
# 2 -0.001547 0.014100 -0.003793 0.000000 0.000000 0.000000
# 3 -0.003793 -0.003793 0.028219 0.000000 0.000000 0.000000
# 4 0.000000 0.000000 0.000000 -0.099115 0.000000 0.000000
# 5 0.000000 0.000000 0.000000 0.000000 -0.099115 0.000000
# 6 0.000000 0.000000 0.000000 0.000000 0.000000 0.031294
#
#
# Mechanical properties :
#
#
# Convention : Reuss Voigt Hill
#
# Bulk Modulus (GPa) = 26.20981 28.73210 27.47095
# Shear Modulus (GPa) = -62.86567 12.65403 -25.10582
#
# Velocity S-wave (km/s) = -5.60398 2.51423 -3.54142
# Velocity P-wave (km/s) = 5.36467 4.77301 1.73177
#
# Compressibility (1/GPa) = 0.03815365
#
# Stress axis : x y z
#
# Youngs Moduli (GPa) = 70.92119 70.92119 35.43754
#
# Poissons Ratio (x) = 0.10969 0.13442
# Poissons Ratio (y) = 0.10969 0.13442
# Poissons Ratio (z) = 0.26901 0.26901
#
# Static dielectric constant tensor:
#      x y z
#    x 1.716020 0.000000 0.000000 
#    y 0.000000 1.716020 0.000000 
#    z 0.000000 0.000000 1.710270 
# 
# From -- ./inp_files/3995.got.cif
#   From: 2010.05.17/outbox.cif.g08.bks.cpg/sg176_2_cif.got.tgz:3995.got - 2010.06.03 11:36:45.
