data_PCOD9582710
_publ_section_title
;
Structure prediction by ZEFSAII (Michael W. Deem and Ramdas Pophale) SiO2 
 PCOD9582710
Probable space group: P 61 2 2
;
_chemical_formula_sum "Si O2"
_cell_formula_units_Z 54
_cell_length_a 10.768154
_cell_length_b 10.768154
_cell_length_c 26.241050
_cell_angle_alpha 90.000000
_cell_angle_beta 90.000000
_cell_angle_gamma 120.000000
_cell_volume 2635.083347
_symmetry_space_group_name_H-M "P 61 2 2"
_symmetry_group_IT_number 178
_symmetry_cell_setting 'hexagonal'
loop_
_space_group_symop_operation_xyz
x,y,z
x-y,x,1/6+z
-y,x-y,1/3+z
-x,-y,1/2+z
-x+y,-x,2/3+z
y,-x+y,5/6+z
x-y,-y,-z
-x,-x+y,2/3-z
y,x,1/3-z
-y,-x,5/6-z
-x+y,y,1/2-z
x,x-y,1/6-z
loop_
_atom_site_type_symbol
_atom_site_label
_atom_site_fract_x
_atom_site_fract_y
_atom_site_fract_z
Si Si1 0.381418 0.618582 0.416667
Si Si2 0.728885 0.719003 0.727784
Si Si3 0.240416 0.036123 0.404226
Si Si4 0.244497 0.291279 0.452223
Si Si5 0.575887 0.091925 0.948635
O O1 0.332412 0.462222 0.440647
O O2 0.386462 0.742135 0.454709
O O3 0.725396 0.725396 0.666667
O O4 0.764304 0.870545 0.749742
O O5 0.573180 0.602367 0.747943
O O6 0.839152 0.678304 0.750000
O O7 0.303458 0.185135 0.435664
O O8 0.263859 0.064844 0.344239
O O9 0.318569 0.946808 0.419586
O O10 0.073329 0.926672 0.416667
O O11 0.538863 0.000000 0.000000
#
# Coordination Sequence:
#
# PCOD9582710 Si02
#       5
#     6  12  12  12  12
#     4  10  24  46  66  98 144 174 234 298 340 426
#     4  10  21  40  65  91 126 171 225 278 340 409
#     4  12  24  42  67  99 139 182 232 284 354 425
#     4  11  25  42  67 100 138 180 229 293 353 412
#     4  10  22  41  68  91 131 185 225 283 352 419
#
# _framework density 20.492709999999999
#
# number of rings (size 3 to 8) (size 9 to 14) (size 15 to 20)
#    0.000    1.333    1.111    4.000    0.000    8.889 
#    2.000    0.000    0.000    0.000    0.000    0.000 
#    0.000    0.000    0.000    0.000    0.000    0.000 
#
# Total GULP energy -300882.460887 kJ/mol
# GULP energy per Si atom -5571.897424 kJ/mol
# Density = 2.044607 g / cm^3
# Si number density = 20.492710 Si / 1000 Ang^3
#
#
#
# Elastic Constant Matrix: (Units=GPa)
#
#
# Indices 1 2 3 4 5 6 
#
# 1 116.1669 45.5199 19.4611 0.0000 0.0000 0.0000
# 2 45.5199 116.1669 19.4611 0.0000 0.0000 0.0000
# 3 19.4611 19.4611 82.9926 0.0000 0.0000 0.0000
# 4 0.0000 0.0000 0.0000 19.2372 0.0000 0.0000
# 5 0.0000 0.0000 0.0000 0.0000 19.2372 0.0000
# 6 0.0000 0.0000 0.0000 0.0000 0.0000 35.3235
#
#
#
# Elastic Compliance Matrix: (Units=1/GPa)
#
#
# Indices 1 2 3 4 5 6 
#
# 1 0.010355 -0.003800 -0.001537 0.000000 0.000000 0.000000
# 2 -0.003800 0.010355 -0.001537 0.000000 0.000000 0.000000
# 3 -0.001537 -0.001537 0.012770 0.000000 0.000000 0.000000
# 4 0.000000 0.000000 0.000000 0.051983 0.000000 0.000000
# 5 0.000000 0.000000 0.000000 0.000000 0.051983 0.000000
# 6 0.000000 0.000000 0.000000 0.000000 0.000000 0.028310
#
#
# Mechanical properties :
#
#
# Convention : Reuss Voigt Hill
#
# Bulk Modulus (GPa) = 50.68034 53.80120 52.24077
# Shear Modulus (GPa) = 26.87016 30.15189 28.51103
#
# Velocity S-wave (km/s) = 3.62499 3.83998 3.73403
# Velocity P-wave (km/s) = 6.50425 6.78022 6.64367
#
# Compressibility (1/GPa) = 0.01973152
#
# Stress axis : x y z
#
# Youngs Moduli (GPa) = 96.57320 96.57320 78.30783
#
# Poissons Ratio (x) = 0.36698 0.12036
# Poissons Ratio (y) = 0.36698 0.12036
# Poissons Ratio (z) = 0.14844 0.14844
#
# Static dielectric constant tensor:
#      x y z
#    x 1.778240 0.000000 0.000000 
#    y 0.000000 1.778240 0.000000 
#    z 0.000000 0.000000 1.708030 
# 
# From -- ./inp_files/7398.got.cif
#   From: 2010.05.17/outbox.cif.g08.bks.cpg/sg178_4_cif.got.tgz:7398.got - 2010.05.20 11:30:59.
