data_PCOD9582595
_publ_section_title
;
Structure prediction by ZEFSAII (Michael W. Deem and Ramdas Pophale) SiO2 
 PCOD9582595
Probable space group: P 61 2 2
;
_chemical_formula_sum "Si O2"
_cell_formula_units_Z 66
_cell_length_a 21.682182
_cell_length_b 21.682182
_cell_length_c 8.385528
_cell_angle_alpha 90.000000
_cell_angle_beta 90.000000
_cell_angle_gamma 120.000000
_cell_volume 3414.027510
_symmetry_space_group_name_H-M "P 61 2 2"
_symmetry_group_IT_number 178
_symmetry_cell_setting 'hexagonal'
loop_
_space_group_symop_operation_xyz
x,y,z
x-y,x,1/6+z
-y,x-y,1/3+z
-x,-y,1/2+z
-x+y,-x,2/3+z
y,-x+y,5/6+z
x-y,-y,-z
-x,-x+y,2/3-z
y,x,1/3-z
-y,-x,5/6-z
-x+y,y,1/2-z
x,x-y,1/6-z
loop_
_atom_site_type_symbol
_atom_site_label
_atom_site_fract_x
_atom_site_fract_y
_atom_site_fract_z
Si Si1 0.062519 0.637706 0.936888
Si Si2 0.423458 0.846915 0.750000
Si Si3 0.865617 0.705530 0.068517
Si Si4 0.189015 0.438685 0.415832
Si Si5 0.262822 0.981895 0.693058
Si Si6 0.275085 0.698982 0.248054
O O1 0.114963 0.683074 0.794018
O O2 0.000000 0.576623 0.833334
O O3 0.104866 0.610707 0.044769
O O4 0.038620 0.684110 0.046149
O O5 0.412183 0.791435 0.890119
O O6 0.862504 0.725008 0.250000
O O7 0.817291 0.730461 0.971616
O O8 0.949353 0.731528 0.048868
O O9 0.822953 0.619998 0.045312
O O10 0.207916 0.415831 0.250000
O O11 0.249680 0.518495 0.454259
O O12 0.282358 0.000000 0.500000
O O13 0.270565 0.729436 0.416667
O O14 0.349147 0.698295 0.250000
#
# Coordination Sequence:
#
# PCOD9582595 Si02
#       6
#    12   6  12  12  12  12
#     4  12  25  43  63  88 125 166 206 267 323 385
#     4  12  26  46  62  90 130 162 218 268 320 388
#     4  10  20  37  63  94 131 166 209 263 317 387
#     4  12  22  40  66  91 123 159 209 264 325 372
#     4  10  21  38  63  93 130 164 212 260 317 382
#     4  12  25  42  67  92 121 166 216 266 318 380
#
# _framework density 19.332006
#
# number of rings (size 3 to 8) (size 9 to 14) (size 15 to 20)
#    0.000    0.727    6.364    1.636    0.000    2.182 
#    4.909    0.000    0.000    0.000    0.000    0.000 
#   65.455    0.000    0.000    0.000    0.000    0.000 
#
# Total GULP energy -367740.829750 kJ/mol
# GULP energy per Si atom -5571.830754 kJ/mol
# Density = 1.928801 g / cm^3
# Si number density = 19.332006 Si / 1000 Ang^3
#
#
#
# Elastic Constant Matrix: (Units=GPa)
#
#
# Indices 1 2 3 4 5 6 
#
# 1 120.6689 66.8251 15.2289 0.0000 0.0000 0.0000
# 2 66.8251 120.6689 15.2289 0.0000 0.0000 0.0000
# 3 15.2289 15.2289 39.9821 0.0000 0.0000 0.0000
# 4 0.0000 0.0000 0.0000 22.1784 0.0000 0.0000
# 5 0.0000 0.0000 0.0000 0.0000 22.1784 0.0000
# 6 0.0000 0.0000 0.0000 0.0000 0.0000 26.9219
#
#
#
# Elastic Compliance Matrix: (Units=1/GPa)
#
#
# Indices 1 2 3 4 5 6 
#
# 1 0.012129 -0.006443 -0.002165 0.000000 0.000000 0.000000
# 2 -0.006443 0.012129 -0.002165 0.000000 0.000000 0.000000
# 3 -0.002165 -0.002165 0.026661 0.000000 0.000000 0.000000
# 4 0.000000 0.000000 0.000000 0.045089 0.000000 0.000000
# 5 0.000000 0.000000 0.000000 0.000000 0.045089 0.000000
# 6 0.000000 0.000000 0.000000 0.000000 0.000000 0.037144
#
#
# Mechanical properties :
#
#
# Convention : Reuss Voigt Hill
#
# Bulk Modulus (GPa) = 34.04899 52.87619 43.46259
# Shear Modulus (GPa) = 23.85730 26.52487 25.19109
#
# Velocity S-wave (km/s) = 3.51676 3.70816 3.61373
# Velocity P-wave (km/s) = 5.84304 6.76350 6.32005
#
# Compressibility (1/GPa) = 0.02936945
#
# Stress axis : x y z
#
# Youngs Moduli (GPa) = 82.44868 82.44868 37.50822
#
# Poissons Ratio (x) = 0.53126 0.08122
# Poissons Ratio (y) = 0.53126 0.08122
# Poissons Ratio (z) = 0.17854 0.17854
#
# Static dielectric constant tensor:
#      x y z
#    x 1.887850 0.000000 0.000000 
#    y 0.000000 1.887850 0.000000 
#    z 0.000000 0.000000 1.737120 
# 
# From -- ./inp_files/3280.got.cif
#   From: 2010.05.17/outbox.cif.g08.bks.cpg/sg178_2_cif.got.tgz:3280.got - 2010.05.20 11:30:59.
