data_PCOD9582724
_publ_section_title
;
Structure prediction by ZEFSAII (Michael W. Deem and Ramdas Pophale) SiO2 
 PCOD9582724
Probable space group: P 61 2 2
;
_chemical_formula_sum "Si O2"
_cell_formula_units_Z 42
_cell_length_a 11.172578
_cell_length_b 11.172578
_cell_length_c 15.361091
_cell_angle_alpha 90.000000
_cell_angle_beta 90.000000
_cell_angle_gamma 120.000000
_cell_volume 1660.578781
_symmetry_space_group_name_H-M "P 61 2 2"
_symmetry_group_IT_number 178
_symmetry_cell_setting 'hexagonal'
loop_
_space_group_symop_operation_xyz
x,y,z
x-y,x,1/6+z
-y,x-y,1/3+z
-x,-y,1/2+z
-x+y,-x,2/3+z
y,-x+y,5/6+z
x-y,-y,-z
-x,-x+y,2/3-z
y,x,1/3-z
-y,-x,5/6-z
-x+y,y,1/2-z
x,x-y,1/6-z
loop_
_atom_site_type_symbol
_atom_site_label
_atom_site_fract_x
_atom_site_fract_y
_atom_site_fract_z
Si Si1 0.916102 0.098042 0.126761
Si Si2 0.326225 0.000000 0.500000
Si Si3 0.165994 0.597911 0.231085
Si Si4 0.351266 0.883598 0.170198
O O1 0.942315 0.250090 0.143336
O O2 0.904946 0.024880 0.217978
O O3 0.764361 0.008241 0.083220
O O4 0.472213 0.139317 0.483519
O O5 0.272744 0.545487 0.250000
O O6 0.237626 0.718625 0.156898
O O7 0.009789 0.475260 0.215416
O O8 0.434912 0.869823 0.250000
#
# Coordination Sequence:
#
# PCOD9582724 Si02
#       4
#    12   6  12  12
#     4  11  24  44  71 106 149 204 270 332 402 491
#     4  10  22  42  66 100 148 204 260 312 394 486
#     4  10  23  41  69 104 142 195 258 327 394 468
#     4  10  21  42  70 103 145 198 258 322 395 479
#
# _framework density 25.292383999999998
#
# number of rings (size 3 to 8) (size 9 to 14) (size 15 to 20)
#    0.000    1.714    0.000    4.286    0.000    9.143 
#    0.000   11.429    0.000    0.000    0.000    0.000 
#    0.000    0.000    0.000    0.000    0.000    0.000 
#
# Total GULP energy -233967.460438 kJ/mol
# GULP energy per Si atom -5570.653820 kJ/mol
# Density = 2.523482 g / cm^3
# Si number density = 25.292384 Si / 1000 Ang^3
#
#
#
# Elastic Constant Matrix: (Units=GPa)
#
#
# Indices 1 2 3 4 5 6 
#
# 1 134.3440 70.3539 63.5570 0.0000 0.0000 0.0000
# 2 70.3539 134.3440 63.5570 0.0000 0.0000 0.0000
# 3 63.5570 63.5570 82.6449 0.0000 0.0000 0.0000
# 4 0.0000 0.0000 0.0000 3.6611 0.0000 0.0000
# 5 0.0000 0.0000 0.0000 0.0000 3.6611 0.0000
# 6 0.0000 0.0000 0.0000 0.0000 0.0000 31.9950
#
#
#
# Elastic Compliance Matrix: (Units=1/GPa)
#
#
# Indices 1 2 3 4 5 6 
#
# 1 0.012489 -0.003138 -0.007191 0.000000 0.000000 0.000000
# 2 -0.003138 0.012489 -0.007191 0.000000 0.000000 0.000000
# 3 -0.007191 -0.007191 0.023160 0.000000 0.000000 0.000000
# 4 0.000000 0.000000 0.000000 0.273145 0.000000 0.000000
# 5 0.000000 0.000000 0.000000 0.000000 0.273145 0.000000
# 6 0.000000 0.000000 0.000000 0.000000 0.000000 0.031255
#
#
# Mechanical properties :
#
#
# Convention : Reuss Voigt Hill
#
# Bulk Modulus (GPa) = 76.35001 82.91875 79.63438
# Shear Modulus (GPa) = 7.51778 18.12109 12.81943
#
# Velocity S-wave (km/s) = 1.72592 2.67959 2.25377
# Velocity P-wave (km/s) = 5.85015 6.51374 6.19084
#
# Compressibility (1/GPa) = 0.01309758
#
# Stress axis : x y z
#
# Youngs Moduli (GPa) = 80.06966 80.06966 43.17707
#
# Poissons Ratio (x) = 0.25128 0.31049
# Poissons Ratio (y) = 0.25128 0.31049
# Poissons Ratio (z) = 0.57579 0.57579
#
# Static dielectric constant tensor:
#      x y z
#    x 2.154720 0.000000 0.000000 
#    y 0.000000 2.154720 0.000000 
#    z 0.000000 0.000000 2.059050 
# 
# From -- ./inp_files/6411.got.cif
#   From: 2010.05.17/outbox.cif.g08.bks.cpg/sg178_4_cif.got.tgz:6411.got - 2010.05.20 11:30:59.
