data_PCOD9582378
_publ_section_title
;
Structure prediction by ZEFSAII (Michael W. Deem and Ramdas Pophale) SiO2 
 PCOD9582378
Probable space group: P 61 2 2
;
_chemical_formula_sum "Si O2"
_cell_formula_units_Z 72
_cell_length_a 18.101465
_cell_length_b 18.101465
_cell_length_c 15.986463
_cell_angle_alpha 90.000000
_cell_angle_beta 90.000000
_cell_angle_gamma 120.000000
_cell_volume 4536.390877
_symmetry_space_group_name_H-M "P 61 2 2"
_symmetry_group_IT_number 178
_symmetry_cell_setting 'hexagonal'
loop_
_space_group_symop_operation_xyz
x,y,z
x-y,x,1/6+z
-y,x-y,1/3+z
-x,-y,1/2+z
-x+y,-x,2/3+z
y,-x+y,5/6+z
x-y,-y,-z
-x,-x+y,2/3-z
y,x,1/3-z
-y,-x,5/6-z
-x+y,y,1/2-z
x,x-y,1/6-z
loop_
_atom_site_type_symbol
_atom_site_label
_atom_site_fract_x
_atom_site_fract_y
_atom_site_fract_z
Si Si1 0.823526 0.352195 0.730364
Si Si2 0.647285 0.466616 0.257692
Si Si3 0.193196 0.488984 0.481919
Si Si4 0.605978 0.602394 0.568762
Si Si5 0.185882 0.698471 0.991904
Si Si6 0.576786 0.003860 0.904724
O O1 0.838995 0.383499 0.826793
O O2 0.752851 0.253362 0.726774
O O3 0.802139 0.417345 0.682353
O O4 0.913566 0.365064 0.696881
O O5 0.738778 0.477556 0.250000
O O6 0.579895 0.381177 0.303435
O O7 0.643555 0.547045 0.295868
O O8 0.093326 0.418695 0.473455
O O9 0.247573 0.477934 0.407631
O O10 0.627868 0.627868 0.666667
O O11 0.579468 0.664852 0.522461
O O12 0.517948 0.511328 0.570203
O O13 0.239240 0.760761 0.916667
O O14 0.603366 0.000000 0.000000
#
# Coordination Sequence:
#
# PCOD9582378 Si02
#       6
#    12  12  12  12  12  12
#     4  10  19  30  43  63  84 109 153 186 213 257
#     4  10  18  29  45  61  84 115 145 181 222 258
#     4  11  20  29  45  65  87 116 150 190 219 256
#     4   9  16  29  44  61  83 114 148 177 223 271
#     4  11  17  29  47  62  85 117 151 180 217 269
#     4   7  14  29  43  54  77 112 140 172 213 256
#
# _framework density 15.871649
#
# number of rings (size 3 to 8) (size 9 to 14) (size 15 to 20)
#    0.000    2.333    3.333    3.500    0.000    0.000 
#    3.000    0.000    0.000    0.000    0.000    0.000 
#    0.000    0.000    0.000    4.500    0.333    0.000 
#
# Total GULP energy -400891.769868 kJ/mol
# GULP energy per Si atom -5567.941248 kJ/mol
# Density = 1.583552 g / cm^3
# Si number density = 15.871649 Si / 1000 Ang^3
#
#
#
# Elastic Constant Matrix: (Units=GPa)
#
#
# Indices 1 2 3 4 5 6 
#
# 1 88.9369 49.3495 2.9608 0.0000 0.0000 0.0000
# 2 49.3495 88.9369 2.9608 0.0000 0.0000 0.0000
# 3 2.9608 2.9608 26.2966 0.0000 0.0000 0.0000
# 4 0.0000 0.0000 0.0000 18.5933 0.0000 0.0000
# 5 0.0000 0.0000 0.0000 0.0000 18.5933 0.0000
# 6 0.0000 0.0000 0.0000 0.0000 0.0000 19.7937
#
#
#
# Elastic Compliance Matrix: (Units=1/GPa)
#
#
# Indices 1 2 3 4 5 6 
#
# 1 0.016264 -0.008997 -0.000818 0.000000 0.000000 0.000000
# 2 -0.008997 0.016264 -0.000818 0.000000 0.000000 0.000000
# 3 -0.000818 -0.000818 0.038212 0.000000 0.000000 0.000000
# 4 0.000000 0.000000 0.000000 0.053783 0.000000 0.000000
# 5 0.000000 0.000000 0.000000 0.000000 0.053783 0.000000
# 6 0.000000 0.000000 0.000000 0.000000 0.000000 0.050521
#
#
# Mechanical properties :
#
#
# Convention : Reuss Voigt Hill
#
# Bulk Modulus (GPa) = 20.21338 34.96805 27.59071
# Shear Modulus (GPa) = 18.75585 21.32266 20.03926
#
# Velocity S-wave (km/s) = 3.44135 3.66928 3.55714
# Velocity P-wave (km/s) = 5.34356 6.32701 5.85597
#
# Compressibility (1/GPa) = 0.04947219
#
# Stress axis : x y z
#
# Youngs Moduli (GPa) = 61.48737 61.48737 26.16985
#
# Poissons Ratio (x) = 0.55321 0.02141
# Poissons Ratio (y) = 0.55321 0.02141
# Poissons Ratio (z) = 0.05030 0.05030
#
# Static dielectric constant tensor:
#      x y z
#    x 1.557890 0.000000 0.000000 
#    y 0.000000 1.557890 0.000000 
#    z 0.000000 0.000000 1.657680 
# 
# From -- ./inp_files/6899.got.cif
#   From: 2010.05.17/outbox.cif.g08.bks.cpg/sg178_4_cif.got.tgz:6899.got - 2010.05.20 11:30:59.
