data_PCOD9582097
_publ_section_title
;
Structure prediction by ZEFSAII (Michael W. Deem and Ramdas Pophale) SiO2 
 PCOD9582097
Probable space group: P 63/M
;
_chemical_formula_sum "Si O2"
_cell_formula_units_Z 54
_cell_length_a 11.463039
_cell_length_b 11.463039
_cell_length_c 22.025787
_cell_angle_alpha 90.000000
_cell_angle_beta 90.000000
_cell_angle_gamma 120.000000
_cell_volume 2506.464782
_symmetry_space_group_name_H-M "P 63/M"
_symmetry_group_IT_number 176
_symmetry_cell_setting 'hexagonal'
loop_
_space_group_symop_operation_xyz
x,y,z
x-y,x,1/2+z
-y,x-y,z
-x,-y,1/2+z
-x+y,-x,z
y,-x+y,1/2+z
-x,-y,-z
-x+y,-x,1/2-z
y,-x+y,-z
x,y,1/2-z
x-y,x,-z
-y,x-y,1/2-z
loop_
_atom_site_type_symbol
_atom_site_label
_atom_site_fract_x
_atom_site_fract_y
_atom_site_fract_z
Si Si1 0.666667 0.333334 0.994016
Si Si2 0.885810 0.595020 0.448539
Si Si3 0.833111 0.970331 0.250000
Si Si4 0.000000 0.000000 0.572355
Si Si5 0.996224 0.732017 0.575286
Si Si6 0.333335 0.666668 0.153615
Si Si7 0.385796 0.120892 0.853668
O O1 0.666668 0.333334 0.921110
O O2 0.639410 0.190492 0.020543
O O3 0.953955 0.697459 0.504917
O O4 0.769698 0.619203 0.419282
O O5 0.006951 0.636812 0.401531
O O6 0.737019 0.947648 0.306864
O O7 0.888815 0.864043 0.250000
O O8 0.004463 0.871160 0.593099
O O9 0.000000 0.000000 0.500000
O O10 0.867868 0.625895 0.613066
O O11 0.466053 0.801989 0.174034
#
# Coordination Sequence:
#
# PCOD9582097 Si02
#       7
#     4  12   6   4  12   4  12
#     4  12  27  42  58 104 157 192 237 268 359 454
#     4  12  23  38  63  95 139 184 227 288 347 421
#     4  10  26  50  74 104 130 166 240 314 354 400
#     4  12  15  27  51  94 113 154 216 273 343 392
#     4  12  19  33  62  94 130 170 224 285 345 411
#     4  12  27  43  70 105 148 196 228 280 353 454
#     4  12  25  43  68 101 138 184 238 288 355 412
#
# _framework density 21.544288000000002
#
# number of rings (size 3 to 8) (size 9 to 14) (size 15 to 20)
#    0.222    0.000    8.889    1.333    3.111    2.667 
#    0.000    0.000    0.000    0.000    0.000    0.000 
#    0.000    0.000    0.000    0.000    0.000    0.000 
#
# Total GULP energy -301663.952989 kJ/mol
# GULP energy per Si atom -5586.369500 kJ/mol
# Density = 2.149525 g / cm^3
# Si number density = 21.544288 Si / 1000 Ang^3
#
#
#
# Elastic Constant Matrix: (Units=GPa)
#
#
# Indices 1 2 3 4 5 6 
#
# 1 80.5429 25.1334 13.4949 0.0000 0.0000 0.0004
# 2 25.1334 80.5433 13.4948 0.0000 0.0000 0.0003
# 3 13.4949 13.4948 74.8593 0.0000 0.0000 0.0001
# 4 0.0000 0.0000 0.0000 18.5346 -0.0002 0.0000
# 5 0.0000 0.0000 0.0000 -0.0002 18.5346 0.0000
# 6 0.0004 0.0003 0.0001 0.0000 0.0000 27.7051
#
#
#
# Elastic Compliance Matrix: (Units=1/GPa)
#
#
# Indices 1 2 3 4 5 6 
#
# 1 0.013984 -0.004064 -0.001788 0.000000 0.000000 0.000000
# 2 -0.004064 0.013983 -0.001788 0.000000 0.000000 0.000000
# 3 -0.001788 -0.001788 0.014003 0.000000 0.000000 0.000000
# 4 0.000000 0.000000 0.000000 0.053953 0.000001 0.000000
# 5 0.000000 0.000000 0.000000 0.000001 0.053953 0.000000
# 6 0.000000 0.000000 0.000000 0.000000 0.000000 0.036094
#
#
# Mechanical properties :
#
#
# Convention : Reuss Voigt Hill
#
# Bulk Modulus (GPa) = 37.46802 37.79908 37.63355
# Shear Modulus (GPa) = 23.79274 25.20966 24.50120
#
# Velocity S-wave (km/s) = 3.32680 3.42443 3.37597
# Velocity P-wave (km/s) = 5.67325 5.76355 5.71858
#
# Compressibility (1/GPa) = 0.02668943
#
# Stress axis : x y z
#
# Youngs Moduli (GPa) = 71.51283 71.51328 71.41268
#
# Poissons Ratio (x) = 0.29062 0.12770
# Poissons Ratio (y) = 0.29062 0.12770
# Poissons Ratio (z) = 0.12788 0.12788
#
# Static dielectric constant tensor:
#      x y z
#    x 1.805910 0.000000 0.000000 
#    y 0.000000 1.805910 0.000000 
#    z 0.000000 0.000000 1.808470 
# 
# From -- ./inp_files/4048.got.cif
#   From: 2010.05.17/outbox.cif.g08.bks.cpg/sg176_3_cif.got.tgz:4048.got - 2010.06.03 11:36:45.
