data_PCOD9582192
_publ_section_title
;
Structure prediction by ZEFSAII (Michael W. Deem and Ramdas Pophale) SiO2 
 PCOD9582192
Probable space group: P 6 2 2
;
_chemical_formula_sum "Si O2"
_cell_formula_units_Z 90
_cell_length_a 17.871040
_cell_length_b 17.871040
_cell_length_c 17.856995
_cell_angle_alpha 90.000000
_cell_angle_beta 90.000000
_cell_angle_gamma 120.000000
_cell_volume 4938.995864
_symmetry_space_group_name_H-M "P 6 2 2"
_symmetry_group_IT_number 177
_symmetry_cell_setting 'hexagonal'
loop_
_space_group_symop_operation_xyz
x,y,z
x-y,x,z
-y,x-y,z
-x,-y,z
-x+y,-x,z
y,-x+y,z
x-y,-y,-z
-x,-x+y,-z
y,x,-z
-y,-x,-z
-x+y,y,-z
x,x-y,-z
loop_
_atom_site_type_symbol
_atom_site_label
_atom_site_fract_x
_atom_site_fract_y
_atom_site_fract_z
Si Si1 0.896815 0.103186 0.500000
Si Si2 0.822951 0.177050 0.202914
Si Si3 0.899110 0.798219 0.910077
Si Si4 0.154686 0.666760 0.580734
Si Si5 0.210015 0.105008 0.666194
Si Si6 0.154686 0.487927 0.580734
Si Si7 0.099202 0.466005 0.745488
Si Si8 0.900799 0.533996 0.254512
O O1 0.874588 0.125413 0.581647
O O2 0.000000 0.146423 0.500000
O O3 0.853188 0.146813 0.130454
O O4 0.857327 0.142674 0.272065
O O5 0.860857 0.278849 0.209664
O O6 0.721151 0.139142 0.209664
O O7 0.851612 0.851611 0.888088
O O8 0.895016 0.790032 0.000000
O O9 0.168217 0.584108 0.579288
O O10 0.246201 0.753799 0.585767
O O11 0.114257 0.667301 0.500000
O O12 0.104742 0.656646 0.657172
O O13 0.151077 0.151077 0.673509
O O14 0.104743 0.448097 0.657172
O O15 0.138427 0.569214 0.754453
O O16 0.000000 0.421281 0.766422
#
# Coordination Sequence:
#
# PCOD9582192 Si02
#       8
#     6  12  12  12  12  12  12  12
#     4   8  15  28  44  68 102 146 194 234 276 324
#     4  12  22  38  57  82 112 150 189 237 284 343
#     4  10  21  38  64  98 134 166 192 221 263 326
#     4   9  16  28  46  69  95 129 176 231 287 339
#     4  10  19  32  52  78 110 150 192 235 279 336
#     4   9  16  28  46  69  95 129 176 231 287 339
#     4  10  21  36  52  74 104 139 182 234 287 341
#     4  10  21  36  52  74 104 139 182 234 287 341
#
# _framework density 18.222327
#
# number of rings (size 3 to 8) (size 9 to 14) (size 15 to 20)
#    0.000    2.133    1.333    3.000    0.000    3.200 
#    3.200    4.000    0.000    0.800    0.000    3.733 
#    0.000    0.000    0.000    0.000    0.000    0.000 
#
# Total GULP energy -501792.798355 kJ/mol
# GULP energy per Si atom -5575.475537 kJ/mol
# Density = 1.818085 g / cm^3
# Si number density = 18.222327 Si / 1000 Ang^3
#
#
#
# Elastic Constant Matrix: (Units=GPa)
#
#
# Indices 1 2 3 4 5 6 
#
# 1 74.0997 42.9017 30.2873 0.0000 0.0000 0.0000
# 2 42.9017 74.0997 30.2873 0.0000 0.0000 0.0000
# 3 30.2873 30.2873 39.3897 0.0000 0.0000 0.0000
# 4 0.0000 0.0000 0.0000 24.2915 0.0000 0.0000
# 5 0.0000 0.0000 0.0000 0.0000 24.2915 0.0000
# 6 0.0000 0.0000 0.0000 0.0000 0.0000 15.5990
#
#
#
# Elastic Compliance Matrix: (Units=1/GPa)
#
#
# Indices 1 2 3 4 5 6 
#
# 1 0.023126 -0.008927 -0.010918 0.000000 0.000000 0.000000
# 2 -0.008927 0.023126 -0.010918 0.000000 0.000000 0.000000
# 3 -0.010918 -0.010918 0.042178 0.000000 0.000000 0.000000
# 4 0.000000 0.000000 0.000000 0.041167 0.000000 0.000000
# 5 0.000000 0.000000 0.000000 0.000000 0.041167 0.000000
# 6 0.000000 0.000000 0.000000 0.000000 0.000000 0.064107
#
#
# Mechanical properties :
#
#
# Convention : Reuss Voigt Hill
#
# Bulk Modulus (GPa) = 37.16932 43.83796 40.50364
# Shear Modulus (GPa) = 16.37382 18.44390 17.40886
#
# Velocity S-wave (km/s) = 3.00085 3.18490 3.09424
# Velocity P-wave (km/s) = 5.69638 6.13468 5.91959
#
# Compressibility (1/GPa) = 0.02690391
#
# Stress axis : x y z
#
# Youngs Moduli (GPa) = 43.24054 43.24054 23.70921
#
# Poissons Ratio (x) = 0.38600 0.25886
# Poissons Ratio (y) = 0.38600 0.25886
# Poissons Ratio (z) = 0.47211 0.47211
#
# Static dielectric constant tensor:
#      x y z
#    x 1.631180 0.000000 0.000000 
#    y 0.000000 1.631180 0.000000 
#    z 0.000000 0.000000 1.644630 
# 
# From -- ./inp_files/2937.got.cif
#   From: 2010.05.17/outbox.cif.g08.bks.cpg/sg177_2_cif.got.tgz:2937.got - 2010.05.20 11:28:44.
