data_PCOD9582735
_publ_section_title
;
Structure prediction by ZEFSAII (Michael W. Deem and Ramdas Pophale) SiO2 
 PCOD9582735
Probable space group: P 61 2 2
;
_chemical_formula_sum "Si O2"
_cell_formula_units_Z 36
_cell_length_a 10.276368
_cell_length_b 10.276368
_cell_length_c 13.706722
_cell_angle_alpha 90.000000
_cell_angle_beta 90.000000
_cell_angle_gamma 120.000000
_cell_volume 1253.555401
_symmetry_space_group_name_H-M "P 61 2 2"
_symmetry_group_IT_number 178
_symmetry_cell_setting 'hexagonal'
loop_
_space_group_symop_operation_xyz
x,y,z
x-y,x,1/6+z
-y,x-y,1/3+z
-x,-y,1/2+z
-x+y,-x,2/3+z
y,-x+y,5/6+z
x-y,-y,-z
-x,-x+y,2/3-z
y,x,1/3-z
-y,-x,5/6-z
-x+y,y,1/2-z
x,x-y,1/6-z
loop_
_atom_site_type_symbol
_atom_site_label
_atom_site_fract_x
_atom_site_fract_y
_atom_site_fract_z
Si Si1 0.306349 0.891636 0.330340
Si Si2 0.419932 0.827239 0.863348
Si Si3 0.779556 0.901001 0.731300
O O1 0.183174 0.816827 0.416667
O O2 0.246085 0.752441 0.255538
O O3 0.476416 0.989816 0.373461
O O4 0.323487 0.034605 0.269196
O O5 0.256953 0.743048 0.916667
O O6 0.386269 0.772538 0.750000
O O7 0.849679 0.887399 0.830104
O O8 0.760600 0.760600 0.666667
#
# Coordination Sequence:
#
# PCOD9582735 Si02
#       3
#    12  12  12
#     4  12  26  49  88 122 163 239 307 379 463 557
#     4  12  29  55  81 122 175 229 300 368 465 567
#     4  10  22  36  66 119 171 214 291 381 460 517
#
# _framework density 28.718312999999998
#
# number of rings (size 3 to 8) (size 9 to 14) (size 15 to 20)
#    0.000    0.667    3.333    3.000    9.333    2.667 
#    6.000    0.000    0.000    0.000    0.000    0.000 
#    0.000    0.000    0.000    0.000    0.000    0.000 
#
# Total GULP energy -200428.308149 kJ/mol
# GULP energy per Si atom -5567.453004 kJ/mol
# Density = 2.865295 g / cm^3
# Si number density = 28.718313 Si / 1000 Ang^3
#
#
#
# Elastic Constant Matrix: (Units=GPa)
#
#
# Indices 1 2 3 4 5 6 
#
# 1 143.3500 48.3154 51.6099 0.0000 0.0000 0.0000
# 2 48.3154 143.3500 51.6099 0.0000 0.0000 0.0000
# 3 51.6099 51.6099 181.7046 0.0000 0.0000 0.0000
# 4 0.0000 0.0000 0.0000 46.5899 0.0000 0.0000
# 5 0.0000 0.0000 0.0000 0.0000 46.5899 0.0000
# 6 0.0000 0.0000 0.0000 0.0000 0.0000 47.5173
#
#
#
# Elastic Compliance Matrix: (Units=1/GPa)
#
#
# Indices 1 2 3 4 5 6 
#
# 1 0.008341 -0.002181 -0.001750 0.000000 0.000000 0.000000
# 2 -0.002181 0.008341 -0.001750 0.000000 0.000000 0.000000
# 3 -0.001750 -0.001750 0.006497 0.000000 0.000000 0.000000
# 4 0.000000 0.000000 0.000000 0.021464 0.000000 0.000000
# 5 0.000000 0.000000 0.000000 0.000000 0.021464 0.000000
# 6 0.000000 0.000000 0.000000 0.000000 0.000000 0.021045
#
#
# Mechanical properties :
#
#
# Convention : Reuss Voigt Hill
#
# Bulk Modulus (GPa) = 84.61376 85.71944 85.16660
# Shear Modulus (GPa) = 48.80307 49.26403 49.03355
#
# Velocity S-wave (km/s) = 4.12681 4.14626 4.13655
# Velocity P-wave (km/s) = 7.22736 7.26878 7.24810
#
# Compressibility (1/GPa) = 0.01181841
#
# Stress axis : x y z
#
# Youngs Moduli (GPa) = 119.88897 119.88897 153.91044
#
# Poissons Ratio (x) = 0.26153 0.26927
# Poissons Ratio (y) = 0.26153 0.26927
# Poissons Ratio (z) = 0.20975 0.20975
#
# Static dielectric constant tensor:
#      x y z
#    x 2.454160 0.000000 0.000000 
#    y 0.000000 2.454160 0.000000 
#    z 0.000000 0.000000 2.349290 
# 
# From -- ./inp_files/5080.got.cif
#   From: 2010.05.17/outbox.cif.g08.bks.cpg/sg178_3_cif.got.tgz:5080.got - 2010.05.20 11:30:59.
