data_PCOD9582397
_publ_section_title
;
Structure prediction by ZEFSAII (Michael W. Deem and Ramdas Pophale) SiO2 
 PCOD9582397
Probable space group: P 61 2 2
;
_chemical_formula_sum "Si O2"
_cell_formula_units_Z 78
_cell_length_a 18.294923
_cell_length_b 18.294923
_cell_length_c 16.433113
_cell_angle_alpha 90.000000
_cell_angle_beta 90.000000
_cell_angle_gamma 120.000000
_cell_volume 4763.340695
_symmetry_space_group_name_H-M "P 61 2 2"
_symmetry_group_IT_number 178
_symmetry_cell_setting 'hexagonal'
loop_
_space_group_symop_operation_xyz
x,y,z
x-y,x,1/6+z
-y,x-y,1/3+z
-x,-y,1/2+z
-x+y,-x,2/3+z
y,-x+y,5/6+z
x-y,-y,-z
-x,-x+y,2/3-z
y,x,1/3-z
-y,-x,5/6-z
-x+y,y,1/2-z
x,x-y,1/6-z
loop_
_atom_site_type_symbol
_atom_site_label
_atom_site_fract_x
_atom_site_fract_y
_atom_site_fract_z
Si Si1 0.428353 0.660102 0.652874
Si Si2 0.393556 0.956588 0.745842
Si Si3 0.533351 0.266676 0.583334
Si Si4 0.849964 0.513085 0.099291
Si Si5 0.933992 0.563963 0.761688
Si Si6 0.789904 0.218631 0.609501
Si Si7 0.901854 0.704745 0.819138
O O1 0.395511 0.697756 0.583334
O O2 0.356668 0.594243 0.709956
O O3 0.470925 0.613706 0.606002
O O4 0.498224 0.735216 0.709290
O O5 0.465251 0.930502 0.750000
O O6 0.386708 0.973979 0.840890
O O7 0.306474 0.878671 0.712419
O O8 0.431341 0.050499 0.710175
O O9 0.485893 0.282020 0.509359
O O10 0.835093 0.417547 0.083334
O O11 0.820635 0.547528 0.020798
O O12 0.894484 0.623556 0.773576
O O13 0.000000 0.584411 0.833334
O O14 0.813872 0.152382 0.567297
O O15 0.872955 0.745909 0.750000
O O16 0.000000 0.765327 0.833334
#
# Coordination Sequence:
#
# PCOD9582397 Si02
#       7
#    12  12   6  12  12  12  12
#     4  11  21  34  53  77 100 136 178 223 270 322
#     4  11  23  35  54  81 107 141 188 226 269 332
#     4  12  26  38  52  70 112 142 190 234 276 318
#     4  11  24  41  54  77 109 148 185 241 281 319
#     4  10  19  33  52  73 105 138 170 215 274 325
#     4  11  21  37  57  80 110 144 183 224 281 335
#     4  10  18  32  56  85 118 143 170 219 281 344
#
# _framework density 16.375062
#
# number of rings (size 3 to 8) (size 9 to 14) (size 15 to 20)
#    0.000    1.231    4.615    4.154    5.385    0.000 
#    0.000    0.769    0.000    0.000    0.000    0.000 
#    2.308    0.000    0.000    0.000    0.000    0.000 
#
# Total GULP energy -434421.278616 kJ/mol
# GULP energy per Si atom -5569.503572 kJ/mol
# Density = 1.633779 g / cm^3
# Si number density = 16.375062 Si / 1000 Ang^3
#
#
#
# Elastic Constant Matrix: (Units=GPa)
#
#
# Indices 1 2 3 4 5 6 
#
# 1 58.7054 56.4952 24.9615 0.0000 0.0000 0.0000
# 2 56.4952 58.7054 24.9615 0.0000 0.0000 0.0000
# 3 24.9615 24.9615 69.1782 0.0000 0.0000 0.0000
# 4 0.0000 0.0000 0.0000 74.8954 0.0000 0.0000
# 5 0.0000 0.0000 0.0000 0.0000 74.8954 0.0000
# 6 0.0000 0.0000 0.0000 0.0000 0.0000 1.1051
#
#
#
# Elastic Compliance Matrix: (Units=1/GPa)
#
#
# Indices 1 2 3 4 5 6 
#
# 1 0.231375 -0.221085 -0.003713 0.000000 0.000000 0.000000
# 2 -0.221085 0.231375 -0.003713 0.000000 0.000000 0.000000
# 3 -0.003713 -0.003713 0.017135 0.000000 0.000000 0.000000
# 4 0.000000 0.000000 0.000000 0.013352 0.000000 0.000000
# 5 0.000000 0.000000 0.000000 0.000000 0.013352 0.000000
# 6 0.000000 0.000000 0.000000 0.000000 0.000000 0.904921
#
#
# Mechanical properties :
#
#
# Convention : Reuss Voigt Hill
#
# Bulk Modulus (GPa) = 43.73931 44.38058 44.05994
# Shear Modulus (GPa) = 2.66503 35.52388 19.09446
#
# Velocity S-wave (km/s) = 1.27712 4.66272 3.41848
# Velocity P-wave (km/s) = 5.37993 7.49329 6.52277
#
# Compressibility (1/GPa) = 0.02286273
#
# Stress axis : x y z
#
# Youngs Moduli (GPa) = 4.32199 4.32199 58.36100
#
# Poissons Ratio (x) = 0.95553 0.21668
# Poissons Ratio (y) = 0.95553 0.21668
# Poissons Ratio (z) = 0.01605 0.01605
#
# Static dielectric constant tensor:
#      x y z
#    x 1.401760 0.000000 0.000000 
#    y 0.000000 1.401760 0.000000 
#    z 0.000000 0.000000 1.748410 
# 
# From -- ./inp_files/6973.got.cif
#   From: 2010.05.17/outbox.cif.g08.bks.cpg/sg178_4_cif.got.tgz:6973.got - 2010.05.20 11:30:59.
