data_PCOD9582335
_publ_section_title
;
Structure prediction by ZEFSAII (Michael W. Deem and Ramdas Pophale) SiO2 
 PCOD9582335
Probable space group: P 61 2 2
;
_chemical_formula_sum "Si O2"
_cell_formula_units_Z 84
_cell_length_a 20.994586
_cell_length_b 20.994586
_cell_length_c 12.855010
_cell_angle_alpha 90.000000
_cell_angle_beta 90.000000
_cell_angle_gamma 120.000000
_cell_volume 4907.018334
_symmetry_space_group_name_H-M "P 61 2 2"
_symmetry_group_IT_number 178
_symmetry_cell_setting 'hexagonal'
loop_
_space_group_symop_operation_xyz
x,y,z
x-y,x,1/6+z
-y,x-y,1/3+z
-x,-y,1/2+z
-x+y,-x,2/3+z
y,-x+y,5/6+z
x-y,-y,-z
-x,-x+y,2/3-z
y,x,1/3-z
-y,-x,5/6-z
-x+y,y,1/2-z
x,x-y,1/6-z
loop_
_atom_site_type_symbol
_atom_site_label
_atom_site_fract_x
_atom_site_fract_y
_atom_site_fract_z
Si Si1 0.566582 0.291973 0.961815
Si Si2 0.213442 0.272375 0.977703
Si Si3 0.263371 0.105891 0.197588
Si Si4 0.644706 0.483258 0.479286
Si Si5 0.373745 0.987798 0.121626
Si Si6 0.583661 0.869467 0.760162
Si Si7 0.802123 0.202625 0.040650
O O1 0.641036 0.358965 0.916667
O O2 0.545835 0.213784 0.912370
O O3 0.497170 0.302284 0.935457
O O4 0.574725 0.287363 0.083334
O O5 0.231070 0.210338 0.941051
O O6 0.200403 0.323455 0.897582
O O7 0.144886 0.237646 0.053995
O O8 0.285896 0.329765 0.041809
O O9 0.351998 0.141854 0.209063
O O10 0.246505 0.123253 0.083334
O O11 0.586442 0.413559 0.416667
O O12 0.612307 0.536062 0.505498
O O13 0.720173 0.533905 0.417002
O O14 0.405015 0.056107 0.203738
O O15 0.394745 0.000000 0.000000
O O16 0.595603 0.859129 0.884597
O O17 0.795742 0.204259 0.916667
#
# Coordination Sequence:
#
# PCOD9582335 Si02
#       7
#    12  12  12  12  12  12  12
#     4  11  22  36  54  76 102 137 180 221 263 320
#     4   9  18  29  48  79 103 131 173 212 259 318
#     4  10  16  28  49  76 106 131 162 209 264 315
#     4  10  22  37  53  77 108 140 177 222 275 330
#     4  10  18  34  56  78 107 137 169 222 282 326
#     4   9  19  33  53  80 103 133 179 224 268 322
#     4   9  19  37  56  74 105 143 182 228 271 317
#
# _framework density 17.118338999999999
#
# number of rings (size 3 to 8) (size 9 to 14) (size 15 to 20)
#    0.000    2.286    0.000    4.714    0.000    3.429 
#    0.000   12.857    0.000    0.000    0.000    5.000 
#    0.000    0.000    0.000    0.000    0.000    0.000 
#
# Total GULP energy -467697.627288 kJ/mol
# GULP energy per Si atom -5567.828896 kJ/mol
# Density = 1.707938 g / cm^3
# Si number density = 17.118339 Si / 1000 Ang^3
#
#
#
# Elastic Constant Matrix: (Units=GPa)
#
#
# Indices 1 2 3 4 5 6 
#
# 1 53.2469 27.4190 38.1687 0.0000 0.0000 0.0000
# 2 27.4190 53.2469 38.1687 0.0000 0.0000 0.0000
# 3 38.1687 38.1687 150.0377 0.0000 0.0000 0.0000
# 4 0.0000 0.0000 0.0000 16.3596 0.0000 0.0000
# 5 0.0000 0.0000 0.0000 0.0000 16.3596 0.0000
# 6 0.0000 0.0000 0.0000 0.0000 0.0000 12.9140
#
#
#
# Elastic Compliance Matrix: (Units=1/GPa)
#
#
# Indices 1 2 3 4 5 6 
#
# 1 0.027523 -0.011195 -0.004154 0.000000 0.000000 0.000000
# 2 -0.011195 0.027523 -0.004154 0.000000 0.000000 0.000000
# 3 -0.004154 -0.004154 0.008778 0.000000 0.000000 0.000000
# 4 0.000000 0.000000 0.000000 0.061126 0.000000 0.000000
# 5 0.000000 0.000000 0.000000 0.000000 0.061126 0.000000
# 6 0.000000 0.000000 0.000000 0.000000 0.000000 0.077436
#
#
# Mechanical properties :
#
#
# Convention : Reuss Voigt Hill
#
# Bulk Modulus (GPa) = 40.29185 51.56049 45.92617
# Shear Modulus (GPa) = 16.08808 19.31165 17.69986
#
# Velocity S-wave (km/s) = 3.06897 3.36240 3.21903
# Velocity P-wave (km/s) = 6.01219 6.72754 6.37990
#
# Compressibility (1/GPa) = 0.02481891
#
# Stress axis : x y z
#
# Youngs Moduli (GPa) = 36.33365 36.33365 113.91704
#
# Poissons Ratio (x) = 0.40676 0.47317
# Poissons Ratio (y) = 0.40676 0.47317
# Poissons Ratio (z) = 0.15092 0.15092
#
# Static dielectric constant tensor:
#      x y z
#    x 1.586650 0.000000 0.000000 
#    y 0.000000 1.586650 0.000000 
#    z 0.000000 0.000000 1.796450 
# 
# From -- ./inp_files/4796.got.cif
#   From: 2010.05.17/outbox.cif.g08.bks.cpg/sg178_3_cif.got.tgz:4796.got - 2010.05.20 11:30:59.
