data_PCOD9582422
_publ_section_title
;
Structure prediction by ZEFSAII (Michael W. Deem and Ramdas Pophale) SiO2 
 PCOD9582422
Probable space group: P 61 2 2
;
_chemical_formula_sum "Si O2"
_cell_formula_units_Z 66
_cell_length_a 18.408432
_cell_length_b 18.408432
_cell_length_c 13.928698
_cell_angle_alpha 90.000000
_cell_angle_beta 90.000000
_cell_angle_gamma 120.000000
_cell_volume 4087.659848
_symmetry_space_group_name_H-M "P 61 2 2"
_symmetry_group_IT_number 178
_symmetry_cell_setting 'hexagonal'
loop_
_space_group_symop_operation_xyz
x,y,z
x-y,x,1/6+z
-y,x-y,1/3+z
-x,-y,1/2+z
-x+y,-x,2/3+z
y,-x+y,5/6+z
x-y,-y,-z
-x,-x+y,2/3-z
y,x,1/3-z
-y,-x,5/6-z
-x+y,y,1/2-z
x,x-y,1/6-z
loop_
_atom_site_type_symbol
_atom_site_label
_atom_site_fract_x
_atom_site_fract_y
_atom_site_fract_z
Si Si1 0.583405 0.000000 0.500000
Si Si2 0.524230 0.734757 0.289255
Si Si3 0.564806 0.513716 0.012924
Si Si4 0.862916 0.359808 0.015640
Si Si5 0.442518 0.264230 0.174659
Si Si6 0.612545 0.247089 0.512015
O O1 0.513282 0.971132 0.583344
O O2 0.593829 0.920402 0.474288
O O3 0.541125 0.657096 0.281501
O O4 0.552209 0.817561 0.223727
O O5 0.551214 0.771372 0.395478
O O6 0.427846 0.686425 0.250773
O O7 0.542673 0.457328 0.916667
O O8 0.558854 0.596274 0.991085
O O9 0.849633 0.424817 0.083334
O O10 0.821524 0.359083 0.913539
O O11 0.539821 0.328315 0.152403
O O12 0.405788 0.202894 0.083334
O O13 0.651391 0.325696 0.583334
#
# Coordination Sequence:
#
# PCOD9582422 Si02
#       6
#     6  12  12  12  12  12
#     4  12  22  42  50  68 104 138 168 222 276 308
#     4  11  22  33  46  72  90 122 173 213 259 313
#     4  11  20  34  52  69  94 135 170 209 271 323
#     4  10  18  36  51  66  97 134 164 215 269 308
#     4  12  24  34  50  71  95 134 177 220 265 312
#     4  10  21  31  48  69  97 123 162 217 266 295
#
# _framework density 16.146158
#
# number of rings (size 3 to 8) (size 9 to 14) (size 15 to 20)
#    0.000    1.091    5.455    2.182    2.545    0.000 
#    0.000    0.000    0.000    0.000    0.000    0.000 
#    0.000    0.000    0.000    0.000    0.000  100.000 
#
# Total GULP energy -367605.201854 kJ/mol
# GULP energy per Si atom -5569.775786 kJ/mol
# Density = 1.610941 g / cm^3
# Si number density = 16.146158 Si / 1000 Ang^3
#
#
#
# Elastic Constant Matrix: (Units=GPa)
#
#
# Indices 1 2 3 4 5 6 
#
# 1 67.1682 43.4064 23.4309 0.0000 0.0000 0.0000
# 2 43.4064 67.1682 23.4309 0.0000 0.0000 0.0000
# 3 23.4309 23.4309 88.2256 0.0000 0.0000 0.0000
# 4 0.0000 0.0000 0.0000 19.8715 0.0000 0.0000
# 5 0.0000 0.0000 0.0000 0.0000 19.8715 0.0000
# 6 0.0000 0.0000 0.0000 0.0000 0.0000 11.8809
#
#
#
# Elastic Compliance Matrix: (Units=1/GPa)
#
#
# Indices 1 2 3 4 5 6 
#
# 1 0.026138 -0.015947 -0.002706 0.000000 0.000000 0.000000
# 2 -0.015947 0.026138 -0.002706 0.000000 0.000000 0.000000
# 3 -0.002706 -0.002706 0.012772 0.000000 0.000000 0.000000
# 4 0.000000 0.000000 0.000000 0.050323 0.000000 0.000000
# 5 0.000000 0.000000 0.000000 0.000000 0.050323 0.000000
# 6 0.000000 0.000000 0.000000 0.000000 0.000000 0.084169
#
#
# Mechanical properties :
#
#
# Convention : Reuss Voigt Hill
#
# Bulk Modulus (GPa) = 44.78736 44.78870 44.78803
# Shear Modulus (GPa) = 16.66528 19.14436 17.90482
#
# Velocity S-wave (km/s) = 3.21620 3.44712 3.33366
# Velocity P-wave (km/s) = 6.44909 6.60631 6.52817
#
# Compressibility (1/GPa) = 0.02232773
#
# Stress axis : x y z
#
# Youngs Moduli (GPa) = 38.25911 38.25911 78.29553
#
# Poissons Ratio (x) = 0.61011 0.21190
# Poissons Ratio (y) = 0.61011 0.21190
# Poissons Ratio (z) = 0.10355 0.10355
#
# Static dielectric constant tensor:
#      x y z
#    x 1.580990 0.000000 0.000000 
#    y 0.000000 1.580990 0.000000 
#    z 0.000000 0.000000 1.636420 
# 
# From -- ./inp_files/5920.got.cif
#   From: 2010.05.17/outbox.cif.g08.bks.cpg/sg178_3_cif.got.tgz:5920.got - 2010.05.20 11:30:59.
