data_PCOD9582856
_publ_section_title
;
Structure prediction by ZEFSAII (Michael W. Deem and Ramdas Pophale) SiO2 
 PCOD9582856
Probable space group: P 61 2 2
;
_chemical_formula_sum "Si O2"
_cell_formula_units_Z 60
_cell_length_a 14.868427
_cell_length_b 14.868427
_cell_length_c 14.049718
_cell_angle_alpha 90.000000
_cell_angle_beta 90.000000
_cell_angle_gamma 120.000000
_cell_volume 2689.851404
_symmetry_space_group_name_H-M "P 61 2 2"
_symmetry_group_IT_number 178
_symmetry_cell_setting 'hexagonal'
loop_
_space_group_symop_operation_xyz
x,y,z
x-y,x,1/6+z
-y,x-y,1/3+z
-x,-y,1/2+z
-x+y,-x,2/3+z
y,-x+y,5/6+z
x-y,-y,-z
-x,-x+y,2/3-z
y,x,1/3-z
-y,-x,5/6-z
-x+y,y,1/2-z
x,x-y,1/6-z
loop_
_atom_site_type_symbol
_atom_site_label
_atom_site_fract_x
_atom_site_fract_y
_atom_site_fract_z
Si Si1 0.985049 0.855559 0.983664
Si Si2 0.717156 0.068951 0.911587
Si Si3 0.709937 0.239041 0.309848
Si Si4 0.079442 0.570885 0.747372
Si Si5 0.317744 0.335734 0.374006
O O1 0.904784 0.878930 0.923521
O O2 0.085536 0.914464 0.916667
O O3 0.963228 0.738567 0.986965
O O4 0.823638 0.176363 0.916667
O O5 0.619694 0.087801 0.915871
O O6 0.696491 0.002531 0.816713
O O7 0.711984 0.000000 0.000000
O O8 0.717177 0.282824 0.416667
O O9 0.606783 0.213565 0.250000
O O10 0.807734 0.331804 0.259369
O O11 0.724548 0.138662 0.313899
O O12 0.000000 0.556229 0.833334
O O13 0.033610 0.596368 0.655454
#
# Coordination Sequence:
#
# PCOD9582856 Si02
#       5
#    12  12  12  12  12
#     4  10  23  43  72 104 141 188 244 315 376 447
#     4  11  28  49  70 104 148 195 252 306 377 455
#     4  12  26  43  73 110 148 188 245 304 373 452
#     4  11  24  44  73 105 145 187 239 301 366 456
#     4  12  25  46  73 106 141 197 243 310 383 447
#
# _framework density 22.306065
#
# number of rings (size 3 to 8) (size 9 to 14) (size 15 to 20)
#    0.000    0.800    2.000    4.200   11.200    1.600 
#    0.000    5.000    0.000    0.000    0.000    0.000 
#    0.000    0.000    0.000    0.000    0.000    0.000 
#
# Total GULP energy -335115.052936 kJ/mol
# GULP energy per Si atom -5585.250882 kJ/mol
# Density = 2.225530 g / cm^3
# Si number density = 22.306065 Si / 1000 Ang^3
#
#
#
# Elastic Constant Matrix: (Units=GPa)
#
#
# Indices 1 2 3 4 5 6 
#
# 1 52.0890 79.6072 30.8586 0.0000 0.0000 0.0000
# 2 79.6072 52.0890 30.8586 0.0000 0.0000 0.0000
# 3 30.8586 30.8586 124.2124 0.0000 0.0000 0.0000
# 4 0.0000 0.0000 0.0000 48.2660 0.0000 0.0000
# 5 0.0000 0.0000 0.0000 0.0000 48.2660 0.0000
# 6 0.0000 0.0000 0.0000 0.0000 0.0000 -13.7591
#
#
#
# Elastic Compliance Matrix: (Units=1/GPa)
#
#
# Indices 1 2 3 4 5 6 
#
# 1 -0.013873 0.022467 -0.002135 0.000000 0.000000 0.000000
# 2 0.022467 -0.013873 -0.002135 0.000000 0.000000 0.000000
# 3 -0.002135 -0.002135 0.009112 0.000000 0.000000 0.000000
# 4 0.000000 0.000000 0.000000 0.020718 0.000000 0.000000
# 5 0.000000 0.000000 0.000000 0.000000 0.020718 0.000000
# 6 0.000000 0.000000 0.000000 0.000000 0.000000 -0.072679
#
#
# Mechanical properties :
#
#
# Convention : Reuss Voigt Hill
#
# Bulk Modulus (GPa) = 56.30911 56.78214 56.54563
# Shear Modulus (GPa) = -62.22772 22.35899 -19.93436
#
# Velocity S-wave (km/s) = -5.28751 3.16946 -2.99268
# Velocity P-wave (km/s) = 3.46098 6.23740 3.66925
#
# Compressibility (1/GPa) = 0.01775911
#
# Stress axis : x y z
#
# Youngs Moduli (GPa) = -72.08301 -72.08301 109.75106
#
# Poissons Ratio (x) = 1.61946 0.23432
# Poissons Ratio (y) = 1.61946 0.23432
# Poissons Ratio (z) = -0.15390 -0.15390
#
# Static dielectric constant tensor:
#      x y z
#    x 1.640790 0.000000 0.000000 
#    y 0.000000 1.640790 0.000000 
#    z 0.000000 0.000000 1.842270 
# 
# From -- ./inp_files/5700.got.cif
#   From: 2010.05.17/outbox.cif.g08.bks.cpg/sg178_3_cif.got.tgz:5700.got - 2010.05.20 11:30:59.
