data_PCOD9582842
_publ_section_title
;
Structure prediction by ZEFSAII (Michael W. Deem and Ramdas Pophale) SiO2 
 PCOD9582842
Probable space group: P 61 2 2
;
_chemical_formula_sum "Si O2"
_cell_formula_units_Z 78
_cell_length_a 23.206504
_cell_length_b 23.206504
_cell_length_c 8.625497
_cell_angle_alpha 90.000000
_cell_angle_beta 90.000000
_cell_angle_gamma 120.000000
_cell_volume 4022.853343
_symmetry_space_group_name_H-M "P 61 2 2"
_symmetry_group_IT_number 178
_symmetry_cell_setting 'hexagonal'
loop_
_space_group_symop_operation_xyz
x,y,z
x-y,x,1/6+z
-y,x-y,1/3+z
-x,-y,1/2+z
-x+y,-x,2/3+z
y,-x+y,5/6+z
x-y,-y,-z
-x,-x+y,2/3-z
y,x,1/3-z
-y,-x,5/6-z
-x+y,y,1/2-z
x,x-y,1/6-z
loop_
_atom_site_type_symbol
_atom_site_label
_atom_site_fract_x
_atom_site_fract_y
_atom_site_fract_z
Si Si1 0.853236 0.146765 0.916667
Si Si2 0.872365 0.618939 0.713516
Si Si3 0.915957 0.517696 0.655419
Si Si4 0.274165 0.919471 0.227605
Si Si5 0.783485 0.043103 0.180119
Si Si6 0.121088 0.103168 0.934990
Si Si7 0.072648 0.596339 0.640953
O O1 0.795606 0.133835 0.797441
O O2 0.921809 0.178594 0.815021
O O3 0.795145 0.590290 0.750000
O O4 0.883905 0.564258 0.624937
O O5 0.896956 0.685339 0.614759
O O6 0.915453 0.643151 0.873452
O O7 0.888486 0.444243 0.583334
O O8 0.993461 0.558796 0.607834
O O9 0.916308 0.515971 0.841851
O O10 0.332162 0.903260 0.266872
O O11 0.284132 0.988868 0.298208
O O12 0.825927 0.012663 0.253034
O O13 0.111714 0.053840 0.795718
O O14 0.128516 0.064258 0.083334
O O15 0.100969 0.550485 0.583334
#
# Coordination Sequence:
#
# PCOD9582842 Si02
#       7
#     6  12  12  12  12  12  12
#     4  12  26  38  52  88 130 168 204 254 328 384
#     4  11  21  37  63  91 123 162 208 256 300 373
#     4   9  18  34  56  90 119 155 200 234 291 355
#     4  11  23  39  59  87 127 160 207 253 310 380
#     4  12  23  40  62  87 117 161 202 259 330 391
#     4  10  23  40  66  83 103 140 207 266 324 391
#     4   9  18  35  56  85 122 160 192 234 294 363
#
# _framework density 19.389222
#
# number of rings (size 3 to 8) (size 9 to 14) (size 15 to 20)
#    0.000    1.538    3.077    2.308    4.308    1.231 
#    5.538    0.000   40.615    0.000    0.000    4.308 
#    0.000    0.000    0.000    0.000    0.000    0.000 
#
# Total GULP energy -434769.684557 kJ/mol
# GULP energy per Si atom -5573.970315 kJ/mol
# Density = 1.934509 g / cm^3
# Si number density = 19.389222 Si / 1000 Ang^3
#
#
#
# Elastic Constant Matrix: (Units=GPa)
#
#
# Indices 1 2 3 4 5 6 
#
# 1 90.2628 46.1717 24.6635 0.0000 0.0000 0.0000
# 2 46.1717 90.2628 24.6635 0.0000 0.0000 0.0000
# 3 24.6635 24.6635 43.6156 0.0000 0.0000 0.0000
# 4 0.0000 0.0000 0.0000 27.3381 0.0000 0.0000
# 5 0.0000 0.0000 0.0000 0.0000 27.3381 0.0000
# 6 0.0000 0.0000 0.0000 0.0000 0.0000 22.0456
#
#
#
# Elastic Compliance Matrix: (Units=1/GPa)
#
#
# Indices 1 2 3 4 5 6 
#
# 1 0.015947 -0.006734 -0.005210 0.000000 0.000000 0.000000
# 2 -0.006734 0.015947 -0.005210 0.000000 0.000000 0.000000
# 3 -0.005210 -0.005210 0.028820 0.000000 0.000000 0.000000
# 4 0.000000 0.000000 0.000000 0.036579 0.000000 0.000000
# 5 0.000000 0.000000 0.000000 0.000000 0.036579 0.000000
# 6 0.000000 0.000000 0.000000 0.000000 0.000000 0.045361
#
#
# Mechanical properties :
#
#
# Convention : Reuss Voigt Hill
#
# Bulk Modulus (GPa) = 37.86923 46.12651 41.99787
# Shear Modulus (GPa) = 22.48809 23.92053 23.20431
#
# Velocity S-wave (km/s) = 3.40931 3.51622 3.46318
# Velocity P-wave (km/s) = 5.92211 6.35031 6.13995
#
# Compressibility (1/GPa) = 0.02640666
#
# Stress axis : x y z
#
# Youngs Moduli (GPa) = 62.70896 62.70896 34.69866
#
# Poissons Ratio (x) = 0.42226 0.18077
# Poissons Ratio (y) = 0.42226 0.18077
# Poissons Ratio (z) = 0.32670 0.32670
#
# Static dielectric constant tensor:
#      x y z
#    x 1.698070 0.000000 0.000000 
#    y 0.000000 1.698070 0.000000 
#    z 0.000000 0.000000 1.762220 
# 
# From -- ./inp_files/3532.got.cif
#   From: 2010.05.17/outbox.cif.g08.bks.cpg/sg178_2_cif.got.tgz:3532.got - 2010.05.20 11:30:59.
