data_PCOD9582766
_publ_section_title
;
Structure prediction by ZEFSAII (Michael W. Deem and Ramdas Pophale) SiO2 
 PCOD9582766
Probable space group: P 61 2 2
;
_chemical_formula_sum "Si O2"
_cell_formula_units_Z 66
_cell_length_a 14.855363
_cell_length_b 14.855363
_cell_length_c 16.364641
_cell_angle_alpha 90.000000
_cell_angle_beta 90.000000
_cell_angle_gamma 120.000000
_cell_volume 3127.545605
_symmetry_space_group_name_H-M "P 61 2 2"
_symmetry_group_IT_number 178
_symmetry_cell_setting 'hexagonal'
loop_
_space_group_symop_operation_xyz
x,y,z
x-y,x,1/6+z
-y,x-y,1/3+z
-x,-y,1/2+z
-x+y,-x,2/3+z
y,-x+y,5/6+z
x-y,-y,-z
-x,-x+y,2/3-z
y,x,1/3-z
-y,-x,5/6-z
-x+y,y,1/2-z
x,x-y,1/6-z
loop_
_atom_site_type_symbol
_atom_site_label
_atom_site_fract_x
_atom_site_fract_y
_atom_site_fract_z
Si Si1 0.731834 0.039848 0.187993
Si Si2 0.824766 0.118363 0.030540
Si Si3 0.934139 0.492915 0.181186
Si Si4 0.910305 0.000000 0.500000
Si Si5 0.756842 0.513683 0.250000
Si Si6 0.409254 0.000000 0.000000
Si Si7 0.331685 0.173484 0.176938
O O1 0.811439 0.125101 0.126583
O O2 0.741135 0.098724 0.271496
O O3 0.757681 0.947013 0.184072
O O4 0.617184 0.989139 0.153599
O O5 0.765685 0.170878 0.986684
O O6 0.774997 0.000000 0.000000
O O7 0.817130 0.455552 0.216577
O O8 0.999250 0.469764 0.250358
O O9 0.929970 0.464985 0.083334
O O10 0.886886 0.093188 0.517799
O O11 0.975534 0.024467 0.416667
O O12 0.383992 0.089723 0.970174
O O13 0.357928 0.178964 0.083334
#
# Coordination Sequence:
#
# PCOD9582766 Si02
#       7
#    12  12  12   6   6   6  12
#     4  11  24  37  69  96 137 169 224 269 326 397
#     4  11  19  39  61  98 133 180 209 261 327 396
#     4  11  23  42  71 104 128 177 230 281 345 409
#     4   9  20  38  58  85 130 174 219 252 300 362
#     4  10  22  40  66 100 142 164 222 288 340 398
#     4  11  24  44  72  97 130 180 229 272 338 418
#     4  10  23  42  63  91 129 176 214 265 325 386
#
# _framework density 21.102810000000002
#
# number of rings (size 3 to 8) (size 9 to 14) (size 15 to 20)
#    0.000    1.455    3.636    2.182   12.727    0.000 
#    1.636    0.909    2.000    0.000    0.000    0.000 
#    0.000    0.000    0.000    0.000    0.000    0.000 
#
# Total GULP energy -367449.047219 kJ/mol
# GULP energy per Si atom -5567.409806 kJ/mol
# Density = 2.105478 g / cm^3
# Si number density = 21.102810 Si / 1000 Ang^3
#
#
#
# Elastic Constant Matrix: (Units=GPa)
#
#
# Indices 1 2 3 4 5 6 
#
# 1 28.2258 25.9039 21.8980 0.0000 0.0000 0.0000
# 2 25.9039 28.2258 21.8980 0.0000 0.0000 0.0000
# 3 21.8980 21.8980 127.2268 0.0000 0.0000 0.0000
# 4 0.0000 0.0000 0.0000 30.0822 0.0000 0.0000
# 5 0.0000 0.0000 0.0000 0.0000 30.0822 0.0000
# 6 0.0000 0.0000 0.0000 0.0000 0.0000 1.1610
#
#
#
# Elastic Compliance Matrix: (Units=1/GPa)
#
#
# Indices 1 2 3 4 5 6 
#
# 1 0.226071 -0.204608 -0.003694 0.000000 0.000000 0.000000
# 2 -0.204608 0.226071 -0.003694 0.000000 0.000000 0.000000
# 3 -0.003694 -0.003694 0.009132 0.000000 0.000000 0.000000
# 4 0.000000 0.000000 0.000000 0.033242 0.000000 0.000000
# 5 0.000000 0.000000 0.000000 0.000000 0.033242 0.000000
# 6 0.000000 0.000000 0.000000 0.000000 0.000000 0.861360
#
#
# Mechanical properties :
#
#
# Convention : Reuss Voigt Hill
#
# Bulk Modulus (GPa) = 26.82321 35.89756 31.36039
# Shear Modulus (GPa) = 2.73892 19.86364 11.30128
#
# Velocity S-wave (km/s) = 1.14049 3.07136 2.31667
# Velocity P-wave (km/s) = 3.80429 5.44292 4.69563
#
# Compressibility (1/GPa) = 0.03728114
#
# Stress axis : x y z
#
# Youngs Moduli (GPa) = 4.42338 4.42338 109.50922
#
# Poissons Ratio (x) = 0.90506 0.40455
# Poissons Ratio (y) = 0.90506 0.40455
# Poissons Ratio (z) = 0.01634 0.01634
#
# Static dielectric constant tensor:
#      x y z
#    x 1.622630 0.000000 0.000000 
#    y 0.000000 1.622630 0.000000 
#    z 0.000000 0.000000 1.841240 
# 
# From -- ./inp_files/6725.got.cif
#   From: 2010.05.17/outbox.cif.g08.bks.cpg/sg178_4_cif.got.tgz:6725.got - 2010.05.20 11:30:59.
