data_PCOD9582731
_publ_section_title
;
Structure prediction by ZEFSAII (Michael W. Deem and Ramdas Pophale) SiO2 
 PCOD9582731
Probable space group: P 61 2 2
;
_chemical_formula_sum "Si O2"
_cell_formula_units_Z 42
_cell_length_a 12.332995
_cell_length_b 12.332995
_cell_length_c 15.609268
_cell_angle_alpha 90.000000
_cell_angle_beta 90.000000
_cell_angle_gamma 120.000000
_cell_volume 2056.128627
_symmetry_space_group_name_H-M "P 61 2 2"
_symmetry_group_IT_number 178
_symmetry_cell_setting 'hexagonal'
loop_
_space_group_symop_operation_xyz
x,y,z
x-y,x,1/6+z
-y,x-y,1/3+z
-x,-y,1/2+z
-x+y,-x,2/3+z
y,-x+y,5/6+z
x-y,-y,-z
-x,-x+y,2/3-z
y,x,1/3-z
-y,-x,5/6-z
-x+y,y,1/2-z
x,x-y,1/6-z
loop_
_atom_site_type_symbol
_atom_site_label
_atom_site_fract_x
_atom_site_fract_y
_atom_site_fract_z
Si Si1 0.158462 0.079231 0.583334
Si Si2 0.710384 0.477763 0.569975
Si Si3 0.000000 0.507284 0.833334
Si Si4 0.359037 0.318546 0.821234
Si Si5 0.887068 0.443534 0.083334
O O1 0.082666 0.082666 0.666667
O O2 0.246357 0.220916 0.550338
O O3 0.758833 0.379417 0.583334
O O4 0.638192 0.513722 0.640798
O O5 0.822191 0.596579 0.523555
O O6 0.603713 0.405875 0.499439
O O7 0.960906 0.410504 0.753713
O O8 0.378907 0.408983 0.901542
#
# Coordination Sequence:
#
# PCOD9582731 Si02
#       5
#     6  12   6  12   6
#     4  12  26  46  77  97 140 200 256 308 364 456
#     4  11  22  40  63  99 138 175 222 287 358 420
#     4  10  24  38  70 102 134 184 218 292 362 444
#     4  11  22  44  66  99 132 182 238 286 361 447
#     4  10  22  34  63  97 132 176 222 284 352 426
#
# _framework density 20.426739000000001
#
# number of rings (size 3 to 8) (size 9 to 14) (size 15 to 20)
#    0.000    1.143    2.857    3.429    8.000    0.000 
#    2.571    0.000    0.000    0.000    0.000    0.000 
#    0.000    0.000    0.000    0.000    0.000    0.000 
#
# Total GULP energy -234126.047077 kJ/mol
# GULP energy per Si atom -5574.429692 kJ/mol
# Density = 2.038025 g / cm^3
# Si number density = 20.426739 Si / 1000 Ang^3
#
#
#
# Elastic Constant Matrix: (Units=GPa)
#
#
# Indices 1 2 3 4 5 6 
#
# 1 112.4274 42.9205 40.1955 0.0000 0.0000 0.0000
# 2 42.9205 112.4274 40.1955 0.0000 0.0000 0.0000
# 3 40.1955 40.1955 83.2568 0.0000 0.0000 0.0000
# 4 0.0000 0.0000 0.0000 35.9269 0.0000 0.0000
# 5 0.0000 0.0000 0.0000 0.0000 35.9269 0.0000
# 6 0.0000 0.0000 0.0000 0.0000 0.0000 34.7535
#
#
#
# Elastic Compliance Matrix: (Units=1/GPa)
#
#
# Indices 1 2 3 4 5 6 
#
# 1 0.011484 -0.002903 -0.004143 0.000000 0.000000 0.000000
# 2 -0.002903 0.011484 -0.004143 0.000000 0.000000 0.000000
# 3 -0.004143 -0.004143 0.016011 0.000000 0.000000 0.000000
# 4 0.000000 0.000000 0.000000 0.027834 0.000000 0.000000
# 5 0.000000 0.000000 0.000000 0.000000 0.027834 0.000000
# 6 0.000000 0.000000 0.000000 0.000000 0.000000 0.028774
#
#
# Mechanical properties :
#
#
# Convention : Reuss Voigt Hill
#
# Bulk Modulus (GPa) = 60.23369 61.63717 60.93543
# Shear Modulus (GPa) = 33.03963 33.64146 33.34054
#
# Velocity S-wave (km/s) = 4.02614 4.06264 4.04443
# Velocity P-wave (km/s) = 7.15295 7.22821 7.19068
#
# Compressibility (1/GPa) = 0.01660200
#
# Stress axis : x y z
#
# Youngs Moduli (GPa) = 87.07729 87.07729 62.45606
#
# Poissons Ratio (x) = 0.25279 0.25875
# Poissons Ratio (y) = 0.25279 0.25875
# Poissons Ratio (z) = 0.36075 0.36075
#
# Static dielectric constant tensor:
#      x y z
#    x 1.800830 0.000000 0.000000 
#    y 0.000000 1.800830 0.000000 
#    z 0.000000 0.000000 1.770640 
# 
# From -- ./inp_files/6417.got.cif
#   From: 2010.05.17/outbox.cif.g08.bks.cpg/sg178_4_cif.got.tgz:6417.got - 2010.05.20 11:30:59.
