data_PCOD9582697
_publ_section_title
;
Structure prediction by ZEFSAII (Michael W. Deem and Ramdas Pophale) SiO2 
 PCOD9582697
Probable space group: P 61 2 2
;
_chemical_formula_sum "Si O2"
_cell_formula_units_Z 54
_cell_length_a 13.921043
_cell_length_b 13.921043
_cell_length_c 16.950391
_cell_angle_alpha 90.000000
_cell_angle_beta 90.000000
_cell_angle_gamma 120.000000
_cell_volume 2844.814168
_symmetry_space_group_name_H-M "P 61 2 2"
_symmetry_group_IT_number 178
_symmetry_cell_setting 'hexagonal'
loop_
_space_group_symop_operation_xyz
x,y,z
x-y,x,1/6+z
-y,x-y,1/3+z
-x,-y,1/2+z
-x+y,-x,2/3+z
y,-x+y,5/6+z
x-y,-y,-z
-x,-x+y,2/3-z
y,x,1/3-z
-y,-x,5/6-z
-x+y,y,1/2-z
x,x-y,1/6-z
loop_
_atom_site_type_symbol
_atom_site_label
_atom_site_fract_x
_atom_site_fract_y
_atom_site_fract_z
Si Si1 0.836373 0.325086 0.479176
Si Si2 0.061666 0.938335 0.416667
Si Si3 0.058797 0.531906 0.675921
Si Si4 0.736003 0.226676 0.180959
Si Si5 0.684084 0.978778 0.907832
O O1 0.770120 0.229881 0.416667
O O2 0.779867 0.401277 0.489864
O O3 0.829104 0.277266 0.566603
O O4 0.960402 0.414240 0.453131
O O5 0.189295 0.984668 0.390400
O O6 0.000000 0.937371 0.333334
O O7 0.033037 0.516519 0.583334
O O8 0.172081 0.645356 0.686447
O O9 0.049181 0.417110 0.703016
O O10 0.752589 0.148554 0.118976
O O11 0.682441 0.000000 0.000000
#
# Coordination Sequence:
#
# PCOD9582697 Si02
#       5
#    12   6  12  12  12
#     4  10  21  39  55  88 126 159 199 251 309 375
#     4  10  24  44  74  92 128 168 228 292 332 394
#     4  11  22  38  61  87 128 163 199 257 310 380
#     4  10  22  38  61  87 126 159 205 258 308 378
#     4  10  23  40  64  96 124 165 217 264 321 392
#
# _framework density 18.981908000000001
#
# number of rings (size 3 to 8) (size 9 to 14) (size 15 to 20)
#    0.000    1.778    4.444    0.667   12.444    1.778 
#    0.000    0.000    9.778    0.000    0.000    0.000 
#    0.000    0.000    0.000    0.000    0.000    0.000 
#
# Total GULP energy -301015.482456 kJ/mol
# GULP energy per Si atom -5574.360786 kJ/mol
# Density = 1.893870 g / cm^3
# Si number density = 18.981908 Si / 1000 Ang^3
#
#
#
# Elastic Constant Matrix: (Units=GPa)
#
#
# Indices 1 2 3 4 5 6 
#
# 1 68.2259 15.2962 25.9560 0.0000 0.0000 0.0000
# 2 15.2962 68.2259 25.9560 0.0000 0.0000 0.0000
# 3 25.9560 25.9560 107.4789 0.0000 0.0000 0.0000
# 4 0.0000 0.0000 0.0000 31.5885 0.0000 0.0000
# 5 0.0000 0.0000 0.0000 0.0000 31.5885 0.0000
# 6 0.0000 0.0000 0.0000 0.0000 0.0000 26.4649
#
#
#
# Elastic Compliance Matrix: (Units=1/GPa)
#
#
# Indices 1 2 3 4 5 6 
#
# 1 0.016490 -0.002403 -0.003402 0.000000 0.000000 0.000000
# 2 -0.002403 0.016490 -0.003402 0.000000 0.000000 0.000000
# 3 -0.003402 -0.003402 0.010947 0.000000 0.000000 0.000000
# 4 0.000000 0.000000 0.000000 0.031657 0.000000 0.000000
# 5 0.000000 0.000000 0.000000 0.000000 0.031657 0.000000
# 6 0.000000 0.000000 0.000000 0.000000 0.000000 0.037786
#
#
# Mechanical properties :
#
#
# Convention : Reuss Voigt Hill
#
# Bulk Modulus (GPa) = 39.19448 42.03856 40.61652
# Shear Modulus (GPa) = 29.07884 29.70988 29.39436
#
# Velocity S-wave (km/s) = 3.91823 3.96051 3.93943
# Velocity P-wave (km/s) = 6.41585 6.56574 6.49123
#
# Compressibility (1/GPa) = 0.02551379
#
# Stress axis : x y z
#
# Youngs Moduli (GPa) = 60.64216 60.64216 91.34635
#
# Poissons Ratio (x) = 0.14571 0.31077
# Poissons Ratio (y) = 0.14571 0.31077
# Poissons Ratio (z) = 0.20631 0.20631
#
# Static dielectric constant tensor:
#      x y z
#    x 1.709380 0.000000 0.000000 
#    y 0.000000 1.709380 0.000000 
#    z 0.000000 0.000000 1.683280 
# 
# From -- ./inp_files/5550.got.cif
#   From: 2010.05.17/outbox.cif.g08.bks.cpg/sg178_3_cif.got.tgz:5550.got - 2010.05.20 11:30:59.
