data_PCOD9582085
_publ_section_title
;
Structure prediction by ZEFSAII (Michael W. Deem and Ramdas Pophale) SiO2 
 PCOD9582085
Probable space group: P 63/M
;
_chemical_formula_sum "Si O2"
_cell_formula_units_Z 34
_cell_length_a 9.940330
_cell_length_b 9.940330
_cell_length_c 19.042716
_cell_angle_alpha 90.000000
_cell_angle_beta 90.000000
_cell_angle_gamma 120.000000
_cell_volume 1629.525372
_symmetry_space_group_name_H-M "P 63/M"
_symmetry_group_IT_number 176
_symmetry_cell_setting 'hexagonal'
loop_
_space_group_symop_operation_xyz
x,y,z
x-y,x,1/2+z
-y,x-y,z
-x,-y,1/2+z
-x+y,-x,z
y,-x+y,1/2+z
-x,-y,-z
-x+y,-x,1/2-z
y,-x+y,-z
x,y,1/2-z
x-y,x,-z
-y,x-y,1/2-z
loop_
_atom_site_type_symbol
_atom_site_label
_atom_site_fract_x
_atom_site_fract_y
_atom_site_fract_z
Si Si1 0.474606 0.284123 0.482078
Si Si2 0.676272 0.911753 0.110539
Si Si3 0.000000 0.000000 0.166481
Si Si4 0.848031 0.346072 0.750000
O O1 0.547225 0.171953 0.466842
O O2 0.427779 0.240119 0.563294
O O3 0.331151 0.267974 0.438573
O O4 0.587758 0.925731 0.178229
O O5 0.825921 0.909079 0.138175
O O6 0.000000 0.000000 0.250000
O O7 0.808026 0.483648 0.750000
#
# Coordination Sequence:
#
# PCOD9582085 Si02
#       4
#    12  12   4   6
#     4  10  24  41  69 102 133 176 226 279 339 401
#     4  12  22  46  67  98 140 175 230 284 336 412
#     4  12  27  43  65 100 126 184 224 286 333 394
#     4  10  24  42  70  96 130 184 222 272 348 408
#
# _framework density 20.864974
#
# number of rings (size 3 to 8) (size 9 to 14) (size 15 to 20)
#    1.059    0.000    1.765    5.294    0.000    4.235 
#    0.000    1.765    0.000    0.000    0.000    0.000 
#    0.000    0.000    0.000    0.000    0.000    0.000 
#
# Total GULP energy -189673.013820 kJ/mol
# GULP energy per Si atom -5578.618054 kJ/mol
# Density = 2.081748 g / cm^3
# Si number density = 20.864974 Si / 1000 Ang^3
#
#
#
# Elastic Constant Matrix: (Units=GPa)
#
#
# Indices 1 2 3 4 5 6 
#
# 1 40.8114 18.0909 20.9147 0.0000 0.0000 0.0000
# 2 18.0909 40.8114 20.9147 0.0000 0.0000 0.0000
# 3 20.9147 20.9147 127.4413 0.0000 0.0000 0.0000
# 4 0.0000 0.0000 0.0000 25.2362 0.0000 0.0000
# 5 0.0000 0.0000 0.0000 0.0000 25.2362 0.0000
# 6 0.0000 0.0000 0.0000 0.0000 0.0000 11.3603
#
#
#
# Elastic Compliance Matrix: (Units=1/GPa)
#
#
# Indices 1 2 3 4 5 6 
#
# 1 0.031615 -0.012398 -0.003154 0.000000 0.000000 0.000000
# 2 -0.012398 0.031615 -0.003154 0.000000 0.000000 0.000000
# 3 -0.003154 -0.003154 0.008882 0.000000 0.000000 0.000000
# 4 0.000000 0.000000 0.000000 0.039626 0.000000 0.000000
# 5 0.000000 0.000000 0.000000 0.000000 0.039626 0.000000
# 6 0.000000 0.000000 0.000000 0.000000 0.000000 0.088026
#
#
# Mechanical properties :
#
#
# Convention : Reuss Voigt Hill
#
# Bulk Modulus (GPa) = 28.81784 36.54496 32.68140
# Shear Modulus (GPa) = 17.33900 22.30945 19.82423
#
# Velocity S-wave (km/s) = 2.88585 3.27346 3.08575
# Velocity P-wave (km/s) = 4.99457 5.64273 5.32851
#
# Compressibility (1/GPa) = 0.03470072
#
# Stress axis : x y z
#
# Youngs Moduli (GPa) = 31.63058 31.63058 112.58879
#
# Poissons Ratio (x) = 0.39216 0.35507
# Poissons Ratio (y) = 0.39216 0.35507
# Poissons Ratio (z) = 0.09975 0.09975
#
# Static dielectric constant tensor:
#      x y z
#    x 1.800740 0.000000 0.000000 
#    y 0.000000 1.800740 0.000000 
#    z 0.000000 0.000000 1.724390 
# 
# From -- ./inp_files/2337.got.cif
#   From: 2010.05.17/outbox.cif.g08.bks.cpg/sg176_2_cif.got.tgz:2337.got - 2010.06.03 11:36:45.
