data_PCOD9582643
_publ_section_title
;
Structure prediction by ZEFSAII (Michael W. Deem and Ramdas Pophale) SiO2 
 PCOD9582643
Probable space group: P 61 2 2
;
_chemical_formula_sum "Si O2"
_cell_formula_units_Z 60
_cell_length_a 14.081734
_cell_length_b 14.081734
_cell_length_c 14.829500
_cell_angle_alpha 90.000000
_cell_angle_beta 90.000000
_cell_angle_gamma 120.000000
_cell_volume 2546.650886
_symmetry_space_group_name_H-M "P 61 2 2"
_symmetry_group_IT_number 178
_symmetry_cell_setting 'hexagonal'
loop_
_space_group_symop_operation_xyz
x,y,z
x-y,x,1/6+z
-y,x-y,1/3+z
-x,-y,1/2+z
-x+y,-x,2/3+z
y,-x+y,5/6+z
x-y,-y,-z
-x,-x+y,2/3-z
y,x,1/3-z
-y,-x,5/6-z
-x+y,y,1/2-z
x,x-y,1/6-z
loop_
_atom_site_type_symbol
_atom_site_label
_atom_site_fract_x
_atom_site_fract_y
_atom_site_fract_z
Si Si1 0.253745 0.907377 0.557694
Si Si2 0.096790 0.538369 0.977680
Si Si3 0.303187 0.651594 0.583334
Si Si4 0.258820 0.741181 0.416667
Si Si5 0.068015 0.728226 0.921908
Si Si6 0.837560 0.961428 0.300264
O O1 0.362293 0.951060 0.618408
O O2 0.270327 0.835119 0.483395
O O3 0.141079 0.857678 0.609882
O O4 0.249248 0.000000 0.500000
O O5 0.221053 0.598019 0.940837
O O6 0.038204 0.604392 0.943889
O O7 0.101517 0.550759 0.083334
O O8 0.240380 0.647234 0.489835
O O9 0.199657 0.800344 0.916667
O O10 0.000000 0.717954 0.833334
O O11 0.043198 0.801511 0.990112
O O12 0.885363 0.912176 0.378109
#
# Coordination Sequence:
#
# PCOD9582643 Si02
#       6
#    12  12   6   6  12  12
#     4  11  25  49  69 109 156 206 263 327 409 485
#     4  11  23  42  73 105 149 204 259 327 412 476
#     4  10  20  40  70 103 143 194 254 328 384 474
#     4  10  22  42  72 103 145 200 262 320 400 486
#     4  12  25  47  76 114 161 206 275 345 408 489
#     4  12  27  52  81 117 165 215 274 346 421 493
#
# _framework density 23.560355999999999
#
# number of rings (size 3 to 8) (size 9 to 14) (size 15 to 20)
#    0.000    0.800    4.000    3.000    0.000    0.000 
#   19.800    0.000    0.000    0.000    0.000    0.000 
#    0.000    0.000    0.000    0.000    0.000    0.000 
#
# Total GULP energy -334424.115468 kJ/mol
# GULP energy per Si atom -5573.735258 kJ/mol
# Density = 2.350673 g / cm^3
# Si number density = 23.560356 Si / 1000 Ang^3
#
#
#
# Elastic Constant Matrix: (Units=GPa)
#
#
# Indices 1 2 3 4 5 6 
#
# 1 98.1428 15.6271 38.8654 0.0000 0.0000 0.0000
# 2 15.6271 98.1428 38.8654 0.0000 0.0000 0.0000
# 3 38.8654 38.8654 145.1887 0.0000 0.0000 0.0000
# 4 0.0000 0.0000 0.0000 114.3675 0.0000 0.0000
# 5 0.0000 0.0000 0.0000 0.0000 114.3675 0.0000
# 6 0.0000 0.0000 0.0000 0.0000 0.0000 41.2578
#
#
#
# Elastic Compliance Matrix: (Units=1/GPa)
#
#
# Indices 1 2 3 4 5 6 
#
# 1 0.011438 -0.000681 -0.002880 0.000000 0.000000 0.000000
# 2 -0.000681 0.011438 -0.002880 0.000000 0.000000 0.000000
# 3 -0.002880 -0.002880 0.008429 0.000000 0.000000 0.000000
# 4 0.000000 0.000000 0.000000 0.008744 0.000000 0.000000
# 5 0.000000 0.000000 0.000000 0.000000 0.008744 0.000000
# 6 0.000000 0.000000 0.000000 0.000000 0.000000 0.024238
#
#
# Mechanical properties :
#
#
# Convention : Reuss Voigt Hill
#
# Bulk Modulus (GPa) = 54.27359 58.68778 56.48069
# Shear Modulus (GPa) = 54.31696 70.53963 62.42830
#
# Velocity S-wave (km/s) = 4.80671 5.47768 5.15313
# Velocity P-wave (km/s) = 7.34111 8.06041 7.70916
#
# Compressibility (1/GPa) = 0.01842517
#
# Stress axis : x y z
#
# Youngs Moduli (GPa) = 87.42799 87.42799 118.63479
#
# Poissons Ratio (x) = 0.05953 0.34161
# Poissons Ratio (y) = 0.05953 0.34161
# Poissons Ratio (z) = 0.25175 0.25175
#
# Static dielectric constant tensor:
#      x y z
#    x -0.543880 0.000000 0.000000 
#    y 0.000000 -0.543880 0.000000 
#    z 0.000000 0.000000 1.987600 
# 
# From -- ./inp_files/5729.got.cif
#   From: 2010.05.17/outbox.cif.g08.bks.cpg/sg178_3_cif.got.tgz:5729.got - 2010.05.20 11:30:59.
