data_PCOD9582641
_publ_section_title
;
Structure prediction by ZEFSAII (Michael W. Deem and Ramdas Pophale) SiO2 
 PCOD9582641
Probable space group: P 61 2 2
;
_chemical_formula_sum "Si O2"
_cell_formula_units_Z 66
_cell_length_a 27.292592
_cell_length_b 27.292592
_cell_length_c 5.268377
_cell_angle_alpha 90.000000
_cell_angle_beta 90.000000
_cell_angle_gamma 120.000000
_cell_volume 3398.576442
_symmetry_space_group_name_H-M "P 61 2 2"
_symmetry_group_IT_number 178
_symmetry_cell_setting 'hexagonal'
loop_
_space_group_symop_operation_xyz
x,y,z
x-y,x,1/6+z
-y,x-y,1/3+z
-x,-y,1/2+z
-x+y,-x,2/3+z
y,-x+y,5/6+z
x-y,-y,-z
-x,-x+y,2/3-z
y,x,1/3-z
-y,-x,5/6-z
-x+y,y,1/2-z
x,x-y,1/6-z
loop_
_atom_site_type_symbol
_atom_site_label
_atom_site_fract_x
_atom_site_fract_y
_atom_site_fract_z
Si Si1 0.380686 0.142654 0.968557
Si Si2 0.672876 0.635296 0.417313
Si Si3 0.579521 0.065023 0.913915
Si Si4 0.763066 0.412742 0.829111
Si Si5 0.155001 0.484207 0.095129
Si Si6 0.468658 0.234329 0.583334
O O1 0.350113 0.087039 0.798217
O O2 0.427984 0.190569 0.791798
O O3 0.349684 0.174842 0.083334
O O4 0.417912 0.131099 0.176708
O O5 0.655060 0.655060 0.666667
O O6 0.631048 0.567306 0.398702
O O7 0.661552 0.661552 0.166667
O O8 0.541318 0.082635 0.750000
O O9 0.612359 0.106743 0.146589
O O10 0.538393 0.000000 0.000000
O O11 0.704850 0.409699 0.750000
O O12 0.779309 0.389655 0.583334
O O13 0.814121 0.477053 0.838091
O O14 0.756478 0.378239 0.083334
O O15 0.206434 0.500441 0.894723
#
# Coordination Sequence:
#
# PCOD9582641 Si02
#       6
#    12  12  12  12  12   6
#     4  10  21  38  64  90 119 151 197 249 299 359
#     4  11  23  40  62  89 125 163 201 243 302 372
#     4  11  24  44  66  89 123 162 197 240 296 374
#     4  12  28  47  68  88 115 146 183 236 298 362
#     4  11  25  43  66  92 117 148 196 243 295 363
#     4  10  20  40  68  92 114 146 194 242 296 358
#
# _framework density 19.419896999999999
#
# number of rings (size 3 to 8) (size 9 to 14) (size 15 to 20)
#    0.000    1.091    1.818    5.455    7.636    2.909 
#    0.000    3.636    0.000    0.000    0.000    0.000 
#    0.000    0.000    0.000    0.000    0.000    0.000 
#
# Total GULP energy -369338.602055 kJ/mol
# GULP energy per Si atom -5596.039425 kJ/mol
# Density = 1.937570 g / cm^3
# Si number density = 19.419897 Si / 1000 Ang^3
#
#
#
# Elastic Constant Matrix: (Units=GPa)
#
#
# Indices 1 2 3 4 5 6 
#
# 1 78.8949 38.9887 39.4508 0.0000 0.0000 0.0000
# 2 38.9887 78.8949 39.4508 0.0000 0.0000 0.0000
# 3 39.4508 39.4508 105.2077 0.0000 0.0000 0.0000
# 4 0.0000 0.0000 0.0000 27.4118 0.0000 0.0000
# 5 0.0000 0.0000 0.0000 0.0000 27.4118 0.0000
# 6 0.0000 0.0000 0.0000 0.0000 0.0000 19.9531
#
#
#
# Elastic Compliance Matrix: (Units=1/GPa)
#
#
# Indices 1 2 3 4 5 6 
#
# 1 0.018192 -0.006867 -0.004247 0.000000 0.000000 0.000000
# 2 -0.006867 0.018192 -0.004247 0.000000 0.000000 0.000000
# 3 -0.004247 -0.004247 0.012690 0.000000 0.000000 0.000000
# 4 0.000000 0.000000 0.000000 0.036481 0.000000 0.000000
# 5 0.000000 0.000000 0.000000 0.000000 0.036481 0.000000
# 6 0.000000 0.000000 0.000000 0.000000 0.000000 0.050118
#
#
# Mechanical properties :
#
#
# Convention : Reuss Voigt Hill
#
# Bulk Modulus (GPa) = 54.48541 55.41980 54.95260
# Shear Modulus (GPa) = 23.92442 24.62915 24.27679
#
# Velocity S-wave (km/s) = 3.51373 3.56510 3.53951
# Velocity P-wave (km/s) = 6.67676 6.74879 6.71287
#
# Compressibility (1/GPa) = 0.01835354
#
# Stress axis : x y z
#
# Youngs Moduli (GPa) = 54.96888 54.96888 78.80249
#
# Poissons Ratio (x) = 0.37745 0.33466
# Poissons Ratio (y) = 0.37745 0.33466
# Poissons Ratio (z) = 0.23344 0.23344
#
# Static dielectric constant tensor:
#      x y z
#    x 1.725040 0.000000 0.000000 
#    y 0.000000 1.725040 0.000000 
#    z 0.000000 0.000000 1.785520 
# 
# From -- ./inp_files/1587.got.cif
#   From: 2010.05.17/outbox.cif.g08.bks.cpg/sg178_1_cif.got.tgz:1587.got - 2010.05.20 11:30:59.
