data_PCOD9582049
_publ_section_title
;
Structure prediction by ZEFSAII (Michael W. Deem and Ramdas Pophale) SiO2 
 PCOD9582049
Probable space group: P 63/M
;
_chemical_formula_sum "Si O2"
_cell_formula_units_Z 72
_cell_length_a 15.150564
_cell_length_b 15.150564
_cell_length_c 16.923615
_cell_angle_alpha 90.000000
_cell_angle_beta 90.000000
_cell_angle_gamma 120.000000
_cell_volume 3364.196613
_symmetry_space_group_name_H-M "P 63/M"
_symmetry_group_IT_number 176
_symmetry_cell_setting 'hexagonal'
loop_
_space_group_symop_operation_xyz
x,y,z
x-y,x,1/2+z
-y,x-y,z
-x,-y,1/2+z
-x+y,-x,z
y,-x+y,1/2+z
-x,-y,-z
-x+y,-x,1/2-z
y,-x+y,-z
x,y,1/2-z
x-y,x,-z
-y,x-y,1/2-z
loop_
_atom_site_type_symbol
_atom_site_label
_atom_site_fract_x
_atom_site_fract_y
_atom_site_fract_z
Si Si1 0.611090 0.410159 0.091204
Si Si2 0.529695 0.394286 0.919850
Si Si3 0.724231 0.536733 0.841349
Si Si4 0.154118 0.234872 0.595355
Si Si5 0.080326 0.844468 0.405838
Si Si6 0.600693 0.958028 0.662121
O O1 0.557916 0.288269 0.096599
O O2 0.598940 0.480310 0.154430
O O3 0.573752 0.427718 0.007051
O O4 0.605308 0.483558 0.861529
O O5 0.523190 0.288866 0.894764
O O6 0.416635 0.372635 0.903722
O O7 0.739574 0.522728 0.750000
O O8 0.784213 0.655205 0.863758
O O9 0.166157 0.253349 0.500715
O O10 0.180626 0.145593 0.612399
O O11 0.238512 0.334155 0.640656
O O12 0.037879 0.200120 0.615291
O O13 0.628074 0.002228 0.750000
#
# Coordination Sequence:
#
# PCOD9582049 Si02
#       6
#    12  12  12  12  12  12
#     4  10  23  45  70  94 123 175 230 276 329 402
#     4  12  23  44  65  97 134 172 227 278 339 403
#     4  12  23  39  64  95 133 173 217 277 347 406
#     4  10  22  42  67  96 135 175 229 284 344 393
#     4  10  22  41  68  97 129 177 232 284 334 409
#     4  12  26  41  65  99 140 179 217 279 348 410
#
# _framework density 21.40184
#
# number of rings (size 3 to 8) (size 9 to 14) (size 15 to 20)
#    0.333    0.667    3.333    3.667    0.000    4.000 
#    0.000    0.000    0.000    2.000    0.000    0.000 
#    0.000    0.000    0.000    0.000    0.000    0.000 
#
# Total GULP energy -402240.681967 kJ/mol
# GULP energy per Si atom -5586.676138 kJ/mol
# Density = 2.135313 g / cm^3
# Si number density = 21.401840 Si / 1000 Ang^3
#
#
#
# Elastic Constant Matrix: (Units=GPa)
#
#
# Indices 1 2 3 4 5 6 
#
# 1 77.1979 12.5369 17.1971 0.0000 0.0000 0.0000
# 2 12.5369 77.1979 17.1971 0.0000 0.0000 0.0000
# 3 17.1971 17.1971 31.1154 0.0000 0.0000 0.0000
# 4 0.0000 0.0000 0.0000 -12.4467 0.0000 0.0000
# 5 0.0000 0.0000 0.0000 0.0000 -12.4467 0.0000
# 6 0.0000 0.0000 0.0000 0.0000 0.0000 32.3305
#
#
#
# Elastic Compliance Matrix: (Units=1/GPa)
#
#
# Indices 1 2 3 4 5 6 
#
# 1 0.014802 -0.000663 -0.007814 0.000000 0.000000 0.000000
# 2 -0.000663 0.014802 -0.007814 0.000000 0.000000 0.000000
# 3 -0.007814 -0.007814 0.040776 0.000000 0.000000 0.000000
# 4 0.000000 0.000000 0.000000 -0.080342 0.000000 0.000000
# 5 0.000000 0.000000 0.000000 0.000000 -0.080342 0.000000
# 6 0.000000 0.000000 0.000000 0.000000 0.000000 0.030931
#
#
# Mechanical properties :
#
#
# Convention : Reuss Voigt Hill
#
# Bulk Modulus (GPa) = 26.45741 31.04148 28.74944
# Shear Modulus (GPa) = -352.34325 10.72610 -170.80858
#
# Velocity S-wave (km/s) = -12.84483 2.24113 -8.94335
# Velocity P-wave (km/s) = 14.40823 4.60787 9.65310
#
# Compressibility (1/GPa) = 0.03779660
#
# Stress axis : x y z
#
# Youngs Moduli (GPa) = 67.55751 67.55751 24.52404
#
# Poissons Ratio (x) = 0.04480 0.19164
# Poissons Ratio (y) = 0.04480 0.19164
# Poissons Ratio (z) = 0.52793 0.52793
#
# Static dielectric constant tensor:
#      x y z
#    x 1.774600 0.000000 0.000000 
#    y 0.000000 1.774600 0.000000 
#    z 0.000000 0.000000 1.720490 
# 
# From -- ./inp_files/3375.got.cif
#   From: 2010.05.17/outbox.cif.g08.bks.cpg/sg176_2_cif.got.tgz:3375.got - 2010.06.03 11:36:45.
