data_PCOD9582928
_publ_section_title
;
Structure prediction by ZEFSAII (Michael W. Deem and Ramdas Pophale) SiO2 
 PCOD9582928
Probable space group: P 61 2 2
;
_chemical_formula_sum "Si O2"
_cell_formula_units_Z 66
_cell_length_a 15.377442
_cell_length_b 15.377442
_cell_length_c 21.163153
_cell_angle_alpha 90.000000
_cell_angle_beta 90.000000
_cell_angle_gamma 120.000000
_cell_volume 4333.903118
_symmetry_space_group_name_H-M "P 61 2 2"
_symmetry_group_IT_number 178
_symmetry_cell_setting 'hexagonal'
loop_
_space_group_symop_operation_xyz
x,y,z
x-y,x,1/6+z
-y,x-y,1/3+z
-x,-y,1/2+z
-x+y,-x,2/3+z
y,-x+y,5/6+z
x-y,-y,-z
-x,-x+y,2/3-z
y,x,1/3-z
-y,-x,5/6-z
-x+y,y,1/2-z
x,x-y,1/6-z
loop_
_atom_site_type_symbol
_atom_site_label
_atom_site_fract_x
_atom_site_fract_y
_atom_site_fract_z
Si Si1 0.518180 0.208738 0.645609
Si Si2 0.427955 0.370002 0.423498
Si Si3 0.506779 0.338982 0.868440
Si Si4 0.117889 0.663974 0.713421
Si Si5 0.794937 0.403027 0.768473
Si Si6 0.000000 0.569477 0.833334
O O1 0.484779 0.242390 0.583334
O O2 0.429502 0.135713 0.692752
O O3 0.578644 0.151945 0.624250
O O4 0.586455 0.309643 0.686063
O O5 0.545599 0.454402 0.416667
O O6 0.375006 0.427451 0.451442
O O7 0.399783 0.335349 0.351825
O O8 0.598456 0.401545 0.916667
O O9 0.457433 0.222743 0.883438
O O10 0.546834 0.363211 0.796919
O O11 0.047887 0.642306 0.773560
O O12 0.726502 0.453004 0.750000
O O13 0.901713 0.472161 0.803122
#
# Coordination Sequence:
#
# PCOD9582928 Si02
#       6
#    12  12  12  12  12   6
#     4  11  18  33  50  69 101 134 174 213 254 305
#     4   9  19  33  47  67  97 130 174 212 252 306
#     4  11  20  33  52  68  94 137 176 211 259 303
#     4  11  20  35  45  69  97 135 173 219 254 306
#     4  12  21  34  51  73 100 141 176 216 257 310
#     4  12  24  30  50  76 102 130 192 226 254 314
#
# _framework density 15.228766999999999
#
# number of rings (size 3 to 8) (size 9 to 14) (size 15 to 20)
#    0.000    1.091    5.455    5.455    0.000    0.000 
#    0.000    0.000    0.000    0.000    0.000    0.000 
#    0.000    0.000    0.000   26.182    0.000    0.182 
#
# Total GULP energy -367736.838474 kJ/mol
# GULP energy per Si atom -5571.770280 kJ/mol
# Density = 1.519411 g / cm^3
# Si number density = 15.228767 Si / 1000 Ang^3
#
#
#
# Elastic Constant Matrix: (Units=GPa)
#
#
# Indices 1 2 3 4 5 6 
#
# 1 -13.2175 79.8036 38.9456 0.0000 0.0000 0.0000
# 2 79.8036 -13.2175 38.9456 0.0000 0.0000 0.0000
# 3 38.9456 38.9456 142.6409 0.0000 0.0000 0.0000
# 4 0.0000 0.0000 0.0000 23.8132 0.0000 0.0000
# 5 0.0000 0.0000 0.0000 0.0000 23.8132 0.0000
# 6 0.0000 0.0000 0.0000 0.0000 0.0000 -46.5106
#
#
#
# Elastic Compliance Matrix: (Units=1/GPa)
#
#
# Indices 1 2 3 4 5 6 
#
# 1 0.005658 0.016408 -0.006025 0.000000 0.000000 0.000000
# 2 0.016408 0.005658 -0.006025 0.000000 0.000000 0.000000
# 3 -0.006025 -0.006025 0.010300 0.000000 0.000000 0.000000
# 4 0.000000 0.000000 0.000000 0.041994 0.000000 0.000000
# 5 0.000000 0.000000 0.000000 0.000000 0.041994 0.000000
# 6 0.000000 0.000000 0.000000 0.000000 0.000000 -0.021500
#
#
# Mechanical properties :
#
#
# Convention : Reuss Voigt Hill
#
# Bulk Modulus (GPa) = 32.96718 47.95505 40.46111
# Shear Modulus (GPa) = 58.48213 -2.54277 27.96968
#
# Velocity S-wave (km/s) = 6.20369 -1.29358 4.29025
# Velocity P-wave (km/s) = 8.54455 5.41544 7.15319
#
# Compressibility (1/GPa) = 0.03033320
#
# Stress axis : x y z
#
# Youngs Moduli (GPa) = 176.75035 176.75035 97.08310
#
# Poissons Ratio (x) = -2.90011 0.58489
# Poissons Ratio (y) = -2.90011 0.58489
# Poissons Ratio (z) = 1.06486 1.06486
#
# Static dielectric constant tensor:
#      x y z
#    x 1.501370 0.000000 0.000000 
#    y 0.000000 1.501370 0.000000 
#    z 0.000000 0.000000 1.572320 
# 
# From -- ./inp_files/7633.got.cif
#   From: 2010.05.17/outbox.cif.g08.bks.cpg/sg178_4_cif.got.tgz:7633.got - 2010.05.20 11:30:59.
