data_PCOD9582114
_publ_section_title
;
Structure prediction by ZEFSAII (Michael W. Deem and Ramdas Pophale) SiO2 
 PCOD9582114
Probable space group: P 63/M
;
_chemical_formula_sum "Si O2"
_cell_formula_units_Z 48
_cell_length_a 12.411566
_cell_length_b 12.411566
_cell_length_c 18.433698
_cell_angle_alpha 90.000000
_cell_angle_beta 90.000000
_cell_angle_gamma 120.000000
_cell_volume 2459.213657
_symmetry_space_group_name_H-M "P 63/M"
_symmetry_group_IT_number 176
_symmetry_cell_setting 'hexagonal'
loop_
_space_group_symop_operation_xyz
x,y,z
x-y,x,1/2+z
-y,x-y,z
-x,-y,1/2+z
-x+y,-x,z
y,-x+y,1/2+z
-x,-y,-z
-x+y,-x,1/2-z
y,-x+y,-z
x,y,1/2-z
x-y,x,-z
-y,x-y,1/2-z
loop_
_atom_site_type_symbol
_atom_site_label
_atom_site_fract_x
_atom_site_fract_y
_atom_site_fract_z
Si Si1 0.389793 0.153700 0.591279
Si Si2 0.854863 0.597971 0.071858
Si Si3 0.666667 0.333334 0.898305
Si Si4 0.000000 0.000000 0.162729
Si Si5 0.748194 0.973799 0.836103
Si Si6 0.666668 0.333334 0.071934
O O1 0.389586 0.210384 0.511560
O O2 0.531572 0.217764 0.620376
O O3 0.318633 0.203213 0.642148
O O4 0.323714 0.003505 0.585411
O O5 0.771611 0.637061 0.120138
O O6 0.798113 0.452845 0.091231
O O7 0.666668 0.333334 0.985160
O O8 0.953042 0.091469 0.139444
O O9 0.000000 0.000000 0.250000
O O10 0.729837 0.957871 0.750000
#
# Coordination Sequence:
#
# PCOD9582114 Si02
#       6
#    12  12   4   4  12   4
#     4  11  22  38  64  93 122 159 207 255 304 367
#     4  11  22  38  64  93 122 159 207 255 304 367
#     4   9  24  39  61  92 124 162 205 254 307 360
#     4   9  18  33  52  83 118 150 193 242 301 351
#     4  11  22  37  59  91 130 162 196 251 313 363
#     4   9  24  39  61  92 124 162 205 254 307 360
#
# _framework density 19.518433000000002
#
# number of rings (size 3 to 8) (size 9 to 14) (size 15 to 20)
#    0.000    1.500    5.000    0.000    3.500    3.000 
#    0.000    5.000    0.000    0.000    0.000    0.000 
#    0.000    0.000    0.000    0.000    0.000    0.000 
#
# Total GULP energy -267387.025963 kJ/mol
# GULP energy per Si atom -5570.563041 kJ/mol
# Density = 1.947401 g / cm^3
# Si number density = 19.518433 Si / 1000 Ang^3
#
#
#
# Elastic Constant Matrix: (Units=GPa)
#
#
# Indices 1 2 3 4 5 6 
#
# 1 100.6923 38.2563 -0.1800 0.0000 0.0000 -0.0001
# 2 38.2563 100.6931 -0.1800 0.0000 0.0000 0.0009
# 3 -0.1800 -0.1800 37.9114 0.0000 0.0000 0.0004
# 4 0.0000 0.0000 0.0000 6.8562 0.0003 0.0000
# 5 0.0000 0.0000 0.0000 0.0003 6.8576 0.0000
# 6 -0.0001 0.0009 0.0004 0.0000 0.0000 31.2172
#
#
#
# Elastic Compliance Matrix: (Units=1/GPa)
#
#
# Indices 1 2 3 4 5 6 
#
# 1 0.011607 -0.004410 0.000034 0.000000 0.000000 0.000000
# 2 -0.004410 0.011607 0.000034 0.000000 0.000000 0.000000
# 3 0.000034 0.000034 0.026378 0.000000 0.000000 0.000000
# 4 0.000000 0.000000 0.000000 0.145853 -0.000007 0.000000
# 5 0.000000 0.000000 0.000000 -0.000007 0.145824 0.000000
# 6 0.000000 0.000000 0.000000 0.000000 0.000000 0.032034
#
#
# Mechanical properties :
#
#
# Convention : Reuss Voigt Hill
#
# Bulk Modulus (GPa) = 24.44496 35.00993 29.72745
# Shear Modulus (GPa) = 12.63839 22.41292 17.52566
#
# Velocity S-wave (km/s) = 2.54738 3.39233 2.99975
# Velocity P-wave (km/s) = 4.60472 5.77232 5.22126
#
# Compressibility (1/GPa) = 0.04090823
#
# Stress axis : x y z
#
# Youngs Moduli (GPa) = 86.15734 86.15803 37.91097
#
# Poissons Ratio (x) = 0.37993 -0.00130
# Poissons Ratio (y) = 0.37992 -0.00130
# Poissons Ratio (z) = -0.00295 -0.00294
#
# Static dielectric constant tensor:
#      x y z
#    x 1.735840 0.000000 0.000000 
#    y 0.000000 1.735840 0.000000 
#    z 0.000000 0.000000 1.649920 
# 
# From -- ./inp_files/3683.got.cif
#   From: 2010.05.17/outbox.cif.g08.bks.cpg/sg176_2_cif.got.tgz:3683.got - 2010.06.03 11:36:45.
