data_PCOD9582873
_publ_section_title
;
Structure prediction by ZEFSAII (Michael W. Deem and Ramdas Pophale) SiO2 
 PCOD9582873
Probable space group: P 61 2 2
;
_chemical_formula_sum "Si O2"
_cell_formula_units_Z 60
_cell_length_a 19.696946
_cell_length_b 19.696946
_cell_length_c 9.211395
_cell_angle_alpha 90.000000
_cell_angle_beta 90.000000
_cell_angle_gamma 120.000000
_cell_volume 3094.951347
_symmetry_space_group_name_H-M "P 61 2 2"
_symmetry_group_IT_number 178
_symmetry_cell_setting 'hexagonal'
loop_
_space_group_symop_operation_xyz
x,y,z
x-y,x,1/6+z
-y,x-y,1/3+z
-x,-y,1/2+z
-x+y,-x,2/3+z
y,-x+y,5/6+z
x-y,-y,-z
-x,-x+y,2/3-z
y,x,1/3-z
-y,-x,5/6-z
-x+y,y,1/2-z
x,x-y,1/6-z
loop_
_atom_site_type_symbol
_atom_site_label
_atom_site_fract_x
_atom_site_fract_y
_atom_site_fract_z
Si Si1 0.447360 0.894719 0.250000
Si Si2 0.626061 0.638543 0.835653
Si Si3 0.486778 0.243389 0.083334
Si Si4 0.149966 0.442711 0.994582
Si Si5 0.595616 0.369393 0.657047
Si Si6 0.919077 0.685940 0.249921
O O1 0.386683 0.837912 0.368483
O O2 0.411687 0.943749 0.178729
O O3 0.650666 0.650666 0.666667
O O4 0.653515 0.584011 0.919916
O O5 0.660449 0.718280 0.931917
O O6 0.432210 0.203434 0.221008
O O7 0.548126 0.333102 0.124899
O O8 0.203502 0.533583 0.952079
O O9 0.127338 0.391126 0.851146
O O10 0.621025 0.310513 0.583334
O O11 0.859866 0.719732 0.250000
O O12 0.000000 0.741730 0.333334
#
# Coordination Sequence:
#
# PCOD9582873 Si02
#       6
#     6  12   6  12  12  12
#     4  12  25  36  62  82 120 166 216 274 332 378
#     4  11  26  40  61  92 122 165 217 265 325 383
#     4  12  25  36  60  88 118 170 218 278 324 378
#     4  11  24  41  60  86 126 161 216 268 322 383
#     4  12  24  40  58  84 120 166 221 276 330 381
#     4  10  23  45  68  95 128 163 201 249 316 379
#
# _framework density 19.386412
#
# number of rings (size 3 to 8) (size 9 to 14) (size 15 to 20)
#    0.000    0.800    2.000    5.400   11.200    0.000 
#    0.000    0.000    0.000    0.000    0.000    1.400 
#    0.000    0.000    0.000    0.000    0.000    0.000 
#
# Total GULP energy -335204.179977 kJ/mol
# GULP energy per Si atom -5586.736333 kJ/mol
# Density = 1.934229 g / cm^3
# Si number density = 19.386412 Si / 1000 Ang^3
#
#
#
# Elastic Constant Matrix: (Units=GPa)
#
#
# Indices 1 2 3 4 5 6 
#
# 1 71.7954 35.4154 34.9723 0.0000 0.0000 0.0000
# 2 35.4154 71.7954 34.9723 0.0000 0.0000 0.0000
# 3 34.9723 34.9723 144.2577 0.0000 0.0000 0.0000
# 4 0.0000 0.0000 0.0000 26.4128 0.0000 0.0000
# 5 0.0000 0.0000 0.0000 0.0000 26.4128 0.0000
# 6 0.0000 0.0000 0.0000 0.0000 0.0000 18.1900
#
#
#
# Elastic Compliance Matrix: (Units=1/GPa)
#
#
# Indices 1 2 3 4 5 6 
#
# 1 0.019284 -0.008204 -0.002686 0.000000 0.000000 0.000000
# 2 -0.008204 0.019284 -0.002686 0.000000 0.000000 0.000000
# 3 -0.002686 -0.002686 0.008234 0.000000 0.000000 0.000000
# 4 0.000000 0.000000 0.000000 0.037860 0.000000 0.000000
# 5 0.000000 0.000000 0.000000 0.000000 0.037860 0.000000
# 6 0.000000 0.000000 0.000000 0.000000 0.000000 0.054975
#
#
# Mechanical properties :
#
#
# Convention : Reuss Voigt Hill
#
# Bulk Modulus (GPa) = 50.89121 55.39648 53.14385
# Shear Modulus (GPa) = 23.67423 26.36901 25.02162
#
# Velocity S-wave (km/s) = 3.49832 3.69206 3.59650
# Velocity P-wave (km/s) = 6.52883 6.84193 6.68722
#
# Compressibility (1/GPa) = 0.01964976
#
# Stress axis : x y z
#
# Youngs Moduli (GPa) = 51.85717 51.85717 121.44165
#
# Poissons Ratio (x) = 0.42543 0.32620
# Poissons Ratio (y) = 0.42543 0.32620
# Poissons Ratio (z) = 0.13929 0.13929
#
# Static dielectric constant tensor:
#      x y z
#    x 1.702600 0.000000 0.000000 
#    y 0.000000 1.702600 0.000000 
#    z 0.000000 0.000000 0.956260 
# 
# From -- ./inp_files/3155.got.cif
#   From: 2010.05.17/outbox.cif.g08.bks.cpg/sg178_2_cif.got.tgz:3155.got - 2010.05.20 11:30:59.
