data_PCOD9582765
_publ_section_title
;
Structure prediction by ZEFSAII (Michael W. Deem and Ramdas Pophale) SiO2 
 PCOD9582765
Probable space group: P 61 2 2
;
_chemical_formula_sum "Si O2"
_cell_formula_units_Z 42
_cell_length_a 13.824092
_cell_length_b 13.824092
_cell_length_c 10.922125
_cell_angle_alpha 90.000000
_cell_angle_beta 90.000000
_cell_angle_gamma 120.000000
_cell_volume 1807.636096
_symmetry_space_group_name_H-M "P 61 2 2"
_symmetry_group_IT_number 178
_symmetry_cell_setting 'hexagonal'
loop_
_space_group_symop_operation_xyz
x,y,z
x-y,x,1/6+z
-y,x-y,1/3+z
-x,-y,1/2+z
-x+y,-x,2/3+z
y,-x+y,5/6+z
x-y,-y,-z
-x,-x+y,2/3-z
y,x,1/3-z
-y,-x,5/6-z
-x+y,y,1/2-z
x,x-y,1/6-z
loop_
_atom_site_type_symbol
_atom_site_label
_atom_site_fract_x
_atom_site_fract_y
_atom_site_fract_z
Si Si1 0.899069 0.798137 0.750000
Si Si2 0.832336 0.241021 0.784430
Si Si3 0.380193 0.552548 0.283977
Si Si4 0.335605 0.333262 0.943000
O O1 0.876479 0.876479 0.666667
O O2 0.942963 0.728414 0.675888
O O3 0.815756 0.347951 0.801301
O O4 0.941644 0.299040 0.694303
O O5 0.735275 0.131571 0.715803
O O6 0.818364 0.181637 0.916667
O O7 0.392441 0.607560 0.416667
O O8 0.252925 0.505850 0.250000
O O9 0.401209 0.450883 0.314653
#
# Coordination Sequence:
#
# PCOD9582765 Si02
#       4
#     6  12  12  12
#     4  12  24  48  76 110 142 190 250 308 374 446
#     4  11  24  44  69 105 149 189 243 311 383 445
#     4  10  22  40  65  99 135 191 242 298 362 438
#     4  11  23  44  73 103 143 192 250 304 380 457
#
# _framework density 23.234764999999999
#
# number of rings (size 3 to 8) (size 9 to 14) (size 15 to 20)
#    0.000    1.143    4.286    1.714    0.000    3.429 
#    2.571   20.000    0.000    0.000    0.000    0.000 
#    0.000    0.000    0.000    0.000    0.000    0.000 
#
# Total GULP energy -234104.105156 kJ/mol
# GULP energy per Si atom -5573.907266 kJ/mol
# Density = 2.318188 g / cm^3
# Si number density = 23.234765 Si / 1000 Ang^3
#
#
#
# Elastic Constant Matrix: (Units=GPa)
#
#
# Indices 1 2 3 4 5 6 
#
# 1 -52.0681 223.4798 8.2683 0.0000 0.0000 0.0000
# 2 223.4798 -52.0681 8.2683 0.0000 0.0000 0.0000
# 3 8.2683 8.2683 75.4654 0.0000 0.0000 0.0000
# 4 0.0000 0.0000 0.0000 35.6484 0.0000 0.0000
# 5 0.0000 0.0000 0.0000 0.0000 35.6484 0.0000
# 6 0.0000 0.0000 0.0000 0.0000 0.0000 -137.7740
#
#
#
# Elastic Compliance Matrix: (Units=1/GPa)
#
#
# Indices 1 2 3 4 5 6 
#
# 1 0.001134 0.004763 -0.000646 0.000000 0.000000 0.000000
# 2 0.004763 0.001134 -0.000646 0.000000 0.000000 0.000000
# 3 -0.000646 -0.000646 0.013393 0.000000 0.000000 0.000000
# 4 0.000000 0.000000 0.000000 0.028052 0.000000 0.000000
# 5 0.000000 0.000000 0.000000 0.000000 0.028052 0.000000
# 6 0.000000 0.000000 0.000000 0.000000 0.000000 -0.007258
#
#
# Mechanical properties :
#
#
# Convention : Reuss Voigt Hill
#
# Bulk Modulus (GPa) = 44.24573 50.15135 47.19854
# Shear Modulus (GPa) = 76.80804 -31.20791 22.80007
#
# Velocity S-wave (km/s) = 5.75579 -3.66889 3.13595
# Velocity P-wave (km/s) = 7.95339 1.91934 5.78534
#
# Compressibility (1/GPa) = 0.02260105
#
# Stress axis : x y z
#
# Youngs Moduli (GPa) = 882.18444 882.18444 74.66777
#
# Poissons Ratio (x) = -4.20156 0.04824
# Poissons Ratio (y) = -4.20156 0.04824
# Poissons Ratio (z) = 0.56991 0.56991
#
# Static dielectric constant tensor:
#      x y z
#    x 1.927940 0.000000 0.000000 
#    y 0.000000 1.927940 0.000000 
#    z 0.000000 0.000000 1.950630 
# 
# From -- ./inp_files/4004.got.cif
#   From: 2010.05.17/outbox.cif.g08.bks.cpg/sg178_3_cif.got.tgz:4004.got - 2010.05.20 11:30:59.
