data_PCOD9582236
_publ_section_title
;
Structure prediction by ZEFSAII (Michael W. Deem and Ramdas Pophale) SiO2 
 PCOD9582236
Probable space group: P 6 2 2
;
_chemical_formula_sum "Si O2"
_cell_formula_units_Z 84
_cell_length_a 21.906587
_cell_length_b 21.906587
_cell_length_c 11.437714
_cell_angle_alpha 90.000000
_cell_angle_beta 90.000000
_cell_angle_gamma 120.000000
_cell_volume 4753.563567
_symmetry_space_group_name_H-M "P 6 2 2"
_symmetry_group_IT_number 177
_symmetry_cell_setting 'hexagonal'
loop_
_space_group_symop_operation_xyz
x,y,z
x-y,x,z
-y,x-y,z
-x,-y,z
-x+y,-x,z
y,-x+y,z
x-y,-y,-z
-x,-x+y,-z
y,x,-z
-y,-x,-z
-x+y,y,-z
x,x-y,-z
loop_
_atom_site_type_symbol
_atom_site_label
_atom_site_fract_x
_atom_site_fract_y
_atom_site_fract_z
Si Si1 0.811728 0.477638 0.136214
Si Si2 0.522362 0.188272 0.136214
Si Si3 0.317391 0.158695 0.862471
Si Si4 0.082982 0.389066 0.739192
Si Si5 0.686104 0.916445 0.500000
Si Si6 0.693915 0.610933 0.739193
Si Si7 0.919807 0.839613 0.143017
O O1 0.796829 0.398414 0.148212
O O2 0.740539 0.481078 0.154537
O O3 0.870916 0.528985 0.227711
O O4 0.834059 0.499166 1.000000
O O5 0.471015 0.129085 0.227711
O O6 0.355293 0.238962 0.824516
O O7 0.355293 0.116330 0.824518
O O8 0.239121 0.119560 0.810831
O O9 0.311554 0.155777 0.000000
O O10 0.092297 0.362331 0.612567
O O11 0.000000 0.357324 0.758222
O O12 0.704288 0.852144 0.500000
O O13 0.637669 0.907703 0.612569
O O14 0.749520 0.000000 0.500000
O O15 0.879956 0.879955 0.180575
O O16 0.919364 0.838728 0.000000
#
# Coordination Sequence:
#
# PCOD9582236 Si02
#       7
#    12  12  12  12  12  12  12
#     4  10  20  36  58  85 118 154 189 226 274 336
#     4  10  20  36  58  85 118 154 189 226 274 336
#     4  11  20  32  51  76 109 143 178 222 277 339
#     4  11  22  36  57  83 111 145 189 238 286 336
#     4  10  20  38  61  82 107 147 195 245 294 340
#     4  11  22  36  57  83 111 145 189 238 286 336
#     4   9  17  28  42  63  95 136 177 216 262 320
#
# _framework density 17.670953000000001
#
# number of rings (size 3 to 8) (size 9 to 14) (size 15 to 20)
#    0.000    1.714    2.857    2.143    0.000    5.714 
#    0.000    2.143    0.000    2.714    0.000    2.000 
#    0.000    0.000    0.000    0.000    0.000    0.000 
#
# Total GULP energy -468309.484624 kJ/mol
# GULP energy per Si atom -5575.112912 kJ/mol
# Density = 1.763073 g / cm^3
# Si number density = 17.670953 Si / 1000 Ang^3
#
#
#
# Elastic Constant Matrix: (Units=GPa)
#
#
# Indices 1 2 3 4 5 6 
#
# 1 100.3886 32.3971 31.0552 0.0000 0.0000 0.0000
# 2 32.3971 100.3886 31.0552 0.0000 0.0000 0.0000
# 3 31.0552 31.0552 61.0646 0.0000 0.0000 0.0000
# 4 0.0000 0.0000 0.0000 16.8900 0.0000 0.0000
# 5 0.0000 0.0000 0.0000 0.0000 16.8900 0.0000
# 6 0.0000 0.0000 0.0000 0.0000 0.0000 33.9958
#
#
#
# Elastic Compliance Matrix: (Units=1/GPa)
#
#
# Indices 1 2 3 4 5 6 
#
# 1 0.012295 -0.002413 -0.005025 0.000000 0.000000 0.000000
# 2 -0.002413 0.012295 -0.005025 0.000000 0.000000 0.000000
# 3 -0.005025 -0.005025 0.021488 0.000000 0.000000 0.000000
# 4 0.000000 0.000000 0.000000 0.059207 0.000000 0.000000
# 5 0.000000 0.000000 0.000000 0.000000 0.059207 0.000000
# 6 0.000000 0.000000 0.000000 0.000000 0.000000 0.029415
#
#
# Mechanical properties :
#
#
# Convention : Reuss Voigt Hill
#
# Bulk Modulus (GPa) = 47.28338 50.09523 48.68931
# Shear Modulus (GPa) = 22.13534 24.71077 23.42306
#
# Velocity S-wave (km/s) = 3.54310 3.74355 3.64471
# Velocity P-wave (km/s) = 6.59954 6.86266 6.73238
#
# Compressibility (1/GPa) = 0.02114908
#
# Stress axis : x y z
#
# Youngs Moduli (GPa) = 81.33631 81.33631 46.53858
#
# Poissons Ratio (x) = 0.19627 0.23387
# Poissons Ratio (y) = 0.19627 0.23387
# Poissons Ratio (z) = 0.40875 0.40875
#
# Static dielectric constant tensor:
#      x y z
#    x 1.611570 0.000000 0.000000 
#    y 0.000000 1.611570 0.000000 
#    z 0.000000 0.000000 1.616960 
# 
# From -- ./inp_files/2089.got.cif
#   From: 2010.05.17/outbox.cif.g08.bks.cpg/sg177_2_cif.got.tgz:2089.got - 2010.05.20 11:28:44.
