data_PCOD9582518
_publ_section_title
;
Structure prediction by ZEFSAII (Michael W. Deem and Ramdas Pophale) SiO2 
 PCOD9582518
Probable space group: P 61 2 2
;
_chemical_formula_sum "Si O2"
_cell_formula_units_Z 42
_cell_length_a 16.867199
_cell_length_b 16.867199
_cell_length_c 9.731593
_cell_angle_alpha 90.000000
_cell_angle_beta 90.000000
_cell_angle_gamma 120.000000
_cell_volume 2397.731267
_symmetry_space_group_name_H-M "P 61 2 2"
_symmetry_group_IT_number 178
_symmetry_cell_setting 'hexagonal'
loop_
_space_group_symop_operation_xyz
x,y,z
x-y,x,1/6+z
-y,x-y,1/3+z
-x,-y,1/2+z
-x+y,-x,2/3+z
y,-x+y,5/6+z
x-y,-y,-z
-x,-x+y,2/3-z
y,x,1/3-z
-y,-x,5/6-z
-x+y,y,1/2-z
x,x-y,1/6-z
loop_
_atom_site_type_symbol
_atom_site_label
_atom_site_fract_x
_atom_site_fract_y
_atom_site_fract_z
Si Si1 0.233580 0.859038 0.113768
Si Si2 0.556557 0.113114 0.250000
Si Si3 0.945476 0.646404 0.643318
Si Si4 0.549243 0.285514 0.739621
O O1 0.274426 0.795386 0.160787
O O2 0.271976 0.951149 0.201407
O O3 0.266679 0.900789 0.961622
O O4 0.125598 0.785975 0.115950
O O5 0.607739 0.057029 0.283506
O O6 0.618913 0.179226 0.126092
O O7 0.647543 0.295085 0.750000
O O8 0.516216 0.258108 0.583334
#
# Coordination Sequence:
#
# PCOD9582518 Si02
#       4
#    12   6  12  12
#     4   9  19  33  51  73 101 134 175 217 267 305
#     4  10  20  32  44  70 102 138 174 216 242 302
#     4   9  18  34  52  72 103 134 174 220 263 309
#     4  11  20  31  49  71 103 144 177 211 250 301
#
# _framework density 17.516559000000001
#
# number of rings (size 3 to 8) (size 9 to 14) (size 15 to 20)
#    0.000    2.286    1.429    1.714    6.000    0.000 
#    0.000    4.286    0.000    0.000    0.000    0.000 
#   51.429    0.000    0.000    0.000    0.000    0.000 
#
# Total GULP energy -233902.411386 kJ/mol
# GULP energy per Si atom -5569.105033 kJ/mol
# Density = 1.747669 g / cm^3
# Si number density = 17.516559 Si / 1000 Ang^3
#
#
#
# Elastic Constant Matrix: (Units=GPa)
#
#
# Indices 1 2 3 4 5 6 
#
# 1 82.0495 63.3894 4.1712 0.0000 0.0000 0.0000
# 2 63.3894 82.0495 4.1712 0.0000 0.0000 0.0000
# 3 4.1712 4.1712 25.5278 0.0000 0.0000 0.0000
# 4 0.0000 0.0000 0.0000 17.6931 0.0000 0.0000
# 5 0.0000 0.0000 0.0000 0.0000 17.6931 0.0000
# 6 0.0000 0.0000 0.0000 0.0000 0.0000 9.3300
#
#
#
# Elastic Compliance Matrix: (Units=1/GPa)
#
#
# Indices 1 2 3 4 5 6 
#
# 1 0.030266 -0.023325 -0.001134 0.000000 0.000000 0.000000
# 2 -0.023325 0.030266 -0.001134 0.000000 0.000000 0.000000
# 3 -0.001134 -0.001134 0.039544 0.000000 0.000000 0.000000
# 4 0.000000 0.000000 0.000000 0.056519 0.000000 0.000000
# 5 0.000000 0.000000 0.000000 0.000000 0.056519 0.000000
# 6 0.000000 0.000000 0.000000 0.000000 0.000000 0.107181
#
#
# Mechanical properties :
#
#
# Convention : Reuss Voigt Hill
#
# Bulk Modulus (GPa) = 20.45461 37.01004 28.73232
# Shear Modulus (GPa) = 12.89404 16.80292 14.84848
#
# Velocity S-wave (km/s) = 2.71607 3.10055 2.91466
# Velocity P-wave (km/s) = 4.64098 5.83030 5.26930
#
# Compressibility (1/GPa) = 0.04888874
#
# Stress axis : x y z
#
# Youngs Moduli (GPa) = 33.04080 33.04080 25.28853
#
# Poissons Ratio (x) = 0.77067 0.02868
# Poissons Ratio (y) = 0.77067 0.02868
# Poissons Ratio (z) = 0.03747 0.03747
#
# Static dielectric constant tensor:
#      x y z
#    x 1.591830 0.000000 0.000000 
#    y 0.000000 1.591830 0.000000 
#    z 0.000000 0.000000 1.680890 
# 
# From -- ./inp_files/3984.got.cif
#   From: 2010.05.17/outbox.cif.g08.bks.cpg/sg178_2_cif.got.tgz:3984.got - 2010.05.20 11:30:59.
