data_PCOD9582950
_publ_section_title
;
Structure prediction by ZEFSAII (Michael W. Deem and Ramdas Pophale) SiO2 
 PCOD9582950
Probable space group: P 61 2 2
;
_chemical_formula_sum "Si O2"
_cell_formula_units_Z 48
_cell_length_a 24.725254
_cell_length_b 24.725254
_cell_length_c 4.973697
_cell_angle_alpha 90.000000
_cell_angle_beta 90.000000
_cell_angle_gamma 120.000000
_cell_volume 2633.246281
_symmetry_space_group_name_H-M "P 61 2 2"
_symmetry_group_IT_number 178
_symmetry_cell_setting 'hexagonal'
loop_
_space_group_symop_operation_xyz
x,y,z
x-y,x,1/6+z
-y,x-y,1/3+z
-x,-y,1/2+z
-x+y,-x,2/3+z
y,-x+y,5/6+z
x-y,-y,-z
-x,-x+y,2/3-z
y,x,1/3-z
-y,-x,5/6-z
-x+y,y,1/2-z
x,x-y,1/6-z
loop_
_atom_site_type_symbol
_atom_site_label
_atom_site_fract_x
_atom_site_fract_y
_atom_site_fract_z
Si Si1 0.426562 0.924066 0.502234
Si Si2 0.113400 0.333986 0.409241
Si Si3 0.072998 0.696070 0.259120
Si Si4 0.808846 0.958989 0.247739
O O1 0.451941 0.903881 0.250000
O O2 0.355026 0.905626 0.532856
O O3 0.463241 0.000000 0.500000
O O4 0.451477 0.902953 0.750000
O O5 0.176902 0.353803 0.250000
O O6 0.112625 0.359944 0.702770
O O7 0.079540 0.259380 0.453272
O O8 0.078071 0.357103 0.209077
O O9 0.000000 0.663297 0.333334
O O10 0.851720 0.000000 0.500000
O O11 0.826757 0.913379 0.083334
O O12 0.806453 0.000000 0.000000
#
# Coordination Sequence:
#
# PCOD9582950 Si02
#       4
#    12  12  12  12
#     4   9  17  30  47  70  99 132 171 209 241 276
#     4  12  23  35  51  76 108 142 177 215 262 316
#     4  11  21  33  52  74 102 142 181 214 252 306
#     4  12  24  40  60  82 107 138 178 226 279 340
#
# _framework density 18.228451
#
# number of rings (size 3 to 8) (size 9 to 14) (size 15 to 20)
#    0.000    1.000    0.000   10.500    0.000    4.000 
#    0.000    0.000    0.000    1.500    0.000    1.750 
#    0.000    0.000    0.000   94.500    0.000    0.000 
#
# Total GULP energy -267870.783514 kJ/mol
# GULP energy per Si atom -5580.641323 kJ/mol
# Density = 1.818696 g / cm^3
# Si number density = 18.228451 Si / 1000 Ang^3
#
#
#
# Elastic Constant Matrix: (Units=GPa)
#
#
# Indices 1 2 3 4 5 6 
#
# 1 57.2053 32.1585 28.6498 0.0000 0.0000 0.0000
# 2 32.1585 57.2053 28.6498 0.0000 0.0000 0.0000
# 3 28.6498 28.6498 142.4640 0.0000 0.0000 0.0000
# 4 0.0000 0.0000 0.0000 25.6256 0.0000 0.0000
# 5 0.0000 0.0000 0.0000 0.0000 25.6256 0.0000
# 6 0.0000 0.0000 0.0000 0.0000 0.0000 12.5234
#
#
#
# Elastic Compliance Matrix: (Units=1/GPa)
#
#
# Indices 1 2 3 4 5 6 
#
# 1 0.026386 -0.013539 -0.002584 0.000000 0.000000 0.000000
# 2 -0.013539 0.026386 -0.002584 0.000000 0.000000 0.000000
# 3 -0.002584 -0.002584 0.008058 0.000000 0.000000 0.000000
# 4 0.000000 0.000000 0.000000 0.039023 0.000000 0.000000
# 5 0.000000 0.000000 0.000000 0.000000 0.039023 0.000000
# 6 0.000000 0.000000 0.000000 0.000000 0.000000 0.079850
#
#
# Mechanical properties :
#
#
# Convention : Reuss Voigt Hill
#
# Bulk Modulus (GPa) = 42.70242 48.42120 45.56181
# Shear Modulus (GPa) = 18.94327 23.91604 21.42966
#
# Velocity S-wave (km/s) = 3.22718 3.62611 3.43245
# Velocity P-wave (km/s) = 6.11256 6.64475 6.38420
#
# Compressibility (1/GPa) = 0.02341788
#
# Stress axis : x y z
#
# Youngs Moduli (GPa) = 37.89894 37.89894 124.09393
#
# Poissons Ratio (x) = 0.51312 0.32060
# Poissons Ratio (y) = 0.51312 0.32060
# Poissons Ratio (z) = 0.09791 0.09791
#
# Static dielectric constant tensor:
#      x y z
#    x 1.638950 0.000000 0.000000 
#    y 0.000000 1.638950 0.000000 
#    z 0.000000 0.000000 1.727040 
# 
# From -- ./inp_files/1040.got.cif
#   From: 2010.05.17/outbox.cif.g08.bks.cpg/sg178_1_cif.got.tgz:1040.got - 2010.05.20 11:30:59.
