data_PCOD9582696
_publ_section_title
;
Structure prediction by ZEFSAII (Michael W. Deem and Ramdas Pophale) SiO2 
 PCOD9582696
Probable space group: P 61 2 2
;
_chemical_formula_sum "Si O2"
_cell_formula_units_Z 60
_cell_length_a 16.858626
_cell_length_b 16.858626
_cell_length_c 12.161307
_cell_angle_alpha 90.000000
_cell_angle_beta 90.000000
_cell_angle_gamma 120.000000
_cell_volume 2993.334395
_symmetry_space_group_name_H-M "P 61 2 2"
_symmetry_group_IT_number 178
_symmetry_cell_setting 'hexagonal'
loop_
_space_group_symop_operation_xyz
x,y,z
x-y,x,1/6+z
-y,x-y,1/3+z
-x,-y,1/2+z
-x+y,-x,2/3+z
y,-x+y,5/6+z
x-y,-y,-z
-x,-x+y,2/3-z
y,x,1/3-z
-y,-x,5/6-z
-x+y,y,1/2-z
x,x-y,1/6-z
loop_
_atom_site_type_symbol
_atom_site_label
_atom_site_fract_x
_atom_site_fract_y
_atom_site_fract_z
Si Si1 0.225858 0.000000 0.000000
Si Si2 0.728181 0.276624 0.266316
Si Si3 0.075850 0.162078 0.528315
Si Si4 0.692466 0.461096 0.130899
Si Si5 0.771675 0.664787 0.145469
Si Si6 0.808547 0.617094 0.750000
O O1 0.319880 0.089272 0.036594
O O2 0.160237 0.982332 0.103216
O O3 0.619861 0.239722 0.250000
O O4 0.770750 0.367071 0.344590
O O5 0.752299 0.296005 0.137068
O O6 0.752879 0.205027 0.317406
O O7 0.116450 0.104412 0.468379
O O8 0.155540 0.264206 0.558757
O O9 0.735048 0.470095 0.250000
O O10 0.703377 0.559997 0.110671
O O11 0.709860 0.709860 0.166667
O O12 0.833232 0.666464 0.250000
#
# Coordination Sequence:
#
# PCOD9582696 Si02
#       6
#     6  12  12  12  12   6
#     4  12  26  46  66  98 140 178 230 292 348 414
#     4  11  20  42  70 103 135 183 231 285 347 423
#     4  12  24  46  67  96 136 187 236 293 352 419
#     4  10  21  38  68  99 135 179 230 279 345 419
#     4  11  23  42  65  95 136 181 229 292 357 418
#     4  12  24  44  72 104 140 186 236 288 362 414
#
# _framework density 20.044536999999998
#
# number of rings (size 3 to 8) (size 9 to 14) (size 15 to 20)
#    0.000    0.800    6.000    3.000    0.000    0.000 
#   10.800    0.000    0.000    2.400    0.000    0.000 
#    0.000    0.000    0.000    0.000    0.000    0.000 
#
# Total GULP energy -334062.123928 kJ/mol
# GULP energy per Si atom -5567.702065 kJ/mol
# Density = 1.999891 g / cm^3
# Si number density = 20.044537 Si / 1000 Ang^3
#
#
#
# Elastic Constant Matrix: (Units=GPa)
#
#
# Indices 1 2 3 4 5 6 
#
# 1 96.4272 71.9142 34.4019 0.0000 0.0000 0.0000
# 2 71.9142 96.4272 34.4019 0.0000 0.0000 0.0000
# 3 34.4019 34.4019 129.6203 0.0000 0.0000 0.0000
# 4 0.0000 0.0000 0.0000 64.0224 0.0000 0.0000
# 5 0.0000 0.0000 0.0000 0.0000 64.0224 0.0000
# 6 0.0000 0.0000 0.0000 0.0000 0.0000 12.2565
#
#
#
# Elastic Compliance Matrix: (Units=1/GPa)
#
#
# Indices 1 2 3 4 5 6 
#
# 1 0.023729 -0.017066 -0.001768 0.000000 0.000000 0.000000
# 2 -0.017066 0.023729 -0.001768 0.000000 0.000000 0.000000
# 3 -0.001768 -0.001768 0.008654 0.000000 0.000000 0.000000
# 4 0.000000 0.000000 0.000000 0.015620 0.000000 0.000000
# 5 0.000000 0.000000 0.000000 0.000000 0.015620 0.000000
# 6 0.000000 0.000000 0.000000 0.000000 0.000000 0.081589
#
#
# Mechanical properties :
#
#
# Convention : Reuss Voigt Hill
#
# Bulk Modulus (GPa) = 67.08691 67.10121 67.09406
# Shear Modulus (GPa) = 23.24358 40.17737 31.71047
#
# Velocity S-wave (km/s) = 3.40898 4.48192 3.98175
# Velocity P-wave (km/s) = 7.00260 7.76738 7.39488
#
# Compressibility (1/GPa) = 0.01490604
#
# Stress axis : x y z
#
# Youngs Moduli (GPa) = 42.14284 42.14284 115.55972
#
# Poissons Ratio (x) = 0.71920 0.20436
# Poissons Ratio (y) = 0.71920 0.20436
# Poissons Ratio (z) = 0.07453 0.07453
#
# Static dielectric constant tensor:
#      x y z
#    x 1.773860 0.000000 0.000000 
#    y 0.000000 1.773860 0.000000 
#    z 0.000000 0.000000 1.897060 
# 
# From -- ./inp_files/4569.got.cif
#   From: 2010.05.17/outbox.cif.g08.bks.cpg/sg178_3_cif.got.tgz:4569.got - 2010.05.20 11:30:59.
