data_PCOD9582732
_publ_section_title
;
Structure prediction by ZEFSAII (Michael W. Deem and Ramdas Pophale) SiO2 
 PCOD9582732
Probable space group: P 61 2 2
;
_chemical_formula_sum "Si O2"
_cell_formula_units_Z 42
_cell_length_a 22.844719
_cell_length_b 22.844719
_cell_length_c 5.200435
_cell_angle_alpha 90.000000
_cell_angle_beta 90.000000
_cell_angle_gamma 120.000000
_cell_volume 2350.400902
_symmetry_space_group_name_H-M "P 61 2 2"
_symmetry_group_IT_number 178
_symmetry_cell_setting 'hexagonal'
loop_
_space_group_symop_operation_xyz
x,y,z
x-y,x,1/6+z
-y,x-y,1/3+z
-x,-y,1/2+z
-x+y,-x,2/3+z
y,-x+y,5/6+z
x-y,-y,-z
-x,-x+y,2/3-z
y,x,1/3-z
-y,-x,5/6-z
-x+y,y,1/2-z
x,x-y,1/6-z
loop_
_atom_site_type_symbol
_atom_site_label
_atom_site_fract_x
_atom_site_fract_y
_atom_site_fract_z
Si Si1 0.158290 0.841711 0.916667
Si Si2 0.863836 0.265713 0.804217
Si Si3 0.776569 0.733099 0.407384
Si Si4 0.079755 0.579412 0.332037
O O1 0.232647 0.866912 0.800644
O O2 0.111104 0.840928 0.686942
O O3 0.875401 0.340095 0.808101
O O4 0.791674 0.208327 0.916667
O O5 0.924617 0.267695 0.968766
O O6 0.749072 0.749072 0.666667
O O7 0.778957 0.778957 0.166667
O O8 0.092907 0.546454 0.583334
O O9 0.000000 0.556326 0.333334
O O10 0.090977 0.545489 0.083334
#
# Coordination Sequence:
#
# PCOD9582732 Si02
#       4
#     6  12  12  12
#     4  10  22  36  54  90 112 156 202 232 294 358
#     4  10  22  37  59  83 114 147 195 239 297 364
#     4  11  21  34  55  81 114 154 192 239 275 337
#     4  10  23  38  57  83 111 144 189 246 303 351
#
# _framework density 17.869292000000002
#
# number of rings (size 3 to 8) (size 9 to 14) (size 15 to 20)
#    0.000    1.714    2.857    0.857    8.000    1.143 
#    0.000    0.000    0.000    1.714    0.000    0.000 
#    0.000    0.000    0.000    0.000   16.286   34.571 
#
# Total GULP energy -233930.526347 kJ/mol
# GULP energy per Si atom -5569.774437 kJ/mol
# Density = 1.782862 g / cm^3
# Si number density = 17.869292 Si / 1000 Ang^3
#
#
#
# Elastic Constant Matrix: (Units=GPa)
#
#
# Indices 1 2 3 4 5 6 
#
# 1 89.2363 25.2583 42.0165 0.0000 0.0000 0.0000
# 2 25.2583 89.2363 42.0165 0.0000 0.0000 0.0000
# 3 42.0165 42.0165 158.9434 0.0000 0.0000 0.0000
# 4 0.0000 0.0000 0.0000 18.0027 0.0000 0.0000
# 5 0.0000 0.0000 0.0000 0.0000 18.0027 0.0000
# 6 0.0000 0.0000 0.0000 0.0000 0.0000 31.9890
#
#
#
# Elastic Compliance Matrix: (Units=1/GPa)
#
#
# Indices 1 2 3 4 5 6 
#
# 1 0.013233 -0.002397 -0.002865 0.000000 0.000000 0.000000
# 2 -0.002397 0.013233 -0.002865 0.000000 0.000000 0.000000
# 3 -0.002865 -0.002865 0.007806 0.000000 0.000000 0.000000
# 4 0.000000 0.000000 0.000000 0.055547 0.000000 0.000000
# 5 0.000000 0.000000 0.000000 0.000000 0.055547 0.000000
# 6 0.000000 0.000000 0.000000 0.000000 0.000000 0.031261
#
#
# Mechanical properties :
#
#
# Convention : Reuss Voigt Hill
#
# Bulk Modulus (GPa) = 55.49200 61.77762 58.63481
# Shear Modulus (GPa) = 25.13987 28.80720 26.97354
#
# Velocity S-wave (km/s) = 3.75490 4.01946 3.88943
# Velocity P-wave (km/s) = 7.06547 7.49589 7.28386
#
# Compressibility (1/GPa) = 0.01802062
#
# Stress axis : x y z
#
# Youngs Moduli (GPa) = 75.56611 75.56611 128.10552
#
# Poissons Ratio (x) = 0.18113 0.36697
# Poissons Ratio (y) = 0.18113 0.36697
# Poissons Ratio (z) = 0.21647 0.21647
#
# Static dielectric constant tensor:
#      x y z
#    x 1.669090 0.000000 0.000000 
#    y 0.000000 1.669090 0.000000 
#    z 0.000000 0.000000 1.675120 
# 
# From -- ./inp_files/716.got.cif
#   From: 2010.05.17/outbox.cif.g08.bks.cpg/sg178_1_cif.got.tgz:716.got - 2010.05.20 11:30:59.
