data_PCOD9582581
_publ_section_title
;
Structure prediction by ZEFSAII (Michael W. Deem and Ramdas Pophale) SiO2 
 PCOD9582581
Probable space group: P 61 2 2
;
_chemical_formula_sum "Si O2"
_cell_formula_units_Z 42
_cell_length_a 15.307107
_cell_length_b 15.307107
_cell_length_c 10.337852
_cell_angle_alpha 90.000000
_cell_angle_beta 90.000000
_cell_angle_gamma 120.000000
_cell_volume 2097.718354
_symmetry_space_group_name_H-M "P 61 2 2"
_symmetry_group_IT_number 178
_symmetry_cell_setting 'hexagonal'
loop_
_space_group_symop_operation_xyz
x,y,z
x-y,x,1/6+z
-y,x-y,1/3+z
-x,-y,1/2+z
-x+y,-x,2/3+z
y,-x+y,5/6+z
x-y,-y,-z
-x,-x+y,2/3-z
y,x,1/3-z
-y,-x,5/6-z
-x+y,y,1/2-z
x,x-y,1/6-z
loop_
_atom_site_type_symbol
_atom_site_label
_atom_site_fract_x
_atom_site_fract_y
_atom_site_fract_z
Si Si1 0.390035 0.390035 0.166667
Si Si2 0.250337 0.749664 0.416667
Si Si3 0.469408 0.605832 0.279087
Si Si4 0.347588 0.310428 0.458981
Si Si5 0.807885 0.903943 0.083334
O O1 0.413939 0.502064 0.200108
O O2 0.352566 0.327906 0.302698
O O3 0.317098 0.764935 0.538566
O O4 0.301806 0.862424 0.355273
O O5 0.419712 0.580289 0.416667
O O6 0.590430 0.648200 0.307296
O O7 0.258196 0.199564 0.500929
O O8 0.876727 0.876727 0.166667
#
# Coordination Sequence:
#
# PCOD9582581 Si02
#       5
#     6   6  12  12   6
#     4  10  20  38  64 100 126 172 220 270 318 406
#     4  11  18  34  62  90 128 170 214 268 334 385
#     4  10  20  36  63  94 129 171 222 270 328 407
#     4  10  20  37  68  97 126 173 222 268 331 405
#     4  11  24  46  68  98 130 174 226 282 348 409
#
# _framework density 20.021753
#
# number of rings (size 3 to 8) (size 9 to 14) (size 15 to 20)
#    0.000    1.714    2.857    3.429    0.000    0.000 
#    2.571   11.429   15.714    0.000    0.000    0.000 
#    0.000    0.000    0.000    0.000    0.000    0.000 
#
# Total GULP energy -233813.069948 kJ/mol
# GULP energy per Si atom -5566.977856 kJ/mol
# Density = 1.997618 g / cm^3
# Si number density = 20.021753 Si / 1000 Ang^3
#
#
#
# Elastic Constant Matrix: (Units=GPa)
#
#
# Indices 1 2 3 4 5 6 
#
# 1 76.4067 80.5328 72.2473 0.0000 0.0000 0.0000
# 2 80.5328 76.4067 72.2473 0.0000 0.0000 0.0000
# 3 72.2473 72.2473 146.3454 0.0000 0.0000 0.0000
# 4 0.0000 0.0000 0.0000 -123.2880 0.0000 0.0000
# 5 0.0000 0.0000 0.0000 0.0000 -123.2880 0.0000
# 6 0.0000 0.0000 0.0000 0.0000 0.0000 -2.0631
#
#
#
# Elastic Compliance Matrix: (Units=1/GPa)
#
#
# Indices 1 2 3 4 5 6 
#
# 1 -0.115339 0.127020 -0.005767 0.000000 0.000000 0.000000
# 2 0.127020 -0.115339 -0.005767 0.000000 0.000000 0.000000
# 3 -0.005767 -0.005767 0.012527 0.000000 0.000000 0.000000
# 4 0.000000 0.000000 0.000000 -0.008111 0.000000 0.000000
# 5 0.000000 0.000000 0.000000 0.000000 -0.008111 0.000000
# 6 0.000000 0.000000 0.000000 0.000000 0.000000 -0.484719
#
#
# Mechanical properties :
#
#
# Convention : Reuss Voigt Hill
#
# Bulk Modulus (GPa) = 77.98767 83.24593 80.61680
# Shear Modulus (GPa) = -5.28658 -44.78571 -25.03614
#
# Velocity S-wave (km/s) = -1.62670 -4.73467 -3.54000
# Velocity P-wave (km/s) = 5.95884 3.43199 4.86243
#
# Compressibility (1/GPa) = 0.01282254
#
# Stress axis : x y z
#
# Youngs Moduli (GPa) = -8.67010 -8.67010 79.82721
#
# Poissons Ratio (x) = 1.10128 0.46035
# Poissons Ratio (y) = 1.10128 0.46035
# Poissons Ratio (z) = -0.05000 -0.05000
#
# Static dielectric constant tensor:
#      x y z
#    x 1.770790 0.000000 0.000000 
#    y 0.000000 1.770790 0.000000 
#    z 0.000000 0.000000 1.737410 
# 
# From -- ./inp_files/2437.got.cif
#   From: 2010.05.17/outbox.cif.g08.bks.cpg/sg178_2_cif.got.tgz:2437.got - 2010.05.20 11:30:59.
