data_PCOD9582343
_publ_section_title
;
Structure prediction by ZEFSAII (Michael W. Deem and Ramdas Pophale) SiO2 
 PCOD9582343
Probable space group: P 61 2 2
;
_chemical_formula_sum "Si O2"
_cell_formula_units_Z 42
_cell_length_a 11.867613
_cell_length_b 11.867613
_cell_length_c 18.356123
_cell_angle_alpha 90.000000
_cell_angle_beta 90.000000
_cell_angle_gamma 120.000000
_cell_volume 2238.918795
_symmetry_space_group_name_H-M "P 61 2 2"
_symmetry_group_IT_number 178
_symmetry_cell_setting 'hexagonal'
loop_
_space_group_symop_operation_xyz
x,y,z
x-y,x,1/6+z
-y,x-y,1/3+z
-x,-y,1/2+z
-x+y,-x,2/3+z
y,-x+y,5/6+z
x-y,-y,-z
-x,-x+y,2/3-z
y,x,1/3-z
-y,-x,5/6-z
-x+y,y,1/2-z
x,x-y,1/6-z
loop_
_atom_site_type_symbol
_atom_site_label
_atom_site_fract_x
_atom_site_fract_y
_atom_site_fract_z
Si Si1 0.324617 0.675384 0.916667
Si Si2 0.853841 0.539161 0.310704
Si Si3 0.313281 0.912325 0.070619
Si Si4 0.546765 0.897877 0.696063
O O1 0.255897 0.538158 0.873352
O O2 0.344890 0.786944 0.858745
O O3 0.795046 0.590092 0.250000
O O4 0.872771 0.423945 0.275602
O O5 0.000000 0.645361 0.333334
O O6 0.175786 0.782937 0.072983
O O7 0.349690 0.992693 0.144141
O O8 0.326632 0.000000 0.000000
O O9 0.471264 0.942527 0.750000
#
# Coordination Sequence:
#
# PCOD9582343 Si02
#       4
#     6  12  12  12
#     4  10  16  34  50  76 116 164 196 236 302 356
#     4  10  19  34  54  81 120 168 193 244 303 363
#     4  10  17  35  54  79 118 163 195 244 302 366
#     4  11  20  33  52  84 119 162 196 245 299 371
#
# _framework density 18.759053999999999
#
# number of rings (size 3 to 8) (size 9 to 14) (size 15 to 20)
#    0.000    1.714    8.571    3.429    0.000    0.000 
#   10.286    0.000    0.000    0.000    0.000    0.000 
#    0.000   45.714    0.000    0.000    0.000    0.000 
#
# Total GULP energy -234271.909462 kJ/mol
# GULP energy per Si atom -5577.902606 kJ/mol
# Density = 1.871636 g / cm^3
# Si number density = 18.759054 Si / 1000 Ang^3
#
#
#
# Elastic Constant Matrix: (Units=GPa)
#
#
# Indices 1 2 3 4 5 6 
#
# 1 67.2212 62.7651 58.1545 0.0000 0.0000 0.0000
# 2 62.7651 67.2212 58.1545 0.0000 0.0000 0.0000
# 3 58.1545 58.1545 109.2405 0.0000 0.0000 0.0000
# 4 0.0000 0.0000 0.0000 18.7631 0.0000 0.0000
# 5 0.0000 0.0000 0.0000 0.0000 18.7631 0.0000
# 6 0.0000 0.0000 0.0000 0.0000 0.0000 2.2281
#
#
#
# Elastic Compliance Matrix: (Units=1/GPa)
#
#
# Indices 1 2 3 4 5 6 
#
# 1 0.119550 -0.104859 -0.007821 0.000000 0.000000 0.000000
# 2 -0.104859 0.119550 -0.007821 0.000000 0.000000 0.000000
# 3 -0.007821 -0.007821 0.017481 0.000000 0.000000 0.000000
# 4 0.000000 0.000000 0.000000 0.053296 0.000000 0.000000
# 5 0.000000 0.000000 0.000000 0.000000 0.053296 0.000000
# 6 0.000000 0.000000 0.000000 0.000000 0.000000 0.448820
#
#
# Mechanical properties :
#
#
# Convention : Reuss Voigt Hill
#
# Bulk Modulus (GPa) = 64.18579 66.87013 65.52796
# Shear Modulus (GPa) = 4.72505 12.25812 8.49159
#
# Velocity S-wave (km/s) = 1.58880 2.55904 2.12990
# Velocity P-wave (km/s) = 6.13644 6.66752 6.40748
#
# Compressibility (1/GPa) = 0.01557977
#
# Stress axis : x y z
#
# Youngs Moduli (GPa) = 8.36467 8.36467 57.20514
#
# Poissons Ratio (x) = 0.87711 0.44739
# Poissons Ratio (y) = 0.87711 0.44739
# Poissons Ratio (z) = 0.06542 0.06542
#
# Static dielectric constant tensor:
#      x y z
#    x 1.664790 0.000000 0.000000 
#    y 0.000000 1.664790 0.000000 
#    z 0.000000 0.000000 1.721230 
# 
# From -- ./inp_files/5298.got.cif
#   From: 2010.05.17/outbox.cif.g08.bks.cpg/sg178_3_cif.got.tgz:5298.got - 2010.05.20 11:30:59.
