data_PCOD9582761
_publ_section_title
;
Structure prediction by ZEFSAII (Michael W. Deem and Ramdas Pophale) SiO2 
 PCOD9582761
Probable space group: P 61 2 2
;
_chemical_formula_sum "Si O2"
_cell_formula_units_Z 30
_cell_length_a 7.066342
_cell_length_b 7.066342
_cell_length_c 35.282288
_cell_angle_alpha 90.000000
_cell_angle_beta 90.000000
_cell_angle_gamma 120.000000
_cell_volume 1525.726460
_symmetry_space_group_name_H-M "P 61 2 2"
_symmetry_group_IT_number 178
_symmetry_cell_setting 'hexagonal'
loop_
_space_group_symop_operation_xyz
x,y,z
x-y,x,1/6+z
-y,x-y,1/3+z
-x,-y,1/2+z
-x+y,-x,2/3+z
y,-x+y,5/6+z
x-y,-y,-z
-x,-x+y,2/3-z
y,x,1/3-z
-y,-x,5/6-z
-x+y,y,1/2-z
x,x-y,1/6-z
loop_
_atom_site_type_symbol
_atom_site_label
_atom_site_fract_x
_atom_site_fract_y
_atom_site_fract_z
Si Si1 0.996832 0.003169 0.416667
Si Si2 0.710098 0.541064 0.950420
Si Si3 0.355254 0.225533 0.520785
O O1 0.154839 0.997159 0.383954
O O2 0.761044 0.916203 0.398479
O O3 0.535192 0.464809 0.916667
O O4 0.758940 0.347243 0.958983
O O5 0.640955 0.611353 0.988762
O O6 0.301745 0.000000 0.500000
#
# Coordination Sequence:
#
# PCOD9582761 Si02
#       3
#     6  12  12
#     4  10  22  42  60  90 126 154 210 266 298 380
#     4  11  22  39  63  91 122 167 206 255 321 370
#     4  10  22  40  62  91 129 159 210 262 308 379
#
# _framework density 19.662765
#
# number of rings (size 3 to 8) (size 9 to 14) (size 15 to 20)
#    0.000    1.600    2.000    2.400    0.000    3.200 
#    3.600    0.000    0.000    0.000    0.000    0.000 
#    0.000    0.000    0.000    0.000    0.000    0.000 
#
# Total GULP energy -167521.365396 kJ/mol
# GULP energy per Si atom -5584.045513 kJ/mol
# Density = 1.961801 g / cm^3
# Si number density = 19.662765 Si / 1000 Ang^3
#
#
#
# Elastic Constant Matrix: (Units=GPa)
#
#
# Indices 1 2 3 4 5 6 
#
# 1 58.6204 38.7982 33.7592 0.0000 0.0000 0.0000
# 2 38.7982 58.6204 33.7592 0.0000 0.0000 0.0000
# 3 33.7592 33.7592 123.3613 0.0000 0.0000 0.0000
# 4 0.0000 0.0000 0.0000 26.9922 0.0000 0.0000
# 5 0.0000 0.0000 0.0000 0.0000 26.9922 0.0000
# 6 0.0000 0.0000 0.0000 0.0000 0.0000 9.9111
#
#
#
# Elastic Compliance Matrix: (Units=1/GPa)
#
#
# Indices 1 2 3 4 5 6 
#
# 1 0.031558 -0.018890 -0.003467 0.000000 0.000000 0.000000
# 2 -0.018890 0.031558 -0.003467 0.000000 0.000000 0.000000
# 3 -0.003467 -0.003467 0.010004 0.000000 0.000000 0.000000
# 4 0.000000 0.000000 0.000000 0.037048 0.000000 0.000000
# 5 0.000000 0.000000 0.000000 0.000000 0.037048 0.000000
# 6 0.000000 0.000000 0.000000 0.000000 0.000000 0.100897
#
#
# Mechanical properties :
#
#
# Convention : Reuss Voigt Hill
#
# Bulk Modulus (GPa) = 46.57156 50.35947 48.46551
# Shear Modulus (GPa) = 16.29107 21.73148 19.01128
#
# Velocity S-wave (km/s) = 2.88153 3.32808 3.11282
# Velocity P-wave (km/s) = 5.89979 6.35888 6.13363
#
# Compressibility (1/GPa) = 0.02147233
#
# Stress axis : x y z
#
# Youngs Moduli (GPa) = 31.68768 31.68768 99.96363
#
# Poissons Ratio (x) = 0.59859 0.34654
# Poissons Ratio (y) = 0.59859 0.34654
# Poissons Ratio (z) = 0.10985 0.10985
#
# Static dielectric constant tensor:
#      x y z
#    x 1.674690 0.000000 0.000000 
#    y 0.000000 1.674690 0.000000 
#    z 0.000000 0.000000 1.723910 
# 
# From -- ./inp_files/9066.got.cif
#   From: 2010.05.17/outbox.cif.g08.bks.cpg/sg178_5_cif.got.tgz:9066.got - 2010.05.20 11:30:59.
