data_PCOD9582033
_publ_section_title
;
Structure prediction by ZEFSAII (Michael W. Deem and Ramdas Pophale) SiO2 
 PCOD9582033
Probable space group: P 63/M
;
_chemical_formula_sum "Si O2"
_cell_formula_units_Z 84
_cell_length_a 14.488601
_cell_length_b 14.488601
_cell_length_c 21.502037
_cell_angle_alpha 90.000000
_cell_angle_beta 90.000000
_cell_angle_gamma 120.000000
_cell_volume 3908.977240
_symmetry_space_group_name_H-M "P 63/M"
_symmetry_group_IT_number 176
_symmetry_cell_setting 'hexagonal'
loop_
_space_group_symop_operation_xyz
x,y,z
x-y,x,1/2+z
-y,x-y,z
-x,-y,1/2+z
-x+y,-x,z
y,-x+y,1/2+z
-x,-y,-z
-x+y,-x,1/2-z
y,-x+y,-z
x,y,1/2-z
x-y,x,-z
-y,x-y,1/2-z
loop_
_atom_site_type_symbol
_atom_site_label
_atom_site_fract_x
_atom_site_fract_y
_atom_site_fract_z
Si Si1 0.574711 0.720285 0.648538
Si Si2 0.944021 0.508782 0.565065
Si Si3 0.888616 0.382994 0.323336
Si Si4 0.177136 0.219318 0.975901
Si Si5 0.817235 0.058994 0.250000
Si Si6 0.059838 0.250391 0.250000
Si Si7 0.670912 0.773271 0.118300
Si Si8 0.685382 0.626972 0.929316
O O1 0.468180 0.620318 0.675972
O O2 0.543018 0.811138 0.646356
O O3 0.677255 0.764396 0.692531
O O4 0.611445 0.678007 0.588776
O O5 0.884334 0.576805 0.571001
O O6 0.883823 0.383535 0.579777
O O7 0.000000 0.500000 0.500000
O O8 0.018736 0.562906 0.625229
O O9 0.906871 0.369069 0.250000
O O10 0.218679 0.211156 0.909195
O O11 0.057146 0.192421 0.981942
O O12 0.261563 0.334401 0.003166
O O13 0.943361 0.144895 0.250000
O O14 0.788744 0.936180 0.250000
O O15 0.076321 0.323897 0.190204
O O16 0.672121 0.883745 0.113486
#
# Coordination Sequence:
#
# PCOD9582033 Si02
#       8
#    12  12  12  12   6   6  12  12
#     4  11  22  40  66  98 143 172 216 293 355 435
#     4  11  24  44  64  94 130 172 233 288 346 411
#     4  11  22  37  66 101 130 172 217 270 363 425
#     4  10  22  38  64  93 130 173 224 277 342 420
#     4  12  23  42  62  92 150 182 225 285 337 425
#     4  12  27  40  66 106 136 198 231 279 351 429
#     4  11  24  43  66  95 132 177 236 281 348 426
#     4  10  23  43  66  93 130 181 221 290 354 414
#
# _framework density 21.488997999999999
#
# number of rings (size 3 to 8) (size 9 to 14) (size 15 to 20)
#    0.000    1.143    4.286    1.429    5.000    0.000 
#    0.857    0.000    0.000    0.000    0.000    0.000 
#    0.000    0.000    0.000    0.000    0.000    0.000 
#
# Total GULP energy -467814.206806 kJ/mol
# GULP energy per Si atom -5569.216748 kJ/mol
# Density = 2.144009 g / cm^3
# Si number density = 21.488998 Si / 1000 Ang^3
#
#
#
# Elastic Constant Matrix: (Units=GPa)
#
#
# Indices 1 2 3 4 5 6 
#
# 1 95.1295 32.4289 21.0156 0.0000 0.0000 0.0000
# 2 32.4289 95.1295 21.0156 0.0000 0.0000 0.0000
# 3 21.0156 21.0156 97.3673 0.0000 0.0000 0.0000
# 4 0.0000 0.0000 0.0000 18.4278 0.0000 0.0000
# 5 0.0000 0.0000 0.0000 0.0000 18.4278 0.0000
# 6 0.0000 0.0000 0.0000 0.0000 0.0000 31.3503
#
#
#
# Elastic Compliance Matrix: (Units=1/GPa)
#
#
# Indices 1 2 3 4 5 6 
#
# 1 0.012194 -0.003755 -0.001822 0.000000 0.000000 0.000000
# 2 -0.003755 0.012194 -0.001822 0.000000 0.000000 0.000000
# 3 -0.001822 -0.001822 0.011057 0.000000 0.000000 0.000000
# 4 0.000000 0.000000 0.000000 0.054266 0.000000 0.000000
# 5 0.000000 0.000000 0.000000 0.000000 0.054266 0.000000
# 6 0.000000 0.000000 0.000000 0.000000 0.000000 0.031898
#
#
# Mechanical properties :
#
#
# Convention : Reuss Voigt Hill
#
# Bulk Modulus (GPa) = 48.42663 48.50516 48.46589
# Shear Modulus (GPa) = 25.30959 27.85224 26.58092
#
# Velocity S-wave (km/s) = 3.43562 3.60407 3.52085
# Velocity P-wave (km/s) = 6.19051 6.31982 6.25550
#
# Compressibility (1/GPa) = 0.02064980
#
# Stress axis : x y z
#
# Youngs Moduli (GPa) = 82.00551 82.00551 90.44252
#
# Poissons Ratio (x) = 0.30789 0.16475
# Poissons Ratio (y) = 0.30789 0.16475
# Poissons Ratio (z) = 0.14938 0.14938
#
# Static dielectric constant tensor:
#      x y z
#    x 1.851990 0.000000 0.000000 
#    y 0.000000 1.851990 0.000000 
#    z 0.000000 0.000000 1.848480 
# 
# From -- ./inp_files/4119.got.cif
#   From: 2010.05.17/outbox.cif.g08.bks.cpg/sg176_3_cif.got.tgz:4119.got - 2010.06.03 11:36:45.
