data_PCOD9582603
_publ_section_title
;
Structure prediction by ZEFSAII (Michael W. Deem and Ramdas Pophale) SiO2 
 PCOD9582603
Probable space group: P 61 2 2
;
_chemical_formula_sum "Si O2"
_cell_formula_units_Z 42
_cell_length_a 7.918323
_cell_length_b 7.918323
_cell_length_c 35.380571
_cell_angle_alpha 90.000000
_cell_angle_beta 90.000000
_cell_angle_gamma 120.000000
_cell_volume 1921.152746
_symmetry_space_group_name_H-M "P 61 2 2"
_symmetry_group_IT_number 178
_symmetry_cell_setting 'hexagonal'
loop_
_space_group_symop_operation_xyz
x,y,z
x-y,x,1/6+z
-y,x-y,1/3+z
-x,-y,1/2+z
-x+y,-x,2/3+z
y,-x+y,5/6+z
x-y,-y,-z
-x,-x+y,2/3-z
y,x,1/3-z
-y,-x,5/6-z
-x+y,y,1/2-z
x,x-y,1/6-z
loop_
_atom_site_type_symbol
_atom_site_label
_atom_site_fract_x
_atom_site_fract_y
_atom_site_fract_z
Si Si1 0.087435 0.684707 0.183300
Si Si2 0.312023 0.312023 0.666667
Si Si3 0.646648 0.572419 0.881553
Si Si4 0.466103 0.531274 0.091569
O O1 0.247105 0.900655 0.194577
O O2 0.892469 0.692191 0.172712
O O3 0.157086 0.603191 0.148752
O O4 0.054307 0.549843 0.220024
O O5 0.406832 0.436974 0.628811
O O6 0.499157 0.500844 0.916667
O O7 0.852392 0.610469 0.897476
O O8 0.474554 0.737277 0.083334
#
# Coordination Sequence:
#
# PCOD9582603 Si02
#       4
#    12   6  12  12
#     4  11  22  38  63  90 121 163 206 260 315 370
#     4  10  20  38  58  86 124 156 200 264 316 368
#     4  11  22  39  61  89 122 164 210 252 312 378
#     4   9  20  37  58  84 121 160 201 255 313 370
#
# _framework density 21.861872000000002
#
# number of rings (size 3 to 8) (size 9 to 14) (size 15 to 20)
#    0.000    1.714    0.000    6.857    0.000    1.143 
#    0.000    0.000    0.000   13.714    0.000    0.000 
#    0.000    0.000    0.000    0.000    0.000    0.000 
#
# Total GULP energy -234848.697523 kJ/mol
# GULP energy per Si atom -5591.635655 kJ/mol
# Density = 2.181211 g / cm^3
# Si number density = 21.861872 Si / 1000 Ang^3
#
#
#
# Elastic Constant Matrix: (Units=GPa)
#
#
# Indices 1 2 3 4 5 6 
#
# 1 65.8864 21.6750 29.2426 0.0000 0.0000 0.0000
# 2 21.6750 65.8864 29.2426 0.0000 0.0000 0.0000
# 3 29.2426 29.2426 147.9441 0.0000 0.0000 0.0000
# 4 0.0000 0.0000 0.0000 33.0056 0.0000 0.0000
# 5 0.0000 0.0000 0.0000 0.0000 33.0056 0.0000
# 6 0.0000 0.0000 0.0000 0.0000 0.0000 22.1057
#
#
#
# Elastic Compliance Matrix: (Units=1/GPa)
#
#
# Indices 1 2 3 4 5 6 
#
# 1 0.017888 -0.004730 -0.002601 0.000000 0.000000 0.000000
# 2 -0.004730 0.017888 -0.002601 0.000000 0.000000 0.000000
# 3 -0.002601 -0.002601 0.007787 0.000000 0.000000 0.000000
# 4 0.000000 0.000000 0.000000 0.030298 0.000000 0.000000
# 5 0.000000 0.000000 0.000000 0.000000 0.030298 0.000000
# 6 0.000000 0.000000 0.000000 0.000000 0.000000 0.045237
#
#
# Mechanical properties :
#
#
# Convention : Reuss Voigt Hill
#
# Bulk Modulus (GPa) = 42.19443 48.89305 45.54374
# Shear Modulus (GPa) = 28.22298 30.92715 29.57506
#
# Velocity S-wave (km/s) = 3.59690 3.76528 3.68205
# Velocity P-wave (km/s) = 6.04919 6.42777 6.24135
#
# Compressibility (1/GPa) = 0.02369981
#
# Stress axis : x y z
#
# Youngs Moduli (GPa) = 55.90294 55.90294 128.41200
#
# Poissons Ratio (x) = 0.26445 0.33397
# Poissons Ratio (y) = 0.26445 0.33397
# Poissons Ratio (z) = 0.14539 0.14539
#
# Static dielectric constant tensor:
#      x y z
#    x 1.819400 0.000000 0.000000 
#    y 0.000000 1.819400 0.000000 
#    z 0.000000 0.000000 1.777180 
# 
# From -- ./inp_files/9265.got.cif
#   From: 2010.05.17/outbox.cif.g08.bks.cpg/sg178_5_cif.got.tgz:9265.got - 2010.05.20 11:30:59.
