data_PCOD9582234
_publ_section_title
;
Structure prediction by ZEFSAII (Michael W. Deem and Ramdas Pophale) SiO2 
 PCOD9582234
Probable space group: P 6 2 2
;
_chemical_formula_sum "Si O2"
_cell_formula_units_Z 76
_cell_length_a 18.022146
_cell_length_b 18.022146
_cell_length_c 16.108794
_cell_angle_alpha 90.000000
_cell_angle_beta 90.000000
_cell_angle_gamma 120.000000
_cell_volume 4531.131506
_symmetry_space_group_name_H-M "P 6 2 2"
_symmetry_group_IT_number 177
_symmetry_cell_setting 'hexagonal'
loop_
_space_group_symop_operation_xyz
x,y,z
x-y,x,z
-y,x-y,z
-x,-y,z
-x+y,-x,z
y,-x+y,z
x-y,-y,-z
-x,-x+y,-z
y,x,-z
-y,-x,-z
-x+y,y,-z
x,x-y,-z
loop_
_atom_site_type_symbol
_atom_site_label
_atom_site_fract_x
_atom_site_fract_y
_atom_site_fract_z
Si Si1 0.566274 0.132547 0.500000
Si Si2 0.635102 0.465272 0.320247
Si Si3 0.209594 0.522418 0.219726
Si Si4 0.277028 0.941216 0.669819
Si Si5 0.630332 0.000000 0.500000
Si Si6 0.205375 0.324220 0.756814
Si Si7 0.666667 0.333335 0.099031
Si Si8 0.203704 0.106135 0.092016
O O1 0.562817 0.178769 0.416267
O O2 0.609087 0.074723 0.475055
O O3 0.713696 0.456851 0.284586
O O4 0.555092 0.403512 0.263486
O O5 0.659938 0.563707 0.308880
O O6 0.158389 0.421150 0.211087
O O7 0.256226 0.579010 0.138742
O O8 0.303286 0.969936 0.575185
O O9 0.182464 0.861110 0.687226
O O10 0.292151 0.023841 0.721839
O O11 0.147574 0.269337 0.833389
O O12 0.666668 0.333334 0.000000
O O13 0.142949 0.147187 0.097906
O O14 0.244720 0.122360 0.000000
#
# Coordination Sequence:
#
# PCOD9582234 Si02
#       8
#     6  12  12  12   6  12   4  12
#     4   9  16  28  50  72 104 140 178 218 270 304
#     4   9  18  33  48  75 105 138 177 218 257 307
#     4   9  19  32  51  75 103 135 177 218 259 301
#     4  10  21  34  53  74 105 139 179 215 261 311
#     4   9  18  32  48  74 102 143 182 220 254 301
#     4  11  20  34  54  79 103 138 169 212 265 318
#     4   9  18  36  54  70  98 139 180 216 249 309
#     4  10  20  36  58  83 108 129 159 207 267 328
#
# _framework density 16.772853000000001
#
# number of rings (size 3 to 8) (size 9 to 14) (size 15 to 20)
#    0.000    2.368    1.579    1.421    0.000    4.421 
#    0.000    4.737    0.000    0.000    0.000    1.105 
#    0.000    2.526    0.000    0.000    0.000    0.000 
#
# Total GULP energy -423415.887236 kJ/mol
# GULP energy per Si atom -5571.261674 kJ/mol
# Density = 1.673468 g / cm^3
# Si number density = 16.772853 Si / 1000 Ang^3
#
#
#
# Elastic Constant Matrix: (Units=GPa)
#
#
# Indices 1 2 3 4 5 6 
#
# 1 71.4639 39.7922 46.9514 0.0000 -0.0001 0.0000
# 2 39.7922 71.4639 46.9515 0.0000 0.0000 0.0000
# 3 46.9514 46.9515 109.9214 0.0002 0.0000 0.0001
# 4 0.0000 0.0000 0.0002 21.6419 0.0000 0.0000
# 5 -0.0001 0.0000 0.0000 0.0000 21.6418 0.0000
# 6 0.0000 0.0000 0.0001 0.0000 0.0000 15.8359
#
#
#
# Elastic Compliance Matrix: (Units=1/GPa)
#
#
# Indices 1 2 3 4 5 6 
#
# 1 0.022815 -0.008759 -0.006004 0.000000 0.000000 0.000000
# 2 -0.008759 0.022815 -0.006004 0.000000 0.000000 0.000000
# 3 -0.006004 -0.006004 0.014226 0.000000 0.000000 0.000000
# 4 0.000000 0.000000 0.000000 0.046207 0.000000 0.000000
# 5 0.000000 0.000000 0.000000 0.000000 0.046207 0.000000
# 6 0.000000 0.000000 0.000000 0.000000 0.000000 0.063148
#
#
# Mechanical properties :
#
#
# Convention : Reuss Voigt Hill
#
# Bulk Modulus (GPa) = 54.57730 57.80438 56.19084
# Shear Modulus (GPa) = 19.00728 19.76753 19.38740
#
# Velocity S-wave (km/s) = 3.36998 3.43672 3.40351
# Velocity P-wave (km/s) = 6.91029 7.09125 7.00136
#
# Compressibility (1/GPa) = 0.01832264
#
# Stress axis : x y z
#
# Youngs Moduli (GPa) = 43.83148 43.83136 70.29327
#
# Poissons Ratio (x) = 0.38393 0.42201
# Poissons Ratio (y) = 0.38393 0.42201
# Poissons Ratio (z) = 0.26314 0.26315
#
# Static dielectric constant tensor:
#      x y z
#    x 1.578880 0.000000 0.000000 
#    y 0.000000 1.578880 0.000000 
#    z 0.000000 0.000000 1.557390 
# 
# From -- ./inp_files/2609.got.cif
#   From: 2010.05.17/outbox.cif.g08.bks.cpg/sg177_2_cif.got.tgz:2609.got - 2010.05.20 11:28:44.
