data_PCOD9582541
_publ_section_title
;
Structure prediction by ZEFSAII (Michael W. Deem and Ramdas Pophale) SiO2 
 PCOD9582541
Probable space group: P 61 2 2
;
_chemical_formula_sum "Si O2"
_cell_formula_units_Z 54
_cell_length_a 15.451893
_cell_length_b 15.451893
_cell_length_c 13.864567
_cell_angle_alpha 90.000000
_cell_angle_beta 90.000000
_cell_angle_gamma 120.000000
_cell_volume 2866.819347
_symmetry_space_group_name_H-M "P 61 2 2"
_symmetry_group_IT_number 178
_symmetry_cell_setting 'hexagonal'
loop_
_space_group_symop_operation_xyz
x,y,z
x-y,x,1/6+z
-y,x-y,1/3+z
-x,-y,1/2+z
-x+y,-x,2/3+z
y,-x+y,5/6+z
x-y,-y,-z
-x,-x+y,2/3-z
y,x,1/3-z
-y,-x,5/6-z
-x+y,y,1/2-z
x,x-y,1/6-z
loop_
_atom_site_type_symbol
_atom_site_label
_atom_site_fract_x
_atom_site_fract_y
_atom_site_fract_z
Si Si1 0.162588 0.081294 0.583334
Si Si2 0.522342 0.165167 0.542837
Si Si3 0.285277 0.334714 0.833208
Si Si4 0.351021 0.494314 0.486448
Si Si5 0.503637 0.338939 0.343342
O O1 0.101645 0.101645 0.666667
O O2 0.235507 0.052319 0.642272
O O3 0.553764 0.276882 0.583334
O O4 0.407539 0.100481 0.575094
O O5 0.533103 0.162976 0.429457
O O6 0.578337 0.112896 0.594092
O O7 0.378679 0.318274 0.845554
O O8 0.292563 0.403349 0.925844
O O9 0.444149 0.555852 0.416667
O O10 0.258613 0.508178 0.457458
O O11 0.595246 0.404755 0.416667
#
# Coordination Sequence:
#
# PCOD9582541 Si02
#       5
#     6  12  12  12  12
#     4  12  24  42  74 100 122 154 204 258 322 380
#     4  11  19  35  56  81 120 169 204 256 305 368
#     4  11  21  39  59  92 121 156 205 265 311 354
#     4  12  23  33  56  88 122 166 212 259 311 377
#     4  10  20  34  54  78 121 164 201 253 309 366
#
# _framework density 18.836205
#
# number of rings (size 3 to 8) (size 9 to 14) (size 15 to 20)
#    0.000    0.889    5.556    6.000    0.000    0.000 
#    0.000    0.000    0.000    5.333    0.000    0.000 
#    0.000    0.000    0.000    0.000    0.000    0.000 
#
# Total GULP energy -301061.554531 kJ/mol
# GULP energy per Si atom -5575.213973 kJ/mol
# Density = 1.879333 g / cm^3
# Si number density = 18.836205 Si / 1000 Ang^3
#
#
#
# Elastic Constant Matrix: (Units=GPa)
#
#
# Indices 1 2 3 4 5 6 
#
# 1 87.5287 44.5946 41.3363 0.0000 0.0000 0.0000
# 2 44.5946 87.5287 41.3363 0.0000 0.0000 0.0000
# 3 41.3363 41.3363 81.2449 0.0000 0.0000 0.0000
# 4 0.0000 0.0000 0.0000 25.2015 0.0000 0.0000
# 5 0.0000 0.0000 0.0000 0.0000 25.2015 0.0000
# 6 0.0000 0.0000 0.0000 0.0000 0.0000 21.4671
#
#
#
# Elastic Compliance Matrix: (Units=1/GPa)
#
#
# Indices 1 2 3 4 5 6 
#
# 1 0.017198 -0.006094 -0.005649 0.000000 0.000000 0.000000
# 2 -0.006094 0.017198 -0.005649 0.000000 0.000000 0.000000
# 3 -0.005649 -0.005649 0.018057 0.000000 0.000000 0.000000
# 4 0.000000 0.000000 0.000000 0.039680 0.000000 0.000000
# 5 0.000000 0.000000 0.000000 0.000000 0.039680 0.000000
# 6 0.000000 0.000000 0.000000 0.000000 0.000000 0.046583
#
#
# Mechanical properties :
#
#
# Convention : Reuss Voigt Hill
#
# Bulk Modulus (GPa) = 56.60313 56.75966 56.68139
# Shear Modulus (GPa) = 22.82374 22.97633 22.90004
#
# Velocity S-wave (km/s) = 3.48472 3.49635 3.49054
# Velocity P-wave (km/s) = 6.80488 6.81894 6.81192
#
# Compressibility (1/GPa) = 0.01766687
#
# Stress axis : x y z
#
# Youngs Moduli (GPa) = 58.14776 58.14776 55.37979
#
# Poissons Ratio (x) = 0.35435 0.31286
# Poissons Ratio (y) = 0.35435 0.31286
# Poissons Ratio (z) = 0.32850 0.32850
#
# Static dielectric constant tensor:
#      x y z
#    x 1.732490 0.000000 0.000000 
#    y 0.000000 1.732490 0.000000 
#    z 0.000000 0.000000 1.713330 
# 
# From -- ./inp_files/5558.got.cif
#   From: 2010.05.17/outbox.cif.g08.bks.cpg/sg178_3_cif.got.tgz:5558.got - 2010.05.20 11:30:59.
