data_PCOD9582825
_publ_section_title
;
Structure prediction by ZEFSAII (Michael W. Deem and Ramdas Pophale) SiO2 
 PCOD9582825
Probable space group: P 61 2 2
;
_chemical_formula_sum "Si O2"
_cell_formula_units_Z 30
_cell_length_a 8.462165
_cell_length_b 8.462165
_cell_length_c 16.332259
_cell_angle_alpha 90.000000
_cell_angle_beta 90.000000
_cell_angle_gamma 120.000000
_cell_volume 1012.837724
_symmetry_space_group_name_H-M "P 61 2 2"
_symmetry_group_IT_number 178
_symmetry_cell_setting 'hexagonal'
loop_
_space_group_symop_operation_xyz
x,y,z
x-y,x,1/6+z
-y,x-y,1/3+z
-x,-y,1/2+z
-x+y,-x,2/3+z
y,-x+y,5/6+z
x-y,-y,-z
-x,-x+y,2/3-z
y,x,1/3-z
-y,-x,5/6-z
-x+y,y,1/2-z
x,x-y,1/6-z
loop_
_atom_site_type_symbol
_atom_site_label
_atom_site_fract_x
_atom_site_fract_y
_atom_site_fract_z
Si Si1 0.307681 0.321060 0.544744
Si Si2 0.336983 0.663018 0.916667
Si Si3 0.726373 0.151901 0.563571
O O1 0.250814 0.125407 0.583334
O O2 0.243261 0.447739 0.597227
O O3 0.550465 0.470599 0.274338
O O4 0.212111 0.324066 0.460089
O O5 0.304879 0.747543 0.834035
O O6 0.709460 0.000000 0.500000
#
# Coordination Sequence:
#
# PCOD9582825 Si02
#       3
#    12   6  12
#     4  11  23  48  91 148 180 257 334 396 513 615
#     4  10  22  48  76 140 196 236 310 416 490 588
#     4  10  24  51  83 145 191 250 317 417 501 598
#
# _framework density 29.619748999999999
#
# number of rings (size 3 to 8) (size 9 to 14) (size 15 to 20)
#    0.000    1.600    0.000    3.600    0.000    0.000 
#   86.400    0.000    0.000    2.400  421.200    0.000 
#    0.000    0.000    0.000    0.000    0.000    0.000 
#
# Total GULP energy -167919.315503 kJ/mol
# GULP energy per Si atom -5597.310517 kJ/mol
# Density = 2.955233 g / cm^3
# Si number density = 29.619749 Si / 1000 Ang^3
#
#
#
# Elastic Constant Matrix: (Units=GPa)
#
#
# Indices 1 2 3 4 5 6 
#
# 1 200.2427 110.2649 120.1389 0.0000 0.0000 0.0000
# 2 110.2649 200.2427 120.1389 0.0000 0.0000 0.0000
# 3 120.1389 120.1389 280.2779 0.0000 0.0000 0.0000
# 4 0.0000 0.0000 0.0000 64.9389 0.0000 0.0000
# 5 0.0000 0.0000 0.0000 0.0000 64.9389 0.0000
# 6 0.0000 0.0000 0.0000 0.0000 0.0000 44.9889
#
#
#
# Elastic Compliance Matrix: (Units=1/GPa)
#
#
# Indices 1 2 3 4 5 6 
#
# 1 0.007966 -0.003147 -0.002066 0.000000 0.000000 0.000000
# 2 -0.003147 0.007966 -0.002066 0.000000 0.000000 0.000000
# 3 -0.002066 -0.002066 0.005339 0.000000 0.000000 0.000000
# 4 0.000000 0.000000 0.000000 0.015399 0.000000 0.000000
# 5 0.000000 0.000000 0.000000 0.000000 0.015399 0.000000
# 6 0.000000 0.000000 0.000000 0.000000 0.000000 0.022228
#
#
# Mechanical properties :
#
#
# Convention : Reuss Voigt Hill
#
# Bulk Modulus (GPa) = 148.93865 153.53873 151.23869
# Shear Modulus (GPa) = 54.88911 56.98805 55.93858
#
# Velocity S-wave (km/s) = 4.30946 4.39109 4.35047
# Velocity P-wave (km/s) = 8.66918 8.81238 8.74107
#
# Compressibility (1/GPa) = 0.00671417
#
# Stress axis : x y z
#
# Youngs Moduli (GPa) = 125.52725 125.52725 187.31170
#
# Poissons Ratio (x) = 0.39509 0.38691
# Poissons Ratio (y) = 0.39509 0.38691
# Poissons Ratio (z) = 0.25929 0.25929
#
# Static dielectric constant tensor:
#      x y z
#    x 2.471880 0.000000 0.000000 
#    y 0.000000 2.471880 0.000000 
#    z 0.000000 0.000000 2.531270 
# 
# From -- ./inp_files/5009.got.cif
#   From: 2010.05.17/outbox.cif.g08.bks.cpg/sg178_3_cif.got.tgz:5009.got - 2010.05.20 11:30:59.
