data_PCOD9582395
_publ_section_title
;
Structure prediction by ZEFSAII (Michael W. Deem and Ramdas Pophale) SiO2 
 PCOD9582395
Probable space group: P 61 2 2
;
_chemical_formula_sum "Si O2"
_cell_formula_units_Z 54
_cell_length_a 25.216967
_cell_length_b 25.216967
_cell_length_c 5.385248
_cell_angle_alpha 90.000000
_cell_angle_beta 90.000000
_cell_angle_gamma 120.000000
_cell_volume 2965.664646
_symmetry_space_group_name_H-M "P 61 2 2"
_symmetry_group_IT_number 178
_symmetry_cell_setting 'hexagonal'
loop_
_space_group_symop_operation_xyz
x,y,z
x-y,x,1/6+z
-y,x-y,1/3+z
-x,-y,1/2+z
-x+y,-x,2/3+z
y,-x+y,5/6+z
x-y,-y,-z
-x,-x+y,2/3-z
y,x,1/3-z
-y,-x,5/6-z
-x+y,y,1/2-z
x,x-y,1/6-z
loop_
_atom_site_type_symbol
_atom_site_label
_atom_site_fract_x
_atom_site_fract_y
_atom_site_fract_z
Si Si1 0.755579 0.128769 0.176519
Si Si2 0.575145 0.850927 0.332877
Si Si3 0.753823 0.315909 0.162634
Si Si4 0.068923 0.137845 0.250000
Si Si5 0.232453 0.040109 0.258396
O O1 0.799164 0.202821 0.170696
O O2 0.713223 0.111456 0.417123
O O3 0.795442 0.096419 0.220865
O O4 0.718683 0.113368 0.919764
O O5 0.502151 0.816213 0.354373
O O6 0.713507 0.286494 0.416667
O O7 0.761191 0.380596 0.083334
O O8 0.723914 0.276087 0.916667
O O9 0.095480 0.095480 0.166667
O O10 0.119779 0.184653 0.441200
O O11 0.223323 0.000000 0.500000
O O12 0.216840 0.000000 0.000000
#
# Coordination Sequence:
#
# PCOD9582395 Si02
#       5
#    12  12  12   6  12
#     4  10  18  34  57  73 108 140 181 247 295 342
#     4  10  18  32  53  78 102 149 197 220 279 350
#     4  12  21  34  47  76 119 165 201 232 264 323
#     4  10  24  40  58  82 118 162 202 234 280 352
#     4  11  24  40  59  89 115 142 192 250 312 359
#
# _framework density 18.208396
#
# number of rings (size 3 to 8) (size 9 to 14) (size 15 to 20)
#    0.000    1.333    4.444    4.000    0.000    9.778 
#    0.000    0.000    0.000    0.000    0.000    0.000 
#    0.000   17.778    0.000    0.000    0.000    0.000 
#
# Total GULP energy -300800.954150 kJ/mol
# GULP energy per Si atom -5570.388040 kJ/mol
# Density = 1.816695 g / cm^3
# Si number density = 18.208396 Si / 1000 Ang^3
#
#
#
# Elastic Constant Matrix: (Units=GPa)
#
#
# Indices 1 2 3 4 5 6 
#
# 1 73.8803 50.1535 31.9095 0.0000 0.0000 0.0000
# 2 50.1535 73.8803 31.9095 0.0000 0.0000 0.0000
# 3 31.9095 31.9095 173.1734 0.0000 0.0000 0.0000
# 4 0.0000 0.0000 0.0000 16.1401 0.0000 0.0000
# 5 0.0000 0.0000 0.0000 0.0000 16.1401 0.0000
# 6 0.0000 0.0000 0.0000 0.0000 0.0000 11.8634
#
#
#
# Elastic Compliance Matrix: (Units=1/GPa)
#
#
# Indices 1 2 3 4 5 6 
#
# 1 0.025527 -0.016620 -0.001641 0.000000 0.000000 0.000000
# 2 -0.016620 0.025527 -0.001641 0.000000 0.000000 0.000000
# 3 -0.001641 -0.001641 0.006379 0.000000 0.000000 0.000000
# 4 0.000000 0.000000 0.000000 0.061957 0.000000 0.000000
# 5 0.000000 0.000000 0.000000 0.000000 0.061957 0.000000
# 6 0.000000 0.000000 0.000000 0.000000 0.000000 0.084293
#
#
# Mechanical properties :
#
#
# Convention : Reuss Voigt Hill
#
# Bulk Modulus (GPa) = 56.72748 60.98655 58.85702
# Shear Modulus (GPa) = 16.06063 22.62618 19.34341
#
# Velocity S-wave (km/s) = 2.97315 3.52891 3.26288
# Velocity P-wave (km/s) = 6.55807 7.08312 6.82565
#
# Compressibility (1/GPa) = 0.01762814
#
# Stress axis : x y z
#
# Youngs Moduli (GPa) = 39.17489 39.17489 156.75511
#
# Poissons Ratio (x) = 0.65108 0.25726
# Poissons Ratio (y) = 0.65108 0.25726
# Poissons Ratio (z) = 0.06429 0.06429
#
# Static dielectric constant tensor:
#      x y z
#    x 1.645240 0.000000 0.000000 
#    y 0.000000 1.645240 0.000000 
#    z 0.000000 0.000000 1.484980 
# 
# From -- ./inp_files/1165.got.cif
#   From: 2010.05.17/outbox.cif.g08.bks.cpg/sg178_1_cif.got.tgz:1165.got - 2010.05.20 11:30:59.
