data_PCOD9582628
_publ_section_title
;
Structure prediction by ZEFSAII (Michael W. Deem and Ramdas Pophale) SiO2 
 PCOD9582628
Probable space group: P 61 2 2
;
_chemical_formula_sum "Si O2"
_cell_formula_units_Z 66
_cell_length_a 15.127345
_cell_length_b 15.127345
_cell_length_c 16.433009
_cell_angle_alpha 90.000000
_cell_angle_beta 90.000000
_cell_angle_gamma 120.000000
_cell_volume 3256.665461
_symmetry_space_group_name_H-M "P 61 2 2"
_symmetry_group_IT_number 178
_symmetry_cell_setting 'hexagonal'
loop_
_space_group_symop_operation_xyz
x,y,z
x-y,x,1/6+z
-y,x-y,1/3+z
-x,-y,1/2+z
-x+y,-x,2/3+z
y,-x+y,5/6+z
x-y,-y,-z
-x,-x+y,2/3-z
y,x,1/3-z
-y,-x,5/6-z
-x+y,y,1/2-z
x,x-y,1/6-z
loop_
_atom_site_type_symbol
_atom_site_label
_atom_site_fract_x
_atom_site_fract_y
_atom_site_fract_z
Si Si1 0.793251 0.396626 0.083334
Si Si2 0.993516 0.775539 0.157536
Si Si3 0.327127 0.672874 0.416667
Si Si4 0.915176 0.728819 0.895267
Si Si5 0.206572 0.000000 0.500000
Si Si6 0.029662 0.386352 0.523263
Si Si7 0.807037 0.529060 0.664714
O O1 0.727346 0.399464 0.162665
O O2 0.872429 0.506034 0.043680
O O3 0.096164 0.875453 0.127644
O O4 0.999260 0.741016 0.248992
O O5 0.902732 0.800871 0.159410
O O6 0.975626 0.686441 0.096753
O O7 0.446615 0.717122 0.435250
O O8 0.815110 0.643176 0.849986
O O9 0.000000 0.805899 0.833334
O O10 0.956941 0.664459 0.942005
O O11 0.919274 0.377554 0.511210
O O12 0.748566 0.497131 0.750000
#
# Coordination Sequence:
#
# PCOD9582628 Si02
#       7
#     6  12   6  12   6  12  12
#     4  12  27  46  68 100 136 172 228 287 348 416
#     4  10  22  39  60  89 126 175 215 266 319 389
#     4  12  25  44  70  96 134 170 224 283 344 408
#     4  11  21  39  64  95 129 166 217 275 333 386
#     4  10  20  40  58  86 130 174 222 256 308 398
#     4  11  23  43  65  95 132 169 217 279 337 405
#     4  11  22  40  69  97 129 173 215 279 341 396
#
# _framework density 20.266127999999998
#
# number of rings (size 3 to 8) (size 9 to 14) (size 15 to 20)
#    0.000    1.091    6.364    0.545    0.000    1.455 
#    6.545    0.000    2.000    0.000    0.000    0.000 
#    0.000    0.000    0.000    0.000    0.000    0.000 
#
# Total GULP energy -367731.495403 kJ/mol
# GULP energy per Si atom -5571.689324 kJ/mol
# Density = 2.022000 g / cm^3
# Si number density = 20.266128 Si / 1000 Ang^3
#
#
#
# Elastic Constant Matrix: (Units=GPa)
#
#
# Indices 1 2 3 4 5 6 
#
# 1 61.0426 17.5308 24.3115 0.0000 0.0000 0.0000
# 2 17.5308 61.0426 24.3115 0.0000 0.0000 0.0000
# 3 24.3115 24.3115 118.0592 0.0000 0.0000 0.0000
# 4 0.0000 0.0000 0.0000 27.3184 0.0000 0.0000
# 5 0.0000 0.0000 0.0000 0.0000 27.3184 0.0000
# 6 0.0000 0.0000 0.0000 0.0000 0.0000 21.7559
#
#
#
# Elastic Compliance Matrix: (Units=1/GPa)
#
#
# Indices 1 2 3 4 5 6 
#
# 1 0.018784 -0.004198 -0.003004 0.000000 0.000000 0.000000
# 2 -0.004198 0.018784 -0.003004 0.000000 0.000000 0.000000
# 3 -0.003004 -0.003004 0.009707 0.000000 0.000000 0.000000
# 4 0.000000 0.000000 0.000000 0.036605 0.000000 0.000000
# 5 0.000000 0.000000 0.000000 0.000000 0.036605 0.000000
# 6 0.000000 0.000000 0.000000 0.000000 0.000000 0.045965
#
#
# Mechanical properties :
#
#
# Convention : Reuss Voigt Hill
#
# Bulk Modulus (GPa) = 37.22405 41.38354 39.30379
# Shear Modulus (GPa) = 25.53415 26.87791 26.20603
#
# Velocity S-wave (km/s) = 3.55342 3.64572 3.59986
# Velocity P-wave (km/s) = 5.93660 6.17949 6.05926
#
# Compressibility (1/GPa) = 0.02686435
#
# Stress axis : x y z
#
# Youngs Moduli (GPa) = 53.23698 53.23698 103.01472
#
# Poissons Ratio (x) = 0.22351 0.30941
# Poissons Ratio (y) = 0.22351 0.30941
# Poissons Ratio (z) = 0.15990 0.15990
#
# Static dielectric constant tensor:
#      x y z
#    x 1.734810 0.000000 0.000000 
#    y 0.000000 1.734810 0.000000 
#    z 0.000000 0.000000 1.776650 
# 
# From -- ./inp_files/6749.got.cif
#   From: 2010.05.17/outbox.cif.g08.bks.cpg/sg178_4_cif.got.tgz:6749.got - 2010.05.20 11:30:59.
