data_PCOD9582426
_publ_section_title
;
Structure prediction by ZEFSAII (Michael W. Deem and Ramdas Pophale) SiO2 
 PCOD9582426
Probable space group: P 61 2 2
;
_chemical_formula_sum "Si O2"
_cell_formula_units_Z 66
_cell_length_a 13.767345
_cell_length_b 13.767345
_cell_length_c 18.283067
_cell_angle_alpha 90.000000
_cell_angle_beta 90.000000
_cell_angle_gamma 120.000000
_cell_volume 3001.097284
_symmetry_space_group_name_H-M "P 61 2 2"
_symmetry_group_IT_number 178
_symmetry_cell_setting 'hexagonal'
loop_
_space_group_symop_operation_xyz
x,y,z
x-y,x,1/6+z
-y,x-y,1/3+z
-x,-y,1/2+z
-x+y,-x,2/3+z
y,-x+y,5/6+z
x-y,-y,-z
-x,-x+y,2/3-z
y,x,1/3-z
-y,-x,5/6-z
-x+y,y,1/2-z
x,x-y,1/6-z
loop_
_atom_site_type_symbol
_atom_site_label
_atom_site_fract_x
_atom_site_fract_y
_atom_site_fract_z
Si Si1 0.231196 0.818438 0.087442
Si Si2 0.270911 0.213877 0.024410
Si Si3 0.024239 0.024239 0.166667
Si Si4 0.543875 0.418984 0.639957
Si Si5 0.346659 0.268474 0.537603
Si Si6 0.822252 0.589810 0.422638
O O1 0.325922 0.813367 0.041028
O O2 0.227685 0.767130 0.166289
O O3 0.264094 0.947164 0.106810
O O4 0.113797 0.762970 0.044918
O O5 0.313844 0.156922 0.083334
O O6 0.145145 0.113509 0.006381
O O7 0.986259 0.972518 0.250000
O O8 0.505413 0.505413 0.666667
O O9 0.469893 0.359264 0.567803
O O10 0.499354 0.322620 0.700609
O O11 0.312502 0.156251 0.583334
O O12 0.266400 0.316333 0.559025
O O13 0.354308 0.238942 0.454011
#
# Coordination Sequence:
#
# PCOD9582426 Si02
#       6
#    12  12   6  12  12  12
#     4  12  22  37  67  95 130 179 218 276 336 406
#     4  11  20  36  63  98 137 180 221 263 338 411
#     4  10  18  36  60  94 148 192 226 278 324 402
#     4   9  20  39  66  87 121 169 216 274 336 388
#     4   9  18  39  68  90 127 171 212 266 331 399
#     4  10  21  38  65  98 129 170 225 269 339 410
#
# _framework density 21.991956999999999
#
# number of rings (size 3 to 8) (size 9 to 14) (size 15 to 20)
#    0.000    1.818    3.636    3.818    0.000    0.727 
#    0.000    0.909   66.000    0.000    0.000    0.000 
#    0.000    0.000    0.000    0.000    0.000    0.000 
#
# Total GULP energy -368596.312167 kJ/mol
# GULP energy per Si atom -5584.792609 kJ/mol
# Density = 2.194190 g / cm^3
# Si number density = 21.991957 Si / 1000 Ang^3
#
#
#
# Elastic Constant Matrix: (Units=GPa)
#
#
# Indices 1 2 3 4 5 6 
#
# 1 70.1756 29.2685 21.6137 0.0000 0.0000 0.0000
# 2 29.2685 70.1756 21.6137 0.0000 0.0000 0.0000
# 3 21.6137 21.6137 116.1171 0.0000 0.0000 0.0000
# 4 0.0000 0.0000 0.0000 15.0879 0.0000 0.0000
# 5 0.0000 0.0000 0.0000 0.0000 15.0879 0.0000
# 6 0.0000 0.0000 0.0000 0.0000 0.0000 20.4535
#
#
#
# Elastic Compliance Matrix: (Units=1/GPa)
#
#
# Indices 1 2 3 4 5 6 
#
# 1 0.017693 -0.006752 -0.002037 0.000000 0.000000 0.000000
# 2 -0.006752 0.017693 -0.002037 0.000000 0.000000 0.000000
# 3 -0.002037 -0.002037 0.009370 0.000000 0.000000 0.000000
# 4 0.000000 0.000000 0.000000 0.066278 0.000000 0.000000
# 5 0.000000 0.000000 0.000000 0.000000 0.066278 0.000000
# 6 0.000000 0.000000 0.000000 0.000000 0.000000 0.048891
#
#
# Mechanical properties :
#
#
# Convention : Reuss Voigt Hill
#
# Bulk Modulus (GPa) = 43.27826 44.60664 43.94245
# Shear Modulus (GPa) = 19.56505 22.39069 20.97787
#
# Velocity S-wave (km/s) = 2.98593 3.19428 3.09186
# Velocity P-wave (km/s) = 5.62224 5.82510 5.72457
#
# Compressibility (1/GPa) = 0.02310629
#
# Stress axis : x y z
#
# Youngs Moduli (GPa) = 56.51822 56.51822 106.72188
#
# Poissons Ratio (x) = 0.38162 0.21735
# Poissons Ratio (y) = 0.38162 0.21735
# Poissons Ratio (z) = 0.11510 0.11510
#
# Static dielectric constant tensor:
#      x y z
#    x 1.794920 0.000000 0.000000 
#    y 0.000000 1.794920 0.000000 
#    z 0.000000 0.000000 1.854490 
# 
# From -- ./inp_files/6694.got.cif
#   From: 2010.05.17/outbox.cif.g08.bks.cpg/sg178_4_cif.got.tgz:6694.got - 2010.05.20 11:30:59.
