data_PCOD9582416
_publ_section_title
;
Structure prediction by ZEFSAII (Michael W. Deem and Ramdas Pophale) SiO2 
 PCOD9582416
Probable space group: P 61 2 2
;
_chemical_formula_sum "Si O2"
_cell_formula_units_Z 48
_cell_length_a 18.637814
_cell_length_b 18.637814
_cell_length_c 8.430513
_cell_angle_alpha 90.000000
_cell_angle_beta 90.000000
_cell_angle_gamma 120.000000
_cell_volume 2536.147924
_symmetry_space_group_name_H-M "P 61 2 2"
_symmetry_group_IT_number 178
_symmetry_cell_setting 'hexagonal'
loop_
_space_group_symop_operation_xyz
x,y,z
x-y,x,1/6+z
-y,x-y,1/3+z
-x,-y,1/2+z
-x+y,-x,2/3+z
y,-x+y,5/6+z
x-y,-y,-z
-x,-x+y,2/3-z
y,x,1/3-z
-y,-x,5/6-z
-x+y,y,1/2-z
x,x-y,1/6-z
loop_
_atom_site_type_symbol
_atom_site_label
_atom_site_fract_x
_atom_site_fract_y
_atom_site_fract_z
Si Si1 0.549227 0.450774 0.416667
Si Si2 0.296779 0.871575 0.419510
Si Si3 0.121103 0.165627 0.421535
Si Si4 0.000000 0.402636 0.333334
Si Si5 0.707189 0.040209 0.227208
O O1 0.512848 0.367597 0.519401
O O2 0.567088 0.523142 0.541549
O O3 0.209542 0.790459 0.416667
O O4 0.311885 0.909688 0.595275
O O5 0.297721 0.943308 0.310845
O O6 0.143246 0.093198 0.386515
O O7 0.086853 0.173706 0.250000
O O8 0.201520 0.254438 0.454826
O O9 0.942967 0.319804 0.435597
#
# Coordination Sequence:
#
# PCOD9582416 Si02
#       5
#     6  12  12   6  12
#     4  10  20  36  58  84 114 144 176 238 294 384
#     4  10  21  37  58  83 114 149 190 240 298 355
#     4  10  20  35  51  76 119 163 207 252 296 346
#     4  10  18  34  60  86 110 136 186 242 310 348
#     4  10  20  35  59  86 111 147 201 258 294 340
#
# _framework density 18.926342000000002
#
# number of rings (size 3 to 8) (size 9 to 14) (size 15 to 20)
#    0.000    2.000    0.000    6.000    0.000    2.000 
#    0.000   21.250    5.500    0.000    0.000    0.000 
#    0.000    0.000    0.000    0.000    0.000    0.000 
#
# Total GULP energy -267690.468385 kJ/mol
# GULP energy per Si atom -5576.884758 kJ/mol
# Density = 1.888326 g / cm^3
# Si number density = 18.926342 Si / 1000 Ang^3
#
#
#
# Elastic Constant Matrix: (Units=GPa)
#
#
# Indices 1 2 3 4 5 6 
#
# 1 46.1485 88.5377 35.5581 0.0000 0.0000 0.0000
# 2 88.5377 46.1485 35.5581 0.0000 0.0000 0.0000
# 3 35.5581 35.5581 100.4541 0.0000 0.0000 0.0000
# 4 0.0000 0.0000 0.0000 -6.7481 0.0000 0.0000
# 5 0.0000 0.0000 0.0000 0.0000 -6.7481 0.0000
# 6 0.0000 0.0000 0.0000 0.0000 0.0000 -21.1946
#
#
#
# Elastic Compliance Matrix: (Units=1/GPa)
#
#
# Indices 1 2 3 4 5 6 
#
# 1 -0.007230 0.016361 -0.003232 0.000000 0.000000 0.000000
# 2 0.016361 -0.007230 -0.003232 0.000000 0.000000 0.000000
# 3 -0.003232 -0.003232 0.012243 0.000000 0.000000 0.000000
# 4 0.000000 0.000000 0.000000 -0.148190 0.000000 0.000000
# 5 0.000000 0.000000 0.000000 0.000000 -0.148190 0.000000
# 6 0.000000 0.000000 0.000000 0.000000 0.000000 -0.047182
#
#
# Mechanical properties :
#
#
# Convention : Reuss Voigt Hill
#
# Bulk Modulus (GPa) = 56.89342 56.89544 56.89443
# Shear Modulus (GPa) = -13.89996 -4.73167 -9.31582
#
# Velocity S-wave (km/s) = -2.71297 -1.58287 -2.22100
# Velocity P-wave (km/s) = 4.50690 5.17553 4.85274
#
# Compressibility (1/GPa) = 0.01757673
#
# Stress axis : x y z
#
# Youngs Moduli (GPa) = -138.31668 -138.31668 81.67889
#
# Poissons Ratio (x) = 2.26302 0.26401
# Poissons Ratio (y) = 2.26302 0.26401
# Poissons Ratio (z) = -0.44708 -0.44708
#
# Static dielectric constant tensor:
#      x y z
#    x 1.671580 0.000000 0.000000 
#    y 0.000000 1.671580 0.000000 
#    z 0.000000 0.000000 1.677270 
# 
# From -- ./inp_files/2650.got.cif
#   From: 2010.05.17/outbox.cif.g08.bks.cpg/sg178_2_cif.got.tgz:2650.got - 2010.05.20 11:30:59.
