data_PCOD9582826
_publ_section_title
;
Structure prediction by ZEFSAII (Michael W. Deem and Ramdas Pophale) SiO2 
 PCOD9582826
Probable space group: P 61 2 2
;
_chemical_formula_sum "Si O2"
_cell_formula_units_Z 42
_cell_length_a 7.498604
_cell_length_b 7.498604
_cell_length_c 32.037195
_cell_angle_alpha 90.000000
_cell_angle_beta 90.000000
_cell_angle_gamma 120.000000
_cell_volume 1560.076715
_symmetry_space_group_name_H-M "P 61 2 2"
_symmetry_group_IT_number 178
_symmetry_cell_setting 'hexagonal'
loop_
_space_group_symop_operation_xyz
x,y,z
x-y,x,1/6+z
-y,x-y,1/3+z
-x,-y,1/2+z
-x+y,-x,2/3+z
y,-x+y,5/6+z
x-y,-y,-z
-x,-x+y,2/3-z
y,x,1/3-z
-y,-x,5/6-z
-x+y,y,1/2-z
x,x-y,1/6-z
loop_
_atom_site_type_symbol
_atom_site_label
_atom_site_fract_x
_atom_site_fract_y
_atom_site_fract_z
Si Si1 0.922671 0.462812 0.790790
Si Si2 0.591364 0.049185 0.331191
Si Si3 0.631216 0.368785 0.916667
Si Si4 0.772517 0.062038 0.111405
O O1 0.766276 0.535743 0.806557
O O2 0.824765 0.276560 0.759066
O O3 0.000000 0.412326 0.833334
O O4 0.132311 0.624266 0.767014
O O5 0.525477 0.135930 0.291597
O O6 0.386569 0.950097 0.360070
O O7 0.698021 0.932116 0.309447
O O8 0.818265 0.409133 0.083334
#
# Coordination Sequence:
#
# PCOD9582826 Si02
#       4
#    12  12   6  12
#     4  10  23  49  86 123 166 223 286 358 427 520
#     4  11  27  48  88 127 174 224 292 364 431 524
#     4  10  22  50  88 122 164 230 282 356 438 512
#     4  12  27  51  89 129 170 231 293 358 440 526
#
# _framework density 26.921749999999999
#
# number of rings (size 3 to 8) (size 9 to 14) (size 15 to 20)
#    0.000    1.143    1.429    2.571    8.000    0.000 
#    0.000   30.000    0.000    0.000    0.000    0.000 
#    0.000    0.000    0.000    0.000    0.000    0.000 
#
# Total GULP energy -234322.279560 kJ/mol
# GULP energy per Si atom -5579.101894 kJ/mol
# Density = 2.686047 g / cm^3
# Si number density = 26.921750 Si / 1000 Ang^3
#
#
#
# Elastic Constant Matrix: (Units=GPa)
#
#
# Indices 1 2 3 4 5 6 
#
# 1 171.7367 69.6629 78.7999 0.0000 0.0000 0.0000
# 2 69.6629 171.7367 78.7999 0.0000 0.0000 0.0000
# 3 78.7999 78.7999 199.5567 0.0000 0.0000 0.0000
# 4 0.0000 0.0000 0.0000 72.3976 0.0000 0.0000
# 5 0.0000 0.0000 0.0000 0.0000 72.3976 0.0000
# 6 0.0000 0.0000 0.0000 0.0000 0.0000 51.0369
#
#
#
# Elastic Compliance Matrix: (Units=1/GPa)
#
#
# Indices 1 2 3 4 5 6 
#
# 1 0.007689 -0.002108 -0.002204 0.000000 0.000000 0.000000
# 2 -0.002108 0.007689 -0.002204 0.000000 0.000000 0.000000
# 3 -0.002204 -0.002204 0.006752 0.000000 0.000000 0.000000
# 4 0.000000 0.000000 0.000000 0.013813 0.000000 0.000000
# 5 0.000000 0.000000 0.000000 0.000000 0.013813 0.000000
# 6 0.000000 0.000000 0.000000 0.000000 0.000000 0.019594
#
#
# Mechanical properties :
#
#
# Convention : Reuss Voigt Hill
#
# Bulk Modulus (GPa) = 109.90652 110.83951 110.37301
# Shear Modulus (GPa) = 58.53920 60.21761 59.37840
#
# Velocity S-wave (km/s) = 4.66813 4.73457 4.70147
# Velocity P-wave (km/s) = 8.36470 8.43496 8.39991
#
# Compressibility (1/GPa) = 0.00909864
#
# Stress axis : x y z
#
# Youngs Moduli (GPa) = 130.05423 130.05423 148.11158
#
# Poissons Ratio (x) = 0.27412 0.32643
# Poissons Ratio (y) = 0.27412 0.32643
# Poissons Ratio (z) = 0.28663 0.28663
#
# Static dielectric constant tensor:
#      x y z
#    x 2.292620 0.000000 0.000000 
#    y 0.000000 2.292620 0.000000 
#    z 0.000000 0.000000 2.099390 
# 
# From -- ./inp_files/9259.got.cif
#   From: 2010.05.17/outbox.cif.g08.bks.cpg/sg178_5_cif.got.tgz:9259.got - 2010.05.20 11:30:59.
