data_PCOD9582290
_publ_section_title
;
Structure prediction by ZEFSAII (Michael W. Deem and Ramdas Pophale) SiO2 
 PCOD9582290
Probable space group: P 6 2 2
;
_chemical_formula_sum "Si O2"
_cell_formula_units_Z 66
_cell_length_a 19.951306
_cell_length_b 19.951306
_cell_length_c 9.691323
_cell_angle_alpha 90.000000
_cell_angle_beta 90.000000
_cell_angle_gamma 120.000000
_cell_volume 3340.845249
_symmetry_space_group_name_H-M "P 6 2 2"
_symmetry_group_IT_number 177
_symmetry_cell_setting 'hexagonal'
loop_
_space_group_symop_operation_xyz
x,y,z
x-y,x,z
-y,x-y,z
-x,-y,z
-x+y,-x,z
y,-x+y,z
x-y,-y,-z
-x,-x+y,-z
y,x,-z
-y,-x,-z
-x+y,y,-z
x,x-y,-z
loop_
_atom_site_type_symbol
_atom_site_label
_atom_site_fract_x
_atom_site_fract_y
_atom_site_fract_z
Si Si1 0.509732 0.174550 0.012134
Si Si2 0.426557 0.068605 0.285049
Si Si3 0.088180 0.180521 0.834508
Si Si4 0.436813 0.563188 0.500000
Si Si5 0.117162 0.449294 0.286443
Si Si6 0.331518 0.177753 0.653319
O O1 0.467537 0.116893 0.143111
O O2 0.599705 0.199410 0.000000
O O3 0.499683 0.249842 0.000000
O O4 0.474637 0.130226 0.871083
O O5 0.493510 0.084532 0.393108
O O6 0.373121 0.102986 0.335178
O O7 0.375426 0.975937 0.291315
O O8 0.131816 0.133905 0.796733
O O9 0.126042 0.263080 0.762429
O O10 0.095112 0.190223 0.000000
O O11 0.476647 0.634626 0.390471
O O12 0.153066 0.395353 0.318795
O O13 0.300050 0.150025 0.500000
#
# Coordination Sequence:
#
# PCOD9582290 Si02
#       6
#    12  12  12   6  12  12
#     4  12  26  45  69  96 135 171 220 276 335 395
#     4  12  25  43  68  98 133 176 223 275 333 402
#     4  10  23  44  70 100 138 187 238 287 344 413
#     4  12  25  44  70  98 128 168 222 274 324 396
#     4  12  25  43  68  98 133 176 223 275 333 402
#     4  12  26  43  65  99 143 179 221 280 350 407
#
# _framework density 19.755479000000001
#
# number of rings (size 3 to 8) (size 9 to 14) (size 15 to 20)
#    0.000    0.364    5.455    3.636    2.545    3.636 
#    0.000    0.000    0.000    1.091    0.000    0.000 
#    0.000    0.000    0.000    0.000    0.000    0.000 
#
# Total GULP energy -368265.582652 kJ/mol
# GULP energy per Si atom -5579.781555 kJ/mol
# Density = 1.971051 g / cm^3
# Si number density = 19.755479 Si / 1000 Ang^3
#
#
#
# Elastic Constant Matrix: (Units=GPa)
#
#
# Indices 1 2 3 4 5 6 
#
# 1 88.5066 24.9112 19.4058 0.0000 0.0000 0.0000
# 2 24.9112 88.5066 19.4058 0.0000 0.0000 0.0000
# 3 19.4058 19.4058 82.2760 0.0000 0.0000 0.0000
# 4 0.0000 0.0000 0.0000 31.7158 0.0000 0.0000
# 5 0.0000 0.0000 0.0000 0.0000 31.7158 0.0000
# 6 0.0000 0.0000 0.0000 0.0000 0.0000 31.7977
#
#
#
# Elastic Compliance Matrix: (Units=1/GPa)
#
#
# Indices 1 2 3 4 5 6 
#
# 1 0.012658 -0.003067 -0.002262 0.000000 0.000000 0.000000
# 2 -0.003067 0.012658 -0.002262 0.000000 0.000000 0.000000
# 3 -0.002262 -0.002262 0.013221 0.000000 0.000000 0.000000
# 4 0.000000 0.000000 0.000000 0.031530 0.000000 0.000000
# 5 0.000000 0.000000 0.000000 0.000000 0.031530 0.000000
# 6 0.000000 0.000000 0.000000 0.000000 0.000000 0.031449
#
#
# Mechanical properties :
#
#
# Convention : Reuss Voigt Hill
#
# Bulk Modulus (GPa) = 42.81775 42.97053 42.89414
# Shear Modulus (GPa) = 32.04869 32.08362 32.06616
#
# Velocity S-wave (km/s) = 4.03211 4.03431 4.03321
# Velocity P-wave (km/s) = 6.58772 6.59540 6.59156
#
# Compressibility (1/GPa) = 0.02335480
#
# Stress axis : x y z
#
# Youngs Moduli (GPa) = 79.00302 79.00302 75.63531
#
# Poissons Ratio (x) = 0.24228 0.17110
# Poissons Ratio (y) = 0.24228 0.17110
# Poissons Ratio (z) = 0.17872 0.17872
#
# Static dielectric constant tensor:
#      x y z
#    x 1.501640 0.000000 0.000000 
#    y 0.000000 1.501640 0.000000 
#    z 0.000000 0.000000 1.716400 
# 
# From -- ./inp_files/1440.got.cif
#   From: 2010.05.17/outbox.cif.g08.bks.cpg/sg177_1_cif.got.tgz:1440.got - 2010.05.20 11:28:44.
