data_PCOD9582867
_publ_section_title
;
Structure prediction by ZEFSAII (Michael W. Deem and Ramdas Pophale) SiO2 
 PCOD9582867
Probable space group: P 61 2 2
;
_chemical_formula_sum "Si O2"
_cell_formula_units_Z 42
_cell_length_a 13.232335
_cell_length_b 13.232335
_cell_length_c 11.341500
_cell_angle_alpha 90.000000
_cell_angle_beta 90.000000
_cell_angle_gamma 120.000000
_cell_volume 1719.784789
_symmetry_space_group_name_H-M "P 61 2 2"
_symmetry_group_IT_number 178
_symmetry_cell_setting 'hexagonal'
loop_
_space_group_symop_operation_xyz
x,y,z
x-y,x,1/6+z
-y,x-y,1/3+z
-x,-y,1/2+z
-x+y,-x,2/3+z
y,-x+y,5/6+z
x-y,-y,-z
-x,-x+y,2/3-z
y,x,1/3-z
-y,-x,5/6-z
-x+y,y,1/2-z
x,x-y,1/6-z
loop_
_atom_site_type_symbol
_atom_site_label
_atom_site_fract_x
_atom_site_fract_y
_atom_site_fract_z
Si Si1 0.474975 0.525026 0.416667
Si Si2 0.555733 0.171480 0.622338
Si Si3 0.588675 0.794900 0.708918
Si Si4 0.140713 0.924056 0.606279
O O1 0.564539 0.527800 0.318354
O O2 0.344686 0.472934 0.377473
O O3 0.612278 0.224556 0.750000
O O4 0.504230 0.252115 0.583334
O O5 0.661432 0.177319 0.547569
O O6 0.654447 0.827224 0.583334
O O7 0.669677 0.827812 0.824099
O O8 0.017062 0.861410 0.539442
O O9 0.229385 0.000000 0.500000
#
# Coordination Sequence:
#
# PCOD9582867 Si02
#       4
#     6  12  12  12
#     4  10  26  42  70 108 136 200 246 300 382 448
#     4  10  23  44  68 102 145 194 247 307 375 447
#     4  12  25  48  71 110 150 193 254 313 377 456
#     4  10  24  49  73 106 145 192 248 309 378 452
#
# _framework density 24.421661
#
# number of rings (size 3 to 8) (size 9 to 14) (size 15 to 20)
#    0.857    0.571    1.429    2.571    0.000    6.857 
#   15.429    0.000    0.000    0.000    0.000    0.000 
#    0.000    0.000    0.000    0.000    0.000    0.000 
#
# Total GULP energy -234715.869987 kJ/mol
# GULP energy per Si atom -5588.473095 kJ/mol
# Density = 2.436608 g / cm^3
# Si number density = 24.421661 Si / 1000 Ang^3
#
#
#
# Elastic Constant Matrix: (Units=GPa)
#
#
# Indices 1 2 3 4 5 6 
#
# 1 64.6237 8.5996 39.0083 0.0000 0.0000 0.0000
# 2 8.5996 64.6237 39.0083 0.0000 0.0000 0.0000
# 3 39.0083 39.0083 137.1251 0.0000 0.0000 0.0000
# 4 0.0000 0.0000 0.0000 14.0280 0.0000 0.0000
# 5 0.0000 0.0000 0.0000 0.0000 14.0280 0.0000
# 6 0.0000 0.0000 0.0000 0.0000 0.0000 28.0120
#
#
#
# Elastic Compliance Matrix: (Units=1/GPa)
#
#
# Indices 1 2 3 4 5 6 
#
# 1 0.018723 0.000873 -0.005575 0.000000 0.000000 0.000000
# 2 0.000873 0.018723 -0.005575 0.000000 0.000000 0.000000
# 3 -0.005575 -0.005575 0.010464 0.000000 0.000000 0.000000
# 4 0.000000 0.000000 0.000000 0.071286 0.000000 0.000000
# 5 0.000000 0.000000 0.000000 0.000000 0.071286 0.000000
# 6 0.000000 0.000000 0.000000 0.000000 0.000000 0.035699
#
#
# Mechanical properties :
#
#
# Convention : Reuss Voigt Hill
#
# Bulk Modulus (GPa) = 36.55167 48.84499 42.69833
# Shear Modulus (GPa) = 19.54256 23.19738 21.36997
#
# Velocity S-wave (km/s) = 2.83187 3.08534 2.96132
# Velocity P-wave (km/s) = 5.06874 5.72158 5.40503
#
# Compressibility (1/GPa) = 0.02735853
#
# Stress axis : x y z
#
# Youngs Moduli (GPa) = 53.41046 53.41046 95.56335
#
# Poissons Ratio (x) = -0.04665 0.53273
# Poissons Ratio (y) = -0.04665 0.53273
# Poissons Ratio (z) = 0.29774 0.29774
#
# Static dielectric constant tensor:
#      x y z
#    x 1.944470 0.000000 0.000000 
#    y 0.000000 1.944470 0.000000 
#    z 0.000000 0.000000 2.019830 
# 
# From -- ./inp_files/4000.got.cif
#   From: 2010.05.17/outbox.cif.g08.bks.cpg/sg178_2_cif.got.tgz:4000.got - 2010.05.20 11:30:59.
