data_PCOD9582503
_publ_section_title
;
Structure prediction by ZEFSAII (Michael W. Deem and Ramdas Pophale) SiO2 
 PCOD9582503
Probable space group: P 61 2 2
;
_chemical_formula_sum "Si O2"
_cell_formula_units_Z 42
_cell_length_a 11.602842
_cell_length_b 11.602842
_cell_length_c 15.568880
_cell_angle_alpha 90.000000
_cell_angle_beta 90.000000
_cell_angle_gamma 120.000000
_cell_volume 1815.167720
_symmetry_space_group_name_H-M "P 61 2 2"
_symmetry_group_IT_number 178
_symmetry_cell_setting 'hexagonal'
loop_
_space_group_symop_operation_xyz
x,y,z
x-y,x,1/6+z
-y,x-y,1/3+z
-x,-y,1/2+z
-x+y,-x,2/3+z
y,-x+y,5/6+z
x-y,-y,-z
-x,-x+y,2/3-z
y,x,1/3-z
-y,-x,5/6-z
-x+y,y,1/2-z
x,x-y,1/6-z
loop_
_atom_site_type_symbol
_atom_site_label
_atom_site_fract_x
_atom_site_fract_y
_atom_site_fract_z
Si Si1 0.305942 0.305942 0.666667
Si Si2 0.821469 0.410735 0.083334
Si Si3 0.817100 0.661808 0.660467
Si Si4 0.735521 0.471042 0.250000
Si Si5 0.799626 0.115154 0.693762
O O1 0.434149 0.321124 0.616618
O O2 0.194577 0.275632 0.594013
O O3 0.735592 0.390548 0.167846
O O4 0.903738 0.568739 0.070074
O O5 0.713065 0.713065 0.666667
O O6 0.790699 0.581397 0.750000
O O7 0.810736 0.618953 0.561906
O O8 0.971861 0.779330 0.663887
#
# Coordination Sequence:
#
# PCOD9582503 Si02
#       5
#     6   6  12   6  12
#     4  10  20  38  64  90 132 166 210 256 326 374
#     4  10  22  40  63  84 130 161 228 262 318 382
#     4   9  19  37  57  90 130 160 204 251 315 379
#     4  10  22  44  61  98 122 173 214 280 316 396
#     4  10  19  38  59  92 125 170 205 262 307 382
#
# _framework density 23.138358
#
# number of rings (size 3 to 8) (size 9 to 14) (size 15 to 20)
#    0.000    2.286    0.000    3.429    0.000    0.000 
#   41.143   10.000    0.000    0.000    0.000    0.000 
#    0.000    0.000    0.000    0.000    0.000    0.000 
#
# Total GULP energy -233936.969330 kJ/mol
# GULP energy per Si atom -5569.927841 kJ/mol
# Density = 2.308569 g / cm^3
# Si number density = 23.138358 Si / 1000 Ang^3
#
#
#
# Elastic Constant Matrix: (Units=GPa)
#
#
# Indices 1 2 3 4 5 6 
#
# 1 45.7366 27.7670 19.7048 0.0000 0.0000 0.0000
# 2 27.7670 45.7366 19.7048 0.0000 0.0000 0.0000
# 3 19.7048 19.7048 193.2766 0.0000 0.0000 0.0000
# 4 0.0000 0.0000 0.0000 29.7056 0.0000 0.0000
# 5 0.0000 0.0000 0.0000 0.0000 29.7056 0.0000
# 6 0.0000 0.0000 0.0000 0.0000 0.0000 8.9848
#
#
#
# Elastic Compliance Matrix: (Units=1/GPa)
#
#
# Indices 1 2 3 4 5 6 
#
# 1 0.035020 -0.020629 -0.001467 0.000000 0.000000 0.000000
# 2 -0.020629 0.035020 -0.001467 0.000000 0.000000 0.000000
# 3 -0.001467 -0.001467 0.005473 0.000000 0.000000 0.000000
# 4 0.000000 0.000000 0.000000 0.033664 0.000000 0.000000
# 5 0.000000 0.000000 0.000000 0.000000 0.033664 0.000000
# 6 0.000000 0.000000 0.000000 0.000000 0.000000 0.111299
#
#
# Mechanical properties :
#
#
# Convention : Reuss Voigt Hill
#
# Bulk Modulus (GPa) = 35.22729 46.56702 40.89716
# Shear Modulus (GPa) = 16.09116 28.18407 22.13761
#
# Velocity S-wave (km/s) = 2.63997 3.49387 3.09649
# Velocity P-wave (km/s) = 4.95482 6.03699 5.52248
#
# Compressibility (1/GPa) = 0.02838708
#
# Stress axis : x y z
#
# Youngs Moduli (GPa) = 28.55475 28.55475 182.71170
#
# Poissons Ratio (x) = 0.58906 0.26808
# Poissons Ratio (y) = 0.58906 0.26808
# Poissons Ratio (z) = 0.04190 0.04190
#
# Static dielectric constant tensor:
#      x y z
#    x 1.872030 0.000000 0.000000 
#    y 0.000000 1.872030 0.000000 
#    z 0.000000 0.000000 2.004400 
# 
# From -- ./inp_files/6437.got.cif
#   From: 2010.05.17/outbox.cif.g08.bks.cpg/sg178_4_cif.got.tgz:6437.got - 2010.05.20 11:30:59.
