data_PCOD9582509
_publ_section_title
;
Structure prediction by ZEFSAII (Michael W. Deem and Ramdas Pophale) SiO2 
 PCOD9582509
Probable space group: P 61 2 2
;
_chemical_formula_sum "Si O2"
_cell_formula_units_Z 66
_cell_length_a 11.913782
_cell_length_b 11.913782
_cell_length_c 27.633038
_cell_angle_alpha 90.000000
_cell_angle_beta 90.000000
_cell_angle_gamma 120.000000
_cell_volume 3396.710737
_symmetry_space_group_name_H-M "P 61 2 2"
_symmetry_group_IT_number 178
_symmetry_cell_setting 'hexagonal'
loop_
_space_group_symop_operation_xyz
x,y,z
x-y,x,1/6+z
-y,x-y,1/3+z
-x,-y,1/2+z
-x+y,-x,2/3+z
y,-x+y,5/6+z
x-y,-y,-z
-x,-x+y,2/3-z
y,x,1/3-z
-y,-x,5/6-z
-x+y,y,1/2-z
x,x-y,1/6-z
loop_
_atom_site_type_symbol
_atom_site_label
_atom_site_fract_x
_atom_site_fract_y
_atom_site_fract_z
Si Si1 0.835209 0.441463 0.025647
Si Si2 0.707819 0.738723 0.494463
Si Si3 0.364401 0.794489 0.870521
Si Si4 0.806275 0.869110 0.392557
Si Si5 0.665288 0.007785 0.144181
Si Si6 0.081259 0.162517 0.750000
O O1 0.835940 0.417970 0.083334
O O2 0.688878 0.374673 0.007172
O O3 0.910364 0.596157 0.018320
O O4 0.900821 0.374245 0.996949
O O5 0.564161 0.702353 0.509203
O O6 0.765019 0.830826 0.448035
O O7 0.808522 0.800491 0.538541
O O8 0.276669 0.723332 0.916667
O O9 0.518973 0.891467 0.880656
O O10 0.700203 0.753285 0.359258
O O11 0.950334 0.888723 0.387545
O O12 0.744656 0.959876 0.111282
#
# Coordination Sequence:
#
# PCOD9582509 Si02
#       6
#    12  12  12  12  12   6
#     4  10  19  40  71  95 132 173 217 280 332 403
#     4  11  24  42  69  99 133 176 233 268 345 411
#     4  10  23  44  67  98 139 175 221 281 337 407
#     4  12  23  44  67  99 130 181 228 281 337 408
#     4  11  23  42  69 102 128 176 231 271 346 401
#     4  12  26  42  66  98 140 168 226 294 332 402
#
# _framework density 19.430562999999999
#
# number of rings (size 3 to 8) (size 9 to 14) (size 15 to 20)
#    0.000    1.091    5.455    0.545    3.818    0.000 
#    6.545    0.000    4.000    0.000    0.000    0.000 
#    0.000    0.000    0.000    0.000    0.000    0.000 
#
# Total GULP energy -367857.418440 kJ/mol
# GULP energy per Si atom -5573.597249 kJ/mol
# Density = 1.938634 g / cm^3
# Si number density = 19.430563 Si / 1000 Ang^3
#
#
#
# Elastic Constant Matrix: (Units=GPa)
#
#
# Indices 1 2 3 4 5 6 
#
# 1 89.6455 102.8886 65.1576 0.0000 0.0000 0.0000
# 2 102.8886 89.6455 65.1576 0.0000 0.0000 0.0000
# 3 65.1576 65.1576 81.9340 0.0000 0.0000 0.0000
# 4 0.0000 0.0000 0.0000 -36.1151 0.0000 0.0000
# 5 0.0000 0.0000 0.0000 0.0000 -36.1151 0.0000
# 6 0.0000 0.0000 0.0000 0.0000 0.0000 -6.6215
#
#
#
# Elastic Compliance Matrix: (Units=1/GPa)
#
#
# Indices 1 2 3 4 5 6 
#
# 1 -0.032131 0.043380 -0.008945 0.000000 0.000000 0.000000
# 2 0.043380 -0.032131 -0.008945 0.000000 0.000000 0.000000
# 3 -0.008945 -0.008945 0.026432 0.000000 0.000000 0.000000
# 4 0.000000 0.000000 0.000000 -0.027689 0.000000 0.000000
# 5 0.000000 0.000000 0.000000 0.000000 -0.027689 0.000000
# 6 0.000000 0.000000 0.000000 0.000000 0.000000 -0.151022
#
#
# Mechanical properties :
#
#
# Convention : Reuss Voigt Hill
#
# Bulk Modulus (GPa) = 76.05653 80.84807 78.45230
# Shear Modulus (GPa) = -17.19232 -13.90228 -15.54730
#
# Velocity S-wave (km/s) = -2.97780 -2.67776 -2.83176
# Velocity P-wave (km/s) = 5.23494 5.66909 5.45633
#
# Compressibility (1/GPa) = 0.01314812
#
# Stress axis : x y z
#
# Youngs Moduli (GPa) = -31.12219 -31.12219 37.83254
#
# Poissons Ratio (x) = 1.35007 0.33842
# Poissons Ratio (y) = 1.35007 0.33842
# Poissons Ratio (z) = -0.27840 -0.27840
#
# Static dielectric constant tensor:
#      x y z
#    x 1.716600 0.000000 0.000000 
#    y 0.000000 1.716600 0.000000 
#    z 0.000000 0.000000 1.661780 
# 
# From -- ./inp_files/9506.got.cif
#   From: 2010.05.17/outbox.cif.g08.bks.cpg/sg178_5_cif.got.tgz:9506.got - 2010.05.20 11:30:59.
