data_PCOD9582981
_publ_section_title
;
Structure prediction by ZEFSAII (Michael W. Deem and Ramdas Pophale) SiO2 
 PCOD9582981
Probable space group: P 61 2 2
;
_chemical_formula_sum "Si O2"
_cell_formula_units_Z 42
_cell_length_a 14.103528
_cell_length_b 14.103528
_cell_length_c 11.345001
_cell_angle_alpha 90.000000
_cell_angle_beta 90.000000
_cell_angle_gamma 120.000000
_cell_volume 1954.297608
_symmetry_space_group_name_H-M "P 61 2 2"
_symmetry_group_IT_number 178
_symmetry_cell_setting 'hexagonal'
loop_
_space_group_symop_operation_xyz
x,y,z
x-y,x,1/6+z
-y,x-y,1/3+z
-x,-y,1/2+z
-x+y,-x,2/3+z
y,-x+y,5/6+z
x-y,-y,-z
-x,-x+y,2/3-z
y,x,1/3-z
-y,-x,5/6-z
-x+y,y,1/2-z
x,x-y,1/6-z
loop_
_atom_site_type_symbol
_atom_site_label
_atom_site_fract_x
_atom_site_fract_y
_atom_site_fract_z
Si Si1 0.178546 0.401034 0.566404
Si Si2 0.509725 0.254863 0.083334
Si Si3 0.298179 0.701822 0.416667
Si Si4 0.895384 0.790768 0.250000
Si Si5 0.586803 0.636790 0.446428
O O1 0.236254 0.512591 0.643039
O O2 0.113344 0.297093 0.653640
O O3 0.272275 0.391123 0.492221
O O4 0.071120 0.395289 0.512572
O O5 0.584584 0.320592 0.194629
O O6 0.437471 0.129904 0.112600
O O7 0.862788 0.862788 0.166667
O O8 0.475285 0.524716 0.416667
#
# Coordination Sequence:
#
# PCOD9582981 Si02
#       5
#    12   6   6   6  12
#     4  11  25  45  70 102 144 186 249 291 375 451
#     4  12  24  44  62 100 148 182 240 292 378 440
#     4  11  22  44  65  98 139 180 231 298 352 460
#     4  11  22  46  79 106 143 194 251 310 372 452
#     4  12  26  44  69 104 139 195 236 308 369 448
#
# _framework density 21.491098999999998
#
# number of rings (size 3 to 8) (size 9 to 14) (size 15 to 20)
#    0.000    0.571    7.143    0.000    6.000    1.143 
#    0.000    1.429    0.000    0.000    0.000    0.000 
#    0.000    0.000    0.000    0.000    0.000    0.000 
#
# Total GULP energy -233837.369252 kJ/mol
# GULP energy per Si atom -5567.556411 kJ/mol
# Density = 2.144218 g / cm^3
# Si number density = 21.491099 Si / 1000 Ang^3
#
#
#
# Elastic Constant Matrix: (Units=GPa)
#
#
# Indices 1 2 3 4 5 6 
#
# 1 113.2738 52.9782 31.7485 0.0000 0.0000 0.0000
# 2 52.9782 113.2738 31.7485 0.0000 0.0000 0.0000
# 3 31.7485 31.7485 91.1517 0.0000 0.0000 0.0000
# 4 0.0000 0.0000 0.0000 40.0114 0.0000 0.0000
# 5 0.0000 0.0000 0.0000 0.0000 40.0114 0.0000
# 6 0.0000 0.0000 0.0000 0.0000 0.0000 30.1478
#
#
#
# Elastic Compliance Matrix: (Units=1/GPa)
#
#
# Indices 1 2 3 4 5 6 
#
# 1 0.011761 -0.004824 -0.002417 0.000000 0.000000 0.000000
# 2 -0.004824 0.011761 -0.002417 0.000000 0.000000 0.000000
# 3 -0.002417 -0.002417 0.012654 0.000000 0.000000 0.000000
# 4 0.000000 0.000000 0.000000 0.024993 0.000000 0.000000
# 5 0.000000 0.000000 0.000000 0.000000 0.024993 0.000000
# 6 0.000000 0.000000 0.000000 0.000000 0.000000 0.033170
#
#
# Mechanical properties :
#
#
# Convention : Reuss Voigt Hill
#
# Bulk Modulus (GPa) = 59.29835 61.18334 60.24084
# Shear Modulus (GPa) = 34.65795 35.44904 35.05349
#
# Velocity S-wave (km/s) = 4.02016 4.06578 4.04303
# Velocity P-wave (km/s) = 7.01433 7.11138 7.06302
#
# Compressibility (1/GPa) = 0.01686388
#
# Stress axis : x y z
#
# Youngs Moduli (GPa) = 85.02366 85.02366 79.02590
#
# Poissons Ratio (x) = 0.41011 0.19097
# Poissons Ratio (y) = 0.41011 0.19097
# Poissons Ratio (z) = 0.20546 0.20546
#
# Static dielectric constant tensor:
#      x y z
#    x 1.763980 0.000000 0.000000 
#    y 0.000000 1.763980 0.000000 
#    z 0.000000 0.000000 1.872700 
# 
# From -- ./inp_files/4030.got.cif
#   From: 2010.05.17/outbox.cif.g08.bks.cpg/sg178_3_cif.got.tgz:4030.got - 2010.05.20 11:30:59.
