data_PCOD9582358
_publ_section_title
;
Structure prediction by ZEFSAII (Michael W. Deem and Ramdas Pophale) SiO2 
 PCOD9582358
Probable space group: P 61 2 2
;
_chemical_formula_sum "Si O2"
_cell_formula_units_Z 84
_cell_length_a 20.828982
_cell_length_b 20.828982
_cell_length_c 12.034507
_cell_angle_alpha 90.000000
_cell_angle_beta 90.000000
_cell_angle_gamma 120.000000
_cell_volume 4521.630034
_symmetry_space_group_name_H-M "P 61 2 2"
_symmetry_group_IT_number 178
_symmetry_cell_setting 'hexagonal'
loop_
_space_group_symop_operation_xyz
x,y,z
x-y,x,1/6+z
-y,x-y,1/3+z
-x,-y,1/2+z
-x+y,-x,2/3+z
y,-x+y,5/6+z
x-y,-y,-z
-x,-x+y,2/3-z
y,x,1/3-z
-y,-x,5/6-z
-x+y,y,1/2-z
x,x-y,1/6-z
loop_
_atom_site_type_symbol
_atom_site_label
_atom_site_fract_x
_atom_site_fract_y
_atom_site_fract_z
Si Si1 0.571715 0.640226 0.446377
Si Si2 0.080477 0.360622 0.604642
Si Si3 0.058291 0.931669 0.745680
Si Si4 0.451504 0.527535 0.600140
Si Si5 0.510541 0.821443 0.048230
Si Si6 0.383534 0.223822 0.818574
Si Si7 0.795451 0.771507 0.047141
O O1 0.644977 0.632660 0.443872
O O2 0.519298 0.601655 0.550591
O O3 0.523591 0.595604 0.337669
O O4 0.596500 0.726220 0.428183
O O5 0.125110 0.425344 0.696821
O O6 0.140789 0.368545 0.514061
O O7 0.044076 0.278314 0.659495
O O8 0.134142 0.938816 0.701680
O O9 0.008291 0.922550 0.641375
O O10 0.000000 0.869265 0.833334
O O11 0.482784 0.482784 0.666667
O O12 0.396169 0.538034 0.681330
O O13 0.471288 0.735644 0.083334
O O14 0.552498 0.820853 0.936813
O O15 0.312431 0.224275 0.766999
O O16 0.811246 0.811246 0.166667
#
# Coordination Sequence:
#
# PCOD9582358 Si02
#       7
#    12  12  12  12  12  12  12
#     4   9  19  29  48  79 113 156 186 228 285 344
#     4  10  17  30  49  78 120 144 175 229 290 346
#     4  10  23  38  49  61  88 130 184 238 283 333
#     4  10  17  30  50  76 118 149 190 227 275 346
#     4   9  16  27  48  78 117 148 169 222 287 335
#     4   9  18  29  47  76 115 143 176 227 287 339
#     4  11  20  30  52  81 104 135 180 235 300 347
#
# _framework density 18.577372
#
# number of rings (size 3 to 8) (size 9 to 14) (size 15 to 20)
#    0.000    2.286    2.857    0.857    0.000    4.571 
#    0.000    0.000    0.000   18.857    0.000    0.000 
#   25.714    0.000    0.000    0.571    0.000    1.857 
#
# Total GULP energy -467677.857066 kJ/mol
# GULP energy per Si atom -5567.593536 kJ/mol
# Density = 1.853509 g / cm^3
# Si number density = 18.577372 Si / 1000 Ang^3
#
#
#
# Elastic Constant Matrix: (Units=GPa)
#
#
# Indices 1 2 3 4 5 6 
#
# 1 56.1297 72.7025 34.5938 0.0000 0.0000 0.0000
# 2 72.7025 56.1297 34.5938 0.0000 0.0000 0.0000
# 3 34.5938 34.5938 42.9440 0.0000 0.0000 0.0000
# 4 0.0000 0.0000 0.0000 24.0079 0.0000 0.0000
# 5 0.0000 0.0000 0.0000 0.0000 24.0079 0.0000
# 6 0.0000 0.0000 0.0000 0.0000 0.0000 -8.2864
#
#
#
# Elastic Compliance Matrix: (Units=1/GPa)
#
#
# Indices 1 2 3 4 5 6 
#
# 1 -0.023330 0.037010 -0.011020 0.000000 0.000000 0.000000
# 2 0.037010 -0.023330 -0.011020 0.000000 0.000000 0.000000
# 3 -0.011020 -0.011020 0.041041 0.000000 0.000000 0.000000
# 4 0.000000 0.000000 0.000000 0.041653 0.000000 0.000000
# 5 0.000000 0.000000 0.000000 0.000000 0.041653 0.000000
# 6 0.000000 0.000000 0.000000 0.000000 0.000000 -0.120680
#
#
# Mechanical properties :
#
#
# Convention : Reuss Voigt Hill
#
# Bulk Modulus (GPa) = 41.11737 48.77596 44.94667
# Shear Modulus (GPa) = -77.13050 8.83345 -34.14852
#
# Velocity S-wave (km/s) = -6.45048 2.18295 -4.29205
# Velocity P-wave (km/s) = 5.77037 5.71544 0.56162
#
# Compressibility (1/GPa) = 0.02432062
#
# Stress axis : x y z
#
# Youngs Moduli (GPa) = -42.86354 -42.86354 24.36583
#
# Poissons Ratio (x) = 1.58639 0.26852
# Poissons Ratio (y) = 1.58639 0.26852
# Poissons Ratio (z) = -0.47237 -0.47237
#
# Static dielectric constant tensor:
#      x y z
#    x 1.671440 0.000000 0.000000 
#    y 0.000000 1.671440 0.000000 
#    z 0.000000 0.000000 1.655500 
# 
# From -- ./inp_files/4809.got.cif
#   From: 2010.05.17/outbox.cif.g08.bks.cpg/sg178_3_cif.got.tgz:4809.got - 2010.05.20 11:30:59.
