data_PCOD9582927
_publ_section_title
;
Structure prediction by ZEFSAII (Michael W. Deem and Ramdas Pophale) SiO2 
 PCOD9582927
Probable space group: P 61 2 2
;
_chemical_formula_sum "Si O2"
_cell_formula_units_Z 66
_cell_length_a 10.606387
_cell_length_b 10.606387
_cell_length_c 28.454183
_cell_angle_alpha 90.000000
_cell_angle_beta 90.000000
_cell_angle_gamma 120.000000
_cell_volume 2772.117859
_symmetry_space_group_name_H-M "P 61 2 2"
_symmetry_group_IT_number 178
_symmetry_cell_setting 'hexagonal'
loop_
_space_group_symop_operation_xyz
x,y,z
x-y,x,1/6+z
-y,x-y,1/3+z
-x,-y,1/2+z
-x+y,-x,2/3+z
y,-x+y,5/6+z
x-y,-y,-z
-x,-x+y,2/3-z
y,x,1/3-z
-y,-x,5/6-z
-x+y,y,1/2-z
x,x-y,1/6-z
loop_
_atom_site_type_symbol
_atom_site_label
_atom_site_fract_x
_atom_site_fract_y
_atom_site_fract_z
Si Si1 0.210577 0.024636 0.251670
Si Si2 0.797348 0.539745 0.446455
Si Si3 0.585108 0.354974 0.685167
Si Si4 0.391260 0.113462 0.623030
Si Si5 0.997542 0.997542 0.666667
Si Si6 0.210526 0.509363 0.407870
O O1 0.129358 0.031990 0.204103
O O2 0.105872 0.981353 0.297118
O O3 0.350225 0.184558 0.258071
O O4 0.255443 0.902092 0.240760
O O5 0.831467 0.459072 0.403699
O O6 0.679764 0.405267 0.475845
O O7 0.948682 0.641990 0.471821
O O8 0.436547 0.236637 0.661298
O O9 0.666891 0.483773 0.648074
O O10 0.309949 0.154975 0.583334
O O11 0.544264 0.142076 0.600032
O O12 0.382959 0.617042 0.416667
#
# Coordination Sequence:
#
# PCOD9582927 Si02
#       6
#    12  12  12  12   6  12
#     4  11  26  44  70  94 142 180 229 289 342 429
#     4  11  24  37  67  93 129 176 215 288 335 408
#     4   9  23  40  58 103 123 163 234 259 349 411
#     4   9  22  40  61  91 127 166 213 270 333 395
#     4  10  28  46  60 106 126 186 238 260 358 414
#     4   9  22  42  68  96 131 177 221 281 349 412
#
# _framework density 23.808512
#
# number of rings (size 3 to 8) (size 9 to 14) (size 15 to 20)
#    0.000    2.545    0.000    0.000   15.273    5.818 
#    0.000    3.636    0.000    0.000    0.000    0.000 
#    0.000    0.000    0.000    0.000    0.000    0.000 
#
# Total GULP energy -368555.196005 kJ/mol
# GULP energy per Si atom -5584.169636 kJ/mol
# Density = 2.375432 g / cm^3
# Si number density = 23.808512 Si / 1000 Ang^3
#
#
#
# Elastic Constant Matrix: (Units=GPa)
#
#
# Indices 1 2 3 4 5 6 
#
# 1 76.5876 24.6602 13.3741 0.0000 0.0000 0.0000
# 2 24.6602 76.5876 13.3741 0.0000 0.0000 0.0000
# 3 13.3741 13.3741 114.4870 0.0000 0.0000 0.0000
# 4 0.0000 0.0000 0.0000 29.7373 0.0000 0.0000
# 5 0.0000 0.0000 0.0000 0.0000 29.7373 0.0000
# 6 0.0000 0.0000 0.0000 0.0000 0.0000 25.9637
#
#
#
# Elastic Compliance Matrix: (Units=1/GPa)
#
#
# Indices 1 2 3 4 5 6 
#
# 1 0.014724 -0.004533 -0.001191 0.000000 0.000000 0.000000
# 2 -0.004533 0.014724 -0.001191 0.000000 0.000000 0.000000
# 3 -0.001191 -0.001191 0.009013 0.000000 0.000000 0.000000
# 4 0.000000 0.000000 0.000000 0.033628 0.000000 0.000000
# 5 0.000000 0.000000 0.000000 0.000000 0.033628 0.000000
# 6 0.000000 0.000000 0.000000 0.000000 0.000000 0.038515
#
#
# Mechanical properties :
#
#
# Convention : Reuss Voigt Hill
#
# Bulk Modulus (GPa) = 40.59559 41.16436 40.87997
# Shear Modulus (GPa) = 30.07115 31.50455 30.78785
#
# Velocity S-wave (km/s) = 3.55779 3.64159 3.59993
# Velocity P-wave (km/s) = 5.82795 5.91683 5.87256
#
# Compressibility (1/GPa) = 0.02463322
#
# Stress axis : x y z
#
# Youngs Moduli (GPa) = 67.91415 67.91415 110.95374
#
# Poissons Ratio (x) = 0.30787 0.13209
# Poissons Ratio (y) = 0.30787 0.13209
# Poissons Ratio (z) = 0.08085 0.08085
#
# Static dielectric constant tensor:
#      x y z
#    x 1.904220 0.000000 0.000000 
#    y 0.000000 1.904220 0.000000 
#    z 0.000000 0.000000 2.008450 
# 
# From -- ./inp_files/9523.got.cif
#   From: 2010.05.17/outbox.cif.g08.bks.cpg/sg178_5_cif.got.tgz:9523.got - 2010.05.20 11:30:59.
