data_PCOD9582487
_publ_section_title
;
Structure prediction by ZEFSAII (Michael W. Deem and Ramdas Pophale) SiO2 
 PCOD9582487
Probable space group: P 61 2 2
;
_chemical_formula_sum "Si O2"
_cell_formula_units_Z 66
_cell_length_a 11.407407
_cell_length_b 11.407407
_cell_length_c 31.825974
_cell_angle_alpha 90.000000
_cell_angle_beta 90.000000
_cell_angle_gamma 120.000000
_cell_volume 3586.626963
_symmetry_space_group_name_H-M "P 61 2 2"
_symmetry_group_IT_number 178
_symmetry_cell_setting 'hexagonal'
loop_
_space_group_symop_operation_xyz
x,y,z
x-y,x,1/6+z
-y,x-y,1/3+z
-x,-y,1/2+z
-x+y,-x,2/3+z
y,-x+y,5/6+z
x-y,-y,-z
-x,-x+y,2/3-z
y,x,1/3-z
-y,-x,5/6-z
-x+y,y,1/2-z
x,x-y,1/6-z
loop_
_atom_site_type_symbol
_atom_site_label
_atom_site_fract_x
_atom_site_fract_y
_atom_site_fract_z
Si Si1 0.669392 0.894835 0.708002
Si Si2 0.365944 0.344268 0.460234
Si Si3 0.719739 0.699132 0.754005
Si Si4 0.370814 0.741627 0.250000
Si Si5 0.081643 0.158355 0.492400
Si Si6 0.583425 0.118001 0.360115
O O1 0.695782 0.770469 0.714803
O O2 0.560265 0.854602 0.671438
O O3 0.620907 0.928510 0.751647
O O4 0.809872 0.031478 0.695901
O O5 0.495370 0.335939 0.444132
O O6 0.238236 0.215430 0.481673
O O7 0.406228 0.456596 0.495944
O O8 0.800083 0.824925 0.785556
O O9 0.585941 0.576369 0.774058
O O10 0.820125 0.640249 0.750000
O O11 0.246663 0.648212 0.218730
O O12 0.006329 0.000000 0.500000
#
# Coordination Sequence:
#
# PCOD9582487 Si02
#       6
#    12  12  12   6  12  12
#     4  10  20  38  65  91 119 155 211 259 308 365
#     4  11  23  39  61  88 120 164 205 246 317 378
#     4  10  19  35  60  95 118 154 203 258 303 346
#     4  12  24  42  60  88 124 168 212 250 304 378
#     4  10  20  35  63  92 120 147 200 260 313 363
#     4  11  23  39  59  89 125 165 208 254 297 372
#
# _framework density 18.401691
#
# number of rings (size 3 to 8) (size 9 to 14) (size 15 to 20)
#    0.000    1.455    4.545    1.091    5.091    0.000 
#    0.000    1.818    0.000    2.182    0.000    0.000 
#    0.000    0.000    0.000    0.000    0.000    0.000 
#
# Total GULP energy -367667.220582 kJ/mol
# GULP energy per Si atom -5570.715463 kJ/mol
# Density = 1.835981 g / cm^3
# Si number density = 18.401691 Si / 1000 Ang^3
#
#
#
# Elastic Constant Matrix: (Units=GPa)
#
#
# Indices 1 2 3 4 5 6 
#
# 1 99.4505 64.7360 48.3958 0.0000 0.0000 0.0000
# 2 64.7360 99.4505 48.3958 0.0000 0.0000 0.0000
# 3 48.3958 48.3958 73.1522 0.0000 0.0000 0.0000
# 4 0.0000 0.0000 0.0000 22.3180 0.0000 0.0000
# 5 0.0000 0.0000 0.0000 0.0000 22.3180 0.0000
# 6 0.0000 0.0000 0.0000 0.0000 0.0000 17.3573
#
#
#
# Elastic Compliance Matrix: (Units=1/GPa)
#
#
# Indices 1 2 3 4 5 6 
#
# 1 0.019396 -0.009411 -0.006606 0.000000 0.000000 0.000000
# 2 -0.009411 0.019396 -0.006606 0.000000 0.000000 0.000000
# 3 -0.006606 -0.006606 0.022411 0.000000 0.000000 0.000000
# 4 0.000000 0.000000 0.000000 0.044807 0.000000 0.000000
# 5 0.000000 0.000000 0.000000 0.000000 0.044807 0.000000
# 6 0.000000 0.000000 0.000000 0.000000 0.000000 0.057613
#
#
# Mechanical properties :
#
#
# Convention : Reuss Voigt Hill
#
# Bulk Modulus (GPa) = 62.66735 66.12315 64.39525
# Shear Modulus (GPa) = 19.30561 19.76702 19.53632
#
# Velocity S-wave (km/s) = 3.24253 3.28105 3.26185
# Velocity P-wave (km/s) = 6.93886 7.09682 7.01829
#
# Compressibility (1/GPa) = 0.01595727
#
# Stress axis : x y z
#
# Youngs Moduli (GPa) = 51.55805 51.55805 44.62187
#
# Poissons Ratio (x) = 0.48520 0.29476
# Poissons Ratio (y) = 0.48520 0.29476
# Poissons Ratio (z) = 0.34058 0.34058
#
# Static dielectric constant tensor:
#      x y z
#    x 1.665740 0.000000 0.000000 
#    y 0.000000 1.665740 0.000000 
#    z 0.000000 0.000000 1.703200 
# 
# From -- ./inp_files/9552.got.cif
#   From: 2010.05.17/outbox.cif.g08.bks.cpg/sg178_5_cif.got.tgz:9552.got - 2010.05.20 11:30:59.
