data_PCOD9583125
_publ_section_title
;
Structure prediction by ZEFSAII (Michael W. Deem and Ramdas Pophale) SiO2 
 PCOD9583125
Probable space group: P 65 2 2
;
_chemical_formula_sum "Si O2"
_cell_formula_units_Z 48
_cell_length_a 9.131077
_cell_length_b 9.131077
_cell_length_c 25.446860
_cell_angle_alpha 90.000000
_cell_angle_beta 90.000000
_cell_angle_gamma 120.000000
_cell_volume 1837.421705
_symmetry_space_group_name_H-M "P 65 2 2"
_symmetry_group_IT_number 179
_symmetry_cell_setting 'hexagonal'
loop_
_space_group_symop_operation_xyz
x,y,z
x-y,x,5/6+z
-y,x-y,2/3+z
-x,-y,1/2+z
-x+y,-x,1/3+z
y,-x+y,1/6+z
x-y,-y,-z
-x,-x+y,1/3-z
y,x,2/3-z
-y,-x,1/6-z
-x+y,y,1/2-z
x,x-y,5/6-z
loop_
_atom_site_type_symbol
_atom_site_label
_atom_site_fract_x
_atom_site_fract_y
_atom_site_fract_z
Si Si1 0.617304 0.942813 0.848734
Si Si2 0.796786 0.868732 0.218458
Si Si3 0.616719 0.670286 0.534523
Si Si4 0.497882 0.190784 0.569002
O O1 0.802488 0.005337 0.825516
O O2 0.551852 0.055477 0.816537
O O3 0.612060 0.000568 0.908197
O O4 0.516473 0.754462 0.824669
O O5 0.760592 0.706928 0.185624
O O6 0.645219 0.827673 0.259127
O O7 0.968948 0.937896 0.250000
O O8 0.722371 0.591370 0.563214
O O9 0.695303 0.304698 0.583334
#
# Coordination Sequence:
#
# PCOD9583125 Si02
#       4
#    12  12  12  12
#     4   9  17  31  50  77 108 146 194 246 311 379
#     4  10  18  30  49  78 109 141 188 253 314 368
#     4   9  18  31  49  76 109 145 192 248 312 373
#     4   8  15  28  47  73 102 138 185 241 301 364
#
# _framework density 26.123563000000001
#
# number of rings (size 3 to 8) (size 9 to 14) (size 15 to 20)
#    0.000    3.000    0.000    3.000    0.000    1.000 
#    0.000    0.000    0.000    0.000    0.000  262.500 
#    0.000    0.000    0.000    0.000    0.000    0.000 
#
# Total GULP energy -267345.337145 kJ/mol
# GULP energy per Si atom -5569.694524 kJ/mol
# Density = 2.606410 g / cm^3
# Si number density = 26.123563 Si / 1000 Ang^3
#
#
#
# Elastic Constant Matrix: (Units=GPa)
#
#
# Indices 1 2 3 4 5 6 
#
# 1 34.9034 2.0957 36.3990 0.0000 0.0000 0.0000
# 2 2.0957 34.9034 36.3990 0.0000 0.0000 0.0000
# 3 36.3990 36.3990 127.6204 0.0000 0.0000 0.0000
# 4 0.0000 0.0000 0.0000 34.9855 0.0000 0.0000
# 5 0.0000 0.0000 0.0000 0.0000 34.9855 0.0000
# 6 0.0000 0.0000 0.0000 0.0000 0.0000 16.4038
#
#
#
# Elastic Compliance Matrix: (Units=1/GPa)
#
#
# Indices 1 2 3 4 5 6 
#
# 1 0.046036 0.015555 -0.017566 0.000000 0.000000 0.000000
# 2 0.015555 0.046036 -0.017566 0.000000 0.000000 0.000000
# 3 -0.017566 -0.017566 0.017856 0.000000 0.000000 0.000000
# 4 0.000000 0.000000 0.000000 0.028583 0.000000 0.000000
# 5 0.000000 0.000000 0.000000 0.000000 0.028583 0.000000
# 6 0.000000 0.000000 0.000000 0.000000 0.000000 0.060961
#
#
# Mechanical properties :
#
#
# Convention : Reuss Voigt Hill
#
# Bulk Modulus (GPa) = 14.12997 38.57940 26.35469
# Shear Modulus (GPa) = 17.19386 25.44385 21.31886
#
# Velocity S-wave (km/s) = 2.56827 3.12425 2.85981
# Velocity P-wave (km/s) = 3.77032 5.27397 4.58422
#
# Compressibility (1/GPa) = 0.07077155
#
# Stress axis : x y z
#
# Youngs Moduli (GPa) = 21.72231 21.72231 56.00336
#
# Poissons Ratio (x) = -0.33789 0.98378
# Poissons Ratio (y) = -0.33789 0.98378
# Poissons Ratio (z) = 0.38158 0.38158
#
# Static dielectric constant tensor:
#      x y z
#    x 2.151930 0.000000 0.000000 
#    y 0.000000 2.151930 0.000000 
#    z 0.000000 0.000000 2.173110 
# 
# From -- ./inp_files/8079.got.cif
#   From: 2010.05.17/outbox.cif.g08.bks.cpg/sg179_5_cif.got.tgz:8079.got - 2010.05.20 11:37:33.
