data_PCOD9583182
_publ_section_title
;
Structure prediction by ZEFSAII (Michael W. Deem and Ramdas Pophale) SiO2 
 PCOD9583182
Probable space group: P 65 2 2
;
_chemical_formula_sum "Si O2"
_cell_formula_units_Z 36
_cell_length_a 20.857905
_cell_length_b 20.857905
_cell_length_c 4.888834
_cell_angle_alpha 90.000000
_cell_angle_beta 90.000000
_cell_angle_gamma 120.000000
_cell_volume 1841.947692
_symmetry_space_group_name_H-M "P 65 2 2"
_symmetry_group_IT_number 179
_symmetry_cell_setting 'hexagonal'
loop_
_space_group_symop_operation_xyz
x,y,z
x-y,x,5/6+z
-y,x-y,2/3+z
-x,-y,1/2+z
-x+y,-x,1/3+z
y,-x+y,1/6+z
x-y,-y,-z
-x,-x+y,1/3-z
y,x,2/3-z
-y,-x,1/6-z
-x+y,y,1/2-z
x,x-y,5/6-z
loop_
_atom_site_type_symbol
_atom_site_label
_atom_site_fract_x
_atom_site_fract_y
_atom_site_fract_z
Si Si1 0.770500 0.691431 0.251579
Si Si2 0.460271 0.775566 0.160317
Si Si3 0.079058 0.680098 0.593531
O O1 0.760067 0.760067 0.333334
O O2 0.851712 0.703423 0.250000
O O3 0.712198 0.625105 0.454250
O O4 0.741469 0.665103 0.948607
O O5 0.394322 0.788643 0.250000
O O6 0.483000 0.741500 0.416667
O O7 0.526690 0.850102 0.029529
O O8 0.432622 0.716311 0.916667
O O9 0.000000 0.607538 0.666667
#
# Coordination Sequence:
#
# PCOD9583182 Si02
#       3
#    12  12  12
#     4  10  19  33  55  83 112 142 180 223 271 323
#     4  12  24  40  60  81 110 146 185 224 267 325
#     4  10  21  37  58  82 108 140 179 229 279 318
#
# _framework density 19.544530000000002
#
# number of rings (size 3 to 8) (size 9 to 14) (size 15 to 20)
#    0.000    1.333    0.000    8.000    0.000    0.000 
#    0.000    8.333    0.000    0.000    0.000    7.000 
#    0.000    0.000    0.000    0.000    0.000    0.000 
#
# Total GULP energy -201003.336908 kJ/mol
# GULP energy per Si atom -5583.426025 kJ/mol
# Density = 1.950005 g / cm^3
# Si number density = 19.544530 Si / 1000 Ang^3
#
#
#
# Elastic Constant Matrix: (Units=GPa)
#
#
# Indices 1 2 3 4 5 6 
#
# 1 22.8409 132.8484 5.7338 0.0000 0.0000 0.0000
# 2 132.8484 22.8409 5.7338 0.0000 0.0000 0.0000
# 3 5.7338 5.7338 70.5229 0.0000 0.0000 0.0000
# 4 0.0000 0.0000 0.0000 26.4853 0.0000 0.0000
# 5 0.0000 0.0000 0.0000 0.0000 26.4853 0.0000
# 6 0.0000 0.0000 0.0000 0.0000 0.0000 -55.0038
#
#
#
# Elastic Compliance Matrix: (Units=1/GPa)
#
#
# Indices 1 2 3 4 5 6 
#
# 1 -0.001314 0.007776 -0.000525 0.000000 0.000000 0.000000
# 2 0.007776 -0.001314 -0.000525 0.000000 0.000000 0.000000
# 3 -0.000525 -0.000525 0.014265 0.000000 0.000000 0.000000
# 4 0.000000 0.000000 0.000000 0.037757 0.000000 0.000000
# 5 0.000000 0.000000 0.000000 0.000000 0.037757 0.000000
# 6 0.000000 0.000000 0.000000 0.000000 0.000000 -0.018181
#
#
# Mechanical properties :
#
#
# Convention : Reuss Voigt Hill
#
# Bulk Modulus (GPa) = 39.86092 44.98188 42.42140
# Shear Modulus (GPa) = 78.26985 -2.28073 37.99456
#
# Velocity S-wave (km/s) = 6.33513 -1.08142 4.41386
# Velocity P-wave (km/s) = 8.59948 4.63743 6.90857
#
# Compressibility (1/GPa) = 0.02508723
#
# Stress axis : x y z
#
# Youngs Moduli (GPa) = -760.87836 -760.87836 70.10059
#
# Poissons Ratio (x) = 5.91660 0.03683
# Poissons Ratio (y) = 5.91660 0.03683
# Poissons Ratio (z) = -0.39974 -0.39974
#
# Static dielectric constant tensor:
#      x y z
#    x 1.732970 0.000000 0.000000 
#    y 0.000000 1.732970 0.000000 
#    z 0.000000 0.000000 1.685670 
# 
# From -- ./inp_files/604.got.cif
#   From: 2010.05.17/outbox.cif.g08.bks.cpg/sg179_1_cif.got.tgz:604.got - 2010.05.20 11:37:33.
