data_PCOD9583440
_publ_section_title
;
Structure prediction by ZEFSAII (Michael W. Deem and Ramdas Pophale) SiO2 
 PCOD9583440
Probable space group: P 65 2 2
;
_chemical_formula_sum "Si O2"
_cell_formula_units_Z 60
_cell_length_a 14.095851
_cell_length_b 14.095851
_cell_length_c 14.089747
_cell_angle_alpha 90.000000
_cell_angle_beta 90.000000
_cell_angle_gamma 120.000000
_cell_volume 2424.467838
_symmetry_space_group_name_H-M "P 65 2 2"
_symmetry_group_IT_number 179
_symmetry_cell_setting 'hexagonal'
loop_
_space_group_symop_operation_xyz
x,y,z
x-y,x,5/6+z
-y,x-y,2/3+z
-x,-y,1/2+z
-x+y,-x,1/3+z
y,-x+y,1/6+z
x-y,-y,-z
-x,-x+y,1/3-z
y,x,2/3-z
-y,-x,1/6-z
-x+y,y,1/2-z
x,x-y,5/6-z
loop_
_atom_site_type_symbol
_atom_site_label
_atom_site_fract_x
_atom_site_fract_y
_atom_site_fract_z
Si Si1 0.765149 0.753289 0.730641
Si Si2 0.409836 0.788276 0.355220
Si Si3 0.035306 0.474948 0.559733
Si Si4 0.915378 0.830756 0.250000
Si Si5 0.234607 0.292859 0.025476
Si Si6 0.396255 0.792509 0.750000
O O1 0.709123 0.709123 0.833334
O O2 0.750375 0.856096 0.702840
O O3 0.724132 0.684343 0.634088
O O4 0.891163 0.782326 0.750000
O O5 0.371221 0.742441 0.250000
O O6 0.466370 0.733185 0.416667
O O7 0.488949 0.916302 0.346103
O O8 0.292251 0.734915 0.408541
O O9 0.000000 0.475609 0.666667
O O10 0.083193 0.393496 0.541461
O O11 0.129683 0.579694 0.506926
O O12 0.900382 0.900382 0.333334
O O13 0.804937 0.758739 0.192261
#
# Coordination Sequence:
#
# PCOD9583440 Si02
#       6
#    12  12  12   6  12   6
#     4   9  20  39  61  89 140 210 260 320 401 476
#     4  10  23  47  80 112 157 205 258 330 415 479
#     4  12  26  46  77 116 158 203 272 338 404 493
#     4  12  24  35  50  88 130 189 250 314 386 458
#     4  11  23  37  62  99 146 194 265 327 392 485
#     4  10  26  51  76 118 152 207 264 320 416 498
#
# _framework density 24.747698
#
# number of rings (size 3 to 8) (size 9 to 14) (size 15 to 20)
#    0.600    0.800    3.000    1.800    2.800    1.600 
#    0.000    4.000    0.000    0.000    0.000    0.000 
#    0.000    0.000    0.000    0.000    0.000    0.000 
#
# Total GULP energy -334617.954594 kJ/mol
# GULP energy per Si atom -5576.965910 kJ/mol
# Density = 2.469137 g / cm^3
# Si number density = 24.747698 Si / 1000 Ang^3
#
#
#
# Elastic Constant Matrix: (Units=GPa)
#
#
# Indices 1 2 3 4 5 6 
#
# 1 62.0649 37.9334 -1.1495 0.0000 0.0000 0.0000
# 2 37.9334 62.0649 -1.1495 0.0000 0.0000 0.0000
# 3 -1.1495 -1.1495 131.2784 0.0000 0.0000 0.0000
# 4 0.0000 0.0000 0.0000 19.2318 0.0000 0.0000
# 5 0.0000 0.0000 0.0000 0.0000 19.2318 0.0000
# 6 0.0000 0.0000 0.0000 0.0000 0.0000 12.0658
#
#
#
# Elastic Compliance Matrix: (Units=1/GPa)
#
#
# Indices 1 2 3 4 5 6 
#
# 1 0.025721 -0.015719 0.000088 0.000000 0.000000 0.000000
# 2 -0.015719 0.025721 0.000088 0.000000 0.000000 0.000000
# 3 0.000088 0.000088 0.007619 0.000000 0.000000 0.000000
# 4 0.000000 0.000000 0.000000 0.051997 0.000000 0.000000
# 5 0.000000 0.000000 0.000000 0.000000 0.051997 0.000000
# 6 0.000000 0.000000 0.000000 0.000000 0.000000 0.082879
#
#
# Mechanical properties :
#
#
# Convention : Reuss Voigt Hill
#
# Bulk Modulus (GPa) = 35.74797 36.29746 36.02272
# Shear Modulus (GPa) = 17.46140 24.75745 21.10942
#
# Velocity S-wave (km/s) = 2.65915 3.16633 2.92376
# Velocity P-wave (km/s) = 4.88922 5.29777 5.09759
#
# Compressibility (1/GPa) = 0.02797361
#
# Stress axis : x y z
#
# Youngs Moduli (GPa) = 38.87892 38.87892 131.25202
#
# Poissons Ratio (x) = 0.61113 -0.01149
# Poissons Ratio (y) = 0.61113 -0.01149
# Poissons Ratio (z) = -0.00340 -0.00340
#
# Static dielectric constant tensor:
#      x y z
#    x 2.362500 0.000000 0.000000 
#    y 0.000000 2.362500 0.000000 
#    z 0.000000 0.000000 1.972880 
# 
# From -- ./inp_files/5824.got.cif
#   From: 2010.05.17/outbox.cif.g08.bks.cpg/sg179_3_cif.got.tgz:5824.got - 2010.05.20 11:37:33.
