data_PCOD9583948
_publ_section_title
;
Structure prediction by ZEFSAII (Michael W. Deem and Ramdas Pophale) SiO2 
 PCOD9583948
Probable space group: P 62 2 2
;
_chemical_formula_sum "Si O2"
_cell_formula_units_Z 69
_cell_length_a 11.636325
_cell_length_b 11.636325
_cell_length_c 30.241381
_cell_angle_alpha 90.000000
_cell_angle_beta 90.000000
_cell_angle_gamma 120.000000
_cell_volume 3546.205805
_symmetry_space_group_name_H-M "P 62 2 2"
_symmetry_group_IT_number 180
_symmetry_cell_setting 'hexagonal'
loop_
_space_group_symop_operation_xyz
x,y,z
x-y,x,1/3+z
-y,x-y,2/3+z
-x,-y,z
-x+y,-x,1/3+z
y,-x+y,2/3+z
x-y,-y,-z
-x,-x+y,1/3-z
y,x,2/3-z
-y,-x,2/3-z
-x+y,y,-z
x,x-y,1/3-z
loop_
_atom_site_type_symbol
_atom_site_label
_atom_site_fract_x
_atom_site_fract_y
_atom_site_fract_z
Si Si1 0.870150 0.357119 0.598327
Si Si2 0.833941 0.803027 0.282600
Si Si3 0.668406 0.331595 0.333334
Si Si4 0.437894 0.840675 0.161935
Si Si5 0.000000 0.000000 0.500000
Si Si6 0.643367 0.135519 0.254937
Si Si7 0.938282 0.809671 0.913578
O O1 0.918661 0.252617 0.591496
O O2 0.763809 0.304730 0.637706
O O3 0.807822 0.372036 0.552933
O O4 0.000000 0.500000 0.608941
O O5 0.793175 0.793175 0.333334
O O6 0.990313 0.856575 0.274332
O O7 0.802748 0.912320 0.264042
O O8 0.649980 0.223090 0.296950
O O9 0.517142 0.758571 0.166667
O O10 0.352929 0.801782 0.206834
O O11 0.500000 0.000000 0.161887
O O12 0.871947 0.916245 0.531218
O O13 0.768712 0.112360 0.253593
O O14 0.500000 0.000000 0.257518
#
# Coordination Sequence:
#
# PCOD9583948 Si02
#       7
#    12  12   6  12   3  12  12
#     4  11  24  40  69  97 134 173 227 287 342 399
#     4  10  22  40  67  96 130 172 229 280 339 406
#     4  12  25  42  60  99 136 172 226 266 340 415
#     4  10  22  44  65  96 134 180 229 284 343 407
#     4   8  20  44  66  96 126 156 240 284 338 392
#     4  11  27  42  68  94 140 177 224 276 341 420
#     4  10  23  41  67  97 129 175 222 284 340 405
#
# _framework density 19.457415999999998
#
# number of rings (size 3 to 8) (size 9 to 14) (size 15 to 20)
#    0.000    1.739    1.739    2.348   12.174    1.391 
#    1.565    0.000    0.000    1.043    0.000    0.000 
#    0.000    0.000    0.000    0.000    0.000    0.000 
#
# Total GULP energy -384280.553763 kJ/mol
# GULP energy per Si atom -5569.283388 kJ/mol
# Density = 1.941313 g / cm^3
# Si number density = 19.457416 Si / 1000 Ang^3
#
#
#
# Elastic Constant Matrix: (Units=GPa)
#
#
# Indices 1 2 3 4 5 6 
#
# 1 93.3133 43.5508 10.8037 0.0000 0.0000 0.0000
# 2 43.5508 93.3133 10.8037 0.0000 0.0000 0.0000
# 3 10.8037 10.8037 94.7228 0.0000 0.0000 0.0000
# 4 0.0000 0.0000 0.0000 -368.1648 0.0000 0.0000
# 5 0.0000 0.0000 0.0000 0.0000 -368.1648 0.0000
# 6 0.0000 0.0000 0.0000 0.0000 0.0000 24.8812
#
#
#
# Elastic Compliance Matrix: (Units=1/GPa)
#
#
# Indices 1 2 3 4 5 6 
#
# 1 0.013768 -0.006327 -0.000849 0.000000 0.000000 0.000000
# 2 -0.006327 0.013768 -0.000849 0.000000 0.000000 0.000000
# 3 -0.000849 -0.000849 0.010751 0.000000 0.000000 0.000000
# 4 0.000000 0.000000 0.000000 -0.002716 0.000000 0.000000
# 5 0.000000 0.000000 0.000000 0.000000 -0.002716 0.000000
# 6 0.000000 0.000000 0.000000 0.000000 0.000000 0.040191
#
#
# Mechanical properties :
#
#
# Convention : Reuss Voigt Hill
#
# Bulk Modulus (GPa) = 44.96975 45.74063 45.35519
# Shear Modulus (GPa) = 51.80961 -127.87695 -38.03367
#
# Velocity S-wave (km/s) = 5.16575 -8.11567 -4.42601
# Velocity P-wave (km/s) = 7.66434 8.01622 1.66098
#
# Compressibility (1/GPa) = 0.02223717
#
# Stress axis : x y z
#
# Youngs Moduli (GPa) = 72.63226 72.63226 93.01714
#
# Poissons Ratio (x) = 0.45958 0.07894
# Poissons Ratio (y) = 0.45958 0.07894
# Poissons Ratio (z) = 0.06164 0.06164
#
# Static dielectric constant tensor:
#      x y z
#    x 1.748020 0.000000 0.000000 
#    y 0.000000 1.748020 0.000000 
#    z 0.000000 0.000000 1.951480 
# 
# From -- ./inp_files/12346.got.cif
#   From: 2010.05.17/outbox.cif.g08.bks.cpg/sg180_7_cif.got.tgz:12346.got - 2010.05.20 11:43:55.
