data_PCOD9583387
_publ_section_title
;
Structure prediction by ZEFSAII (Michael W. Deem and Ramdas Pophale) SiO2 
 PCOD9583387
Probable space group: P 65 2 2
;
_chemical_formula_sum "Si O2"
_cell_formula_units_Z 42
_cell_length_a 11.486109
_cell_length_b 11.486109
_cell_length_c 18.083761
_cell_angle_alpha 90.000000
_cell_angle_beta 90.000000
_cell_angle_gamma 120.000000
_cell_volume 2066.166220
_symmetry_space_group_name_H-M "P 65 2 2"
_symmetry_group_IT_number 179
_symmetry_cell_setting 'hexagonal'
loop_
_space_group_symop_operation_xyz
x,y,z
x-y,x,5/6+z
-y,x-y,2/3+z
-x,-y,1/2+z
-x+y,-x,1/3+z
y,-x+y,1/6+z
x-y,-y,-z
-x,-x+y,1/3-z
y,x,2/3-z
-y,-x,1/6-z
-x+y,y,1/2-z
x,x-y,5/6-z
loop_
_atom_site_type_symbol
_atom_site_label
_atom_site_fract_x
_atom_site_fract_y
_atom_site_fract_z
Si Si1 0.334959 0.665042 0.083334
Si Si2 0.545845 0.577571 0.409411
Si Si3 0.263073 0.393514 0.034823
Si Si4 0.286847 0.951350 0.628414
O O1 0.314617 0.552320 0.023815
O O2 0.183753 0.615202 0.104879
O O3 0.626021 0.626021 0.333334
O O4 0.646070 0.636908 0.479215
O O5 0.455329 0.416431 0.420918
O O6 0.288769 0.381661 0.120951
O O7 0.101677 0.309151 0.029145
O O8 0.153756 0.846244 0.583334
#
# Coordination Sequence:
#
# PCOD9583387 Si02
#       4
#     6  12  12  12
#     4  10  22  42  62 100 130 174 218 278 342 398
#     4  11  24  38  66  98 138 172 214 281 338 408
#     4  11  23  42  68  99 132 173 224 280 341 401
#     4  11  22  43  69  97 127 173 230 276 329 400
#
# _framework density 20.327501999999999
#
# number of rings (size 3 to 8) (size 9 to 14) (size 15 to 20)
#    0.000    1.143    2.857    4.286    4.000    0.000 
#    0.000    0.000    9.429    0.000    0.000    0.000 
#    0.000    0.000    0.000    0.000    0.000    0.000 
#
# Total GULP energy -233848.117170 kJ/mol
# GULP energy per Si atom -5567.812314 kJ/mol
# Density = 2.028124 g / cm^3
# Si number density = 20.327502 Si / 1000 Ang^3
#
#
#
# Elastic Constant Matrix: (Units=GPa)
#
#
# Indices 1 2 3 4 5 6 
#
# 1 74.4700 33.2459 26.8446 0.0000 0.0000 0.0000
# 2 33.2459 74.4700 26.8446 0.0000 0.0000 0.0000
# 3 26.8446 26.8446 126.7904 0.0000 0.0000 0.0000
# 4 0.0000 0.0000 0.0000 -34.4818 0.0000 0.0000
# 5 0.0000 0.0000 0.0000 0.0000 -34.4818 0.0000
# 6 0.0000 0.0000 0.0000 0.0000 0.0000 20.6120
#
#
#
# Elastic Compliance Matrix: (Units=1/GPa)
#
#
# Indices 1 2 3 4 5 6 
#
# 1 0.017318 -0.006939 -0.002197 0.000000 0.000000 0.000000
# 2 -0.006939 0.017318 -0.002197 0.000000 0.000000 0.000000
# 3 -0.002197 -0.002197 0.008818 0.000000 0.000000 0.000000
# 4 0.000000 0.000000 0.000000 -0.029001 0.000000 0.000000
# 5 0.000000 0.000000 0.000000 0.000000 -0.029001 0.000000
# 6 0.000000 0.000000 0.000000 0.000000 0.000000 0.048515
#
#
# Mechanical properties :
#
#
# Convention : Reuss Voigt Hill
#
# Bulk Modulus (GPa) = 48.11029 49.95565 49.03297
# Shear Modulus (GPa) = 78.65966 2.91605 40.78785
#
# Velocity S-wave (km/s) = 6.22737 1.19902 4.48430
# Velocity P-wave (km/s) = 8.68481 5.15224 7.14043
#
# Compressibility (1/GPa) = 0.02078558
#
# Stress axis : x y z
#
# Youngs Moduli (GPa) = 57.74233 57.74233 113.41015
#
# Poissons Ratio (x) = 0.40069 0.24922
# Poissons Ratio (y) = 0.40069 0.24922
# Poissons Ratio (z) = 0.12689 0.12689
#
# Static dielectric constant tensor:
#      x y z
#    x 1.914150 0.000000 0.000000 
#    y 0.000000 1.914150 0.000000 
#    z 0.000000 0.000000 1.740190 
# 
# From -- ./inp_files/6434.got.cif
#   From: 2010.05.17/outbox.cif.g08.bks.cpg/sg179_4_cif.got.tgz:6434.got - 2010.05.20 11:37:33.
