data_PCOD9583841
_publ_section_title
;
Structure prediction by ZEFSAII (Michael W. Deem and Ramdas Pophale) SiO2 
 PCOD9583841
Probable space group: P 62 2 2
;
_chemical_formula_sum "Si O2"
_cell_formula_units_Z 75
_cell_length_a 13.859881
_cell_length_b 13.859881
_cell_length_c 21.248294
_cell_angle_alpha 90.000000
_cell_angle_beta 90.000000
_cell_angle_gamma 120.000000
_cell_volume 3534.872074
_symmetry_space_group_name_H-M "P 62 2 2"
_symmetry_group_IT_number 180
_symmetry_cell_setting 'hexagonal'
loop_
_space_group_symop_operation_xyz
x,y,z
x-y,x,1/3+z
-y,x-y,2/3+z
-x,-y,z
-x+y,-x,1/3+z
y,-x+y,2/3+z
x-y,-y,-z
-x,-x+y,1/3-z
y,x,2/3-z
-y,-x,2/3-z
-x+y,y,-z
x,x-y,1/3-z
loop_
_atom_site_type_symbol
_atom_site_label
_atom_site_fract_x
_atom_site_fract_y
_atom_site_fract_z
Si Si1 0.182445 0.414385 0.632865
Si Si2 0.664994 0.332497 0.666667
Si Si3 0.009003 0.389093 0.931323
Si Si4 0.518937 0.892349 0.608118
Si Si5 0.320858 0.320858 0.833334
Si Si6 0.044246 0.737317 0.811014
Si Si7 0.000000 0.000000 0.000000
Si Si8 0.110631 0.880008 0.070901
O O1 0.252069 0.545933 0.640580
O O2 0.281876 0.390964 0.613222
O O3 0.084720 0.386459 0.582989
O O4 0.131502 0.328002 0.690846
O O5 0.585380 0.230947 0.619348
O O6 0.030592 0.353321 0.863095
O O7 0.000000 0.500000 0.923238
O O8 0.085472 0.410492 0.992996
O O9 0.500000 0.000000 0.609735
O O10 0.573275 0.907453 0.539340
O O11 0.231406 0.281153 0.777849
O O12 0.163136 0.836865 0.833334
O O13 0.977291 0.794716 0.786176
O O14 0.885714 0.917631 0.963343
#
# Coordination Sequence:
#
# PCOD9583841 Si02
#       8
#    12   6  12  12   6  12   3  12
#     4  11  22  46  66 105 142 187 238 306 362 431
#     4  12  24  41  83 102 142 201 249 302 380 454
#     4  10  20  42  69  94 145 190 234 295 363 435
#     4  11  23  46  69 106 151 192 241 310 371 445
#     4  12  27  39  72 108 140 188 244 309 375 444
#     4  10  24  42  68  96 143 184 241 307 357 442
#     4  12  28  48  76  94 150 200 230 314 392 462
#     4  12  26  45  71 106 145 190 247 311 373 452
#
# _framework density 21.217177
#
# number of rings (size 3 to 8) (size 9 to 14) (size 15 to 20)
#    0.000    0.960    6.400    0.240    4.480    1.920 
#    0.000    8.800    0.000    0.000    0.000    0.000 
#    0.000    0.000    0.000    0.000    0.000    0.000 
#
# Total GULP energy -417585.510810 kJ/mol
# GULP energy per Si atom -5567.806811 kJ/mol
# Density = 2.116889 g / cm^3
# Si number density = 21.217177 Si / 1000 Ang^3
#
#
#
# Elastic Constant Matrix: (Units=GPa)
#
#
# Indices 1 2 3 4 5 6 
#
# 1 86.5252 14.9930 39.2801 0.0000 0.0000 0.0000
# 2 14.9930 86.5252 39.2801 0.0000 0.0000 0.0000
# 3 39.2801 39.2801 105.4126 0.0000 0.0000 0.0000
# 4 0.0000 0.0000 0.0000 -7.5288 0.0000 0.0000
# 5 0.0000 0.0000 0.0000 0.0000 -7.5288 0.0000
# 6 0.0000 0.0000 0.0000 0.0000 0.0000 35.7661
#
#
#
# Elastic Compliance Matrix: (Units=1/GPa)
#
#
# Indices 1 2 3 4 5 6 
#
# 1 0.013911 -0.000069 -0.005158 0.000000 0.000000 0.000000
# 2 -0.000069 0.013911 -0.005158 0.000000 0.000000 0.000000
# 3 -0.005158 -0.005158 0.013331 0.000000 0.000000 0.000000
# 4 0.000000 0.000000 0.000000 -0.132823 0.000000 0.000000
# 5 0.000000 0.000000 0.000000 0.000000 -0.132823 0.000000
# 6 0.000000 0.000000 0.000000 0.000000 0.000000 0.027959
#
#
# Mechanical properties :
#
#
# Convention : Reuss Voigt Hill
#
# Bulk Modulus (GPa) = 49.06135 51.72995 50.39565
# Shear Modulus (GPa) = -29.59106 16.46901 -6.56102
#
# Velocity S-wave (km/s) = -3.73859 2.78908 -1.76041
# Velocity P-wave (km/s) = 2.13016 5.89966 4.43529
#
# Compressibility (1/GPa) = 0.02038264
#
# Stress axis : x y z
#
# Youngs Moduli (GPa) = 71.88648 71.88648 75.01563
#
# Poissons Ratio (x) = 0.00495 0.38693
# Poissons Ratio (y) = 0.00495 0.38693
# Poissons Ratio (z) = 0.37079 0.37079
#
# Static dielectric constant tensor:
#      x y z
#    x 1.818630 0.000000 0.000000 
#    y 0.000000 1.818630 0.000000 
#    z 0.000000 0.000000 1.896790 
# 
# From -- ./inp_files/9226.got.cif
#   From: 2010.05.17/outbox.cif.g08.bks.cpg/sg180_5_cif.got.tgz:9226.got - 2010.05.20 11:43:55.
