data_PCOD9583003
_publ_section_title
;
Structure prediction by ZEFSAII (Michael W. Deem and Ramdas Pophale) SiO2 
 PCOD9583003
Probable space group: P 61 2 2
;
_chemical_formula_sum "Si O2"
_cell_formula_units_Z 60
_cell_length_a 15.135848
_cell_length_b 15.135848
_cell_length_c 14.543165
_cell_angle_alpha 90.000000
_cell_angle_beta 90.000000
_cell_angle_gamma 120.000000
_cell_volume 2885.380408
_symmetry_space_group_name_H-M "P 61 2 2"
_symmetry_group_IT_number 178
_symmetry_cell_setting 'hexagonal'
loop_
_space_group_symop_operation_xyz
x,y,z
x-y,x,1/6+z
-y,x-y,1/3+z
-x,-y,1/2+z
-x+y,-x,2/3+z
y,-x+y,5/6+z
x-y,-y,-z
-x,-x+y,2/3-z
y,x,1/3-z
-y,-x,5/6-z
-x+y,y,1/2-z
x,x-y,1/6-z
loop_
_atom_site_type_symbol
_atom_site_label
_atom_site_fract_x
_atom_site_fract_y
_atom_site_fract_z
Si Si1 0.264969 0.735032 0.416667
Si Si2 0.634648 0.864754 0.416934
Si Si3 0.636348 0.185482 0.472373
Si Si4 0.469301 0.368298 0.845043
Si Si5 0.548477 0.887751 0.231962
Si Si6 0.858051 0.000000 0.500000
O O1 0.219663 0.615976 0.397466
O O2 0.207967 0.741945 0.506567
O O3 0.568569 0.872878 0.500368
O O4 0.578661 0.744815 0.387472
O O5 0.612701 0.910753 0.325447
O O6 0.751338 0.917472 0.449927
O O7 0.714310 0.285691 0.416667
O O8 0.534568 0.129326 0.413885
O O9 0.552128 0.447873 0.916667
O O10 0.378593 0.392110 0.835924
O O11 0.436578 0.873156 0.250000
O O12 0.940941 0.059060 0.416667
#
# Coordination Sequence:
#
# PCOD9583003 Si02
#       6
#     6  12  12  12  12   6
#     4  12  22  38  58  92 136 202 236 272 350 440
#     4  12  24  44  71 107 145 193 258 311 381 468
#     4  12  22  36  63  97 140 191 235 289 355 444
#     4  11  24  41  63  98 143 185 232 294 366 439
#     4  11  24  40  59  93 144 186 235 294 352 441
#     4  12  30  54  90 116 144 194 272 360 424 468
#
# _framework density 20.794485000000002
#
# number of rings (size 3 to 8) (size 9 to 14) (size 15 to 20)
#    0.000    0.400    6.000    3.600    5.600    0.800 
#    0.000    0.000    8.800    0.000    0.000    0.000 
#    0.000    0.000    0.000    0.000    0.000    0.000 
#
# Total GULP energy -334916.523458 kJ/mol
# GULP energy per Si atom -5581.942058 kJ/mol
# Density = 2.074716 g / cm^3
# Si number density = 20.794485 Si / 1000 Ang^3
#
#
#
# Elastic Constant Matrix: (Units=GPa)
#
#
# Indices 1 2 3 4 5 6 
#
# 1 89.5968 39.9673 35.9950 0.0000 0.0000 0.0000
# 2 39.9673 89.5968 35.9950 0.0000 0.0000 0.0000
# 3 35.9950 35.9950 97.3860 0.0000 0.0000 0.0000
# 4 0.0000 0.0000 0.0000 21.7303 0.0000 0.0000
# 5 0.0000 0.0000 0.0000 0.0000 21.7303 0.0000
# 6 0.0000 0.0000 0.0000 0.0000 0.0000 24.8148
#
#
#
# Elastic Compliance Matrix: (Units=1/GPa)
#
#
# Indices 1 2 3 4 5 6 
#
# 1 0.014931 -0.005218 -0.003590 0.000000 0.000000 0.000000
# 2 -0.005218 0.014931 -0.003590 0.000000 0.000000 0.000000
# 3 -0.003590 -0.003590 0.012922 0.000000 0.000000 0.000000
# 4 0.000000 0.000000 0.000000 0.046019 0.000000 0.000000
# 5 0.000000 0.000000 0.000000 0.000000 0.046019 0.000000
# 6 0.000000 0.000000 0.000000 0.000000 0.000000 0.040299
#
#
# Mechanical properties :
#
#
# Convention : Reuss Voigt Hill
#
# Bulk Modulus (GPa) = 55.59251 55.61046 55.60149
# Shear Modulus (GPa) = 24.28213 24.62991 24.45602
#
# Velocity S-wave (km/s) = 3.42090 3.44531 3.43313
# Velocity P-wave (km/s) = 6.51120 6.52900 6.52010
#
# Compressibility (1/GPa) = 0.01798803
#
# Stress axis : x y z
#
# Youngs Moduli (GPa) = 66.97431 66.97431 77.38605
#
# Poissons Ratio (x) = 0.34948 0.27782
# Poissons Ratio (y) = 0.34948 0.27782
# Poissons Ratio (z) = 0.24044 0.24044
#
# Static dielectric constant tensor:
#      x y z
#    x 1.790640 0.000000 0.000000 
#    y 0.000000 1.790640 0.000000 
#    z 0.000000 0.000000 1.790400 
# 
# From -- ./inp_files/5749.got.cif
#   From: 2010.05.17/outbox.cif.g08.bks.cpg/sg178_3_cif.got.tgz:5749.got - 2010.05.20 11:30:59.
