data_PCOD9583200
_publ_section_title
;
Structure prediction by ZEFSAII (Michael W. Deem and Ramdas Pophale) SiO2 
 PCOD9583200
Probable space group: P 65 2 2
;
_chemical_formula_sum "Si O2"
_cell_formula_units_Z 60
_cell_length_a 21.330636
_cell_length_b 21.330636
_cell_length_c 9.029695
_cell_angle_alpha 90.000000
_cell_angle_beta 90.000000
_cell_angle_gamma 120.000000
_cell_volume 3558.044064
_symmetry_space_group_name_H-M "P 65 2 2"
_symmetry_group_IT_number 179
_symmetry_cell_setting 'hexagonal'
loop_
_space_group_symop_operation_xyz
x,y,z
x-y,x,5/6+z
-y,x-y,2/3+z
-x,-y,1/2+z
-x+y,-x,1/3+z
y,-x+y,1/6+z
x-y,-y,-z
-x,-x+y,1/3-z
y,x,2/3-z
-y,-x,1/6-z
-x+y,y,1/2-z
x,x-y,5/6-z
loop_
_atom_site_type_symbol
_atom_site_label
_atom_site_fract_x
_atom_site_fract_y
_atom_site_fract_z
Si Si1 0.427945 0.855890 0.250000
Si Si2 0.652319 0.231993 0.006209
Si Si3 0.223312 0.424090 0.418391
Si Si4 0.121605 0.560803 0.416667
Si Si5 0.586845 0.920482 0.627542
Si Si6 0.402919 0.070282 0.772617
O O1 0.411888 0.800917 0.387687
O O2 0.514106 0.906402 0.229656
O O3 0.688997 0.311004 0.083334
O O4 0.622733 0.173480 0.136648
O O5 0.717404 0.227180 0.927505
O O6 0.199102 0.398203 0.250000
O O7 0.153626 0.417133 0.496594
O O8 0.262971 0.389116 0.511101
O O9 0.079577 0.591676 0.324472
O O10 0.598702 0.924430 0.451288
O O11 0.640712 0.985201 0.737936
#
# Coordination Sequence:
#
# PCOD9583200 Si02
#       6
#     6  12  12   6  12  12
#     4  10  19  36  50  72 104 124 178 228 268 344
#     4  10  20  36  49  70  96 134 168 219 285 318
#     4  10  20  38  53  74 103 129 169 224 271 332
#     4  12  19  36  52  72 104 132 178 236 264 340
#     4  11  21  36  55  76 104 135 177 223 278 333
#     4  10  22  35  55  78  98 140 173 220 285 324
#
# _framework density 16.863198000000001
#
# number of rings (size 3 to 8) (size 9 to 14) (size 15 to 20)
#    0.000    1.600    6.000    1.200    0.000    0.800 
#    1.800    0.000    0.000    0.000    0.000    0.000 
#    0.000    0.000    0.000    0.000    0.000   24.000 
#
# Total GULP energy -334049.988858 kJ/mol
# GULP energy per Si atom -5567.499814 kJ/mol
# Density = 1.682482 g / cm^3
# Si number density = 16.863198 Si / 1000 Ang^3
#
#
#
# Elastic Constant Matrix: (Units=GPa)
#
#
# Indices 1 2 3 4 5 6 
#
# 1 66.4532 28.4412 10.6698 0.0000 0.0000 0.0000
# 2 28.4412 66.4532 10.6698 0.0000 0.0000 0.0000
# 3 10.6698 10.6698 52.0473 0.0000 0.0000 0.0000
# 4 0.0000 0.0000 0.0000 20.8160 0.0000 0.0000
# 5 0.0000 0.0000 0.0000 0.0000 20.8160 0.0000
# 6 0.0000 0.0000 0.0000 0.0000 0.0000 19.0060
#
#
#
# Elastic Compliance Matrix: (Units=1/GPa)
#
#
# Indices 1 2 3 4 5 6 
#
# 1 0.018677 -0.007630 -0.002265 0.000000 0.000000 0.000000
# 2 -0.007630 0.018677 -0.002265 0.000000 0.000000 0.000000
# 3 -0.002265 -0.002265 0.020142 0.000000 0.000000 0.000000
# 4 0.000000 0.000000 0.000000 0.048040 0.000000 0.000000
# 5 0.000000 0.000000 0.000000 0.000000 0.048040 0.000000
# 6 0.000000 0.000000 0.000000 0.000000 0.000000 0.052615
#
#
# Mechanical properties :
#
#
# Convention : Reuss Voigt Hill
#
# Bulk Modulus (GPa) = 30.14081 31.61280 30.87680
# Shear Modulus (GPa) = 20.69796 21.13914 20.91855
#
# Velocity S-wave (km/s) = 3.50723 3.54441 3.52587
# Velocity P-wave (km/s) = 5.85777 5.96136 5.90979
#
# Compressibility (1/GPa) = 0.03317761
#
# Stress axis : x y z
#
# Youngs Moduli (GPa) = 53.54067 53.54067 49.64788
#
# Poissons Ratio (x) = 0.40852 0.11244
# Poissons Ratio (y) = 0.40852 0.11244
# Poissons Ratio (z) = 0.12125 0.12125
#
# Static dielectric constant tensor:
#      x y z
#    x 1.614420 0.000000 0.000000 
#    y 0.000000 1.614420 0.000000 
#    z 0.000000 0.000000 1.654780 
# 
# From -- ./inp_files/3243.got.cif
#   From: 2010.05.17/outbox.cif.g08.bks.cpg/sg179_2_cif.got.tgz:3243.got - 2010.05.20 11:37:33.
