data_PCOD9583466
_publ_section_title
;
Structure prediction by ZEFSAII (Michael W. Deem and Ramdas Pophale) SiO2 
 PCOD9583466
Probable space group: P 65 2 2
;
_chemical_formula_sum "Si O2"
_cell_formula_units_Z 72
_cell_length_a 11.189672
_cell_length_b 11.189672
_cell_length_c 30.188009
_cell_angle_alpha 90.000000
_cell_angle_beta 90.000000
_cell_angle_gamma 120.000000
_cell_volume 3273.405556
_symmetry_space_group_name_H-M "P 65 2 2"
_symmetry_group_IT_number 179
_symmetry_cell_setting 'hexagonal'
loop_
_space_group_symop_operation_xyz
x,y,z
x-y,x,5/6+z
-y,x-y,2/3+z
-x,-y,1/2+z
-x+y,-x,1/3+z
y,-x+y,1/6+z
x-y,-y,-z
-x,-x+y,1/3-z
y,x,2/3-z
-y,-x,1/6-z
-x+y,y,1/2-z
x,x-y,5/6-z
loop_
_atom_site_type_symbol
_atom_site_label
_atom_site_fract_x
_atom_site_fract_y
_atom_site_fract_z
Si Si1 0.315053 0.368631 0.737186
Si Si2 0.417661 0.687370 0.863521
Si Si3 0.050955 0.339633 0.348871
Si Si4 0.890582 0.931188 0.205700
Si Si5 0.337892 0.824532 0.363822
Si Si6 0.435290 0.870580 0.750000
Si Si7 0.000000 0.413332 0.666667
O O1 0.210178 0.420355 0.750000
O O2 0.236992 0.228695 0.708745
O O3 0.434459 0.504405 0.713144
O O4 0.346711 0.338696 0.786800
O O5 0.411297 0.705649 0.916667
O O6 0.558528 0.816269 0.845863
O O7 0.279033 0.673496 0.841976
O O8 0.424877 0.560461 0.840746
O O9 0.037528 0.445944 0.382101
O O10 0.038110 0.204542 0.371078
O O11 0.919531 0.277391 0.317268
O O12 0.974210 0.948419 0.250000
O O13 0.000000 0.964650 0.166667
O O14 0.236570 0.718289 0.399948
#
# Coordination Sequence:
#
# PCOD9583466 Si02
#       7
#    12  12  12  12  12   6   6
#     4  11  23  44  73 102 142 184 242 306 364 438
#     4  11  26  45  71 108 139 187 246 297 374 441
#     4  11  27  44  71 100 144 188 233 299 358 441
#     4  11  30  49  70 104 148 203 247 301 375 462
#     4  11  23  45  70 104 141 181 233 302 363 421
#     4  10  24  46  70 104 134 178 234 298 360 420
#     4  12  24  44  78 106 142 188 250 314 374 442
#
# _framework density 21.995443000000002
#
# number of rings (size 3 to 8) (size 9 to 14) (size 15 to 20)
#    0.000    1.000    2.500    2.000   16.333    0.667 
#    0.000    0.000    0.000    0.000    0.000    0.000 
#    0.000    0.000    0.000    0.000    0.000    0.000 
#
# Total GULP energy -401476.506348 kJ/mol
# GULP energy per Si atom -5576.062588 kJ/mol
# Density = 2.194538 g / cm^3
# Si number density = 21.995443 Si / 1000 Ang^3
#
#
#
# Elastic Constant Matrix: (Units=GPa)
#
#
# Indices 1 2 3 4 5 6 
#
# 1 47.0826 19.5473 8.1370 0.0000 0.0000 0.0000
# 2 19.5473 47.0826 8.1370 0.0000 0.0000 0.0000
# 3 8.1370 8.1370 66.6064 0.0000 0.0000 0.0000
# 4 0.0000 0.0000 0.0000 30.0046 0.0000 0.0000
# 5 0.0000 0.0000 0.0000 0.0000 30.0046 0.0000
# 6 0.0000 0.0000 0.0000 0.0000 0.0000 13.7677
#
#
#
# Elastic Compliance Matrix: (Units=1/GPa)
#
#
# Indices 1 2 3 4 5 6 
#
# 1 0.025893 -0.010424 -0.001890 0.000000 0.000000 0.000000
# 2 -0.010424 0.025893 -0.001890 0.000000 0.000000 0.000000
# 3 -0.001890 -0.001890 0.015475 0.000000 0.000000 0.000000
# 4 0.000000 0.000000 0.000000 0.033328 0.000000 0.000000
# 5 0.000000 0.000000 0.000000 0.000000 0.033328 0.000000
# 6 0.000000 0.000000 0.000000 0.000000 0.000000 0.072634
#
#
# Mechanical properties :
#
#
# Convention : Reuss Voigt Hill
#
# Bulk Modulus (GPa) = 25.73636 25.82380 25.78008
# Shear Modulus (GPa) = 20.16854 23.08541 21.62697
#
# Velocity S-wave (km/s) = 3.03139 3.24320 3.13908
# Velocity P-wave (km/s) = 4.89679 5.07843 4.98844
#
# Compressibility (1/GPa) = 0.03885554
#
# Stress axis : x y z
#
# Youngs Moduli (GPa) = 38.61986 38.61986 64.61900
#
# Poissons Ratio (x) = 0.40256 0.12212
# Poissons Ratio (y) = 0.40256 0.12212
# Poissons Ratio (z) = 0.07299 0.07299
#
# Static dielectric constant tensor:
#      x y z
#    x 1.712720 0.000000 0.000000 
#    y 0.000000 1.712720 0.000000 
#    z 0.000000 0.000000 1.697570 
# 
# From -- ./inp_files/9609.got.cif
#   From: 2010.05.17/outbox.cif.g08.bks.cpg/sg179_5_cif.got.tgz:9609.got - 2010.05.20 11:37:33.
