data_PCOD9583312
_publ_section_title
;
Structure prediction by ZEFSAII (Michael W. Deem and Ramdas Pophale) SiO2 
 PCOD9583312
Probable space group: P 65 2 2
;
_chemical_formula_sum "Si O2"
_cell_formula_units_Z 42
_cell_length_a 13.221266
_cell_length_b 13.221266
_cell_length_c 15.994125
_cell_angle_alpha 90.000000
_cell_angle_beta 90.000000
_cell_angle_gamma 120.000000
_cell_volume 2421.236451
_symmetry_space_group_name_H-M "P 65 2 2"
_symmetry_group_IT_number 179
_symmetry_cell_setting 'hexagonal'
loop_
_space_group_symop_operation_xyz
x,y,z
x-y,x,5/6+z
-y,x-y,2/3+z
-x,-y,1/2+z
-x+y,-x,1/3+z
y,-x+y,1/6+z
x-y,-y,-z
-x,-x+y,1/3-z
y,x,2/3-z
-y,-x,1/6-z
-x+y,y,1/2-z
x,x-y,5/6-z
loop_
_atom_site_type_symbol
_atom_site_label
_atom_site_fract_x
_atom_site_fract_y
_atom_site_fract_z
Si Si1 0.043733 0.611256 0.986757
Si Si2 0.522715 0.638077 0.780697
Si Si3 0.222752 0.794781 0.866916
Si Si4 0.691612 0.383223 0.750000
O O1 0.015603 0.507802 0.916667
O O2 0.135423 0.735566 0.945363
O O3 0.097586 0.572553 0.062243
O O4 0.930554 0.614791 0.020145
O O5 0.600113 0.600113 0.833334
O O6 0.596056 0.740086 0.714945
O O7 0.459546 0.679056 0.845439
O O8 0.303269 0.735733 0.874335
#
# Coordination Sequence:
#
# PCOD9583312 Si02
#       4
#    12  12  12   6
#     4  10  21  38  54  83 120 160 195 238 293 362
#     4  11  22  33  55  85 118 159 187 235 296 350
#     4  11  22  36  55  81 124 155 196 238 293 355
#     4  12  20  32  58  82 124 152 184 242 274 356
#
# _framework density 17.346509000000001
#
# number of rings (size 3 to 8) (size 9 to 14) (size 15 to 20)
#    0.000    1.143    7.143    2.571    4.000    0.000 
#    0.000    0.000    0.000    0.000    0.000    0.000 
#   42.857    0.000    0.000    0.000    0.000    0.000 
#
# Total GULP energy -234287.490526 kJ/mol
# GULP energy per Si atom -5578.273584 kJ/mol
# Density = 1.730703 g / cm^3
# Si number density = 17.346509 Si / 1000 Ang^3
#
#
#
# Elastic Constant Matrix: (Units=GPa)
#
#
# Indices 1 2 3 4 5 6 
#
# 1 99.9199 26.3068 30.3508 0.0000 0.0000 0.0000
# 2 26.3068 99.9199 30.3508 0.0000 0.0000 0.0000
# 3 30.3508 30.3508 78.6747 0.0000 0.0000 0.0000
# 4 0.0000 0.0000 0.0000 15.7412 0.0000 0.0000
# 5 0.0000 0.0000 0.0000 0.0000 15.7412 0.0000
# 6 0.0000 0.0000 0.0000 0.0000 0.0000 36.8066
#
#
#
# Elastic Compliance Matrix: (Units=1/GPa)
#
#
# Indices 1 2 3 4 5 6 
#
# 1 0.011656 -0.001929 -0.003752 0.000000 0.000000 0.000000
# 2 -0.001929 0.011656 -0.003752 0.000000 0.000000 0.000000
# 3 -0.003752 -0.003752 0.015606 0.000000 0.000000 0.000000
# 4 0.000000 0.000000 0.000000 0.063528 0.000000 0.000000
# 5 0.000000 0.000000 0.000000 0.000000 0.063528 0.000000
# 6 0.000000 0.000000 0.000000 0.000000 0.000000 0.027169
#
#
# Mechanical properties :
#
#
# Convention : Reuss Voigt Hill
#
# Bulk Modulus (GPa) = 49.87581 50.28125 50.07853
# Shear Modulus (GPa) = 22.86323 26.42486 24.64405
#
# Velocity S-wave (km/s) = 3.63441 3.90725 3.77330
# Velocity P-wave (km/s) = 6.81373 7.02885 6.92213
#
# Compressibility (1/GPa) = 0.02004980
#
# Stress axis : x y z
#
# Youngs Moduli (GPa) = 85.79545 85.79545 64.07922
#
# Poissons Ratio (x) = 0.16549 0.24045
# Poissons Ratio (y) = 0.16549 0.24045
# Poissons Ratio (z) = 0.32193 0.32193
#
# Static dielectric constant tensor:
#      x y z
#    x 1.601130 0.000000 0.000000 
#    y 0.000000 1.601130 0.000000 
#    z 0.000000 0.000000 1.638780 
# 
# From -- ./inp_files/5467.got.cif
#   From: 2010.05.17/outbox.cif.g08.bks.cpg/sg179_3_cif.got.tgz:5467.got - 2010.05.20 11:37:33.
