data_PCOD9583590
_publ_section_title
;
Structure prediction by ZEFSAII (Michael W. Deem and Ramdas Pophale) SiO2 
 PCOD9583590
Probable space group: P 65 2 2
;
_chemical_formula_sum "Si O2"
_cell_formula_units_Z 24
_cell_length_a 10.531749
_cell_length_b 10.531749
_cell_length_c 10.793574
_cell_angle_alpha 90.000000
_cell_angle_beta 90.000000
_cell_angle_gamma 120.000000
_cell_volume 1036.804576
_symmetry_space_group_name_H-M "P 65 2 2"
_symmetry_group_IT_number 179
_symmetry_cell_setting 'hexagonal'
loop_
_space_group_symop_operation_xyz
x,y,z
x-y,x,5/6+z
-y,x-y,2/3+z
-x,-y,1/2+z
-x+y,-x,1/3+z
y,-x+y,1/6+z
x-y,-y,-z
-x,-x+y,1/3-z
y,x,2/3-z
-y,-x,1/6-z
-x+y,y,1/2-z
x,x-y,5/6-z
loop_
_atom_site_type_symbol
_atom_site_label
_atom_site_fract_x
_atom_site_fract_y
_atom_site_fract_z
Si Si1 0.447893 0.447893 0.833334
Si Si2 0.255167 0.229055 0.636317
Si Si3 0.540853 0.770427 0.916667
O O1 0.342651 0.377353 0.715146
O O2 0.460256 0.602322 0.870842
O O3 0.117461 0.216258 0.564942
O O4 0.360137 0.223356 0.531825
#
# Coordination Sequence:
#
# PCOD9583590 Si02
#       3
#     6  12   6
#     4  12  28  50  80 120 160 212 266 328 402 480
#     4  12  27  53  80 120 159 213 269 332 407 482
#     4  12  26  52  82 116 162 208 268 332 404 476
#
# _framework density 23.148049
#
# number of rings (size 3 to 8) (size 9 to 14) (size 15 to 20)
#    0.000    0.000    5.000    3.000    0.000    8.000 
#   27.000    0.000    0.000    0.000    0.000    0.000 
#    0.000    0.000    0.000    0.000    0.000    0.000 
#
# Total GULP energy -134593.224637 kJ/mol
# GULP energy per Si atom -5608.051027 kJ/mol
# Density = 2.309536 g / cm^3
# Si number density = 23.148049 Si / 1000 Ang^3
#
#
#
# Elastic Constant Matrix: (Units=GPa)
#
#
# Indices 1 2 3 4 5 6 
#
# 1 155.0021 92.9890 107.9141 0.0000 0.0000 0.0000
# 2 92.9890 155.0021 107.9141 0.0000 0.0000 0.0000
# 3 107.9141 107.9141 206.2264 0.0000 0.0000 0.0000
# 4 0.0000 0.0000 0.0000 68.5076 0.0000 0.0000
# 5 0.0000 0.0000 0.0000 0.0000 68.5076 0.0000
# 6 0.0000 0.0000 0.0000 0.0000 0.0000 31.0065
#
#
#
# Elastic Compliance Matrix: (Units=1/GPa)
#
#
# Indices 1 2 3 4 5 6 
#
# 1 0.011765 -0.004361 -0.003875 0.000000 0.000000 0.000000
# 2 -0.004361 0.011765 -0.003875 0.000000 0.000000 0.000000
# 3 -0.003875 -0.003875 0.008904 0.000000 0.000000 0.000000
# 4 0.000000 0.000000 0.000000 0.014597 0.000000 0.000000
# 5 0.000000 0.000000 0.000000 0.000000 0.014597 0.000000
# 6 0.000000 0.000000 0.000000 0.000000 0.000000 0.032251
#
#
# Mechanical properties :
#
#
# Convention : Reuss Voigt Hill
#
# Bulk Modulus (GPa) = 121.73485 125.98502 123.85993
# Shear Modulus (GPa) = 41.37800 47.43193 44.40497
#
# Velocity S-wave (km/s) = 4.23251 4.53157 4.38459
# Velocity P-wave (km/s) = 8.75154 9.05120 8.90263
#
# Compressibility (1/GPa) = 0.00821457
#
# Stress axis : x y z
#
# Youngs Moduli (GPa) = 84.99734 84.99734 112.30807
#
# Poissons Ratio (x) = 0.37064 0.43515
# Poissons Ratio (y) = 0.37064 0.43515
# Poissons Ratio (z) = 0.32933 0.32933
#
# Static dielectric constant tensor:
#      x y z
#    x 1.865560 0.000000 0.000000 
#    y 0.000000 1.865560 0.000000 
#    z 0.000000 0.000000 1.902830 
# 
# From -- ./inp_files/3841.got.cif
#   From: 2010.05.17/outbox.cif.g08.bks.cpg/sg179_2_cif.got.tgz:3841.got - 2010.05.20 11:37:33.
