data_PCOD9583335
_publ_section_title
;
Structure prediction by ZEFSAII (Michael W. Deem and Ramdas Pophale) SiO2 
 PCOD9583335
Probable space group: P 65 2 2
;
_chemical_formula_sum "Si O2"
_cell_formula_units_Z 72
_cell_length_a 15.932467
_cell_length_b 15.932467
_cell_length_c 16.381093
_cell_angle_alpha 90.000000
_cell_angle_beta 90.000000
_cell_angle_gamma 120.000000
_cell_volume 3601.136329
_symmetry_space_group_name_H-M "P 65 2 2"
_symmetry_group_IT_number 179
_symmetry_cell_setting 'hexagonal'
loop_
_space_group_symop_operation_xyz
x,y,z
x-y,x,5/6+z
-y,x-y,2/3+z
-x,-y,1/2+z
-x+y,-x,1/3+z
y,-x+y,1/6+z
x-y,-y,-z
-x,-x+y,1/3-z
y,x,2/3-z
-y,-x,1/6-z
-x+y,y,1/2-z
x,x-y,5/6-z
loop_
_atom_site_type_symbol
_atom_site_label
_atom_site_fract_x
_atom_site_fract_y
_atom_site_fract_z
Si Si1 0.223272 0.776729 0.083334
Si Si2 0.077016 0.000000 0.000000
Si Si3 0.709534 0.861337 0.281936
Si Si4 0.421625 0.558273 0.400911
Si Si5 0.454680 0.929288 0.881035
Si Si6 0.336960 0.278402 0.632263
Si Si7 0.736328 0.206311 0.176056
O O1 0.162642 0.788741 0.156262
O O2 0.335214 0.818585 0.105802
O O3 0.184538 0.090231 0.012521
O O4 0.017328 0.982673 0.083334
O O5 0.706111 0.804009 0.201312
O O6 0.692755 0.951685 0.270491
O O7 0.460633 0.567829 0.307897
O O8 0.449981 0.486407 0.447001
O O9 0.308189 0.522120 0.391136
O O10 0.369770 0.940532 0.840458
O O11 0.470320 0.850108 0.834007
O O12 0.374462 0.241459 0.557840
O O13 0.774536 0.225465 0.083334
#
# Coordination Sequence:
#
# PCOD9583335 Si02
#       7
#     6   6  12  12  12  12  12
#     4  12  20  38  64 104 140 174 212 272 346 416
#     4  12  24  44  72 100 142 176 222 286 370 414
#     4  12  24  40  70 100 137 171 219 283 350 415
#     4  10  22  38  65  97 132 176 226 266 340 406
#     4  10  21  41  65  94 132 175 222 276 331 410
#     4  12  24  42  64 102 131 173 228 283 342 414
#     4  10  25  46  64  88 136 189 226 278 333 402
#
# _framework density 19.993689
#
# number of rings (size 3 to 8) (size 9 to 14) (size 15 to 20)
#    0.000    1.000    5.833    0.500    4.667    0.000 
#    0.000    1.667    0.000    0.000    0.000    0.000 
#    0.000    0.000    0.000    0.000    0.000    0.000 
#
# Total GULP energy -402238.700268 kJ/mol
# GULP energy per Si atom -5586.648615 kJ/mol
# Density = 1.994818 g / cm^3
# Si number density = 19.993689 Si / 1000 Ang^3
#
#
#
# Elastic Constant Matrix: (Units=GPa)
#
#
# Indices 1 2 3 4 5 6 
#
# 1 98.7401 35.2709 20.6370 0.0000 0.0000 0.0000
# 2 35.2709 98.7401 20.6370 0.0000 0.0000 0.0000
# 3 20.6370 20.6370 70.0680 0.0000 0.0000 0.0000
# 4 0.0000 0.0000 0.0000 20.4538 0.0000 0.0000
# 5 0.0000 0.0000 0.0000 0.0000 20.4538 0.0000
# 6 0.0000 0.0000 0.0000 0.0000 0.0000 31.7346
#
#
#
# Elastic Compliance Matrix: (Units=1/GPa)
#
#
# Indices 1 2 3 4 5 6 
#
# 1 0.011981 -0.003775 -0.002417 0.000000 0.000000 0.000000
# 2 -0.003775 0.011981 -0.002417 0.000000 0.000000 0.000000
# 3 -0.002417 -0.002417 0.015696 0.000000 0.000000 0.000000
# 4 0.000000 0.000000 0.000000 0.048891 0.000000 0.000000
# 5 0.000000 0.000000 0.000000 0.000000 0.048891 0.000000
# 6 0.000000 0.000000 0.000000 0.000000 0.000000 0.031511
#
#
# Mechanical properties :
#
#
# Convention : Reuss Voigt Hill
#
# Bulk Modulus (GPa) = 44.56239 46.73755 45.64997
# Shear Modulus (GPa) = 25.82007 27.26201 26.54104
#
# Velocity S-wave (km/s) = 3.59752 3.69661 3.64740
# Velocity P-wave (km/s) = 6.29228 6.45343 6.37337
#
# Compressibility (1/GPa) = 0.02244045
#
# Stress axis : x y z
#
# Youngs Moduli (GPa) = 83.46490 83.46490 63.71205
#
# Poissons Ratio (x) = 0.31505 0.15399
# Poissons Ratio (y) = 0.31505 0.15399
# Poissons Ratio (z) = 0.20174 0.20174
#
# Static dielectric constant tensor:
#      x y z
#    x 1.709660 0.000000 0.000000 
#    y 0.000000 1.709660 0.000000 
#    z 0.000000 0.000000 1.711180 
# 
# From -- ./inp_files/6872.got.cif
#   From: 2010.05.17/outbox.cif.g08.bks.cpg/sg179_4_cif.got.tgz:6872.got - 2010.05.20 11:37:33.
