data_PCOD9583503
_publ_section_title
;
Structure prediction by ZEFSAII (Michael W. Deem and Ramdas Pophale) SiO2 
 PCOD9583503
Probable space group: P 65 2 2
;
_chemical_formula_sum "Si O2"
_cell_formula_units_Z 66
_cell_length_a 20.660724
_cell_length_b 20.660724
_cell_length_c 7.288391
_cell_angle_alpha 90.000000
_cell_angle_beta 90.000000
_cell_angle_gamma 120.000000
_cell_volume 2694.346008
_symmetry_space_group_name_H-M "P 65 2 2"
_symmetry_group_IT_number 179
_symmetry_cell_setting 'hexagonal'
loop_
_space_group_symop_operation_xyz
x,y,z
x-y,x,5/6+z
-y,x-y,2/3+z
-x,-y,1/2+z
-x+y,-x,1/3+z
y,-x+y,1/6+z
x-y,-y,-z
-x,-x+y,1/3-z
y,x,2/3-z
-y,-x,1/6-z
-x+y,y,1/2-z
x,x-y,5/6-z
loop_
_atom_site_type_symbol
_atom_site_label
_atom_site_fract_x
_atom_site_fract_y
_atom_site_fract_z
Si Si1 0.232466 0.296131 0.048504
Si Si2 0.729042 0.305242 0.804915
Si Si3 0.460452 0.113589 0.148310
Si Si4 0.213420 0.906149 0.341055
Si Si5 0.011562 0.505781 0.916667
Si Si6 0.136083 0.666331 0.753895
O O1 0.292843 0.372974 0.953205
O O2 0.259806 0.236838 0.047020
O O3 0.153607 0.281413 0.979303
O O4 0.226647 0.303162 0.272208
O O5 0.651244 0.302488 0.750000
O O6 0.807711 0.321831 0.709427
O O7 0.693183 0.222778 0.884208
O O8 0.763970 0.381985 0.916667
O O9 0.464536 0.130176 0.367142
O O10 0.482528 0.049694 0.134341
O O11 0.270303 0.875210 0.315184
O O12 0.069513 0.586675 0.827203
#
# Coordination Sequence:
#
# PCOD9583503 Si02
#       6
#    12  12  12  12   6  12
#     4   9  16  27  46  71 102 143 197 231 288 346
#     4  12  24  38  54  78 107 146 197 246 302 367
#     4  11  21  35  55  75 106 149 193 251 306 353
#     4   9  16  27  46  71 101 144 195 236 283 350
#     4  12  22  34  54  80 104 144 204 252 302 366
#     4  11  21  36  53  76 107 144 199 256 298 353
#
# _framework density 24.495740999999999
#
# number of rings (size 3 to 8) (size 9 to 14) (size 15 to 20)
#    0.000    1.455    5.455    2.182    0.000    0.000 
#    0.000    0.000    0.000    0.000    0.000    0.000 
#    0.000    0.000    0.000    0.000  380.000    0.000 
#
# Total GULP energy -368323.982200 kJ/mol
# GULP energy per Si atom -5580.666397 kJ/mol
# Density = 2.443999 g / cm^3
# Si number density = 24.495741 Si / 1000 Ang^3
#
#
#
# Elastic Constant Matrix: (Units=GPa)
#
#
# Indices 1 2 3 4 5 6 
#
# 1 183.3574 110.9021 32.8845 0.0000 0.0000 0.0000
# 2 110.9021 183.3574 32.8845 0.0000 0.0000 0.0000
# 3 32.8845 32.8845 66.9572 0.0000 0.0000 0.0000
# 4 0.0000 0.0000 0.0000 26.3117 0.0000 0.0000
# 5 0.0000 0.0000 0.0000 0.0000 26.3117 0.0000
# 6 0.0000 0.0000 0.0000 0.0000 0.0000 36.2276
#
#
#
# Elastic Compliance Matrix: (Units=1/GPa)
#
#
# Indices 1 2 3 4 5 6 
#
# 1 0.008810 -0.004992 -0.001875 0.000000 0.000000 0.000000
# 2 -0.004992 0.008810 -0.001875 0.000000 0.000000 0.000000
# 3 -0.001875 -0.001875 0.016776 0.000000 0.000000 0.000000
# 4 0.000000 0.000000 0.000000 0.038006 0.000000 0.000000
# 5 0.000000 0.000000 0.000000 0.000000 0.038006 0.000000
# 6 0.000000 0.000000 0.000000 0.000000 0.000000 0.027603
#
#
# Mechanical properties :
#
#
# Convention : Reuss Voigt Hill
#
# Bulk Modulus (GPa) = 59.12979 87.44604 73.28791
# Shear Modulus (GPa) = 31.03056 34.90358 32.96707
#
# Velocity S-wave (km/s) = 3.56304 3.77886 3.67253
# Velocity P-wave (km/s) = 6.41235 7.40376 6.92582
#
# Compressibility (1/GPa) = 0.01691195
#
# Stress axis : x y z
#
# Youngs Moduli (GPa) = 113.51369 113.51369 59.60729
#
# Poissons Ratio (x) = 0.56667 0.11175
# Poissons Ratio (y) = 0.56667 0.11175
# Poissons Ratio (z) = 0.21282 0.21282
#
# Static dielectric constant tensor:
#      x y z
#    x 1.899770 0.000000 0.000000 
#    y 0.000000 1.899770 0.000000 
#    z 0.000000 0.000000 2.231550 
# 
# From -- ./inp_files/3382.got.cif
#   From: 2010.05.17/outbox.cif.g08.bks.cpg/sg179_2_cif.got.tgz:3382.got - 2010.05.20 11:37:33.
