data_PCOD9583613
_publ_section_title
;
Structure prediction by ZEFSAII (Michael W. Deem and Ramdas Pophale) SiO2 
 PCOD9583613
Probable space group: P 62 2 2
;
_chemical_formula_sum "Si O2"
_cell_formula_units_Z 84
_cell_length_a 13.998560
_cell_length_b 13.998560
_cell_length_c 30.313120
_cell_angle_alpha 90.000000
_cell_angle_beta 90.000000
_cell_angle_gamma 120.000000
_cell_volume 5144.320246
_symmetry_space_group_name_H-M "P 62 2 2"
_symmetry_group_IT_number 180
_symmetry_cell_setting 'hexagonal'
loop_
_space_group_symop_operation_xyz
x,y,z
x-y,x,1/3+z
-y,x-y,2/3+z
-x,-y,z
-x+y,-x,1/3+z
y,-x+y,2/3+z
x-y,-y,-z
-x,-x+y,1/3-z
y,x,2/3-z
-y,-x,2/3-z
-x+y,y,-z
x,x-y,1/3-z
loop_
_atom_site_type_symbol
_atom_site_label
_atom_site_fract_x
_atom_site_fract_y
_atom_site_fract_z
Si Si1 0.196121 0.817963 0.240680
Si Si2 0.341979 0.936879 0.666389
Si Si3 0.289832 0.123776 0.483427
Si Si4 0.380176 0.411902 0.765528
Si Si5 0.965971 0.871376 0.549475
Si Si6 0.824047 0.460309 0.970204
Si Si7 0.007455 0.180923 0.967291
O O1 0.202889 0.867861 0.192269
O O2 0.300719 0.810149 0.257370
O O3 0.175747 0.891063 0.276052
O O4 0.084542 0.700934 0.239575
O O5 0.358007 0.914229 0.615948
O O6 0.362063 0.852611 0.696080
O O7 0.439664 0.062232 0.676179
O O8 0.230582 0.940919 0.673800
O O9 0.386584 0.108838 0.462866
O O10 0.218150 0.148647 0.449479
O O11 0.201492 0.000000 0.500000
O O12 0.500000 0.500000 0.781973
O O13 0.915269 0.830538 0.500000
O O14 0.894496 0.828334 0.593710
O O15 0.000000 0.000000 0.549711
O O16 0.720079 0.440157 0.000000
O O17 0.067845 0.135690 0.000000
#
# Coordination Sequence:
#
# PCOD9583613 Si02
#       7
#    12  12  12  12  12  12  12
#     4  10  17  30  47  70  99 134 171 211 249 312
#     4  10  18  29  48  76 101 131 168 215 261 320
#     4  10  20  30  47  69 102 143 175 197 243 326
#     4  11  18  31  47  72 107 133 165 207 264 321
#     4  11  19  34  49  69 102 146 175 196 253 326
#     4  10  16  29  48  72 101 132 167 214 266 309
#     4  11  20  32  51  75 105 136 174 223 259 305
#
# _framework density 16.328689000000001
#
# number of rings (size 3 to 8) (size 9 to 14) (size 15 to 20)
#    0.000    1.571    7.143    1.714    0.000    2.857 
#    0.000    0.000    0.000    0.000    7.429    0.000 
#    0.000    3.429    0.000    0.000    0.000    0.000 
#
# Total GULP energy -467703.206296 kJ/mol
# GULP energy per Si atom -5567.895313 kJ/mol
# Density = 1.629152 g / cm^3
# Si number density = 16.328689 Si / 1000 Ang^3
#
#
#
# Elastic Constant Matrix: (Units=GPa)
#
#
# Indices 1 2 3 4 5 6 
#
# 1 55.7157 23.3448 26.1510 0.0000 0.0000 0.0000
# 2 23.3448 55.7157 26.1510 0.0000 0.0000 0.0000
# 3 26.1510 26.1510 78.3860 0.0000 0.0000 0.0000
# 4 0.0000 0.0000 0.0000 21.4705 0.0000 0.0000
# 5 0.0000 0.0000 0.0000 0.0000 21.4705 0.0000
# 6 0.0000 0.0000 0.0000 0.0000 0.0000 16.1854
#
#
#
# Elastic Compliance Matrix: (Units=1/GPa)
#
#
# Indices 1 2 3 4 5 6 
#
# 1 0.023561 -0.007331 -0.005415 0.000000 0.000000 0.000000
# 2 -0.007331 0.023561 -0.005415 0.000000 0.000000 0.000000
# 3 -0.005415 -0.005415 0.016370 0.000000 0.000000 0.000000
# 4 0.000000 0.000000 0.000000 0.046576 0.000000 0.000000
# 5 0.000000 0.000000 0.000000 0.000000 0.046576 0.000000
# 6 0.000000 0.000000 0.000000 0.000000 0.000000 0.061784
#
#
# Mechanical properties :
#
#
# Convention : Reuss Voigt Hill
#
# Bulk Modulus (GPa) = 36.80212 37.90122 37.35167
# Shear Modulus (GPa) = 18.95329 19.43663 19.19496
#
# Velocity S-wave (km/s) = 3.41065 3.45387 3.43233
# Velocity P-wave (km/s) = 6.17230 6.25839 6.21549
#
# Compressibility (1/GPa) = 0.02717235
#
# Stress axis : x y z
#
# Youngs Moduli (GPa) = 42.44239 42.44239 61.08593
#
# Poissons Ratio (x) = 0.31113 0.33077
# Poissons Ratio (y) = 0.31113 0.33077
# Poissons Ratio (z) = 0.22982 0.22982
#
# Static dielectric constant tensor:
#      x y z
#    x 1.575250 0.000000 0.000000 
#    y 0.000000 1.575250 0.000000 
#    z 0.000000 0.000000 1.616760 
# 
# From -- ./inp_files/12412.got.cif
#   From: 2010.05.17/outbox.cif.g08.bks.cpg/sg180_7_cif.got.tgz:12412.got - 2010.05.20 11:43:55.
