data_PCOD9583356
_publ_section_title
;
Structure prediction by ZEFSAII (Michael W. Deem and Ramdas Pophale) SiO2 
 PCOD9583356
Probable space group: P 65 2 2
;
_chemical_formula_sum "Si O2"
_cell_formula_units_Z 42
_cell_length_a 17.462722
_cell_length_b 17.462722
_cell_length_c 7.098434
_cell_angle_alpha 90.000000
_cell_angle_beta 90.000000
_cell_angle_gamma 120.000000
_cell_volume 1874.636466
_symmetry_space_group_name_H-M "P 65 2 2"
_symmetry_group_IT_number 179
_symmetry_cell_setting 'hexagonal'
loop_
_space_group_symop_operation_xyz
x,y,z
x-y,x,5/6+z
-y,x-y,2/3+z
-x,-y,1/2+z
-x+y,-x,1/3+z
y,-x+y,1/6+z
x-y,-y,-z
-x,-x+y,1/3-z
y,x,2/3-z
-y,-x,1/6-z
-x+y,y,1/2-z
x,x-y,5/6-z
loop_
_atom_site_type_symbol
_atom_site_label
_atom_site_fract_x
_atom_site_fract_y
_atom_site_fract_z
Si Si1 0.500133 0.181194 0.696561
Si Si2 0.831457 0.831457 0.333334
Si Si3 0.339047 0.851014 0.748815
Si Si4 0.010976 0.313516 0.940503
O O1 0.586761 0.173522 0.750000
O O2 0.513944 0.280117 0.714462
O O3 0.487441 0.169169 0.471338
O O4 0.403393 0.104434 0.767841
O O5 0.844376 0.922188 0.416667
O O6 0.776844 0.767321 0.507287
O O7 0.440375 0.880750 0.750000
O O8 0.327731 0.932649 0.799446
O O9 0.000000 0.300570 0.166667
#
# Coordination Sequence:
#
# PCOD9583356 Si02
#       4
#    12   6  12  12
#     4  10  22  37  62  95 137 189 237 292 356 409
#     4  12  28  50  78 114 138 174 232 282 366 440
#     4  10  22  37  60  96 137 185 244 291 350 415
#     4  10  23  47  72 100 140 187 238 293 350 420
#
# _framework density 22.404342
#
# number of rings (size 3 to 8) (size 9 to 14) (size 15 to 20)
#    0.000    1.714    0.000    2.571    8.000    3.429 
#    2.571    0.000    0.000    0.000    0.000    0.000 
#    0.000    0.000    0.000    0.000    0.000    0.000 
#
# Total GULP energy -234275.883222 kJ/mol
# GULP energy per Si atom -5577.997220 kJ/mol
# Density = 2.235335 g / cm^3
# Si number density = 22.404342 Si / 1000 Ang^3
#
#
#
# Elastic Constant Matrix: (Units=GPa)
#
#
# Indices 1 2 3 4 5 6 
#
# 1 164.7864 100.8090 39.2805 0.0000 0.0000 0.0000
# 2 100.8090 164.7864 39.2805 0.0000 0.0000 0.0000
# 3 39.2805 39.2805 108.6034 0.0000 0.0000 0.0000
# 4 0.0000 0.0000 0.0000 -6.1168 0.0000 0.0000
# 5 0.0000 0.0000 0.0000 0.0000 -6.1168 0.0000
# 6 0.0000 0.0000 0.0000 0.0000 0.0000 31.9887
#
#
#
# Elastic Compliance Matrix: (Units=1/GPa)
#
#
# Indices 1 2 3 4 5 6 
#
# 1 0.009923 -0.005707 -0.001525 0.000000 0.000000 0.000000
# 2 -0.005707 0.009923 -0.001525 0.000000 0.000000 0.000000
# 3 -0.001525 -0.001525 0.010311 0.000000 0.000000 0.000000
# 4 0.000000 0.000000 0.000000 -0.163484 0.000000 0.000000
# 5 0.000000 0.000000 0.000000 0.000000 -0.163484 0.000000
# 6 0.000000 0.000000 0.000000 0.000000 0.000000 0.031261
#
#
# Mechanical properties :
#
#
# Convention : Reuss Voigt Hill
#
# Bulk Modulus (GPa) = 79.09187 88.54625 83.81906
# Shear Modulus (GPa) = -20.50690 21.20475 0.34893
#
# Velocity S-wave (km/s) = -3.02869 3.07979 0.39507
# Velocity P-wave (km/s) = 4.81124 7.22873 6.14014
#
# Compressibility (1/GPa) = 0.01264353
#
# Stress axis : x y z
#
# Youngs Moduli (GPa) = 100.77232 100.77232 96.98456
#
# Poissons Ratio (x) = 0.57512 0.14790
# Poissons Ratio (y) = 0.57512 0.14790
# Poissons Ratio (z) = 0.15367 0.15367
#
# Static dielectric constant tensor:
#      x y z
#    x 1.840270 0.000000 0.000000 
#    y 0.000000 1.840270 0.000000 
#    z 0.000000 0.000000 1.578440 
# 
# From -- ./inp_files/2449.got.cif
#   From: 2010.05.17/outbox.cif.g08.bks.cpg/sg179_2_cif.got.tgz:2449.got - 2010.05.20 11:37:33.
