data_PCOD9583383
_publ_section_title
;
Structure prediction by ZEFSAII (Michael W. Deem and Ramdas Pophale) SiO2 
 PCOD9583383
Probable space group: P 65 2 2
;
_chemical_formula_sum "Si O2"
_cell_formula_units_Z 66
_cell_length_a 26.375595
_cell_length_b 26.375595
_cell_length_c 5.488100
_cell_angle_alpha 90.000000
_cell_angle_beta 90.000000
_cell_angle_gamma 120.000000
_cell_volume 3306.413602
_symmetry_space_group_name_H-M "P 65 2 2"
_symmetry_group_IT_number 179
_symmetry_cell_setting 'hexagonal'
loop_
_space_group_symop_operation_xyz
x,y,z
x-y,x,5/6+z
-y,x-y,2/3+z
-x,-y,1/2+z
-x+y,-x,1/3+z
y,-x+y,1/6+z
x-y,-y,-z
-x,-x+y,1/3-z
y,x,2/3-z
-y,-x,1/6-z
-x+y,y,1/2-z
x,x-y,5/6-z
loop_
_atom_site_type_symbol
_atom_site_label
_atom_site_fract_x
_atom_site_fract_y
_atom_site_fract_z
Si Si1 0.352953 0.819285 0.774417
Si Si2 0.129800 0.434787 0.064712
Si Si3 0.308054 0.238514 0.351930
Si Si4 0.935007 0.519806 0.269798
Si Si5 0.930609 0.752180 0.183242
Si Si6 0.237821 0.762180 0.083334
O O1 0.397884 0.795767 0.750000
O O2 0.332793 0.834928 0.525371
O O3 0.388430 0.882102 0.910187
O O4 0.293694 0.777393 0.916974
O O5 0.104198 0.377593 0.228403
O O6 0.076919 0.436340 0.929596
O O7 0.178134 0.434794 0.891039
O O8 0.283078 0.283078 0.333334
O O9 0.278948 0.196160 0.584459
O O10 0.291308 0.209261 0.081964
O O11 0.929311 0.464656 0.416667
O O12 0.000000 0.553874 0.166667
O O13 0.889565 0.779130 0.250000
O O14 0.000000 0.797906 0.166667
#
# Coordination Sequence:
#
# PCOD9583383 Si02
#       6
#    12  12  12  12  12   6
#     4  11  23  44  67  87 123 157 205 262 322 392
#     4  11  25  42  64  91 126 164 210 262 323 391
#     4  10  24  39  63  94 136 174 220 266 323 390
#     4  11  24  38  63  95 126 165 204 252 322 395
#     4  10  22  41  63  96 132 180 224 274 323 385
#     4  10  26  42  66  92 116 160 208 260 332 382
#
# _framework density 19.961205
#
# number of rings (size 3 to 8) (size 9 to 14) (size 15 to 20)
#    0.000    1.455    1.818    1.636    8.909    2.182 
#    0.000    0.000   10.000    0.000    0.000    3.818 
#    0.000    0.000    0.000    0.000    0.000    0.000 
#
# Total GULP energy -368503.869530 kJ/mol
# GULP energy per Si atom -5583.391963 kJ/mol
# Density = 1.991577 g / cm^3
# Si number density = 19.961205 Si / 1000 Ang^3
#
#
#
# Elastic Constant Matrix: (Units=GPa)
#
#
# Indices 1 2 3 4 5 6 
#
# 1 81.9088 45.7738 22.0786 0.0000 0.0000 0.0000
# 2 45.7738 81.9088 22.0786 0.0000 0.0000 0.0000
# 3 22.0786 22.0786 77.5573 0.0000 0.0000 0.0000
# 4 0.0000 0.0000 0.0000 11.6441 0.0000 0.0000
# 5 0.0000 0.0000 0.0000 0.0000 11.6441 0.0000
# 6 0.0000 0.0000 0.0000 0.0000 0.0000 18.0675
#
#
#
# Elastic Compliance Matrix: (Units=1/GPa)
#
#
# Indices 1 2 3 4 5 6 
#
# 1 0.018181 -0.009493 -0.002473 0.000000 0.000000 0.000000
# 2 -0.009493 0.018181 -0.002473 0.000000 0.000000 0.000000
# 3 -0.002473 -0.002473 0.014302 0.000000 0.000000 0.000000
# 4 0.000000 0.000000 0.000000 0.085881 0.000000 0.000000
# 5 0.000000 0.000000 0.000000 0.000000 0.085881 0.000000
# 6 0.000000 0.000000 0.000000 0.000000 0.000000 0.055348
#
#
# Mechanical properties :
#
#
# Convention : Reuss Voigt Hill
#
# Bulk Modulus (GPa) = 45.90528 46.80410 46.35469
# Shear Modulus (GPa) = 15.92800 18.36738 17.14769
#
# Velocity S-wave (km/s) = 2.82786 3.03669 2.93414
# Velocity P-wave (km/s) = 5.80599 5.98279 5.89506
#
# Compressibility (1/GPa) = 0.02178399
#
# Stress axis : x y z
#
# Youngs Moduli (GPa) = 55.00371 55.00371 69.92168
#
# Poissons Ratio (x) = 0.52217 0.17292
# Poissons Ratio (y) = 0.52217 0.17292
# Poissons Ratio (z) = 0.13603 0.13603
#
# Static dielectric constant tensor:
#      x y z
#    x 1.725750 0.000000 0.000000 
#    y 0.000000 1.725750 0.000000 
#    z 0.000000 0.000000 1.799150 
# 
# From -- ./inp_files/1578.got.cif
#   From: 2010.05.17/outbox.cif.g08.bks.cpg/sg179_1_cif.got.tgz:1578.got - 2010.05.20 11:37:33.
