data_PCOD9583640
_publ_section_title
;
Structure prediction by ZEFSAII (Michael W. Deem and Ramdas Pophale) SiO2 
 PCOD9583640
Probable space group: P 62 2 2
;
_chemical_formula_sum "Si O2"
_cell_formula_units_Z 48
_cell_length_a 10.174189
_cell_length_b 10.174189
_cell_length_c 21.145116
_cell_angle_alpha 90.000000
_cell_angle_beta 90.000000
_cell_angle_gamma 120.000000
_cell_volume 1895.572090
_symmetry_space_group_name_H-M "P 62 2 2"
_symmetry_group_IT_number 180
_symmetry_cell_setting 'hexagonal'
loop_
_space_group_symop_operation_xyz
x,y,z
x-y,x,1/3+z
-y,x-y,2/3+z
-x,-y,z
-x+y,-x,1/3+z
y,-x+y,2/3+z
x-y,-y,-z
-x,-x+y,1/3-z
y,x,2/3-z
-y,-x,2/3-z
-x+y,y,-z
x,x-y,1/3-z
loop_
_atom_site_type_symbol
_atom_site_label
_atom_site_fract_x
_atom_site_fract_y
_atom_site_fract_z
Si Si1 0.607989 0.392011 0.833334
Si Si2 0.234518 0.692318 0.726664
Si Si3 0.823366 0.695411 0.137844
Si Si4 0.846981 0.808368 0.406970
Si Si5 0.500000 0.000000 0.746443
O O1 0.718671 0.388803 0.779408
O O2 0.439692 0.304313 0.801724
O O3 0.173453 0.586727 0.666667
O O4 0.122374 0.748800 0.749221
O O5 0.387360 0.849993 0.707788
O O6 0.860562 0.839505 0.092189
O O7 0.861723 0.766668 0.207983
O O8 0.643776 0.598109 0.123486
O O9 0.839144 0.839144 0.333334
#
# Coordination Sequence:
#
# PCOD9583640 Si02
#       5
#     6  12  12  12   6
#     4  10  18  30  46  67 102 148 198 253 316 398
#     4  10  18  27  45  68  96 142 190 242 318 400
#     4   9  17  29  43  64 102 149 191 244 317 397
#     4  10  18  27  42  69 105 144 191 248 317 407
#     4   8  16  30  41  61 100 138 184 250 314 394
#
# _framework density 25.322171000000001
#
# number of rings (size 3 to 8) (size 9 to 14) (size 15 to 20)
#    0.000    2.500    0.000    6.000    0.000    2.500 
#    0.000    0.000    0.000    0.750    0.000    0.000 
#    0.000   81.000    0.000  876.000    0.000   11.750 
#
# Total GULP energy -268077.353769 kJ/mol
# GULP energy per Si atom -5584.944870 kJ/mol
# Density = 2.526454 g / cm^3
# Si number density = 25.322171 Si / 1000 Ang^3
#
#
#
# Elastic Constant Matrix: (Units=GPa)
#
#
# Indices 1 2 3 4 5 6 
#
# 1 100.8939 23.3575 12.3432 0.0000 0.0000 0.0000
# 2 23.3575 100.8939 12.3432 0.0000 0.0000 0.0000
# 3 12.3432 12.3432 102.4062 0.0000 0.0000 0.0000
# 4 0.0000 0.0000 0.0000 27.0213 0.0000 0.0000
# 5 0.0000 0.0000 0.0000 0.0000 27.0213 0.0000
# 6 0.0000 0.0000 0.0000 0.0000 0.0000 38.7682
#
#
#
# Elastic Compliance Matrix: (Units=1/GPa)
#
#
# Indices 1 2 3 4 5 6 
#
# 1 0.010571 -0.002326 -0.000994 0.000000 0.000000 0.000000
# 2 -0.002326 0.010571 -0.000994 0.000000 0.000000 0.000000
# 3 -0.000994 -0.000994 0.010005 0.000000 0.000000 0.000000
# 4 0.000000 0.000000 0.000000 0.037008 0.000000 0.000000
# 5 0.000000 0.000000 0.000000 0.000000 0.037008 0.000000
# 6 0.000000 0.000000 0.000000 0.000000 0.000000 0.025794
#
#
# Mechanical properties :
#
#
# Convention : Reuss Voigt Hill
#
# Bulk Modulus (GPa) = 44.40405 44.47579 44.43992
# Shear Modulus (GPa) = 33.99252 35.63884 34.81568
#
# Velocity S-wave (km/s) = 3.66785 3.75563 3.71200
# Velocity P-wave (km/s) = 5.95913 6.03394 5.99665
#
# Compressibility (1/GPa) = 0.02252047
#
# Stress axis : x y z
#
# Youngs Moduli (GPa) = 94.59472 94.59472 99.95385
#
# Poissons Ratio (x) = 0.22000 0.09934
# Poissons Ratio (y) = 0.22000 0.09934
# Poissons Ratio (z) = 0.09401 0.09401
#
# Static dielectric constant tensor:
#      x y z
#    x 2.122220 0.000000 0.000000 
#    y 0.000000 2.122220 0.000000 
#    z 0.000000 0.000000 1.937300 
# 
# From -- ./inp_files/8757.got.cif
#   From: 2010.05.17/outbox.cif.g08.bks.cpg/sg180_5_cif.got.tgz:8757.got - 2010.05.20 11:43:55.
