data_PCOD9583220
_publ_section_title
;
Structure prediction by ZEFSAII (Michael W. Deem and Ramdas Pophale) SiO2 
 PCOD9583220
Probable space group: P 65 2 2
;
_chemical_formula_sum "Si O2"
_cell_formula_units_Z 84
_cell_length_a 21.582774
_cell_length_b 21.582774
_cell_length_c 11.280039
_cell_angle_alpha 90.000000
_cell_angle_beta 90.000000
_cell_angle_gamma 120.000000
_cell_volume 4550.464799
_symmetry_space_group_name_H-M "P 65 2 2"
_symmetry_group_IT_number 179
_symmetry_cell_setting 'hexagonal'
loop_
_space_group_symop_operation_xyz
x,y,z
x-y,x,5/6+z
-y,x-y,2/3+z
-x,-y,1/2+z
-x+y,-x,1/3+z
y,-x+y,1/6+z
x-y,-y,-z
-x,-x+y,1/3-z
y,x,2/3-z
-y,-x,1/6-z
-x+y,y,1/2-z
x,x-y,5/6-z
loop_
_atom_site_type_symbol
_atom_site_label
_atom_site_fract_x
_atom_site_fract_y
_atom_site_fract_z
Si Si1 0.475640 0.385699 0.609241
Si Si2 0.926626 0.870178 0.439704
Si Si3 0.388161 0.916351 0.244285
Si Si4 0.082134 0.732854 0.516837
Si Si5 0.872420 0.700370 0.051113
Si Si6 0.599710 0.685771 0.342879
Si Si7 0.637500 0.912083 0.112904
O O1 0.558025 0.441976 0.583334
O O2 0.434788 0.431886 0.603183
O O3 0.431577 0.322180 0.516666
O O4 0.457394 0.345890 0.735510
O O5 0.908933 0.899264 0.561457
O O6 0.890254 0.890254 0.333334
O O7 0.885749 0.784176 0.438527
O O8 0.444740 0.889479 0.250000
O O9 0.335457 0.891865 0.131702
O O10 0.339971 0.898667 0.361485
O O11 0.097467 0.784760 0.406116
O O12 0.108637 0.759250 0.649162
O O13 0.996310 0.688281 0.531855
O O14 0.893465 0.660837 0.151002
O O15 0.787712 0.658270 0.038998
O O16 0.642198 0.642198 0.333334
#
# Coordination Sequence:
#
# PCOD9583220 Si02
#       7
#    12  12  12  12  12  12  12
#     4   8  15  27  47  70  98 135 164 201 251 314
#     4  10  22  39  63  82 107 148 201 262 322 377
#     4   9  18  30  45  72 106 140 174 202 260 314
#     4   9  19  33  48  74 110 138 179 225 270 355
#     4  11  20  34  55  80 109 143 187 237 305 356
#     4   9  18  30  47  76 108 136 178 227 267 340
#     4  10  20  32  51  73 109 146 174 224 281 348
#
# _framework density 18.459652999999999
#
# number of rings (size 3 to 8) (size 9 to 14) (size 15 to 20)
#    0.000    2.571    0.000    2.571    2.000    2.857 
#    0.000    0.000   34.571    0.000    0.000    0.000 
#   17.143    0.000    0.000    0.000    0.000    0.000 
#
# Total GULP energy -467765.069770 kJ/mol
# GULP energy per Si atom -5568.631783 kJ/mol
# Density = 1.841764 g / cm^3
# Si number density = 18.459653 Si / 1000 Ang^3
#
#
#
# Elastic Constant Matrix: (Units=GPa)
#
#
# Indices 1 2 3 4 5 6 
#
# 1 51.5505 25.7919 16.4876 0.0000 0.0000 0.0000
# 2 25.7919 51.5505 16.4876 0.0000 0.0000 0.0000
# 3 16.4876 16.4876 69.9293 0.0000 0.0000 0.0000
# 4 0.0000 0.0000 0.0000 18.3360 0.0000 0.0000
# 5 0.0000 0.0000 0.0000 0.0000 18.3360 0.0000
# 6 0.0000 0.0000 0.0000 0.0000 0.0000 12.8793
#
#
#
# Elastic Compliance Matrix: (Units=1/GPa)
#
#
# Indices 1 2 3 4 5 6 
#
# 1 0.026598 -0.012224 -0.003389 0.000000 0.000000 0.000000
# 2 -0.012224 0.026598 -0.003389 0.000000 0.000000 0.000000
# 3 -0.003389 -0.003389 0.015898 0.000000 0.000000 0.000000
# 4 0.000000 0.000000 0.000000 0.054538 0.000000 0.000000
# 5 0.000000 0.000000 0.000000 0.000000 0.054538 0.000000
# 6 0.000000 0.000000 0.000000 0.000000 0.000000 0.077644
#
#
# Mechanical properties :
#
#
# Convention : Reuss Voigt Hill
#
# Bulk Modulus (GPa) = 32.16392 32.28491 32.22442
# Shear Modulus (GPa) = 16.43754 17.52779 16.98266
#
# Velocity S-wave (km/s) = 2.98729 3.08477 3.03642
# Velocity P-wave (km/s) = 5.41851 5.49683 5.45781
#
# Compressibility (1/GPa) = 0.03109074
#
# Stress axis : x y z
#
# Youngs Moduli (GPa) = 37.59645 37.59645 62.89977
#
# Poissons Ratio (x) = 0.45957 0.21318
# Poissons Ratio (y) = 0.45957 0.21318
# Poissons Ratio (z) = 0.12742 0.12742
#
# Static dielectric constant tensor:
#      x y z
#    x 1.642530 0.000000 0.000000 
#    y 0.000000 1.642530 0.000000 
#    z 0.000000 0.000000 1.693240 
# 
# From -- ./inp_files/4955.got.cif
#   From: 2010.05.17/outbox.cif.g08.bks.cpg/sg179_3_cif.got.tgz:4955.got - 2010.05.20 11:37:33.
