data_PCOD9583675
_publ_section_title
;
Structure prediction by ZEFSAII (Michael W. Deem and Ramdas Pophale) SiO2 
 PCOD9583675
Probable space group: P 62 2 2
;
_chemical_formula_sum "Si O2"
_cell_formula_units_Z 72
_cell_length_a 14.929400
_cell_length_b 14.929400
_cell_length_c 18.028079
_cell_angle_alpha 90.000000
_cell_angle_beta 90.000000
_cell_angle_gamma 120.000000
_cell_volume 3479.884202
_symmetry_space_group_name_H-M "P 62 2 2"
_symmetry_group_IT_number 180
_symmetry_cell_setting 'hexagonal'
loop_
_space_group_symop_operation_xyz
x,y,z
x-y,x,1/3+z
-y,x-y,2/3+z
-x,-y,z
-x+y,-x,1/3+z
y,-x+y,2/3+z
x-y,-y,-z
-x,-x+y,1/3-z
y,x,2/3-z
-y,-x,2/3-z
-x+y,y,-z
x,x-y,1/3-z
loop_
_atom_site_type_symbol
_atom_site_label
_atom_site_fract_x
_atom_site_fract_y
_atom_site_fract_z
Si Si1 0.457413 0.211703 0.285549
Si Si2 0.825918 0.744175 0.883237
Si Si3 0.304697 0.018974 0.705303
Si Si4 0.810811 0.570401 0.790442
Si Si5 0.387889 0.413781 0.420946
Si Si6 0.464124 0.804851 0.732936
O O1 0.464687 0.237891 0.373873
O O2 0.445903 0.300207 0.242011
O O3 0.554610 0.198559 0.267248
O O4 0.357340 0.099822 0.275089
O O5 0.837977 0.837977 0.833334
O O6 0.927395 0.748319 0.915683
O O7 0.778867 0.648237 0.826096
O O8 0.751384 0.718289 0.953506
O O9 0.429132 0.086565 0.717692
O O10 0.773875 0.480728 0.851323
O O11 0.936778 0.630426 0.787125
O O12 0.500000 0.500000 0.450853
O O13 0.402933 0.402933 0.333334
O O14 0.462519 0.731260 0.666667
#
# Coordination Sequence:
#
# PCOD9583675 Si02
#       6
#    12  12  12  12  12  12
#     4  11  23  39  68  94 130 178 219 275 340 402
#     4  10  18  37  64  91 123 172 213 269 343 385
#     4  10  20  39  62  97 134 167 223 275 326 403
#     4  10  21  40  64  89 128 173 215 276 340 391
#     4   9  21  41  62  91 125 165 221 270 321 401
#     4  11  23  40  61  97 140 172 223 282 323 402
#
# _framework density 20.690344
#
# number of rings (size 3 to 8) (size 9 to 14) (size 15 to 20)
#    0.000    1.833    5.000    0.500    4.667    3.333 
#    0.000    6.667    0.000    2.000    0.000    0.000 
#    0.000    0.000    0.000    0.000    0.000    0.000 
#
# Total GULP energy -401823.049731 kJ/mol
# GULP energy per Si atom -5580.875691 kJ/mol
# Density = 2.064325 g / cm^3
# Si number density = 20.690344 Si / 1000 Ang^3
#
#
#
# Elastic Constant Matrix: (Units=GPa)
#
#
# Indices 1 2 3 4 5 6 
#
# 1 110.4743 85.8564 40.4013 0.0000 0.0000 0.0000
# 2 85.8564 110.4743 40.4013 0.0000 0.0000 0.0000
# 3 40.4013 40.4013 102.2843 0.0000 0.0000 0.0000
# 4 0.0000 0.0000 0.0000 18.3728 0.0000 0.0000
# 5 0.0000 0.0000 0.0000 0.0000 18.3728 0.0000
# 6 0.0000 0.0000 0.0000 0.0000 0.0000 12.3090
#
#
#
# Elastic Compliance Matrix: (Units=1/GPa)
#
#
# Indices 1 2 3 4 5 6 
#
# 1 0.023351 -0.017269 -0.002402 0.000000 0.000000 0.000000
# 2 -0.017269 0.023351 -0.002402 0.000000 0.000000 0.000000
# 3 -0.002402 -0.002402 0.011675 0.000000 0.000000 0.000000
# 4 0.000000 0.000000 0.000000 0.054428 0.000000 0.000000
# 5 0.000000 0.000000 0.000000 0.000000 0.054428 0.000000
# 6 0.000000 0.000000 0.000000 0.000000 0.000000 0.081242
#
#
# Mechanical properties :
#
#
# Convention : Reuss Voigt Hill
#
# Bulk Modulus (GPa) = 70.27761 72.95011 71.61386
# Shear Modulus (GPa) = 16.81425 20.24918 18.53172
#
# Velocity S-wave (km/s) = 2.85381 3.13178 2.99602
# Velocity P-wave (km/s) = 6.70068 6.95787 6.83049
#
# Compressibility (1/GPa) = 0.01422928
#
# Stress axis : x y z
#
# Youngs Moduli (GPa) = 42.82385 42.82385 85.65653
#
# Poissons Ratio (x) = 0.73954 0.20578
# Poissons Ratio (y) = 0.73954 0.20578
# Poissons Ratio (z) = 0.10288 0.10288
#
# Static dielectric constant tensor:
#      x y z
#    x 1.750840 0.000000 0.000000 
#    y 0.000000 1.750840 0.000000 
#    z 0.000000 0.000000 1.783160 
# 
# From -- ./inp_files/7811.got.cif
#   From: 2010.05.17/outbox.cif.g08.bks.cpg/sg180_4_cif.got.tgz:7811.got - 2010.05.20 11:43:55.
