data_PCOD9583833
_publ_section_title
;
Structure prediction by ZEFSAII (Michael W. Deem and Ramdas Pophale) SiO2 
 PCOD9583833
Probable space group: P 62 2 2
;
_chemical_formula_sum "Si O2"
_cell_formula_units_Z 60
_cell_length_a 15.434676
_cell_length_b 15.434676
_cell_length_c 13.576312
_cell_angle_alpha 90.000000
_cell_angle_beta 90.000000
_cell_angle_gamma 120.000000
_cell_volume 2800.963674
_symmetry_space_group_name_H-M "P 62 2 2"
_symmetry_group_IT_number 180
_symmetry_cell_setting 'hexagonal'
loop_
_space_group_symop_operation_xyz
x,y,z
x-y,x,1/3+z
-y,x-y,2/3+z
-x,-y,z
-x+y,-x,1/3+z
y,-x+y,2/3+z
x-y,-y,-z
-x,-x+y,1/3-z
y,x,2/3-z
-y,-x,2/3-z
-x+y,y,-z
x,x-y,1/3-z
loop_
_atom_site_type_symbol
_atom_site_label
_atom_site_fract_x
_atom_site_fract_y
_atom_site_fract_z
Si Si1 0.860976 0.139025 0.333334
Si Si2 0.810703 0.594513 0.293175
Si Si3 0.793399 0.401124 0.048217
Si Si4 0.852134 0.147867 0.833334
Si Si5 0.748047 0.748047 0.833334
Si Si6 0.697919 0.039407 0.180163
Si Si7 0.500000 0.000000 0.269107
O O1 0.832218 0.054558 0.416118
O O2 0.758267 0.101899 0.275601
O O3 0.769524 0.479110 0.311999
O O4 0.835883 0.646541 0.398113
O O5 0.911064 0.649808 0.222606
O O6 0.727022 0.609370 0.240137
O O7 0.793677 0.396839 0.166667
O O8 0.712179 0.424357 0.000000
O O9 0.903650 0.469401 0.003487
O O10 0.970535 0.223060 0.823029
O O11 0.580288 0.985630 0.204467
#
# Coordination Sequence:
#
# PCOD9583833 Si02
#       7
#     6  12  12   6   6  12   6
#     4  10  20  40  70 103 138 180 236 287 350 436
#     4  11  25  44  74 102 147 193 240 297 369 438
#     4  12  28  44  71 105 149 192 245 311 367 435
#     4  12  22  46  66 107 138 197 236 294 354 438
#     4  10  20  40  69 107 128 190 236 292 348 441
#     4  11  25  43  75 104 145 188 245 292 367 441
#     4  12  25  48  71 110 144 190 245 307 368 444
#
# _framework density 21.421198
#
# number of rings (size 3 to 8) (size 9 to 14) (size 15 to 20)
#    0.000    0.800    4.000    2.100   11.200    1.600 
#    0.000    1.000    0.000   14.400    0.000    0.000 
#    0.000    0.000    0.000    0.000    0.000    0.000 
#
# Total GULP energy -334680.542202 kJ/mol
# GULP energy per Si atom -5578.009037 kJ/mol
# Density = 2.137244 g / cm^3
# Si number density = 21.421198 Si / 1000 Ang^3
#
#
#
# Elastic Constant Matrix: (Units=GPa)
#
#
# Indices 1 2 3 4 5 6 
#
# 1 103.7805 45.2507 19.3040 0.0000 0.0000 0.0000
# 2 45.2507 103.7805 19.3040 0.0000 0.0000 0.0000
# 3 19.3040 19.3040 92.9374 0.0000 0.0000 0.0000
# 4 0.0000 0.0000 0.0000 -46.6146 0.0000 0.0000
# 5 0.0000 0.0000 0.0000 0.0000 -46.6146 0.0000
# 6 0.0000 0.0000 0.0000 0.0000 0.0000 29.2649
#
#
#
# Elastic Compliance Matrix: (Units=1/GPa)
#
#
# Indices 1 2 3 4 5 6 
#
# 1 0.012088 -0.004997 -0.001473 0.000000 0.000000 0.000000
# 2 -0.004997 0.012088 -0.001473 0.000000 0.000000 0.000000
# 3 -0.001473 -0.001473 0.011372 0.000000 0.000000 0.000000
# 4 0.000000 0.000000 0.000000 -0.021453 0.000000 0.000000
# 5 0.000000 0.000000 0.000000 0.000000 -0.021453 0.000000
# 6 0.000000 0.000000 0.000000 0.000000 0.000000 0.034171
#
#
# Mechanical properties :
#
#
# Convention : Reuss Voigt Hill
#
# Bulk Modulus (GPa) = 50.85677 52.02396 51.44036
# Shear Modulus (GPa) = 101.51388 1.64980 51.58184
#
# Velocity S-wave (km/s) = 6.89147 0.87855 4.91244
# Velocity P-wave (km/s) = 9.33359 5.03667 7.49947
#
# Compressibility (1/GPa) = 0.01966307
#
# Stress axis : x y z
#
# Youngs Moduli (GPa) = 82.72358 82.72358 87.93654
#
# Poissons Ratio (x) = 0.41336 0.12953
# Poissons Ratio (y) = 0.41336 0.12953
# Poissons Ratio (z) = 0.12185 0.12185
#
# Static dielectric constant tensor:
#      x y z
#    x 1.842800 0.000000 0.000000 
#    y 0.000000 1.842800 0.000000 
#    z 0.000000 0.000000 2.211670 
# 
# From -- ./inp_files/6192.got.cif
#   From: 2010.05.17/outbox.cif.g08.bks.cpg/sg180_4_cif.got.tgz:6192.got - 2010.05.20 11:43:55.
