data_PCOD9583971
_publ_section_title
;
Structure prediction by ZEFSAII (Michael W. Deem and Ramdas Pophale) SiO2 
 PCOD9583971
Probable space group: P 62 2 2
;
_chemical_formula_sum "Si O2"
_cell_formula_units_Z 54
_cell_length_a 11.014426
_cell_length_b 11.014426
_cell_length_c 24.129934
_cell_angle_alpha 90.000000
_cell_angle_beta 90.000000
_cell_angle_gamma 120.000000
_cell_volume 2535.189951
_symmetry_space_group_name_H-M "P 62 2 2"
_symmetry_group_IT_number 180
_symmetry_cell_setting 'hexagonal'
loop_
_space_group_symop_operation_xyz
x,y,z
x-y,x,1/3+z
-y,x-y,2/3+z
-x,-y,z
-x+y,-x,1/3+z
y,-x+y,2/3+z
x-y,-y,-z
-x,-x+y,1/3-z
y,x,2/3-z
-y,-x,2/3-z
-x+y,y,-z
x,x-y,1/3-z
loop_
_atom_site_type_symbol
_atom_site_label
_atom_site_fract_x
_atom_site_fract_y
_atom_site_fract_z
Si Si1 0.287867 0.986299 0.565973
Si Si2 0.500000 0.000000 0.358399
Si Si3 0.565562 0.909079 0.156481
Si Si4 0.024740 0.810697 0.727144
Si Si5 0.269471 0.941534 0.268169
O O1 0.368953 0.919406 0.598754
O O2 0.356255 0.145613 0.586528
O O3 0.308089 0.000000 0.500000
O O4 0.124196 0.908690 0.583334
O O5 0.370308 0.938235 0.315148
O O6 0.481397 0.740699 0.166667
O O7 0.675589 0.927634 0.109716
O O8 0.500000 0.000000 0.135021
O O9 0.639540 0.986867 0.213407
O O10 0.000000 0.740823 0.666667
O O11 0.161590 0.963929 0.717020
#
# Coordination Sequence:
#
# PCOD9583971 Si02
#       5
#    12   6  12  12  12
#     4  12  25  45  71 104 140 182 242 301 364 418
#     4  12  25  42  64 100 149 184 228 280 366 454
#     4  10  22  43  65  97 137 184 237 289 357 436
#     4  11  23  42  71 103 137 171 241 304 355 421
#     4  11  23  43  70 100 137 184 230 296 361 429
#
# _framework density 21.300180000000001
#
# number of rings (size 3 to 8) (size 9 to 14) (size 15 to 20)
#    0.000    0.889    5.556    1.667    0.000    2.222 
#    4.000    2.222    0.000    0.000    0.000    0.000 
#    0.000    0.000    0.000    0.000    0.000    0.000 
#
# Total GULP energy -300615.503549 kJ/mol
# GULP energy per Si atom -5566.953769 kJ/mol
# Density = 2.125170 g / cm^3
# Si number density = 21.300180 Si / 1000 Ang^3
#
#
#
# Elastic Constant Matrix: (Units=GPa)
#
#
# Indices 1 2 3 4 5 6 
#
# 1 78.9929 51.7320 33.7324 0.0000 0.0000 0.0000
# 2 51.7320 78.9929 33.7324 0.0000 0.0000 0.0000
# 3 33.7324 33.7324 178.8937 0.0000 0.0000 0.0000
# 4 0.0000 0.0000 0.0000 24.4889 0.0000 0.0000
# 5 0.0000 0.0000 0.0000 0.0000 24.4889 0.0000
# 6 0.0000 0.0000 0.0000 0.0000 0.0000 13.6304
#
#
#
# Elastic Compliance Matrix: (Units=1/GPa)
#
#
# Indices 1 2 3 4 5 6 
#
# 1 0.022578 -0.014104 -0.001598 0.000000 0.000000 0.000000
# 2 -0.014104 0.022578 -0.001598 0.000000 0.000000 0.000000
# 3 -0.001598 -0.001598 0.006193 0.000000 0.000000 0.000000
# 4 0.000000 0.000000 0.000000 0.040835 0.000000 0.000000
# 5 0.000000 0.000000 0.000000 0.000000 0.040835 0.000000
# 6 0.000000 0.000000 0.000000 0.000000 0.000000 0.073365
#
#
# Mechanical properties :
#
#
# Convention : Reuss Voigt Hill
#
# Bulk Modulus (GPa) = 59.70347 63.91925 61.81136
# Shear Modulus (GPa) = 20.27844 27.03384 23.65614
#
# Velocity S-wave (km/s) = 3.08885 3.56642 3.33619
# Velocity P-wave (km/s) = 6.38840 6.85807 6.62740
#
# Compressibility (1/GPa) = 0.01674945
#
# Stress axis : x y z
#
# Youngs Moduli (GPa) = 44.29000 44.29000 161.48500
#
# Poissons Ratio (x) = 0.62467 0.25804
# Poissons Ratio (y) = 0.62467 0.25804
# Poissons Ratio (z) = 0.07077 0.07077
#
# Static dielectric constant tensor:
#      x y z
#    x 1.858080 0.000000 0.000000 
#    y 0.000000 1.858080 0.000000 
#    z 0.000000 0.000000 1.771860 
# 
# From -- ./inp_files/8875.got.cif
#   From: 2010.05.17/outbox.cif.g08.bks.cpg/sg180_5_cif.got.tgz:8875.got - 2010.05.20 11:43:55.
