data_PCOD9583065
_publ_section_title
;
Structure prediction by ZEFSAII (Michael W. Deem and Ramdas Pophale) SiO2 
 PCOD9583065
Probable space group: P 61 2 2
;
_chemical_formula_sum "Si O2"
_cell_formula_units_Z 24
_cell_length_a 9.222013
_cell_length_b 9.222013
_cell_length_c 12.657612
_cell_angle_alpha 90.000000
_cell_angle_beta 90.000000
_cell_angle_gamma 120.000000
_cell_volume 932.253174
_symmetry_space_group_name_H-M "P 61 2 2"
_symmetry_group_IT_number 178
_symmetry_cell_setting 'hexagonal'
loop_
_space_group_symop_operation_xyz
x,y,z
x-y,x,1/6+z
-y,x-y,1/3+z
-x,-y,1/2+z
-x+y,-x,2/3+z
y,-x+y,5/6+z
x-y,-y,-z
-x,-x+y,2/3-z
y,x,1/3-z
-y,-x,5/6-z
-x+y,y,1/2-z
x,x-y,1/6-z
loop_
_atom_site_type_symbol
_atom_site_label
_atom_site_fract_x
_atom_site_fract_y
_atom_site_fract_z
Si Si1 0.650753 0.000000 0.500000
Si Si2 0.356496 0.678248 0.583334
Si Si3 0.286801 0.156604 0.370977
O O1 0.651451 0.174944 0.497633
O O2 0.734437 0.004509 0.611576
O O3 0.248330 0.485926 0.547897
O O4 0.219237 0.192734 0.480752
#
# Coordination Sequence:
#
# PCOD9583065 Si02
#       3
#     6   6  12
#     4  12  24  46  76 120 168 226 296 370 436 534
#     4  12  26  48  84 122 168 244 300 372 456 542
#     4  12  26  50  82 125 174 233 300 371 460 550
#
# _framework density 25.744078999999999
#
# number of rings (size 3 to 8) (size 9 to 14) (size 15 to 20)
#    0.000    0.000    5.000    4.500    0.000    0.000 
#    0.000   12.500    0.000    0.000    0.000    0.000 
#    0.000    0.000    0.000    0.000    0.000    0.000 
#
# Total GULP energy -133838.122849 kJ/mol
# GULP energy per Si atom -5576.588452 kJ/mol
# Density = 2.568548 g / cm^3
# Si number density = 25.744079 Si / 1000 Ang^3
#
#
#
# Elastic Constant Matrix: (Units=GPa)
#
#
# Indices 1 2 3 4 5 6 
#
# 1 183.3560 92.5140 80.7504 0.0000 0.0000 0.0000
# 2 92.5140 183.3560 80.7504 0.0000 0.0000 0.0000
# 3 80.7504 80.7504 169.3806 0.0000 0.0000 0.0000
# 4 0.0000 0.0000 0.0000 36.8719 0.0000 0.0000
# 5 0.0000 0.0000 0.0000 0.0000 36.8719 0.0000
# 6 0.0000 0.0000 0.0000 0.0000 0.0000 45.4210
#
#
#
# Elastic Compliance Matrix: (Units=1/GPa)
#
#
# Indices 1 2 3 4 5 6 
#
# 1 0.008018 -0.002990 -0.002397 0.000000 0.000000 0.000000
# 2 -0.002990 0.008018 -0.002397 0.000000 0.000000 0.000000
# 3 -0.002397 -0.002397 0.008190 0.000000 0.000000 0.000000
# 4 0.000000 0.000000 0.000000 0.027121 0.000000 0.000000
# 5 0.000000 0.000000 0.000000 0.000000 0.027121 0.000000
# 6 0.000000 0.000000 0.000000 0.000000 0.000000 0.022016
#
#
# Mechanical properties :
#
#
# Convention : Reuss Voigt Hill
#
# Bulk Modulus (GPa) = 115.50876 116.01358 115.76117
# Shear Modulus (GPa) = 42.03860 42.63814 42.33837
#
# Velocity S-wave (km/s) = 4.04535 4.07410 4.05975
# Velocity P-wave (km/s) = 8.17223 8.20323 8.18775
#
# Compressibility (1/GPa) = 0.00865735
#
# Stress axis : x y z
#
# Youngs Moduli (GPa) = 124.71638 124.71638 122.10736
#
# Poissons Ratio (x) = 0.37289 0.29271
# Poissons Ratio (y) = 0.37289 0.29271
# Poissons Ratio (z) = 0.29897 0.29897
#
# Static dielectric constant tensor:
#      x y z
#    x 2.081280 0.000000 0.000000 
#    y 0.000000 2.081280 0.000000 
#    z 0.000000 0.000000 1.876080 
# 
# From -- ./inp_files/6155.got.cif
#   From: 2010.05.17/outbox.cif.g08.bks.cpg/sg178_4_cif.got.tgz:6155.got - 2010.05.20 11:30:59.
