data_PCOD9583208
_publ_section_title
;
Structure prediction by ZEFSAII (Michael W. Deem and Ramdas Pophale) SiO2 
 PCOD9583208
Probable space group: P 65 2 2
;
_chemical_formula_sum "Si O2"
_cell_formula_units_Z 66
_cell_length_a 14.154355
_cell_length_b 14.154355
_cell_length_c 23.212212
_cell_angle_alpha 90.000000
_cell_angle_beta 90.000000
_cell_angle_gamma 120.000000
_cell_volume 4027.423758
_symmetry_space_group_name_H-M "P 65 2 2"
_symmetry_group_IT_number 179
_symmetry_cell_setting 'hexagonal'
loop_
_space_group_symop_operation_xyz
x,y,z
x-y,x,5/6+z
-y,x-y,2/3+z
-x,-y,1/2+z
-x+y,-x,1/3+z
y,-x+y,1/6+z
x-y,-y,-z
-x,-x+y,1/3-z
y,x,2/3-z
-y,-x,1/6-z
-x+y,y,1/2-z
x,x-y,5/6-z
loop_
_atom_site_type_symbol
_atom_site_label
_atom_site_fract_x
_atom_site_fract_y
_atom_site_fract_z
Si Si1 0.343755 0.119890 0.973862
Si Si2 0.656786 0.343215 0.083334
Si Si3 0.540550 0.099172 0.544229
Si Si4 0.684366 0.121260 0.720953
Si Si5 0.453533 0.018169 0.671061
Si Si6 0.673026 0.445011 0.643018
O O1 0.302323 0.151161 0.916667
O O2 0.460498 0.128272 0.956569
O O3 0.354390 0.208077 0.021379
O O4 0.270985 0.000000 0.000000
O O5 0.549887 0.315499 0.047428
O O6 0.630126 0.251640 0.130477
O O7 0.529656 0.203067 0.526720
O O8 0.479988 0.000000 0.500000
O O9 0.483538 0.058305 0.606145
O O10 0.568563 0.030827 0.694256
O O11 0.668287 0.095058 0.788751
O O12 0.356620 0.896175 0.681947
O O13 0.617395 0.382606 0.583334
#
# Coordination Sequence:
#
# PCOD9583208 Si02
#       6
#    12   6  12  12  12  12
#     4  11  22  37  58  84 118 155 188 237 297 346
#     4  10  20  28  52  74 106 156 188 224 278 332
#     4  11  22  36  53  83 120 155 193 237 280 351
#     4  10  19  37  46  78 116 146 188 240 275 344
#     4  10  21  35  53  78 119 149 192 237 287 340
#     4  12  20  34  55  81 109 161 196 227 289 353
#
# _framework density 16.387647000000001
#
# number of rings (size 3 to 8) (size 9 to 14) (size 15 to 20)
#    0.000    1.455    5.455    3.818    2.545    0.000 
#    3.273    0.000    0.000    0.000    0.000    1.273 
#    0.000    0.000    0.000    0.000    0.000    0.000 
#
# Total GULP energy -367494.197087 kJ/mol
# GULP energy per Si atom -5568.093895 kJ/mol
# Density = 1.635035 g / cm^3
# Si number density = 16.387647 Si / 1000 Ang^3
#
#
#
# Elastic Constant Matrix: (Units=GPa)
#
#
# Indices 1 2 3 4 5 6 
#
# 1 67.6481 29.6925 25.5952 0.0000 0.0000 0.0000
# 2 29.6925 67.6481 25.5952 0.0000 0.0000 0.0000
# 3 25.5952 25.5952 82.7422 0.0000 0.0000 0.0000
# 4 0.0000 0.0000 0.0000 22.6711 0.0000 0.0000
# 5 0.0000 0.0000 0.0000 0.0000 22.6711 0.0000
# 6 0.0000 0.0000 0.0000 0.0000 0.0000 18.9778
#
#
#
# Elastic Compliance Matrix: (Units=1/GPa)
#
#
# Indices 1 2 3 4 5 6 
#
# 1 0.019308 -0.007039 -0.003795 0.000000 0.000000 0.000000
# 2 -0.007039 0.019308 -0.003795 0.000000 0.000000 0.000000
# 3 -0.003795 -0.003795 0.014434 0.000000 0.000000 0.000000
# 4 0.000000 0.000000 0.000000 0.044109 0.000000 0.000000
# 5 0.000000 0.000000 0.000000 0.000000 0.044109 0.000000
# 6 0.000000 0.000000 0.000000 0.000000 0.000000 0.052693
#
#
# Mechanical properties :
#
#
# Convention : Reuss Voigt Hill
#
# Bulk Modulus (GPa) = 42.03299 42.20048 42.11673
# Shear Modulus (GPa) = 21.63100 22.00768 21.81934
#
# Velocity S-wave (km/s) = 3.63706 3.66859 3.65286
# Velocity P-wave (km/s) = 6.58350 6.61454 6.59904
#
# Compressibility (1/GPa) = 0.02379084
#
# Stress axis : x y z
#
# Youngs Moduli (GPa) = 51.79239 51.79239 69.28195
#
# Poissons Ratio (x) = 0.36455 0.26294
# Poissons Ratio (y) = 0.36455 0.26294
# Poissons Ratio (z) = 0.19657 0.19657
#
# Static dielectric constant tensor:
#      x y z
#    x 1.574840 0.000000 0.000000 
#    y 0.000000 1.574840 0.000000 
#    z 0.000000 0.000000 1.609890 
# 
# From -- ./inp_files/8259.got.cif
#   From: 2010.05.17/outbox.cif.g08.bks.cpg/sg179_5_cif.got.tgz:8259.got - 2010.05.20 11:37:33.
