data_PCOD9583875
_publ_section_title
;
Structure prediction by ZEFSAII (Michael W. Deem and Ramdas Pophale) SiO2 
 PCOD9583875
Probable space group: P 62 2 2
;
_chemical_formula_sum "Si O2"
_cell_formula_units_Z 42
_cell_length_a 13.922571
_cell_length_b 13.922571
_cell_length_c 11.664331
_cell_angle_alpha 90.000000
_cell_angle_beta 90.000000
_cell_angle_gamma 120.000000
_cell_volume 1958.075122
_symmetry_space_group_name_H-M "P 62 2 2"
_symmetry_group_IT_number 180
_symmetry_cell_setting 'hexagonal'
loop_
_space_group_symop_operation_xyz
x,y,z
x-y,x,1/3+z
-y,x-y,2/3+z
-x,-y,z
-x+y,-x,1/3+z
y,-x+y,2/3+z
x-y,-y,-z
-x,-x+y,1/3-z
y,x,2/3-z
-y,-x,2/3-z
-x+y,y,-z
x,x-y,1/3-z
loop_
_atom_site_type_symbol
_atom_site_label
_atom_site_fract_x
_atom_site_fract_y
_atom_site_fract_z
Si Si1 0.500000 0.000000 0.682080
Si Si2 0.087402 0.174804 0.500000
Si Si3 0.189687 0.594844 0.166667
Si Si4 0.160592 0.731874 0.446160
Si Si5 0.092756 0.245795 0.253737
O O1 0.581738 0.103355 0.600687
O O2 0.443461 0.056130 0.754462
O O3 0.075548 0.239278 0.389934
O O4 0.141573 0.106276 0.449583
O O5 0.263944 0.541338 0.132789
O O6 0.189599 0.810402 0.333334
O O7 0.143633 0.791969 0.553325
O O8 0.000000 0.241136 0.166667
#
# Coordination Sequence:
#
# PCOD9583875 Si02
#       5
#     6   6   6  12  12
#     4   9  20  38  62  97 132 160 224 274 322 416
#     4  10  23  38  55  92 138 169 204 271 324 384
#     4   9  20  36  65  98 130 165 221 282 326 382
#     4  10  21  37  66  97 122 169 219 276 333 385
#     4  11  22  37  63  93 129 175 221 265 330 394
#
# _framework density 21.449636000000002
#
# number of rings (size 3 to 8) (size 9 to 14) (size 15 to 20)
#    0.000    2.000    0.000    3.000   12.000    2.286 
#    0.000    1.429   18.857    1.714    7.429    0.000 
#    0.000    0.000    0.000    0.000    0.000    0.000 
#
# Total GULP energy -234339.822789 kJ/mol
# GULP energy per Si atom -5579.519590 kJ/mol
# Density = 2.140082 g / cm^3
# Si number density = 21.449636 Si / 1000 Ang^3
#
#
#
# Elastic Constant Matrix: (Units=GPa)
#
#
# Indices 1 2 3 4 5 6 
#
# 1 93.5028 43.4425 36.1146 0.0000 0.0000 0.0000
# 2 43.4425 93.5028 36.1146 0.0000 0.0000 0.0000
# 3 36.1146 36.1146 151.9757 0.0000 0.0000 0.0000
# 4 0.0000 0.0000 0.0000 20.9613 0.0000 0.0000
# 5 0.0000 0.0000 0.0000 0.0000 20.9613 0.0000
# 6 0.0000 0.0000 0.0000 0.0000 0.0000 25.0302
#
#
#
# Elastic Compliance Matrix: (Units=1/GPa)
#
#
# Indices 1 2 3 4 5 6 
#
# 1 0.014162 -0.005814 -0.001984 0.000000 0.000000 0.000000
# 2 -0.005814 0.014162 -0.001984 0.000000 0.000000 0.000000
# 3 -0.001984 -0.001984 0.007523 0.000000 0.000000 0.000000
# 4 0.000000 0.000000 0.000000 0.047707 0.000000 0.000000
# 5 0.000000 0.000000 0.000000 0.000000 0.047707 0.000000
# 6 0.000000 0.000000 0.000000 0.000000 0.000000 0.039952
#
#
# Mechanical properties :
#
#
# Convention : Reuss Voigt Hill
#
# Bulk Modulus (GPa) = 61.40849 63.36941 62.38895
# Shear Modulus (GPa) = 25.48369 28.27788 26.88078
#
# Velocity S-wave (km/s) = 3.45058 3.63483 3.54390
# Velocity P-wave (km/s) = 6.67582 6.87193 6.77459
#
# Compressibility (1/GPa) = 0.01628439
#
# Stress axis : x y z
#
# Youngs Moduli (GPa) = 70.61034 70.61034 132.92776
#
# Poissons Ratio (x) = 0.41051 0.26372
# Poissons Ratio (y) = 0.41051 0.26372
# Poissons Ratio (z) = 0.14008 0.14008
#
# Static dielectric constant tensor:
#      x y z
#    x 1.811140 0.000000 0.000000 
#    y 0.000000 1.811140 0.000000 
#    z 0.000000 0.000000 1.831700 
# 
# From -- ./inp_files/4267.got.cif
#   From: 2010.05.17/outbox.cif.g08.bks.cpg/sg180_3_cif.got.tgz:4267.got - 2010.05.20 11:43:55.
