data_PCOD9583572
_publ_section_title
;
Structure prediction by ZEFSAII (Michael W. Deem and Ramdas Pophale) SiO2 
 PCOD9583572
Probable space group: P 65 2 2
;
_chemical_formula_sum "Si O2"
_cell_formula_units_Z 48
_cell_length_a 14.462349
_cell_length_b 14.462349
_cell_length_c 12.494887
_cell_angle_alpha 90.000000
_cell_angle_beta 90.000000
_cell_angle_gamma 120.000000
_cell_volume 2263.292267
_symmetry_space_group_name_H-M "P 65 2 2"
_symmetry_group_IT_number 179
_symmetry_cell_setting 'hexagonal'
loop_
_space_group_symop_operation_xyz
x,y,z
x-y,x,5/6+z
-y,x-y,2/3+z
-x,-y,1/2+z
-x+y,-x,1/3+z
y,-x+y,1/6+z
x-y,-y,-z
-x,-x+y,1/3-z
y,x,2/3-z
-y,-x,1/6-z
-x+y,y,1/2-z
x,x-y,5/6-z
loop_
_atom_site_type_symbol
_atom_site_label
_atom_site_fract_x
_atom_site_fract_y
_atom_site_fract_z
Si Si1 0.805121 0.408062 0.545368
Si Si2 0.910632 0.821264 0.250000
Si Si3 0.000000 0.405895 0.666667
Si Si4 0.265317 0.305430 0.027593
Si Si5 0.083448 0.730768 0.763645
O O1 0.694918 0.305083 0.583334
O O2 0.809588 0.404794 0.416667
O O3 0.823977 0.523937 0.579066
O O4 0.908329 0.412534 0.600628
O O5 0.891565 0.891565 0.333334
O O6 0.804386 0.749805 0.185178
O O7 0.063281 0.381369 0.574285
O O8 0.336811 0.326695 0.132405
O O9 0.151064 0.292294 0.056660
O O10 0.000000 0.691708 0.666667
#
# Coordination Sequence:
#
# PCOD9583572 Si02
#       5
#    12   6   6  12  12
#     4  12  27  49  77 111 151 198 257 313 384 466
#     4  12  24  42  70 106 136 188 250 306 366 452
#     4  12  24  46  80 104 138 192 252 312 360 448
#     4  12  24  44  75 102 144 193 249 309 377 447
#     4  12  26  47  69 108 155 196 242 314 389 455
#
# _framework density 21.208043
#
# number of rings (size 3 to 8) (size 9 to 14) (size 15 to 20)
#    0.000    0.000    7.500    2.250    1.750    3.000 
#    4.500    0.000    0.000    0.000    0.000    0.000 
#    0.000    0.000    0.000    0.000    0.000    0.000 
#
# Total GULP energy -268159.533953 kJ/mol
# GULP energy per Si atom -5586.656957 kJ/mol
# Density = 2.115977 g / cm^3
# Si number density = 21.208043 Si / 1000 Ang^3
#
#
#
# Elastic Constant Matrix: (Units=GPa)
#
#
# Indices 1 2 3 4 5 6 
#
# 1 97.8335 6.8154 50.8159 0.0000 0.0000 0.0000
# 2 6.8154 97.8335 50.8159 0.0000 0.0000 0.0000
# 3 50.8159 50.8159 171.6563 0.0000 0.0000 0.0000
# 4 0.0000 0.0000 0.0000 36.1266 0.0000 0.0000
# 5 0.0000 0.0000 0.0000 0.0000 36.1266 0.0000
# 6 0.0000 0.0000 0.0000 0.0000 0.0000 45.5090
#
#
#
# Elastic Compliance Matrix: (Units=1/GPa)
#
#
# Indices 1 2 3 4 5 6 
#
# 1 0.012199 0.001212 -0.003970 0.000000 0.000000 0.000000
# 2 0.001212 0.012199 -0.003970 0.000000 0.000000 0.000000
# 3 -0.003970 -0.003970 0.008176 0.000000 0.000000 0.000000
# 4 0.000000 0.000000 0.000000 0.027680 0.000000 0.000000
# 5 0.000000 0.000000 0.000000 0.000000 0.027680 0.000000
# 6 0.000000 0.000000 0.000000 0.000000 0.000000 0.021974
#
#
# Mechanical properties :
#
#
# Convention : Reuss Voigt Hill
#
# Bulk Modulus (GPa) = 52.30585 64.91308 58.60947
# Shear Modulus (GPa) = 38.53912 40.81084 39.67498
#
# Velocity S-wave (km/s) = 4.26748 4.39145 4.32991
# Velocity P-wave (km/s) = 6.99990 7.50915 7.25899
#
# Compressibility (1/GPa) = 0.01911832
#
# Stress axis : x y z
#
# Youngs Moduli (GPa) = 81.97265 81.97265 122.30552
#
# Poissons Ratio (x) = -0.09938 0.48558
# Poissons Ratio (y) = -0.09938 0.48558
# Poissons Ratio (z) = 0.32545 0.32545
#
# Static dielectric constant tensor:
#      x y z
#    x 1.773550 0.000000 0.000000 
#    y 0.000000 1.773550 0.000000 
#    z 0.000000 0.000000 1.794620 
# 
# From -- ./inp_files/4326.got.cif
#   From: 2010.05.17/outbox.cif.g08.bks.cpg/sg179_3_cif.got.tgz:4326.got - 2010.05.20 11:37:33.
