data_PCOD9583965
_publ_section_title
;
Structure prediction by ZEFSAII (Michael W. Deem and Ramdas Pophale) SiO2 
 PCOD9583965
Probable space group: P 62 2 2
;
_chemical_formula_sum "Si O2"
_cell_formula_units_Z 36
_cell_length_a 8.966194
_cell_length_b 8.966194
_cell_length_c 23.472382
_cell_angle_alpha 90.000000
_cell_angle_beta 90.000000
_cell_angle_gamma 120.000000
_cell_volume 1634.195683
_symmetry_space_group_name_H-M "P 62 2 2"
_symmetry_group_IT_number 180
_symmetry_cell_setting 'hexagonal'
loop_
_space_group_symop_operation_xyz
x,y,z
x-y,x,1/3+z
-y,x-y,2/3+z
-x,-y,z
-x+y,-x,1/3+z
y,-x+y,2/3+z
x-y,-y,-z
-x,-x+y,1/3-z
y,x,2/3-z
-y,-x,2/3-z
-x+y,y,-z
x,x-y,1/3-z
loop_
_atom_site_type_symbol
_atom_site_label
_atom_site_fract_x
_atom_site_fract_y
_atom_site_fract_z
Si Si1 0.747232 0.000000 0.500000
Si Si2 0.637591 0.200798 0.711685
Si Si3 0.259695 0.000000 0.000000
Si Si4 0.000000 0.000000 0.088218
Si Si5 0.279586 0.639793 0.166667
O O1 0.713788 0.153469 0.517185
O O2 0.910078 0.086017 0.457282
O O3 0.561480 0.280740 0.666667
O O4 0.656528 0.271191 0.776124
O O5 0.824691 0.254841 0.684448
O O6 0.500000 0.000000 0.713061
O O7 0.134674 0.973953 0.052270
#
# Coordination Sequence:
#
# PCOD9583965 Si02
#       5
#     6  12   6   6   6
#     4  10  22  42  72 108 142 194 242 316 372 460
#     4  12  29  47  77 109 154 200 255 315 386 458
#     4  11  25  44  72 104 150 198 250 310 372 462
#     4  10  22  42  72 106 146 190 252 300 382 444
#     4  11  26  46  74 107 154 194 254 315 390 446
#
# _framework density 22.029184999999998
#
# number of rings (size 3 to 8) (size 9 to 14) (size 15 to 20)
#    0.000    1.000    0.000    4.500   14.000    8.000 
#    0.000    0.000    0.000    0.000    0.000    0.000 
#    0.000    0.000    0.000    0.000    0.000    0.000 
#
# Total GULP energy -200808.722507 kJ/mol
# GULP energy per Si atom -5578.020070 kJ/mol
# Density = 2.197905 g / cm^3
# Si number density = 22.029185 Si / 1000 Ang^3
#
#
#
# Elastic Constant Matrix: (Units=GPa)
#
#
# Indices 1 2 3 4 5 6 
#
# 1 153.3010 83.2721 77.7818 0.0000 0.0000 0.0000
# 2 83.2721 153.3010 77.7818 0.0000 0.0000 0.0000
# 3 77.7818 77.7818 142.6562 0.0000 0.0000 0.0000
# 4 0.0000 0.0000 0.0000 41.4814 0.0000 0.0000
# 5 0.0000 0.0000 0.0000 0.0000 41.4814 0.0000
# 6 0.0000 0.0000 0.0000 0.0000 0.0000 35.0145
#
#
#
# Elastic Compliance Matrix: (Units=1/GPa)
#
#
# Indices 1 2 3 4 5 6 
#
# 1 0.010435 -0.003845 -0.003593 0.000000 0.000000 0.000000
# 2 -0.003845 0.010435 -0.003593 0.000000 0.000000 0.000000
# 3 -0.003593 -0.003593 0.010928 0.000000 0.000000 0.000000
# 4 0.000000 0.000000 0.000000 0.024107 0.000000 0.000000
# 5 0.000000 0.000000 0.000000 0.000000 0.024107 0.000000
# 6 0.000000 0.000000 0.000000 0.000000 0.000000 0.028560
#
#
# Mechanical properties :
#
#
# Convention : Reuss Voigt Hill
#
# Bulk Modulus (GPa) = 102.71770 102.99220 102.85495
# Shear Modulus (GPa) = 37.34734 37.62362 37.48548
#
# Velocity S-wave (km/s) = 4.12194 4.13716 4.12955
# Velocity P-wave (km/s) = 8.32965 8.34719 8.33842
#
# Compressibility (1/GPa) = 0.00973542
#
# Stress axis : x y z
#
# Youngs Moduli (GPa) = 95.83389 95.83389 91.50912
#
# Poissons Ratio (x) = 0.36849 0.32879
# Poissons Ratio (y) = 0.36849 0.32879
# Poissons Ratio (z) = 0.34432 0.34432
#
# Static dielectric constant tensor:
#      x y z
#    x 1.814600 0.000000 0.000000 
#    y 0.000000 1.814600 0.000000 
#    z 0.000000 0.000000 1.920220 
# 
# From -- ./inp_files/10902.got.cif
#   From: 2010.05.17/outbox.cif.g08.bks.cpg/sg180_6_cif.got.tgz:10902.got - 2010.05.20 11:43:55.
