data_PCOD9583607
_publ_section_title
;
Structure prediction by ZEFSAII (Michael W. Deem and Ramdas Pophale) SiO2 
 PCOD9583607
Probable space group: P 62 2 2
;
_chemical_formula_sum "Si O2"
_cell_formula_units_Z 66
_cell_length_a 18.048843
_cell_length_b 18.048843
_cell_length_c 13.083746
_cell_angle_alpha 90.000000
_cell_angle_beta 90.000000
_cell_angle_gamma 120.000000
_cell_volume 3691.148098
_symmetry_space_group_name_H-M "P 62 2 2"
_symmetry_group_IT_number 180
_symmetry_cell_setting 'hexagonal'
loop_
_space_group_symop_operation_xyz
x,y,z
x-y,x,1/3+z
-y,x-y,2/3+z
-x,-y,z
-x+y,-x,1/3+z
y,-x+y,2/3+z
x-y,-y,-z
-x,-x+y,1/3-z
y,x,2/3-z
-y,-x,2/3-z
-x+y,y,-z
x,x-y,1/3-z
loop_
_atom_site_type_symbol
_atom_site_label
_atom_site_fract_x
_atom_site_fract_y
_atom_site_fract_z
Si Si1 0.246691 0.650153 0.550445
Si Si2 0.181867 0.181867 0.333334
Si Si3 0.757556 0.942666 0.397672
Si Si4 0.714039 0.711899 0.527900
Si Si5 0.682827 0.145876 0.866538
Si Si6 0.591244 0.758462 0.422586
O O1 0.332692 0.665383 0.500000
O O2 0.254119 0.627060 0.666667
O O3 0.164970 0.559296 0.515693
O O4 0.234681 0.731515 0.540377
O O5 0.181445 0.096913 0.370323
O O6 0.221001 0.245616 0.431081
O O7 0.662253 0.857789 0.406095
O O8 0.786237 0.000000 0.500000
O O9 0.754880 0.994128 0.299333
O O10 0.680890 0.611491 0.528725
O O11 0.636457 0.726757 0.501884
O O12 0.766851 0.233150 0.833334
O O13 0.702515 0.133453 0.984366
#
# Coordination Sequence:
#
# PCOD9583607 Si02
#       6
#    12   6  12  12  12  12
#     4   9  20  35  56  86 116 151 191 237 291 346
#     4  10  20  36  62  84 106 148 194 238 298 334
#     4  11  23  38  60  86 116 155 196 240 293 361
#     4  11  18  34  60  86 115 150 187 239 296 348
#     4  10  15  31  60  86 113 147 185 239 299 343
#     4  10  20  34  57  86 111 148 195 238 290 348
#
# _framework density 17.880614999999999
#
# number of rings (size 3 to 8) (size 9 to 14) (size 15 to 20)
#    0.000    1.818    5.455    0.545    0.000    3.636 
#    3.273    2.727    0.000   23.455    0.000    0.000 
#    0.000    0.000    0.000    0.000    0.000    0.000 
#
# Total GULP energy -367598.229453 kJ/mol
# GULP energy per Si atom -5569.670143 kJ/mol
# Density = 1.783992 g / cm^3
# Si number density = 17.880615 Si / 1000 Ang^3
#
#
#
# Elastic Constant Matrix: (Units=GPa)
#
#
# Indices 1 2 3 4 5 6 
#
# 1 75.2079 34.6951 37.6633 0.0000 0.0000 0.0000
# 2 34.6951 75.2079 37.6633 0.0000 0.0000 0.0000
# 3 37.6633 37.6633 90.0975 0.0000 0.0000 0.0000
# 4 0.0000 0.0000 0.0000 19.5410 0.0000 0.0000
# 5 0.0000 0.0000 0.0000 0.0000 19.5410 0.0000
# 6 0.0000 0.0000 0.0000 0.0000 0.0000 20.2564
#
#
#
# Elastic Compliance Matrix: (Units=1/GPa)
#
#
# Indices 1 2 3 4 5 6 
#
# 1 0.018718 -0.005965 -0.005331 0.000000 0.000000 0.000000
# 2 -0.005965 0.018718 -0.005331 0.000000 0.000000 0.000000
# 3 -0.005331 -0.005331 0.015556 0.000000 0.000000 0.000000
# 4 0.000000 0.000000 0.000000 0.051174 0.000000 0.000000
# 5 0.000000 0.000000 0.000000 0.000000 0.051174 0.000000
# 6 0.000000 0.000000 0.000000 0.000000 0.000000 0.049367
#
#
# Mechanical properties :
#
#
# Convention : Reuss Voigt Hill
#
# Bulk Modulus (GPa) = 50.66474 51.17294 50.91884
# Shear Modulus (GPa) = 20.44636 20.56713 20.50675
#
# Velocity S-wave (km/s) = 3.38523 3.39521 3.39022
# Velocity P-wave (km/s) = 6.60880 6.63711 6.62297
#
# Compressibility (1/GPa) = 0.01973759
#
# Stress axis : x y z
#
# Youngs Moduli (GPa) = 53.42403 53.42403 64.28337
#
# Poissons Ratio (x) = 0.31870 0.34270
# Poissons Ratio (y) = 0.31870 0.34270
# Poissons Ratio (z) = 0.28480 0.28480
#
# Static dielectric constant tensor:
#      x y z
#    x 1.660750 0.000000 0.000000 
#    y 0.000000 1.660750 0.000000 
#    z 0.000000 0.000000 1.648560 
# 
# From -- ./inp_files/6373.got.cif
#   From: 2010.05.17/outbox.cif.g08.bks.cpg/sg180_4_cif.got.tgz:6373.got - 2010.05.20 11:43:55.
