data_PCOD9583641
_publ_section_title
;
Structure prediction by ZEFSAII (Michael W. Deem and Ramdas Pophale) SiO2 
 PCOD9583641
Probable space group: P 62 2 2
;
_chemical_formula_sum "Si O2"
_cell_formula_units_Z 36
_cell_length_a 8.054784
_cell_length_b 8.054784
_cell_length_c 25.312281
_cell_angle_alpha 90.000000
_cell_angle_beta 90.000000
_cell_angle_gamma 120.000000
_cell_volume 1422.229597
_symmetry_space_group_name_H-M "P 62 2 2"
_symmetry_group_IT_number 180
_symmetry_cell_setting 'hexagonal'
loop_
_space_group_symop_operation_xyz
x,y,z
x-y,x,1/3+z
-y,x-y,2/3+z
-x,-y,z
-x+y,-x,1/3+z
y,-x+y,2/3+z
x-y,-y,-z
-x,-x+y,1/3-z
y,x,2/3-z
-y,-x,2/3-z
-x+y,y,-z
x,x-y,1/3-z
loop_
_atom_site_type_symbol
_atom_site_label
_atom_site_fract_x
_atom_site_fract_y
_atom_site_fract_z
Si Si1 0.985981 0.244687 0.905726
Si Si2 0.898898 0.631407 0.786287
Si Si3 0.298194 0.694962 0.393314
O O1 0.840483 0.327968 0.913981
O O2 0.075711 0.300740 0.846829
O O3 0.169212 0.373640 0.941201
O O4 0.832074 0.020612 0.911142
O O5 0.693438 0.489381 0.761617
O O6 0.000000 0.500000 0.782687
O O7 0.338642 0.661359 0.333334
#
# Coordination Sequence:
#
# PCOD9583641 Si02
#       3
#    12  12  12
#     4   9  17  28  45  71 112 152 186 247 310 381
#     4   9  15  27  47  69 106 153 194 237 304 384
#     4  10  18  27  46  79 115 142 192 256 318 368
#
# _framework density 25.312367999999999
#
# number of rings (size 3 to 8) (size 9 to 14) (size 15 to 20)
#    0.000    2.667    3.333    1.000    0.000    6.000 
#    0.000    0.000    0.000    0.000    0.000   37.333 
#    0.000   32.000    0.000    0.000    0.000    0.000 
#
# Total GULP energy -200802.677510 kJ/mol
# GULP energy per Si atom -5577.852153 kJ/mol
# Density = 2.525476 g / cm^3
# Si number density = 25.312368 Si / 1000 Ang^3
#
#
#
# Elastic Constant Matrix: (Units=GPa)
#
#
# Indices 1 2 3 4 5 6 
#
# 1 121.2945 39.0346 42.5410 0.0000 0.0000 0.0000
# 2 39.0346 121.2945 42.5410 0.0000 0.0000 0.0000
# 3 42.5410 42.5410 102.1684 0.0000 0.0000 0.0000
# 4 0.0000 0.0000 0.0000 185.5158 0.0000 0.0000
# 5 0.0000 0.0000 0.0000 0.0000 185.5158 0.0000
# 6 0.0000 0.0000 0.0000 0.0000 0.0000 41.1299
#
#
#
# Elastic Compliance Matrix: (Units=1/GPa)
#
#
# Indices 1 2 3 4 5 6 
#
# 1 0.010081 -0.002075 -0.003334 0.000000 0.000000 0.000000
# 2 -0.002075 0.010081 -0.003334 0.000000 0.000000 0.000000
# 3 -0.003334 -0.003334 0.012564 0.000000 0.000000 0.000000
# 4 0.000000 0.000000 0.000000 0.005390 0.000000 0.000000
# 5 0.000000 0.000000 0.000000 0.000000 0.005390 0.000000
# 6 0.000000 0.000000 0.000000 0.000000 0.000000 0.024313
#
#
# Mechanical properties :
#
#
# Convention : Reuss Voigt Hill
#
# Bulk Modulus (GPa) = 65.60908 65.88783 65.74845
# Shear Modulus (GPa) = 55.31817 97.14168 76.22993
#
# Velocity S-wave (km/s) = 4.67992 6.20165 5.49373
# Velocity P-wave (km/s) = 7.42821 8.79585 8.14080
#
# Compressibility (1/GPa) = 0.01524179
#
# Stress axis : x y z
#
# Youngs Moduli (GPa) = 99.19239 99.19239 79.59321
#
# Poissons Ratio (x) = 0.20584 0.26534
# Poissons Ratio (y) = 0.20584 0.26534
# Poissons Ratio (z) = 0.33067 0.33067
#
# Static dielectric constant tensor:
#      x y z
#    x 1.861830 0.000000 0.000000 
#    y 0.000000 1.861830 0.000000 
#    z 0.000000 0.000000 2.031920 
# 
# From -- ./inp_files/10771.got.cif
#   From: 2010.05.17/outbox.cif.g08.bks.cpg/sg180_6_cif.got.tgz:10771.got - 2010.05.20 11:43:55.
