data_PCOD9583912
_publ_section_title
;
Structure prediction by ZEFSAII (Michael W. Deem and Ramdas Pophale) SiO2 
 PCOD9583912
Probable space group: P 62 2 2
;
_chemical_formula_sum "Si O2"
_cell_formula_units_Z 75
_cell_length_a 11.327253
_cell_length_b 11.327253
_cell_length_c 27.807465
_cell_angle_alpha 90.000000
_cell_angle_beta 90.000000
_cell_angle_gamma 120.000000
_cell_volume 3089.877291
_symmetry_space_group_name_H-M "P 62 2 2"
_symmetry_group_IT_number 180
_symmetry_cell_setting 'hexagonal'
loop_
_space_group_symop_operation_xyz
x,y,z
x-y,x,1/3+z
-y,x-y,2/3+z
-x,-y,z
-x+y,-x,1/3+z
y,-x+y,2/3+z
x-y,-y,-z
-x,-x+y,1/3-z
y,x,2/3-z
-y,-x,2/3-z
-x+y,y,-z
x,x-y,1/3-z
loop_
_atom_site_type_symbol
_atom_site_label
_atom_site_fract_x
_atom_site_fract_y
_atom_site_fract_z
Si Si1 0.847168 0.276763 0.587583
Si Si2 0.971333 0.116371 0.596081
Si Si3 0.736476 0.088834 0.723370
Si Si4 0.832915 0.832915 0.833334
Si Si5 0.000000 0.500000 0.666667
Si Si6 0.335370 0.724699 0.254814
Si Si7 0.605184 0.802592 0.666667
Si Si8 0.099053 0.386502 0.852394
O O1 0.842625 0.137871 0.604518
O O2 0.711911 0.280711 0.576313
O O3 0.930836 0.322591 0.537184
O O4 0.910943 0.377336 0.631521
O O5 0.100813 0.259572 0.609836
O O6 0.947107 0.079965 0.539827
O O7 0.000000 0.000000 0.616155
O O8 0.679322 0.193973 0.719006
O O9 0.682809 0.958072 0.687363
O O10 0.690520 0.024615 0.777066
O O11 0.818457 0.696237 0.855946
O O12 0.222842 0.727472 0.289069
O O13 0.346519 0.810818 0.207662
#
# Coordination Sequence:
#
# PCOD9583912 Si02
#       8
#    12  12  12   6   3  12   6  12
#     4  11  26  45  71 102 151 201 243 323 391 465
#     4  11  23  46  72 109 148 196 256 316 391 466
#     4  11  24  45  77 109 148 197 260 326 387 486
#     4  10  21  42  75 106 158 195 243 330 400 434
#     4  12  26  48  62 104 154 200 248 304 412 460
#     4  11  24  49  73 110 153 194 267 322 400 478
#     4  10  23  48  75  99 145 198 246 324 398 466
#     4  10  22  43  74 110 141 196 262 312 385 472
#
# _framework density 24.272808000000001
#
# number of rings (size 3 to 8) (size 9 to 14) (size 15 to 20)
#    0.000    1.280    1.600    4.080    4.480    0.000 
#   17.280    6.400    0.000    0.000    0.000    0.000 
#    0.000    0.000    0.000    0.000    0.000    0.000 
#
# Total GULP energy -418661.188844 kJ/mol
# GULP energy per Si atom -5582.149185 kJ/mol
# Density = 2.421756 g / cm^3
# Si number density = 24.272808 Si / 1000 Ang^3
#
#
#
# Elastic Constant Matrix: (Units=GPa)
#
#
# Indices 1 2 3 4 5 6 
#
# 1 -730.4253 862.2668 12.6647 0.0000 0.0000 0.0000
# 2 862.2668 -730.4253 12.6647 0.0000 0.0000 0.0000
# 3 12.6647 12.6647 144.7255 0.0000 0.0000 0.0000
# 4 0.0000 0.0000 0.0000 22.4220 0.0000 0.0000
# 5 0.0000 0.0000 0.0000 0.0000 22.4220 0.0000
# 6 0.0000 0.0000 0.0000 0.0000 0.0000 -796.3460
#
#
#
# Elastic Compliance Matrix: (Units=1/GPa)
#
#
# Indices 1 2 3 4 5 6 
#
# 1 0.003543 0.004171 -0.000675 0.000000 0.000000 0.000000
# 2 0.004171 0.003543 -0.000675 0.000000 0.000000 0.000000
# 3 -0.000675 -0.000675 0.007028 0.000000 0.000000 0.000000
# 4 0.000000 0.000000 0.000000 0.044599 0.000000 0.000000
# 5 0.000000 0.000000 0.000000 0.000000 0.044599 0.000000
# 6 0.000000 0.000000 0.000000 0.000000 0.000000 -0.001256
#
#
# Mechanical properties :
#
#
# Convention : Reuss Voigt Hill
#
# Bulk Modulus (GPa) = 50.61608 51.00744 50.81176
# Shear Modulus (GPa) = 48.54352 -297.21517 -124.33582
#
# Velocity S-wave (km/s) = 4.47689 -11.07762 -7.16488
# Velocity P-wave (km/s) = 6.90085 11.93978 6.88973
#
# Compressibility (1/GPa) = 0.01975657
#
# Stress axis : x y z
#
# Youngs Moduli (GPa) = 282.21887 282.21887 142.29236
#
# Poissons Ratio (x) = -1.17720 0.09606
# Poissons Ratio (y) = -1.17720 0.09606
# Poissons Ratio (z) = 0.19052 0.19052
#
# Static dielectric constant tensor:
#      x y z
#    x 2.012140 0.000000 0.000000 
#    y 0.000000 2.012140 0.000000 
#    z 0.000000 0.000000 1.957020 
# 
# From -- ./inp_files/12406.got.cif
#   From: 2010.05.17/outbox.cif.g08.bks.cpg/sg180_7_cif.got.tgz:12406.got - 2010.05.20 11:43:55.
