data_PCOD9583584
_publ_section_title
;
Structure prediction by ZEFSAII (Michael W. Deem and Ramdas Pophale) SiO2 
 PCOD9583584
Probable space group: P 65 2 2
;
_chemical_formula_sum "Si O2"
_cell_formula_units_Z 42
_cell_length_a 11.570714
_cell_length_b 11.570714
_cell_length_c 15.185673
_cell_angle_alpha 90.000000
_cell_angle_beta 90.000000
_cell_angle_gamma 120.000000
_cell_volume 1760.698497
_symmetry_space_group_name_H-M "P 65 2 2"
_symmetry_group_IT_number 179
_symmetry_cell_setting 'hexagonal'
loop_
_space_group_symop_operation_xyz
x,y,z
x-y,x,5/6+z
-y,x-y,2/3+z
-x,-y,1/2+z
-x+y,-x,1/3+z
y,-x+y,1/6+z
x-y,-y,-z
-x,-x+y,1/3-z
y,x,2/3-z
-y,-x,1/6-z
-x+y,y,1/2-z
x,x-y,5/6-z
loop_
_atom_site_type_symbol
_atom_site_label
_atom_site_fract_x
_atom_site_fract_y
_atom_site_fract_z
Si Si1 0.152277 0.976974 0.207197
Si Si2 0.798114 0.596228 0.250000
Si Si3 0.684428 0.567025 0.626680
Si Si4 0.495888 0.591717 0.761336
O O1 0.141860 0.843946 0.163652
O O2 0.063981 0.932468 0.297043
O O3 0.306161 0.068380 0.231497
O O4 0.648006 0.491381 0.217402
O O5 0.557840 0.442161 0.583334
O O6 0.621002 0.615955 0.702306
O O7 0.792147 0.518824 0.640954
O O8 0.488280 0.488280 0.833334
#
# Coordination Sequence:
#
# PCOD9583584 Si02
#       4
#    12   6  12  12
#     4  12  26  50  82 115 160 219 283 339 416 500
#     4  12  26  46  78 112 162 216 276 346 406 506
#     4  12  25  47  78 115 156 209 271 339 408 486
#     4  12  26  47  75 114 159 210 273 341 415 483
#
# _framework density 23.854168999999999
#
# number of rings (size 3 to 8) (size 9 to 14) (size 15 to 20)
#    0.000    0.000    7.143    3.429    0.000    0.000 
#    5.143    5.714    0.000    0.000    0.000    0.000 
#    0.000    0.000    0.000    0.000    0.000    0.000 
#
# Total GULP energy -234134.607716 kJ/mol
# GULP energy per Si atom -5574.633517 kJ/mol
# Density = 2.379988 g / cm^3
# Si number density = 23.854169 Si / 1000 Ang^3
#
#
#
# Elastic Constant Matrix: (Units=GPa)
#
#
# Indices 1 2 3 4 5 6 
#
# 1 131.0823 74.3157 41.1510 0.0000 0.0000 0.0000
# 2 74.3157 131.0823 41.1510 0.0000 0.0000 0.0000
# 3 41.1510 41.1510 89.3154 0.0000 0.0000 0.0000
# 4 0.0000 0.0000 0.0000 28.3603 0.0000 0.0000
# 5 0.0000 0.0000 0.0000 0.0000 28.3603 0.0000
# 6 0.0000 0.0000 0.0000 0.0000 0.0000 28.3833
#
#
#
# Elastic Compliance Matrix: (Units=1/GPa)
#
#
# Indices 1 2 3 4 5 6 
#
# 1 0.011793 -0.005823 -0.002751 0.000000 0.000000 0.000000
# 2 -0.005823 0.011793 -0.002751 0.000000 0.000000 0.000000
# 3 -0.002751 -0.002751 0.013731 0.000000 0.000000 0.000000
# 4 0.000000 0.000000 0.000000 0.035261 0.000000 0.000000
# 5 0.000000 0.000000 0.000000 0.000000 0.035261 0.000000
# 6 0.000000 0.000000 0.000000 0.000000 0.000000 0.035232
#
#
# Mechanical properties :
#
#
# Convention : Reuss Voigt Hill
#
# Bulk Modulus (GPa) = 68.17094 73.85727 71.01410
# Shear Modulus (GPa) = 29.30659 30.01161 29.65910
#
# Velocity S-wave (km/s) = 3.50890 3.55086 3.52994
# Velocity P-wave (km/s) = 6.71243 6.91670 6.81533
#
# Compressibility (1/GPa) = 0.01466901
#
# Stress axis : x y z
#
# Youngs Moduli (GPa) = 84.79275 84.79275 72.82643
#
# Poissons Ratio (x) = 0.49371 0.20035
# Poissons Ratio (y) = 0.49371 0.20035
# Poissons Ratio (z) = 0.23327 0.23327
#
# Static dielectric constant tensor:
#      x y z
#    x 1.898570 0.000000 0.000000 
#    y 0.000000 1.898570 0.000000 
#    z 0.000000 0.000000 1.964220 
# 
# From -- ./inp_files/6520.got.cif
#   From: 2010.05.17/outbox.cif.g08.bks.cpg/sg179_4_cif.got.tgz:6520.got - 2010.05.20 11:37:33.
