data_PCOD9583300
_publ_section_title
;
Structure prediction by ZEFSAII (Michael W. Deem and Ramdas Pophale) SiO2 
 PCOD9583300
Probable space group: P 65 2 2
;
_chemical_formula_sum "Si O2"
_cell_formula_units_Z 72
_cell_length_a 11.911749
_cell_length_b 11.911749
_cell_length_c 29.578164
_cell_angle_alpha 90.000000
_cell_angle_beta 90.000000
_cell_angle_gamma 120.000000
_cell_volume 3634.568944
_symmetry_space_group_name_H-M "P 65 2 2"
_symmetry_group_IT_number 179
_symmetry_cell_setting 'hexagonal'
loop_
_space_group_symop_operation_xyz
x,y,z
x-y,x,5/6+z
-y,x-y,2/3+z
-x,-y,1/2+z
-x+y,-x,1/3+z
y,-x+y,1/6+z
x-y,-y,-z
-x,-x+y,1/3-z
y,x,2/3-z
-y,-x,1/6-z
-x+y,y,1/2-z
x,x-y,5/6-z
loop_
_atom_site_type_symbol
_atom_site_label
_atom_site_fract_x
_atom_site_fract_y
_atom_site_fract_z
Si Si1 0.975122 0.318577 0.959074
Si Si2 0.611882 0.223763 0.250000
Si Si3 0.408140 0.531587 0.467911
Si Si4 0.412075 0.995987 0.949756
Si Si5 0.812596 0.515316 0.387767
Si Si6 0.131929 0.868072 0.083334
Si Si7 0.927073 0.918954 0.044000
O O1 0.860786 0.349334 0.949059
O O2 0.064782 0.376837 0.914831
O O3 0.946870 0.172598 0.961493
O O4 0.055219 0.399505 0.002974
O O5 0.736531 0.308564 0.281066
O O6 0.489306 0.527479 0.425254
O O7 0.495788 0.640707 0.504871
O O8 0.298018 0.849644 0.944712
O O9 0.350518 0.090753 0.946045
O O10 0.465643 0.000000 0.000000
O O11 0.769892 0.384946 0.416667
O O12 0.002909 0.840421 0.055551
O O13 0.974110 0.025891 0.083334
O O14 0.991261 0.000000 0.000000
#
# Coordination Sequence:
#
# PCOD9583300 Si02
#       7
#    12   6  12  12  12   6  12
#     4  11  24  44  72  98 138 187 232 288 350 419
#     4  12  25  46  72 102 135 178 242 278 344 430
#     4  11  26  42  69 104 135 187 232 290 341 423
#     4  12  23  41  64 102 142 174 225 290 351 401
#     4  10  21  41  67 102 130 177 229 277 341 409
#     4  10  21  34  70  98 135 178 216 298 342 404
#     4  10  23  41  67 103 135 177 228 290 349 422
#
# _framework density 19.809774999999998
#
# number of rings (size 3 to 8) (size 9 to 14) (size 15 to 20)
#    0.500    0.667    4.167    3.000    7.000    1.333 
#    0.000    2.500    0.000    0.000    0.000    0.000 
#    0.000    0.000    0.000    0.000    0.000    0.000 
#
# Total GULP energy -401846.091403 kJ/mol
# GULP energy per Si atom -5581.195714 kJ/mol
# Density = 1.976469 g / cm^3
# Si number density = 19.809775 Si / 1000 Ang^3
#
#
#
# Elastic Constant Matrix: (Units=GPa)
#
#
# Indices 1 2 3 4 5 6 
#
# 1 -42.3780 98.3127 28.2081 0.0000 0.0000 0.0000
# 2 98.3127 -42.3780 28.2081 0.0000 0.0000 0.0000
# 3 28.2081 28.2081 141.1323 0.0000 0.0000 0.0000
# 4 0.0000 0.0000 0.0000 21.0314 0.0000 0.0000
# 5 0.0000 0.0000 0.0000 0.0000 21.0314 0.0000
# 6 0.0000 0.0000 0.0000 0.0000 0.0000 -70.3453
#
#
#
# Elastic Compliance Matrix: (Units=1/GPa)
#
#
# Indices 1 2 3 4 5 6 
#
# 1 0.007642 0.014750 -0.004475 0.000000 0.000000 0.000000
# 2 0.014750 0.007642 -0.004475 0.000000 0.000000 0.000000
# 3 -0.004475 -0.004475 0.008875 0.000000 0.000000 0.000000
# 4 0.000000 0.000000 0.000000 0.047548 0.000000 0.000000
# 5 0.000000 0.000000 0.000000 0.000000 0.047548 0.000000
# 6 0.000000 0.000000 0.000000 0.000000 0.000000 -0.014216
#
#
# Mechanical properties :
#
#
# Convention : Reuss Voigt Hill
#
# Bulk Modulus (GPa) = 27.96684 40.64824 34.30754
# Shear Modulus (GPa) = 47.45632 -12.21334 17.62149
#
# Velocity S-wave (km/s) = 4.89980 -2.48570 2.98574
# Velocity P-wave (km/s) = 6.79404 3.51078 5.40762
#
# Compressibility (1/GPa) = 0.03575663
#
# Stress axis : x y z
#
# Youngs Moduli (GPa) = 130.85389 130.85389 112.68128
#
# Poissons Ratio (x) = -1.93008 0.50430
# Poissons Ratio (y) = -1.93008 0.50430
# Poissons Ratio (z) = 0.58564 0.58564
#
# Static dielectric constant tensor:
#      x y z
#    x 1.714250 0.000000 0.000000 
#    y 0.000000 1.714250 0.000000 
#    z 0.000000 0.000000 1.689520 
# 
# From -- ./inp_files/9589.got.cif
#   From: 2010.05.17/outbox.cif.g08.bks.cpg/sg179_5_cif.got.tgz:9589.got - 2010.05.20 11:37:33.
