data_PCOD9583389
_publ_section_title
;
Structure prediction by ZEFSAII (Michael W. Deem and Ramdas Pophale) SiO2 
 PCOD9583389
Probable space group: P 65 2 2
;
_chemical_formula_sum "Si O2"
_cell_formula_units_Z 84
_cell_length_a 16.966873
_cell_length_b 16.966873
_cell_length_c 15.517749
_cell_angle_alpha 90.000000
_cell_angle_beta 90.000000
_cell_angle_gamma 120.000000
_cell_volume 3868.681465
_symmetry_space_group_name_H-M "P 65 2 2"
_symmetry_group_IT_number 179
_symmetry_cell_setting 'hexagonal'
loop_
_space_group_symop_operation_xyz
x,y,z
x-y,x,5/6+z
-y,x-y,2/3+z
-x,-y,1/2+z
-x+y,-x,1/3+z
y,-x+y,1/6+z
x-y,-y,-z
-x,-x+y,1/3-z
y,x,2/3-z
-y,-x,1/6-z
-x+y,y,1/2-z
x,x-y,5/6-z
loop_
_atom_site_type_symbol
_atom_site_label
_atom_site_fract_x
_atom_site_fract_y
_atom_site_fract_z
Si Si1 0.479469 0.014926 0.335326
Si Si2 0.817465 0.646803 0.645849
Si Si3 0.170724 0.540723 0.810572
Si Si4 0.813595 0.178288 0.487441
Si Si5 0.742144 0.455715 0.958282
Si Si6 0.959042 0.690670 0.497086
Si Si7 0.500210 0.130472 0.046823
O O1 0.534838 0.069675 0.250000
O O2 0.527542 0.064155 0.423211
O O3 0.501021 0.933564 0.332773
O O4 0.372706 0.978916 0.334495
O O5 0.817945 0.635890 0.750000
O O6 0.759021 0.544877 0.603504
O O7 0.910920 0.690013 0.588690
O O8 0.771590 0.711029 0.639025
O O9 0.193109 0.463262 0.835122
O O10 0.217929 0.645457 0.835543
O O11 0.176662 0.550667 0.707022
O O12 0.839308 0.160693 0.583334
O O13 0.886119 0.205765 0.410244
O O14 0.708247 0.102527 0.467797
O O15 0.726867 0.363434 0.916667
O O16 0.807250 0.476896 0.037874
#
# Coordination Sequence:
#
# PCOD9583389 Si02
#       7
#    12  12  12  12  12  12  12
#     4  12  23  39  64  94 136 186 234 285 337 408
#     4  12  28  47  70 100 137 183 233 296 362 431
#     4  11  24  39  60  86 133 187 237 285 338 393
#     4  10  22  42  65  98 136 184 236 285 344 410
#     4  12  25  39  59  93 131 181 238 296 335 401
#     4  12  25  47  71 102 140 182 236 293 360 427
#     4  11  23  39  58  90 125 180 233 278 343 399
#
# _framework density 21.712823
#
# number of rings (size 3 to 8) (size 9 to 14) (size 15 to 20)
#    0.000    0.571    4.286    4.286    4.000    2.286 
#    0.000    0.714    0.000    0.000    0.000    5.000 
#    0.000    0.000    0.000    0.000    0.000    0.000 
#
# Total GULP energy -468179.583290 kJ/mol
# GULP energy per Si atom -5573.566468 kJ/mol
# Density = 2.166340 g / cm^3
# Si number density = 21.712823 Si / 1000 Ang^3
#
#
#
# Elastic Constant Matrix: (Units=GPa)
#
#
# Indices 1 2 3 4 5 6 
#
# 1 66.7510 36.3899 27.9605 0.0000 0.0000 0.0000
# 2 36.3899 66.7510 27.9605 0.0000 0.0000 0.0000
# 3 27.9605 27.9605 131.4189 0.0000 0.0000 0.0000
# 4 0.0000 0.0000 0.0000 26.0774 0.0000 0.0000
# 5 0.0000 0.0000 0.0000 0.0000 26.0774 0.0000
# 6 0.0000 0.0000 0.0000 0.0000 0.0000 15.1805
#
#
#
# Elastic Compliance Matrix: (Units=1/GPa)
#
#
# Indices 1 2 3 4 5 6 
#
# 1 0.021948 -0.010989 -0.002332 0.000000 0.000000 0.000000
# 2 -0.010989 0.021948 -0.002332 0.000000 0.000000 0.000000
# 3 -0.002332 -0.002332 0.008601 0.000000 0.000000 0.000000
# 4 0.000000 0.000000 0.000000 0.038347 0.000000 0.000000
# 5 0.000000 0.000000 0.000000 0.000000 0.038347 0.000000
# 6 0.000000 0.000000 0.000000 0.000000 0.000000 0.065874
#
#
# Mechanical properties :
#
#
# Convention : Reuss Voigt Hill
#
# Bulk Modulus (GPa) = 47.18360 49.94919 48.56640
# Shear Modulus (GPa) = 21.41919 24.97441 23.19680
#
# Velocity S-wave (km/s) = 3.14423 3.39516 3.27210
# Velocity P-wave (km/s) = 5.91266 6.19870 6.05737
#
# Compressibility (1/GPa) = 0.02119380
#
# Stress axis : x y z
#
# Youngs Moduli (GPa) = 45.56160 45.56160 116.25928
#
# Poissons Ratio (x) = 0.50066 0.27109
# Poissons Ratio (y) = 0.50066 0.27109
# Poissons Ratio (z) = 0.10624 0.10624
#
# Static dielectric constant tensor:
#      x y z
#    x 1.909480 0.000000 0.000000 
#    y 0.000000 1.909480 0.000000 
#    z 0.000000 0.000000 2.051600 
# 
# From -- ./inp_files/6110.got.cif
#   From: 2010.05.17/outbox.cif.g08.bks.cpg/sg179_4_cif.got.tgz:6110.got - 2010.05.20 11:37:33.
