data_PCOD9583365
_publ_section_title
;
Structure prediction by ZEFSAII (Michael W. Deem and Ramdas Pophale) SiO2 
 PCOD9583365
Probable space group: P 65 2 2
;
_chemical_formula_sum "Si O2"
_cell_formula_units_Z 48
_cell_length_a 17.797276
_cell_length_b 17.797276
_cell_length_c 7.305254
_cell_angle_alpha 90.000000
_cell_angle_beta 90.000000
_cell_angle_gamma 120.000000
_cell_volume 2003.886057
_symmetry_space_group_name_H-M "P 65 2 2"
_symmetry_group_IT_number 179
_symmetry_cell_setting 'hexagonal'
loop_
_space_group_symop_operation_xyz
x,y,z
x-y,x,5/6+z
-y,x-y,2/3+z
-x,-y,1/2+z
-x+y,-x,1/3+z
y,-x+y,1/6+z
x-y,-y,-z
-x,-x+y,1/3-z
y,x,2/3-z
-y,-x,1/6-z
-x+y,y,1/2-z
x,x-y,5/6-z
loop_
_atom_site_type_symbol
_atom_site_label
_atom_site_fract_x
_atom_site_fract_y
_atom_site_fract_z
Si Si1 0.615297 0.096625 0.966150
Si Si2 0.292034 0.707967 0.583334
Si Si3 0.657496 0.828748 0.416667
Si Si4 0.040133 0.858272 0.859905
Si Si5 0.907467 0.555490 0.204361
O O1 0.637500 0.108212 0.750144
O O2 0.525291 0.088552 0.041333
O O3 0.676022 0.191672 0.043495
O O4 0.600705 0.000000 0.000000
O O5 0.299961 0.649981 0.416667
O O6 0.724855 0.907933 0.290169
O O7 0.589975 0.744450 0.303488
O O8 0.000000 0.813574 0.666667
O O9 0.109957 0.958954 0.811271
O O10 0.000000 0.636814 0.166667
#
# Coordination Sequence:
#
# PCOD9583365 Si02
#       5
#    12   6   6  12  12
#     4  10  25  46  74 110 147 200 252 313 391 462
#     4  12  28  48  82 120 165 203 274 332 392 490
#     4  12  24  38  66  98 139 189 242 312 386 446
#     4  10  22  39  61  91 130 181 244 308 374 455
#     4  10  23  42  68  99 140 189 248 305 381 462
#
# _framework density 23.953458999999999
#
# number of rings (size 3 to 8) (size 9 to 14) (size 15 to 20)
#    0.000    1.500    0.000    3.750   12.250    7.000 
#    0.000    2.500    0.000    0.000    0.000    0.000 
#    0.000    0.000    0.000    0.000    0.000    0.000 
#
# Total GULP energy -267267.869924 kJ/mol
# GULP energy per Si atom -5568.080623 kJ/mol
# Density = 2.389894 g / cm^3
# Si number density = 23.953459 Si / 1000 Ang^3
#
#
#
# Elastic Constant Matrix: (Units=GPa)
#
#
# Indices 1 2 3 4 5 6 
#
# 1 85.4107 91.3280 31.4213 0.0000 0.0000 0.0000
# 2 91.3280 85.4107 31.4213 0.0000 0.0000 0.0000
# 3 31.4213 31.4213 111.1255 0.0000 0.0000 0.0000
# 4 0.0000 0.0000 0.0000 44.7211 0.0000 0.0000
# 5 0.0000 0.0000 0.0000 0.0000 44.7211 0.0000
# 6 0.0000 0.0000 0.0000 0.0000 0.0000 -2.9587
#
#
#
# Elastic Compliance Matrix: (Units=1/GPa)
#
#
# Indices 1 2 3 4 5 6 
#
# 1 -0.081353 0.087643 -0.001779 0.000000 0.000000 0.000000
# 2 0.087643 -0.081353 -0.001779 0.000000 0.000000 0.000000
# 3 -0.001779 -0.001779 0.010005 0.000000 0.000000 0.000000
# 4 0.000000 0.000000 0.000000 0.022361 0.000000 0.000000
# 5 0.000000 0.000000 0.000000 0.000000 0.022361 0.000000
# 6 0.000000 0.000000 0.000000 0.000000 0.000000 -0.337992
#
#
# Mechanical properties :
#
#
# Convention : Reuss Voigt Hill
#
# Bulk Modulus (GPa) = 64.63696 65.58754 65.11225
# Shear Modulus (GPa) = -8.21038 25.81513 8.80237
#
# Velocity S-wave (km/s) = -1.85340 3.28643 1.91905
# Velocity P-wave (km/s) = 4.73950 6.46850 5.67029
#
# Compressibility (1/GPa) = 0.01547102
#
# Stress axis : x y z
#
# Youngs Moduli (GPa) = -12.29217 -12.29217 99.95305
#
# Poissons Ratio (x) = 1.07732 0.17778
# Poissons Ratio (y) = 1.07732 0.17778
# Poissons Ratio (z) = -0.02186 -0.02186
#
# Static dielectric constant tensor:
#      x y z
#    x 1.699080 0.000000 0.000000 
#    y 0.000000 1.699080 0.000000 
#    z 0.000000 0.000000 2.007370 
# 
# From -- ./inp_files/2885.got.cif
#   From: 2010.05.17/outbox.cif.g08.bks.cpg/sg179_2_cif.got.tgz:2885.got - 2010.05.20 11:37:33.
