data_PCOD9583302
_publ_section_title
;
Structure prediction by ZEFSAII (Michael W. Deem and Ramdas Pophale) SiO2 
 PCOD9583302
Probable space group: P 65 2 2
;
_chemical_formula_sum "Si O2"
_cell_formula_units_Z 66
_cell_length_a 18.527670
_cell_length_b 18.527670
_cell_length_c 14.198250
_cell_angle_alpha 90.000000
_cell_angle_beta 90.000000
_cell_angle_gamma 120.000000
_cell_volume 4220.919448
_symmetry_space_group_name_H-M "P 65 2 2"
_symmetry_group_IT_number 179
_symmetry_cell_setting 'hexagonal'
loop_
_space_group_symop_operation_xyz
x,y,z
x-y,x,5/6+z
-y,x-y,2/3+z
-x,-y,1/2+z
-x+y,-x,1/3+z
y,-x+y,1/6+z
x-y,-y,-z
-x,-x+y,1/3-z
y,x,2/3-z
-y,-x,1/6-z
-x+y,y,1/2-z
x,x-y,5/6-z
loop_
_atom_site_type_symbol
_atom_site_label
_atom_site_fract_x
_atom_site_fract_y
_atom_site_fract_z
Si Si1 0.777227 0.222774 0.083334
Si Si2 0.721074 0.444770 0.940349
Si Si3 0.580877 0.632957 0.928195
Si Si4 0.350115 0.531882 0.727565
Si Si5 0.387447 0.507042 0.936186
Si Si6 0.397776 0.432564 0.609387
O O1 0.753626 0.255048 0.178251
O O2 0.728091 0.123290 0.084967
O O3 0.713725 0.356863 0.916667
O O4 0.626657 0.419317 0.968435
O O5 0.796238 0.482019 0.015790
O O6 0.594716 0.594716 0.833334
O O7 0.481597 0.584141 0.955107
O O8 0.628532 0.618993 0.013751
O O9 0.265655 0.531310 0.750000
O O10 0.379388 0.509230 0.824448
O O11 0.338215 0.462325 0.653298
O O12 0.387993 0.427999 0.981671
O O13 0.481402 0.518598 0.583334
#
# Coordination Sequence:
#
# PCOD9583302 Si02
#       6
#     6  12  12  12  12  12
#     4  12  20  34  50  74  92 130 174 206 258 304
#     4  11  19  31  47  70  97 125 166 221 265 298
#     4  11  22  36  54  70  96 131 174 211 256 321
#     4  11  24  31  50  74  99 126 171 225 273 308
#     4  11  19  35  48  67  97 133 164 214 274 312
#     4  10  21  36  50  66  94 133 166 212 269 320
#
# _framework density 15.636404000000001
#
# number of rings (size 3 to 8) (size 9 to 14) (size 15 to 20)
#    0.000    1.091    5.455    3.273    2.545    1.455 
#    0.000    0.000    0.000    0.000    0.000    0.000 
#    0.000    0.000    0.000    0.000    3.455    0.000 
#
# Total GULP energy -368273.764150 kJ/mol
# GULP energy per Si atom -5579.905517 kJ/mol
# Density = 1.560081 g / cm^3
# Si number density = 15.636404 Si / 1000 Ang^3
#
#
#
# Elastic Constant Matrix: (Units=GPa)
#
#
# Indices 1 2 3 4 5 6 
#
# 1 61.1507 34.5887 36.3434 0.0000 0.0000 0.0000
# 2 34.5887 61.1507 36.3434 0.0000 0.0000 0.0000
# 3 36.3434 36.3434 74.2946 0.0000 0.0000 0.0000
# 4 0.0000 0.0000 0.0000 24.7677 0.0000 0.0000
# 5 0.0000 0.0000 0.0000 0.0000 24.7677 0.0000
# 6 0.0000 0.0000 0.0000 0.0000 0.0000 13.2810
#
#
#
# Elastic Compliance Matrix: (Units=1/GPa)
#
#
# Indices 1 2 3 4 5 6 
#
# 1 0.027132 -0.010516 -0.008128 0.000000 0.000000 0.000000
# 2 -0.010516 0.027132 -0.008128 0.000000 0.000000 0.000000
# 3 -0.008128 -0.008128 0.021412 0.000000 0.000000 0.000000
# 4 0.000000 0.000000 0.000000 0.040375 0.000000 0.000000
# 5 0.000000 0.000000 0.000000 0.000000 0.040375 0.000000
# 6 0.000000 0.000000 0.000000 0.000000 0.000000 0.075296
#
#
# Mechanical properties :
#
#
# Convention : Reuss Voigt Hill
#
# Bulk Modulus (GPa) = 45.18453 45.68300 45.43377
# Shear Modulus (GPa) = 17.08561 18.51799 17.80180
#
# Velocity S-wave (km/s) = 3.30916 3.44508 3.37780
# Velocity P-wave (km/s) = 6.60003 6.71595 6.65824
#
# Compressibility (1/GPa) = 0.02213147
#
# Stress axis : x y z
#
# Youngs Moduli (GPa) = 36.85689 36.85689 46.70206
#
# Poissons Ratio (x) = 0.38758 0.37961
# Poissons Ratio (y) = 0.38758 0.37961
# Poissons Ratio (z) = 0.29958 0.29958
#
# Static dielectric constant tensor:
#      x y z
#    x 1.533480 0.000000 0.000000 
#    y 0.000000 1.533480 0.000000 
#    z 0.000000 0.000000 1.593920 
# 
# From -- ./inp_files/6003.got.cif
#   From: 2010.05.17/outbox.cif.g08.bks.cpg/sg179_4_cif.got.tgz:6003.got - 2010.05.20 11:37:33.
