data_PCOD9583159
_publ_section_title
;
Structure prediction by ZEFSAII (Michael W. Deem and Ramdas Pophale) SiO2 
 PCOD9583159
Probable space group: P 65 2 2
;
_chemical_formula_sum "Si O2"
_cell_formula_units_Z 66
_cell_length_a 21.538074
_cell_length_b 21.538074
_cell_length_c 8.192132
_cell_angle_alpha 90.000000
_cell_angle_beta 90.000000
_cell_angle_gamma 120.000000
_cell_volume 3291.101699
_symmetry_space_group_name_H-M "P 65 2 2"
_symmetry_group_IT_number 179
_symmetry_cell_setting 'hexagonal'
loop_
_space_group_symop_operation_xyz
x,y,z
x-y,x,5/6+z
-y,x-y,2/3+z
-x,-y,1/2+z
-x+y,-x,1/3+z
y,-x+y,1/6+z
x-y,-y,-z
-x,-x+y,1/3-z
y,x,2/3-z
-y,-x,1/6-z
-x+y,y,1/2-z
x,x-y,5/6-z
loop_
_atom_site_type_symbol
_atom_site_label
_atom_site_fract_x
_atom_site_fract_y
_atom_site_fract_z
Si Si1 0.487613 0.064261 0.394375
Si Si2 0.264574 0.222913 0.504261
Si Si3 0.151669 0.075835 0.416667
Si Si4 0.641522 0.358479 0.083334
Si Si5 0.195392 0.804609 0.583334
Si Si6 0.516860 0.831557 0.160175
Si Si7 0.654118 0.630360 0.151748
O O1 0.544503 0.089005 0.250000
O O2 0.500383 0.126906 0.517250
O O3 0.485797 0.000000 0.500000
O O4 0.409078 0.024927 0.309931
O O5 0.240083 0.240083 0.333334
O O6 0.205061 0.140410 0.539076
O O7 0.338595 0.224253 0.472415
O O8 0.280907 0.288964 0.620214
O O9 0.103118 0.103118 0.333334
O O10 0.670792 0.341583 0.250000
O O11 0.555909 0.325862 0.097034
O O12 0.199562 0.760410 0.734753
O O13 0.570119 0.894506 0.282226
O O14 0.627526 0.627526 0.333334
#
# Coordination Sequence:
#
# PCOD9583159 Si02
#       7
#    12  12   6   6   6  12  12
#     4  10  21  36  61  97 136 171 221 285 357 425
#     4  10  18  38  65  96 135 169 217 286 336 403
#     4   9  20  36  67  92 124 184 234 260 314 387
#     4  12  31  56  71  94 142 190 254 302 350 441
#     4  11  19  38  70  94 128 178 234 272 350 416
#     4  11  25  42  71  96 131 188 233 283 355 426
#     4  11  22  38  62 106 146 167 217 291 368 427
#
# _framework density 20.054075999999998
#
# number of rings (size 3 to 8) (size 9 to 14) (size 15 to 20)
#    0.000    1.455    3.636    1.636    7.636    3.636 
#    0.000    0.909    0.000    0.000    0.000    0.000 
#    0.000    0.000    0.000    0.000    0.000    0.000 
#
# Total GULP energy -368561.512180 kJ/mol
# GULP energy per Si atom -5584.265336 kJ/mol
# Density = 2.000843 g / cm^3
# Si number density = 20.054076 Si / 1000 Ang^3
#
#
#
# Elastic Constant Matrix: (Units=GPa)
#
#
# Indices 1 2 3 4 5 6 
#
# 1 112.7353 49.0235 35.7984 0.0000 0.0000 0.0000
# 2 49.0235 112.7353 35.7984 0.0000 0.0000 0.0000
# 3 35.7984 35.7984 104.5195 0.0000 0.0000 0.0000
# 4 0.0000 0.0000 0.0000 50.3632 0.0000 0.0000
# 5 0.0000 0.0000 0.0000 0.0000 50.3632 0.0000
# 6 0.0000 0.0000 0.0000 0.0000 0.0000 31.8559
#
#
#
# Elastic Compliance Matrix: (Units=1/GPa)
#
#
# Indices 1 2 3 4 5 6 
#
# 1 0.011491 -0.004204 -0.002496 0.000000 0.000000 0.000000
# 2 -0.004204 0.011491 -0.002496 0.000000 0.000000 0.000000
# 3 -0.002496 -0.002496 0.011277 0.000000 0.000000 0.000000
# 4 0.000000 0.000000 0.000000 0.019856 0.000000 0.000000
# 5 0.000000 0.000000 0.000000 0.000000 0.019856 0.000000
# 6 0.000000 0.000000 0.000000 0.000000 0.000000 0.031391
#
#
# Mechanical properties :
#
#
# Convention : Reuss Voigt Hill
#
# Bulk Modulus (GPa) = 63.02127 63.47011 63.24569
# Shear Modulus (GPa) = 38.74661 40.47445 39.61053
#
# Velocity S-wave (km/s) = 4.40034 4.49738 4.44913
# Velocity P-wave (km/s) = 7.57042 7.66073 7.61571
#
# Compressibility (1/GPa) = 0.01586766
#
# Stress axis : x y z
#
# Youngs Moduli (GPa) = 87.02325 87.02325 88.67458
#
# Poissons Ratio (x) = 0.36589 0.22131
# Poissons Ratio (y) = 0.36589 0.22131
# Poissons Ratio (z) = 0.21719 0.21719
#
# Static dielectric constant tensor:
#      x y z
#    x 1.740790 0.000000 0.000000 
#    y 0.000000 1.740790 0.000000 
#    z 0.000000 0.000000 1.693300 
# 
# From -- ./inp_files/3431.got.cif
#   From: 2010.05.17/outbox.cif.g08.bks.cpg/sg179_2_cif.got.tgz:3431.got - 2010.05.20 11:37:33.
