data_PCOD9583063
_publ_section_title
;
Structure prediction by ZEFSAII (Michael W. Deem and Ramdas Pophale) SiO2 
 PCOD9583063
Probable space group: P 61 2 2
;
_chemical_formula_sum "Si O2"
_cell_formula_units_Z 48
_cell_length_a 15.704965
_cell_length_b 15.704965
_cell_length_c 10.381932
_cell_angle_alpha 90.000000
_cell_angle_beta 90.000000
_cell_angle_gamma 120.000000
_cell_volume 2217.597674
_symmetry_space_group_name_H-M "P 61 2 2"
_symmetry_group_IT_number 178
_symmetry_cell_setting 'hexagonal'
loop_
_space_group_symop_operation_xyz
x,y,z
x-y,x,1/6+z
-y,x-y,1/3+z
-x,-y,1/2+z
-x+y,-x,2/3+z
y,-x+y,5/6+z
x-y,-y,-z
-x,-x+y,2/3-z
y,x,1/3-z
-y,-x,5/6-z
-x+y,y,1/2-z
x,x-y,1/6-z
loop_
_atom_site_type_symbol
_atom_site_label
_atom_site_fract_x
_atom_site_fract_y
_atom_site_fract_z
Si Si1 0.260121 0.327739 0.947106
Si Si2 0.828304 0.828304 0.666667
Si Si3 0.456977 0.404255 0.809538
Si Si4 0.095340 0.190680 0.750000
Si Si5 0.269707 0.742303 0.265224
O O1 0.356545 0.332692 0.885082
O O2 0.179986 0.264585 0.842342
O O3 0.281483 0.438902 0.959956
O O4 0.210449 0.265346 0.073614
O O5 0.846338 0.923169 0.583334
O O6 0.435624 0.435624 0.666667
O O7 0.518839 0.349259 0.787126
O O8 0.511078 0.488923 0.916667
O O9 0.124679 0.124679 0.666667
O O10 0.252935 0.747066 0.416667
O O11 0.366817 0.733634 0.250000
#
# Coordination Sequence:
#
# PCOD9583063 Si02
#       5
#    12   6  12   6  12
#     4  12  25  49  75 105 152 204 260 315 397 483
#     4  12  28  50  74 116 158 206 268 342 404 476
#     4  12  26  47  76 111 153 205 261 324 402 478
#     4  12  24  46  74 106 142 198 254 314 388 478
#     4  12  25  45  75 113 151 198 259 319 387 469
#
# _framework density 21.645043999999999
#
# number of rings (size 3 to 8) (size 9 to 14) (size 15 to 20)
#    0.000    0.000    3.750    6.750    1.750    0.000 
#   13.500    5.000    0.000    0.000    0.000    0.000 
#    0.000    0.000    0.000    0.000    0.000    0.000 
#
# Total GULP energy -268356.721990 kJ/mol
# GULP energy per Si atom -5590.765041 kJ/mol
# Density = 2.159578 g / cm^3
# Si number density = 21.645044 Si / 1000 Ang^3
#
#
#
# Elastic Constant Matrix: (Units=GPa)
#
#
# Indices 1 2 3 4 5 6 
#
# 1 126.8935 94.7144 51.3553 0.0000 0.0000 0.0000
# 2 94.7144 126.8935 51.3553 0.0000 0.0000 0.0000
# 3 51.3553 51.3553 118.1353 0.0000 0.0000 0.0000
# 4 0.0000 0.0000 0.0000 18.7199 0.0000 0.0000
# 5 0.0000 0.0000 0.0000 0.0000 18.7199 0.0000
# 6 0.0000 0.0000 0.0000 0.0000 0.0000 16.0895
#
#
#
# Elastic Compliance Matrix: (Units=1/GPa)
#
#
# Indices 1 2 3 4 5 6 
#
# 1 0.018364 -0.012713 -0.002457 0.000000 0.000000 0.000000
# 2 -0.012713 0.018364 -0.002457 0.000000 0.000000 0.000000
# 3 -0.002457 -0.002457 0.010601 0.000000 0.000000 0.000000
# 4 0.000000 0.000000 0.000000 0.053419 0.000000 0.000000
# 5 0.000000 0.000000 0.000000 0.000000 0.053419 0.000000
# 6 0.000000 0.000000 0.000000 0.000000 0.000000 0.062152
#
#
# Mechanical properties :
#
#
# Convention : Reuss Voigt Hill
#
# Bulk Modulus (GPa) = 82.80599 85.19690 84.00145
# Shear Modulus (GPa) = 19.56218 22.33902 20.95060
#
# Velocity S-wave (km/s) = 3.00954 3.21606 3.11451
# Velocity P-wave (km/s) = 7.10041 7.29637 7.19906
#
# Compressibility (1/GPa) = 0.01207642
#
# Stress axis : x y z
#
# Youngs Moduli (GPa) = 54.45565 54.45565 94.33322
#
# Poissons Ratio (x) = 0.69227 0.23174
# Poissons Ratio (y) = 0.69227 0.23174
# Poissons Ratio (z) = 0.13378 0.13378
#
# Static dielectric constant tensor:
#      x y z
#    x 1.812310 0.000000 0.000000 
#    y 0.000000 1.812310 0.000000 
#    z 0.000000 0.000000 1.554180 
# 
# From -- ./inp_files/4184.got.cif
#   From: 2010.05.17/outbox.cif.g08.bks.cpg/sg178_3_cif.got.tgz:4184.got - 2010.05.20 11:30:59.
