data_PCOD9583559
_publ_section_title
;
Structure prediction by ZEFSAII (Michael W. Deem and Ramdas Pophale) SiO2 
 PCOD9583559
Probable space group: P 65 2 2
;
_chemical_formula_sum "Si O2"
_cell_formula_units_Z 78
_cell_length_a 16.946180
_cell_length_b 16.946180
_cell_length_c 15.718256
_cell_angle_alpha 90.000000
_cell_angle_beta 90.000000
_cell_angle_gamma 120.000000
_cell_volume 3909.116555
_symmetry_space_group_name_H-M "P 65 2 2"
_symmetry_group_IT_number 179
_symmetry_cell_setting 'hexagonal'
loop_
_space_group_symop_operation_xyz
x,y,z
x-y,x,5/6+z
-y,x-y,2/3+z
-x,-y,1/2+z
-x+y,-x,1/3+z
y,-x+y,1/6+z
x-y,-y,-z
-x,-x+y,1/3-z
y,x,2/3-z
-y,-x,1/6-z
-x+y,y,1/2-z
x,x-y,5/6-z
loop_
_atom_site_type_symbol
_atom_site_label
_atom_site_fract_x
_atom_site_fract_y
_atom_site_fract_z
Si Si1 0.685033 0.000305 0.791113
Si Si2 0.358812 0.818749 0.828721
Si Si3 0.160451 0.348197 0.489297
Si Si4 0.362821 0.637180 0.583334
Si Si5 0.894481 0.232462 0.648560
Si Si6 0.027023 0.472569 0.262557
Si Si7 0.474989 0.114183 0.845463
O O1 0.765990 0.080632 0.846757
O O2 0.660456 0.052021 0.717632
O O3 0.703102 0.928163 0.738894
O O4 0.597159 0.952503 0.852696
O O5 0.426413 0.852825 0.750000
O O6 0.262602 0.809146 0.804174
O O7 0.337076 0.719904 0.856244
O O8 0.421310 0.893378 0.899086
O O9 0.144470 0.347555 0.590866
O O10 0.336181 0.545184 0.635302
O O11 0.852112 0.147889 0.583334
O O12 0.876238 0.305020 0.598058
O O13 0.000000 0.277894 0.666667
O O14 0.000000 0.440610 0.166667
O O15 0.939549 0.471253 0.304290
#
# Coordination Sequence:
#
# PCOD9583559 Si02
#       7
#    12  12  12   6  12  12  12
#     4  12  23  42  68  87 129 176 230 279 350 410
#     4  12  23  39  59  86 133 179 236 283 342 399
#     4  12  22  41  63  94 126 180 223 281 346 414
#     4  12  26  38  58  92 126 184 224 284 332 408
#     4  12  21  34  58  93 126 164 208 272 329 414
#     4  12  24  41  62  87 120 182 233 292 332 392
#     4  12  20  38  60  83 128 172 222 259 331 390
#
# _framework density 19.953357
#
# number of rings (size 3 to 8) (size 9 to 14) (size 15 to 20)
#    0.000    0.000    9.231    1.385    0.000    4.308 
#    0.000    0.000    0.000    0.000    0.000    0.000 
#    0.000   18.462    0.000    0.000    0.000    0.000 
#
# Total GULP energy -435485.909593 kJ/mol
# GULP energy per Si atom -5583.152687 kJ/mol
# Density = 1.990794 g / cm^3
# Si number density = 19.953357 Si / 1000 Ang^3
#
#
#
# Elastic Constant Matrix: (Units=GPa)
#
#
# Indices 1 2 3 4 5 6 
#
# 1 74.2587 24.9420 29.2056 0.0000 0.0000 0.0000
# 2 24.9420 74.2587 29.2056 0.0000 0.0000 0.0000
# 3 29.2056 29.2056 75.5511 0.0000 0.0000 0.0000
# 4 0.0000 0.0000 0.0000 30.4087 0.0000 0.0000
# 5 0.0000 0.0000 0.0000 0.0000 30.4087 0.0000
# 6 0.0000 0.0000 0.0000 0.0000 0.0000 24.6583
#
#
#
# Elastic Compliance Matrix: (Units=1/GPa)
#
#
# Indices 1 2 3 4 5 6 
#
# 1 0.016664 -0.003613 -0.005045 0.000000 0.000000 0.000000
# 2 -0.003613 0.016664 -0.005045 0.000000 0.000000 0.000000
# 3 -0.005045 -0.005045 0.017137 0.000000 0.000000 0.000000
# 4 0.000000 0.000000 0.000000 0.032885 0.000000 0.000000
# 5 0.000000 0.000000 0.000000 0.000000 0.032885 0.000000
# 6 0.000000 0.000000 0.000000 0.000000 0.000000 0.040554
#
#
# Mechanical properties :
#
#
# Convention : Reuss Voigt Hill
#
# Bulk Modulus (GPa) = 43.36803 43.41943 43.39373
# Shear Modulus (GPa) = 26.05759 26.47618 26.26688
#
# Velocity S-wave (km/s) = 3.61768 3.64662 3.63218
# Velocity P-wave (km/s) = 6.26355 6.28794 6.27575
#
# Compressibility (1/GPa) = 0.02305846
#
# Stress axis : x y z
#
# Youngs Moduli (GPa) = 60.00887 60.00887 58.35438
#
# Poissons Ratio (x) = 0.21681 0.29441
# Poissons Ratio (y) = 0.21681 0.29441
# Poissons Ratio (z) = 0.30276 0.30276
#
# Static dielectric constant tensor:
#      x y z
#    x 1.736200 0.000000 0.000000 
#    y 0.000000 1.736200 0.000000 
#    z 0.000000 0.000000 1.763650 
# 
# From -- ./inp_files/6049.got.cif
#   From: 2010.05.17/outbox.cif.g08.bks.cpg/sg179_4_cif.got.tgz:6049.got - 2010.05.20 11:37:33.
