data_PCOD9583134
_publ_section_title
;
Structure prediction by ZEFSAII (Michael W. Deem and Ramdas Pophale) SiO2 
 PCOD9583134
Probable space group: P 65 2 2
;
_chemical_formula_sum "Si O2"
_cell_formula_units_Z 48
_cell_length_a 9.583681
_cell_length_b 9.583681
_cell_length_c 24.562347
_cell_angle_alpha 90.000000
_cell_angle_beta 90.000000
_cell_angle_gamma 120.000000
_cell_volume 1953.732915
_symmetry_space_group_name_H-M "P 65 2 2"
_symmetry_group_IT_number 179
_symmetry_cell_setting 'hexagonal'
loop_
_space_group_symop_operation_xyz
x,y,z
x-y,x,5/6+z
-y,x-y,2/3+z
-x,-y,1/2+z
-x+y,-x,1/3+z
y,-x+y,1/6+z
x-y,-y,-z
-x,-x+y,1/3-z
y,x,2/3-z
-y,-x,1/6-z
-x+y,y,1/2-z
x,x-y,5/6-z
loop_
_atom_site_type_symbol
_atom_site_label
_atom_site_fract_x
_atom_site_fract_y
_atom_site_fract_z
Si Si1 0.262626 0.525251 0.250000
Si Si2 0.324894 0.980451 0.243438
Si Si3 0.438876 0.000000 0.500000
Si Si4 0.516143 0.723651 0.669547
Si Si5 0.786254 0.590234 0.193298
O O1 0.313801 0.417954 0.286305
O O2 0.237811 0.644172 0.293122
O O3 0.468719 0.937437 0.250000
O O4 0.251367 0.923718 0.302746
O O5 0.197235 0.875511 0.196734
O O6 0.419227 0.159324 0.221016
O O7 0.612468 0.128285 0.524060
O O8 0.402612 0.543649 0.691151
O O9 0.840760 0.681520 0.250000
#
# Coordination Sequence:
#
# PCOD9583134 Si02
#       5
#     6  12   6  12  12
#     4  10  18  34  52  82 126 168 204 248 318 374
#     4  10  19  33  53  81 127 171 208 250 314 376
#     4  10  18  32  50  78 122 166 200 252 306 370
#     4  10  18  34  51  83 124 169 207 254 307 380
#     4  10  19  30  51  80 118 167 202 255 307 373
#
# _framework density 24.568355
#
# number of rings (size 3 to 8) (size 9 to 14) (size 15 to 20)
#    0.000    2.000    6.250    2.250    0.000    0.000 
#    0.000    0.000    0.000    0.000    0.000    0.000 
#    0.000  468.000    0.000    0.000    0.000    0.000 
#
# Total GULP energy -267436.485579 kJ/mol
# GULP energy per Si atom -5571.593450 kJ/mol
# Density = 2.451244 g / cm^3
# Si number density = 24.568355 Si / 1000 Ang^3
#
#
#
# Elastic Constant Matrix: (Units=GPa)
#
#
# Indices 1 2 3 4 5 6 
#
# 1 42.2295 23.0992 16.1079 0.0000 0.0000 0.0000
# 2 23.0992 42.2295 16.1079 0.0000 0.0000 0.0000
# 3 16.1079 16.1079 51.3292 0.0000 0.0000 0.0000
# 4 0.0000 0.0000 0.0000 42.5757 0.0000 0.0000
# 5 0.0000 0.0000 0.0000 0.0000 42.5757 0.0000
# 6 0.0000 0.0000 0.0000 0.0000 0.0000 9.5651
#
#
#
# Elastic Compliance Matrix: (Units=1/GPa)
#
#
# Indices 1 2 3 4 5 6 
#
# 1 0.035192 -0.017082 -0.005683 0.000000 0.000000 0.000000
# 2 -0.017082 0.035192 -0.005683 0.000000 0.000000 0.000000
# 3 -0.005683 -0.005683 0.023049 0.000000 0.000000 0.000000
# 4 0.000000 0.000000 0.000000 0.023488 0.000000 0.000000
# 5 0.000000 0.000000 0.000000 0.000000 0.023488 0.000000
# 6 0.000000 0.000000 0.000000 0.000000 0.000000 0.104547
#
#
# Mechanical properties :
#
#
# Convention : Reuss Voigt Hill
#
# Bulk Modulus (GPa) = 27.37024 27.37978 27.37501
# Shear Modulus (GPa) = 15.92213 24.30819 20.11516
#
# Velocity S-wave (km/s) = 2.54849 3.14890 2.86447
# Velocity P-wave (km/s) = 4.45246 4.93855 4.70179
#
# Compressibility (1/GPa) = 0.03653604
#
# Stress axis : x y z
#
# Youngs Moduli (GPa) = 28.41594 28.41594 43.38592
#
# Poissons Ratio (x) = 0.48539 0.24657
# Poissons Ratio (y) = 0.48539 0.24657
# Poissons Ratio (z) = 0.16149 0.16149
#
# Static dielectric constant tensor:
#      x y z
#    x 2.004130 0.000000 0.000000 
#    y 0.000000 2.004130 0.000000 
#    z 0.000000 0.000000 2.131400 
# 
# From -- ./inp_files/8089.got.cif
#   From: 2010.05.17/outbox.cif.g08.bks.cpg/sg179_5_cif.got.tgz:8089.got - 2010.05.20 11:37:33.
