data_PCOD9583401
_publ_section_title
;
Structure prediction by ZEFSAII (Michael W. Deem and Ramdas Pophale) SiO2 
 PCOD9583401
Probable space group: P 65 2 2
;
_chemical_formula_sum "Si O2"
_cell_formula_units_Z 84
_cell_length_a 13.667026
_cell_length_b 13.667026
_cell_length_c 22.688968
_cell_angle_alpha 90.000000
_cell_angle_beta 90.000000
_cell_angle_gamma 120.000000
_cell_volume 3670.231139
_symmetry_space_group_name_H-M "P 65 2 2"
_symmetry_group_IT_number 179
_symmetry_cell_setting 'hexagonal'
loop_
_space_group_symop_operation_xyz
x,y,z
x-y,x,5/6+z
-y,x-y,2/3+z
-x,-y,1/2+z
-x+y,-x,1/3+z
y,-x+y,1/6+z
x-y,-y,-z
-x,-x+y,1/3-z
y,x,2/3-z
-y,-x,1/6-z
-x+y,y,1/2-z
x,x-y,5/6-z
loop_
_atom_site_type_symbol
_atom_site_label
_atom_site_fract_x
_atom_site_fract_y
_atom_site_fract_z
Si Si1 0.986952 0.744443 0.790987
Si Si2 0.620486 0.240973 0.250000
Si Si3 0.000000 0.186627 0.166667
Si Si4 0.274265 0.777017 0.929723
Si Si5 0.411009 0.503195 0.198802
Si Si6 0.206008 0.126346 0.975525
Si Si7 0.265080 0.154124 0.096750
Si Si8 0.575757 0.401229 0.178119
O O1 0.922050 0.810983 0.809337
O O2 0.040446 0.779222 0.726289
O O3 0.905993 0.611109 0.789297
O O4 0.067217 0.767824 0.846521
O O5 0.559714 0.161159 0.305801
O O6 0.572170 0.323468 0.232257
O O7 0.406823 0.842116 0.917264
O O8 0.234236 0.868058 0.919967
O O9 0.212124 0.684957 0.877644
O O10 0.226286 0.706173 0.989685
O O11 0.508097 0.467828 0.190482
O O12 0.278213 0.139107 0.916667
O O13 0.113462 0.153866 0.949416
O O14 0.249345 0.201582 0.034689
O O15 0.154721 0.000000 0.000000
#
# Coordination Sequence:
#
# PCOD9583401 Si02
#       8
#    12   6   6  12  12  12  12  12
#     4  11  24  43  67 101 139 186 229 288 358 434
#     4  10  24  42  74 100 138 178 240 302 368 432
#     4  10  26  42  64 102 146 174 228 290 352 428
#     4  10  23  41  65  95 131 177 229 302 349 415
#     4  11  24  42  73  99 135 185 236 295 366 429
#     4   9  21  39  59  92 135 181 222 289 353 430
#     4  11  21  38  68  93 131 179 238 283 353 437
#     4  10  22  45  64 101 137 173 236 297 353 440
#
# _framework density 22.886841
#
# number of rings (size 3 to 8) (size 9 to 14) (size 15 to 20)
#    0.000    1.714    1.429    1.714    5.000    5.714 
#    1.286    1.429    0.000    0.000    0.000    0.000 
#    0.000    0.000    0.000    0.000    0.000    0.000 
#
# Total GULP energy -467904.261593 kJ/mol
# GULP energy per Si atom -5570.288828 kJ/mol
# Density = 2.283475 g / cm^3
# Si number density = 22.886841 Si / 1000 Ang^3
#
#
#
# Elastic Constant Matrix: (Units=GPa)
#
#
# Indices 1 2 3 4 5 6 
#
# 1 86.9210 27.5282 30.0825 0.0000 0.0000 0.0000
# 2 27.5282 86.9210 30.0825 0.0000 0.0000 0.0000
# 3 30.0825 30.0825 160.2475 0.0000 0.0000 0.0000
# 4 0.0000 0.0000 0.0000 14.3048 0.0000 0.0000
# 5 0.0000 0.0000 0.0000 0.0000 14.3048 0.0000
# 6 0.0000 0.0000 0.0000 0.0000 0.0000 29.6964
#
#
#
# Elastic Compliance Matrix: (Units=1/GPa)
#
#
# Indices 1 2 3 4 5 6 
#
# 1 0.013266 -0.003571 -0.001820 0.000000 0.000000 0.000000
# 2 -0.003571 0.013266 -0.001820 0.000000 0.000000 0.000000
# 3 -0.001820 -0.001820 0.006924 0.000000 0.000000 0.000000
# 4 0.000000 0.000000 0.000000 0.069906 0.000000 0.000000
# 5 0.000000 0.000000 0.000000 0.000000 0.069906 0.000000
# 6 0.000000 0.000000 0.000000 0.000000 0.000000 0.033674
#
#
# Mechanical properties :
#
#
# Convention : Reuss Voigt Hill
#
# Bulk Modulus (GPa) = 52.54143 56.60841 54.57492
# Shear Modulus (GPa) = 21.95793 28.08765 25.02279
#
# Velocity S-wave (km/s) = 3.10080 3.50700 3.31014
# Velocity P-wave (km/s) = 5.98555 6.41767 6.20537
#
# Compressibility (1/GPa) = 0.01903260
#
# Stress axis : x y z
#
# Youngs Moduli (GPa) = 75.38292 75.38292 144.43340
#
# Poissons Ratio (x) = 0.26922 0.26285
# Poissons Ratio (y) = 0.26922 0.26285
# Poissons Ratio (z) = 0.13718 0.13718
#
# Static dielectric constant tensor:
#      x y z
#    x 1.906060 0.000000 0.000000 
#    y 0.000000 1.906060 0.000000 
#    z 0.000000 0.000000 2.033680 
# 
# From -- ./inp_files/8404.got.cif
#   From: 2010.05.17/outbox.cif.g08.bks.cpg/sg179_5_cif.got.tgz:8404.got - 2010.05.20 11:37:33.
