data_PCOD9583901
_publ_section_title
;
Structure prediction by ZEFSAII (Michael W. Deem and Ramdas Pophale) SiO2 
 PCOD9583901
Probable space group: P 62 2 2
;
_chemical_formula_sum "Si O2"
_cell_formula_units_Z 84
_cell_length_a 17.660103
_cell_length_b 17.660103
_cell_length_c 14.947933
_cell_angle_alpha 90.000000
_cell_angle_beta 90.000000
_cell_angle_gamma 120.000000
_cell_volume 4037.367091
_symmetry_space_group_name_H-M "P 62 2 2"
_symmetry_group_IT_number 180
_symmetry_cell_setting 'hexagonal'
loop_
_space_group_symop_operation_xyz
x,y,z
x-y,x,1/3+z
-y,x-y,2/3+z
-x,-y,z
-x+y,-x,1/3+z
y,-x+y,2/3+z
x-y,-y,-z
-x,-x+y,1/3-z
y,x,2/3-z
-y,-x,2/3-z
-x+y,y,-z
x,x-y,1/3-z
loop_
_atom_site_type_symbol
_atom_site_label
_atom_site_fract_x
_atom_site_fract_y
_atom_site_fract_z
Si Si1 0.091184 0.505195 0.935054
Si Si2 0.162192 0.475240 0.452550
Si Si3 0.116997 0.102259 0.572075
Si Si4 0.707651 0.830758 0.480656
Si Si5 0.742441 0.102556 0.383425
Si Si6 0.380319 0.011907 0.892292
Si Si7 0.789040 0.707161 0.648358
O O1 0.160011 0.607431 0.934027
O O2 0.075350 0.467837 0.832596
O O3 0.000000 0.500000 0.962931
O O4 0.112081 0.445879 0.001320
O O5 0.252571 0.505142 0.500000
O O6 0.132393 0.387331 0.396155
O O7 0.083692 0.437451 0.523927
O O8 0.097270 0.048635 0.666667
O O9 0.198776 0.102560 0.523720
O O10 0.159923 0.205001 0.591943
O O11 0.041294 0.082588 0.500000
O O12 0.638606 0.858997 0.518601
O O13 0.680505 0.729023 0.483452
O O14 0.713266 0.849042 0.377284
O O15 0.833767 0.166234 0.333334
O O16 0.716648 0.002679 0.367981
O O17 0.375203 0.000000 0.000000
#
# Coordination Sequence:
#
# PCOD9583901 Si02
#       7
#    12  12  12  12  12  12  12
#     4  10  21  40  69  96 131 175 222 275 346 407
#     4  11  22  41  67 100 138 172 221 284 348 407
#     4  12  26  46  65  93 137 191 237 289 354 417
#     4  12  24  40  69 103 132 177 233 291 339 411
#     4  12  19  43  72  93 130 180 230 273 340 414
#     4  11  22  39  67 100 131 172 225 276 342 415
#     4  12  22  41  70 101 130 173 236 287 339 405
#
# _framework density 20.805637999999998
#
# number of rings (size 3 to 8) (size 9 to 14) (size 15 to 20)
#    0.000    0.571    8.571    1.714    2.000    2.571 
#    0.000    5.000    6.286    0.000    0.000    0.000 
#    0.000    0.000    0.000    0.000    0.000    0.000 
#
# Total GULP energy -467924.768806 kJ/mol
# GULP energy per Si atom -5570.532962 kJ/mol
# Density = 2.075828 g / cm^3
# Si number density = 20.805638 Si / 1000 Ang^3
#
#
#
# Elastic Constant Matrix: (Units=GPa)
#
#
# Indices 1 2 3 4 5 6 
#
# 1 90.7368 42.4946 23.4189 0.0000 0.0000 0.0000
# 2 42.4946 90.7368 23.4189 0.0000 0.0000 0.0000
# 3 23.4189 23.4189 73.8211 0.0000 0.0000 0.0000
# 4 0.0000 0.0000 0.0000 24.5501 0.0000 0.0000
# 5 0.0000 0.0000 0.0000 0.0000 24.5501 0.0000
# 6 0.0000 0.0000 0.0000 0.0000 0.0000 24.1211
#
#
#
# Elastic Compliance Matrix: (Units=1/GPa)
#
#
# Indices 1 2 3 4 5 6 
#
# 1 0.014588 -0.006140 -0.002680 0.000000 0.000000 0.000000
# 2 -0.006140 0.014588 -0.002680 0.000000 0.000000 0.000000
# 3 -0.002680 -0.002680 0.015247 0.000000 0.000000 0.000000
# 4 0.000000 0.000000 0.000000 0.040733 0.000000 0.000000
# 5 0.000000 0.000000 0.000000 0.000000 0.040733 0.000000
# 6 0.000000 0.000000 0.000000 0.000000 0.000000 0.041457
#
#
# Mechanical properties :
#
#
# Convention : Reuss Voigt Hill
#
# Bulk Modulus (GPa) = 46.67999 48.21773 47.44886
# Shear Modulus (GPa) = 25.31796 25.70844 25.51320
#
# Velocity S-wave (km/s) = 3.49216 3.51899 3.50560
# Velocity P-wave (km/s) = 6.22457 6.30371 6.26426
#
# Compressibility (1/GPa) = 0.02142245
#
# Stress axis : x y z
#
# Youngs Moduli (GPa) = 68.54808 68.54808 65.58817
#
# Poissons Ratio (x) = 0.42091 0.17578
# Poissons Ratio (y) = 0.42091 0.17578
# Poissons Ratio (z) = 0.18371 0.18371
#
# Static dielectric constant tensor:
#      x y z
#    x 1.798830 0.000000 0.000000 
#    y 0.000000 1.798830 0.000000 
#    z 0.000000 0.000000 1.822050 
# 
# From -- ./inp_files/6487.got.cif
#   From: 2010.05.17/outbox.cif.g08.bks.cpg/sg180_4_cif.got.tgz:6487.got - 2010.05.20 11:43:55.
