data_PCOD9583324
_publ_section_title
;
Structure prediction by ZEFSAII (Michael W. Deem and Ramdas Pophale) SiO2 
 PCOD9583324
Probable space group: P 65 2 2
;
_chemical_formula_sum "Si O2"
_cell_formula_units_Z 60
_cell_length_a 16.461590
_cell_length_b 16.461590
_cell_length_c 12.705251
_cell_angle_alpha 90.000000
_cell_angle_beta 90.000000
_cell_angle_gamma 120.000000
_cell_volume 2981.655354
_symmetry_space_group_name_H-M "P 65 2 2"
_symmetry_group_IT_number 179
_symmetry_cell_setting 'hexagonal'
loop_
_space_group_symop_operation_xyz
x,y,z
x-y,x,5/6+z
-y,x-y,2/3+z
-x,-y,1/2+z
-x+y,-x,1/3+z
y,-x+y,1/6+z
x-y,-y,-z
-x,-x+y,1/3-z
y,x,2/3-z
-y,-x,1/6-z
-x+y,y,1/2-z
x,x-y,5/6-z
loop_
_atom_site_type_symbol
_atom_site_label
_atom_site_fract_x
_atom_site_fract_y
_atom_site_fract_z
Si Si1 0.184109 0.825673 0.963195
Si Si2 0.821500 0.308357 0.001115
Si Si3 0.691810 0.725208 0.105924
Si Si4 0.950485 0.861494 0.901951
Si Si5 0.690748 0.252148 0.387011
O O1 0.241420 0.918337 0.889298
O O2 0.250624 0.779889 0.957857
O O3 0.078769 0.749796 0.926057
O O4 0.162133 0.837868 0.083334
O O5 0.776075 0.223925 0.083334
O O6 0.818030 0.395962 0.052944
O O7 0.918552 0.325940 0.953029
O O8 0.752813 0.280426 0.899879
O O9 0.759078 0.825784 0.054164
O O10 0.879753 0.879753 0.833334
O O11 0.052149 0.933932 0.854439
O O12 0.706346 0.353173 0.416667
#
# Coordination Sequence:
#
# PCOD9583324 Si02
#       5
#    12  12  12  12  12
#     4  11  24  41  65  88 134 174 218 271 330 392
#     4   9  20  36  67  94 124 161 211 273 333 386
#     4  11  22  41  60  96 130 171 215 273 328 390
#     4  10  21  39  61  89 122 171 215 264 317 388
#     4   9  20  41  65  92 121 164 218 265 330 402
#
# _framework density 20.123049999999999
#
# number of rings (size 3 to 8) (size 9 to 14) (size 15 to 20)
#    0.000    2.000    2.000    0.600    8.400    0.000 
#   14.400    3.000    0.000    0.000    0.000    0.000 
#    0.000    0.000    0.000    0.000    0.000    0.000 
#
# Total GULP energy -334087.695417 kJ/mol
# GULP energy per Si atom -5568.128257 kJ/mol
# Density = 2.007725 g / cm^3
# Si number density = 20.123050 Si / 1000 Ang^3
#
#
#
# Elastic Constant Matrix: (Units=GPa)
#
#
# Indices 1 2 3 4 5 6 
#
# 1 77.5598 25.9544 8.3728 0.0000 0.0000 0.0000
# 2 25.9544 77.5598 8.3728 0.0000 0.0000 0.0000
# 3 8.3728 8.3728 43.2924 0.0000 0.0000 0.0000
# 4 0.0000 0.0000 0.0000 25.0562 0.0000 0.0000
# 5 0.0000 0.0000 0.0000 0.0000 25.0562 0.0000
# 6 0.0000 0.0000 0.0000 0.0000 0.0000 25.8027
#
#
#
# Elastic Compliance Matrix: (Units=1/GPa)
#
#
# Indices 1 2 3 4 5 6 
#
# 1 0.014675 -0.004703 -0.001929 0.000000 0.000000 0.000000
# 2 -0.004703 0.014675 -0.001929 0.000000 0.000000 0.000000
# 3 -0.001929 -0.001929 0.023845 0.000000 0.000000 0.000000
# 4 0.000000 0.000000 0.000000 0.039910 0.000000 0.000000
# 5 0.000000 0.000000 0.000000 0.000000 0.039910 0.000000
# 6 0.000000 0.000000 0.000000 0.000000 0.000000 0.038756
#
#
# Mechanical properties :
#
#
# Convention : Reuss Voigt Hill
#
# Bulk Modulus (GPa) = 27.72001 31.53468 29.62734
# Shear Modulus (GPa) = 24.88597 25.56382 25.22490
#
# Velocity S-wave (km/s) = 3.52048 3.56810 3.54437
# Velocity P-wave (km/s) = 5.50728 5.71665 5.61294
#
# Compressibility (1/GPa) = 0.03607502
#
# Stress axis : x y z
#
# Youngs Moduli (GPa) = 68.14232 68.14232 41.93792
#
# Poissons Ratio (x) = 0.32045 0.08089
# Poissons Ratio (y) = 0.32045 0.08089
# Poissons Ratio (z) = 0.13143 0.13143
#
# Static dielectric constant tensor:
#      x y z
#    x 1.728520 0.000000 0.000000 
#    y 0.000000 1.728520 0.000000 
#    z 0.000000 0.000000 1.823370 
# 
# From -- ./inp_files/4672.got.cif
#   From: 2010.05.17/outbox.cif.g08.bks.cpg/sg179_3_cif.got.tgz:4672.got - 2010.05.20 11:37:33.
