data_PCOD9583446
_publ_section_title
;
Structure prediction by ZEFSAII (Michael W. Deem and Ramdas Pophale) SiO2 
 PCOD9583446
Probable space group: P 65 2 2
;
_chemical_formula_sum "Si O2"
_cell_formula_units_Z 48
_cell_length_a 17.661657
_cell_length_b 17.661657
_cell_length_c 8.338175
_cell_angle_alpha 90.000000
_cell_angle_beta 90.000000
_cell_angle_gamma 120.000000
_cell_volume 2252.498601
_symmetry_space_group_name_H-M "P 65 2 2"
_symmetry_group_IT_number 179
_symmetry_cell_setting 'hexagonal'
loop_
_space_group_symop_operation_xyz
x,y,z
x-y,x,5/6+z
-y,x-y,2/3+z
-x,-y,1/2+z
-x+y,-x,1/3+z
y,-x+y,1/6+z
x-y,-y,-z
-x,-x+y,1/3-z
y,x,2/3-z
-y,-x,1/6-z
-x+y,y,1/2-z
x,x-y,5/6-z
loop_
_atom_site_type_symbol
_atom_site_label
_atom_site_fract_x
_atom_site_fract_y
_atom_site_fract_z
Si Si1 0.163507 0.163507 0.833334
Si Si2 0.708491 0.354246 0.416667
Si Si3 0.203028 0.890345 0.734046
Si Si4 0.407791 0.984340 0.806298
Si Si5 0.172206 0.440545 0.904655
O O1 0.238513 0.190784 0.696120
O O2 0.075870 0.151740 0.750000
O O3 0.660087 0.320173 0.250000
O O4 0.761248 0.457841 0.409042
O O5 0.135526 0.864475 0.583334
O O6 0.171256 0.792820 0.792654
O O7 0.309158 0.929205 0.735363
O O8 0.477692 0.955384 0.750000
O O9 0.437777 0.081289 0.751040
O O10 0.413652 0.000000 0.000000
O O11 0.203537 0.407073 0.750000
#
# Coordination Sequence:
#
# PCOD9583446 Si02
#       5
#     6   6  12  12  12
#     4  12  28  54  82 112 152 194 248 338 420 492
#     4  10  24  40  68 100 148 198 254 312 382 450
#     4  12  27  46  79 111 154 201 260 316 398 480
#     4  12  26  45  71 106 151 202 255 312 373 456
#     4  11  22  45  68  99 147 199 245 310 379 443
#
# _framework density 21.309670000000001
#
# number of rings (size 3 to 8) (size 9 to 14) (size 15 to 20)
#    0.000    0.500    5.000    2.250    5.250    5.000 
#    0.000    0.000    0.000    0.000    0.000    0.000 
#    0.000    0.000    0.000    0.000    0.000    0.000 
#
# Total GULP energy -267229.377439 kJ/mol
# GULP energy per Si atom -5567.278697 kJ/mol
# Density = 2.126117 g / cm^3
# Si number density = 21.309670 Si / 1000 Ang^3
#
#
#
# Elastic Constant Matrix: (Units=GPa)
#
#
# Indices 1 2 3 4 5 6 
#
# 1 98.1691 75.1135 49.1407 0.0000 0.0000 0.0000
# 2 75.1135 98.1691 49.1407 0.0000 0.0000 0.0000
# 3 49.1407 49.1407 92.0792 0.0000 0.0000 0.0000
# 4 0.0000 0.0000 0.0000 32.5852 0.0000 0.0000
# 5 0.0000 0.0000 0.0000 0.0000 32.5852 0.0000
# 6 0.0000 0.0000 0.0000 0.0000 0.0000 11.5278
#
#
#
# Elastic Compliance Matrix: (Units=1/GPa)
#
#
# Indices 1 2 3 4 5 6 
#
# 1 0.025825 -0.017549 -0.004417 0.000000 0.000000 0.000000
# 2 -0.017549 0.025825 -0.004417 0.000000 0.000000 0.000000
# 3 -0.004417 -0.004417 0.015574 0.000000 0.000000 0.000000
# 4 0.000000 0.000000 0.000000 0.030689 0.000000 0.000000
# 5 0.000000 0.000000 0.000000 0.000000 0.030689 0.000000
# 6 0.000000 0.000000 0.000000 0.000000 0.000000 0.086747
#
#
# Mechanical properties :
#
#
# Convention : Reuss Voigt Hill
#
# Bulk Modulus (GPa) = 69.15854 70.57855 69.86855
# Shear Modulus (GPa) = 18.31953 23.00780 20.66367
#
# Velocity S-wave (km/s) = 2.93521 3.28943 3.11735
# Velocity P-wave (km/s) = 6.63414 6.90068 6.76872
#
# Compressibility (1/GPa) = 0.01445953
#
# Stress axis : x y z
#
# Youngs Moduli (GPa) = 38.72256 38.72256 64.20790
#
# Poissons Ratio (x) = 0.67953 0.28359
# Poissons Ratio (y) = 0.67953 0.28359
# Poissons Ratio (z) = 0.17103 0.17103
#
# Static dielectric constant tensor:
#      x y z
#    x 1.726690 0.000000 0.000000 
#    y 0.000000 1.726690 0.000000 
#    z 0.000000 0.000000 0.124360 
# 
# From -- ./inp_files/2712.got.cif
#   From: 2010.05.17/outbox.cif.g08.bks.cpg/sg179_2_cif.got.tgz:2712.got - 2010.05.20 11:37:33.
