data_PCOD9583139
_publ_section_title
;
Structure prediction by ZEFSAII (Michael W. Deem and Ramdas Pophale) SiO2 
 PCOD9583139
Probable space group: P 65 2 2
;
_chemical_formula_sum "Si O2"
_cell_formula_units_Z 72
_cell_length_a 14.655456
_cell_length_b 14.655456
_cell_length_c 21.669008
_cell_angle_alpha 90.000000
_cell_angle_beta 90.000000
_cell_angle_gamma 120.000000
_cell_volume 4030.587312
_symmetry_space_group_name_H-M "P 65 2 2"
_symmetry_group_IT_number 179
_symmetry_cell_setting 'hexagonal'
loop_
_space_group_symop_operation_xyz
x,y,z
x-y,x,5/6+z
-y,x-y,2/3+z
-x,-y,1/2+z
-x+y,-x,1/3+z
y,-x+y,1/6+z
x-y,-y,-z
-x,-x+y,1/3-z
y,x,2/3-z
-y,-x,1/6-z
-x+y,y,1/2-z
x,x-y,5/6-z
loop_
_atom_site_type_symbol
_atom_site_label
_atom_site_fract_x
_atom_site_fract_y
_atom_site_fract_z
Si Si1 0.535365 0.250686 0.569228
Si Si2 0.000000 0.682425 0.166667
Si Si3 0.520881 0.672847 0.526163
Si Si4 0.701401 0.570569 0.709498
Si Si5 0.616997 0.168646 0.466617
Si Si6 0.172777 0.345553 0.750000
Si Si7 0.094502 0.655909 0.840077
O O1 0.643828 0.356173 0.583334
O O2 0.468937 0.277181 0.521581
O O3 0.564874 0.172644 0.531811
O O4 0.471726 0.195901 0.630826
O O5 0.917222 0.571551 0.134831
O O6 0.935235 0.712769 0.213187
O O7 0.443148 0.719426 0.539581
O O8 0.584161 0.737814 0.466675
O O9 0.455365 0.548949 0.512287
O O10 0.586881 0.692890 0.589021
O O11 0.808227 0.616453 0.750000
O O12 0.616384 0.468106 0.747911
O O13 0.649944 0.641616 0.694255
#
# Coordination Sequence:
#
# PCOD9583139 Si02
#       7
#    12   6  12  12  12   6  12
#     4  11  20  32  54  78 112 157 203 239 288 342
#     4  10  20  32  60  76 118 144 180 234 288 354
#     4  10  20  32  53  75 110 143 191 233 293 331
#     4  10  23  35  50  76 112 157 202 237 287 339
#     4  10  18  33  51  78 109 152 191 238 283 348
#     4  10  20  38  50  86 106 148 176 234 296 354
#     4  11  21  35  50  79 110 156 199 245 277 345
#
# _framework density 17.863403000000002
#
# number of rings (size 3 to 8) (size 9 to 14) (size 15 to 20)
#    0.000    1.667    1.667    5.000    8.167    2.000 
#    6.000    0.000    0.000    0.000    0.000    0.000 
#   10.000    0.000    0.000    0.000    0.000    0.000 
#
# Total GULP energy -401689.475708 kJ/mol
# GULP energy per Si atom -5579.020496 kJ/mol
# Density = 1.782274 g / cm^3
# Si number density = 17.863403 Si / 1000 Ang^3
#
#
#
# Elastic Constant Matrix: (Units=GPa)
#
#
# Indices 1 2 3 4 5 6 
#
# 1 57.8743 19.2899 30.6232 0.0000 0.0000 0.0000
# 2 19.2899 57.8743 30.6232 0.0000 0.0000 0.0000
# 3 30.6232 30.6232 114.7705 0.0000 0.0000 0.0000
# 4 0.0000 0.0000 0.0000 15.5329 0.0000 0.0000
# 5 0.0000 0.0000 0.0000 0.0000 15.5329 0.0000
# 6 0.0000 0.0000 0.0000 0.0000 0.0000 19.2922
#
#
#
# Elastic Compliance Matrix: (Units=1/GPa)
#
#
# Indices 1 2 3 4 5 6 
#
# 1 0.021179 -0.004738 -0.004387 0.000000 0.000000 0.000000
# 2 -0.004738 0.021179 -0.004387 0.000000 0.000000 0.000000
# 3 -0.004387 -0.004387 0.011054 0.000000 0.000000 0.000000
# 4 0.000000 0.000000 0.000000 0.064380 0.000000 0.000000
# 5 0.000000 0.000000 0.000000 0.000000 0.064380 0.000000
# 6 0.000000 0.000000 0.000000 0.000000 0.000000 0.051834
#
#
# Mechanical properties :
#
#
# Convention : Reuss Voigt Hill
#
# Bulk Modulus (GPa) = 37.89436 43.51016 40.70226
# Shear Modulus (GPa) = 18.53047 20.07046 19.30047
#
# Velocity S-wave (km/s) = 3.22427 3.35558 3.29058
# Velocity P-wave (km/s) = 5.92627 6.27879 6.10508
#
# Compressibility (1/GPa) = 0.02638915
#
# Stress axis : x y z
#
# Youngs Moduli (GPa) = 47.21604 47.21604 90.46442
#
# Poissons Ratio (x) = 0.22371 0.39686
# Poissons Ratio (y) = 0.22371 0.39686
# Poissons Ratio (z) = 0.20713 0.20713
#
# Static dielectric constant tensor:
#      x y z
#    x 1.617750 0.000000 0.000000 
#    y 0.000000 1.617750 0.000000 
#    z 0.000000 0.000000 1.670460 
# 
# From -- ./inp_files/7718.got.cif
#   From: 2010.05.17/outbox.cif.g08.bks.cpg/sg179_4_cif.got.tgz:7718.got - 2010.05.20 11:37:33.
