data_PCOD9583698
_publ_section_title
;
Structure prediction by ZEFSAII (Michael W. Deem and Ramdas Pophale) SiO2 
 PCOD9583698
Probable space group: P 62 2 2
;
_chemical_formula_sum "Si O2"
_cell_formula_units_Z 60
_cell_length_a 14.448662
_cell_length_b 14.448662
_cell_length_c 15.226490
_cell_angle_alpha 90.000000
_cell_angle_beta 90.000000
_cell_angle_gamma 120.000000
_cell_volume 2752.869960
_symmetry_space_group_name_H-M "P 62 2 2"
_symmetry_group_IT_number 180
_symmetry_cell_setting 'hexagonal'
loop_
_space_group_symop_operation_xyz
x,y,z
x-y,x,1/3+z
-y,x-y,2/3+z
-x,-y,z
-x+y,-x,1/3+z
y,-x+y,2/3+z
x-y,-y,-z
-x,-x+y,1/3-z
y,x,2/3-z
-y,-x,2/3-z
-x+y,y,-z
x,x-y,1/3-z
loop_
_atom_site_type_symbol
_atom_site_label
_atom_site_fract_x
_atom_site_fract_y
_atom_site_fract_z
Si Si1 0.205778 0.202737 0.126650
Si Si2 0.766252 0.882820 0.957884
Si Si3 0.373608 0.446267 0.134133
Si Si4 0.261040 0.792736 0.563260
Si Si5 0.491921 0.607833 0.725602
O O1 0.229651 0.114826 0.166667
O O2 0.114300 0.200593 0.189196
O O3 0.307363 0.318884 0.142902
O O4 0.186456 0.170556 0.023959
O O5 0.639840 0.797350 0.952933
O O6 0.801712 0.000000 0.000000
O O7 0.500000 0.500000 0.142467
O O8 0.324109 0.494179 0.201819
O O9 0.346380 0.464210 0.035541
O O10 0.310849 0.858887 0.472120
O O11 0.365324 0.801157 0.606449
O O12 0.500000 0.500000 0.735320
#
# Coordination Sequence:
#
# PCOD9583698 Si02
#       5
#    12  12  12  12  12
#     4   9  18  33  54  82 114 156 205 262 308 377
#     4   9  17  31  54  80 115 153 201 255 304 376
#     4  10  20  35  56  81 122 163 212 260 315 390
#     4  10  19  33  55  81 119 154 203 259 312 376
#     4  10  20  35  58  89 122 155 200 272 326 383
#
# _framework density 21.795434
#
# number of rings (size 3 to 8) (size 9 to 14) (size 15 to 20)
#    0.000    2.400    0.000    4.200    0.000    0.000 
#    3.600    0.000   17.600   28.200    0.000    0.000 
#    0.000 1417.600    0.000    0.000    0.000    0.000 
#
# Total GULP energy -334579.026874 kJ/mol
# GULP energy per Si atom -5576.317115 kJ/mol
# Density = 2.174583 g / cm^3
# Si number density = 21.795434 Si / 1000 Ang^3
#
#
#
# Elastic Constant Matrix: (Units=GPa)
#
#
# Indices 1 2 3 4 5 6 
#
# 1 78.3902 47.0439 18.8273 0.0000 0.0000 0.0000
# 2 47.0439 78.3902 18.8273 0.0000 0.0000 0.0000
# 3 18.8273 18.8273 80.5596 0.0000 0.0000 0.0000
# 4 0.0000 0.0000 0.0000 -13.7667 0.0000 0.0000
# 5 0.0000 0.0000 0.0000 0.0000 -13.7667 0.0000
# 6 0.0000 0.0000 0.0000 0.0000 0.0000 15.6732
#
#
#
# Elastic Compliance Matrix: (Units=1/GPa)
#
#
# Indices 1 2 3 4 5 6 
#
# 1 0.020238 -0.011664 -0.002004 0.000000 0.000000 0.000000
# 2 -0.011664 0.020238 -0.002004 0.000000 0.000000 0.000000
# 3 -0.002004 -0.002004 0.013350 0.000000 0.000000 0.000000
# 4 0.000000 0.000000 0.000000 -0.072639 0.000000 0.000000
# 5 0.000000 0.000000 0.000000 0.000000 -0.072639 0.000000
# 6 0.000000 0.000000 0.000000 0.000000 0.000000 0.063803
#
#
# Mechanical properties :
#
#
# Convention : Reuss Voigt Hill
#
# Bulk Modulus (GPa) = 44.47925 45.19297 44.83611
# Shear Modulus (GPa) = 446.91172 7.80404 227.35788
#
# Velocity S-wave (km/s) = 14.33504 1.89430 10.22452
# Velocity P-wave (km/s) = 17.15935 5.05614 12.64926
#
# Compressibility (1/GPa) = 0.02248239
#
# Stress axis : x y z
#
# Youngs Moduli (GPa) = 49.41261 49.41261 74.90773
#
# Poissons Ratio (x) = 0.57634 0.15010
# Poissons Ratio (y) = 0.57634 0.15010
# Poissons Ratio (z) = 0.09901 0.09901
#
# Static dielectric constant tensor:
#      x y z
#    x 1.826370 0.000000 0.000000 
#    y 0.000000 1.826370 0.000000 
#    z 0.000000 0.000000 1.873180 
# 
# From -- ./inp_files/6097.got.cif
#   From: 2010.05.17/outbox.cif.g08.bks.cpg/sg180_4_cif.got.tgz:6097.got - 2010.05.20 11:43:55.
