data_PCOD9583902
_publ_section_title
;
Structure prediction by ZEFSAII (Michael W. Deem and Ramdas Pophale) SiO2 
 PCOD9583902
Probable space group: P 62 2 2
;
_chemical_formula_sum "Si O2"
_cell_formula_units_Z 69
_cell_length_a 28.039963
_cell_length_b 28.039963
_cell_length_c 5.133480
_cell_angle_alpha 90.000000
_cell_angle_beta 90.000000
_cell_angle_gamma 120.000000
_cell_volume 3495.403997
_symmetry_space_group_name_H-M "P 62 2 2"
_symmetry_group_IT_number 180
_symmetry_cell_setting 'hexagonal'
loop_
_space_group_symop_operation_xyz
x,y,z
x-y,x,1/3+z
-y,x-y,2/3+z
-x,-y,z
-x+y,-x,1/3+z
y,-x+y,2/3+z
x-y,-y,-z
-x,-x+y,1/3-z
y,x,2/3-z
-y,-x,2/3-z
-x+y,y,-z
x,x-y,1/3-z
loop_
_atom_site_type_symbol
_atom_site_label
_atom_site_fract_x
_atom_site_fract_y
_atom_site_fract_z
Si Si1 0.552987 0.685199 0.090510
Si Si2 0.461567 0.393935 0.470138
Si Si3 0.500000 0.000000 0.500000
Si Si4 0.216658 0.368627 0.255412
Si Si5 0.353540 0.297820 0.697788
Si Si6 0.396199 0.698100 0.666667
Si Si7 0.460081 0.644731 0.713360
O O1 0.539689 0.622885 0.166182
O O2 0.573989 0.730022 0.320633
O O3 0.607116 0.707786 0.910687
O O4 0.501151 0.681280 0.943309
O O5 0.483697 0.450344 0.625418
O O6 0.398450 0.353759 0.553561
O O7 0.502798 0.372886 0.556167
O O8 0.174751 0.349501 0.500000
O O9 0.187450 0.374900 0.000000
O O10 0.246399 0.334274 0.164355
O O11 0.308559 0.308559 0.833334
O O12 0.353604 0.707208 0.500000
O O13 0.435619 0.676891 0.553696
O O14 0.410196 0.589805 0.833334
#
# Coordination Sequence:
#
# PCOD9583902 Si02
#       7
#    12  12   3  12  12   6  12
#     4  10  23  40  62  87 122 150 196 243 299 369
#     4  10  22  38  60  84 117 150 190 235 285 377
#     4  12  20  44  58  84 126 152 196 230 308 362
#     4  11  22  41  65  93 125 156 204 253 299 360
#     4  10  21  41  59  90 128 160 201 244 306 371
#     4  10  24  44  70  84 106 143 188 240 306 356
#     4  10  22  42  58  87 110 140 186 231 291 356
#
# _framework density 19.740207000000002
#
# number of rings (size 3 to 8) (size 9 to 14) (size 15 to 20)
#    0.000    1.739    3.478    0.000    0.000   10.435 
#    0.000    6.087    0.000    0.000    0.000    0.000 
#    0.000    0.000    0.000    0.000    0.000    0.000 
#
# Total GULP energy -384606.279176 kJ/mol
# GULP energy per Si atom -5574.004046 kJ/mol
# Density = 1.969528 g / cm^3
# Si number density = 19.740207 Si / 1000 Ang^3
#
#
#
# Elastic Constant Matrix: (Units=GPa)
#
#
# Indices 1 2 3 4 5 6 
#
# 1 77.7313 60.6986 32.3660 0.0000 0.0000 0.0000
# 2 60.6986 77.7313 32.3660 0.0000 0.0000 0.0000
# 3 32.3660 32.3660 78.4984 0.0000 0.0000 0.0000
# 4 0.0000 0.0000 0.0000 26.0352 0.0000 0.0000
# 5 0.0000 0.0000 0.0000 0.0000 26.0352 0.0000
# 6 0.0000 0.0000 0.0000 0.0000 0.0000 8.5164
#
#
#
# Elastic Compliance Matrix: (Units=1/GPa)
#
#
# Indices 1 2 3 4 5 6 
#
# 1 0.033830 -0.024881 -0.003690 0.000000 0.000000 0.000000
# 2 -0.024881 0.033830 -0.003690 0.000000 0.000000 0.000000
# 3 -0.003690 -0.003690 0.015782 0.000000 0.000000 0.000000
# 4 0.000000 0.000000 0.000000 0.038410 0.000000 0.000000
# 5 0.000000 0.000000 0.000000 0.000000 0.038410 0.000000
# 6 0.000000 0.000000 0.000000 0.000000 0.000000 0.117421
#
#
# Mechanical properties :
#
#
# Convention : Reuss Voigt Hill
#
# Bulk Modulus (GPa) = 52.85168 53.86913 53.36041
# Shear Modulus (GPa) = 14.34681 19.35272 16.84976
#
# Velocity S-wave (km/s) = 2.69881 3.13448 2.92477
# Velocity P-wave (km/s) = 6.04510 6.35990 6.20449
#
# Compressibility (1/GPa) = 0.01892087
#
# Stress axis : x y z
#
# Youngs Moduli (GPa) = 29.55965 29.55965 63.36363
#
# Poissons Ratio (x) = 0.73546 0.23381
# Poissons Ratio (y) = 0.73546 0.23381
# Poissons Ratio (z) = 0.10907 0.10907
#
# Static dielectric constant tensor:
#      x y z
#    x 1.774440 0.000000 0.000000 
#    y 0.000000 1.774440 0.000000 
#    z 0.000000 0.000000 1.910200 
# 
# From -- ./inp_files/1594.got.cif
#   From: 2010.05.17/outbox.cif.g08.bks.cpg/sg180_1_cif.got.tgz:1594.got - 2010.05.20 11:43:55.
