data_PCOD9583470
_publ_section_title
;
Structure prediction by ZEFSAII (Michael W. Deem and Ramdas Pophale) SiO2 
 PCOD9583470
Probable space group: P 65 2 2
;
_chemical_formula_sum "Si O2"
_cell_formula_units_Z 60
_cell_length_a 14.788406
_cell_length_b 14.788406
_cell_length_c 13.620590
_cell_angle_alpha 90.000000
_cell_angle_beta 90.000000
_cell_angle_gamma 120.000000
_cell_volume 2579.700467
_symmetry_space_group_name_H-M "P 65 2 2"
_symmetry_group_IT_number 179
_symmetry_cell_setting 'hexagonal'
loop_
_space_group_symop_operation_xyz
x,y,z
x-y,x,5/6+z
-y,x-y,2/3+z
-x,-y,1/2+z
-x+y,-x,1/3+z
y,-x+y,1/6+z
x-y,-y,-z
-x,-x+y,1/3-z
y,x,2/3-z
-y,-x,1/6-z
-x+y,y,1/2-z
x,x-y,5/6-z
loop_
_atom_site_type_symbol
_atom_site_label
_atom_site_fract_x
_atom_site_fract_y
_atom_site_fract_z
Si Si1 0.353839 0.707679 0.750000
Si Si2 0.754932 0.705877 0.732617
Si Si3 0.520106 0.124312 0.895987
Si Si4 0.482181 0.573229 0.949368
Si Si5 0.168087 0.051264 0.758882
Si Si6 0.665607 0.832804 0.416667
O O1 0.389758 0.626538 0.705805
O O2 0.367104 0.796340 0.670335
O O3 0.767648 0.767648 0.833334
O O4 0.829911 0.659821 0.750000
O O5 0.643692 0.606507 0.723941
O O6 0.785317 0.778051 0.638225
O O7 0.415619 0.130180 0.891003
O O8 0.478751 0.010708 0.846724
O O9 0.545026 0.114320 0.009231
O O10 0.119572 0.092113 0.675775
O O11 0.260306 0.143794 0.821916
#
# Coordination Sequence:
#
# PCOD9583470 Si02
#       6
#     6  12  12  12  12   6
#     4  11  24  44  74 110 148 208 263 322 400 480
#     4  12  24  47  74 110 153 196 256 321 392 469
#     4  10  24  48  70 107 157 199 253 321 395 471
#     4  11  25  43  75 107 153 201 257 325 395 473
#     4  12  29  52  79 112 153 206 265 329 404 485
#     4  11  28  50  74 110 154 206 261 328 388 486
#
# _framework density 23.258514999999999
#
# number of rings (size 3 to 8) (size 9 to 14) (size 15 to 20)
#    0.000    0.800    4.000    2.400    8.400    1.600 
#   12.600    0.000    0.000    0.000    0.000    0.000 
#    0.000    0.000    0.000    0.000    0.000    0.000 
#
# Total GULP energy -334406.750831 kJ/mol
# GULP energy per Si atom -5573.445847 kJ/mol
# Density = 2.320558 g / cm^3
# Si number density = 23.258515 Si / 1000 Ang^3
#
#
#
# Elastic Constant Matrix: (Units=GPa)
#
#
# Indices 1 2 3 4 5 6 
#
# 1 122.5540 65.2960 35.3966 0.0000 0.0000 0.0000
# 2 65.2960 122.5540 35.3966 0.0000 0.0000 0.0000
# 3 35.3966 35.3966 138.7297 0.0000 0.0000 0.0000
# 4 0.0000 0.0000 0.0000 16.9274 0.0000 0.0000
# 5 0.0000 0.0000 0.0000 0.0000 16.9274 0.0000
# 6 0.0000 0.0000 0.0000 0.0000 0.0000 28.6290
#
#
#
# Elastic Compliance Matrix: (Units=1/GPa)
#
#
# Indices 1 2 3 4 5 6 
#
# 1 0.011677 -0.005788 -0.001503 0.000000 0.000000 0.000000
# 2 -0.005788 0.011677 -0.001503 0.000000 0.000000 0.000000
# 3 -0.001503 -0.001503 0.007975 0.000000 0.000000 0.000000
# 4 0.000000 0.000000 0.000000 0.059076 0.000000 0.000000
# 5 0.000000 0.000000 0.000000 0.000000 0.059076 0.000000
# 6 0.000000 0.000000 0.000000 0.000000 0.000000 0.034930
#
#
# Mechanical properties :
#
#
# Convention : Reuss Voigt Hill
#
# Bulk Modulus (GPa) = 72.76136 72.89065 72.82600
# Shear Modulus (GPa) = 24.20393 29.01334 26.60864
#
# Velocity S-wave (km/s) = 3.22941 3.53573 3.38603
# Velocity P-wave (km/s) = 6.72734 6.93368 6.83129
#
# Compressibility (1/GPa) = 0.01374356
#
# Stress axis : x y z
#
# Youngs Moduli (GPa) = 85.63645 85.63645 125.39016
#
# Poissons Ratio (x) = 0.49562 0.18843
# Poissons Ratio (y) = 0.49562 0.18843
# Poissons Ratio (z) = 0.12869 0.12869
#
# Static dielectric constant tensor:
#      x y z
#    x 2.075050 0.000000 0.000000 
#    y 0.000000 2.075050 0.000000 
#    z 0.000000 0.000000 2.370720 
# 
# From -- ./inp_files/5826.got.cif
#   From: 2010.05.17/outbox.cif.g08.bks.cpg/sg179_3_cif.got.tgz:5826.got - 2010.05.20 11:37:33.
