data_PCOD9583435
_publ_section_title
;
Structure prediction by ZEFSAII (Michael W. Deem and Ramdas Pophale) SiO2 
 PCOD9583435
Probable space group: P 65 2 2
;
_chemical_formula_sum "Si O2"
_cell_formula_units_Z 42
_cell_length_a 10.191987
_cell_length_b 10.191987
_cell_length_c 22.152612
_cell_angle_alpha 90.000000
_cell_angle_beta 90.000000
_cell_angle_gamma 120.000000
_cell_volume 1992.843960
_symmetry_space_group_name_H-M "P 65 2 2"
_symmetry_group_IT_number 179
_symmetry_cell_setting 'hexagonal'
loop_
_space_group_symop_operation_xyz
x,y,z
x-y,x,5/6+z
-y,x-y,2/3+z
-x,-y,1/2+z
-x+y,-x,1/3+z
y,-x+y,1/6+z
x-y,-y,-z
-x,-x+y,1/3-z
y,x,2/3-z
-y,-x,1/6-z
-x+y,y,1/2-z
x,x-y,5/6-z
loop_
_atom_site_type_symbol
_atom_site_label
_atom_site_fract_x
_atom_site_fract_y
_atom_site_fract_z
Si Si1 0.435202 0.262105 0.351500
Si Si2 0.690187 0.976600 0.232367
Si Si3 0.831959 0.050071 0.641122
Si Si4 0.269960 0.634980 0.916667
O O1 0.361646 0.361646 0.333334
O O2 0.367532 0.183766 0.416667
O O3 0.613103 0.365076 0.367414
O O4 0.395581 0.131682 0.302018
O O5 0.695763 0.981603 0.305367
O O6 0.802700 0.916866 0.212235
O O7 0.523230 0.840278 0.218431
O O8 0.846460 0.153541 0.583334
O O9 0.000000 0.142310 0.666667
#
# Coordination Sequence:
#
# PCOD9583435 Si02
#       4
#    12  12  12   6
#     4  10  23  45  68 101 142 193 244 299 363 456
#     4  11  21  41  67  97 140 185 235 291 371 427
#     4   9  20  37  65 100 130 174 235 297 350 431
#     4  10  28  40  66 106 136 186 240 298 378 430
#
# _framework density 21.075407999999999
#
# number of rings (size 3 to 8) (size 9 to 14) (size 15 to 20)
#    0.857    1.143    0.000    2.571    4.000    5.714 
#    0.000    2.857    0.000    0.000    0.000    0.000 
#    0.000    0.000    0.000    0.000    0.000    0.000 
#
# Total GULP energy -233946.672534 kJ/mol
# GULP energy per Si atom -5570.158870 kJ/mol
# Density = 2.102744 g / cm^3
# Si number density = 21.075408 Si / 1000 Ang^3
#
#
#
# Elastic Constant Matrix: (Units=GPa)
#
#
# Indices 1 2 3 4 5 6 
#
# 1 84.2449 48.9944 35.0358 0.0000 0.0000 0.0000
# 2 48.9944 84.2449 35.0358 0.0000 0.0000 0.0000
# 3 35.0358 35.0358 89.7265 0.0000 0.0000 0.0000
# 4 0.0000 0.0000 0.0000 8.8443 0.0000 0.0000
# 5 0.0000 0.0000 0.0000 0.0000 8.8443 0.0000
# 6 0.0000 0.0000 0.0000 0.0000 0.0000 17.6252
#
#
#
# Elastic Compliance Matrix: (Units=1/GPa)
#
#
# Indices 1 2 3 4 5 6 
#
# 1 0.018907 -0.009462 -0.003688 0.000000 0.000000 0.000000
# 2 -0.009462 0.018907 -0.003688 0.000000 0.000000 0.000000
# 3 -0.003688 -0.003688 0.014025 0.000000 0.000000 0.000000
# 4 0.000000 0.000000 0.000000 0.113067 0.000000 0.000000
# 5 0.000000 0.000000 0.000000 0.000000 0.113067 0.000000
# 6 0.000000 0.000000 0.000000 0.000000 0.000000 0.056737
#
#
# Mechanical properties :
#
#
# Convention : Reuss Voigt Hill
#
# Bulk Modulus (GPa) = 55.05728 55.14983 55.10356
# Shear Modulus (GPa) = 13.35328 16.33943 14.84635
#
# Velocity S-wave (km/s) = 2.51986 2.78741 2.65701
# Velocity P-wave (km/s) = 5.88616 6.04849 5.96788
#
# Compressibility (1/GPa) = 0.01816290
#
# Stress axis : x y z
#
# Youngs Moduli (GPa) = 52.89149 52.89149 71.30091
#
# Poissons Ratio (x) = 0.50045 0.26295
# Poissons Ratio (y) = 0.50045 0.26295
# Poissons Ratio (z) = 0.19506 0.19506
#
# Static dielectric constant tensor:
#      x y z
#    x 1.758680 0.000000 0.000000 
#    y 0.000000 1.758680 0.000000 
#    z 0.000000 0.000000 1.842890 
# 
# From -- ./inp_files/9260.got.cif
#   From: 2010.05.17/outbox.cif.g08.bks.cpg/sg179_5_cif.got.tgz:9260.got - 2010.05.20 11:37:33.
