data_PCOD9583842
_publ_section_title
;
Structure prediction by ZEFSAII (Michael W. Deem and Ramdas Pophale) SiO2 
 PCOD9583842
Probable space group: P 62 2 2
;
_chemical_formula_sum "Si O2"
_cell_formula_units_Z 54
_cell_length_a 12.101390
_cell_length_b 12.101390
_cell_length_c 20.687363
_cell_angle_alpha 90.000000
_cell_angle_beta 90.000000
_cell_angle_gamma 120.000000
_cell_volume 2623.652313
_symmetry_space_group_name_H-M "P 62 2 2"
_symmetry_group_IT_number 180
_symmetry_cell_setting 'hexagonal'
loop_
_space_group_symop_operation_xyz
x,y,z
x-y,x,1/3+z
-y,x-y,2/3+z
-x,-y,z
-x+y,-x,1/3+z
y,-x+y,2/3+z
x-y,-y,-z
-x,-x+y,1/3-z
y,x,2/3-z
-y,-x,2/3-z
-x+y,y,-z
x,x-y,1/3-z
loop_
_atom_site_type_symbol
_atom_site_label
_atom_site_fract_x
_atom_site_fract_y
_atom_site_fract_z
Si Si1 0.728944 0.728944 0.833334
Si Si2 0.007392 0.848936 0.441550
Si Si3 0.413762 0.263764 0.949642
Si Si4 0.700726 0.401451 0.000000
Si Si5 0.591015 0.638003 0.602013
Si Si6 0.000000 0.809026 0.666667
O O1 0.610250 0.712333 0.875242
O O2 0.842356 0.787980 0.886807
O O3 0.932108 0.864215 0.500000
O O4 0.927805 0.849300 0.380773
O O5 0.005162 0.716060 0.443190
O O6 0.319356 0.113252 0.966269
O O7 0.561015 0.315408 0.968627
O O8 0.376201 0.348701 0.996680
O O9 0.695661 0.499887 0.050958
O O10 0.500000 0.500000 0.574413
#
# Coordination Sequence:
#
# PCOD9583842 Si02
#       6
#     6  12  12   6  12   6
#     4  12  23  38  61 108 128 165 223 294 334 410
#     4  11  22  39  63  95 134 165 222 285 352 411
#     4  10  22  38  67  94 134 172 228 281 341 418
#     4  10  20  43  62  89 130 190 216 274 346 412
#     4   9  20  41  63  84 121 174 216 258 331 406
#     4  10  22  40  64  96 132 189 216 283 362 418
#
# _framework density 20.581994999999999
#
# number of rings (size 3 to 8) (size 9 to 14) (size 15 to 20)
#    0.000    1.778    2.222    1.667    0.000    4.000 
#    0.000   20.556    0.000    0.000    0.000    0.000 
#    0.000    0.000    0.000    0.000    0.000    0.000 
#
# Total GULP energy -301227.830995 kJ/mol
# GULP energy per Si atom -5578.293167 kJ/mol
# Density = 2.053515 g / cm^3
# Si number density = 20.581995 Si / 1000 Ang^3
#
#
#
# Elastic Constant Matrix: (Units=GPa)
#
#
# Indices 1 2 3 4 5 6 
#
# 1 129.8125 62.7372 34.8548 0.0000 0.0000 0.0000
# 2 62.7372 129.8125 34.8548 0.0000 0.0000 0.0000
# 3 34.8548 34.8548 54.8533 0.0000 0.0000 0.0000
# 4 0.0000 0.0000 0.0000 21.8325 0.0000 0.0000
# 5 0.0000 0.0000 0.0000 0.0000 21.8325 0.0000
# 6 0.0000 0.0000 0.0000 0.0000 0.0000 33.5376
#
#
#
# Elastic Compliance Matrix: (Units=1/GPa)
#
#
# Indices 1 2 3 4 5 6 
#
# 1 0.010827 -0.004082 -0.004286 0.000000 0.000000 0.000000
# 2 -0.004082 0.010827 -0.004286 0.000000 0.000000 0.000000
# 3 -0.004286 -0.004286 0.023677 0.000000 0.000000 0.000000
# 4 0.000000 0.000000 0.000000 0.045803 0.000000 0.000000
# 5 0.000000 0.000000 0.000000 0.000000 0.045803 0.000000
# 6 0.000000 0.000000 0.000000 0.000000 0.000000 0.029817
#
#
# Mechanical properties :
#
#
# Convention : Reuss Voigt Hill
#
# Bulk Modulus (GPa) = 49.94114 64.37467 57.15790
# Shear Modulus (GPa) = 25.15892 27.57597 26.36744
#
# Velocity S-wave (km/s) = 3.50004 3.66431 3.58312
# Velocity P-wave (km/s) = 6.37580 7.01769 6.70443
#
# Compressibility (1/GPa) = 0.02002357
#
# Stress axis : x y z
#
# Youngs Moduli (GPa) = 92.36271 92.36271 42.23460
#
# Poissons Ratio (x) = 0.37700 0.18102
# Poissons Ratio (y) = 0.37700 0.18102
# Poissons Ratio (z) = 0.39587 0.39587
#
# Static dielectric constant tensor:
#      x y z
#    x 1.768770 0.000000 0.000000 
#    y 0.000000 1.768770 0.000000 
#    z 0.000000 0.000000 1.801090 
# 
# From -- ./inp_files/10122.got.cif
#   From: 2010.05.17/outbox.cif.g08.bks.cpg/sg180_6_cif.got.tgz:10122.got - 2010.05.20 11:43:55.
