data_PCOD9583508
_publ_section_title
;
Structure prediction by ZEFSAII (Michael W. Deem and Ramdas Pophale) SiO2 
 PCOD9583508
Probable space group: P 65 2 2
;
_chemical_formula_sum "Si O2"
_cell_formula_units_Z 54
_cell_length_a 11.803138
_cell_length_b 11.803138
_cell_length_c 20.455337
_cell_angle_alpha 90.000000
_cell_angle_beta 90.000000
_cell_angle_gamma 120.000000
_cell_volume 2467.926607
_symmetry_space_group_name_H-M "P 65 2 2"
_symmetry_group_IT_number 179
_symmetry_cell_setting 'hexagonal'
loop_
_space_group_symop_operation_xyz
x,y,z
x-y,x,5/6+z
-y,x-y,2/3+z
-x,-y,1/2+z
-x+y,-x,1/3+z
y,-x+y,1/6+z
x-y,-y,-z
-x,-x+y,1/3-z
y,x,2/3-z
-y,-x,1/6-z
-x+y,y,1/2-z
x,x-y,5/6-z
loop_
_atom_site_type_symbol
_atom_site_label
_atom_site_fract_x
_atom_site_fract_y
_atom_site_fract_z
Si Si1 0.525291 0.525291 0.833334
Si Si2 0.913829 0.913829 0.833334
Si Si3 0.706590 0.633808 0.431873
Si Si4 0.034052 0.646270 0.920915
Si Si5 0.921185 0.842370 0.250000
Si Si6 0.387283 0.188902 0.342959
O O1 0.418169 0.472869 0.891127
O O2 0.555371 0.668921 0.809339
O O3 0.769183 0.879348 0.852095
O O4 0.049838 0.964320 0.871419
O O5 0.836008 0.620890 0.426402
O O6 0.670238 0.644421 0.507319
O O7 0.747188 0.773001 0.399228
O O8 0.076579 0.538290 0.916667
O O9 0.916508 0.601577 0.868074
O O10 0.442967 0.221484 0.416667
#
# Coordination Sequence:
#
# PCOD9583508 Si02
#       6
#     6   6  12  12   6  12
#     4  11  27  48  78 106 159 201 256 314 396 471
#     4  11  21  36  72 110 143 179 234 318 382 421
#     4  12  27  48  74 115 148 204 248 317 392 459
#     4  12  29  48  78 105 156 198 261 314 381 467
#     4  12  22  40  72 108 152 176 236 314 378 446
#     4  11  25  46  76 111 145 199 258 314 380 462
#
# _framework density 21.880714999999999
#
# number of rings (size 3 to 8) (size 9 to 14) (size 15 to 20)
#    0.000    0.444    3.333    4.667    9.333    2.667 
#    2.000    0.000    0.000    0.000    0.000    0.000 
#    0.000    0.000    0.000    0.000    0.000    0.000 
#
# Total GULP energy -300726.572885 kJ/mol
# GULP energy per Si atom -5569.010609 kJ/mol
# Density = 2.183091 g / cm^3
# Si number density = 21.880715 Si / 1000 Ang^3
#
#
#
# Elastic Constant Matrix: (Units=GPa)
#
#
# Indices 1 2 3 4 5 6 
#
# 1 150.5980 54.4761 34.5307 0.0000 0.0000 0.0000
# 2 54.4761 150.5980 34.5307 0.0000 0.0000 0.0000
# 3 34.5307 34.5307 117.1604 0.0000 0.0000 0.0000
# 4 0.0000 0.0000 0.0000 -3.0767 0.0000 0.0000
# 5 0.0000 0.0000 0.0000 0.0000 -3.0767 0.0000
# 6 0.0000 0.0000 0.0000 0.0000 0.0000 48.0609
#
#
#
# Elastic Compliance Matrix: (Units=1/GPa)
#
#
# Indices 1 2 3 4 5 6 
#
# 1 0.007909 -0.002495 -0.001596 0.000000 0.000000 0.000000
# 2 -0.002495 0.007909 -0.001596 0.000000 0.000000 0.000000
# 3 -0.001596 -0.001596 0.009476 0.000000 0.000000 0.000000
# 4 0.000000 0.000000 0.000000 -0.325024 0.000000 0.000000
# 5 0.000000 0.000000 0.000000 0.000000 -0.325024 0.000000
# 6 0.000000 0.000000 0.000000 0.000000 0.000000 0.020807
#
#
# Mechanical properties :
#
#
# Convention : Reuss Voigt Hill
#
# Bulk Modulus (GPa) = 71.83481 73.93682 72.88582
# Shear Modulus (GPa) = -8.50433 28.03610 9.76589
#
# Velocity S-wave (km/s) = -1.97360 3.58343 2.11493
# Velocity P-wave (km/s) = 5.26384 7.14041 6.27270
#
# Compressibility (1/GPa) = 0.01392083
#
# Stress axis : x y z
#
# Youngs Moduli (GPa) = 126.44568 126.44568 105.53174
#
# Poissons Ratio (x) = 0.31547 0.16838
# Poissons Ratio (y) = 0.31547 0.16838
# Poissons Ratio (z) = 0.20175 0.20175
#
# Static dielectric constant tensor:
#      x y z
#    x 1.799010 0.000000 0.000000 
#    y 0.000000 1.799010 0.000000 
#    z 0.000000 0.000000 2.055410 
# 
# From -- ./inp_files/8193.got.cif
#   From: 2010.05.17/outbox.cif.g08.bks.cpg/sg179_5_cif.got.tgz:8193.got - 2010.05.20 11:37:33.
