data_PCOD9583637
_publ_section_title
;
Structure prediction by ZEFSAII (Michael W. Deem and Ramdas Pophale) SiO2 
 PCOD9583637
Probable space group: P 62 2 2
;
_chemical_formula_sum "Si O2"
_cell_formula_units_Z 42
_cell_length_a 9.704175
_cell_length_b 9.704175
_cell_length_c 26.713345
_cell_angle_alpha 90.000000
_cell_angle_beta 90.000000
_cell_angle_gamma 120.000000
_cell_volume 2178.593203
_symmetry_space_group_name_H-M "P 62 2 2"
_symmetry_group_IT_number 180
_symmetry_cell_setting 'hexagonal'
loop_
_space_group_symop_operation_xyz
x,y,z
x-y,x,1/3+z
-y,x-y,2/3+z
-x,-y,z
-x+y,-x,1/3+z
y,-x+y,2/3+z
x-y,-y,-z
-x,-x+y,1/3-z
y,x,2/3-z
-y,-x,2/3-z
-x+y,y,-z
x,x-y,1/3-z
loop_
_atom_site_type_symbol
_atom_site_label
_atom_site_fract_x
_atom_site_fract_y
_atom_site_fract_z
Si Si1 0.389433 0.208903 0.823275
Si Si2 0.492738 0.828748 0.713937
Si Si3 0.852385 0.147616 0.833334
Si Si4 0.382238 0.561958 0.428290
O O1 0.344967 0.344967 0.833334
O O2 0.437070 0.190861 0.766820
O O3 0.520086 0.216378 0.862613
O O4 0.232783 0.039896 0.832366
O O5 0.564738 0.782369 0.666667
O O6 0.311059 0.687351 0.719490
O O7 0.500000 0.000000 0.709925
O O8 0.810456 0.226852 0.787145
O O9 0.500000 0.500000 0.411642
#
# Coordination Sequence:
#
# PCOD9583637 Si02
#       4
#    12  12   6  12
#     4  11  22  37  67  98 123 161 225 267 314 382
#     4  12  25  42  63  93 138 171 206 271 338 384
#     4  10  17  40  63  88 120 166 200 278 307 364
#     4  10  20  39  67  88 119 167 222 256 307 388
#
# _framework density 19.278496000000001
#
# number of rings (size 3 to 8) (size 9 to 14) (size 15 to 20)
#    0.000    1.143    5.714    1.286    4.000    1.714 
#    0.000    0.000    0.000    3.429    0.000    0.000 
#    0.000    0.000    0.000    0.000    0.000    0.000 
#
# Total GULP energy -234227.760188 kJ/mol
# GULP energy per Si atom -5576.851433 kJ/mol
# Density = 1.923462 g / cm^3
# Si number density = 19.278496 Si / 1000 Ang^3
#
#
#
# Elastic Constant Matrix: (Units=GPa)
#
#
# Indices 1 2 3 4 5 6 
#
# 1 94.1245 62.6064 40.3489 0.0000 0.0000 0.0000
# 2 62.6064 94.1245 40.3489 0.0000 0.0000 0.0000
# 3 40.3489 40.3489 116.1556 0.0000 0.0000 0.0000
# 4 0.0000 0.0000 0.0000 11.6461 0.0000 0.0000
# 5 0.0000 0.0000 0.0000 0.0000 11.6461 0.0000
# 6 0.0000 0.0000 0.0000 0.0000 0.0000 15.7591
#
#
#
# Elastic Compliance Matrix: (Units=1/GPa)
#
#
# Indices 1 2 3 4 5 6 
#
# 1 0.019749 -0.011979 -0.002699 0.000000 0.000000 0.000000
# 2 -0.011979 0.019749 -0.002699 0.000000 0.000000 0.000000
# 3 -0.002699 -0.002699 0.010484 0.000000 0.000000 0.000000
# 4 0.000000 0.000000 0.000000 0.085866 0.000000 0.000000
# 5 0.000000 0.000000 0.000000 0.000000 0.085866 0.000000
# 6 0.000000 0.000000 0.000000 0.000000 0.000000 0.063456
#
#
# Mechanical properties :
#
#
# Convention : Reuss Voigt Hill
#
# Bulk Modulus (GPa) = 65.66808 65.66813 65.66811
# Shear Modulus (GPa) = 15.38465 18.55028 16.96746
#
# Velocity S-wave (km/s) = 2.82799 3.10534 2.96991
# Velocity P-wave (km/s) = 6.69329 6.85524 6.77475
#
# Compressibility (1/GPa) = 0.01522810
#
# Stress axis : x y z
#
# Youngs Moduli (GPa) = 50.63568 50.63568 95.38074
#
# Poissons Ratio (x) = 0.60656 0.25744
# Poissons Ratio (y) = 0.60656 0.25744
# Poissons Ratio (z) = 0.13667 0.13667
#
# Static dielectric constant tensor:
#      x y z
#    x 1.785590 0.000000 0.000000 
#    y 0.000000 1.785590 0.000000 
#    z 0.000000 0.000000 1.678630 
# 
# From -- ./inp_files/12009.got.cif
#   From: 2010.05.17/outbox.cif.g08.bks.cpg/sg180_7_cif.got.tgz:12009.got - 2010.05.20 11:43:55.
