data_PCOD9583952
_publ_section_title
;
Structure prediction by ZEFSAII (Michael W. Deem and Ramdas Pophale) SiO2 
 PCOD9583952
Probable space group: P 62 2 2
;
_chemical_formula_sum "Si O2"
_cell_formula_units_Z 51
_cell_length_a 18.273314
_cell_length_b 18.273314
_cell_length_c 8.048406
_cell_angle_alpha 90.000000
_cell_angle_beta 90.000000
_cell_angle_gamma 120.000000
_cell_volume 2327.422036
_symmetry_space_group_name_H-M "P 62 2 2"
_symmetry_group_IT_number 180
_symmetry_cell_setting 'hexagonal'
loop_
_space_group_symop_operation_xyz
x,y,z
x-y,x,1/3+z
-y,x-y,2/3+z
-x,-y,z
-x+y,-x,1/3+z
y,-x+y,2/3+z
x-y,-y,-z
-x,-x+y,1/3-z
y,x,2/3-z
-y,-x,2/3-z
-x+y,y,-z
x,x-y,1/3-z
loop_
_atom_site_type_symbol
_atom_site_label
_atom_site_fract_x
_atom_site_fract_y
_atom_site_fract_z
Si Si1 0.697607 0.302394 0.833334
Si Si2 0.332448 0.483009 0.695218
Si Si3 0.288965 0.191768 0.005807
Si Si4 0.936838 0.243777 0.501730
Si Si5 0.500000 0.000000 0.500000
Si Si6 0.454750 0.227375 0.666667
O O1 0.690319 0.345160 0.666667
O O2 0.660063 0.204319 0.785156
O O3 0.255159 0.389680 0.660340
O O4 0.417464 0.480603 0.727854
O O5 0.299642 0.506066 0.864539
O O6 0.265894 0.132947 0.166667
O O7 0.255075 0.255478 0.021947
O O8 0.265774 0.121171 0.869896
O O9 0.863429 0.261748 0.431502
O O10 0.000000 0.293198 0.666667
#
# Coordination Sequence:
#
# PCOD9583952 Si02
#       6
#     6  12  12  12   3   6
#     4  12  29  52  76  99 140 208 264 295 370 485
#     4  11  24  44  69 100 144 184 241 304 378 435
#     4   9  17  36  58  94 124 175 224 281 353 429
#     4   9  18  32  58  92 135 170 227 286 352 437
#     4  12  26  40  70 116 152 174 242 344 366 430
#     4  10  22  40  70 100 133 194 236 293 372 458
#
# _framework density 21.912658
#
# number of rings (size 3 to 8) (size 9 to 14) (size 15 to 20)
#    0.000    1.882    1.176    2.118    4.941    2.824 
#    0.000    0.588    0.000    0.000    0.000   70.000 
#    0.000    0.000    0.000    0.000    0.000    0.000 
#
# Total GULP energy -284094.529153 kJ/mol
# GULP energy per Si atom -5570.480964 kJ/mol
# Density = 2.186278 g / cm^3
# Si number density = 21.912658 Si / 1000 Ang^3
#
#
#
# Elastic Constant Matrix: (Units=GPa)
#
#
# Indices 1 2 3 4 5 6 
#
# 1 85.6198 29.4252 36.3699 0.0000 0.0000 0.0000
# 2 29.4252 85.6198 36.3699 0.0000 0.0000 0.0000
# 3 36.3699 36.3699 108.2247 0.0000 0.0000 0.0000
# 4 0.0000 0.0000 0.0000 37.9040 0.0000 0.0000
# 5 0.0000 0.0000 0.0000 0.0000 37.9040 0.0000
# 6 0.0000 0.0000 0.0000 0.0000 0.0000 28.0973
#
#
#
# Elastic Compliance Matrix: (Units=1/GPa)
#
#
# Indices 1 2 3 4 5 6 
#
# 1 0.014416 -0.003379 -0.003709 0.000000 0.000000 0.000000
# 2 -0.003379 0.014416 -0.003709 0.000000 0.000000 0.000000
# 3 -0.003709 -0.003709 0.011733 0.000000 0.000000 0.000000
# 4 0.000000 0.000000 0.000000 0.026382 0.000000 0.000000
# 5 0.000000 0.000000 0.000000 0.000000 0.026382 0.000000
# 6 0.000000 0.000000 0.000000 0.000000 0.000000 0.035591
#
#
# Mechanical properties :
#
#
# Convention : Reuss Voigt Hill
#
# Bulk Modulus (GPa) = 52.71179 53.75493 53.23336
# Shear Modulus (GPa) = 31.87964 32.60101 32.24033
#
# Velocity S-wave (km/s) = 3.81839 3.86135 3.83993
# Velocity P-wave (km/s) = 6.59907 6.66819 6.63372
#
# Compressibility (1/GPa) = 0.01897109
#
# Stress axis : x y z
#
# Youngs Moduli (GPa) = 69.36543 69.36543 85.22906
#
# Poissons Ratio (x) = 0.23438 0.31614
# Poissons Ratio (y) = 0.23438 0.31614
# Poissons Ratio (z) = 0.25729 0.25729
#
# Static dielectric constant tensor:
#      x y z
#    x 1.823760 0.000000 0.000000 
#    y 0.000000 1.823760 0.000000 
#    z 0.000000 0.000000 1.943200 
# 
# From -- ./inp_files/2825.got.cif
#   From: 2010.05.17/outbox.cif.g08.bks.cpg/sg180_2_cif.got.tgz:2825.got - 2010.05.20 11:43:55.
