data_PCOD9583359
_publ_section_title
;
Structure prediction by ZEFSAII (Michael W. Deem and Ramdas Pophale) SiO2 
 PCOD9583359
Probable space group: P 65 2 2
;
_chemical_formula_sum "Si O2"
_cell_formula_units_Z 36
_cell_length_a 7.334397
_cell_length_b 7.334397
_cell_length_c 35.574510
_cell_angle_alpha 90.000000
_cell_angle_beta 90.000000
_cell_angle_gamma 120.000000
_cell_volume 1657.289529
_symmetry_space_group_name_H-M "P 65 2 2"
_symmetry_group_IT_number 179
_symmetry_cell_setting 'hexagonal'
loop_
_space_group_symop_operation_xyz
x,y,z
x-y,x,5/6+z
-y,x-y,2/3+z
-x,-y,1/2+z
-x+y,-x,1/3+z
y,-x+y,1/6+z
x-y,-y,-z
-x,-x+y,1/3-z
y,x,2/3-z
-y,-x,1/6-z
-x+y,y,1/2-z
x,x-y,5/6-z
loop_
_atom_site_type_symbol
_atom_site_label
_atom_site_fract_x
_atom_site_fract_y
_atom_site_fract_z
Si Si1 0.110501 0.280694 0.539379
Si Si2 0.492952 0.985904 0.750000
Si Si3 0.852302 0.344096 0.296476
Si Si4 0.082482 0.917519 0.583334
O O1 0.262503 0.396753 0.575038
O O2 0.255819 0.379271 0.502898
O O3 0.922331 0.332803 0.536518
O O4 0.052071 0.043798 0.548679
O O5 0.384301 0.821782 0.783993
O O6 0.989230 0.307322 0.264873
#
# Coordination Sequence:
#
# PCOD9583359 Si02
#       4
#    12   6  12   6
#     4  11  21  39  62  88 121 161 205 251 308 365
#     4  10  22  38  60  88 124 158 196 254 304 368
#     4  11  21  39  62  88 121 161 205 251 308 365
#     4  10  24  38  60  90 128 158 200 258 310 364
#
# _framework density 21.722214000000001
#
# number of rings (size 3 to 8) (size 9 to 14) (size 15 to 20)
#    0.000    1.333    3.333    3.000    0.000    0.000 
#    0.000    0.000    0.000    0.000    0.000    0.000 
#    0.000    0.000    0.000    0.000    0.000    0.000 
#
# Total GULP energy -200716.805394 kJ/mol
# GULP energy per Si atom -5575.466817 kJ/mol
# Density = 2.167277 g / cm^3
# Si number density = 21.722214 Si / 1000 Ang^3
#
#
#
# Elastic Constant Matrix: (Units=GPa)
#
#
# Indices 1 2 3 4 5 6 
#
# 1 48.5051 8.4854 6.7630 0.0000 0.0000 0.0000
# 2 8.4854 48.5051 6.7630 0.0000 0.0000 0.0000
# 3 6.7630 6.7630 40.6304 0.0000 0.0000 0.0000
# 4 0.0000 0.0000 0.0000 25.6893 0.0000 0.0000
# 5 0.0000 0.0000 0.0000 0.0000 25.6893 0.0000
# 6 0.0000 0.0000 0.0000 0.0000 0.0000 20.0098
#
#
#
# Elastic Compliance Matrix: (Units=1/GPa)
#
#
# Indices 1 2 3 4 5 6 
#
# 1 0.021628 -0.003360 -0.003041 0.000000 0.000000 0.000000
# 2 -0.003360 0.021628 -0.003041 0.000000 0.000000 0.000000
# 3 -0.003041 -0.003041 0.025624 0.000000 0.000000 0.000000
# 4 0.000000 0.000000 0.000000 0.038927 0.000000 0.000000
# 5 0.000000 0.000000 0.000000 0.000000 0.038927 0.000000
# 6 0.000000 0.000000 0.000000 0.000000 0.000000 0.049975
#
#
# Mechanical properties :
#
#
# Convention : Reuss Voigt Hill
#
# Bulk Modulus (GPa) = 20.00074 20.18480 20.09277
# Shear Modulus (GPa) = 21.52777 21.98628 21.75703
#
# Velocity S-wave (km/s) = 3.15151 3.18489 3.16824
# Velocity P-wave (km/s) = 4.74027 4.77882 4.75958
#
# Compressibility (1/GPa) = 0.04999815
#
# Stress axis : x y z
#
# Youngs Moduli (GPa) = 46.23615 46.23615 39.02525
#
# Poissons Ratio (x) = 0.15533 0.11867
# Poissons Ratio (y) = 0.15533 0.11867
# Poissons Ratio (z) = 0.14060 0.14060
#
# Static dielectric constant tensor:
#      x y z
#    x 1.789580 0.000000 0.000000 
#    y 0.000000 1.789580 0.000000 
#    z 0.000000 0.000000 1.895130 
# 
# From -- ./inp_files/8642.got.cif
#   From: 2010.05.17/outbox.cif.g08.bks.cpg/sg179_5_cif.got.tgz:8642.got - 2010.05.20 11:37:33.
