data_PCOD9583750
_publ_section_title
;
Structure prediction by ZEFSAII (Michael W. Deem and Ramdas Pophale) SiO2 
 PCOD9583750
Probable space group: P 62 2 2
;
_chemical_formula_sum "Si O2"
_cell_formula_units_Z 51
_cell_length_a 15.459063
_cell_length_b 15.459063
_cell_length_c 13.036604
_cell_angle_alpha 90.000000
_cell_angle_beta 90.000000
_cell_angle_gamma 120.000000
_cell_volume 2698.121107
_symmetry_space_group_name_H-M "P 62 2 2"
_symmetry_group_IT_number 180
_symmetry_cell_setting 'hexagonal'
loop_
_space_group_symop_operation_xyz
x,y,z
x-y,x,1/3+z
-y,x-y,2/3+z
-x,-y,z
-x+y,-x,1/3+z
y,-x+y,2/3+z
x-y,-y,-z
-x,-x+y,1/3-z
y,x,2/3-z
-y,-x,2/3-z
-x+y,y,-z
x,x-y,1/3-z
loop_
_atom_site_type_symbol
_atom_site_label
_atom_site_fract_x
_atom_site_fract_y
_atom_site_fract_z
Si Si1 0.708154 0.708154 0.333334
Si Si2 0.627242 0.000000 0.500000
Si Si3 0.500000 0.500000 0.015446
Si Si4 0.081181 0.162362 0.000000
Si Si5 0.000000 0.000000 0.500000
Si Si6 0.565073 0.689405 0.149271
Si Si7 0.708800 0.905688 0.368748
O O1 0.620021 0.677918 0.249793
O O2 0.729123 0.814067 0.380726
O O3 0.555519 0.965977 0.599519
O O4 0.730360 0.090518 0.542284
O O5 0.502343 0.584981 0.089131
O O6 0.069226 0.091722 0.095046
O O7 0.016208 0.211290 0.032427
O O8 0.511791 0.755896 0.166667
O O9 0.653557 0.761042 0.071785
#
# Coordination Sequence:
#
# PCOD9583750 Si02
#       7
#     6   6   6   6   3  12  12
#     4  10  20  34  50  82 122 148 196 234 276 344
#     4   9  19  36  57  81 106 154 206 239 293 354
#     4   9  18  39  60  82 108 147 190 259 306 354
#     4  11  22  30  46  68 118 166 202 222 266 307
#     4  10  22  30  38  66 104 180 200 230 242 298
#     4   9  20  35  56  86 111 146 189 247 296 367
#     4  10  21  31  49  80 117 158 196 235 266 336
#
# _framework density 18.902042000000002
#
# number of rings (size 3 to 8) (size 9 to 14) (size 15 to 20)
#    0.000    2.353    0.000    2.118   11.529    0.471 
#    0.000    0.000    0.000    0.000   36.706    0.000 
#    0.000    0.000    0.000    0.000    0.000    0.000 
#
# Total GULP energy -283959.174436 kJ/mol
# GULP energy per Si atom -5567.826950 kJ/mol
# Density = 1.885902 g / cm^3
# Si number density = 18.902042 Si / 1000 Ang^3
#
#
#
# Elastic Constant Matrix: (Units=GPa)
#
#
# Indices 1 2 3 4 5 6 
#
# 1 80.0460 41.3507 38.3574 0.0000 0.0000 0.0000
# 2 41.3507 80.0460 38.3574 0.0000 0.0000 0.0000
# 3 38.3574 38.3574 112.0457 0.0000 0.0000 0.0000
# 4 0.0000 0.0000 0.0000 30.1929 0.0000 0.0000
# 5 0.0000 0.0000 0.0000 0.0000 30.1929 0.0000
# 6 0.0000 0.0000 0.0000 0.0000 0.0000 19.3476
#
#
#
# Elastic Compliance Matrix: (Units=1/GPa)
#
#
# Indices 1 2 3 4 5 6 
#
# 1 0.018177 -0.007666 -0.003598 0.000000 0.000000 0.000000
# 2 -0.007666 0.018177 -0.003598 0.000000 0.000000 0.000000
# 3 -0.003598 -0.003598 0.011389 0.000000 0.000000 0.000000
# 4 0.000000 0.000000 0.000000 0.033120 0.000000 0.000000
# 5 0.000000 0.000000 0.000000 0.000000 0.033120 0.000000
# 6 0.000000 0.000000 0.000000 0.000000 0.000000 0.051686
#
#
# Mechanical properties :
#
#
# Convention : Reuss Voigt Hill
#
# Bulk Modulus (GPa) = 55.50081 56.47433 55.98757
# Shear Modulus (GPa) = 24.82607 26.21814 25.52210
#
# Velocity S-wave (km/s) = 3.62803 3.72836 3.67853
# Velocity P-wave (km/s) = 6.85392 6.96250 6.90842
#
# Compressibility (1/GPa) = 0.01801776
#
# Stress axis : x y z
#
# Youngs Moduli (GPa) = 55.01394 55.01394 87.80631
#
# Poissons Ratio (x) = 0.42172 0.31597
# Poissons Ratio (y) = 0.42172 0.31597
# Poissons Ratio (z) = 0.19797 0.19797
#
# Static dielectric constant tensor:
#      x y z
#    x 1.745950 0.000000 0.000000 
#    y 0.000000 1.745950 0.000000 
#    z 0.000000 0.000000 1.737210 
# 
# From -- ./inp_files/6053.got.cif
#   From: 2010.05.17/outbox.cif.g08.bks.cpg/sg180_4_cif.got.tgz:6053.got - 2010.05.20 11:43:55.
