data_PCOD9583523
_publ_section_title
;
Structure prediction by ZEFSAII (Michael W. Deem and Ramdas Pophale) SiO2 
 PCOD9583523
Probable space group: P 65 2 2
;
_chemical_formula_sum "Si O2"
_cell_formula_units_Z 72
_cell_length_a 14.633215
_cell_length_b 14.633215
_cell_length_c 19.546417
_cell_angle_alpha 90.000000
_cell_angle_beta 90.000000
_cell_angle_gamma 120.000000
_cell_volume 3624.743657
_symmetry_space_group_name_H-M "P 65 2 2"
_symmetry_group_IT_number 179
_symmetry_cell_setting 'hexagonal'
loop_
_space_group_symop_operation_xyz
x,y,z
x-y,x,5/6+z
-y,x-y,2/3+z
-x,-y,1/2+z
-x+y,-x,1/3+z
y,-x+y,1/6+z
x-y,-y,-z
-x,-x+y,1/3-z
y,x,2/3-z
-y,-x,1/6-z
-x+y,y,1/2-z
x,x-y,5/6-z
loop_
_atom_site_type_symbol
_atom_site_label
_atom_site_fract_x
_atom_site_fract_y
_atom_site_fract_z
Si Si1 0.534236 0.917992 0.059905
Si Si2 0.191211 0.268871 0.463994
Si Si3 0.319781 0.622818 0.328595
Si Si4 0.134350 0.567175 0.416667
Si Si5 0.625250 0.484940 0.155000
Si Si6 0.304465 0.320236 0.066522
Si Si7 0.967724 0.935447 0.750000
O O1 0.644004 0.933685 0.087500
O O2 0.464503 0.922332 0.122014
O O3 0.467403 0.799593 0.031494
O O4 0.554173 0.000000 0.000000
O O5 0.240241 0.265476 0.536694
O O6 0.104183 0.305235 0.471520
O O7 0.135035 0.157322 0.425738
O O8 0.299293 0.598585 0.250000
O O9 0.216349 0.622770 0.355216
O O10 0.423715 0.736016 0.339620
O O11 0.068949 0.627025 0.424933
O O12 0.569265 0.430736 0.083334
O O13 0.693287 0.609862 0.143995
O O14 0.983883 0.983883 0.833334
#
# Coordination Sequence:
#
# PCOD9583523 Si02
#       7
#    12  12  12   6  12  12   6
#     4  12  25  40  66 104 144 183 240 298 368 436
#     4  12  25  45  68 109 141 188 238 306 379 448
#     4  11  25  41  65  98 145 189 232 293 369 438
#     4  12  22  42  66 101 145 190 234 282 372 450
#     4  11  22  43  65  94 141 191 239 286 349 440
#     4  12  25  41  72 100 138 191 244 290 369 441
#     4  12  26  50  80 107 151 192 242 322 386 444
#
# _framework density 19.863475000000001
#
# number of rings (size 3 to 8) (size 9 to 14) (size 15 to 20)
#    0.000    0.333    7.500    0.500    7.000    0.000 
#    1.500    0.000    3.667    0.000    0.000    0.000 
#    0.000    0.000    0.000    0.000    0.000    0.000 
#
# Total GULP energy -401651.432406 kJ/mol
# GULP energy per Si atom -5578.492117 kJ/mol
# Density = 1.981826 g / cm^3
# Si number density = 19.863475 Si / 1000 Ang^3
#
#
#
# Elastic Constant Matrix: (Units=GPa)
#
#
# Indices 1 2 3 4 5 6 
#
# 1 73.3264 12.3823 13.4704 0.0000 0.0000 0.0000
# 2 12.3823 73.3264 13.4704 0.0000 0.0000 0.0000
# 3 13.4704 13.4704 109.2442 0.0000 0.0000 0.0000
# 4 0.0000 0.0000 0.0000 33.4374 0.0000 0.0000
# 5 0.0000 0.0000 0.0000 0.0000 33.4374 0.0000
# 6 0.0000 0.0000 0.0000 0.0000 0.0000 30.4720
#
#
#
# Elastic Compliance Matrix: (Units=1/GPa)
#
#
# Indices 1 2 3 4 5 6 
#
# 1 0.014273 -0.002135 -0.001497 0.000000 0.000000 0.000000
# 2 -0.002135 0.014273 -0.001497 0.000000 0.000000 0.000000
# 3 -0.001497 -0.001497 0.009523 0.000000 0.000000 0.000000
# 4 0.000000 0.000000 0.000000 0.029907 0.000000 0.000000
# 5 0.000000 0.000000 0.000000 0.000000 0.029907 0.000000
# 6 0.000000 0.000000 0.000000 0.000000 0.000000 0.032817
#
#
# Mechanical properties :
#
#
# Convention : Reuss Voigt Hill
#
# Bulk Modulus (GPa) = 35.95572 37.17147 36.56360
# Shear Modulus (GPa) = 33.28286 33.90761 33.59524
#
# Velocity S-wave (km/s) = 4.09783 4.13611 4.11701
# Velocity P-wave (km/s) = 6.36634 6.44701 6.40680
#
# Compressibility (1/GPa) = 0.02781198
#
# Stress axis : x y z
#
# Youngs Moduli (GPa) = 70.06146 70.06146 105.01007
#
# Poissons Ratio (x) = 0.14960 0.15717
# Poissons Ratio (y) = 0.14960 0.15717
# Poissons Ratio (z) = 0.10486 0.10486
#
# Static dielectric constant tensor:
#      x y z
#    x 1.710750 0.000000 0.000000 
#    y 0.000000 1.710750 0.000000 
#    z 0.000000 0.000000 1.771790 
# 
# From -- ./inp_files/7705.got.cif
#   From: 2010.05.17/outbox.cif.g08.bks.cpg/sg179_4_cif.got.tgz:7705.got - 2010.05.20 11:37:33.
