data_PCOD9583094
_publ_section_title
;
Structure prediction by ZEFSAII (Michael W. Deem and Ramdas Pophale) SiO2 
 PCOD9583094
Probable space group: P 65 2 2
;
_chemical_formula_sum "Si O2"
_cell_formula_units_Z 66
_cell_length_a 11.922244
_cell_length_b 11.922244
_cell_length_c 28.621734
_cell_angle_alpha 90.000000
_cell_angle_beta 90.000000
_cell_angle_gamma 120.000000
_cell_volume 3523.242893
_symmetry_space_group_name_H-M "P 65 2 2"
_symmetry_group_IT_number 179
_symmetry_cell_setting 'hexagonal'
loop_
_space_group_symop_operation_xyz
x,y,z
x-y,x,5/6+z
-y,x-y,2/3+z
-x,-y,1/2+z
-x+y,-x,1/3+z
y,-x+y,1/6+z
x-y,-y,-z
-x,-x+y,1/3-z
y,x,2/3-z
-y,-x,1/6-z
-x+y,y,1/2-z
x,x-y,5/6-z
loop_
_atom_site_type_symbol
_atom_site_label
_atom_site_fract_x
_atom_site_fract_y
_atom_site_fract_z
Si Si1 0.924950 0.602229 0.243184
Si Si2 0.710330 0.384276 0.361526
Si Si3 0.284640 0.953428 0.179320
Si Si4 0.723818 0.507407 0.554439
Si Si5 0.109344 0.640341 0.695483
Si Si6 0.181241 0.181241 0.833334
O O1 0.768772 0.537544 0.250000
O O2 0.985342 0.644573 0.293564
O O3 0.955236 0.503800 0.217320
O O4 0.965730 0.724650 0.210906
O O5 0.700135 0.350068 0.416667
O O6 0.816730 0.538391 0.357743
O O7 0.752709 0.303592 0.326096
O O8 0.572547 0.351681 0.338969
O O9 0.141593 0.938441 0.178840
O O10 0.386699 0.069947 0.210116
O O11 0.610190 0.389811 0.583334
O O12 0.838227 0.566016 0.592226
O O13 0.000000 0.649026 0.666667
#
# Coordination Sequence:
#
# PCOD9583094 Si02
#       6
#    12  12  12  12  12   6
#     4  10  16  31  56  87 113 146 192 252 299 349
#     4  11  22  33  57  91 124 159 195 246 312 377
#     4  11  21  36  56  88 126 151 200 248 315 358
#     4  10  23  38  52  88 136 164 190 251 316 378
#     4  11  19  37  59  84 120 162 208 241 300 377
#     4  10  20  32  60  90 110 156 198 252 300 350
#
# _framework density 18.732741000000001
#
# number of rings (size 3 to 8) (size 9 to 14) (size 15 to 20)
#    0.000    1.455    6.364    1.091    5.091    0.000 
#    0.000    0.000    0.000    0.000   21.273    0.000 
#    0.000    0.000    0.000    0.000    0.000    0.000 
#
# Total GULP energy -367697.197991 kJ/mol
# GULP energy per Si atom -5571.169667 kJ/mol
# Density = 1.869010 g / cm^3
# Si number density = 18.732741 Si / 1000 Ang^3
#
#
#
# Elastic Constant Matrix: (Units=GPa)
#
#
# Indices 1 2 3 4 5 6 
#
# 1 40.0355 18.5113 28.1547 0.0000 0.0000 0.0000
# 2 18.5113 40.0355 28.1547 0.0000 0.0000 0.0000
# 3 28.1547 28.1547 146.1170 0.0000 0.0000 0.0000
# 4 0.0000 0.0000 0.0000 17.8114 0.0000 0.0000
# 5 0.0000 0.0000 0.0000 0.0000 17.8114 0.0000
# 6 0.0000 0.0000 0.0000 0.0000 0.0000 10.7621
#
#
#
# Elastic Compliance Matrix: (Units=1/GPa)
#
#
# Indices 1 2 3 4 5 6 
#
# 1 0.033713 -0.012747 -0.004040 0.000000 0.000000 0.000000
# 2 -0.012747 0.033713 -0.004040 0.000000 0.000000 0.000000
# 3 -0.004040 -0.004040 0.008401 0.000000 0.000000 0.000000
# 4 0.000000 0.000000 0.000000 0.056144 0.000000 0.000000
# 5 0.000000 0.000000 0.000000 0.000000 0.056144 0.000000
# 6 0.000000 0.000000 0.000000 0.000000 0.000000 0.092919
#
#
# Mechanical properties :
#
#
# Convention : Reuss Voigt Hill
#
# Bulk Modulus (GPa) = 29.26290 41.75881 35.51085
# Shear Modulus (GPa) = 14.96667 19.36814 17.16741
#
# Velocity S-wave (km/s) = 2.82965 3.21895 3.03056
# Velocity P-wave (km/s) = 5.13138 6.01297 5.58958
#
# Compressibility (1/GPa) = 0.03417296
#
# Stress axis : x y z
#
# Youngs Moduli (GPa) = 29.66258 29.66258 119.03833
#
# Poissons Ratio (x) = 0.37810 0.48089
# Poissons Ratio (y) = 0.37810 0.48089
# Poissons Ratio (z) = 0.11983 0.11983
#
# Static dielectric constant tensor:
#      x y z
#    x 1.694840 0.000000 0.000000 
#    y 0.000000 1.694840 0.000000 
#    z 0.000000 0.000000 1.680110 
# 
# From -- ./inp_files/9507.got.cif
#   From: 2010.05.17/outbox.cif.g08.bks.cpg/sg179_5_cif.got.tgz:9507.got - 2010.05.20 11:37:33.
