data_PCOD9583615
_publ_section_title
;
Structure prediction by ZEFSAII (Michael W. Deem and Ramdas Pophale) SiO2 
 PCOD9583615
Probable space group: P 62 2 2
;
_chemical_formula_sum "Si O2"
_cell_formula_units_Z 66
_cell_length_a 30.090182
_cell_length_b 30.090182
_cell_length_c 5.338544
_cell_angle_alpha 90.000000
_cell_angle_beta 90.000000
_cell_angle_gamma 120.000000
_cell_volume 4186.037237
_symmetry_space_group_name_H-M "P 62 2 2"
_symmetry_group_IT_number 180
_symmetry_cell_setting 'hexagonal'
loop_
_space_group_symop_operation_xyz
x,y,z
x-y,x,1/3+z
-y,x-y,2/3+z
-x,-y,z
-x+y,-x,1/3+z
y,-x+y,2/3+z
x-y,-y,-z
-x,-x+y,1/3-z
y,x,2/3-z
-y,-x,2/3-z
-x+y,y,-z
x,x-y,1/3-z
loop_
_atom_site_type_symbol
_atom_site_label
_atom_site_fract_x
_atom_site_fract_y
_atom_site_fract_z
Si Si1 0.014259 0.411771 0.918649
Si Si2 0.320681 0.291765 0.084249
Si Si3 0.312457 0.867118 0.272000
Si Si4 0.695364 0.304637 0.333334
Si Si5 0.145709 0.751232 0.893432
Si Si6 0.625208 0.433282 0.088704
O O1 0.071797 0.422702 0.935795
O O2 0.000000 0.429469 0.666667
O O3 0.978664 0.349431 0.914847
O O4 0.000000 0.430677 0.166667
O O5 0.290018 0.290018 0.333334
O O6 0.343288 0.253666 0.092590
O O7 0.290537 0.290537 0.833334
O O8 0.274255 0.850156 0.511708
O O9 0.348478 0.842245 0.279489
O O10 0.281977 0.854318 0.010801
O O11 0.703797 0.351899 0.166667
O O12 0.749972 0.326893 0.465004
O O13 0.192031 0.807970 0.833334
O O14 0.589312 0.410689 0.333334
O O15 0.594450 0.405551 0.833334
#
# Coordination Sequence:
#
# PCOD9583615 Si02
#       6
#    12  12  12   6  12  12
#     4  10  16  31  56  76  91 133 180 192 218 299
#     4  10  16  32  52  72  98 139 181 191 226 304
#     4  12  22  38  56  78 107 131 160 204 257 306
#     4  10  20  40  62  72  90 122 165 178 224 316
#     4  12  23  33  51  86 112 128 158 215 261 292
#     4  11  25  41  57  78  98 123 155 201 244 290
#
# _framework density 15.766702
#
# number of rings (size 3 to 8) (size 9 to 14) (size 15 to 20)
#    0.000    1.091    8.182    1.636    2.545    0.000 
#    0.000    0.000    0.000    3.273    0.000    0.000 
#    0.000    0.000    0.000    0.000    0.000    0.000 
#
# Total GULP energy -367802.985313 kJ/mol
# GULP energy per Si atom -5572.772505 kJ/mol
# Density = 1.573082 g / cm^3
# Si number density = 15.766702 Si / 1000 Ang^3
#
#
#
# Elastic Constant Matrix: (Units=GPa)
#
#
# Indices 1 2 3 4 5 6 
#
# 1 65.1514 61.7309 35.0800 0.0000 0.0000 0.0000
# 2 61.7309 65.1514 35.0800 0.0000 0.0000 0.0000
# 3 35.0800 35.0800 154.4602 0.0000 0.0000 0.0000
# 4 0.0000 0.0000 0.0000 14.1886 0.0000 0.0000
# 5 0.0000 0.0000 0.0000 0.0000 14.1886 0.0000
# 6 0.0000 0.0000 0.0000 0.0000 0.0000 1.7102
#
#
#
# Elastic Compliance Matrix: (Units=1/GPa)
#
#
# Indices 1 2 3 4 5 6 
#
# 1 0.150685 -0.141672 -0.002047 0.000000 0.000000 0.000000
# 2 -0.141672 0.150685 -0.002047 0.000000 0.000000 0.000000
# 3 -0.002047 -0.002047 0.007404 0.000000 0.000000 0.000000
# 4 0.000000 0.000000 0.000000 0.070479 0.000000 0.000000
# 5 0.000000 0.000000 0.000000 0.000000 0.070479 0.000000
# 6 0.000000 0.000000 0.000000 0.000000 0.000000 0.584715
#
#
# Mechanical properties :
#
#
# Convention : Reuss Voigt Hill
#
# Bulk Modulus (GPa) = 57.99683 60.94945 59.47314
# Shear Modulus (GPa) = 3.75452 16.20895 9.98173
#
# Velocity S-wave (km/s) = 1.54482 3.20980 2.51886
# Velocity P-wave (km/s) = 6.32821 7.24418 6.80163
#
# Compressibility (1/GPa) = 0.01724232
#
# Stress axis : x y z
#
# Youngs Moduli (GPa) = 6.63634 6.63634 135.06260
#
# Poissons Ratio (x) = 0.94019 0.27648
# Poissons Ratio (y) = 0.94019 0.27648
# Poissons Ratio (z) = 0.01358 0.01358
#
# Static dielectric constant tensor:
#      x y z
#    x 1.532180 0.000000 0.000000 
#    y 0.000000 1.532180 0.000000 
#    z 0.000000 0.000000 1.632760 
# 
# From -- ./inp_files/1556.got.cif
#   From: 2010.05.17/outbox.cif.g08.bks.cpg/sg180_1_cif.got.tgz:1556.got - 2010.05.20 11:43:55.
