data_PCOD9583009
_publ_section_title
;
Structure prediction by ZEFSAII (Michael W. Deem and Ramdas Pophale) SiO2 
 PCOD9583009
Probable space group: P 61 2 2
;
_chemical_formula_sum "Si O2"
_cell_formula_units_Z 48
_cell_length_a 17.207950
_cell_length_b 17.207950
_cell_length_c 9.039881
_cell_angle_alpha 90.000000
_cell_angle_beta 90.000000
_cell_angle_gamma 120.000000
_cell_volume 2318.203815
_symmetry_space_group_name_H-M "P 61 2 2"
_symmetry_group_IT_number 178
_symmetry_cell_setting 'hexagonal'
loop_
_space_group_symop_operation_xyz
x,y,z
x-y,x,1/6+z
-y,x-y,1/3+z
-x,-y,1/2+z
-x+y,-x,2/3+z
y,-x+y,5/6+z
x-y,-y,-z
-x,-x+y,2/3-z
y,x,1/3-z
-y,-x,5/6-z
-x+y,y,1/2-z
x,x-y,1/6-z
loop_
_atom_site_type_symbol
_atom_site_label
_atom_site_fract_x
_atom_site_fract_y
_atom_site_fract_z
Si Si1 0.160419 0.000000 0.500000
Si Si2 0.232525 0.465049 0.750000
Si Si3 0.601705 0.905393 0.546329
Si Si4 0.855473 0.187469 0.654012
Si Si5 0.612604 0.399441 0.744272
O O1 0.143637 0.071819 0.583334
O O2 0.243746 0.062507 0.391642
O O3 0.187810 0.397571 0.613892
O O4 0.195661 0.529417 0.808706
O O5 0.621060 0.896528 0.717305
O O6 0.673423 0.889506 0.454725
O O7 0.499665 0.830562 0.513101
O O8 0.615665 0.000000 0.500000
O O9 0.680122 0.360244 0.750000
O O10 0.591693 0.408308 0.916667
#
# Coordination Sequence:
#
# PCOD9583009 Si02
#       5
#     6   6  12  12  12
#     4  12  26  50  74 108 138 180 246 314 380 468
#     4  12  24  42  72  98 136 204 234 290 360 420
#     4  11  24  45  67 103 141 189 233 296 370 434
#     4  11  24  47  73  98 140 185 240 297 373 447
#     4  12  22  41  68 102 145 187 246 298 340 429
#
# _framework density 20.705686
#
# number of rings (size 3 to 8) (size 9 to 14) (size 15 to 20)
#    0.000    0.500    7.500    1.500    0.000    0.000 
#   13.500    0.000    0.000    0.000    0.000    0.000 
#    0.000    0.000    0.000    0.000    0.000    0.000 
#
# Total GULP energy -267723.715984 kJ/mol
# GULP energy per Si atom -5577.577416 kJ/mol
# Density = 2.065856 g / cm^3
# Si number density = 20.705686 Si / 1000 Ang^3
#
#
#
# Elastic Constant Matrix: (Units=GPa)
#
#
# Indices 1 2 3 4 5 6 
#
# 1 93.5404 37.1303 46.0304 0.0000 0.0000 0.0000
# 2 37.1303 93.5404 46.0304 0.0000 0.0000 0.0000
# 3 46.0304 46.0304 131.3453 0.0000 0.0000 0.0000
# 4 0.0000 0.0000 0.0000 32.3597 0.0000 0.0000
# 5 0.0000 0.0000 0.0000 0.0000 32.3597 0.0000
# 6 0.0000 0.0000 0.0000 0.0000 0.0000 28.2051
#
#
#
# Elastic Compliance Matrix: (Units=1/GPa)
#
#
# Indices 1 2 3 4 5 6 
#
# 1 0.013945 -0.003783 -0.003561 0.000000 0.000000 0.000000
# 2 -0.003783 0.013945 -0.003561 0.000000 0.000000 0.000000
# 3 -0.003561 -0.003561 0.010110 0.000000 0.000000 0.000000
# 4 0.000000 0.000000 0.000000 0.030903 0.000000 0.000000
# 5 0.000000 0.000000 0.000000 0.000000 0.030903 0.000000
# 6 0.000000 0.000000 0.000000 0.000000 0.000000 0.035455
#
#
# Mechanical properties :
#
#
# Convention : Reuss Voigt Hill
#
# Bulk Modulus (GPa) = 61.77311 64.08981 62.93146
# Shear Modulus (GPa) = 30.77584 31.20058 30.98821
#
# Velocity S-wave (km/s) = 3.85950 3.88604 3.87279
# Velocity P-wave (km/s) = 7.05405 7.15228 7.10333
#
# Compressibility (1/GPa) = 0.01618827
#
# Stress axis : x y z
#
# Youngs Moduli (GPa) = 71.71259 71.71259 98.91576
#
# Poissons Ratio (x) = 0.27127 0.35226
# Poissons Ratio (y) = 0.27127 0.35226
# Poissons Ratio (z) = 0.25539 0.25539
#
# Static dielectric constant tensor:
#      x y z
#    x 1.740890 0.000000 0.000000 
#    y 0.000000 1.740890 0.000000 
#    z 0.000000 0.000000 2.454920 
# 
# From -- ./inp_files/2778.got.cif
#   From: 2010.05.17/outbox.cif.g08.bks.cpg/sg178_2_cif.got.tgz:2778.got - 2010.05.20 11:30:59.
