data_PCOD9583091
_publ_section_title
;
Structure prediction by ZEFSAII (Michael W. Deem and Ramdas Pophale) SiO2 
 PCOD9583091
Probable space group: P 65 2 2
;
_chemical_formula_sum "Si O2"
_cell_formula_units_Z 66
_cell_length_a 16.426404
_cell_length_b 16.426404
_cell_length_c 15.087514
_cell_angle_alpha 90.000000
_cell_angle_beta 90.000000
_cell_angle_gamma 120.000000
_cell_volume 3525.602274
_symmetry_space_group_name_H-M "P 65 2 2"
_symmetry_group_IT_number 179
_symmetry_cell_setting 'hexagonal'
loop_
_space_group_symop_operation_xyz
x,y,z
x-y,x,5/6+z
-y,x-y,2/3+z
-x,-y,1/2+z
-x+y,-x,1/3+z
y,-x+y,1/6+z
x-y,-y,-z
-x,-x+y,1/3-z
y,x,2/3-z
-y,-x,1/6-z
-x+y,y,1/2-z
x,x-y,5/6-z
loop_
_atom_site_type_symbol
_atom_site_label
_atom_site_fract_x
_atom_site_fract_y
_atom_site_fract_z
Si Si1 0.065095 0.130190 0.750000
Si Si2 0.726281 0.005202 0.394052
Si Si3 0.568763 0.109397 0.996891
Si Si4 0.235491 0.617746 0.416667
Si Si5 0.718833 0.538571 0.459312
Si Si6 0.723748 0.276253 0.083334
Si Si7 0.475194 0.160322 0.850420
O O1 0.073736 0.073736 0.833334
O O2 0.170170 0.199180 0.712637
O O3 0.761684 0.112127 0.367795
O O4 0.711729 0.000000 0.500000
O O5 0.625040 0.935642 0.351527
O O6 0.551723 0.140487 0.899207
O O7 0.501325 0.129762 0.060609
O O8 0.670102 0.171672 0.044122
O O9 0.533020 0.000000 0.000000
O O10 0.183561 0.673358 0.386038
O O11 0.290838 0.669237 0.502831
O O12 0.790492 0.511746 0.411852
O O13 0.464620 0.232310 0.916667
#
# Coordination Sequence:
#
# PCOD9583091 Si02
#       7
#     6  12  12   6  12   6  12
#     4  10  20  30  51  89 128 156 187 251 326 372
#     4  11  15  29  54  90 119 150 185 255 313 366
#     4  10  18  33  56  82 116 154 196 247 297 352
#     4  10  24  40  55  83 118 160 196 256 292 348
#     4  10  19  32  52  80 118 156 196 243 292 361
#     4  10  24  38  58  80 118 160 197 251 296 350
#     4  10  15  26  52  82 114 147 187 228 295 359
#
# _framework density 18.720206000000001
#
# number of rings (size 3 to 8) (size 9 to 14) (size 15 to 20)
#    0.000    1.818    6.364    1.091    6.364    0.000 
#    0.000    3.636    0.000    1.091    0.000    0.000 
#    0.000    0.000    0.000    0.000    0.000    0.000 
#
# Total GULP energy -367530.473453 kJ/mol
# GULP energy per Si atom -5568.643537 kJ/mol
# Density = 1.867760 g / cm^3
# Si number density = 18.720206 Si / 1000 Ang^3
#
#
#
# Elastic Constant Matrix: (Units=GPa)
#
#
# Indices 1 2 3 4 5 6 
#
# 1 88.4397 45.6484 46.0722 0.0000 0.0000 0.0000
# 2 45.6484 88.4397 46.0722 0.0000 0.0000 0.0000
# 3 46.0722 46.0722 90.0481 0.0000 0.0000 0.0000
# 4 0.0000 0.0000 0.0000 19.3119 0.0000 0.0000
# 5 0.0000 0.0000 0.0000 0.0000 19.3119 0.0000
# 6 0.0000 0.0000 0.0000 0.0000 0.0000 21.3957
#
#
#
# Elastic Compliance Matrix: (Units=1/GPa)
#
#
# Indices 1 2 3 4 5 6 
#
# 1 0.017435 -0.005934 -0.005885 0.000000 0.000000 0.000000
# 2 -0.005934 0.017435 -0.005885 0.000000 0.000000 0.000000
# 3 -0.005885 -0.005885 0.017127 0.000000 0.000000 0.000000
# 4 0.000000 0.000000 0.000000 0.051781 0.000000 0.000000
# 5 0.000000 0.000000 0.000000 0.000000 0.051781 0.000000
# 6 0.000000 0.000000 0.000000 0.000000 0.000000 0.046738
#
#
# Mechanical properties :
#
#
# Convention : Reuss Voigt Hill
#
# Bulk Modulus (GPa) = 60.27219 60.27925 60.27572
# Shear Modulus (GPa) = 20.55615 20.61288 20.58452
#
# Velocity S-wave (km/s) = 3.31731 3.32189 3.31960
# Velocity P-wave (km/s) = 6.85120 6.85443 6.85282
#
# Compressibility (1/GPa) = 0.01659140
#
# Stress axis : x y z
#
# Youngs Moduli (GPa) = 57.35430 57.35430 58.38755
#
# Poissons Ratio (x) = 0.34032 0.34360
# Poissons Ratio (y) = 0.34032 0.34360
# Poissons Ratio (z) = 0.33752 0.33752
#
# Static dielectric constant tensor:
#      x y z
#    x 1.703670 0.000000 0.000000 
#    y 0.000000 1.703670 0.000000 
#    z 0.000000 0.000000 1.705470 
# 
# From -- ./inp_files/6034.got.cif
#   From: 2010.05.17/outbox.cif.g08.bks.cpg/sg179_4_cif.got.tgz:6034.got - 2010.05.20 11:37:33.
