data_PCOD9583985
_publ_section_title
;
Structure prediction by ZEFSAII (Michael W. Deem and Ramdas Pophale) SiO2 
 PCOD9583985
Probable space group: P 62 2 2
;
_chemical_formula_sum "Si O2"
_cell_formula_units_Z 60
_cell_length_a 15.426259
_cell_length_b 15.426259
_cell_length_c 14.088881
_cell_angle_alpha 90.000000
_cell_angle_beta 90.000000
_cell_angle_gamma 120.000000
_cell_volume 2903.543722
_symmetry_space_group_name_H-M "P 62 2 2"
_symmetry_group_IT_number 180
_symmetry_cell_setting 'hexagonal'
loop_
_space_group_symop_operation_xyz
x,y,z
x-y,x,1/3+z
-y,x-y,2/3+z
-x,-y,z
-x+y,-x,1/3+z
y,-x+y,2/3+z
x-y,-y,-z
-x,-x+y,1/3-z
y,x,2/3-z
-y,-x,2/3-z
-x+y,y,-z
x,x-y,1/3-z
loop_
_atom_site_type_symbol
_atom_site_label
_atom_site_fract_x
_atom_site_fract_y
_atom_site_fract_z
Si Si1 0.841800 0.856980 0.943189
Si Si2 0.678507 0.928006 0.919262
Si Si3 0.497515 0.839192 0.618058
Si Si4 0.674579 0.673731 0.622101
Si Si5 0.474206 0.182061 0.404979
O O1 0.867027 0.867027 0.833334
O O2 0.767490 0.903915 0.948293
O O3 0.768382 0.742687 0.976383
O O4 0.945562 0.891124 0.000000
O O5 0.697638 0.980809 0.817022
O O6 0.571736 0.825873 0.915188
O O7 0.679376 0.000000 0.000000
O O8 0.522065 0.761033 0.666667
O O9 0.558964 0.935914 0.682372
O O10 0.539264 0.866090 0.510471
O O11 0.377978 0.791206 0.616534
O O12 0.703521 0.591871 0.652616
#
# Coordination Sequence:
#
# PCOD9583985 Si02
#       5
#    12  12  12  12  12
#     4  11  21  37  61  98 132 176 227 282 329 388
#     4  11  24  42  63  91 132 185 227 267 331 403
#     4  11  20  39  69 100 131 159 209 278 346 395
#     4  11  20  38  66  93 134 172 216 273 337 396
#     4  10  23  38  65 102 127 164 219 271 329 407
#
# _framework density 20.664404999999999
#
# number of rings (size 3 to 8) (size 9 to 14) (size 15 to 20)
#    0.000    1.200    4.000    4.200    0.000    5.200 
#    0.000    5.000    0.000    0.000    0.000    0.000 
#    0.000    0.000    0.000    0.000    0.000    0.000 
#
# Total GULP energy -334132.574194 kJ/mol
# GULP energy per Si atom -5568.876237 kJ/mol
# Density = 2.061737 g / cm^3
# Si number density = 20.664405 Si / 1000 Ang^3
#
#
#
# Elastic Constant Matrix: (Units=GPa)
#
#
# Indices 1 2 3 4 5 6 
#
# 1 46.4051 21.7125 38.1627 0.0000 0.0000 0.0000
# 2 21.7125 46.4051 38.1627 0.0000 0.0000 0.0000
# 3 38.1627 38.1627 126.7578 0.0000 0.0000 0.0000
# 4 0.0000 0.0000 0.0000 20.5610 0.0000 0.0000
# 5 0.0000 0.0000 0.0000 0.0000 20.5610 0.0000
# 6 0.0000 0.0000 0.0000 0.0000 0.0000 12.3463
#
#
#
# Elastic Compliance Matrix: (Units=1/GPa)
#
#
# Indices 1 2 3 4 5 6 
#
# 1 0.031326 -0.009172 -0.006670 0.000000 0.000000 0.000000
# 2 -0.009172 0.031326 -0.006670 0.000000 0.000000 0.000000
# 3 -0.006670 -0.006670 0.011905 0.000000 0.000000 0.000000
# 4 0.000000 0.000000 0.000000 0.048636 0.000000 0.000000
# 5 0.000000 0.000000 0.000000 0.000000 0.048636 0.000000
# 6 0.000000 0.000000 0.000000 0.000000 0.000000 0.080996
#
#
# Mechanical properties :
#
#
# Convention : Reuss Voigt Hill
#
# Bulk Modulus (GPa) = 33.85947 46.18264 40.02106
# Shear Modulus (GPa) = 16.24999 18.79568 17.52284
#
# Velocity S-wave (km/s) = 2.80728 3.01918 2.91515
# Velocity P-wave (km/s) = 5.18929 5.87804 5.54437
#
# Compressibility (1/GPa) = 0.02953383
#
# Stress axis : x y z
#
# Youngs Moduli (GPa) = 31.92239 31.92239 83.99672
#
# Poissons Ratio (x) = 0.29279 0.56025
# Poissons Ratio (y) = 0.29279 0.56025
# Poissons Ratio (z) = 0.21292 0.21292
#
# Static dielectric constant tensor:
#      x y z
#    x 1.827930 0.000000 0.000000 
#    y 0.000000 1.827930 0.000000 
#    z 0.000000 0.000000 1.717810 
# 
# From -- ./inp_files/6093.got.cif
#   From: 2010.05.17/outbox.cif.g08.bks.cpg/sg180_4_cif.got.tgz:6093.got - 2010.05.20 11:43:55.
