data_PCOD9583571
_publ_section_title
;
Structure prediction by ZEFSAII (Michael W. Deem and Ramdas Pophale) SiO2 
 PCOD9583571
Probable space group: P 65 2 2
;
_chemical_formula_sum "Si O2"
_cell_formula_units_Z 54
_cell_length_a 16.474574
_cell_length_b 16.474574
_cell_length_c 11.124489
_cell_angle_alpha 90.000000
_cell_angle_beta 90.000000
_cell_angle_gamma 120.000000
_cell_volume 2614.803692
_symmetry_space_group_name_H-M "P 65 2 2"
_symmetry_group_IT_number 179
_symmetry_cell_setting 'hexagonal'
loop_
_space_group_symop_operation_xyz
x,y,z
x-y,x,5/6+z
-y,x-y,2/3+z
-x,-y,1/2+z
-x+y,-x,1/3+z
y,-x+y,1/6+z
x-y,-y,-z
-x,-x+y,1/3-z
y,x,2/3-z
-y,-x,1/6-z
-x+y,y,1/2-z
x,x-y,5/6-z
loop_
_atom_site_type_symbol
_atom_site_label
_atom_site_fract_x
_atom_site_fract_y
_atom_site_fract_z
Si Si1 0.591456 0.591456 0.333334
Si Si2 0.719815 0.449078 0.108981
Si Si3 0.527572 0.386237 0.409949
Si Si4 0.961724 0.314713 0.924651
Si Si5 0.152858 0.767333 0.776825
O O1 0.570068 0.484941 0.340477
O O2 0.646296 0.641843 0.455991
O O3 0.609774 0.390227 0.083334
O O4 0.726772 0.453544 0.250000
O O5 0.768148 0.392869 0.053478
O O6 0.766227 0.550303 0.052592
O O7 0.457163 0.375309 0.516948
O O8 0.460573 0.300534 0.322523
O O9 0.875712 0.207777 0.928114
O O10 0.047285 0.328750 0.008410
#
# Coordination Sequence:
#
# PCOD9583571 Si02
#       5
#     6  12  12  12  12
#     4  12  24  40  68  94 134 176 222 274 344 406
#     4  12  24  37  59  94 135 183 229 271 330 408
#     4  12  24  42  65  97 137 180 224 278 336 412
#     4  12  27  43  66  95 136 181 230 290 338 413
#     4  12  26  43  65  93 135 179 234 280 350 399
#
# _framework density 20.651646
#
# number of rings (size 3 to 8) (size 9 to 14) (size 15 to 20)
#    0.000    0.000    6.667    4.000    0.000    0.000 
#    0.000    0.000    0.000    0.000    0.000    0.000 
#   40.000    0.000    0.000    0.000    0.000    0.000 
#
# Total GULP energy -301977.883244 kJ/mol
# GULP energy per Si atom -5592.183023 kJ/mol
# Density = 2.060464 g / cm^3
# Si number density = 20.651646 Si / 1000 Ang^3
#
#
#
# Elastic Constant Matrix: (Units=GPa)
#
#
# Indices 1 2 3 4 5 6 
#
# 1 97.9588 41.7058 12.1926 0.0000 0.0000 0.0000
# 2 41.7058 97.9588 12.1926 0.0000 0.0000 0.0000
# 3 12.1926 12.1926 106.0228 0.0000 0.0000 0.0000
# 4 0.0000 0.0000 0.0000 21.7387 0.0000 0.0000
# 5 0.0000 0.0000 0.0000 0.0000 21.7387 0.0000
# 6 0.0000 0.0000 0.0000 0.0000 0.0000 28.1265
#
#
#
# Elastic Compliance Matrix: (Units=1/GPa)
#
#
# Indices 1 2 3 4 5 6 
#
# 1 0.012542 -0.005235 -0.000840 0.000000 0.000000 0.000000
# 2 -0.005235 0.012542 -0.000840 0.000000 0.000000 0.000000
# 3 -0.000840 -0.000840 0.009625 0.000000 0.000000 0.000000
# 4 0.000000 0.000000 0.000000 0.046001 0.000000 0.000000
# 5 0.000000 0.000000 0.000000 0.000000 0.046001 0.000000
# 6 0.000000 0.000000 0.000000 0.000000 0.000000 0.035554
#
#
# Mechanical properties :
#
#
# Convention : Reuss Voigt Hill
#
# Bulk Modulus (GPa) = 47.89832 48.23580 48.06706
# Shear Modulus (GPa) = 27.31425 30.04407 28.67916
#
# Velocity S-wave (km/s) = 3.64073 3.81833 3.73058
# Velocity P-wave (km/s) = 6.39664 6.54577 6.47163
#
# Compressibility (1/GPa) = 0.02087756
#
# Stress axis : x y z
#
# Youngs Moduli (GPa) = 79.73352 79.73352 103.89400
#
# Poissons Ratio (x) = 0.41741 0.08730
# Poissons Ratio (y) = 0.41741 0.08730
# Poissons Ratio (z) = 0.06700 0.06700
#
# Static dielectric constant tensor:
#      x y z
#    x 1.826050 0.000000 0.000000 
#    y 0.000000 1.826050 0.000000 
#    z 0.000000 0.000000 1.827840 
# 
# From -- ./inp_files/4513.got.cif
#   From: 2010.05.17/outbox.cif.g08.bks.cpg/sg179_3_cif.got.tgz:4513.got - 2010.05.20 11:37:33.
