data_PCOD9583970
_publ_section_title
;
Structure prediction by ZEFSAII (Michael W. Deem and Ramdas Pophale) SiO2 
 PCOD9583970
Probable space group: P 62 2 2
;
_chemical_formula_sum "Si O2"
_cell_formula_units_Z 57
_cell_length_a 15.464984
_cell_length_b 15.464984
_cell_length_c 13.780752
_cell_angle_alpha 90.000000
_cell_angle_beta 90.000000
_cell_angle_gamma 120.000000
_cell_volume 2854.318937
_symmetry_space_group_name_H-M "P 62 2 2"
_symmetry_group_IT_number 180
_symmetry_cell_setting 'hexagonal'
loop_
_space_group_symop_operation_xyz
x,y,z
x-y,x,1/3+z
-y,x-y,2/3+z
-x,-y,z
-x+y,-x,1/3+z
y,-x+y,2/3+z
x-y,-y,-z
-x,-x+y,1/3-z
y,x,2/3-z
-y,-x,2/3-z
-x+y,y,-z
x,x-y,1/3-z
loop_
_atom_site_type_symbol
_atom_site_label
_atom_site_fract_x
_atom_site_fract_y
_atom_site_fract_z
Si Si1 0.044775 0.780460 0.371219
Si Si2 0.682998 0.365996 0.500000
Si Si3 0.283200 0.141600 0.166667
Si Si4 0.000000 0.500000 0.666667
Si Si5 0.163108 0.458402 0.629710
Si Si6 0.325815 0.325815 0.833334
Si Si7 0.769027 0.221442 0.181628
O O1 0.107399 0.892602 0.333334
O O2 0.994679 0.718043 0.272862
O O3 0.129405 0.757984 0.418056
O O4 0.966765 0.771788 0.451837
O O5 0.743293 0.443429 0.586413
O O6 0.569751 0.297516 0.537047
O O7 0.357883 0.213786 0.248081
O O8 0.929393 0.526075 0.605415
O O9 0.174976 0.447679 0.742841
O O10 0.306979 0.420238 0.842308
#
# Coordination Sequence:
#
# PCOD9583970 Si02
#       7
#    12   6   6   3  12   6  12
#     4  10  23  42  71 100 134 182 227 289 348 416
#     4  11  24  41  64 105 147 176 229 291 350 404
#     4  11  22  42  70 104 131 187 230 279 354 414
#     4  12  20  40  64 100 130 178 220 288 332 398
#     4  11  23  38  67 101 137 175 231 289 336 411
#     4  10  22  43  64  99 136 174 236 269 346 421
#     4  11  22  44  67  96 141 183 223 288 345 415
#
# _framework density 19.969736000000001
#
# number of rings (size 3 to 8) (size 9 to 14) (size 15 to 20)
#    0.000    1.263    4.211    1.263    0.000    5.474 
#    0.000    0.000    0.000   25.263    0.000    0.000 
#    0.000    0.000    0.000    0.000    0.000    0.000 
#
# Total GULP energy -317431.294004 kJ/mol
# GULP energy per Si atom -5568.970070 kJ/mol
# Density = 1.992428 g / cm^3
# Si number density = 19.969736 Si / 1000 Ang^3
#
#
#
# Elastic Constant Matrix: (Units=GPa)
#
#
# Indices 1 2 3 4 5 6 
#
# 1 126.3600 67.3727 43.7604 0.0000 0.0000 0.0000
# 2 67.3727 126.3600 43.7604 0.0000 0.0000 0.0000
# 3 43.7604 43.7604 116.5601 0.0000 0.0000 0.0000
# 4 0.0000 0.0000 0.0000 -2.2979 0.0000 0.0000
# 5 0.0000 0.0000 0.0000 0.0000 -2.2979 0.0000
# 6 0.0000 0.0000 0.0000 0.0000 0.0000 29.4937
#
#
#
# Elastic Compliance Matrix: (Units=1/GPa)
#
#
# Indices 1 2 3 4 5 6 
#
# 1 0.011584 -0.005368 -0.002334 0.000000 0.000000 0.000000
# 2 -0.005368 0.011584 -0.002334 0.000000 0.000000 0.000000
# 3 -0.002334 -0.002334 0.010332 0.000000 0.000000 0.000000
# 4 0.000000 0.000000 0.000000 -0.435181 0.000000 0.000000
# 5 0.000000 0.000000 0.000000 0.000000 -0.435181 0.000000
# 6 0.000000 0.000000 0.000000 0.000000 0.000000 0.033906
#
#
# Mechanical properties :
#
#
# Convention : Reuss Voigt Hill
#
# Bulk Modulus (GPa) = 74.46671 75.45191 74.95931
# Shear Modulus (GPa) = -6.42337 19.27202 6.42432
#
# Velocity S-wave (km/s) = -1.79542 3.10991 1.79555
# Velocity P-wave (km/s) = 5.75089 7.12465 6.47431
#
# Compressibility (1/GPa) = 0.01342882
#
# Stress axis : x y z
#
# Youngs Moduli (GPa) = 86.32292 86.32292 96.79092
#
# Poissons Ratio (x) = 0.46342 0.22588
# Poissons Ratio (y) = 0.46342 0.22588
# Poissons Ratio (z) = 0.20145 0.20145
#
# Static dielectric constant tensor:
#      x y z
#    x 1.749280 0.000000 0.000000 
#    y 0.000000 1.749280 0.000000 
#    z 0.000000 0.000000 1.824800 
# 
# From -- ./inp_files/6205.got.cif
#   From: 2010.05.17/outbox.cif.g08.bks.cpg/sg180_4_cif.got.tgz:6205.got - 2010.05.20 11:43:55.
