data_PCOD9583598
_publ_section_title
;
Structure prediction by ZEFSAII (Michael W. Deem and Ramdas Pophale) SiO2 
 PCOD9583598
Probable space group: P 65 2 2
;
_chemical_formula_sum "Si O2"
_cell_formula_units_Z 66
_cell_length_a 15.000000
_cell_length_b 15.000000
_cell_length_c 18.000000
_cell_angle_alpha 90.000000
_cell_angle_beta 90.000000
_cell_angle_gamma 120.000000
_cell_volume 3507.402885
_symmetry_space_group_name_H-M "P 65 2 2"
_symmetry_group_IT_number 179
_symmetry_cell_setting 'hexagonal'
loop_
_space_group_symop_operation_xyz
x,y,z
x-y,x,5/6+z
-y,x-y,2/3+z
-x,-y,1/2+z
-x+y,-x,1/3+z
y,-x+y,1/6+z
x-y,-y,-z
-x,-x+y,1/3-z
y,x,2/3-z
-y,-x,1/6-z
-x+y,y,1/2-z
x,x-y,5/6-z
loop_
_atom_site_type_symbol
_atom_site_label
_atom_site_fract_x
_atom_site_fract_y
_atom_site_fract_z
Si Si1 0.329339 0.476577 0.622458
Si Si2 0.340079 0.016580 0.657660
Si Si3 0.602009 0.791221 0.781281
Si Si4 0.480952 0.022498 0.912196
Si Si5 0.483115 0.808835 0.640420
Si Si6 0.738525 0.477049 0.750000
O O1 0.428108 0.571893 0.583334
O O2 0.308179 0.379526 0.571244
O O3 0.360692 0.481916 0.708307
O O4 0.235837 0.492951 0.600135
O O5 0.320913 0.086688 0.598253
O O6 0.437974 0.018552 0.617433
O O7 0.250571 0.903028 0.679409
O O8 0.521006 0.779802 0.715795
O O9 0.542816 0.720205 0.852898
O O10 0.388115 0.930388 0.867093
O O11 0.463679 0.000000 0.000000
O O12 0.362650 0.769746 0.632078
#
# Coordination Sequence:
#
# PCOD9583598 Si02
#       6
#    12  12  12  12  12   6
#     4   9  19  35  52  74 106 154 207 245 296 351
#     4  10  21  37  56  79 110 164 196 248 302 366
#     4  11  23  38  58  80 118 160 208 245 311 358
#     4  11  21  35  53  79 116 156 200 256 300 351
#     4  11  21  37  54  77 112 162 203 253 294 356
#     4  12  22  32  54  84 112 156 210 250 298 350
#
# _framework density 18.817342
#
# number of rings (size 3 to 8) (size 9 to 14) (size 15 to 20)
#    0.000    1.455    4.545    1.636    0.000    0.727 
#    3.273    0.000    0.000    0.000    0.000    0.000 
#    0.000    0.000   61.818    0.364    0.000    0.364 
#
# Total GULP energy -367743.966619 kJ/mol
# GULP energy per Si atom -5571.878282 kJ/mol
# Density = 1.877451 g / cm^3
# Si number density = 18.817342 Si / 1000 Ang^3
#
#
#
# Elastic Constant Matrix: (Units=GPa)
#
#
# Indices 1 2 3 4 5 6 
#
# 1 52.1505 16.8104 21.0023 0.0000 0.0000 0.0000
# 2 16.8104 52.1505 21.0023 0.0000 0.0000 0.0000
# 3 21.0023 21.0023 128.7190 0.0000 0.0000 0.0000
# 4 0.0000 0.0000 0.0000 28.5699 0.0000 0.0000
# 5 0.0000 0.0000 0.0000 0.0000 28.5699 0.0000
# 6 0.0000 0.0000 0.0000 0.0000 0.0000 17.6700
#
#
#
# Elastic Compliance Matrix: (Units=1/GPa)
#
#
# Indices 1 2 3 4 5 6 
#
# 1 0.022199 -0.006098 -0.002627 0.000000 0.000000 0.000000
# 2 -0.006098 0.022199 -0.002627 0.000000 0.000000 0.000000
# 3 -0.002627 -0.002627 0.008626 0.000000 0.000000 0.000000
# 4 0.000000 0.000000 0.000000 0.035002 0.000000 0.000000
# 5 0.000000 0.000000 0.000000 0.000000 0.035002 0.000000
# 6 0.000000 0.000000 0.000000 0.000000 0.000000 0.056593
#
#
# Mechanical properties :
#
#
# Convention : Reuss Voigt Hill
#
# Bulk Modulus (GPa) = 32.98153 38.96110 35.97132
# Shear Modulus (GPa) = 23.53705 26.57564 25.05634
#
# Velocity S-wave (km/s) = 3.54053 3.76213 3.65301
# Velocity P-wave (km/s) = 5.85483 6.29455 6.07866
#
# Compressibility (1/GPa) = 0.03032000
#
# Stress axis : x y z
#
# Youngs Moduli (GPa) = 45.04740 45.04740 115.92635
#
# Poissons Ratio (x) = 0.27468 0.30455
# Poissons Ratio (y) = 0.27468 0.30455
# Poissons Ratio (z) = 0.11835 0.11835
#
# Static dielectric constant tensor:
#      x y z
#    x 1.718670 0.000000 0.000000 
#    y 0.000000 1.718670 0.000000 
#    z 0.000000 0.000000 1.649200 
# 
# From -- ./inp_files/6738.got.cif
#   From: 2010.05.17/outbox.ucp.g08.bks.cvg/sg179_4_cif.got.tgz:6738.got - 2010.06.11 15:19:48.
