data_PCOD9583123
_publ_section_title
;
Structure prediction by ZEFSAII (Michael W. Deem and Ramdas Pophale) SiO2 
 PCOD9583123
Probable space group: P 65 2 2
;
_chemical_formula_sum "Si O2"
_cell_formula_units_Z 54
_cell_length_a 20.332405
_cell_length_b 20.332405
_cell_length_c 9.678532
_cell_angle_alpha 90.000000
_cell_angle_beta 90.000000
_cell_angle_gamma 120.000000
_cell_volume 3465.114785
_symmetry_space_group_name_H-M "P 65 2 2"
_symmetry_group_IT_number 179
_symmetry_cell_setting 'hexagonal'
loop_
_space_group_symop_operation_xyz
x,y,z
x-y,x,5/6+z
-y,x-y,2/3+z
-x,-y,1/2+z
-x+y,-x,1/3+z
y,-x+y,1/6+z
x-y,-y,-z
-x,-x+y,1/3-z
y,x,2/3-z
-y,-x,1/6-z
-x+y,y,1/2-z
x,x-y,5/6-z
loop_
_atom_site_type_symbol
_atom_site_label
_atom_site_fract_x
_atom_site_fract_y
_atom_site_fract_z
Si Si1 0.561019 0.412546 0.873779
Si Si2 0.557155 0.730766 0.536992
Si Si3 0.958896 0.585444 0.527846
Si Si4 0.463926 0.927851 0.750000
Si Si5 0.281548 0.563615 0.094362
O O1 0.593596 0.497262 0.930808
O O2 0.545151 0.423114 0.716783
O O3 0.626820 0.393573 0.903781
O O4 0.490225 0.347988 0.952763
O O5 0.587890 0.793945 0.416667
O O6 0.610006 0.707986 0.626327
O O7 0.500355 0.743328 0.640940
O O8 0.000000 0.630490 0.666667
O O9 0.022079 0.576893 0.440982
O O10 0.368507 0.631494 0.083334
O O11 0.264027 0.528053 0.250000
#
# Coordination Sequence:
#
# PCOD9583123 Si02
#       5
#    12  12  12   6  12
#     4  10  19  28  43  61  77 104 139 170 209 251
#     4  11  21  32  45  63  83 104 133 173 220 268
#     4   9  17  32  46  59  79 103 135 174 210 251
#     4  10  18  30  46  60  74 102 146 174 200 256
#     4  11  21  31  40  55  84 115 132 161 216 279
#
# _framework density 15.583898
#
# number of rings (size 3 to 8) (size 9 to 14) (size 15 to 20)
#    0.000    1.778    2.222    5.333    4.667    0.000 
#    0.000    0.000    0.000    0.000    0.000    0.000 
#    0.000    0.000    0.000    0.000    0.000    0.000 
#
# Total GULP energy -300631.295267 kJ/mol
# GULP energy per Si atom -5567.246209 kJ/mol
# Density = 1.554843 g / cm^3
# Si number density = 15.583898 Si / 1000 Ang^3
#
#
#
# Elastic Constant Matrix: (Units=GPa)
#
#
# Indices 1 2 3 4 5 6 
#
# 1 42.5478 21.5827 26.2385 0.0000 0.0000 0.0000
# 2 21.5827 42.5478 26.2385 0.0000 0.0000 0.0000
# 3 26.2385 26.2385 102.1137 0.0000 0.0000 0.0000
# 4 0.0000 0.0000 0.0000 23.1468 0.0000 0.0000
# 5 0.0000 0.0000 0.0000 0.0000 23.1468 0.0000
# 6 0.0000 0.0000 0.0000 0.0000 0.0000 10.4826
#
#
#
# Elastic Compliance Matrix: (Units=1/GPa)
#
#
# Indices 1 2 3 4 5 6 
#
# 1 0.033721 -0.013977 -0.005073 0.000000 0.000000 0.000000
# 2 -0.013977 0.033721 -0.005073 0.000000 0.000000 0.000000
# 3 -0.005073 -0.005073 0.012400 0.000000 0.000000 0.000000
# 4 0.000000 0.000000 0.000000 0.043203 0.000000 0.000000
# 5 0.000000 0.000000 0.000000 0.000000 0.043203 0.000000
# 6 0.000000 0.000000 0.000000 0.000000 0.000000 0.095396
#
#
# Mechanical properties :
#
#
# Convention : Reuss Voigt Hill
#
# Bulk Modulus (GPa) = 31.64972 37.25875 34.45424
# Shear Modulus (GPa) = 15.60431 18.89853 17.25142
#
# Velocity S-wave (km/s) = 3.16778 3.48616 3.33077
# Velocity P-wave (km/s) = 5.80802 6.33757 6.07856
#
# Compressibility (1/GPa) = 0.03159585
#
# Stress axis : x y z
#
# Youngs Moduli (GPa) = 29.65469 29.65469 80.64314
#
# Poissons Ratio (x) = 0.41448 0.40914
# Poissons Ratio (y) = 0.41448 0.40914
# Poissons Ratio (z) = 0.15045 0.15045
#
# Static dielectric constant tensor:
#      x y z
#    x 1.553320 0.000000 0.000000 
#    y 0.000000 1.553320 0.000000 
#    z 0.000000 0.000000 1.689520 
# 
# From -- ./inp_files/3482.got.cif
#   From: 2010.05.17/outbox.cif.g08.bks.cpg/sg179_2_cif.got.tgz:3482.got - 2010.05.20 11:37:33.
