data_PCOD9583722
_publ_section_title
;
Structure prediction by ZEFSAII (Michael W. Deem and Ramdas Pophale) SiO2 
 PCOD9583722
Probable space group: P 62 2 2
;
_chemical_formula_sum "Si O2"
_cell_formula_units_Z 48
_cell_length_a 11.710445
_cell_length_b 11.710445
_cell_length_c 19.538189
_cell_angle_alpha 90.000000
_cell_angle_beta 90.000000
_cell_angle_gamma 120.000000
_cell_volume 2320.394009
_symmetry_space_group_name_H-M "P 62 2 2"
_symmetry_group_IT_number 180
_symmetry_cell_setting 'hexagonal'
loop_
_space_group_symop_operation_xyz
x,y,z
x-y,x,1/3+z
-y,x-y,2/3+z
-x,-y,z
-x+y,-x,1/3+z
y,-x+y,2/3+z
x-y,-y,-z
-x,-x+y,1/3-z
y,x,2/3-z
-y,-x,2/3-z
-x+y,y,-z
x,x-y,1/3-z
loop_
_atom_site_type_symbol
_atom_site_label
_atom_site_fract_x
_atom_site_fract_y
_atom_site_fract_z
Si Si1 0.036175 0.638475 0.289386
Si Si2 0.191213 0.597531 0.762096
Si Si3 0.508936 0.205272 0.758903
Si Si4 0.228125 0.859346 0.996589
O O1 0.110317 0.641905 0.360560
O O2 0.148917 0.750234 0.241546
O O3 0.000000 0.500000 0.256191
O O4 0.909632 0.648959 0.310684
O O5 0.348471 0.663714 0.749148
O O6 0.153874 0.538413 0.837914
O O7 0.127919 0.471099 0.713807
O O8 0.165825 0.716649 0.741515
O O9 0.237081 0.000000 0.000000
#
# Coordination Sequence:
#
# PCOD9583722 Si02
#       4
#    12  12  12  12
#     4  11  19  38  58  84 128 160 204 256 312 388
#     4  10  19  37  58  90 119 149 208 268 314 369
#     4  10  21  35  59  91 116 160 208 258 311 373
#     4  11  22  38  58  86 127 164 202 259 323 384
#
# _framework density 20.686143000000001
#
# number of rings (size 3 to 8) (size 9 to 14) (size 15 to 20)
#    0.000    1.500    5.000    3.000    0.000    3.000 
#    0.000    2.500    0.000    0.000    0.000    7.000 
#    0.000    0.000    0.000    0.000    0.000    0.000 
#
# Total GULP energy -267444.351600 kJ/mol
# GULP energy per Si atom -5571.757325 kJ/mol
# Density = 2.063906 g / cm^3
# Si number density = 20.686143 Si / 1000 Ang^3
#
#
#
# Elastic Constant Matrix: (Units=GPa)
#
#
# Indices 1 2 3 4 5 6 
#
# 1 99.7248 37.6304 4.4260 0.0000 0.0000 0.0000
# 2 37.6304 99.7248 4.4260 0.0000 0.0000 0.0000
# 3 4.4260 4.4260 76.9434 0.0000 0.0000 0.0000
# 4 0.0000 0.0000 0.0000 5.8775 0.0000 0.0000
# 5 0.0000 0.0000 0.0000 0.0000 5.8775 0.0000
# 6 0.0000 0.0000 0.0000 0.0000 0.0000 31.0472
#
#
#
# Elastic Compliance Matrix: (Units=1/GPa)
#
#
# Indices 1 2 3 4 5 6 
#
# 1 0.011706 -0.004399 -0.000420 0.000000 0.000000 0.000000
# 2 -0.004399 0.011706 -0.000420 0.000000 0.000000 0.000000
# 3 -0.000420 -0.000420 0.013045 0.000000 0.000000 0.000000
# 4 0.000000 0.000000 0.000000 0.170139 0.000000 0.000000
# 5 0.000000 0.000000 0.000000 0.000000 0.170139 0.000000
# 6 0.000000 0.000000 0.000000 0.000000 0.000000 0.032209
#
#
# Mechanical properties :
#
#
# Convention : Reuss Voigt Hill
#
# Bulk Modulus (GPa) = 38.49335 41.03975 39.76655
# Shear Modulus (GPa) = 11.67998 23.88783 17.78391
#
# Velocity S-wave (km/s) = 2.37877 3.40188 2.93525
# Velocity P-wave (km/s) = 5.11795 5.94245 5.54554
#
# Compressibility (1/GPa) = 0.02597851
#
# Stress axis : x y z
#
# Youngs Moduli (GPa) = 85.42632 85.42632 76.65814
#
# Poissons Ratio (x) = 0.37575 0.03222
# Poissons Ratio (y) = 0.37575 0.03222
# Poissons Ratio (z) = 0.03591 0.03591
#
# Static dielectric constant tensor:
#      x y z
#    x 1.782350 0.000000 0.000000 
#    y 0.000000 1.782350 0.000000 
#    z 0.000000 0.000000 1.868140 
# 
# From -- ./inp_files/8623.got.cif
#   From: 2010.05.17/outbox.cif.g08.bks.cpg/sg180_5_cif.got.tgz:8623.got - 2010.05.20 11:43:55.
