data_PCOD9583189
_publ_section_title
;
Structure prediction by ZEFSAII (Michael W. Deem and Ramdas Pophale) SiO2 
 PCOD9583189
Probable space group: P 65 2 2
;
_chemical_formula_sum "Si O2"
_cell_formula_units_Z 48
_cell_length_a 15.298680
_cell_length_b 15.298680
_cell_length_c 9.533469
_cell_angle_alpha 90.000000
_cell_angle_beta 90.000000
_cell_angle_gamma 120.000000
_cell_volume 1932.366553
_symmetry_space_group_name_H-M "P 65 2 2"
_symmetry_group_IT_number 179
_symmetry_cell_setting 'hexagonal'
loop_
_space_group_symop_operation_xyz
x,y,z
x-y,x,5/6+z
-y,x-y,2/3+z
-x,-y,1/2+z
-x+y,-x,1/3+z
y,-x+y,1/6+z
x-y,-y,-z
-x,-x+y,1/3-z
y,x,2/3-z
-y,-x,1/6-z
-x+y,y,1/2-z
x,x-y,5/6-z
loop_
_atom_site_type_symbol
_atom_site_label
_atom_site_fract_x
_atom_site_fract_y
_atom_site_fract_z
Si Si1 0.125048 0.923746 0.333991
Si Si2 0.913257 0.456629 0.916667
Si Si3 0.063877 0.388575 0.966052
Si Si4 0.721775 0.721775 0.333334
Si Si5 0.717037 0.456969 0.410702
O O1 0.233091 0.938895 0.377268
O O2 0.085661 0.830548 0.224256
O O3 0.030274 0.881426 0.437074
O O4 0.842549 0.365914 0.812689
O O5 0.982910 0.422483 0.998797
O O6 0.175544 0.482345 0.987086
O O7 0.038390 0.351330 0.801674
O O8 0.743891 0.487781 0.250000
O O9 0.676847 0.338424 0.416667
#
# Coordination Sequence:
#
# PCOD9583189 Si02
#       5
#    12   6  12   6  12
#     4  10  19  34  63 101 133 175 228 287 340 418
#     4  12  26  42  70 102 142 184 238 308 354 430
#     4  11  21  40  64 102 133 178 230 296 355 414
#     4  10  20  38  72 102 136 172 240 302 342 422
#     4  12  24  44  68 102 137 184 237 289 359 435
#
# _framework density 24.840008999999998
#
# number of rings (size 3 to 8) (size 9 to 14) (size 15 to 20)
#    0.000    1.000    2.500    9.000    0.000    0.000 
#    0.000    0.000    0.000    9.000    0.000    0.000 
#    0.000    0.000    0.000    0.000    0.000    0.000 
#
# Total GULP energy -268776.875276 kJ/mol
# GULP energy per Si atom -5599.518235 kJ/mol
# Density = 2.478347 g / cm^3
# Si number density = 24.840009 Si / 1000 Ang^3
#
#
#
# Elastic Constant Matrix: (Units=GPa)
#
#
# Indices 1 2 3 4 5 6 
#
# 1 176.9502 58.2792 6.3880 0.0000 0.0000 0.0000
# 2 58.2792 176.9502 6.3880 0.0000 0.0000 0.0000
# 3 6.3880 6.3880 44.1712 0.0000 0.0000 0.0000
# 4 0.0000 0.0000 0.0000 2.5846 0.0000 0.0000
# 5 0.0000 0.0000 0.0000 0.0000 2.5846 0.0000
# 6 0.0000 0.0000 0.0000 0.0000 0.0000 59.3355
#
#
#
# Elastic Compliance Matrix: (Units=1/GPa)
#
#
# Indices 1 2 3 4 5 6 
#
# 1 0.006356 -0.002071 -0.000620 0.000000 0.000000 0.000000
# 2 -0.002071 0.006356 -0.000620 0.000000 0.000000 0.000000
# 3 -0.000620 -0.000620 0.022818 0.000000 0.000000 0.000000
# 4 0.000000 0.000000 0.000000 0.386909 0.000000 0.000000
# 5 0.000000 0.000000 0.000000 0.000000 0.386909 0.000000
# 6 0.000000 0.000000 0.000000 0.000000 0.000000 0.016853
#
#
# Mechanical properties :
#
#
# Convention : Reuss Voigt Hill
#
# Bulk Modulus (GPa) = 34.59079 60.02019 47.30549
# Shear Modulus (GPa) = 5.93502 34.70203 20.31852
#
# Velocity S-wave (km/s) = 1.54741 3.74173 2.86313
# Velocity P-wave (km/s) = 4.14105 6.54848 5.47863
#
# Compressibility (1/GPa) = 0.02890943
#
# Stress axis : x y z
#
# Youngs Moduli (GPa) = 157.33803 157.33803 43.82421
#
# Poissons Ratio (x) = 0.32583 0.02716
# Poissons Ratio (y) = 0.32583 0.02716
# Poissons Ratio (z) = 0.09750 0.09750
#
# Static dielectric constant tensor:
#      x y z
#    x 1.946180 0.000000 0.000000 
#    y 0.000000 1.946180 0.000000 
#    z 0.000000 0.000000 2.133560 
# 
# From -- ./inp_files/4277.got.cif
#   From: 2010.05.17/outbox.cif.g08.bks.cpg/sg179_3_cif.got.tgz:4277.got - 2010.05.20 11:37:33.
