data_PCOD9583774
_publ_section_title
;
Structure prediction by ZEFSAII (Michael W. Deem and Ramdas Pophale) SiO2 
 PCOD9583774
Probable space group: P 62 2 2
;
_chemical_formula_sum "Si O2"
_cell_formula_units_Z 84
_cell_length_a 14.979807
_cell_length_b 14.979807
_cell_length_c 23.669879
_cell_angle_alpha 90.000000
_cell_angle_beta 90.000000
_cell_angle_gamma 120.000000
_cell_volume 4599.801658
_symmetry_space_group_name_H-M "P 62 2 2"
_symmetry_group_IT_number 180
_symmetry_cell_setting 'hexagonal'
loop_
_space_group_symop_operation_xyz
x,y,z
x-y,x,1/3+z
-y,x-y,2/3+z
-x,-y,z
-x+y,-x,1/3+z
y,-x+y,2/3+z
x-y,-y,-z
-x,-x+y,1/3-z
y,x,2/3-z
-y,-x,2/3-z
-x+y,y,-z
x,x-y,1/3-z
loop_
_atom_site_type_symbol
_atom_site_label
_atom_site_fract_x
_atom_site_fract_y
_atom_site_fract_z
Si Si1 0.828825 0.169483 0.995732
Si Si2 0.278982 0.992842 0.092935
Si Si3 0.160955 0.047864 0.817217
Si Si4 0.940661 0.717827 0.958986
Si Si5 0.396352 0.900822 0.238814
Si Si6 0.276999 0.572579 0.380033
Si Si7 0.488438 0.585401 0.215880
O O1 0.790754 0.248098 0.977640
O O2 0.953080 0.233131 0.995276
O O3 0.797935 0.082816 0.947072
O O4 0.760067 0.104220 0.049781
O O5 0.195630 0.950671 0.141431
O O6 0.389877 0.054307 0.124454
O O7 0.138469 0.138469 0.833334
O O8 0.197631 0.049731 0.753549
O O9 0.057470 0.942531 0.833334
O O10 0.918665 0.615202 0.924282
O O11 0.846040 0.692079 0.000000
O O12 0.388968 0.797498 0.262658
O O13 0.422427 0.897579 0.172286
O O14 0.500000 0.000000 0.261413
O O15 0.349342 0.650659 0.333334
O O16 0.352587 0.561529 0.424386
O O17 0.500000 0.500000 0.253178
#
# Coordination Sequence:
#
# PCOD9583774 Si02
#       7
#    12  12  12  12  12  12  12
#     4  10  21  37  58  90 125 163 204 254 322 387
#     4  10  20  36  59  87 126 160 199 258 321 377
#     4  11  22  37  57  88 120 161 214 257 309 375
#     4  12  24  41  62  87 128 172 214 261 315 380
#     4  11  22  40  61  89 118 164 219 256 309 380
#     4  11  22  37  60  90 125 157 204 263 325 375
#     4  10  21  36  61  91 120 155 199 263 323 384
#
# _framework density 18.261655999999999
#
# number of rings (size 3 to 8) (size 9 to 14) (size 15 to 20)
#    0.000    1.286    2.857    4.286    0.000    1.429 
#    0.000    0.000    0.000    0.000    0.000    0.000 
#    0.000    0.000    0.000    0.000    0.000    0.000 
#
# Total GULP energy -467885.647893 kJ/mol
# GULP energy per Si atom -5570.067237 kJ/mol
# Density = 1.822009 g / cm^3
# Si number density = 18.261656 Si / 1000 Ang^3
#
#
#
# Elastic Constant Matrix: (Units=GPa)
#
#
# Indices 1 2 3 4 5 6 
#
# 1 98.6079 35.1195 31.3960 0.0000 0.0000 0.0000
# 2 35.1195 98.6079 31.3960 0.0000 0.0000 0.0000
# 3 31.3960 31.3960 72.7011 0.0000 0.0000 0.0000
# 4 0.0000 0.0000 0.0000 32.3027 0.0000 0.0000
# 5 0.0000 0.0000 0.0000 0.0000 32.3027 0.0000
# 6 0.0000 0.0000 0.0000 0.0000 0.0000 31.7442
#
#
#
# Elastic Compliance Matrix: (Units=1/GPa)
#
#
# Indices 1 2 3 4 5 6 
#
# 1 0.012565 -0.003185 -0.004051 0.000000 0.000000 0.000000
# 2 -0.003185 0.012565 -0.004051 0.000000 0.000000 0.000000
# 3 -0.004051 -0.004051 0.017254 0.000000 0.000000 0.000000
# 4 0.000000 0.000000 0.000000 0.030957 0.000000 0.000000
# 5 0.000000 0.000000 0.000000 0.000000 0.030957 0.000000
# 6 0.000000 0.000000 0.000000 0.000000 0.000000 0.031502
#
#
# Mechanical properties :
#
#
# Convention : Reuss Voigt Hill
#
# Bulk Modulus (GPa) = 50.47825 51.74889 51.11357
# Shear Modulus (GPa) = 30.30709 30.73695 30.52202
#
# Velocity S-wave (km/s) = 4.07824 4.10706 4.09268
# Velocity P-wave (km/s) = 7.06242 7.13369 7.09815
#
# Compressibility (1/GPa) = 0.01981051
#
# Stress axis : x y z
#
# Youngs Moduli (GPa) = 79.58356 79.58356 57.95906
#
# Poissons Ratio (x) = 0.25351 0.23478
# Poissons Ratio (y) = 0.25351 0.23478
# Poissons Ratio (z) = 0.32237 0.32237
#
# Static dielectric constant tensor:
#      x y z
#    x 1.651970 0.000000 0.000000 
#    y 0.000000 1.651970 0.000000 
#    z 0.000000 0.000000 1.642100 
# 
# From -- ./inp_files/10251.got.cif
#   From: 2010.05.17/outbox.cif.g08.bks.cpg/sg180_6_cif.got.tgz:10251.got - 2010.05.20 11:43:55.
