data_PCOD9583998
_publ_section_title
;
Structure prediction by ZEFSAII (Michael W. Deem and Ramdas Pophale) SiO2 
 PCOD9583998
Probable space group: P 62 2 2
;
_chemical_formula_sum "Si O2"
_cell_formula_units_Z 72
_cell_length_a 15.275806
_cell_length_b 15.275806
_cell_length_c 17.829708
_cell_angle_alpha 90.000000
_cell_angle_beta 90.000000
_cell_angle_gamma 120.000000
_cell_volume 3603.156543
_symmetry_space_group_name_H-M "P 62 2 2"
_symmetry_group_IT_number 180
_symmetry_cell_setting 'hexagonal'
loop_
_space_group_symop_operation_xyz
x,y,z
x-y,x,1/3+z
-y,x-y,2/3+z
-x,-y,z
-x+y,-x,1/3+z
y,-x+y,2/3+z
x-y,-y,-z
-x,-x+y,1/3-z
y,x,2/3-z
-y,-x,2/3-z
-x+y,y,-z
x,x-y,1/3-z
loop_
_atom_site_type_symbol
_atom_site_label
_atom_site_fract_x
_atom_site_fract_y
_atom_site_fract_z
Si Si1 0.762885 0.686269 0.402739
Si Si2 0.893485 0.407619 0.977036
Si Si3 0.753731 0.464741 0.213987
Si Si4 0.110874 0.580883 0.752442
Si Si5 0.827912 0.269418 0.409565
Si Si6 0.302885 0.265025 0.094613
O O1 0.718139 0.718139 0.333334
O O2 0.693070 0.565975 0.417043
O O3 0.879738 0.719852 0.391473
O O4 0.753223 0.725291 0.484352
O O5 0.819201 0.336597 0.043599
O O6 0.000000 0.500000 0.009150
O O7 0.853676 0.467740 0.926410
O O8 0.916091 0.338062 0.922373
O O9 0.763253 0.381627 0.166667
O O10 0.635939 0.426979 0.227689
O O11 0.783094 0.554576 0.153402
O O12 0.098180 0.549090 0.666667
O O13 0.000000 0.500000 0.787765
O O14 0.767328 0.232673 0.333334
O O15 0.925373 0.257558 0.398498
#
# Coordination Sequence:
#
# PCOD9583998 Si02
#       6
#    12  12  12  12  12  12
#     4  11  22  40  64  96 129 166 211 261 345 407
#     4  10  23  44  61  87 131 175 226 272 331 398
#     4  12  25  37  64  87 126 183 225 274 334 401
#     4  11  22  35  55  90 125 161 215 262 323 398
#     4  11  23  42  58  90 126 166 226 273 330 399
#     4  10  24  39  64  91 128 169 209 278 329 397
#
# _framework density 19.982479000000001
#
# number of rings (size 3 to 8) (size 9 to 14) (size 15 to 20)
#    0.000    1.167    3.333    3.000    9.333    1.667 
#    0.000    0.000    0.000    0.500    0.000    2.333 
#    0.000    0.000    0.000    0.000    0.000    0.000 
#
# Total GULP energy -401225.112371 kJ/mol
# GULP energy per Si atom -5572.571005 kJ/mol
# Density = 1.993700 g / cm^3
# Si number density = 19.982479 Si / 1000 Ang^3
#
#
#
# Elastic Constant Matrix: (Units=GPa)
#
#
# Indices 1 2 3 4 5 6 
#
# 1 78.3439 15.7905 30.2982 0.0000 0.0000 0.0000
# 2 15.7905 78.3439 30.2982 0.0000 0.0000 0.0000
# 3 30.2982 30.2982 100.3996 0.0000 0.0000 0.0000
# 4 0.0000 0.0000 0.0000 -7.1941 0.0000 0.0000
# 5 0.0000 0.0000 0.0000 0.0000 -7.1941 0.0000
# 6 0.0000 0.0000 0.0000 0.0000 0.0000 31.2767
#
#
#
# Elastic Compliance Matrix: (Units=1/GPa)
#
#
# Indices 1 2 3 4 5 6 
#
# 1 0.014585 -0.001401 -0.003979 0.000000 0.000000 0.000000
# 2 -0.001401 0.014585 -0.003979 0.000000 0.000000 0.000000
# 3 -0.003979 -0.003979 0.012362 0.000000 0.000000 0.000000
# 4 0.000000 0.000000 0.000000 -0.139002 0.000000 0.000000
# 5 0.000000 0.000000 0.000000 0.000000 -0.139002 0.000000
# 6 0.000000 0.000000 0.000000 0.000000 0.000000 0.031973
#
#
# Mechanical properties :
#
#
# Convention : Reuss Voigt Hill
#
# Bulk Modulus (GPa) = 43.83019 45.54012 44.68516
# Shear Modulus (GPa) = -28.06182 15.42439 -6.31872
#
# Velocity S-wave (km/s) = -3.75149 2.78131 -1.78017
# Velocity P-wave (km/s) = 1.79360 5.75793 4.26443
#
# Compressibility (1/GPa) = 0.02281533
#
# Stress axis : x y z
#
# Youngs Moduli (GPa) = 68.56208 68.56208 80.89593
#
# Poissons Ratio (x) = 0.09606 0.32186
# Poissons Ratio (y) = 0.09606 0.32186
# Poissons Ratio (z) = 0.27279 0.27279
#
# Static dielectric constant tensor:
#      x y z
#    x 2.158360 0.000000 0.000000 
#    y 0.000000 2.158360 0.000000 
#    z 0.000000 0.000000 1.860370 
# 
# From -- ./inp_files/7802.got.cif
#   From: 2010.05.17/outbox.cif.g08.bks.cpg/sg180_4_cif.got.tgz:7802.got - 2010.05.20 11:43:55.
