data_PCOD9583298
_publ_section_title
;
Structure prediction by ZEFSAII (Michael W. Deem and Ramdas Pophale) SiO2 
 PCOD9583298
Probable space group: P 65 2 2
;
_chemical_formula_sum "Si O2"
_cell_formula_units_Z 66
_cell_length_a 14.742820
_cell_length_b 14.742820
_cell_length_c 19.252154
_cell_angle_alpha 90.000000
_cell_angle_beta 90.000000
_cell_angle_gamma 120.000000
_cell_volume 3623.857277
_symmetry_space_group_name_H-M "P 65 2 2"
_symmetry_group_IT_number 179
_symmetry_cell_setting 'hexagonal'
loop_
_space_group_symop_operation_xyz
x,y,z
x-y,x,5/6+z
-y,x-y,2/3+z
-x,-y,1/2+z
-x+y,-x,1/3+z
y,-x+y,1/6+z
x-y,-y,-z
-x,-x+y,1/3-z
y,x,2/3-z
-y,-x,1/6-z
-x+y,y,1/2-z
x,x-y,5/6-z
loop_
_atom_site_type_symbol
_atom_site_label
_atom_site_fract_x
_atom_site_fract_y
_atom_site_fract_z
Si Si1 0.851874 0.366727 0.272650
Si Si2 0.210013 0.605007 0.416667
Si Si3 0.852544 0.330225 0.786533
Si Si4 0.135213 0.825209 0.798635
Si Si5 0.215434 0.607717 0.916667
Si Si6 0.461808 0.461808 0.833334
Si Si7 0.122596 0.919504 0.659064
O O1 0.731347 0.286749 0.248906
O O2 0.904349 0.297755 0.293303
O O3 0.846022 0.423241 0.343277
O O4 0.915338 0.439421 0.209876
O O5 0.142283 0.590874 0.347527
O O6 0.866133 0.239310 0.823027
O O7 0.733957 0.282285 0.756728
O O8 0.934917 0.377717 0.725326
O O9 0.155120 0.869992 0.720986
O O10 0.043496 0.842861 0.827402
O O11 0.125556 0.874445 0.583334
O O12 0.000000 0.884059 0.666667
#
# Coordination Sequence:
#
# PCOD9583298 Si02
#       7
#    12   6  12  12   6   6  12
#     4  10  21  34  57  84 113 147 199 229 301 346
#     4   8  18  41  56  76 106 162 180 231 298 360
#     4  10  21  37  58  80 117 149 201 230 293 349
#     4   9  20  37  56  83 109 150 185 235 284 351
#     4   8  18  41  58  70 108 170 182 229 294 364
#     4  12  24  32  52  90 116 146 194 252 278 342
#     4   9  18  34  60  84 113 141 179 235 302 340
#
# _framework density 18.212637999999998
#
# number of rings (size 3 to 8) (size 9 to 14) (size 15 to 20)
#    0.000    2.909    0.000    2.182    3.818    6.545 
#    0.000    0.000   16.000    0.000    0.000    0.000 
#    0.000    0.000    0.000    0.000    0.000    0.000 
#
# Total GULP energy -367454.029327 kJ/mol
# GULP energy per Si atom -5567.485293 kJ/mol
# Density = 1.817119 g / cm^3
# Si number density = 18.212638 Si / 1000 Ang^3
#
#
#
# Elastic Constant Matrix: (Units=GPa)
#
#
# Indices 1 2 3 4 5 6 
#
# 1 69.6317 37.4188 56.6400 0.0000 0.0000 0.0000
# 2 37.4188 69.6317 56.6400 0.0000 0.0000 0.0000
# 3 56.6400 56.6400 159.7339 0.0000 0.0000 0.0000
# 4 0.0000 0.0000 0.0000 30.9633 0.0000 0.0000
# 5 0.0000 0.0000 0.0000 0.0000 30.9633 0.0000
# 6 0.0000 0.0000 0.0000 0.0000 0.0000 16.1065
#
#
#
# Elastic Compliance Matrix: (Units=1/GPa)
#
#
# Indices 1 2 3 4 5 6 
#
# 1 0.022998 -0.008046 -0.005302 0.000000 0.000000 0.000000
# 2 -0.008046 0.022998 -0.005302 0.000000 0.000000 0.000000
# 3 -0.005302 -0.005302 0.010020 0.000000 0.000000 0.000000
# 4 0.000000 0.000000 0.000000 0.032296 0.000000 0.000000
# 5 0.000000 0.000000 0.000000 0.000000 0.032296 0.000000
# 6 0.000000 0.000000 0.000000 0.000000 0.000000 0.062087
#
#
# Mechanical properties :
#
#
# Convention : Reuss Voigt Hill
#
# Bulk Modulus (GPa) = 53.42822 66.71057 60.06939
# Shear Modulus (GPa) = 22.10119 25.49320 23.79719
#
# Velocity S-wave (km/s) = 3.48732 3.74539 3.61866
# Velocity P-wave (km/s) = 6.75387 7.44393 7.10728
#
# Compressibility (1/GPa) = 0.01871670
#
# Stress axis : x y z
#
# Youngs Moduli (GPa) = 43.48296 43.48296 99.79780
#
# Poissons Ratio (x) = 0.34986 0.52910
# Poissons Ratio (y) = 0.34986 0.52910
# Poissons Ratio (z) = 0.23053 0.23053
#
# Static dielectric constant tensor:
#      x y z
#    x 1.642310 0.000000 0.000000 
#    y 0.000000 1.642310 0.000000 
#    z 0.000000 0.000000 2.407430 
# 
# From -- ./inp_files/7683.got.cif
#   From: 2010.05.17/outbox.cif.g08.bks.cpg/sg179_4_cif.got.tgz:7683.got - 2010.05.20 11:37:33.
