data_PCOD9583579
_publ_section_title
;
Structure prediction by ZEFSAII (Michael W. Deem and Ramdas Pophale) SiO2 
 PCOD9583579
Probable space group: P 65 2 2
;
_chemical_formula_sum "Si O2"
_cell_formula_units_Z 42
_cell_length_a 7.819091
_cell_length_b 7.819091
_cell_length_c 36.254549
_cell_angle_alpha 90.000000
_cell_angle_beta 90.000000
_cell_angle_gamma 120.000000
_cell_volume 1919.577602
_symmetry_space_group_name_H-M "P 65 2 2"
_symmetry_group_IT_number 179
_symmetry_cell_setting 'hexagonal'
loop_
_space_group_symop_operation_xyz
x,y,z
x-y,x,5/6+z
-y,x-y,2/3+z
-x,-y,1/2+z
-x+y,-x,1/3+z
y,-x+y,1/6+z
x-y,-y,-z
-x,-x+y,1/3-z
y,x,2/3-z
-y,-x,1/6-z
-x+y,y,1/2-z
x,x-y,5/6-z
loop_
_atom_site_type_symbol
_atom_site_label
_atom_site_fract_x
_atom_site_fract_y
_atom_site_fract_z
Si Si1 0.400132 0.894634 0.143399
Si Si2 0.869490 0.107324 0.895632
Si Si3 0.000000 0.208810 0.666667
Si Si4 0.544050 0.701188 0.613741
O O1 0.555833 0.861195 0.120221
O O2 0.478138 0.921795 0.185096
O O3 0.163435 0.752174 0.146749
O O4 0.411821 0.090681 0.128302
O O5 0.030340 0.141091 0.863278
O O6 0.985461 0.271146 0.926436
O O7 0.800232 0.900116 0.916667
O O8 0.374602 0.625399 0.583334
#
# Coordination Sequence:
#
# PCOD9583579 Si02
#       4
#    12  12   6  12
#     4  12  25  48  75 111 155 199 263 323 384 475
#     4  12  24  49  79 111 156 208 253 329 395 455
#     4  12  24  48  76 108 158 200 264 314 388 486
#     4  12  24  47  72 111 157 202 262 320 396 473
#
# _framework density 21.879816000000002
#
# number of rings (size 3 to 8) (size 9 to 14) (size 15 to 20)
#    0.000    0.000    8.571    0.857    0.000    0.000 
#   15.429    1.429    0.000    0.000    0.000    0.000 
#    0.000    0.000    0.000    0.000    0.000    0.000 
#
# Total GULP energy -234763.426614 kJ/mol
# GULP energy per Si atom -5589.605396 kJ/mol
# Density = 2.183002 g / cm^3
# Si number density = 21.879816 Si / 1000 Ang^3
#
#
#
# Elastic Constant Matrix: (Units=GPa)
#
#
# Indices 1 2 3 4 5 6 
#
# 1 128.8949 70.9621 56.8163 0.0000 0.0000 0.0000
# 2 70.9621 128.8949 56.8163 0.0000 0.0000 0.0000
# 3 56.8163 56.8163 104.5230 0.0000 0.0000 0.0000
# 4 0.0000 0.0000 0.0000 44.5465 0.0000 0.0000
# 5 0.0000 0.0000 0.0000 0.0000 44.5465 0.0000
# 6 0.0000 0.0000 0.0000 0.0000 0.0000 28.9664
#
#
#
# Elastic Compliance Matrix: (Units=1/GPa)
#
#
# Indices 1 2 3 4 5 6 
#
# 1 0.012252 -0.005010 -0.003936 0.000000 0.000000 0.000000
# 2 -0.005010 0.012252 -0.003936 0.000000 0.000000 0.000000
# 3 -0.003936 -0.003936 0.013847 0.000000 0.000000 0.000000
# 4 0.000000 0.000000 0.000000 0.022448 0.000000 0.000000
# 5 0.000000 0.000000 0.000000 0.000000 0.022448 0.000000
# 6 0.000000 0.000000 0.000000 0.000000 0.000000 0.034523
#
#
# Mechanical properties :
#
#
# Convention : Reuss Voigt Hill
#
# Bulk Modulus (GPa) = 79.46292 81.27802 80.37047
# Shear Modulus (GPa) = 33.84560 35.45977 34.65268
#
# Velocity S-wave (km/s) = 3.93732 4.03011 3.98398
# Velocity P-wave (km/s) = 7.55425 7.67358 7.61415
#
# Compressibility (1/GPa) = 0.01258449
#
# Stress axis : x y z
#
# Youngs Moduli (GPa) = 81.62237 81.62237 72.21894
#
# Poissons Ratio (x) = 0.40891 0.28428
# Poissons Ratio (y) = 0.40891 0.28428
# Poissons Ratio (z) = 0.32130 0.32130
#
# Static dielectric constant tensor:
#      x y z
#    x 1.827070 0.000000 0.000000 
#    y 0.000000 1.827070 0.000000 
#    z 0.000000 0.000000 1.797840 
# 
# From -- ./inp_files/9281.got.cif
#   From: 2010.05.17/outbox.cif.g08.bks.cpg/sg179_5_cif.got.tgz:9281.got - 2010.05.20 11:37:33.
