data_PCOD9583596
_publ_section_title
;
Structure prediction by ZEFSAII (Michael W. Deem and Ramdas Pophale) SiO2 
 PCOD9583596
Probable space group: P 65 2 2
;
_chemical_formula_sum "Si O2"
_cell_formula_units_Z 54
_cell_length_a 12.000000
_cell_length_b 12.000000
_cell_length_c 21.000000
_cell_angle_alpha 90.000000
_cell_angle_beta 90.000000
_cell_angle_gamma 120.000000
_cell_volume 2618.860821
_symmetry_space_group_name_H-M "P 65 2 2"
_symmetry_group_IT_number 179
_symmetry_cell_setting 'hexagonal'
loop_
_space_group_symop_operation_xyz
x,y,z
x-y,x,5/6+z
-y,x-y,2/3+z
-x,-y,1/2+z
-x+y,-x,1/3+z
y,-x+y,1/6+z
x-y,-y,-z
-x,-x+y,1/3-z
y,x,2/3-z
-y,-x,1/6-z
-x+y,y,1/2-z
x,x-y,5/6-z
loop_
_atom_site_type_symbol
_atom_site_label
_atom_site_fract_x
_atom_site_fract_y
_atom_site_fract_z
Si Si1 0.340684 0.659317 0.083334
Si Si2 0.882006 0.764012 0.250000
Si Si3 0.445877 0.000000 0.500000
Si Si4 0.793162 0.259785 0.681612
Si Si5 0.821144 0.630854 0.596139
Si Si6 0.280891 0.101294 0.711823
O O1 0.321840 0.740739 0.140502
O O2 0.290423 0.515165 0.105410
O O3 0.799367 0.661903 0.304907
O O4 0.818793 0.851812 0.234255
O O5 0.586778 0.109247 0.474337
O O6 0.387187 0.058878 0.549881
O O7 0.760948 0.168328 0.742652
O O8 0.787542 0.733764 0.626766
O O9 0.838017 0.670117 0.523196
#
# Coordination Sequence:
#
# PCOD9583596 Si02
#       6
#     6   6   6  12  12  12
#     4   9  24  46  64 100 133 192 236 284 345 450
#     4  11  20  40  72 110 123 168 244 304 361 406
#     4  10  22  46  64  96 138 198 210 278 368 448
#     4  10  20  42  76  94 130 178 246 289 346 420
#     4  11  27  42  66  97 147 178 235 285 365 426
#     4  12  24  41  68 108 133 177 231 320 343 423
#
# _framework density 20.619651999999999
#
# number of rings (size 3 to 8) (size 9 to 14) (size 15 to 20)
#    0.000    1.333    4.444    0.000    0.000    7.111 
#    0.000    4.444    0.000    0.000    0.000    0.000 
#    0.000    0.000    0.000    0.000    0.000    0.000 
#
# Total GULP energy -300952.058554 kJ/mol
# GULP energy per Si atom -5573.186270 kJ/mol
# Density = 2.057272 g / cm^3
# Si number density = 20.619652 Si / 1000 Ang^3
#
#
#
# Elastic Constant Matrix: (Units=GPa)
#
#
# Indices 1 2 3 4 5 6 
#
# 1 91.5315 25.3703 -11.9525 0.0000 0.0000 0.0000
# 2 25.3703 91.5315 -11.9525 0.0000 0.0000 0.0000
# 3 -11.9525 -11.9525 17.5267 0.0000 0.0000 0.0000
# 4 0.0000 0.0000 0.0000 23.0032 0.0000 0.0000
# 5 0.0000 0.0000 0.0000 0.0000 23.0032 0.0000
# 6 0.0000 0.0000 0.0000 0.0000 0.0000 33.0806
#
#
#
# Elastic Compliance Matrix: (Units=1/GPa)
#
#
# Indices 1 2 3 4 5 6 
#
# 1 0.012528 -0.002587 0.006779 0.000000 0.000000 0.000000
# 2 -0.002587 0.012528 0.006779 0.000000 0.000000 0.000000
# 3 0.006779 0.006779 0.066302 0.000000 0.000000 0.000000
# 4 0.000000 0.000000 0.000000 0.043472 0.000000 0.000000
# 5 0.000000 0.000000 0.000000 0.000000 0.043472 0.000000
# 6 0.000000 0.000000 0.000000 0.000000 0.000000 0.030229
#
#
# Mechanical properties :
#
#
# Convention : Reuss Voigt Hill
#
# Bulk Modulus (GPa) = 8.82626 22.61336 15.71981
# Shear Modulus (GPa) = 22.28613 29.09236 25.68925
#
# Velocity S-wave (km/s) = 3.29115 3.76028 3.53351
# Velocity P-wave (km/s) = 4.32805 5.46293 4.92827
#
# Compressibility (1/GPa) = 0.11329822
#
# Stress axis : x y z
#
# Youngs Moduli (GPa) = 79.82436 79.82436 15.08258
#
# Poissons Ratio (x) = 0.20651 -0.10224
# Poissons Ratio (y) = 0.20651 -0.10224
# Poissons Ratio (z) = -0.54112 -0.54112
#
# Static dielectric constant tensor:
#      x y z
#    x 1.756920 0.000000 0.000000 
#    y 0.000000 1.756920 0.000000 
#    z 0.000000 0.000000 1.815620 
# 
# From -- ./inp_files/7454.got.cif
#   From: 2010.05.17/outbox.ucp.g08.bks.cvg/sg179_4_cif.got.tgz:7454.got - 2010.06.11 15:19:48.
