data_PCOD9583738
_publ_section_title
;
Structure prediction by ZEFSAII (Michael W. Deem and Ramdas Pophale) SiO2 
 PCOD9583738
Probable space group: P 62 2 2
;
_chemical_formula_sum "Si O2"
_cell_formula_units_Z 60
_cell_length_a 13.886096
_cell_length_b 13.886096
_cell_length_c 14.634369
_cell_angle_alpha 90.000000
_cell_angle_beta 90.000000
_cell_angle_gamma 120.000000
_cell_volume 2443.796058
_symmetry_space_group_name_H-M "P 62 2 2"
_symmetry_group_IT_number 180
_symmetry_cell_setting 'hexagonal'
loop_
_space_group_symop_operation_xyz
x,y,z
x-y,x,1/3+z
-y,x-y,2/3+z
-x,-y,z
-x+y,-x,1/3+z
y,-x+y,2/3+z
x-y,-y,-z
-x,-x+y,1/3-z
y,x,2/3-z
-y,-x,2/3-z
-x+y,y,-z
x,x-y,1/3-z
loop_
_atom_site_type_symbol
_atom_site_label
_atom_site_fract_x
_atom_site_fract_y
_atom_site_fract_z
Si Si1 0.900004 0.611685 0.793912
Si Si2 0.858262 0.627895 0.593343
Si Si3 0.800223 0.014208 0.276534
Si Si4 0.585645 0.959631 0.602859
Si Si5 0.270672 0.699770 0.425625
O O1 0.830825 0.587066 0.698933
O O2 0.915540 0.718799 0.853012
O O3 0.849347 0.506405 0.861862
O O4 0.026398 0.659695 0.763166
O O5 0.787179 0.574357 0.500000
O O6 0.868811 0.751295 0.595946
O O7 0.913120 0.086881 0.333334
O O8 0.696919 0.008174 0.332786
O O9 0.518417 0.827934 0.595108
O O10 0.500000 0.000000 0.632682
O O11 0.620793 0.000000 0.500000
O O12 0.319955 0.680046 0.333334
O O13 0.344756 0.689511 0.500000
#
# Coordination Sequence:
#
# PCOD9583738 Si02
#       5
#    12  12  12  12  12
#     4  10  19  40  61  87 135 173 223 279 339 419
#     4   9  21  35  59  93 129 184 233 261 342 432
#     4  11  20  34  59  95 133 179 219 285 347 402
#     4  11  20  33  60  99 128 164 224 285 345 405
#     4  12  23  42  68  99 133 171 227 299 361 406
#
# _framework density 24.551967000000001
#
# number of rings (size 3 to 8) (size 9 to 14) (size 15 to 20)
#    0.000    1.400    6.000    1.200    0.000    0.000 
#    0.000    3.000    4.400    9.600    0.000    1.400 
#    0.000    0.000    0.000    0.000    0.000    0.000 
#
# Total GULP energy -334280.329185 kJ/mol
# GULP energy per Si atom -5571.338820 kJ/mol
# Density = 2.449609 g / cm^3
# Si number density = 24.551967 Si / 1000 Ang^3
#
#
#
# Elastic Constant Matrix: (Units=GPa)
#
#
# Indices 1 2 3 4 5 6 
#
# 1 71.8316 33.3874 22.9954 0.0000 0.0000 0.0000
# 2 33.3874 71.8316 22.9954 0.0000 0.0000 0.0000
# 3 22.9954 22.9954 204.4949 0.0000 0.0000 0.0000
# 4 0.0000 0.0000 0.0000 232.5930 0.0000 0.0000
# 5 0.0000 0.0000 0.0000 0.0000 232.5930 0.0000
# 6 0.0000 0.0000 0.0000 0.0000 0.0000 19.2221
#
#
#
# Elastic Compliance Matrix: (Units=1/GPa)
#
#
# Indices 1 2 3 4 5 6 
#
# 1 0.018003 -0.008008 -0.001124 0.000000 0.000000 0.000000
# 2 -0.008008 0.018003 -0.001124 0.000000 0.000000 0.000000
# 3 -0.001124 -0.001124 0.005143 0.000000 0.000000 0.000000
# 4 0.000000 0.000000 0.000000 0.004299 0.000000 0.000000
# 5 0.000000 0.000000 0.000000 0.000000 0.004299 0.000000
# 6 0.000000 0.000000 0.000000 0.000000 0.000000 0.052023
#
#
# Mechanical properties :
#
#
# Convention : Reuss Voigt Hill
#
# Bulk Modulus (GPa) = 48.45537 56.32384 52.38960
# Shear Modulus (GPa) = 38.71068 114.80030 76.75549
#
# Velocity S-wave (km/s) = 3.97505 6.84541 5.59735
# Velocity P-wave (km/s) = 6.39115 9.24499 7.94722
#
# Compressibility (1/GPa) = 0.02063755
#
# Stress axis : x y z
#
# Youngs Moduli (GPa) = 55.54485 55.54485 194.44367
#
# Poissons Ratio (x) = 0.44481 0.21855
# Poissons Ratio (y) = 0.44481 0.21855
# Poissons Ratio (z) = 0.06243 0.06243
#
# Static dielectric constant tensor:
#      x y z
#    x 1.846870 0.000000 0.000000 
#    y 0.000000 1.846870 0.000000 
#    z 0.000000 0.000000 1.988830 
# 
# From -- ./inp_files/6119.got.cif
#   From: 2010.05.17/outbox.cif.g08.bks.cpg/sg180_4_cif.got.tgz:6119.got - 2010.05.20 11:43:55.
