data_PCOD9583428
_publ_section_title
;
Structure prediction by ZEFSAII (Michael W. Deem and Ramdas Pophale) SiO2 
 PCOD9583428
Probable space group: P 65 2 2
;
_chemical_formula_sum "Si O2"
_cell_formula_units_Z 48
_cell_length_a 14.734467
_cell_length_b 14.734467
_cell_length_c 11.391472
_cell_angle_alpha 90.000000
_cell_angle_beta 90.000000
_cell_angle_gamma 120.000000
_cell_volume 2141.802098
_symmetry_space_group_name_H-M "P 65 2 2"
_symmetry_group_IT_number 179
_symmetry_cell_setting 'hexagonal'
loop_
_space_group_symop_operation_xyz
x,y,z
x-y,x,5/6+z
-y,x-y,2/3+z
-x,-y,1/2+z
-x+y,-x,1/3+z
y,-x+y,1/6+z
x-y,-y,-z
-x,-x+y,1/3-z
y,x,2/3-z
-y,-x,1/6-z
-x+y,y,1/2-z
x,x-y,5/6-z
loop_
_atom_site_type_symbol
_atom_site_label
_atom_site_fract_x
_atom_site_fract_y
_atom_site_fract_z
Si Si1 0.196704 0.139528 0.718568
Si Si2 0.890915 0.474739 0.669772
Si Si3 0.579829 0.817554 0.168631
Si Si4 0.409687 0.819373 0.750000
Si Si5 0.753475 0.246526 0.583334
O O1 0.121846 0.148791 0.620397
O O2 0.212348 0.212348 0.833334
O O3 0.307041 0.171896 0.656749
O O4 0.893913 0.562670 0.584157
O O5 0.874720 0.484902 0.806141
O O6 0.799521 0.364135 0.626560
O O7 0.000000 0.476514 0.666667
O O8 0.476705 0.705502 0.139983
O O9 0.571789 0.827639 0.308709
#
# Coordination Sequence:
#
# PCOD9583428 Si02
#       5
#    12  12  12   6   6
#     4  10  23  45  75 105 142 190 253 312 384 454
#     4  11  25  41  69 104 145 191 247 305 367 448
#     4  11  23  42  73 103 147 188 252 304 375 450
#     4  10  25  44  64 100 148 186 232 294 377 446
#     4  10  23  42  68 100 148 204 244 292 377 456
#
# _framework density 22.411034999999998
#
# number of rings (size 3 to 8) (size 9 to 14) (size 15 to 20)
#    0.000    1.500    0.000    3.750    7.000   10.000 
#    0.000    6.250    0.000    0.000    0.000    0.000 
#    0.000    0.000    0.000    0.000    0.000    0.000 
#
# Total GULP energy -267265.160598 kJ/mol
# GULP energy per Si atom -5568.024179 kJ/mol
# Density = 2.236003 g / cm^3
# Si number density = 22.411035 Si / 1000 Ang^3
#
#
#
# Elastic Constant Matrix: (Units=GPa)
#
#
# Indices 1 2 3 4 5 6 
#
# 1 105.7555 36.6586 34.5784 0.0000 0.0000 0.0000
# 2 36.6586 105.7555 34.5784 0.0000 0.0000 0.0000
# 3 34.5784 34.5784 125.8476 0.0000 0.0000 0.0000
# 4 0.0000 0.0000 0.0000 7.2225 0.0000 0.0000
# 5 0.0000 0.0000 0.0000 0.0000 7.2225 0.0000
# 6 0.0000 0.0000 0.0000 0.0000 0.0000 34.5485
#
#
#
# Elastic Compliance Matrix: (Units=1/GPa)
#
#
# Indices 1 2 3 4 5 6 
#
# 1 0.011288 -0.003185 -0.002226 0.000000 0.000000 0.000000
# 2 -0.003185 0.011288 -0.002226 0.000000 0.000000 0.000000
# 3 -0.002226 -0.002226 0.009170 0.000000 0.000000 0.000000
# 4 0.000000 0.000000 0.000000 0.138457 0.000000 0.000000
# 5 0.000000 0.000000 0.000000 0.000000 0.138457 0.000000
# 6 0.000000 0.000000 0.000000 0.000000 0.000000 0.028945
#
#
# Mechanical properties :
#
#
# Convention : Reuss Voigt Hill
#
# Bulk Modulus (GPa) = 60.71696 60.99881 60.85789
# Shear Modulus (GPa) = 13.95214 25.23490 19.59352
#
# Velocity S-wave (km/s) = 2.49782 3.35924 2.96003
# Velocity P-wave (km/s) = 5.95567 6.50563 6.23672
#
# Compressibility (1/GPa) = 0.01646986
#
# Stress axis : x y z
#
# Youngs Moduli (GPa) = 88.59222 88.59222 109.05619
#
# Poissons Ratio (x) = 0.28214 0.24280
# Poissons Ratio (y) = 0.28214 0.24280
# Poissons Ratio (z) = 0.19724 0.19724
#
# Static dielectric constant tensor:
#      x y z
#    x 1.858610 0.000000 0.000000 
#    y 0.000000 1.858610 0.000000 
#    z 0.000000 0.000000 1.936340 
# 
# From -- ./inp_files/4304.got.cif
#   From: 2010.05.17/outbox.cif.g08.bks.cpg/sg179_3_cif.got.tgz:4304.got - 2010.05.20 11:37:33.
