data_PCOD9583353
_publ_section_title
;
Structure prediction by ZEFSAII (Michael W. Deem and Ramdas Pophale) SiO2 
 PCOD9583353
Probable space group: P 65 2 2
;
_chemical_formula_sum "Si O2"
_cell_formula_units_Z 66
_cell_length_a 18.033753
_cell_length_b 18.033753
_cell_length_c 14.314856
_cell_angle_alpha 90.000000
_cell_angle_beta 90.000000
_cell_angle_gamma 120.000000
_cell_volume 4031.715232
_symmetry_space_group_name_H-M "P 65 2 2"
_symmetry_group_IT_number 179
_symmetry_cell_setting 'hexagonal'
loop_
_space_group_symop_operation_xyz
x,y,z
x-y,x,5/6+z
-y,x-y,2/3+z
-x,-y,1/2+z
-x+y,-x,1/3+z
y,-x+y,1/6+z
x-y,-y,-z
-x,-x+y,1/3-z
y,x,2/3-z
-y,-x,1/6-z
-x+y,y,1/2-z
x,x-y,5/6-z
loop_
_atom_site_type_symbol
_atom_site_label
_atom_site_fract_x
_atom_site_fract_y
_atom_site_fract_z
Si Si1 0.250415 0.724664 0.214189
Si Si2 0.741568 0.534648 0.588125
Si Si3 0.117399 0.625788 0.078352
Si Si4 0.978980 0.401209 0.901453
Si Si5 0.706702 0.413403 0.750000
Si Si6 0.924464 0.567802 0.593175
O O1 0.246771 0.732981 0.324383
O O2 0.158102 0.690372 0.165453
O O3 0.324882 0.809603 0.167206
O O4 0.269326 0.648416 0.195313
O O5 0.690553 0.584687 0.571947
O O6 0.695083 0.471809 0.674722
O O7 0.842693 0.579709 0.609339
O O8 0.104343 0.532811 0.103023
O O9 0.030259 0.608424 0.029185
O O10 0.958385 0.479193 0.916667
O O11 0.039157 0.408405 0.988190
O O12 0.000000 0.619653 0.666667
#
# Coordination Sequence:
#
# PCOD9583353 Si02
#       6
#    12  12  12  12   6  12
#     4  11  22  34  54  78 105 139 186 239 272 317
#     4  12  23  37  52  78 105 142 184 231 276 324
#     4  10  22  37  52  76 105 140 181 229 282 318
#     4  10  22  36  53  76 106 141 183 224 274 333
#     4  12  22  30  52  80 100 136 190 234 272 312
#     4  11  22  37  52  73 107 144 182 229 273 320
#
# _framework density 16.370203
#
# number of rings (size 3 to 8) (size 9 to 14) (size 15 to 20)
#    0.000    1.091    3.636    3.818    8.909    0.000 
#    0.000    0.000    0.000    0.000    0.000    0.000 
#    0.000    0.000    0.000   13.091    0.000    0.000 
#
# Total GULP energy -368467.810322 kJ/mol
# GULP energy per Si atom -5582.845611 kJ/mol
# Density = 1.633294 g / cm^3
# Si number density = 16.370203 Si / 1000 Ang^3
#
#
#
# Elastic Constant Matrix: (Units=GPa)
#
#
# Indices 1 2 3 4 5 6 
#
# 1 86.0755 38.5399 13.0263 0.0000 0.0000 0.0000
# 2 38.5399 86.0755 13.0263 0.0000 0.0000 0.0000
# 3 13.0263 13.0263 57.9622 0.0000 0.0000 0.0000
# 4 0.0000 0.0000 0.0000 23.5524 0.0000 0.0000
# 5 0.0000 0.0000 0.0000 0.0000 23.5524 0.0000
# 6 0.0000 0.0000 0.0000 0.0000 0.0000 23.7678
#
#
#
# Elastic Compliance Matrix: (Units=1/GPa)
#
#
# Indices 1 2 3 4 5 6 
#
# 1 0.014729 -0.006308 -0.001892 0.000000 0.000000 0.000000
# 2 -0.006308 0.014729 -0.001892 0.000000 0.000000 0.000000
# 3 -0.001892 -0.001892 0.018103 0.000000 0.000000 0.000000
# 4 0.000000 0.000000 0.000000 0.042458 0.000000 0.000000
# 5 0.000000 0.000000 0.000000 0.000000 0.042458 0.000000
# 6 0.000000 0.000000 0.000000 0.000000 0.000000 0.042074
#
#
# Mechanical properties :
#
#
# Convention : Reuss Voigt Hill
#
# Bulk Modulus (GPa) = 36.53053 39.92203 38.22628
# Shear Modulus (GPa) = 24.52642 25.20925 24.86784
#
# Velocity S-wave (km/s) = 3.87490 3.92847 3.90178
# Velocity P-wave (km/s) = 6.51026 6.70948 6.61062
#
# Compressibility (1/GPa) = 0.02737436
#
# Stress axis : x y z
#
# Youngs Moduli (GPa) = 67.89520 67.89520 55.23883
#
# Poissons Ratio (x) = 0.42830 0.10453
# Poissons Ratio (y) = 0.42830 0.10453
# Poissons Ratio (z) = 0.12848 0.12848
#
# Static dielectric constant tensor:
#      x y z
#    x 1.562440 0.000000 0.000000 
#    y 0.000000 1.562440 0.000000 
#    z 0.000000 0.000000 1.609380 
# 
# From -- ./inp_files/6007.got.cif
#   From: 2010.05.17/outbox.cif.g08.bks.cpg/sg179_4_cif.got.tgz:6007.got - 2010.05.20 11:37:33.
