data_PCOD9583263
_publ_section_title
;
Structure prediction by ZEFSAII (Michael W. Deem and Ramdas Pophale) SiO2 
 PCOD9583263
Probable space group: P 65 2 2
;
_chemical_formula_sum "Si O2"
_cell_formula_units_Z 72
_cell_length_a 15.661215
_cell_length_b 15.661215
_cell_length_c 16.887431
_cell_angle_alpha 90.000000
_cell_angle_beta 90.000000
_cell_angle_gamma 120.000000
_cell_volume 3587.113535
_symmetry_space_group_name_H-M "P 65 2 2"
_symmetry_group_IT_number 179
_symmetry_cell_setting 'hexagonal'
loop_
_space_group_symop_operation_xyz
x,y,z
x-y,x,5/6+z
-y,x-y,2/3+z
-x,-y,1/2+z
-x+y,-x,1/3+z
y,-x+y,1/6+z
x-y,-y,-z
-x,-x+y,1/3-z
y,x,2/3-z
-y,-x,1/6-z
-x+y,y,1/2-z
x,x-y,5/6-z
loop_
_atom_site_type_symbol
_atom_site_label
_atom_site_fract_x
_atom_site_fract_y
_atom_site_fract_z
Si Si1 0.337864 0.443850 0.961702
Si Si2 0.259635 0.226941 0.587844
Si Si3 0.195793 0.197413 0.420183
Si Si4 0.513626 0.433355 0.997225
Si Si5 0.602621 0.283255 0.660438
Si Si6 0.833824 0.634240 0.339935
O O1 0.269029 0.406308 0.884522
O O2 0.286584 0.357830 0.027485
O O3 0.446533 0.461797 0.945490
O O4 0.332711 0.535528 0.996960
O O5 0.270401 0.242533 0.493301
O O6 0.192394 0.272220 0.615497
O O7 0.214265 0.110518 0.601040
O O8 0.238357 0.238357 0.333334
O O9 0.163569 0.081784 0.416667
O O10 0.520692 0.479309 0.083334
O O11 0.452456 0.314065 0.005390
O O12 0.623716 0.458362 0.976886
O O13 0.671857 0.328144 0.583334
O O14 0.646976 0.293952 0.750000
O O15 0.830617 0.661234 0.250000
#
# Coordination Sequence:
#
# PCOD9583263 Si02
#       6
#    12  12  12  12  12  12
#     4  11  22  39  69  95 131 170 226 268 343 419
#     4  10  20  37  59  88 128 167 214 275 332 395
#     4   9  18  35  59  84 115 174 224 260 335 402
#     4  10  21  39  67  95 125 173 216 267 346 400
#     4  11  23  44  67  94 132 174 221 284 345 407
#     4  11  22  39  62  97 130 172 212 276 340 408
#
# _framework density 20.071849
#
# number of rings (size 3 to 8) (size 9 to 14) (size 15 to 20)
#    0.000    1.667    5.000    1.000    0.000    2.667 
#    0.000    9.167    0.000    2.000    4.333    0.000 
#    0.000    0.000    0.000    0.000    0.000    0.000 
#
# Total GULP energy -401474.672628 kJ/mol
# GULP energy per Si atom -5576.037120 kJ/mol
# Density = 2.002616 g / cm^3
# Si number density = 20.071849 Si / 1000 Ang^3
#
#
#
# Elastic Constant Matrix: (Units=GPa)
#
#
# Indices 1 2 3 4 5 6 
#
# 1 57.6498 1.4438 15.6228 0.0000 0.0000 0.0000
# 2 1.4438 57.6498 15.6228 0.0000 0.0000 0.0000
# 3 15.6228 15.6228 114.6421 0.0000 0.0000 0.0000
# 4 0.0000 0.0000 0.0000 20.0406 0.0000 0.0000
# 5 0.0000 0.0000 0.0000 0.0000 20.0406 0.0000
# 6 0.0000 0.0000 0.0000 0.0000 0.0000 28.1030
#
#
#
# Elastic Compliance Matrix: (Units=1/GPa)
#
#
# Indices 1 2 3 4 5 6 
#
# 1 0.018014 0.000222 -0.002485 0.000000 0.000000 0.000000
# 2 0.000222 0.018014 -0.002485 0.000000 0.000000 0.000000
# 3 -0.002485 -0.002485 0.009400 0.000000 0.000000 0.000000
# 4 0.000000 0.000000 0.000000 0.049899 0.000000 0.000000
# 5 0.000000 0.000000 0.000000 0.000000 0.049899 0.000000
# 6 0.000000 0.000000 0.000000 0.000000 0.000000 0.035583
#
#
# Mechanical properties :
#
#
# Convention : Reuss Voigt Hill
#
# Bulk Modulus (GPa) = 27.83022 32.81340 30.32181
# Shear Modulus (GPa) = 24.71795 26.78700 25.75247
#
# Velocity S-wave (km/s) = 3.51304 3.65712 3.58581
# Velocity P-wave (km/s) = 5.50915 5.84946 5.68185
#
# Compressibility (1/GPa) = 0.03593216
#
# Stress axis : x y z
#
# Youngs Moduli (GPa) = 55.51237 55.51237 106.38161
#
# Poissons Ratio (x) = -0.01234 0.26437
# Poissons Ratio (y) = -0.01234 0.26437
# Poissons Ratio (z) = 0.13796 0.13796
#
# Static dielectric constant tensor:
#      x y z
#    x 1.735220 0.000000 0.000000 
#    y 0.000000 1.735220 0.000000 
#    z 0.000000 0.000000 1.739670 
# 
# From -- ./inp_files/6812.got.cif
#   From: 2010.05.17/outbox.cif.g08.bks.cpg/sg179_4_cif.got.tgz:6812.got - 2010.05.20 11:37:33.
