data_PCOD9583922
_publ_section_title
;
Structure prediction by ZEFSAII (Michael W. Deem and Ramdas Pophale) SiO2 
 PCOD9583922
Probable space group: P 62 2 2
;
_chemical_formula_sum "Si O2"
_cell_formula_units_Z 48
_cell_length_a 17.036589
_cell_length_b 17.036589
_cell_length_c 9.653200
_cell_angle_alpha 90.000000
_cell_angle_beta 90.000000
_cell_angle_gamma 120.000000
_cell_volume 2426.426993
_symmetry_space_group_name_H-M "P 62 2 2"
_symmetry_group_IT_number 180
_symmetry_cell_setting 'hexagonal'
loop_
_space_group_symop_operation_xyz
x,y,z
x-y,x,1/3+z
-y,x-y,2/3+z
-x,-y,z
-x+y,-x,1/3+z
y,-x+y,2/3+z
x-y,-y,-z
-x,-x+y,1/3-z
y,x,2/3-z
-y,-x,2/3-z
-x+y,y,-z
x,x-y,1/3-z
loop_
_atom_site_type_symbol
_atom_site_label
_atom_site_fract_x
_atom_site_fract_y
_atom_site_fract_z
Si Si1 0.645790 0.731072 0.908922
Si Si2 0.332605 0.838167 0.322943
Si Si3 0.276452 0.382545 0.295717
Si Si4 0.519630 0.600489 0.130900
O O1 0.729847 0.729847 0.833334
O O2 0.567911 0.689805 0.791211
O O3 0.657568 0.825752 0.964785
O O4 0.606272 0.659611 0.034071
O O5 0.268324 0.731677 0.333334
O O6 0.303329 0.874304 0.188194
O O7 0.433883 0.860773 0.299047
O O8 0.312069 0.312069 0.333334
O O9 0.334772 0.463074 0.405513
O O10 0.500000 0.500000 0.173055
#
# Coordination Sequence:
#
# PCOD9583922 Si02
#       4
#    12  12  12  12
#     4  11  22  38  58  88 122 165 217 264 323 384
#     4  10  22  36  56  84 123 164 212 264 316 368
#     4  11  22  38  59  89 120 165 220 266 318 385
#     4  12  21  36  62  85 122 165 215 262 314 378
#
# _framework density 19.782171999999999
#
# number of rings (size 3 to 8) (size 9 to 14) (size 15 to 20)
#    0.000    1.000    5.000    2.250    0.000    0.000 
#    0.000   10.000    0.000    0.000    0.000    0.000 
#    0.000   79.000    0.000    0.000    0.000    0.000 
#
# Total GULP energy -267545.633415 kJ/mol
# GULP energy per Si atom -5573.867363 kJ/mol
# Density = 1.973715 g / cm^3
# Si number density = 19.782172 Si / 1000 Ang^3
#
#
#
# Elastic Constant Matrix: (Units=GPa)
#
#
# Indices 1 2 3 4 5 6 
#
# 1 97.2842 39.0297 10.3842 0.0000 0.0000 0.0000
# 2 39.0297 97.2842 10.3842 0.0000 0.0000 0.0000
# 3 10.3842 10.3842 96.3085 0.0000 0.0000 0.0000
# 4 0.0000 0.0000 0.0000 23.6246 0.0000 0.0000
# 5 0.0000 0.0000 0.0000 0.0000 23.6246 0.0000
# 6 0.0000 0.0000 0.0000 0.0000 0.0000 29.1273
#
#
#
# Elastic Compliance Matrix: (Units=1/GPa)
#
#
# Indices 1 2 3 4 5 6 
#
# 1 0.012312 -0.004854 -0.000804 0.000000 0.000000 0.000000
# 2 -0.004854 0.012312 -0.000804 0.000000 0.000000 0.000000
# 3 -0.000804 -0.000804 0.010557 0.000000 0.000000 0.000000
# 4 0.000000 0.000000 0.000000 0.042329 0.000000 0.000000
# 5 0.000000 0.000000 0.000000 0.000000 0.042329 0.000000
# 6 0.000000 0.000000 0.000000 0.000000 0.000000 0.034332
#
#
# Mechanical properties :
#
#
# Convention : Reuss Voigt Hill
#
# Bulk Modulus (GPa) = 44.92965 45.60810 45.26888
# Shear Modulus (GPa) = 28.65097 30.68056 29.66577
#
# Velocity S-wave (km/s) = 3.80981 3.94244 3.87670
# Velocity P-wave (km/s) = 6.48956 6.62035 6.55528
#
# Compressibility (1/GPa) = 0.02225702
#
# Stress axis : x y z
#
# Youngs Moduli (GPa) = 81.21967 81.21967 94.72638
#
# Poissons Ratio (x) = 0.39422 0.07618
# Poissons Ratio (y) = 0.39422 0.07618
# Poissons Ratio (z) = 0.06532 0.06532
#
# Static dielectric constant tensor:
#      x y z
#    x 1.750810 0.000000 0.000000 
#    y 0.000000 1.750810 0.000000 
#    z 0.000000 0.000000 1.737080 
# 
# From -- ./inp_files/2599.got.cif
#   From: 2010.05.17/outbox.cif.g08.bks.cpg/sg180_2_cif.got.tgz:2599.got - 2010.05.20 11:43:55.
