data_PCOD9583489
_publ_section_title
;
Structure prediction by ZEFSAII (Michael W. Deem and Ramdas Pophale) SiO2 
 PCOD9583489
Probable space group: P 65 2 2
;
_chemical_formula_sum "Si O2"
_cell_formula_units_Z 84
_cell_length_a 14.490468
_cell_length_b 14.490468
_cell_length_c 24.527089
_cell_angle_alpha 90.000000
_cell_angle_beta 90.000000
_cell_angle_gamma 120.000000
_cell_volume 4460.067823
_symmetry_space_group_name_H-M "P 65 2 2"
_symmetry_group_IT_number 179
_symmetry_cell_setting 'hexagonal'
loop_
_space_group_symop_operation_xyz
x,y,z
x-y,x,5/6+z
-y,x-y,2/3+z
-x,-y,1/2+z
-x+y,-x,1/3+z
y,-x+y,1/6+z
x-y,-y,-z
-x,-x+y,1/3-z
y,x,2/3-z
-y,-x,1/6-z
-x+y,y,1/2-z
x,x-y,5/6-z
loop_
_atom_site_type_symbol
_atom_site_label
_atom_site_fract_x
_atom_site_fract_y
_atom_site_fract_z
Si Si1 0.487570 0.512431 0.083334
Si Si2 0.839056 0.566298 0.430523
Si Si3 0.330644 0.661287 0.250000
Si Si4 0.506639 0.322376 0.510277
Si Si5 0.230859 0.278818 0.214640
Si Si6 0.072467 0.959108 0.307390
Si Si7 0.180471 0.388948 0.057452
Si Si8 0.194833 0.974519 0.209065
O O1 0.443498 0.387690 0.089655
O O2 0.442188 0.545564 0.135301
O O3 0.738948 0.457606 0.409151
O O4 0.821754 0.575191 0.495214
O O5 0.871169 0.672691 0.395538
O O6 0.273149 0.587941 0.302455
O O7 0.394265 0.280196 0.479329
O O8 0.478789 0.250963 0.565160
O O9 0.130555 0.261109 0.250000
O O10 0.191346 0.185987 0.169580
O O11 0.321928 0.264436 0.244633
O O12 0.992002 0.833270 0.316689
O O13 0.105391 0.981146 0.245182
O O14 0.032748 0.032748 0.333334
O O15 0.224714 0.306403 0.054453
#
# Coordination Sequence:
#
# PCOD9583489 Si02
#       8
#     6  12   6  12  12  12  12  12
#     4  11  20  38  64  84 118 156 207 260 316 384
#     4  11  22  41  62  91 118 165 220 264 306 378
#     4  11  28  40  58  94 126 164 221 278 314 372
#     4  12  22  39  60  88 128 165 206 263 330 375
#     4  11  21  33  54  90 133 159 190 243 323 393
#     4  11  20  32  53  95 131 160 195 248 309 377
#     4  11  19  38  64  92 126 164 203 253 323 391
#     4  11  19  35  59  90 124 161 204 249 300 377
#
# _framework density 18.833793
#
# number of rings (size 3 to 8) (size 9 to 14) (size 15 to 20)
#    0.000    0.857    7.857    3.000    0.000    0.000 
#    0.000    0.000    0.000    1.714   11.143    0.000 
#    0.000    0.000    0.000    0.000    0.000    0.000 
#
# Total GULP energy -468338.788531 kJ/mol
# GULP energy per Si atom -5575.461768 kJ/mol
# Density = 1.879093 g / cm^3
# Si number density = 18.833793 Si / 1000 Ang^3
#
#
#
# Elastic Constant Matrix: (Units=GPa)
#
#
# Indices 1 2 3 4 5 6 
#
# 1 96.8362 42.2237 40.0366 0.0000 0.0000 0.0000
# 2 42.2237 96.8362 40.0366 0.0000 0.0000 0.0000
# 3 40.0366 40.0366 70.0818 0.0000 0.0000 0.0000
# 4 0.0000 0.0000 0.0000 30.7626 0.0000 0.0000
# 5 0.0000 0.0000 0.0000 0.0000 30.7626 0.0000
# 6 0.0000 0.0000 0.0000 0.0000 0.0000 27.3063
#
#
#
# Elastic Compliance Matrix: (Units=1/GPa)
#
#
# Indices 1 2 3 4 5 6 
#
# 1 0.014514 -0.003797 -0.006122 0.000000 0.000000 0.000000
# 2 -0.003797 0.014514 -0.006122 0.000000 0.000000 0.000000
# 3 -0.006122 -0.006122 0.021264 0.000000 0.000000 0.000000
# 4 0.000000 0.000000 0.000000 0.032507 0.000000 0.000000
# 5 0.000000 0.000000 0.000000 0.000000 0.032507 0.000000
# 6 0.000000 0.000000 0.000000 0.000000 0.000000 0.036622
#
#
# Mechanical properties :
#
#
# Convention : Reuss Voigt Hill
#
# Bulk Modulus (GPa) = 54.91995 56.48311 55.70153
# Shear Modulus (GPa) = 26.30486 27.19679 26.75082
#
# Velocity S-wave (km/s) = 3.74128 3.80418 3.77286
# Velocity P-wave (km/s) = 6.92001 7.02503 6.97272
#
# Compressibility (1/GPa) = 0.01820832
#
# Stress axis : x y z
#
# Youngs Moduli (GPa) = 68.90101 68.90101 47.02796
#
# Poissons Ratio (x) = 0.26163 0.28791
# Poissons Ratio (y) = 0.26163 0.28791
# Poissons Ratio (z) = 0.42182 0.42182
#
# Static dielectric constant tensor:
#      x y z
#    x 1.692200 0.000000 0.000000 
#    y 0.000000 1.692200 0.000000 
#    z 0.000000 0.000000 1.680050 
# 
# From -- ./inp_files/8398.got.cif
#   From: 2010.05.17/outbox.cif.g08.bks.cpg/sg179_5_cif.got.tgz:8398.got - 2010.05.20 11:37:33.
