data_PCOD9583733
_publ_section_title
;
Structure prediction by ZEFSAII (Michael W. Deem and Ramdas Pophale) SiO2 
 PCOD9583733
Probable space group: P 62 2 2
;
_chemical_formula_sum "Si O2"
_cell_formula_units_Z 57
_cell_length_a 14.934952
_cell_length_b 14.934952
_cell_length_c 14.878645
_cell_angle_alpha 90.000000
_cell_angle_beta 90.000000
_cell_angle_gamma 120.000000
_cell_volume 2874.098683
_symmetry_space_group_name_H-M "P 62 2 2"
_symmetry_group_IT_number 180
_symmetry_cell_setting 'hexagonal'
loop_
_space_group_symop_operation_xyz
x,y,z
x-y,x,1/3+z
-y,x-y,2/3+z
-x,-y,z
-x+y,-x,1/3+z
y,-x+y,2/3+z
x-y,-y,-z
-x,-x+y,1/3-z
y,x,2/3-z
-y,-x,2/3-z
-x+y,y,-z
x,x-y,1/3-z
loop_
_atom_site_type_symbol
_atom_site_label
_atom_site_fract_x
_atom_site_fract_y
_atom_site_fract_z
Si Si1 0.917221 0.241670 0.899359
Si Si2 0.851288 0.261682 0.424346
Si Si3 0.363675 0.727349 0.000000
Si Si4 0.455378 0.294563 0.930300
Si Si5 0.500000 0.000000 0.500000
Si Si6 0.574878 0.465076 0.489181
O O1 0.857230 0.142771 0.833334
O O2 0.895138 0.328565 0.859130
O O3 0.041978 0.300185 0.904447
O O4 0.870130 0.232351 0.998912
O O5 0.790245 0.209756 0.333334
O O6 0.778143 0.207325 0.509863
O O7 0.879466 0.380861 0.437368
O O8 0.433504 0.677889 0.972966
O O9 0.381434 0.798214 0.913956
O O10 0.468647 0.401781 0.896568
O O11 0.500000 0.500000 0.442756
#
# Coordination Sequence:
#
# PCOD9583733 Si02
#       6
#    12  12   6  12   3  12
#     4  11  22  40  64  94 129 170 222 275 325 384
#     4  10  23  41  62  91 130 177 218 268 328 392
#     4  10  19  38  58  90 122 166 214 255 298 378
#     4  11  25  40  61  92 127 176 216 263 319 396
#     4  12  28  44  60  88 138 178 216 260 332 404
#     4   9  19  34  59  87 127 167 209 255 309 374
#
# _framework density 19.832305999999999
#
# number of rings (size 3 to 8) (size 9 to 14) (size 15 to 20)
#    0.000    1.684    2.105    1.579    7.368    4.211 
#    0.000    0.000    0.000    0.000    0.000   14.000 
#    0.000    0.000    0.000    0.000    0.000    0.000 
#
# Total GULP energy -318227.561493 kJ/mol
# GULP energy per Si atom -5582.939675 kJ/mol
# Density = 1.978717 g / cm^3
# Si number density = 19.832306 Si / 1000 Ang^3
#
#
#
# Elastic Constant Matrix: (Units=GPa)
#
#
# Indices 1 2 3 4 5 6 
#
# 1 91.7354 29.5661 40.5476 0.0000 0.0000 0.0000
# 2 29.5661 91.7354 40.5476 0.0000 0.0000 0.0000
# 3 40.5476 40.5476 105.7789 0.0000 0.0000 0.0000
# 4 0.0000 0.0000 0.0000 45.2070 0.0000 0.0000
# 5 0.0000 0.0000 0.0000 0.0000 45.2070 0.0000
# 6 0.0000 0.0000 0.0000 0.0000 0.0000 31.0846
#
#
#
# Elastic Compliance Matrix: (Units=1/GPa)
#
#
# Indices 1 2 3 4 5 6 
#
# 1 0.013585 -0.002500 -0.004249 0.000000 0.000000 0.000000
# 2 -0.002500 0.013585 -0.004249 0.000000 0.000000 0.000000
# 3 -0.004249 -0.004249 0.012711 0.000000 0.000000 0.000000
# 4 0.000000 0.000000 0.000000 0.022120 0.000000 0.000000
# 5 0.000000 0.000000 0.000000 0.000000 0.022120 0.000000
# 6 0.000000 0.000000 0.000000 0.000000 0.000000 0.032170
#
#
# Mechanical properties :
#
#
# Convention : Reuss Voigt Hill
#
# Bulk Modulus (GPa) = 55.91484 56.73026 56.32255
# Shear Modulus (GPa) = 34.66204 36.20559 35.43381
#
# Velocity S-wave (km/s) = 4.18515 4.27732 4.23149
# Velocity P-wave (km/s) = 7.18394 7.28430 7.23430
#
# Compressibility (1/GPa) = 0.01788434
#
# Stress axis : x y z
#
# Youngs Moduli (GPa) = 73.61148 73.61148 78.67103
#
# Poissons Ratio (x) = 0.18405 0.33427
# Poissons Ratio (y) = 0.18405 0.33427
# Poissons Ratio (z) = 0.31277 0.31277
#
# Static dielectric constant tensor:
#      x y z
#    x 1.720420 0.000000 0.000000 
#    y 0.000000 1.720420 0.000000 
#    z 0.000000 0.000000 1.789580 
# 
# From -- ./inp_files/6163.got.cif
#   From: 2010.05.17/outbox.cif.g08.bks.cpg/sg180_4_cif.got.tgz:6163.got - 2010.05.20 11:43:55.
