data_PCOD9583988
_publ_section_title
;
Structure prediction by ZEFSAII (Michael W. Deem and Ramdas Pophale) SiO2 
 PCOD9583988
Probable space group: P 62 2 2
;
_chemical_formula_sum "Si O2"
_cell_formula_units_Z 51
_cell_length_a 12.436738
_cell_length_b 12.436738
_cell_length_c 20.814689
_cell_angle_alpha 90.000000
_cell_angle_beta 90.000000
_cell_angle_gamma 120.000000
_cell_volume 2788.133269
_symmetry_space_group_name_H-M "P 62 2 2"
_symmetry_group_IT_number 180
_symmetry_cell_setting 'hexagonal'
loop_
_space_group_symop_operation_xyz
x,y,z
x-y,x,1/3+z
-y,x-y,2/3+z
-x,-y,z
-x+y,-x,1/3+z
y,-x+y,2/3+z
x-y,-y,-z
-x,-x+y,1/3-z
y,x,2/3-z
-y,-x,2/3-z
-x+y,y,-z
x,x-y,1/3-z
loop_
_atom_site_type_symbol
_atom_site_label
_atom_site_fract_x
_atom_site_fract_y
_atom_site_fract_z
Si Si1 0.887055 0.531024 0.767765
Si Si2 0.000000 0.000000 0.500000
Si Si3 0.912499 0.119035 0.605021
Si Si4 0.508408 0.876149 0.748313
Si Si5 0.653339 0.306677 0.000000
Si Si6 0.285418 0.142709 0.666667
O O1 0.908679 0.666748 0.749434
O O2 0.848530 0.504710 0.842536
O O3 0.779705 0.444423 0.719207
O O4 0.000000 0.500000 0.759125
O O5 0.885499 0.915974 0.454519
O O6 0.000000 0.157077 0.666667
O O7 0.794100 0.987439 0.627905
O O8 0.394035 0.775338 0.707110
O O9 0.628942 0.881090 0.716435
O O10 0.500000 0.000000 0.743019
#
# Coordination Sequence:
#
# PCOD9583988 Si02
#       6
#    12   3  12  12   6   6
#     4  11  24  41  63  94 125 170 218 270 332 395
#     4  12  22  40  60  98 130 172 210 278 332 402
#     4  12  23  40  63  92 132 165 217 264 332 391
#     4  10  23  40  63  92 125 169 218 268 328 395
#     4  11  21  42  62  86 127 161 214 266 322 389
#     4  11  21  42  64  94 131 173 216 276 332 397
#
# _framework density 18.291808
#
# number of rings (size 3 to 8) (size 9 to 14) (size 15 to 20)
#    0.000    0.941    2.353    5.294    0.000    0.000 
#    4.235    0.000    0.000    4.235    0.000    0.000 
#    0.000    0.000    0.000    0.000    0.000    0.000 
#
# Total GULP energy -284499.730936 kJ/mol
# GULP energy per Si atom -5578.426097 kJ/mol
# Density = 1.825017 g / cm^3
# Si number density = 18.291808 Si / 1000 Ang^3
#
#
#
# Elastic Constant Matrix: (Units=GPa)
#
#
# Indices 1 2 3 4 5 6 
#
# 1 165.2484 61.9639 104.4499 0.0000 0.0000 0.0000
# 2 61.9639 165.2484 104.4499 0.0000 0.0000 0.0000
# 3 104.4499 104.4499 200.8077 0.0000 0.0000 0.0000
# 4 0.0000 0.0000 0.0000 92.6392 0.0000 0.0000
# 5 0.0000 0.0000 0.0000 0.0000 92.6392 0.0000
# 6 0.0000 0.0000 0.0000 0.0000 0.0000 51.6422
#
#
#
# Elastic Compliance Matrix: (Units=1/GPa)
#
#
# Indices 1 2 3 4 5 6 
#
# 1 0.009059 -0.000623 -0.004387 0.000000 0.000000 0.000000
# 2 -0.000623 0.009059 -0.004387 0.000000 0.000000 0.000000
# 3 -0.004387 -0.004387 0.009544 0.000000 0.000000 0.000000
# 4 0.000000 0.000000 0.000000 0.010795 0.000000 0.000000
# 5 0.000000 0.000000 0.000000 0.000000 0.010795 0.000000
# 6 0.000000 0.000000 0.000000 0.000000 0.000000 0.019364
#
#
# Mechanical properties :
#
#
# Convention : Reuss Voigt Hill
#
# Bulk Modulus (GPa) = 112.81160 119.22578 116.01869
# Shear Modulus (GPa) = 55.33057 64.74684 60.03871
#
# Velocity S-wave (km/s) = 5.50586 5.95596 5.73533
# Velocity P-wave (km/s) = 10.11071 10.61223 10.36450
#
# Compressibility (1/GPa) = 0.00886434
#
# Stress axis : x y z
#
# Youngs Moduli (GPa) = 110.39338 110.39338 104.77605
#
# Poissons Ratio (x) = 0.06883 0.45970
# Poissons Ratio (y) = 0.06883 0.45970
# Poissons Ratio (z) = 0.48435 0.48435
#
# Static dielectric constant tensor:
#      x y z
#    x 1.558540 0.000000 0.000000 
#    y 0.000000 1.558540 0.000000 
#    z 0.000000 0.000000 1.598700 
# 
# From -- ./inp_files/8925.got.cif
#   From: 2010.05.17/outbox.cif.g08.bks.cpg/sg180_5_cif.got.tgz:8925.got - 2010.05.20 11:43:55.
