data_PCOD9583398
_publ_section_title
;
Structure prediction by ZEFSAII (Michael W. Deem and Ramdas Pophale) SiO2 
 PCOD9583398
Probable space group: P 65 2 2
;
_chemical_formula_sum "Si O2"
_cell_formula_units_Z 60
_cell_length_a 13.960754
_cell_length_b 13.960754
_cell_length_c 14.914409
_cell_angle_alpha 90.000000
_cell_angle_beta 90.000000
_cell_angle_gamma 120.000000
_cell_volume 2517.412761
_symmetry_space_group_name_H-M "P 65 2 2"
_symmetry_group_IT_number 179
_symmetry_cell_setting 'hexagonal'
loop_
_space_group_symop_operation_xyz
x,y,z
x-y,x,5/6+z
-y,x-y,2/3+z
-x,-y,1/2+z
-x+y,-x,1/3+z
y,-x+y,1/6+z
x-y,-y,-z
-x,-x+y,1/3-z
y,x,2/3-z
-y,-x,1/6-z
-x+y,y,1/2-z
x,x-y,5/6-z
loop_
_atom_site_type_symbol
_atom_site_label
_atom_site_fract_x
_atom_site_fract_y
_atom_site_fract_z
Si Si1 0.268321 0.086419 0.700802
Si Si2 0.555422 0.916950 0.306135
Si Si3 0.138758 0.138758 0.833334
Si Si4 0.553258 0.000000 0.500000
Si Si5 0.402778 0.746239 0.507037
Si Si6 0.714853 0.870887 0.009512
O O1 0.341661 0.040560 0.741931
O O2 0.242985 0.148034 0.780024
O O3 0.326550 0.153839 0.611593
O O4 0.156651 0.972209 0.675310
O O5 0.465616 0.931232 0.250000
O O6 0.505469 0.783604 0.314773
O O7 0.590017 0.977722 0.402209
O O8 0.055535 0.111069 0.750000
O O9 0.567445 0.123088 0.493537
O O10 0.315483 0.684517 0.583334
O O11 0.351726 0.675863 0.416667
O O12 0.648657 0.824329 0.916667
O O13 0.759733 0.000000 0.000000
#
# Coordination Sequence:
#
# PCOD9583398 Si02
#       6
#    12  12   6   6  12  12
#     4  11  22  37  62  89 138 191 231 293 345 420
#     4  10  24  44  63  93 134 178 237 304 363 421
#     4  12  26  35  54  97 142 184 234 273 340 431
#     4  10  22  43  74 101 136 178 236 303 364 445
#     4   9  20  40  68  98 139 182 224 294 365 429
#     4   9  20  38  58  90 138 188 231 278 345 422
#
# _framework density 23.833993
#
# number of rings (size 3 to 8) (size 9 to 14) (size 15 to 20)
#    0.000    2.000    2.000    0.000    4.200    4.800 
#    5.400    0.000    0.000    0.000    0.000    0.000 
#    0.000    0.000    0.000    0.000    0.000    1.800 
#
# Total GULP energy -334042.164318 kJ/mol
# GULP energy per Si atom -5567.369405 kJ/mol
# Density = 2.377975 g / cm^3
# Si number density = 23.833993 Si / 1000 Ang^3
#
#
#
# Elastic Constant Matrix: (Units=GPa)
#
#
# Indices 1 2 3 4 5 6 
#
# 1 78.1050 36.5802 54.8414 0.0000 0.0000 0.0000
# 2 36.5802 78.1050 54.8414 0.0000 0.0000 0.0000
# 3 54.8414 54.8414 245.3492 0.0000 0.0000 0.0000
# 4 0.0000 0.0000 0.0000 20.5519 0.0000 0.0000
# 5 0.0000 0.0000 0.0000 0.0000 20.5519 0.0000
# 6 0.0000 0.0000 0.0000 0.0000 0.0000 20.7624
#
#
#
# Elastic Compliance Matrix: (Units=1/GPa)
#
#
# Indices 1 2 3 4 5 6 
#
# 1 0.017586 -0.006496 -0.002479 0.000000 0.000000 0.000000
# 2 -0.006496 0.017586 -0.002479 0.000000 0.000000 0.000000
# 3 -0.002479 -0.002479 0.005184 0.000000 0.000000 0.000000
# 4 0.000000 0.000000 0.000000 0.048657 0.000000 0.000000
# 5 0.000000 0.000000 0.000000 0.000000 0.048657 0.000000
# 6 0.000000 0.000000 0.000000 0.000000 0.000000 0.048164
#
#
# Mechanical properties :
#
#
# Convention : Reuss Voigt Hill
#
# Bulk Modulus (GPa) = 57.31019 77.12059 67.21539
# Shear Modulus (GPa) = 23.30364 29.39298 26.34831
#
# Velocity S-wave (km/s) = 3.13029 3.51556 3.32850
# Velocity P-wave (km/s) = 6.09612 6.99332 6.56008
#
# Compressibility (1/GPa) = 0.01744890
#
# Stress axis : x y z
#
# Youngs Moduli (GPa) = 56.86292 56.86292 192.89984
#
# Poissons Ratio (x) = 0.36937 0.47819
# Poissons Ratio (y) = 0.36937 0.47819
# Poissons Ratio (z) = 0.14096 0.14096
#
# Static dielectric constant tensor:
#      x y z
#    x 1.929960 0.000000 0.000000 
#    y 0.000000 1.929960 0.000000 
#    z 0.000000 0.000000 1.771840 
# 
# From -- ./inp_files/5827.got.cif
#   From: 2010.05.17/outbox.cif.g08.bks.cpg/sg179_3_cif.got.tgz:5827.got - 2010.05.20 11:37:33.
