data_PCOD9583636
_publ_section_title
;
Structure prediction by ZEFSAII (Michael W. Deem and Ramdas Pophale) SiO2 
 PCOD9583636
Probable space group: P 62 2 2
;
_chemical_formula_sum "Si O2"
_cell_formula_units_Z 42
_cell_length_a 8.801298
_cell_length_b 8.801298
_cell_length_c 29.132780
_cell_angle_alpha 90.000000
_cell_angle_beta 90.000000
_cell_angle_gamma 120.000000
_cell_volume 1954.366513
_symmetry_space_group_name_H-M "P 62 2 2"
_symmetry_group_IT_number 180
_symmetry_cell_setting 'hexagonal'
loop_
_space_group_symop_operation_xyz
x,y,z
x-y,x,1/3+z
-y,x-y,2/3+z
-x,-y,z
-x+y,-x,1/3+z
y,-x+y,2/3+z
x-y,-y,-z
-x,-x+y,1/3-z
y,x,2/3-z
-y,-x,2/3-z
-x+y,y,-z
x,x-y,1/3-z
loop_
_atom_site_type_symbol
_atom_site_label
_atom_site_fract_x
_atom_site_fract_y
_atom_site_fract_z
Si Si1 0.000000 0.500000 0.062710
Si Si2 0.708935 0.131298 0.917908
Si Si3 0.684562 0.369123 0.500000
Si Si4 0.123774 0.297020 0.205676
Si Si5 0.323393 0.661697 0.666667
O O1 0.026322 0.661428 0.093848
O O2 0.174734 0.565608 0.032976
O O3 0.765514 0.277761 0.878538
O O4 0.722124 0.211873 0.968016
O O5 0.500000 0.000000 0.913657
O O6 0.778544 0.002045 0.902794
O O7 0.775673 0.254407 0.511550
O O8 0.000000 0.170847 0.166667
#
# Coordination Sequence:
#
# PCOD9583636 Si02
#       5
#     6  12   6  12   6
#     4  12  23  38  64  92 126 172 218 275 312 400
#     4  10  21  36  67  93 126 167 219 269 329 403
#     4  10  17  38  61  94 118 168 214 268 321 389
#     4  11  19  38  65  95 126 164 216 277 327 386
#     4  12  23  44  64  99 126 178 224 269 336 396
#
# _framework density 21.490338999999999
#
# number of rings (size 3 to 8) (size 9 to 14) (size 15 to 20)
#    0.000    1.143    8.571    0.429    0.000    0.000 
#   12.857    0.714    0.000    1.714    0.000    0.000 
#    0.000    0.000    0.000    0.000    0.000    0.000 
#
# Total GULP energy -234418.545176 kJ/mol
# GULP energy per Si atom -5581.393933 kJ/mol
# Density = 2.144143 g / cm^3
# Si number density = 21.490339 Si / 1000 Ang^3
#
#
#
# Elastic Constant Matrix: (Units=GPa)
#
#
# Indices 1 2 3 4 5 6 
#
# 1 66.1082 58.6217 66.9382 0.0000 0.0000 0.0000
# 2 58.6217 66.1082 66.9382 0.0000 0.0000 0.0000
# 3 66.9382 66.9382 169.7289 0.0000 0.0000 0.0000
# 4 0.0000 0.0000 0.0000 6.0319 0.0000 0.0000
# 5 0.0000 0.0000 0.0000 0.0000 6.0319 0.0000
# 6 0.0000 0.0000 0.0000 0.0000 0.0000 3.7433
#
#
#
# Elastic Compliance Matrix: (Units=1/GPa)
#
#
# Indices 1 2 3 4 5 6 
#
# 1 0.073738 -0.059836 -0.005483 0.000000 0.000000 0.000000
# 2 -0.059836 0.073738 -0.005483 0.000000 0.000000 0.000000
# 3 -0.005483 -0.005483 0.010216 0.000000 0.000000 0.000000
# 4 0.000000 0.000000 0.000000 0.165784 0.000000 0.000000
# 5 0.000000 0.000000 0.000000 0.000000 0.165784 0.000000
# 6 0.000000 0.000000 0.000000 0.000000 0.000000 0.267146
#
#
# Mechanical properties :
#
#
# Convention : Reuss Voigt Hill
#
# Bulk Modulus (GPa) = 62.15205 76.32683 69.23944
# Shear Modulus (GPa) = 5.53482 10.45792 7.99637
#
# Velocity S-wave (km/s) = 1.60658 2.20837 1.93106
# Velocity P-wave (km/s) = 5.69431 6.48818 6.10416
#
# Compressibility (1/GPa) = 0.01608958
#
# Stress axis : x y z
#
# Youngs Moduli (GPa) = 13.56159 13.56159 97.88224
#
# Poissons Ratio (x) = 0.81147 0.53666
# Poissons Ratio (y) = 0.81147 0.53666
# Poissons Ratio (z) = 0.07435 0.07435
#
# Static dielectric constant tensor:
#      x y z
#    x 1.832020 0.000000 0.000000 
#    y 0.000000 1.832020 0.000000 
#    z 0.000000 0.000000 1.812720 
# 
# From -- ./inp_files/12064.got.cif
#   From: 2010.05.17/outbox.cif.g08.bks.cpg/sg180_7_cif.got.tgz:12064.got - 2010.05.20 11:43:55.
