data_PCOD9583996
_publ_section_title
;
Structure prediction by ZEFSAII (Michael W. Deem and Ramdas Pophale) SiO2 
 PCOD9583996
Probable space group: P 62 2 2
;
_chemical_formula_sum "Si O2"
_cell_formula_units_Z 48
_cell_length_a 16.696654
_cell_length_b 16.696654
_cell_length_c 9.470814
_cell_angle_alpha 90.000000
_cell_angle_beta 90.000000
_cell_angle_gamma 120.000000
_cell_volume 2286.529633
_symmetry_space_group_name_H-M "P 62 2 2"
_symmetry_group_IT_number 180
_symmetry_cell_setting 'hexagonal'
loop_
_space_group_symop_operation_xyz
x,y,z
x-y,x,1/3+z
-y,x-y,2/3+z
-x,-y,z
-x+y,-x,1/3+z
y,-x+y,2/3+z
x-y,-y,-z
-x,-x+y,1/3-z
y,x,2/3-z
-y,-x,2/3-z
-x+y,y,-z
x,x-y,1/3-z
loop_
_atom_site_type_symbol
_atom_site_label
_atom_site_fract_x
_atom_site_fract_y
_atom_site_fract_z
Si Si1 0.301005 0.746002 0.176635
Si Si2 0.658881 0.000000 0.000000
Si Si3 0.686145 0.686145 0.833334
Si Si4 0.946978 0.545643 0.926553
Si Si5 0.818549 0.621839 0.331406
O O1 0.262507 0.737494 0.333334
O O2 0.320986 0.660493 0.166667
O O3 0.382403 0.852612 0.183305
O O4 0.228817 0.745147 0.062339
O O5 0.611490 0.014474 0.863187
O O6 0.662917 0.910053 0.954884
O O7 0.607602 0.666528 0.716571
O O8 0.684671 0.765113 0.930397
O O9 0.000000 0.500000 0.997569
O O10 0.810047 0.620094 0.500000
#
# Coordination Sequence:
#
# PCOD9583996 Si02
#       5
#    12   6   6  12  12
#     4  11  26  42  63  97 138 181 234 291 351 420
#     4  10  23  42  68  98 135 178 240 286 356 437
#     4  12  23  42  72  98 137 182 232 294 354 441
#     4  11  24  42  65  92 135 183 236 295 353 418
#     4  11  24  46  69 103 139 186 236 293 363 429
#
# _framework density 20.992512999999999
#
# number of rings (size 3 to 8) (size 9 to 14) (size 15 to 20)
#    0.000    1.000    5.000    0.750    3.500    5.000 
#    0.000    0.000    0.000    0.000    0.000    2.625 
#    0.000    0.000    0.000    0.000    0.000    0.000 
#
# Total GULP energy -267434.568758 kJ/mol
# GULP energy per Si atom -5571.553516 kJ/mol
# Density = 2.094473 g / cm^3
# Si number density = 20.992513 Si / 1000 Ang^3
#
#
#
# Elastic Constant Matrix: (Units=GPa)
#
#
# Indices 1 2 3 4 5 6 
#
# 1 108.5467 66.7687 20.3964 0.0000 0.0000 0.0000
# 2 66.7687 108.5467 20.3964 0.0000 0.0000 0.0000
# 3 20.3964 20.3964 132.3572 0.0000 0.0000 0.0000
# 4 0.0000 0.0000 0.0000 4.3463 0.0000 0.0000
# 5 0.0000 0.0000 0.0000 0.0000 4.3463 0.0000
# 6 0.0000 0.0000 0.0000 0.0000 0.0000 20.8890
#
#
#
# Elastic Compliance Matrix: (Units=1/GPa)
#
#
# Indices 1 2 3 4 5 6 
#
# 1 0.014926 -0.009010 -0.000912 0.000000 0.000000 0.000000
# 2 -0.009010 0.014926 -0.000912 0.000000 0.000000 0.000000
# 3 -0.000912 -0.000912 0.007836 0.000000 0.000000 0.000000
# 4 0.000000 0.000000 0.000000 0.230079 0.000000 0.000000
# 5 0.000000 0.000000 0.000000 0.000000 0.230079 0.000000
# 6 0.000000 0.000000 0.000000 0.000000 0.000000 0.047872
#
#
# Mechanical properties :
#
#
# Convention : Reuss Voigt Hill
#
# Bulk Modulus (GPa) = 62.41478 62.73036 62.57257
# Shear Modulus (GPa) = 8.73017 22.04228 15.38623
#
# Velocity S-wave (km/s) = 2.04150 3.24390 2.71022
# Velocity P-wave (km/s) = 5.94588 6.63156 6.29806
#
# Compressibility (1/GPa) = 0.01602185
#
# Stress axis : x y z
#
# Youngs Moduli (GPa) = 66.99684 66.99684 127.61129
#
# Poissons Ratio (x) = 0.60364 0.11634
# Poissons Ratio (y) = 0.60364 0.11634
# Poissons Ratio (z) = 0.06108 0.06108
#
# Static dielectric constant tensor:
#      x y z
#    x 1.902970 0.000000 0.000000 
#    y 0.000000 1.902970 0.000000 
#    z 0.000000 0.000000 1.796640 
# 
# From -- ./inp_files/2754.got.cif
#   From: 2010.05.17/outbox.cif.g08.bks.cpg/sg180_2_cif.got.tgz:2754.got - 2010.05.20 11:43:55.
