data_PCOD9583665
_publ_section_title
;
Structure prediction by ZEFSAII (Michael W. Deem and Ramdas Pophale) SiO2 
 PCOD9583665
Probable space group: P 62 2 2
;
_chemical_formula_sum "Si O2"
_cell_formula_units_Z 84
_cell_length_a 15.037058
_cell_length_b 15.037058
_cell_length_c 21.865844
_cell_angle_alpha 90.000000
_cell_angle_beta 90.000000
_cell_angle_gamma 120.000000
_cell_volume 4281.763018
_symmetry_space_group_name_H-M "P 62 2 2"
_symmetry_group_IT_number 180
_symmetry_cell_setting 'hexagonal'
loop_
_space_group_symop_operation_xyz
x,y,z
x-y,x,1/3+z
-y,x-y,2/3+z
-x,-y,z
-x+y,-x,1/3+z
y,-x+y,2/3+z
x-y,-y,-z
-x,-x+y,1/3-z
y,x,2/3-z
-y,-x,2/3-z
-x+y,y,-z
x,x-y,1/3-z
loop_
_atom_site_type_symbol
_atom_site_label
_atom_site_fract_x
_atom_site_fract_y
_atom_site_fract_z
Si Si1 0.654805 0.987090 0.261446
Si Si2 0.211169 0.792859 0.406638
Si Si3 0.189179 0.423986 0.607378
Si Si4 0.237547 0.458063 0.249007
Si Si5 0.598901 0.602329 0.463841
Si Si6 0.399853 0.391636 0.931397
Si Si7 0.650043 0.305847 0.739961
O O1 0.758929 0.093370 0.249349
O O2 0.588434 0.977344 0.202217
O O3 0.659621 0.883789 0.264946
O O4 0.608381 0.992375 0.327239
O O5 0.213758 0.786243 0.333334
O O6 0.241186 0.708545 0.428557
O O7 0.298561 0.906403 0.424803
O O8 0.186374 0.443095 0.679597
O O9 0.280534 0.534382 0.583072
O O10 0.084704 0.390924 0.572882
O O11 0.298135 0.412764 0.212804
O O12 0.115181 0.410664 0.242632
O O13 0.288455 0.578866 0.234934
O O14 0.500000 0.500000 0.439927
O O15 0.500000 0.500000 0.915752
O O16 0.645937 0.322969 0.666667
#
# Coordination Sequence:
#
# PCOD9583665 Si02
#       7
#    12  12  12  12  12  12  12
#     4  10  23  35  52  83 112 146 182 233 281 329
#     4   9  18  32  56  80 108 141 186 230 271 321
#     4  10  21  35  55  74 111 153 194 220 265 330
#     4  10  20  34  54  81 110 148 189 224 268 335
#     4  12  23  35  50  79 117 150 182 226 282 332
#     4  10  18  35  61  83 105 140 188 233 276 331
#     4   9  16  28  49  79 107 144 181 221 262 319
#
# _framework density 19.618089000000001
#
# number of rings (size 3 to 8) (size 9 to 14) (size 15 to 20)
#    0.000    2.000    2.857    1.286    8.000    0.571 
#    0.000    1.429    0.000    1.714    0.000    7.000 
#    0.000    0.000    0.000    0.000    0.000    0.000 
#
# Total GULP energy -468934.661850 kJ/mol
# GULP energy per Si atom -5582.555498 kJ/mol
# Density = 1.957344 g / cm^3
# Si number density = 19.618089 Si / 1000 Ang^3
#
#
#
# Elastic Constant Matrix: (Units=GPa)
#
#
# Indices 1 2 3 4 5 6 
#
# 1 107.6746 57.2741 22.3726 0.0000 0.0000 0.0000
# 2 57.2741 107.6746 22.3726 0.0000 0.0000 0.0000
# 3 22.3726 22.3726 72.0585 0.0000 0.0000 0.0000
# 4 0.0000 0.0000 0.0000 4.0305 0.0000 0.0000
# 5 0.0000 0.0000 0.0000 0.0000 4.0305 0.0000
# 6 0.0000 0.0000 0.0000 0.0000 0.0000 25.2002
#
#
#
# Elastic Compliance Matrix: (Units=1/GPa)
#
#
# Indices 1 2 3 4 5 6 
#
# 1 0.013231 -0.006611 -0.002055 0.000000 0.000000 0.000000
# 2 -0.006611 0.013231 -0.002055 0.000000 0.000000 0.000000
# 3 -0.002055 -0.002055 0.015154 0.000000 0.000000 0.000000
# 4 0.000000 0.000000 0.000000 0.248106 0.000000 0.000000
# 5 0.000000 0.000000 0.000000 0.000000 0.248106 0.000000
# 6 0.000000 0.000000 0.000000 0.000000 0.000000 0.039682
#
#
# Mechanical properties :
#
#
# Convention : Reuss Voigt Hill
#
# Bulk Modulus (GPa) = 49.57246 54.60515 52.08880
# Shear Modulus (GPa) = 8.25524 19.01148 13.63336
#
# Velocity S-wave (km/s) = 2.05356 3.11638 2.63903
# Velocity P-wave (km/s) = 5.56295 6.39090 5.99124
#
# Compressibility (1/GPa) = 0.02017249
#
# Stress axis : x y z
#
# Youngs Moduli (GPa) = 75.58254 75.58254 65.98951
#
# Poissons Ratio (x) = 0.49964 0.13563
# Poissons Ratio (y) = 0.49964 0.13563
# Poissons Ratio (z) = 0.15535 0.15535
#
# Static dielectric constant tensor:
#      x y z
#    x 1.678870 0.000000 0.000000 
#    y 0.000000 1.678870 0.000000 
#    z 0.000000 0.000000 1.760390 
# 
# From -- ./inp_files/10282.got.cif
#   From: 2010.05.17/outbox.cif.g08.bks.cpg/sg180_6_cif.got.tgz:10282.got - 2010.05.20 11:43:55.
