data_PCOD9583077
_publ_section_title
;
Structure prediction by ZEFSAII (Michael W. Deem and Ramdas Pophale) SiO2 
 PCOD9583077
Probable space group: P 61 2 2
;
_chemical_formula_sum "Si O2"
_cell_formula_units_Z 30
_cell_length_a 8.129623
_cell_length_b 8.129623
_cell_length_c 20.691028
_cell_angle_alpha 90.000000
_cell_angle_beta 90.000000
_cell_angle_gamma 120.000000
_cell_volume 1184.277594
_symmetry_space_group_name_H-M "P 61 2 2"
_symmetry_group_IT_number 178
_symmetry_cell_setting 'hexagonal'
loop_
_space_group_symop_operation_xyz
x,y,z
x-y,x,1/6+z
-y,x-y,1/3+z
-x,-y,1/2+z
-x+y,-x,2/3+z
y,-x+y,5/6+z
x-y,-y,-z
-x,-x+y,2/3-z
y,x,1/3-z
-y,-x,5/6-z
-x+y,y,1/2-z
x,x-y,1/6-z
loop_
_atom_site_type_symbol
_atom_site_label
_atom_site_fract_x
_atom_site_fract_y
_atom_site_fract_z
Si Si1 0.714079 0.656809 0.931569
Si Si2 0.000000 0.627683 0.833334
Si Si3 0.321370 0.348855 0.575622
O O1 0.497098 0.502903 0.916667
O O2 0.848962 0.656006 0.875087
O O3 0.749933 0.866519 0.941198
O O4 0.729617 0.603324 0.005210
O O5 0.921949 0.462643 0.779393
O O6 0.399509 0.199755 0.583334
#
# Coordination Sequence:
#
# PCOD9583077 Si02
#       3
#    12   6  12
#     4  12  29  47  80 116 156 210 271 330 406 489
#     4  12  28  50  82 116 164 210 270 340 404 488
#     4  12  26  53  79 110 162 215 262 333 412 482
#
# _framework density 25.331896
#
# number of rings (size 3 to 8) (size 9 to 14) (size 15 to 20)
#    0.000    0.000    4.000    3.600   11.200    3.200 
#    0.000    0.000    0.000    0.000    0.000    0.000 
#    0.000    0.000    0.000    0.000    0.000    0.000 
#
# Total GULP energy -167563.503341 kJ/mol
# GULP energy per Si atom -5585.450111 kJ/mol
# Density = 2.527424 g / cm^3
# Si number density = 25.331896 Si / 1000 Ang^3
#
#
#
# Elastic Constant Matrix: (Units=GPa)
#
#
# Indices 1 2 3 4 5 6 
#
# 1 98.1457 34.7816 25.2671 0.0000 0.0000 0.0000
# 2 34.7816 98.1457 25.2671 0.0000 0.0000 0.0000
# 3 25.2671 25.2671 120.9728 0.0000 0.0000 0.0000
# 4 0.0000 0.0000 0.0000 52.4512 0.0000 0.0000
# 5 0.0000 0.0000 0.0000 0.0000 52.4512 0.0000
# 6 0.0000 0.0000 0.0000 0.0000 0.0000 31.6821
#
#
#
# Elastic Compliance Matrix: (Units=1/GPa)
#
#
# Indices 1 2 3 4 5 6 
#
# 1 0.011977 -0.003805 -0.001707 0.000000 0.000000 0.000000
# 2 -0.003805 0.011977 -0.001707 0.000000 0.000000 0.000000
# 3 -0.001707 -0.001707 0.008979 0.000000 0.000000 0.000000
# 4 0.000000 0.000000 0.000000 0.019065 0.000000 0.000000
# 5 0.000000 0.000000 0.000000 0.000000 0.019065 0.000000
# 6 0.000000 0.000000 0.000000 0.000000 0.000000 0.031564
#
#
# Mechanical properties :
#
#
# Convention : Reuss Voigt Hill
#
# Bulk Modulus (GPa) = 54.06682 54.21066 54.13874
# Shear Modulus (GPa) = 40.57465 42.78011 41.67738
#
# Velocity S-wave (km/s) = 4.00649 4.11394 4.06057
# Velocity P-wave (km/s) = 6.54159 6.63420 6.58806
#
# Compressibility (1/GPa) = 0.01849563
#
# Stress axis : x y z
#
# Youngs Moduli (GPa) = 83.49486 83.49486 111.36712
#
# Poissons Ratio (x) = 0.31770 0.19008
# Poissons Ratio (y) = 0.31770 0.19008
# Poissons Ratio (z) = 0.14251 0.14251
#
# Static dielectric constant tensor:
#      x y z
#    x 1.994810 0.000000 0.000000 
#    y 0.000000 1.994810 0.000000 
#    z 0.000000 0.000000 2.538070 
# 
# From -- ./inp_files/7816.got.cif
#   From: 2010.05.17/outbox.cif.g08.bks.cpg/sg178_4_cif.got.tgz:7816.got - 2010.05.20 11:30:59.
