data_PCOD9583863
_publ_section_title
;
Structure prediction by ZEFSAII (Michael W. Deem and Ramdas Pophale) SiO2 
 PCOD9583863
Probable space group: P 62 2 2
;
_chemical_formula_sum "Si O2"
_cell_formula_units_Z 48
_cell_length_a 12.207578
_cell_length_b 12.207578
_cell_length_c 18.881773
_cell_angle_alpha 90.000000
_cell_angle_beta 90.000000
_cell_angle_gamma 120.000000
_cell_volume 2436.870326
_symmetry_space_group_name_H-M "P 62 2 2"
_symmetry_group_IT_number 180
_symmetry_cell_setting 'hexagonal'
loop_
_space_group_symop_operation_xyz
x,y,z
x-y,x,1/3+z
-y,x-y,2/3+z
-x,-y,z
-x+y,-x,1/3+z
y,-x+y,2/3+z
x-y,-y,-z
-x,-x+y,1/3-z
y,x,2/3-z
-y,-x,2/3-z
-x+y,y,-z
x,x-y,1/3-z
loop_
_atom_site_type_symbol
_atom_site_label
_atom_site_fract_x
_atom_site_fract_y
_atom_site_fract_z
Si Si1 0.701009 0.079687 0.694224
Si Si2 0.500000 0.500000 0.142022
Si Si3 0.183082 0.571279 0.084910
Si Si4 0.830703 0.169298 0.333334
Si Si5 0.649412 0.193592 0.928429
O O1 0.630219 0.115676 0.632048
O O2 0.796522 0.215928 0.727173
O O3 0.600120 0.999214 0.755204
O O4 0.747764 0.981990 0.676342
O O5 0.457053 0.574148 0.193839
O O6 0.147135 0.573568 0.166667
O O7 0.165806 0.438787 0.056977
O O8 0.333320 0.668081 0.078558
O O9 0.569854 0.139708 0.000000
#
# Coordination Sequence:
#
# PCOD9583863 Si02
#       5
#    12   6  12   6  12
#     4  11  21  34  51  84 114 155 196 232 298 358
#     4  12  19  36  57  80 116 158 194 244 293 356
#     4  11  20  34  54  80 117 153 192 245 299 360
#     4  12  20  34  52  75 119 158 190 226 300 350
#     4  10  21  36  56  85 117 151 195 246 297 360
#
# _framework density 19.697396000000001
#
# number of rings (size 3 to 8) (size 9 to 14) (size 15 to 20)
#    0.000    1.000    6.250    4.125    0.000    2.000 
#    0.000    0.000    0.000    0.000    0.000   14.000 
#    0.000   32.000    0.000    0.000    0.000    0.000 
#
# Total GULP energy -267423.941623 kJ/mol
# GULP energy per Si atom -5571.332117 kJ/mol
# Density = 1.965256 g / cm^3
# Si number density = 19.697396 Si / 1000 Ang^3
#
#
#
# Elastic Constant Matrix: (Units=GPa)
#
#
# Indices 1 2 3 4 5 6 
#
# 1 84.2757 34.7037 14.2075 0.0000 0.0000 0.0000
# 2 34.7037 84.2757 14.2075 0.0000 0.0000 0.0000
# 3 14.2075 14.2075 129.5074 0.0000 0.0000 0.0000
# 4 0.0000 0.0000 0.0000 12.5411 0.0000 0.0000
# 5 0.0000 0.0000 0.0000 0.0000 12.5411 0.0000
# 6 0.0000 0.0000 0.0000 0.0000 0.0000 24.7860
#
#
#
# Elastic Compliance Matrix: (Units=1/GPa)
#
#
# Indices 1 2 3 4 5 6 
#
# 1 0.014402 -0.005771 -0.000947 0.000000 0.000000 0.000000
# 2 -0.005771 0.014402 -0.000947 0.000000 0.000000 0.000000
# 3 -0.000947 -0.000947 0.007929 0.000000 0.000000 0.000000
# 4 0.000000 0.000000 0.000000 0.079738 0.000000 0.000000
# 5 0.000000 0.000000 0.000000 0.000000 0.079738 0.000000
# 6 0.000000 0.000000 0.000000 0.000000 0.000000 0.040345
#
#
# Mechanical properties :
#
#
# Convention : Reuss Voigt Hill
#
# Bulk Modulus (GPa) = 46.72069 47.14405 46.93237
# Shear Modulus (GPa) = 19.30369 25.63631 22.47000
#
# Velocity S-wave (km/s) = 3.13391 3.61156 3.38118
# Velocity P-wave (km/s) = 6.07173 6.43251 6.25472
#
# Compressibility (1/GPa) = 0.02140379
#
# Stress axis : x y z
#
# Youngs Moduli (GPa) = 69.43574 69.43574 126.11433
#
# Poissons Ratio (x) = 0.40070 0.11941
# Poissons Ratio (y) = 0.40070 0.11941
# Poissons Ratio (z) = 0.06575 0.06575
#
# Static dielectric constant tensor:
#      x y z
#    x 1.768260 0.000000 0.000000 
#    y 0.000000 1.768260 0.000000 
#    z 0.000000 0.000000 1.801940 
# 
# From -- ./inp_files/8737.got.cif
#   From: 2010.05.17/outbox.cif.g08.bks.cpg/sg180_5_cif.got.tgz:8737.got - 2010.05.20 11:43:55.
