data_PCOD9583512
_publ_section_title
;
Structure prediction by ZEFSAII (Michael W. Deem and Ramdas Pophale) SiO2 
 PCOD9583512
Probable space group: P 65 2 2
;
_chemical_formula_sum "Si O2"
_cell_formula_units_Z 60
_cell_length_a 11.224016
_cell_length_b 11.224016
_cell_length_c 30.460352
_cell_angle_alpha 90.000000
_cell_angle_beta 90.000000
_cell_angle_gamma 120.000000
_cell_volume 3323.243038
_symmetry_space_group_name_H-M "P 65 2 2"
_symmetry_group_IT_number 179
_symmetry_cell_setting 'hexagonal'
loop_
_space_group_symop_operation_xyz
x,y,z
x-y,x,5/6+z
-y,x-y,2/3+z
-x,-y,1/2+z
-x+y,-x,1/3+z
y,-x+y,1/6+z
x-y,-y,-z
-x,-x+y,1/3-z
y,x,2/3-z
-y,-x,1/6-z
-x+y,y,1/2-z
x,x-y,5/6-z
loop_
_atom_site_type_symbol
_atom_site_label
_atom_site_fract_x
_atom_site_fract_y
_atom_site_fract_z
Si Si1 0.559438 0.725390 0.586931
Si Si2 0.570292 0.566928 0.451265
Si Si3 0.512044 0.390896 0.301160
Si Si4 0.358027 0.196417 0.838609
Si Si5 0.468293 0.379598 0.538064
O O1 0.408384 0.591617 0.583334
O O2 0.543681 0.852846 0.600603
O O3 0.633962 0.765545 0.540452
O O4 0.644963 0.683768 0.619373
O O5 0.450336 0.516620 0.414526
O O6 0.638671 0.731381 0.459010
O O7 0.520262 0.481519 0.496428
O O8 0.408330 0.408330 0.333334
O O9 0.662592 0.497634 0.320596
O O10 0.482765 0.236413 0.301995
O O11 0.244241 0.244241 0.833334
O O12 0.550670 0.449330 0.583334
#
# Coordination Sequence:
#
# PCOD9583512 Si02
#       5
#    12  12  12  12  12
#     4  11  22  40  61  96 127 161 210 267 316 382
#     4  12  23  39  69  89 133 172 209 269 327 376
#     4  11  24  41  64  97 127 166 219 268 325 385
#     4  11  21  40  61  94 125 162 217 260 314 384
#     4  11  24  39  63  94 130 162 216 265 323 384
#
# _framework density 18.054652999999998
#
# number of rings (size 3 to 8) (size 9 to 14) (size 15 to 20)
#    0.000    0.800    8.000    3.000    2.800    0.000 
#    0.000    1.000    0.000    2.400    0.000    0.000 
#    0.000    0.000    0.000    0.000    0.000    0.000 
#
# Total GULP energy -334493.820422 kJ/mol
# GULP energy per Si atom -5574.897007 kJ/mol
# Density = 1.801356 g / cm^3
# Si number density = 18.054653 Si / 1000 Ang^3
#
#
#
# Elastic Constant Matrix: (Units=GPa)
#
#
# Indices 1 2 3 4 5 6 
#
# 1 94.1738 47.1782 27.2360 0.0000 0.0000 0.0000
# 2 47.1782 94.1738 27.2360 0.0000 0.0000 0.0000
# 3 27.2360 27.2360 99.4767 0.0000 0.0000 0.0000
# 4 0.0000 0.0000 0.0000 28.5355 0.0000 0.0000
# 5 0.0000 0.0000 0.0000 0.0000 28.5355 0.0000
# 6 0.0000 0.0000 0.0000 0.0000 0.0000 23.4978
#
#
#
# Elastic Compliance Matrix: (Units=1/GPa)
#
#
# Indices 1 2 3 4 5 6 
#
# 1 0.014594 -0.006685 -0.002165 0.000000 0.000000 0.000000
# 2 -0.006685 0.014594 -0.002165 0.000000 0.000000 0.000000
# 3 -0.002165 -0.002165 0.011238 0.000000 0.000000 0.000000
# 4 0.000000 0.000000 0.000000 0.035044 0.000000 0.000000
# 5 0.000000 0.000000 0.000000 0.000000 0.035044 0.000000
# 6 0.000000 0.000000 0.000000 0.000000 0.000000 0.042557
#
#
# Mechanical properties :
#
#
# Convention : Reuss Voigt Hill
#
# Bulk Modulus (GPa) = 54.36358 54.56942 54.46650
# Shear Modulus (GPa) = 27.58861 28.52535 28.05698
#
# Velocity S-wave (km/s) = 3.91328 3.97916 3.94636
# Velocity P-wave (km/s) = 7.11297 7.16951 7.14129
#
# Compressibility (1/GPa) = 0.01839467
#
# Stress axis : x y z
#
# Youngs Moduli (GPa) = 68.52222 68.52222 88.98089
#
# Poissons Ratio (x) = 0.45806 0.19268
# Poissons Ratio (y) = 0.45806 0.19268
# Poissons Ratio (z) = 0.14838 0.14838
#
# Static dielectric constant tensor:
#      x y z
#    x 1.621990 0.000000 0.000000 
#    y 0.000000 1.621990 0.000000 
#    z 0.000000 0.000000 1.722460 
# 
# From -- ./inp_files/8847.got.cif
#   From: 2010.05.17/outbox.cif.g08.bks.cpg/sg179_5_cif.got.tgz:8847.got - 2010.05.20 11:37:33.
