data_PCOD9583424
_publ_section_title
;
Structure prediction by ZEFSAII (Michael W. Deem and Ramdas Pophale) SiO2 
 PCOD9583424
Probable space group: P 65 2 2
;
_chemical_formula_sum "Si O2"
_cell_formula_units_Z 36
_cell_length_a 8.242977
_cell_length_b 8.242977
_cell_length_c 23.932132
_cell_angle_alpha 90.000000
_cell_angle_beta 90.000000
_cell_angle_gamma 120.000000
_cell_volume 1408.251419
_symmetry_space_group_name_H-M "P 65 2 2"
_symmetry_group_IT_number 179
_symmetry_cell_setting 'hexagonal'
loop_
_space_group_symop_operation_xyz
x,y,z
x-y,x,5/6+z
-y,x-y,2/3+z
-x,-y,1/2+z
-x+y,-x,1/3+z
y,-x+y,1/6+z
x-y,-y,-z
-x,-x+y,1/3-z
y,x,2/3-z
-y,-x,1/6-z
-x+y,y,1/2-z
x,x-y,5/6-z
loop_
_atom_site_type_symbol
_atom_site_label
_atom_site_fract_x
_atom_site_fract_y
_atom_site_fract_z
Si Si1 0.104382 0.690268 0.219341
Si Si2 0.681645 0.989543 0.102760
Si Si3 0.959592 0.570959 0.990717
O O1 0.037018 0.471028 0.224629
O O2 0.059097 0.717504 0.283049
O O3 0.000000 0.716248 0.166667
O O4 0.315371 0.832288 0.201155
O O5 0.895503 0.104498 0.083334
O O6 0.631167 0.073342 0.157812
O O7 0.595271 0.772080 0.115472
#
# Coordination Sequence:
#
# PCOD9583424 Si02
#       3
#    12  12  12
#     4  10  23  43  69 100 145 192 245 310 386 449
#     4  10  23  41  71 104 145 193 250 303 389 457
#     4  10  23  43  70 101 149 189 247 313 372 464
#
# _framework density 25.563618999999999
#
# number of rings (size 3 to 8) (size 9 to 14) (size 15 to 20)
#    2.000    0.000    0.000    3.000    0.000    5.333 
#    0.000    0.000    0.000    0.000    0.000    0.000 
#    0.000    0.000    0.000    0.000    0.000    0.000 
#
# Total GULP energy -200468.169780 kJ/mol
# GULP energy per Si atom -5568.560272 kJ/mol
# Density = 2.550543 g / cm^3
# Si number density = 25.563619 Si / 1000 Ang^3
#
#
#
# Elastic Constant Matrix: (Units=GPa)
#
#
# Indices 1 2 3 4 5 6 
#
# 1 36.2034 0.5582 23.5940 0.0000 0.0000 0.0000
# 2 0.5582 36.2034 23.5940 0.0000 0.0000 0.0000
# 3 23.5940 23.5940 173.6984 0.0000 0.0000 0.0000
# 4 0.0000 0.0000 0.0000 45.9568 0.0000 0.0000
# 5 0.0000 0.0000 0.0000 0.0000 45.9568 0.0000
# 6 0.0000 0.0000 0.0000 0.0000 0.0000 17.8226
#
#
#
# Elastic Compliance Matrix: (Units=1/GPa)
#
#
# Indices 1 2 3 4 5 6 
#
# 1 0.030501 0.002446 -0.004475 0.000000 0.000000 0.000000
# 2 0.002446 0.030501 -0.004475 0.000000 0.000000 0.000000
# 3 -0.004475 -0.004475 0.006973 0.000000 0.000000 0.000000
# 4 0.000000 0.000000 0.000000 0.021760 0.000000 0.000000
# 5 0.000000 0.000000 0.000000 0.000000 0.021760 0.000000
# 6 0.000000 0.000000 0.000000 0.000000 0.000000 0.056109
#
#
# Mechanical properties :
#
#
# Convention : Reuss Voigt Hill
#
# Bulk Modulus (GPa) = 18.19319 37.95526 28.07423
# Shear Modulus (GPa) = 25.13421 35.17118 30.15270
#
# Velocity S-wave (km/s) = 3.13901 3.71324 3.43813
# Velocity P-wave (km/s) = 4.50223 5.76748 5.17368
#
# Compressibility (1/GPa) = 0.05496562
#
# Stress axis : x y z
#
# Youngs Moduli (GPa) = 32.78624 32.78624 143.41254
#
# Poissons Ratio (x) = -0.08021 0.64181
# Poissons Ratio (y) = -0.08021 0.64181
# Poissons Ratio (z) = 0.14673 0.14673
#
# Static dielectric constant tensor:
#      x y z
#    x 2.088980 0.000000 0.000000 
#    y 0.000000 2.088980 0.000000 
#    z 0.000000 0.000000 2.084710 
# 
# From -- ./inp_files/8560.got.cif
#   From: 2010.05.17/outbox.cif.g08.bks.cpg/sg179_5_cif.got.tgz:8560.got - 2010.05.20 11:37:33.
