data_PCOD9583201
_publ_section_title
;
Structure prediction by ZEFSAII (Michael W. Deem and Ramdas Pophale) SiO2 
 PCOD9583201
Probable space group: P 65 2 2
;
_chemical_formula_sum "Si O2"
_cell_formula_units_Z 42
_cell_length_a 12.324682
_cell_length_b 12.324682
_cell_length_c 17.974252
_cell_angle_alpha 90.000000
_cell_angle_beta 90.000000
_cell_angle_gamma 120.000000
_cell_volume 2364.465071
_symmetry_space_group_name_H-M "P 65 2 2"
_symmetry_group_IT_number 179
_symmetry_cell_setting 'hexagonal'
loop_
_space_group_symop_operation_xyz
x,y,z
x-y,x,5/6+z
-y,x-y,2/3+z
-x,-y,1/2+z
-x+y,-x,1/3+z
y,-x+y,1/6+z
x-y,-y,-z
-x,-x+y,1/3-z
y,x,2/3-z
-y,-x,1/6-z
-x+y,y,1/2-z
x,x-y,5/6-z
loop_
_atom_site_type_symbol
_atom_site_label
_atom_site_fract_x
_atom_site_fract_y
_atom_site_fract_z
Si Si1 0.408054 0.074740 0.734598
Si Si2 0.529345 0.941066 0.072950
Si Si3 0.353292 0.646709 0.083334
Si Si4 0.559096 0.886232 0.638582
O O1 0.549566 0.099131 0.750000
O O2 0.390226 0.040597 0.647380
O O3 0.402708 0.201310 0.739326
O O4 0.320791 0.968248 0.792770
O O5 0.425481 0.794552 0.066893
O O6 0.459573 0.019582 0.087397
O O7 0.611522 0.000000 0.000000
O O8 0.427846 0.634415 0.153372
#
# Coordination Sequence:
#
# PCOD9583201 Si02
#       4
#    12  12   6  12
#     4   9  19  36  52  78 113 151 182 225 282 332
#     4  10  21  30  50  80 107 149 185 220 280 330
#     4  10  20  36  50  76 122 142 182 226 276 340
#     4  10  19  36  53  75 115 153 180 224 286 327
#
# _framework density 17.763003000000001
#
# number of rings (size 3 to 8) (size 9 to 14) (size 15 to 20)
#    0.000    2.286    4.286    0.000   12.000    0.000 
#    0.000    0.000    0.000    0.000    0.000    0.000 
#   68.571    0.000    0.000    0.000    0.000    0.000 
#
# Total GULP energy -234044.751596 kJ/mol
# GULP energy per Si atom -5572.494086 kJ/mol
# Density = 1.772257 g / cm^3
# Si number density = 17.763003 Si / 1000 Ang^3
#
#
#
# Elastic Constant Matrix: (Units=GPa)
#
#
# Indices 1 2 3 4 5 6 
#
# 1 85.2735 25.3215 12.0556 0.0000 0.0000 0.0000
# 2 25.3215 85.2735 12.0556 0.0000 0.0000 0.0000
# 3 12.0556 12.0556 57.3403 0.0000 0.0000 0.0000
# 4 0.0000 0.0000 0.0000 9.1893 0.0000 0.0000
# 5 0.0000 0.0000 0.0000 0.0000 9.1893 0.0000
# 6 0.0000 0.0000 0.0000 0.0000 0.0000 29.9760
#
#
#
# Elastic Compliance Matrix: (Units=1/GPa)
#
#
# Indices 1 2 3 4 5 6 
#
# 1 0.013078 -0.003602 -0.001992 0.000000 0.000000 0.000000
# 2 -0.003602 0.013078 -0.001992 0.000000 0.000000 0.000000
# 3 -0.001992 -0.001992 0.018278 0.000000 0.000000 0.000000
# 4 0.000000 0.000000 0.000000 0.108822 0.000000 0.000000
# 5 0.000000 0.000000 0.000000 0.000000 0.108822 0.000000
# 6 0.000000 0.000000 0.000000 0.000000 0.000000 0.033360
#
#
# Mechanical properties :
#
#
# Convention : Reuss Voigt Hill
#
# Bulk Modulus (GPa) = 34.17547 36.30586 35.24066
# Shear Modulus (GPa) = 15.60718 21.56789 18.58754
#
# Velocity S-wave (km/s) = 2.96739 3.48832 3.23835
# Velocity P-wave (km/s) = 5.56974 6.05871 5.81936
#
# Compressibility (1/GPa) = 0.02926075
#
# Stress axis : x y z
#
# Youngs Moduli (GPa) = 76.46319 76.46319 54.71206
#
# Poissons Ratio (x) = 0.27541 0.10901
# Poissons Ratio (y) = 0.27541 0.10901
# Poissons Ratio (z) = 0.15234 0.15234
#
# Static dielectric constant tensor:
#      x y z
#    x 1.617530 0.000000 0.000000 
#    y 0.000000 1.617530 0.000000 
#    z 0.000000 0.000000 1.675290 
# 
# From -- ./inp_files/6435.got.cif
#   From: 2010.05.17/outbox.cif.g08.bks.cpg/sg179_4_cif.got.tgz:6435.got - 2010.05.20 11:37:33.
