data_PCOD9583331
_publ_section_title
;
Structure prediction by ZEFSAII (Michael W. Deem and Ramdas Pophale) SiO2 
 PCOD9583331
Probable space group: P 65 2 2
;
_chemical_formula_sum "Si O2"
_cell_formula_units_Z 60
_cell_length_a 14.593239
_cell_length_b 14.593239
_cell_length_c 13.120562
_cell_angle_alpha 90.000000
_cell_angle_beta 90.000000
_cell_angle_gamma 120.000000
_cell_volume 2419.838933
_symmetry_space_group_name_H-M "P 65 2 2"
_symmetry_group_IT_number 179
_symmetry_cell_setting 'hexagonal'
loop_
_space_group_symop_operation_xyz
x,y,z
x-y,x,5/6+z
-y,x-y,2/3+z
-x,-y,1/2+z
-x+y,-x,1/3+z
y,-x+y,1/6+z
x-y,-y,-z
-x,-x+y,1/3-z
y,x,2/3-z
-y,-x,1/6-z
-x+y,y,1/2-z
x,x-y,5/6-z
loop_
_atom_site_type_symbol
_atom_site_label
_atom_site_fract_x
_atom_site_fract_y
_atom_site_fract_z
Si Si1 0.527214 0.054428 0.250000
Si Si2 0.195570 0.601564 0.614350
Si Si3 0.985078 0.701675 0.884240
Si Si4 0.899672 0.728800 0.094705
Si Si5 0.249630 0.348917 0.308246
Si Si6 0.774876 0.549752 0.250000
O O1 0.586071 0.130835 0.346475
O O2 0.593017 0.995065 0.223189
O O3 0.317655 0.682346 0.583334
O O4 0.145756 0.673015 0.646933
O O5 0.184191 0.526309 0.707598
O O6 0.869038 0.665819 0.823346
O O7 0.023865 0.719892 0.745390
O O8 0.937512 0.687176 0.001868
O O9 0.805182 0.629332 0.155419
O O10 0.000000 0.796694 0.166667
O O11 0.833083 0.781890 0.058668
#
# Coordination Sequence:
#
# PCOD9583331 Si02
#       6
#     6  12  12  12  12   6
#     4  10  21  40  64  96 142 182 242 289 360 454
#     4  10  22  40  63  99 144 184 228 293 351 443
#     4  11  23  42  69  98 136 186 237 295 379 432
#     4  12  24  44  67 101 139 187 241 306 363 444
#     4  10  22  42  69  97 133 183 239 299 358 442
#     4  12  23  40  68  96 142 184 234 283 360 438
#
# _framework density 24.795038000000002
#
# number of rings (size 3 to 8) (size 9 to 14) (size 15 to 20)
#    0.000    1.200    4.000    1.800    0.000    4.000 
#    5.400    0.000    0.000   12.000    0.000    0.000 
#    0.000    0.000    0.000    0.000    0.000    0.000 
#
# Total GULP energy -334171.480633 kJ/mol
# GULP energy per Si atom -5569.524677 kJ/mol
# Density = 2.473860 g / cm^3
# Si number density = 24.795038 Si / 1000 Ang^3
#
#
#
# Elastic Constant Matrix: (Units=GPa)
#
#
# Indices 1 2 3 4 5 6 
#
# 1 127.5830 72.4115 46.9619 0.0000 0.0000 0.0000
# 2 72.4115 127.5830 46.9619 0.0000 0.0000 0.0000
# 3 46.9619 46.9619 159.4650 0.0000 0.0000 0.0000
# 4 0.0000 0.0000 0.0000 53.4379 0.0000 0.0000
# 5 0.0000 0.0000 0.0000 0.0000 53.4379 0.0000
# 6 0.0000 0.0000 0.0000 0.0000 0.0000 27.5858
#
#
#
# Elastic Compliance Matrix: (Units=1/GPa)
#
#
# Indices 1 2 3 4 5 6 
#
# 1 0.011964 -0.006161 -0.001709 0.000000 0.000000 0.000000
# 2 -0.006161 0.011964 -0.001709 0.000000 0.000000 0.000000
# 3 -0.001709 -0.001709 0.007277 0.000000 0.000000 0.000000
# 4 0.000000 0.000000 0.000000 0.018713 0.000000 0.000000
# 5 0.000000 0.000000 0.000000 0.000000 0.018713 0.000000
# 6 0.000000 0.000000 0.000000 0.000000 0.000000 0.036251
#
#
# Mechanical properties :
#
#
# Convention : Reuss Voigt Hill
#
# Bulk Modulus (GPa) = 83.00573 83.03350 83.01961
# Shear Modulus (GPa) = 39.04529 43.44539 41.24534
#
# Velocity S-wave (km/s) = 3.97258 4.19045 4.08297
# Velocity P-wave (km/s) = 7.38859 7.54810 7.46877
#
# Compressibility (1/GPa) = 0.01204736
#
# Stress axis : x y z
#
# Youngs Moduli (GPa) = 83.58425 83.58425 137.41019
#
# Poissons Ratio (x) = 0.51499 0.23482
# Poissons Ratio (y) = 0.51499 0.23482
# Poissons Ratio (z) = 0.14283 0.14283
#
# Static dielectric constant tensor:
#      x y z
#    x 1.959570 0.000000 0.000000 
#    y 0.000000 1.959570 0.000000 
#    z 0.000000 0.000000 1.952760 
# 
# From -- ./inp_files/4710.got.cif
#   From: 2010.05.17/outbox.cif.g08.bks.cpg/sg179_3_cif.got.tgz:4710.got - 2010.05.20 11:37:33.
