data_PCOD9583005
_publ_section_title
;
Structure prediction by ZEFSAII (Michael W. Deem and Ramdas Pophale) SiO2 
 PCOD9583005
Probable space group: P 61 2 2
;
_chemical_formula_sum "Si O2"
_cell_formula_units_Z 36
_cell_length_a 7.959227
_cell_length_b 7.959227
_cell_length_c 24.519710
_cell_angle_alpha 90.000000
_cell_angle_beta 90.000000
_cell_angle_gamma 120.000000
_cell_volume 1345.202740
_symmetry_space_group_name_H-M "P 61 2 2"
_symmetry_group_IT_number 178
_symmetry_cell_setting 'hexagonal'
loop_
_space_group_symop_operation_xyz
x,y,z
x-y,x,1/6+z
-y,x-y,1/3+z
-x,-y,1/2+z
-x+y,-x,2/3+z
y,-x+y,5/6+z
x-y,-y,-z
-x,-x+y,2/3-z
y,x,1/3-z
-y,-x,5/6-z
-x+y,y,1/2-z
x,x-y,1/6-z
loop_
_atom_site_type_symbol
_atom_site_label
_atom_site_fract_x
_atom_site_fract_y
_atom_site_fract_z
Si Si1 0.411201 0.389895 0.103639
Si Si2 0.375789 0.401468 0.829802
Si Si3 0.271494 0.981766 0.225929
O O1 0.454427 0.454427 0.166667
O O2 0.483831 0.241916 0.083334
O O3 0.484049 0.566266 0.060435
O O4 0.176988 0.266712 0.100431
O O5 0.579824 0.522537 0.862002
O O6 0.298819 0.182182 0.812569
O O7 0.246550 0.376616 0.883075
#
# Coordination Sequence:
#
# PCOD9583005 Si02
#       3
#    12  12  12
#     4  12  24  44  72 104 149 197 246 309 387 444
#     4  11  24  43  74 102 144 191 247 311 368 452
#     4  11  24  46  69 108 145 191 253 306 379 454
#
# _framework density 26.761765
#
# number of rings (size 3 to 8) (size 9 to 14) (size 15 to 20)
#    0.000    0.667    6.667    0.000    4.667    0.000 
#    0.000    8.333    0.000    0.000    0.000    0.000 
#    0.000    0.000    0.000    0.000    0.000    0.000 
#
# Total GULP energy -200760.232710 kJ/mol
# GULP energy per Si atom -5576.673131 kJ/mol
# Density = 2.670085 g / cm^3
# Si number density = 26.761765 Si / 1000 Ang^3
#
#
#
# Elastic Constant Matrix: (Units=GPa)
#
#
# Indices 1 2 3 4 5 6 
#
# 1 30.7850 24.3394 41.4240 0.0000 0.0000 0.0000
# 2 24.3394 30.7850 41.4240 0.0000 0.0000 0.0000
# 3 41.4240 41.4240 301.7295 0.0000 0.0000 0.0000
# 4 0.0000 0.0000 0.0000 32.8648 0.0000 0.0000
# 5 0.0000 0.0000 0.0000 0.0000 32.8648 0.0000
# 6 0.0000 0.0000 0.0000 0.0000 0.0000 3.2228
#
#
#
# Elastic Compliance Matrix: (Units=1/GPa)
#
#
# Indices 1 2 3 4 5 6 
#
# 1 0.089001 -0.066144 -0.003138 0.000000 0.000000 0.000000
# 2 -0.066144 0.089001 -0.003138 0.000000 0.000000 0.000000
# 3 -0.003138 -0.003138 0.004176 0.000000 0.000000 0.000000
# 4 0.000000 0.000000 0.000000 0.030428 0.000000 0.000000
# 5 0.000000 0.000000 0.000000 0.000000 0.030428 0.000000
# 6 0.000000 0.000000 0.000000 0.000000 0.000000 0.310289
#
#
# Mechanical properties :
#
#
# Convention : Reuss Voigt Hill
#
# Bulk Modulus (GPa) = 26.78252 64.18604 45.48428
# Shear Modulus (GPa) = 7.03623 30.86464 18.95043
#
# Velocity S-wave (km/s) = 1.62324 3.39973 2.66393
# Velocity P-wave (km/s) = 3.68004 6.28070 5.14732
#
# Compressibility (1/GPa) = 0.03733778
#
# Stress axis : x y z
#
# Youngs Moduli (GPa) = 11.23585 11.23585 239.47230
#
# Poissons Ratio (x) = 0.74318 0.75146
# Poissons Ratio (y) = 0.74318 0.75146
# Poissons Ratio (z) = 0.03526 0.03526
#
# Static dielectric constant tensor:
#      x y z
#    x 2.092470 0.000000 0.000000 
#    y 0.000000 2.092470 0.000000 
#    z 0.000000 0.000000 2.134920 
# 
# From -- ./inp_files/8480.got.cif
#   From: 2010.05.17/outbox.cif.g08.bks.cpg/sg178_5_cif.got.tgz:8480.got - 2010.05.20 11:30:59.
