data_PCOD9583919
_publ_section_title
;
Structure prediction by ZEFSAII (Michael W. Deem and Ramdas Pophale) SiO2 
 PCOD9583919
Probable space group: P 62 2 2
;
_chemical_formula_sum "Si O2"
_cell_formula_units_Z 42
_cell_length_a 8.842719
_cell_length_b 8.842719
_cell_length_c 22.795337
_cell_angle_alpha 90.000000
_cell_angle_beta 90.000000
_cell_angle_gamma 120.000000
_cell_volume 1543.648082
_symmetry_space_group_name_H-M "P 62 2 2"
_symmetry_group_IT_number 180
_symmetry_cell_setting 'hexagonal'
loop_
_space_group_symop_operation_xyz
x,y,z
x-y,x,1/3+z
-y,x-y,2/3+z
-x,-y,z
-x+y,-x,1/3+z
y,-x+y,2/3+z
x-y,-y,-z
-x,-x+y,1/3-z
y,x,2/3-z
-y,-x,2/3-z
-x+y,y,-z
x,x-y,1/3-z
loop_
_atom_site_type_symbol
_atom_site_label
_atom_site_fract_x
_atom_site_fract_y
_atom_site_fract_z
Si Si1 0.112711 0.434439 0.913388
Si Si2 0.866593 0.064406 0.609659
Si Si3 0.794149 0.436125 0.735081
Si Si4 0.122390 0.244780 0.500000
O O1 0.284368 0.620280 0.900315
O O2 0.000000 0.500000 0.950519
O O3 0.979142 0.316602 0.861414
O O4 0.137246 0.287812 0.059823
O O5 0.768203 0.168483 0.599106
O O6 0.000000 0.142059 0.666667
O O7 0.997884 0.138290 0.554026
O O8 0.781649 0.390825 0.666667
O O9 0.000000 0.500000 0.750492
#
# Coordination Sequence:
#
# PCOD9583919 Si02
#       4
#    12  12  12   6
#     4  11  23  41  68 102 141 183 235 295 366 443
#     4  10  21  44  71 103 142 181 231 298 372 443
#     4  11  25  45  67  99 141 192 252 304 362 443
#     4  10  23  44  72 110 147 182 233 302 384 460
#
# _framework density 27.208272000000001
#
# number of rings (size 3 to 8) (size 9 to 14) (size 15 to 20)
#    0.000    1.429    0.000    8.143    0.000    6.857 
#    0.000   17.143    0.000    1.714    0.000    0.000 
#    0.000    0.000    0.000    0.000    0.000    0.000 
#
# Total GULP energy -233861.915529 kJ/mol
# GULP energy per Si atom -5568.140846 kJ/mol
# Density = 2.714634 g / cm^3
# Si number density = 27.208272 Si / 1000 Ang^3
#
#
#
# Elastic Constant Matrix: (Units=GPa)
#
#
# Indices 1 2 3 4 5 6 
#
# 1 280.5998 119.6516 70.1832 0.0000 0.0000 0.0000
# 2 119.6516 280.5998 70.1832 0.0000 0.0000 0.0000
# 3 70.1832 70.1832 180.9773 0.0000 0.0000 0.0000
# 4 0.0000 0.0000 0.0000 -29.4882 0.0000 0.0000
# 5 0.0000 0.0000 0.0000 0.0000 -29.4882 0.0000
# 6 0.0000 0.0000 0.0000 0.0000 0.0000 80.4741
#
#
#
# Elastic Compliance Matrix: (Units=1/GPa)
#
#
# Indices 1 2 3 4 5 6 
#
# 1 0.004552 -0.001661 -0.001121 0.000000 0.000000 0.000000
# 2 -0.001661 0.004552 -0.001121 0.000000 0.000000 0.000000
# 3 -0.001121 -0.001121 0.006395 0.000000 0.000000 0.000000
# 4 0.000000 0.000000 0.000000 -0.033912 0.000000 0.000000
# 5 0.000000 0.000000 0.000000 0.000000 -0.033912 0.000000
# 6 0.000000 0.000000 0.000000 0.000000 0.000000 0.012426
#
#
# Mechanical properties :
#
#
# Convention : Reuss Voigt Hill
#
# Bulk Modulus (GPa) = 129.98658 140.24588 135.11623
# Shear Modulus (GPa) = -169.34398 36.44347 -66.45025
#
# Velocity S-wave (km/s) = -7.89778 3.66379 -4.94731
# Velocity P-wave (km/s) = 5.94040 8.33996 4.13924
#
# Compressibility (1/GPa) = 0.00769310
#
# Stress axis : x y z
#
# Youngs Moduli (GPa) = 219.66244 219.66244 156.36438
#
# Poissons Ratio (x) = 0.36480 0.17535
# Poissons Ratio (y) = 0.36480 0.17535
# Poissons Ratio (z) = 0.24633 0.24633
#
# Static dielectric constant tensor:
#      x y z
#    x 2.145670 0.000000 0.000000 
#    y 0.000000 2.145670 0.000000 
#    z 0.000000 0.000000 2.202350 
# 
# From -- ./inp_files/7309.got.cif
#   From: 2010.05.17/outbox.cif.g08.bks.cpg/sg180_4_cif.got.tgz:7309.got - 2010.05.20 11:43:55.
