data_PCOD9583485
_publ_section_title
;
Structure prediction by ZEFSAII (Michael W. Deem and Ramdas Pophale) SiO2 
 PCOD9583485
Probable space group: P 65 2 2
;
_chemical_formula_sum "Si O2"
_cell_formula_units_Z 42
_cell_length_a 7.640133
_cell_length_b 7.640133
_cell_length_c 29.015780
_cell_angle_alpha 90.000000
_cell_angle_beta 90.000000
_cell_angle_gamma 120.000000
_cell_volume 1466.785875
_symmetry_space_group_name_H-M "P 65 2 2"
_symmetry_group_IT_number 179
_symmetry_cell_setting 'hexagonal'
loop_
_space_group_symop_operation_xyz
x,y,z
x-y,x,5/6+z
-y,x-y,2/3+z
-x,-y,1/2+z
-x+y,-x,1/3+z
y,-x+y,1/6+z
x-y,-y,-z
-x,-x+y,1/3-z
y,x,2/3-z
-y,-x,1/6-z
-x+y,y,1/2-z
x,x-y,5/6-z
loop_
_atom_site_type_symbol
_atom_site_label
_atom_site_fract_x
_atom_site_fract_y
_atom_site_fract_z
Si Si1 0.538895 0.987644 0.912606
Si Si2 0.421760 0.578241 0.583334
Si Si3 0.099559 0.738306 0.484463
Si Si4 0.083727 0.834148 0.033904
O O1 0.710814 0.114071 0.951113
O O2 0.311304 0.812902 0.926131
O O3 0.588615 0.871283 0.871979
O O4 0.471593 0.122261 0.880849
O O5 0.523851 0.528522 0.625396
O O6 0.912097 0.779468 0.486287
O O7 0.075774 0.924227 0.083334
O O8 0.245081 0.000000 0.000000
#
# Coordination Sequence:
#
# PCOD9583485 Si02
#       4
#    12   6  12  12
#     4  11  28  51  86 117 174 229 292 375 453 544
#     4  10  28  48  76 124 164 222 290 358 446 536
#     4  11  27  52  83 123 168 230 293 371 448 549
#     4  11  27  49  78 121 168 228 297 369 456 551
#
# _framework density 28.634035999999998
#
# number of rings (size 3 to 8) (size 9 to 14) (size 15 to 20)
#    0.000    1.143    0.000    1.714   24.000    0.000 
#    0.000    0.000    0.000    0.000    0.000    0.000 
#    0.000    0.000    0.000    0.000    0.000    0.000 
#
# Total GULP energy -234388.211020 kJ/mol
# GULP energy per Si atom -5580.671691 kJ/mol
# Density = 2.856886 g / cm^3
# Si number density = 28.634036 Si / 1000 Ang^3
#
#
#
# Elastic Constant Matrix: (Units=GPa)
#
#
# Indices 1 2 3 4 5 6 
#
# 1 127.3472 67.5571 60.2974 0.0000 0.0000 0.0000
# 2 67.5571 127.3472 60.2974 0.0000 0.0000 0.0000
# 3 60.2974 60.2974 179.6990 0.0000 0.0000 0.0000
# 4 0.0000 0.0000 0.0000 50.0793 0.0000 0.0000
# 5 0.0000 0.0000 0.0000 0.0000 50.0793 0.0000
# 6 0.0000 0.0000 0.0000 0.0000 0.0000 29.8951
#
#
#
# Elastic Compliance Matrix: (Units=1/GPa)
#
#
# Indices 1 2 3 4 5 6 
#
# 1 0.011600 -0.005125 -0.002173 0.000000 0.000000 0.000000
# 2 -0.005125 0.011600 -0.002173 0.000000 0.000000 0.000000
# 3 -0.002173 -0.002173 0.007023 0.000000 0.000000 0.000000
# 4 0.000000 0.000000 0.000000 0.019968 0.000000 0.000000
# 5 0.000000 0.000000 0.000000 0.000000 0.019968 0.000000
# 6 0.000000 0.000000 0.000000 0.000000 0.000000 0.033450
#
#
# Mechanical properties :
#
#
# Convention : Reuss Voigt Hill
#
# Bulk Modulus (GPa) = 88.63438 90.07746 89.35592
# Shear Modulus (GPa) = 39.58462 42.42686 41.00574
#
# Velocity S-wave (km/s) = 3.72214 3.85345 3.78837
# Velocity P-wave (km/s) = 7.03519 7.16417 7.09997
#
# Compressibility (1/GPa) = 0.01128230
#
# Stress axis : x y z
#
# Youngs Moduli (GPa) = 86.20613 86.20613 142.39065
#
# Poissons Ratio (x) = 0.44181 0.30937
# Poissons Ratio (y) = 0.44181 0.30937
# Poissons Ratio (z) = 0.18730 0.18730
#
# Static dielectric constant tensor:
#      x y z
#    x 2.362140 0.000000 0.000000 
#    y 0.000000 2.362140 0.000000 
#    z 0.000000 0.000000 2.343750 
# 
# From -- ./inp_files/9316.got.cif
#   From: 2010.05.17/outbox.cif.g08.bks.cpg/sg179_5_cif.got.tgz:9316.got - 2010.05.20 11:37:33.
