data_PCOD9583447
_publ_section_title
;
Structure prediction by ZEFSAII (Michael W. Deem and Ramdas Pophale) SiO2 
 PCOD9583447
Probable space group: P 65 2 2
;
_chemical_formula_sum "Si O2"
_cell_formula_units_Z 48
_cell_length_a 17.550460
_cell_length_b 17.550460
_cell_length_c 7.666744
_cell_angle_alpha 90.000000
_cell_angle_beta 90.000000
_cell_angle_gamma 120.000000
_cell_volume 2045.119084
_symmetry_space_group_name_H-M "P 65 2 2"
_symmetry_group_IT_number 179
_symmetry_cell_setting 'hexagonal'
loop_
_space_group_symop_operation_xyz
x,y,z
x-y,x,5/6+z
-y,x-y,2/3+z
-x,-y,1/2+z
-x+y,-x,1/3+z
y,-x+y,1/6+z
x-y,-y,-z
-x,-x+y,1/3-z
y,x,2/3-z
-y,-x,1/6-z
-x+y,y,1/2-z
x,x-y,5/6-z
loop_
_atom_site_type_symbol
_atom_site_label
_atom_site_fract_x
_atom_site_fract_y
_atom_site_fract_z
Si Si1 0.177721 0.797208 0.285094
Si Si2 0.116647 0.938715 0.329087
Si Si3 0.041265 0.408393 0.337939
Si Si4 0.138357 0.631996 0.799197
O O1 0.160260 0.878259 0.307108
O O2 0.095248 0.710524 0.363479
O O3 0.263572 0.809813 0.384044
O O4 0.201275 0.798726 0.083334
O O5 0.013032 0.873015 0.352473
O O6 0.154729 0.000000 0.500000
O O7 0.000000 0.343523 0.166667
O O8 0.950659 0.395340 0.413066
O O9 0.100250 0.499938 0.230379
O O10 0.185913 0.592957 0.916667
#
# Coordination Sequence:
#
# PCOD9583447 Si02
#       4
#    12  12  12  12
#     4  12  24  39  66 103 136 181 244 308 360 447
#     4  10  24  41  61  86 137 193 247 300 368 440
#     4   8  22  38  67  92 138 183 233 288 373 438
#     4   9  21  40  66  96 132 172 235 282 368 431
#
# _framework density 23.470517000000001
#
# number of rings (size 3 to 8) (size 9 to 14) (size 15 to 20)
#    1.500    0.500    0.000    2.250   10.500    8.000 
#   13.500    0.000    0.000    4.500    0.000    0.000 
#    0.000    0.000    0.000    0.000    0.000    0.000 
#
# Total GULP energy -267517.732266 kJ/mol
# GULP energy per Si atom -5573.286089 kJ/mol
# Density = 2.341710 g / cm^3
# Si number density = 23.470517 Si / 1000 Ang^3
#
#
#
# Elastic Constant Matrix: (Units=GPa)
#
#
# Indices 1 2 3 4 5 6 
#
# 1 59.5046 29.8909 7.1398 0.0000 0.0000 0.0000
# 2 29.8909 59.5046 7.1398 0.0000 0.0000 0.0000
# 3 7.1398 7.1398 105.2213 0.0000 0.0000 0.0000
# 4 0.0000 0.0000 0.0000 24.6841 0.0000 0.0000
# 5 0.0000 0.0000 0.0000 0.0000 24.6841 0.0000
# 6 0.0000 0.0000 0.0000 0.0000 0.0000 14.8069
#
#
#
# Elastic Compliance Matrix: (Units=1/GPa)
#
#
# Indices 1 2 3 4 5 6 
#
# 1 0.022538 -0.011230 -0.000767 0.000000 0.000000 0.000000
# 2 -0.011230 0.022538 -0.000767 0.000000 0.000000 0.000000
# 3 -0.000767 -0.000767 0.009608 0.000000 0.000000 0.000000
# 4 0.000000 0.000000 0.000000 0.040512 0.000000 0.000000
# 5 0.000000 0.000000 0.000000 0.000000 0.040512 0.000000
# 6 0.000000 0.000000 0.000000 0.000000 0.000000 0.067536
#
#
# Mechanical properties :
#
#
# Convention : Reuss Voigt Hill
#
# Bulk Modulus (GPa) = 34.29812 34.73017 34.51414
# Shear Modulus (GPa) = 20.96505 24.83903 22.90204
#
# Velocity S-wave (km/s) = 2.99197 3.25669 3.12714
# Velocity P-wave (km/s) = 5.15566 5.38246 5.27028
#
# Compressibility (1/GPa) = 0.02915612
#
# Stress axis : x y z
#
# Youngs Moduli (GPa) = 44.36862 44.36862 104.08086
#
# Poissons Ratio (x) = 0.49824 0.07987
# Poissons Ratio (y) = 0.49824 0.07987
# Poissons Ratio (z) = 0.03405 0.03405
#
# Static dielectric constant tensor:
#      x y z
#    x 1.949690 0.000000 0.000000 
#    y 0.000000 1.949690 0.000000 
#    z 0.000000 0.000000 2.216230 
# 
# From -- ./inp_files/2637.got.cif
#   From: 2010.05.17/outbox.cif.g08.bks.cpg/sg179_2_cif.got.tgz:2637.got - 2010.05.20 11:37:33.
