data_PCOD9583450
_publ_section_title
;
Structure prediction by ZEFSAII (Michael W. Deem and Ramdas Pophale) SiO2 
 PCOD9583450
Probable space group: P 65 2 2
;
_chemical_formula_sum "Si O2"
_cell_formula_units_Z 30
_cell_length_a 17.869624
_cell_length_b 17.869624
_cell_length_c 5.114886
_cell_angle_alpha 90.000000
_cell_angle_beta 90.000000
_cell_angle_gamma 120.000000
_cell_volume 1414.481981
_symmetry_space_group_name_H-M "P 65 2 2"
_symmetry_group_IT_number 179
_symmetry_cell_setting 'hexagonal'
loop_
_space_group_symop_operation_xyz
x,y,z
x-y,x,5/6+z
-y,x-y,2/3+z
-x,-y,1/2+z
-x+y,-x,1/3+z
y,-x+y,1/6+z
x-y,-y,-z
-x,-x+y,1/3-z
y,x,2/3-z
-y,-x,1/6-z
-x+y,y,1/2-z
x,x-y,5/6-z
loop_
_atom_site_type_symbol
_atom_site_label
_atom_site_fract_x
_atom_site_fract_y
_atom_site_fract_z
Si Si1 0.097983 0.902018 0.583334
Si Si2 0.060227 0.728029 0.406988
Si Si3 0.314424 0.787537 0.818930
O O1 0.092892 0.830108 0.382245
O O2 0.000000 0.864140 0.666667
O O3 0.141932 0.714612 0.397836
O O4 0.000000 0.693402 0.666667
O O5 0.000000 0.678183 0.166667
O O6 0.279860 0.720141 0.583334
O O7 0.416461 0.832922 0.750000
O O8 0.267046 0.732955 0.083334
#
# Coordination Sequence:
#
# PCOD9583450 Si02
#       3
#     6  12  12
#     4  10  24  42  68 102 144 182 240 294 358 432
#     4  11  25  44  70 101 141 190 237 297 369 439
#     4  12  25  44  71 104 142 187 242 304 368 435
#
# _framework density 21.20918
#
# number of rings (size 3 to 8) (size 9 to 14) (size 15 to 20)
#    0.000    0.800    2.000    4.800    5.600    3.200 
#    0.000    0.000    0.000    0.000    0.000    0.000 
#    0.000    0.000    0.000    0.000    0.000    0.000 
#
# Total GULP energy -167264.838672 kJ/mol
# GULP energy per Si atom -5575.494622 kJ/mol
# Density = 2.116091 g / cm^3
# Si number density = 21.209180 Si / 1000 Ang^3
#
#
#
# Elastic Constant Matrix: (Units=GPa)
#
#
# Indices 1 2 3 4 5 6 
#
# 1 146.6785 66.2745 26.6026 0.0000 0.0000 0.0000
# 2 66.2745 146.6785 26.6026 0.0000 0.0000 0.0000
# 3 26.6026 26.6026 145.9291 0.0000 0.0000 0.0000
# 4 0.0000 0.0000 0.0000 19.6841 0.0000 0.0000
# 5 0.0000 0.0000 0.0000 0.0000 19.6841 0.0000
# 6 0.0000 0.0000 0.0000 0.0000 0.0000 40.2020
#
#
#
# Elastic Compliance Matrix: (Units=1/GPa)
#
#
# Indices 1 2 3 4 5 6 
#
# 1 0.008679 -0.003759 -0.000897 0.000000 0.000000 0.000000
# 2 -0.003759 0.008679 -0.000897 0.000000 0.000000 0.000000
# 3 -0.000897 -0.000897 0.007180 0.000000 0.000000 0.000000
# 4 0.000000 0.000000 0.000000 0.050802 0.000000 0.000000
# 5 0.000000 0.000000 0.000000 0.000000 0.050802 0.000000
# 6 0.000000 0.000000 0.000000 0.000000 0.000000 0.024874
#
#
# Mechanical properties :
#
#
# Convention : Reuss Voigt Hill
#
# Bulk Modulus (GPa) = 74.44927 75.36062 74.90494
# Shear Modulus (GPa) = 30.01235 37.23448 33.62341
#
# Velocity S-wave (km/s) = 3.76581 4.19451 3.98593
# Velocity P-wave (km/s) = 7.35439 7.68556 7.52180
#
# Compressibility (1/GPa) = 0.01343197
#
# Stress axis : x y z
#
# Youngs Moduli (GPa) = 115.22630 115.22630 139.28259
#
# Poissons Ratio (x) = 0.43309 0.12492
# Poissons Ratio (y) = 0.43309 0.12492
# Poissons Ratio (z) = 0.10335 0.10335
#
# Static dielectric constant tensor:
#      x y z
#    x 1.797270 0.000000 0.000000 
#    y 0.000000 1.797270 0.000000 
#    z 0.000000 0.000000 1.802380 
# 
# From -- ./inp_files/337.got.cif
#   From: 2010.05.17/outbox.cif.g08.bks.cpg/sg179_1_cif.got.tgz:337.got - 2010.05.20 11:37:33.
