data_PCOD9583956
_publ_section_title
;
Structure prediction by ZEFSAII (Michael W. Deem and Ramdas Pophale) SiO2 
 PCOD9583956
Probable space group: P 62 2 2
;
_chemical_formula_sum "Si O2"
_cell_formula_units_Z 69
_cell_length_a 11.530950
_cell_length_b 11.530950
_cell_length_c 26.385277
_cell_angle_alpha 90.000000
_cell_angle_beta 90.000000
_cell_angle_gamma 120.000000
_cell_volume 3038.242731
_symmetry_space_group_name_H-M "P 62 2 2"
_symmetry_group_IT_number 180
_symmetry_cell_setting 'hexagonal'
loop_
_space_group_symop_operation_xyz
x,y,z
x-y,x,1/3+z
-y,x-y,2/3+z
-x,-y,z
-x+y,-x,1/3+z
y,-x+y,2/3+z
x-y,-y,-z
-x,-x+y,1/3-z
y,x,2/3-z
-y,-x,2/3-z
-x+y,y,-z
x,x-y,1/3-z
loop_
_atom_site_type_symbol
_atom_site_label
_atom_site_fract_x
_atom_site_fract_y
_atom_site_fract_z
Si Si1 0.974338 0.351005 0.858353
Si Si2 0.781164 0.878663 0.960300
Si Si3 0.500000 0.000000 0.500000
Si Si4 0.704207 0.554479 0.636876
Si Si5 0.346407 0.392617 0.414116
Si Si6 0.747011 0.494022 0.000000
Si Si7 0.876680 0.653047 0.102155
O O1 0.109065 0.342071 0.861796
O O2 0.000000 0.500000 0.852542
O O3 0.913030 0.319401 0.914552
O O4 0.907727 0.288470 0.804172
O O5 0.819986 0.805398 0.916365
O O6 0.695933 0.938482 0.934733
O O7 0.680673 0.750221 0.993682
O O8 0.878696 0.000000 0.000000
O O9 0.368352 0.927669 0.462843
O O10 0.838779 0.550165 0.627605
O O11 0.593555 0.413818 0.658712
O O12 0.500000 0.500000 0.415597
O O13 0.775670 0.576541 0.948676
#
# Coordination Sequence:
#
# PCOD9583956 Si02
#       7
#    12  12   3  12  12   6  12
#     4  11  23  42  63  94 137 182 236 286 364 442
#     4  10  23  43  68  98 139 189 248 302 370 439
#     4  12  28  44  72 116 154 200 252 334 426 454
#     4  11  22  40  65  97 131 176 240 288 356 436
#     4  10  22  41  66  95 132 182 235 299 355 434
#     4  12  24  40  70 102 144 198 236 304 382 450
#     4  12  25  44  69 102 152 188 247 308 377 475
#
# _framework density 22.710495999999999
#
# number of rings (size 3 to 8) (size 9 to 14) (size 15 to 20)
#    0.000    1.043    1.739    4.696    0.000    5.217 
#    0.000   10.000    0.000    4.174    0.000    0.000 
#    0.000    0.000    0.000    0.000    0.000    0.000 
#
# Total GULP energy -384686.350775 kJ/mol
# GULP energy per Si atom -5575.164504 kJ/mol
# Density = 2.265881 g / cm^3
# Si number density = 22.710496 Si / 1000 Ang^3
#
#
#
# Elastic Constant Matrix: (Units=GPa)
#
#
# Indices 1 2 3 4 5 6 
#
# 1 41.4461 74.0839 13.5391 0.0000 0.0000 0.0000
# 2 74.0839 41.4461 13.5391 0.0000 0.0000 0.0000
# 3 13.5391 13.5391 91.8994 0.0000 0.0000 0.0000
# 4 0.0000 0.0000 0.0000 51.7795 0.0000 0.0000
# 5 0.0000 0.0000 0.0000 0.0000 51.7795 0.0000
# 6 0.0000 0.0000 0.0000 0.0000 0.0000 -16.3189
#
#
#
# Elastic Compliance Matrix: (Units=1/GPa)
#
#
# Indices 1 2 3 4 5 6 
#
# 1 -0.010837 0.019802 -0.001321 0.000000 0.000000 0.000000
# 2 0.019802 -0.010837 -0.001321 0.000000 0.000000 0.000000
# 3 -0.001321 -0.001321 0.011271 0.000000 0.000000 0.000000
# 4 0.000000 0.000000 0.000000 0.019313 0.000000 0.000000
# 5 0.000000 0.000000 0.000000 0.000000 0.019313 0.000000
# 6 0.000000 0.000000 0.000000 0.000000 0.000000 -0.061279
#
#
# Mechanical properties :
#
#
# Convention : Reuss Voigt Hill
#
# Bulk Modulus (GPa) = 41.80943 41.90174 41.85559
# Shear Modulus (GPa) = -84.16779 22.35664 -30.90558
#
# Velocity S-wave (km/s) = -6.09439 3.14095 -3.69297
# Velocity P-wave (km/s) = 5.57427 5.62535 0.53480
#
# Compressibility (1/GPa) = 0.02391805
#
# Stress axis : x y z
#
# Youngs Moduli (GPa) = -92.27673 -92.27673 88.72606
#
# Poissons Ratio (x) = 1.82729 0.11719
# Poissons Ratio (y) = 1.82729 0.11719
# Poissons Ratio (z) = -0.12188 -0.12188
#
# Static dielectric constant tensor:
#      x y z
#    x 2.003360 0.000000 0.000000 
#    y 0.000000 2.003360 0.000000 
#    z 0.000000 0.000000 1.937300 
# 
# From -- ./inp_files/12349.got.cif
#   From: 2010.05.17/outbox.cif.g08.bks.cpg/sg180_7_cif.got.tgz:12349.got - 2010.05.20 11:43:55.
