data_PCOD9583074
_publ_section_title
;
Structure prediction by ZEFSAII (Michael W. Deem and Ramdas Pophale) SiO2 
 PCOD9583074
Probable space group: P 61 2 2
;
_chemical_formula_sum "Si O2"
_cell_formula_units_Z 42
_cell_length_a 10.858438
_cell_length_b 10.858438
_cell_length_c 16.675206
_cell_angle_alpha 90.000000
_cell_angle_beta 90.000000
_cell_angle_gamma 120.000000
_cell_volume 1702.693787
_symmetry_space_group_name_H-M "P 61 2 2"
_symmetry_group_IT_number 178
_symmetry_cell_setting 'hexagonal'
loop_
_space_group_symop_operation_xyz
x,y,z
x-y,x,1/6+z
-y,x-y,1/3+z
-x,-y,1/2+z
-x+y,-x,2/3+z
y,-x+y,5/6+z
x-y,-y,-z
-x,-x+y,2/3-z
y,x,1/3-z
-y,-x,5/6-z
-x+y,y,1/2-z
x,x-y,1/6-z
loop_
_atom_site_type_symbol
_atom_site_label
_atom_site_fract_x
_atom_site_fract_y
_atom_site_fract_z
Si Si1 0.503414 0.336349 0.662287
Si Si2 0.108038 0.000000 0.000000
Si Si3 0.316632 0.421506 0.942358
Si Si4 0.210581 0.792836 0.781011
O O1 0.450151 0.450151 0.666667
O O2 0.480039 0.240020 0.583334
O O3 0.399044 0.219192 0.727808
O O4 0.677739 0.442672 0.661703
O O5 0.022588 0.977413 0.916667
O O6 0.268206 0.129134 0.993238
O O7 0.416969 0.583032 0.916667
O O8 0.400421 0.341466 0.917059
O O9 0.290830 0.411165 0.036556
#
# Coordination Sequence:
#
# PCOD9583074 Si02
#       4
#    12   6  12  12
#     4  12  26  48  77 116 157 213 274 357 432 518
#     4  12  26  52  84 120 162 224 292 356 438 540
#     4  12  27  45  74 112 153 204 272 348 427 512
#     4  12  26  49  78 114 155 211 275 345 436 519
#
# _framework density 24.666796999999999
#
# number of rings (size 3 to 8) (size 9 to 14) (size 15 to 20)
#    0.000    0.000    7.143    2.571    0.000    1.143 
#    2.571    0.000    0.000    0.000    0.000    0.000 
#    0.000    0.000    0.000    0.000    0.000    0.000 
#
# Total GULP energy -234057.179408 kJ/mol
# GULP energy per Si atom -5572.789986 kJ/mol
# Density = 2.461065 g / cm^3
# Si number density = 24.666797 Si / 1000 Ang^3
#
#
#
# Elastic Constant Matrix: (Units=GPa)
#
#
# Indices 1 2 3 4 5 6 
#
# 1 66.5439 67.0761 25.9312 0.0000 0.0000 0.0000
# 2 67.0761 66.5439 25.9312 0.0000 0.0000 0.0000
# 3 25.9312 25.9312 139.9381 0.0000 0.0000 0.0000
# 4 0.0000 0.0000 0.0000 29.3752 0.0000 0.0000
# 5 0.0000 0.0000 0.0000 0.0000 29.3752 0.0000
# 6 0.0000 0.0000 0.0000 0.0000 0.0000 -0.2661
#
#
#
# Elastic Compliance Matrix: (Units=1/GPa)
#
#
# Indices 1 2 3 4 5 6 
#
# 1 -0.935458 0.943522 -0.001494 0.000000 0.000000 0.000000
# 2 0.943522 -0.935458 -0.001494 0.000000 0.000000 0.000000
# 3 -0.001494 -0.001494 0.007700 0.000000 0.000000 0.000000
# 4 0.000000 0.000000 0.000000 0.034042 0.000000 0.000000
# 5 0.000000 0.000000 0.000000 0.000000 0.034042 0.000000
# 6 0.000000 0.000000 0.000000 0.000000 0.000000 -3.757959
#
#
# Mechanical properties :
#
#
# Convention : Reuss Voigt Hill
#
# Bulk Modulus (GPa) = 56.02089 56.76697 56.39393
# Shear Modulus (GPa) = -0.67311 21.96935 10.64812
#
# Velocity S-wave (km/s) = -0.52295 2.98760 2.07994
# Velocity P-wave (km/s) = 4.73241 5.91308 5.35538
#
# Compressibility (1/GPa) = 0.01785049
#
# Stress axis : x y z
#
# Youngs Moduli (GPa) = -1.06900 -1.06900 129.87330
#
# Poissons Ratio (x) = 1.00862 0.19407
# Poissons Ratio (y) = 1.00862 0.19407
# Poissons Ratio (z) = -0.00160 -0.00160
#
# Static dielectric constant tensor:
#      x y z
#    x 2.185480 0.000000 0.000000 
#    y 0.000000 2.185480 0.000000 
#    z 0.000000 0.000000 1.973920 
# 
# From -- ./inp_files/6376.got.cif
#   From: 2010.05.17/outbox.cif.g08.bks.cpg/sg178_4_cif.got.tgz:6376.got - 2010.05.20 11:30:59.
