data_PCOD9583884
_publ_section_title
;
Structure prediction by ZEFSAII (Michael W. Deem and Ramdas Pophale) SiO2 
 PCOD9583884
Probable space group: P 62 2 2
;
_chemical_formula_sum "Si O2"
_cell_formula_units_Z 60
_cell_length_a 14.415717
_cell_length_b 14.415717
_cell_length_c 14.913770
_cell_angle_alpha 90.000000
_cell_angle_beta 90.000000
_cell_angle_gamma 120.000000
_cell_volume 2684.049795
_symmetry_space_group_name_H-M "P 62 2 2"
_symmetry_group_IT_number 180
_symmetry_cell_setting 'hexagonal'
loop_
_space_group_symop_operation_xyz
x,y,z
x-y,x,1/3+z
-y,x-y,2/3+z
-x,-y,z
-x+y,-x,1/3+z
y,-x+y,2/3+z
x-y,-y,-z
-x,-x+y,1/3-z
y,x,2/3-z
-y,-x,2/3-z
-x+y,y,-z
x,x-y,1/3-z
loop_
_atom_site_type_symbol
_atom_site_label
_atom_site_fract_x
_atom_site_fract_y
_atom_site_fract_z
Si Si1 0.524300 0.407066 0.125953
Si Si2 0.299021 0.415385 0.722836
Si Si3 0.770991 0.232558 0.226463
Si Si4 0.332805 0.456131 0.358260
Si Si5 0.061784 0.831823 0.250315
O O1 0.500000 0.500000 0.151313
O O2 0.650887 0.457469 0.137371
O O3 0.460337 0.320017 0.201839
O O4 0.486109 0.376808 0.023651
O O5 0.321077 0.468014 0.822243
O O6 0.190359 0.413147 0.693631
O O7 0.281000 0.295319 0.724701
O O8 0.758755 0.241246 0.333334
O O9 0.822884 0.154796 0.223120
O O10 0.384440 0.384440 0.333334
O O11 0.421264 0.578737 0.333334
O O12 0.089241 0.910760 0.333334
O O13 0.000000 0.844516 0.166667
#
# Coordination Sequence:
#
# PCOD9583884 Si02
#       5
#    12  12  12  12  12
#     4  12  22  38  64  91 128 170 218 283 344 411
#     4  11  23  39  64  94 130 172 231 281 333 413
#     4  10  21  39  57  86 128 175 220 270 335 406
#     4  11  21  42  66  92 126 165 219 274 344 406
#     4   9  19  38  63  93 131 179 232 281 345 419
#
# _framework density 22.354279999999999
#
# number of rings (size 3 to 8) (size 9 to 14) (size 15 to 20)
#    0.000    1.400    4.000    3.000    0.000    3.200 
#    3.600    1.000    0.000    0.600    0.000    7.000 
#    0.000    0.000    0.000    0.800    0.000    0.000 
#
# Total GULP energy -334448.264698 kJ/mol
# GULP energy per Si atom -5574.137745 kJ/mol
# Density = 2.230340 g / cm^3
# Si number density = 22.354280 Si / 1000 Ang^3
#
#
#
# Elastic Constant Matrix: (Units=GPa)
#
#
# Indices 1 2 3 4 5 6 
#
# 1 68.1823 33.1905 42.2521 0.0000 0.0000 0.0000
# 2 33.1905 68.1823 42.2521 0.0000 0.0000 0.0000
# 3 42.2521 42.2521 187.2261 0.0000 0.0000 0.0000
# 4 0.0000 0.0000 0.0000 51.4150 0.0000 0.0000
# 5 0.0000 0.0000 0.0000 0.0000 51.4150 0.0000
# 6 0.0000 0.0000 0.0000 0.0000 0.0000 17.4959
#
#
#
# Elastic Compliance Matrix: (Units=1/GPa)
#
#
# Indices 1 2 3 4 5 6 
#
# 1 0.020364 -0.008214 -0.002742 0.000000 0.000000 0.000000
# 2 -0.008214 0.020364 -0.002742 0.000000 0.000000 0.000000
# 3 -0.002742 -0.002742 0.006579 0.000000 0.000000 0.000000
# 4 0.000000 0.000000 0.000000 0.019450 0.000000 0.000000
# 5 0.000000 0.000000 0.000000 0.000000 0.019450 0.000000
# 6 0.000000 0.000000 0.000000 0.000000 0.000000 0.057156
#
#
# Mechanical properties :
#
#
# Convention : Reuss Voigt Hill
#
# Bulk Modulus (GPa) = 50.22267 62.10888 56.16577
# Shear Modulus (GPa) = 28.18562 37.79159 32.98860
#
# Velocity S-wave (km/s) = 3.55471 4.11612 3.84567
# Velocity P-wave (km/s) = 6.27403 7.10170 6.70066
#
# Compressibility (1/GPa) = 0.01991133
#
# Stress axis : x y z
#
# Youngs Moduli (GPa) = 49.10577 49.10577 152.00486
#
# Poissons Ratio (x) = 0.40335 0.41680
# Poissons Ratio (y) = 0.40335 0.41680
# Poissons Ratio (z) = 0.13465 0.13465
#
# Static dielectric constant tensor:
#      x y z
#    x 1.767810 0.000000 0.000000 
#    y 0.000000 1.767810 0.000000 
#    z 0.000000 0.000000 1.962490 
# 
# From -- ./inp_files/6077.got.cif
#   From: 2010.05.17/outbox.cif.g08.bks.cpg/sg180_4_cif.got.tgz:6077.got - 2010.05.20 11:43:55.
