data_PCOD9583040
_publ_section_title
;
Structure prediction by ZEFSAII (Michael W. Deem and Ramdas Pophale) SiO2 
 PCOD9583040
Probable space group: P 61 2 2
;
_chemical_formula_sum "Si O2"
_cell_formula_units_Z 60
_cell_length_a 12.188343
_cell_length_b 12.188343
_cell_length_c 30.050469
_cell_angle_alpha 90.000000
_cell_angle_beta 90.000000
_cell_angle_gamma 120.000000
_cell_volume 3866.083423
_symmetry_space_group_name_H-M "P 61 2 2"
_symmetry_group_IT_number 178
_symmetry_cell_setting 'hexagonal'
loop_
_space_group_symop_operation_xyz
x,y,z
x-y,x,1/6+z
-y,x-y,1/3+z
-x,-y,1/2+z
-x+y,-x,2/3+z
y,-x+y,5/6+z
x-y,-y,-z
-x,-x+y,2/3-z
y,x,1/3-z
-y,-x,5/6-z
-x+y,y,1/2-z
x,x-y,1/6-z
loop_
_atom_site_type_symbol
_atom_site_label
_atom_site_fract_x
_atom_site_fract_y
_atom_site_fract_z
Si Si1 0.586062 0.472753 0.865399
Si Si2 0.968866 0.850138 0.199884
Si Si3 0.911300 0.664354 0.047743
Si Si4 0.322439 0.625218 0.967626
Si Si5 0.702340 0.603455 0.349778
O O1 0.572727 0.427274 0.916667
O O2 0.660200 0.624675 0.866173
O O3 0.647958 0.414937 0.833418
O O4 0.442377 0.425193 0.848676
O O5 0.919934 0.919934 0.166667
O O6 0.931090 0.862180 0.250000
O O7 0.907868 0.702936 0.185880
O O8 0.119409 0.902274 0.196916
O O9 0.794516 0.526859 0.033873
O O10 0.908319 0.662425 0.101443
O O11 0.330027 0.669974 0.916667
O O12 0.466233 0.690087 0.984954
#
# Coordination Sequence:
#
# PCOD9583040 Si02
#       5
#    12  12  12  12  12
#     4   9  17  31  56  75 100 131 171 215 245 309
#     4  12  22  33  53  74 105 137 171 213 254 307
#     4   9  18  34  51  77 100 133 177 204 254 307
#     4   9  17  31  56  77 103 132 167 216 259 304
#     4   9  18  33  51  78 100 131 170 209 259 299
#
# _framework density 15.519583000000001
#
# number of rings (size 3 to 8) (size 9 to 14) (size 15 to 20)
#    0.000    2.400    4.000    2.400    0.000    0.800 
#    0.000    1.000    0.000    1.200    0.000    0.000 
#    0.000    0.000    0.000    0.000    0.000    0.000 
#
# Total GULP energy -334268.873158 kJ/mol
# GULP energy per Si atom -5571.147886 kJ/mol
# Density = 1.548426 g / cm^3
# Si number density = 15.519583 Si / 1000 Ang^3
#
#
#
# Elastic Constant Matrix: (Units=GPa)
#
#
# Indices 1 2 3 4 5 6 
#
# 1 88.6585 43.6087 58.1101 0.0000 0.0000 0.0000
# 2 43.6087 88.6585 58.1101 0.0000 0.0000 0.0000
# 3 58.1101 58.1101 91.4272 0.0000 0.0000 0.0000
# 4 0.0000 0.0000 0.0000 22.6430 0.0000 0.0000
# 5 0.0000 0.0000 0.0000 0.0000 22.6430 0.0000
# 6 0.0000 0.0000 0.0000 0.0000 0.0000 22.5249
#
#
#
# Elastic Compliance Matrix: (Units=1/GPa)
#
#
# Indices 1 2 3 4 5 6 
#
# 1 0.019661 -0.002537 -0.010884 0.000000 0.000000 0.000000
# 2 -0.002537 0.019661 -0.010884 0.000000 0.000000 0.000000
# 3 -0.010884 -0.010884 0.024773 0.000000 0.000000 0.000000
# 4 0.000000 0.000000 0.000000 0.044164 0.000000 0.000000
# 5 0.000000 0.000000 0.000000 0.000000 0.044164 0.000000
# 6 0.000000 0.000000 0.000000 0.000000 0.000000 0.044395
#
#
# Mechanical properties :
#
#
# Convention : Reuss Voigt Hill
#
# Bulk Modulus (GPa) = 64.57638 65.37801 64.97719
# Shear Modulus (GPa) = 19.95316 20.82320 20.38818
#
# Velocity S-wave (km/s) = 3.58952 3.66695 3.62844
# Velocity P-wave (km/s) = 7.67330 7.75540 7.71446
#
# Compressibility (1/GPa) = 0.01548554
#
# Stress axis : x y z
#
# Youngs Moduli (GPa) = 50.86302 50.86302 40.36712
#
# Poissons Ratio (x) = 0.12904 0.43934
# Poissons Ratio (y) = 0.12904 0.43934
# Poissons Ratio (z) = 0.55357 0.55357
#
# Static dielectric constant tensor:
#      x y z
#    x 1.512850 0.000000 0.000000 
#    y 0.000000 1.512850 0.000000 
#    z 0.000000 0.000000 1.510180 
# 
# From -- ./inp_files/8755.got.cif
#   From: 2010.05.17/outbox.cif.g08.bks.cpg/sg178_5_cif.got.tgz:8755.got - 2010.05.20 11:30:59.
