data_PCOD9583730
_publ_section_title
;
Structure prediction by ZEFSAII (Michael W. Deem and Ramdas Pophale) SiO2 
 PCOD9583730
Probable space group: P 62 2 2
;
_chemical_formula_sum "Si O2"
_cell_formula_units_Z 69
_cell_length_a 14.336107
_cell_length_b 14.336107
_cell_length_c 19.232307
_cell_angle_alpha 90.000000
_cell_angle_beta 90.000000
_cell_angle_gamma 120.000000
_cell_volume 3423.138587
_symmetry_space_group_name_H-M "P 62 2 2"
_symmetry_group_IT_number 180
_symmetry_cell_setting 'hexagonal'
loop_
_space_group_symop_operation_xyz
x,y,z
x-y,x,1/3+z
-y,x-y,2/3+z
-x,-y,z
-x+y,-x,1/3+z
y,-x+y,2/3+z
x-y,-y,-z
-x,-x+y,1/3-z
y,x,2/3-z
-y,-x,2/3-z
-x+y,y,-z
x,x-y,1/3-z
loop_
_atom_site_type_symbol
_atom_site_label
_atom_site_fract_x
_atom_site_fract_y
_atom_site_fract_z
Si Si1 0.618930 0.887637 0.709121
Si Si2 0.233854 0.065816 0.360547
Si Si3 0.239148 0.863745 0.128432
Si Si4 0.500000 0.000000 0.761721
Si Si5 0.116622 0.762626 0.761972
Si Si6 0.418346 0.805408 0.130750
Si Si7 0.000000 0.000000 0.666667
O O1 0.555033 0.777517 0.666667
O O2 0.632965 0.861696 0.788354
O O3 0.563001 0.958784 0.715690
O O4 0.727648 0.961380 0.667364
O O5 0.312060 0.124441 0.424838
O O6 0.286435 0.153100 0.298032
O O7 0.109919 0.032488 0.374841
O O8 0.316125 0.815474 0.107762
O O9 0.302424 0.989565 0.106988
O O10 0.423519 0.900302 0.811403
O O11 0.173247 0.826754 0.833334
O O12 0.168424 0.686606 0.746312
O O13 0.383444 0.691722 0.166667
#
# Coordination Sequence:
#
# PCOD9583730 Si02
#       7
#    12  12  12   6  12  12   3
#     4  11  23  43  66  88 124 172 221 262 326 389
#     4  12  24  40  63  96 129 170 219 261 327 391
#     4  11  22  40  62  92 130 165 211 277 322 380
#     4  10  20  44  66  92 126 176 208 266 330 398
#     4  11  18  36  66  90 128 174 204 259 327 395
#     4  10  19  37  66  95 131 165 210 266 336 398
#     4  12  24  40  58  90 134 160 212 258 308 396
#
# _framework density 20.156941
#
# number of rings (size 3 to 8) (size 9 to 14) (size 15 to 20)
#    0.000    1.043    7.826    1.043    0.000    1.391 
#    6.261    4.783    0.000    1.043    0.000    0.000 
#    0.000    0.000    0.000    0.000    0.000    0.000 
#
# Total GULP energy -385190.931779 kJ/mol
# GULP energy per Si atom -5582.477272 kJ/mol
# Density = 2.011106 g / cm^3
# Si number density = 20.156941 Si / 1000 Ang^3
#
#
#
# Elastic Constant Matrix: (Units=GPa)
#
#
# Indices 1 2 3 4 5 6 
#
# 1 107.1132 39.9856 30.2964 0.0000 0.0000 0.0000
# 2 39.9856 107.1132 30.2964 0.0000 0.0000 0.0000
# 3 30.2964 30.2964 70.5746 0.0000 0.0000 0.0000
# 4 0.0000 0.0000 0.0000 13.1108 0.0000 0.0000
# 5 0.0000 0.0000 0.0000 0.0000 13.1108 0.0000
# 6 0.0000 0.0000 0.0000 0.0000 0.0000 33.5638
#
#
#
# Elastic Compliance Matrix: (Units=1/GPa)
#
#
# Indices 1 2 3 4 5 6 
#
# 1 0.011578 -0.003319 -0.003545 0.000000 0.000000 0.000000
# 2 -0.003319 0.011578 -0.003545 0.000000 0.000000 0.000000
# 3 -0.003545 -0.003545 0.017213 0.000000 0.000000 0.000000
# 4 0.000000 0.000000 0.000000 0.076273 0.000000 0.000000
# 5 0.000000 0.000000 0.000000 0.000000 0.076273 0.000000
# 6 0.000000 0.000000 0.000000 0.000000 0.000000 0.029794
#
#
# Mechanical properties :
#
#
# Convention : Reuss Voigt Hill
#
# Bulk Modulus (GPa) = 51.15270 53.99529 52.57400
# Shear Modulus (GPa) = 19.99645 24.23859 22.11752
#
# Velocity S-wave (km/s) = 3.15308 3.47146 3.31609
# Velocity P-wave (km/s) = 6.21998 6.55085 6.38756
#
# Compressibility (1/GPa) = 0.01954931
#
# Stress axis : x y z
#
# Youngs Moduli (GPa) = 86.37253 86.37253 58.09492
#
# Poissons Ratio (x) = 0.28669 0.20596
# Poissons Ratio (y) = 0.28669 0.20596
# Poissons Ratio (z) = 0.30621 0.30621
#
# Static dielectric constant tensor:
#      x y z
#    x 1.807620 0.000000 0.000000 
#    y 0.000000 1.807620 0.000000 
#    z 0.000000 0.000000 1.747920 
# 
# From -- ./inp_files/7861.got.cif
#   From: 2010.05.17/outbox.cif.g08.bks.cpg/sg180_4_cif.got.tgz:7861.got - 2010.05.20 11:43:55.
