data_PCOD9583587
_publ_section_title
;
Structure prediction by ZEFSAII (Michael W. Deem and Ramdas Pophale) SiO2 
 PCOD9583587
Probable space group: P 65 2 2
;
_chemical_formula_sum "Si O2"
_cell_formula_units_Z 48
_cell_length_a 17.159469
_cell_length_b 17.159469
_cell_length_c 8.523228
_cell_angle_alpha 90.000000
_cell_angle_beta 90.000000
_cell_angle_gamma 120.000000
_cell_volume 2173.413833
_symmetry_space_group_name_H-M "P 65 2 2"
_symmetry_group_IT_number 179
_symmetry_cell_setting 'hexagonal'
loop_
_space_group_symop_operation_xyz
x,y,z
x-y,x,5/6+z
-y,x-y,2/3+z
-x,-y,1/2+z
-x+y,-x,1/3+z
y,-x+y,1/6+z
x-y,-y,-z
-x,-x+y,1/3-z
y,x,2/3-z
-y,-x,1/6-z
-x+y,y,1/2-z
x,x-y,5/6-z
loop_
_atom_site_type_symbol
_atom_site_label
_atom_site_fract_x
_atom_site_fract_y
_atom_site_fract_z
Si Si1 0.360926 0.721852 0.250000
Si Si2 0.838662 0.000000 0.000000
Si Si3 0.311770 0.207464 0.076560
Si Si4 0.791019 0.261633 0.905813
Si Si5 0.585269 0.007857 0.316551
O O1 0.346635 0.673318 0.416667
O O2 0.290494 0.756712 0.286332
O O3 0.852776 0.926388 0.916667
O O4 0.811383 0.041063 0.854403
O O5 0.371789 0.182889 0.186716
O O6 0.295289 0.147645 0.916667
O O7 0.364861 0.316012 0.052014
O O8 0.886046 0.354757 0.895636
O O9 0.755097 0.244904 0.083334
O O10 0.484931 0.969862 0.250000
O O11 0.572076 0.000000 0.500000
#
# Coordination Sequence:
#
# PCOD9583587 Si02
#       5
#     6   6  12  12  12
#     4  12  26  46  70 108 150 204 266 326 400 482
#     4  12  30  52  84 122 154 208 268 348 434 520
#     4  12  26  51  81 113 163 210 273 338 423 502
#     4  12  27  47  76 111 154 210 266 337 402 482
#     4  12  29  47  70 115 157 213 267 328 404 488
#
# _framework density 22.085073999999999
#
# number of rings (size 3 to 8) (size 9 to 14) (size 15 to 20)
#    0.000    0.000    3.750    5.250    7.000    1.000 
#    0.000    0.000    0.000    0.000    0.000    0.000 
#    0.000    0.000    0.000    0.000    0.000    0.000 
#
# Total GULP energy -267710.329787 kJ/mol
# GULP energy per Si atom -5577.298537 kJ/mol
# Density = 2.203481 g / cm^3
# Si number density = 22.085074 Si / 1000 Ang^3
#
#
#
# Elastic Constant Matrix: (Units=GPa)
#
#
# Indices 1 2 3 4 5 6 
#
# 1 113.8925 86.4918 74.1400 0.0000 0.0000 0.0000
# 2 86.4918 113.8925 74.1400 0.0000 0.0000 0.0000
# 3 74.1400 74.1400 170.9263 0.0000 0.0000 0.0000
# 4 0.0000 0.0000 0.0000 52.3311 0.0000 0.0000
# 5 0.0000 0.0000 0.0000 0.0000 52.3311 0.0000
# 6 0.0000 0.0000 0.0000 0.0000 0.0000 13.7003
#
#
#
# Elastic Compliance Matrix: (Units=1/GPa)
#
#
# Indices 1 2 3 4 5 6 
#
# 1 0.021922 -0.014573 -0.003188 0.000000 0.000000 0.000000
# 2 -0.014573 0.021922 -0.003188 0.000000 0.000000 0.000000
# 3 -0.003188 -0.003188 0.008616 0.000000 0.000000 0.000000
# 4 0.000000 0.000000 0.000000 0.019109 0.000000 0.000000
# 5 0.000000 0.000000 0.000000 0.000000 0.019109 0.000000
# 6 0.000000 0.000000 0.000000 0.000000 0.000000 0.072991
#
#
# Mechanical properties :
#
#
# Convention : Reuss Voigt Hill
#
# Bulk Modulus (GPa) = 94.66685 96.47273 95.56979
# Shear Modulus (GPa) = 23.91337 34.60181 29.25759
#
# Velocity S-wave (km/s) = 3.29414 3.96251 3.64368
# Velocity P-wave (km/s) = 7.57800 8.04441 7.81469
#
# Compressibility (1/GPa) = 0.01056336
#
# Stress axis : x y z
#
# Youngs Moduli (GPa) = 45.61551 45.61551 116.06429
#
# Poissons Ratio (x) = 0.66476 0.36999
# Poissons Ratio (y) = 0.66476 0.36999
# Poissons Ratio (z) = 0.14541 0.14541
#
# Static dielectric constant tensor:
#      x y z
#    x 1.844580 0.000000 0.000000 
#    y 0.000000 1.844580 0.000000 
#    z 0.000000 0.000000 1.669770 
# 
# From -- ./inp_files/2709.got.cif
#   From: 2010.05.17/outbox.cif.g08.bks.cpg/sg179_2_cif.got.tgz:2709.got - 2010.05.20 11:37:33.
