data_PCOD9583599
_publ_section_title
;
Structure prediction by ZEFSAII (Michael W. Deem and Ramdas Pophale) SiO2 
 PCOD9583599
Probable space group: P 65 2 2
;
_chemical_formula_sum "Si O2"
_cell_formula_units_Z 84
_cell_length_a 15.000000
_cell_length_b 15.000000
_cell_length_c 24.000000
_cell_angle_alpha 90.000000
_cell_angle_beta 90.000000
_cell_angle_gamma 120.000000
_cell_volume 4676.537180
_symmetry_space_group_name_H-M "P 65 2 2"
_symmetry_group_IT_number 179
_symmetry_cell_setting 'hexagonal'
loop_
_space_group_symop_operation_xyz
x,y,z
x-y,x,5/6+z
-y,x-y,2/3+z
-x,-y,1/2+z
-x+y,-x,1/3+z
y,-x+y,1/6+z
x-y,-y,-z
-x,-x+y,1/3-z
y,x,2/3-z
-y,-x,1/6-z
-x+y,y,1/2-z
x,x-y,5/6-z
loop_
_atom_site_type_symbol
_atom_site_label
_atom_site_fract_x
_atom_site_fract_y
_atom_site_fract_z
Si Si1 0.856107 0.198301 0.784936
Si Si2 0.473725 0.148161 0.271939
Si Si3 0.382352 0.891840 0.962909
Si Si4 0.320408 0.456516 0.457311
Si Si5 0.430172 0.109312 0.400537
Si Si6 0.504892 0.301069 0.974860
Si Si7 0.720065 0.026906 0.704594
O O1 0.894194 0.305469 0.751118
O O2 0.753096 0.167841 0.821239
O O3 0.818604 0.102128 0.742620
O O4 0.947660 0.220912 0.828119
O O5 0.580422 0.160843 0.250000
O O6 0.462847 0.245964 0.255403
O O7 0.470572 0.137360 0.337763
O O8 0.378386 0.047491 0.243220
O O9 0.479228 0.884731 0.939424
O O10 0.306004 0.778495 0.989998
O O11 0.429366 0.000000 0.000000
O O12 0.354543 0.372460 0.438805
O O13 0.410661 0.576499 0.467507
O O14 0.400188 0.200094 0.416667
O O15 0.479525 0.239763 0.916667
O O16 0.407266 0.299957 0.003263
#
# Coordination Sequence:
#
# PCOD9583599 Si02
#       7
#    12  12  12  12  12  12  12
#     4  10  21  39  64  91 125 167 216 261 321 398
#     4  11  23  40  64  88 124 174 218 265 322 398
#     4  11  25  40  61  97 139 174 220 274 334 401
#     4  11  23  41  62  90 126 177 224 268 324 402
#     4  12  27  40  60  94 133 173 222 275 329 398
#     4  11  23  38  62  92 131 173 215 270 329 390
#     4  10  21  38  62  90 125 164 211 259 320 392
#
# _framework density 17.962008000000001
#
# number of rings (size 3 to 8) (size 9 to 14) (size 15 to 20)
#    0.000    1.143    1.429    5.571    8.000    1.143 
#    0.000    0.000    0.000    0.000    0.000   52.000 
#    0.000    0.000    0.000    0.000    0.000    0.000 
#
# Total GULP energy -468033.879714 kJ/mol
# GULP energy per Si atom -5571.831901 kJ/mol
# Density = 1.792113 g / cm^3
# Si number density = 17.962008 Si / 1000 Ang^3
#
#
#
# Elastic Constant Matrix: (Units=GPa)
#
#
# Indices 1 2 3 4 5 6 
#
# 1 122.0920 63.2010 41.5407 0.0000 0.0000 0.0000
# 2 63.2010 122.0920 41.5407 0.0000 0.0000 0.0000
# 3 41.5407 41.5407 87.8105 0.0000 0.0000 0.0000
# 4 0.0000 0.0000 0.0000 39.4499 0.0000 0.0000
# 5 0.0000 0.0000 0.0000 0.0000 39.4499 0.0000
# 6 0.0000 0.0000 0.0000 0.0000 0.0000 29.4455
#
#
#
# Elastic Compliance Matrix: (Units=1/GPa)
#
#
# Indices 1 2 3 4 5 6 
#
# 1 0.011915 -0.005065 -0.003240 0.000000 0.000000 0.000000
# 2 -0.005065 0.011915 -0.003240 0.000000 0.000000 0.000000
# 3 -0.003240 -0.003240 0.014454 0.000000 0.000000 0.000000
# 4 0.000000 0.000000 0.000000 0.025349 0.000000 0.000000
# 5 0.000000 0.000000 0.000000 0.000000 0.025349 0.000000
# 6 0.000000 0.000000 0.000000 0.000000 0.000000 0.033961
#
#
# Mechanical properties :
#
#
# Convention : Reuss Voigt Hill
#
# Bulk Modulus (GPa) = 65.82458 69.39550 67.61004
# Shear Modulus (GPa) = 33.09086 34.04987 33.57037
#
# Velocity S-wave (km/s) = 4.29682 4.35864 4.32784
# Velocity P-wave (km/s) = 7.83218 8.00305 7.91808
#
# Compressibility (1/GPa) = 0.01519189
#
# Stress axis : x y z
#
# Youngs Moduli (GPa) = 83.92671 83.92671 69.18452
#
# Poissons Ratio (x) = 0.42512 0.22419
# Poissons Ratio (y) = 0.42512 0.22419
# Poissons Ratio (z) = 0.27196 0.27196
#
# Static dielectric constant tensor:
#      x y z
#    x 1.616310 0.000000 0.000000 
#    y 0.000000 1.616310 0.000000 
#    z 0.000000 0.000000 1.694830 
# 
# From -- ./inp_files/8356.got.cif
#   From: 2010.05.17/outbox.ucp.g08.bks.cvg/sg179_5_cif.got.tgz:8356.got - 2010.06.11 15:19:48.
