data_PCOD9583089
_publ_section_title
;
Structure prediction by ZEFSAII (Michael W. Deem and Ramdas Pophale) SiO2 
 PCOD9583089
Probable space group: P 61 2 2
;
_chemical_formula_sum "Si O2"
_cell_formula_units_Z 60
_cell_length_a 18.000000
_cell_length_b 18.000000
_cell_length_c 12.000000
_cell_angle_alpha 90.000000
_cell_angle_beta 90.000000
_cell_angle_gamma 120.000000
_cell_volume 3367.106770
_symmetry_space_group_name_H-M "P 61 2 2"
_symmetry_group_IT_number 178
_symmetry_cell_setting 'hexagonal'
loop_
_space_group_symop_operation_xyz
x,y,z
x-y,x,1/6+z
-y,x-y,1/3+z
-x,-y,1/2+z
-x+y,-x,2/3+z
y,-x+y,5/6+z
x-y,-y,-z
-x,-x+y,2/3-z
y,x,1/3-z
-y,-x,5/6-z
-x+y,y,1/2-z
x,x-y,1/6-z
loop_
_atom_site_type_symbol
_atom_site_label
_atom_site_fract_x
_atom_site_fract_y
_atom_site_fract_z
Si Si1 0.650426 0.709497 0.394131
Si Si2 0.533987 0.681761 0.606909
Si Si3 0.238679 0.866066 0.174089
Si Si4 0.673879 0.469006 0.334981
Si Si5 0.088739 0.491679 0.871695
O O1 0.598134 0.689179 0.509266
O O2 0.724568 0.683747 0.426890
O O3 0.671707 0.807710 0.359166
O O4 0.582527 0.650071 0.296621
O O5 0.511986 0.755993 0.583334
O O6 0.583265 0.705453 0.727323
O O7 0.447074 0.590702 0.593709
O O8 0.258848 0.804765 0.252960
O O9 0.599950 0.400051 0.416667
O O10 0.714424 0.428848 0.250000
O O11 0.644651 0.515352 0.244305
O O12 0.000000 0.483501 0.833334
#
# Coordination Sequence:
#
# PCOD9583089 Si02
#       5
#    12  12  12  12  12
#     4  11  23  39  63  89 127 164 213 265 327 386
#     4  10  23  38  57  89 128 169 220 267 312 376
#     4  11  22  42  61  90 124 167 214 267 323 387
#     4  12  25  42  59  85 128 172 218 268 317 379
#     4  12  22  36  63  88 120 172 214 267 314 379
#
# _framework density 17.819452999999999
#
# number of rings (size 3 to 8) (size 9 to 14) (size 15 to 20)
#    0.000    0.800    6.000    2.400    0.000    0.800 
#    0.000    0.000    0.000    0.000    0.000    0.000 
#    0.000   56.000    0.000    0.000    0.000    0.000 
#
# Total GULP energy -334006.794365 kJ/mol
# GULP energy per Si atom -5566.779906 kJ/mol
# Density = 1.777889 g / cm^3
# Si number density = 17.819453 Si / 1000 Ang^3
#
#
#
# Elastic Constant Matrix: (Units=GPa)
#
#
# Indices 1 2 3 4 5 6 
#
# 1 83.0901 37.8799 34.8106 0.0000 0.0000 0.0000
# 2 37.8799 83.0901 34.8106 0.0000 0.0000 0.0000
# 3 34.8106 34.8106 123.1357 0.0000 0.0000 0.0000
# 4 0.0000 0.0000 0.0000 32.2663 0.0000 0.0000
# 5 0.0000 0.0000 0.0000 0.0000 32.2663 0.0000
# 6 0.0000 0.0000 0.0000 0.0000 0.0000 22.6051
#
#
#
# Elastic Compliance Matrix: (Units=1/GPa)
#
#
# Indices 1 2 3 4 5 6 
#
# 1 0.015996 -0.006123 -0.002791 0.000000 0.000000 0.000000
# 2 -0.006123 0.015996 -0.002791 0.000000 0.000000 0.000000
# 3 -0.002791 -0.002791 0.009699 0.000000 0.000000 0.000000
# 4 0.000000 0.000000 0.000000 0.030992 0.000000 0.000000
# 5 0.000000 0.000000 0.000000 0.000000 0.030992 0.000000
# 6 0.000000 0.000000 0.000000 0.000000 0.000000 0.044238
#
#
# Mechanical properties :
#
#
# Convention : Reuss Voigt Hill
#
# Bulk Modulus (GPa) = 54.70273 56.03533 55.36903
# Shear Modulus (GPa) = 28.18227 29.54856 28.86542
#
# Velocity S-wave (km/s) = 3.98118 4.07654 4.02914
# Velocity P-wave (km/s) = 7.20403 7.32612 7.26533
#
# Compressibility (1/GPa) = 0.01828062
#
# Stress axis : x y z
#
# Youngs Moduli (GPa) = 62.51622 62.51622 103.10141
#
# Poissons Ratio (x) = 0.38279 0.28776
# Poissons Ratio (y) = 0.38279 0.28776
# Poissons Ratio (z) = 0.17449 0.17449
#
# Static dielectric constant tensor:
#      x y z
#    x 1.669840 0.000000 0.000000 
#    y 0.000000 1.669840 0.000000 
#    z 0.000000 0.000000 1.628950 
# 
# From -- ./inp_files/4485.got.cif
#   From: 2010.05.17/outbox.ucp.g08.bks.cvg/sg178_3_cif.got.tgz:4485.got - 2010.06.11 15:19:19.
