data_PCOD9583229
_publ_section_title
;
Structure prediction by ZEFSAII (Michael W. Deem and Ramdas Pophale) SiO2 
 PCOD9583229
Probable space group: P 65 2 2
;
_chemical_formula_sum "Si O2"
_cell_formula_units_Z 72
_cell_length_a 11.839111
_cell_length_b 11.839111
_cell_length_c 30.705071
_cell_angle_alpha 90.000000
_cell_angle_beta 90.000000
_cell_angle_gamma 120.000000
_cell_volume 3727.167602
_symmetry_space_group_name_H-M "P 65 2 2"
_symmetry_group_IT_number 179
_symmetry_cell_setting 'hexagonal'
loop_
_space_group_symop_operation_xyz
x,y,z
x-y,x,5/6+z
-y,x-y,2/3+z
-x,-y,1/2+z
-x+y,-x,1/3+z
y,-x+y,1/6+z
x-y,-y,-z
-x,-x+y,1/3-z
y,x,2/3-z
-y,-x,1/6-z
-x+y,y,1/2-z
x,x-y,5/6-z
loop_
_atom_site_type_symbol
_atom_site_label
_atom_site_fract_x
_atom_site_fract_y
_atom_site_fract_z
Si Si1 0.511679 0.511679 0.833334
Si Si2 0.382346 0.691173 0.916667
Si Si3 0.216084 0.687572 0.807167
Si Si4 0.766226 0.499961 0.833662
Si Si5 0.077026 0.423006 0.755060
Si Si6 0.070790 0.399764 0.412604
Si Si7 0.793665 0.584805 0.430805
O O1 0.653993 0.532651 0.825103
O O2 0.457153 0.417653 0.874916
O O3 0.469119 0.796478 0.880810
O O4 0.287149 0.544019 0.900603
O O5 0.360678 0.703792 0.808301
O O6 0.118502 0.546467 0.787339
O O7 0.236716 0.806607 0.776252
O O8 0.189689 0.718400 0.856015
O O9 0.882734 0.599035 0.863267
O O10 0.202202 0.404404 0.750000
O O11 0.945581 0.293552 0.770275
O O12 0.045828 0.522914 0.416667
O O13 0.937311 0.268351 0.421954
#
# Coordination Sequence:
#
# PCOD9583229 Si02
#       7
#     6   6  12  12  12  12  12
#     4  12  20  36  64  90 120 170 218 266 324 390
#     4  10  20  34  52  94 120 146 208 254 310 384
#     4  10  22  38  60  92 129 157 209 267 335 382
#     4  10  20  35  58  87 121 160 199 262 324 375
#     4  12  24  42  61  98 134 175 220 275 333 402
#     4  10  20  38  58  87 126 162 198 267 330 375
#     4  11  24  34  64  93 126 165 210 263 331 394
#
# _framework density 19.317620000000002
#
# number of rings (size 3 to 8) (size 9 to 14) (size 15 to 20)
#    0.000    1.333    5.833    0.500    7.000    1.333 
#    0.000    0.000    0.000    3.000    2.167    0.000 
#    0.000    0.000    0.000    0.000    0.000    0.000 
#
# Total GULP energy -401704.289443 kJ/mol
# GULP energy per Si atom -5579.226242 kJ/mol
# Density = 1.927365 g / cm^3
# Si number density = 19.317620 Si / 1000 Ang^3
#
#
#
# Elastic Constant Matrix: (Units=GPa)
#
#
# Indices 1 2 3 4 5 6 
#
# 1 101.1579 40.5427 10.4808 0.0000 0.0000 0.0000
# 2 40.5427 101.1579 10.4808 0.0000 0.0000 0.0000
# 3 10.4808 10.4808 60.5850 0.0000 0.0000 0.0000
# 4 0.0000 0.0000 0.0000 19.4581 0.0000 0.0000
# 5 0.0000 0.0000 0.0000 0.0000 19.4581 0.0000
# 6 0.0000 0.0000 0.0000 0.0000 0.0000 30.3076
#
#
#
# Elastic Compliance Matrix: (Units=1/GPa)
#
#
# Indices 1 2 3 4 5 6 
#
# 1 0.011870 -0.004628 -0.001253 0.000000 0.000000 0.000000
# 2 -0.004628 0.011870 -0.001253 0.000000 0.000000 0.000000
# 3 -0.001253 -0.001253 0.016939 0.000000 0.000000 0.000000
# 4 0.000000 0.000000 0.000000 0.051393 0.000000 0.000000
# 5 0.000000 0.000000 0.000000 0.000000 0.051393 0.000000
# 6 0.000000 0.000000 0.000000 0.000000 0.000000 0.032995
#
#
# Mechanical properties :
#
#
# Convention : Reuss Voigt Hill
#
# Bulk Modulus (GPa) = 37.86077 42.87884 40.36980
# Shear Modulus (GPa) = 25.05887 27.27119 26.16503
#
# Velocity S-wave (km/s) = 3.60558 3.76137 3.68430
# Velocity P-wave (km/s) = 6.08073 6.41162 6.24836
#
# Compressibility (1/GPa) = 0.02641256
#
# Stress axis : x y z
#
# Youngs Moduli (GPa) = 84.24609 84.24609 59.03460
#
# Poissons Ratio (x) = 0.38985 0.07396
# Poissons Ratio (y) = 0.38985 0.07396
# Poissons Ratio (z) = 0.10555 0.10555
#
# Static dielectric constant tensor:
#      x y z
#    x 1.693170 0.000000 0.000000 
#    y 0.000000 1.693170 0.000000 
#    z 0.000000 0.000000 1.792540 
# 
# From -- ./inp_files/9574.got.cif
#   From: 2010.05.17/outbox.cif.g08.bks.cpg/sg179_5_cif.got.tgz:9574.got - 2010.05.20 11:37:33.
