data_PCOD9583164
_publ_section_title
;
Structure prediction by ZEFSAII (Michael W. Deem and Ramdas Pophale) SiO2 
 PCOD9583164
Probable space group: P 65 2 2
;
_chemical_formula_sum "Si O2"
_cell_formula_units_Z 72
_cell_length_a 14.732764
_cell_length_b 14.732764
_cell_length_c 18.421037
_cell_angle_alpha 90.000000
_cell_angle_beta 90.000000
_cell_angle_gamma 120.000000
_cell_volume 3462.686476
_symmetry_space_group_name_H-M "P 65 2 2"
_symmetry_group_IT_number 179
_symmetry_cell_setting 'hexagonal'
loop_
_space_group_symop_operation_xyz
x,y,z
x-y,x,5/6+z
-y,x-y,2/3+z
-x,-y,1/2+z
-x+y,-x,1/3+z
y,-x+y,1/6+z
x-y,-y,-z
-x,-x+y,1/3-z
y,x,2/3-z
-y,-x,1/6-z
-x+y,y,1/2-z
x,x-y,5/6-z
loop_
_atom_site_type_symbol
_atom_site_label
_atom_site_fract_x
_atom_site_fract_y
_atom_site_fract_z
Si Si1 0.262369 0.370903 0.648681
Si Si2 0.035271 0.035271 0.333334
Si Si3 0.234540 0.327985 0.387397
Si Si4 0.423926 0.847852 0.250000
Si Si5 0.324890 0.564394 0.429110
Si Si6 0.192436 0.202036 0.532229
Si Si7 0.888797 0.556513 0.195412
O O1 0.370980 0.458690 0.613281
O O2 0.220495 0.264302 0.606684
O O3 0.179404 0.412885 0.643318
O O4 0.284620 0.370973 0.733434
O O5 0.952329 0.068969 0.361269
O O6 0.085024 0.042512 0.416667
O O7 0.310997 0.310997 0.333334
O O8 0.262255 0.447224 0.398135
O O9 0.233880 0.284829 0.467484
O O10 0.116430 0.252017 0.359556
O O11 0.429989 0.783694 0.180960
O O12 0.273674 0.636837 0.416667
O O13 0.437261 0.620712 0.387689
O O14 0.000000 0.579610 0.166667
#
# Coordination Sequence:
#
# PCOD9583164 Si02
#       7
#    12   6  12   6  12  12  12
#     4  10  22  40  64  97 132 177 219 288 339 411
#     4  12  24  46  70  96 134 188 230 282 352 410
#     4  12  25  45  69 101 140 182 237 287 349 425
#     4  10  18  42  68  88 134 172 220 286 344 396
#     4  11  22  44  68  97 134 181 222 289 353 416
#     4  12  24  44  69  96 139 184 228 289 344 416
#     4  10  21  40  66  97 133 170 222 277 356 409
#
# _framework density 20.793105000000001
#
# number of rings (size 3 to 8) (size 9 to 14) (size 15 to 20)
#    0.000    1.000    7.500    1.000    2.333    0.000 
#    9.000    0.000    0.000    0.000    0.000    0.000 
#    0.000    0.000    0.000    0.000    0.000    0.000 
#
# Total GULP energy -400878.549131 kJ/mol
# GULP energy per Si atom -5567.757627 kJ/mol
# Density = 2.074578 g / cm^3
# Si number density = 20.793105 Si / 1000 Ang^3
#
#
#
# Elastic Constant Matrix: (Units=GPa)
#
#
# Indices 1 2 3 4 5 6 
#
# 1 91.5829 26.1182 33.0744 0.0000 0.0000 0.0000
# 2 26.1182 91.5829 33.0744 0.0000 0.0000 0.0000
# 3 33.0744 33.0744 67.9839 0.0000 0.0000 0.0000
# 4 0.0000 0.0000 0.0000 17.3852 0.0000 0.0000
# 5 0.0000 0.0000 0.0000 0.0000 17.3852 0.0000
# 6 0.0000 0.0000 0.0000 0.0000 0.0000 32.7324
#
#
#
# Elastic Compliance Matrix: (Units=1/GPa)
#
#
# Indices 1 2 3 4 5 6 
#
# 1 0.013484 -0.001791 -0.005689 0.000000 0.000000 0.000000
# 2 -0.001791 0.013484 -0.005689 0.000000 0.000000 0.000000
# 3 -0.005689 -0.005689 0.020245 0.000000 0.000000 0.000000
# 4 0.000000 0.000000 0.000000 0.057520 0.000000 0.000000
# 5 0.000000 0.000000 0.000000 0.000000 0.057520 0.000000
# 6 0.000000 0.000000 0.000000 0.000000 0.000000 0.030551
#
#
# Mechanical properties :
#
#
# Convention : Reuss Voigt Hill
#
# Bulk Modulus (GPa) = 47.90218 48.40932 48.15575
# Shear Modulus (GPa) = 22.11406 24.09273 23.10339
#
# Velocity S-wave (km/s) = 3.26472 3.40764 3.33695
# Velocity P-wave (km/s) = 6.10727 6.23014 6.16901
#
# Compressibility (1/GPa) = 0.02087588
#
# Stress axis : x y z
#
# Youngs Moduli (GPa) = 74.16019 74.16019 49.39579
#
# Poissons Ratio (x) = 0.13283 0.28100
# Poissons Ratio (y) = 0.13283 0.28100
# Poissons Ratio (z) = 0.42188 0.42188
#
# Static dielectric constant tensor:
#      x y z
#    x 1.783340 0.000000 0.000000 
#    y 0.000000 1.783340 0.000000 
#    z 0.000000 0.000000 1.781620 
# 
# From -- ./inp_files/6862.got.cif
#   From: 2010.05.17/outbox.cif.g08.bks.cpg/sg179_4_cif.got.tgz:6862.got - 2010.05.20 11:37:33.
