data_PCOD9583695
_publ_section_title
;
Structure prediction by ZEFSAII (Michael W. Deem and Ramdas Pophale) SiO2 
 PCOD9583695
Probable space group: P 62 2 2
;
_chemical_formula_sum "Si O2"
_cell_formula_units_Z 39
_cell_length_a 8.559227
_cell_length_b 8.559227
_cell_length_c 29.057249
_cell_angle_alpha 90.000000
_cell_angle_beta 90.000000
_cell_angle_gamma 120.000000
_cell_volume 1843.547007
_symmetry_space_group_name_H-M "P 62 2 2"
_symmetry_group_IT_number 180
_symmetry_cell_setting 'hexagonal'
loop_
_space_group_symop_operation_xyz
x,y,z
x-y,x,1/3+z
-y,x-y,2/3+z
-x,-y,z
-x+y,-x,1/3+z
y,-x+y,2/3+z
x-y,-y,-z
-x,-x+y,1/3-z
y,x,2/3-z
-y,-x,2/3-z
-x+y,y,-z
x,x-y,1/3-z
loop_
_atom_site_type_symbol
_atom_site_label
_atom_site_fract_x
_atom_site_fract_y
_atom_site_fract_z
Si Si1 0.133279 0.266558 0.000000
Si Si2 0.243366 0.971828 0.758050
Si Si3 0.299160 0.642636 0.887904
Si Si4 0.000000 0.000000 0.500000
Si Si5 0.000000 0.500000 0.055729
O O1 0.327053 0.389374 0.976188
O O2 0.996298 0.173276 0.957847
O O3 0.223231 0.774701 0.764094
O O4 0.450904 0.129054 0.763873
O O5 0.154677 0.022900 0.799180
O O6 0.334753 0.665247 0.833334
O O7 0.463563 0.636348 0.913210
#
# Coordination Sequence:
#
# PCOD9583695 Si02
#       5
#     6  12  12   3   6
#     4  10  20  37  58  92 118 165 200 254 312 385
#     4  10  23  38  61  84 126 159 209 252 323 378
#     4  10  20  37  60  94 118 158 208 265 308 384
#     4  12  24  42  58  86 120 174 196 266 316 396
#     4  10  19  32  62  90 128 152 206 259 322 372
#
# _framework density 21.154872999999998
#
# number of rings (size 3 to 8) (size 9 to 14) (size 15 to 20)
#    0.000    1.846    1.538    4.154    8.615    0.615 
#    0.000    0.000    0.000    0.000    0.000    0.000 
#    0.000    0.000    0.000    0.000    0.000    0.000 
#
# Total GULP energy -217355.254795 kJ/mol
# GULP energy per Si atom -5573.211661 kJ/mol
# Density = 2.110672 g / cm^3
# Si number density = 21.154873 Si / 1000 Ang^3
#
#
#
# Elastic Constant Matrix: (Units=GPa)
#
#
# Indices 1 2 3 4 5 6 
#
# 1 81.1411 34.9159 49.9079 0.0000 0.0000 0.0000
# 2 34.9159 81.1411 49.9079 0.0000 0.0000 0.0000
# 3 49.9079 49.9079 188.1633 0.0000 0.0000 0.0000
# 4 0.0000 0.0000 0.0000 42.7162 0.0000 0.0000
# 5 0.0000 0.0000 0.0000 0.0000 42.7162 0.0000
# 6 0.0000 0.0000 0.0000 0.0000 0.0000 23.1126
#
#
#
# Elastic Compliance Matrix: (Units=1/GPa)
#
#
# Indices 1 2 3 4 5 6 
#
# 1 0.016398 -0.005235 -0.002961 0.000000 0.000000 0.000000
# 2 -0.005235 0.016398 -0.002961 0.000000 0.000000 0.000000
# 3 -0.002961 -0.002961 0.006885 0.000000 0.000000 0.000000
# 4 0.000000 0.000000 0.000000 0.023410 0.000000 0.000000
# 5 0.000000 0.000000 0.000000 0.000000 0.023410 0.000000
# 6 0.000000 0.000000 0.000000 0.000000 0.000000 0.043266
#
#
# Mechanical properties :
#
#
# Convention : Reuss Voigt Hill
#
# Bulk Modulus (GPa) = 57.57800 68.87875 63.22838
# Shear Modulus (GPa) = 31.67137 36.08991 33.88064
#
# Velocity S-wave (km/s) = 3.87346 4.13484 4.00628
# Velocity P-wave (km/s) = 6.87615 7.44485 7.16614
#
# Compressibility (1/GPa) = 0.01736775
#
# Stress axis : x y z
#
# Youngs Moduli (GPa) = 60.98276 60.98276 145.23968
#
# Poissons Ratio (x) = 0.31925 0.43003
# Poissons Ratio (y) = 0.31925 0.43003
# Poissons Ratio (z) = 0.18056 0.18056
#
# Static dielectric constant tensor:
#      x y z
#    x 1.793470 0.000000 0.000000 
#    y 0.000000 1.793470 0.000000 
#    z 0.000000 0.000000 1.764800 
# 
# From -- ./inp_files/11898.got.cif
#   From: 2010.05.17/outbox.cif.g08.bks.cpg/sg180_6_cif.got.tgz:11898.got - 2010.05.20 11:43:55.
