data_PCOD9583262
_publ_section_title
;
Structure prediction by ZEFSAII (Michael W. Deem and Ramdas Pophale) SiO2 
 PCOD9583262
Probable space group: P 65 2 2
;
_chemical_formula_sum "Si O2"
_cell_formula_units_Z 60
_cell_length_a 11.176013
_cell_length_b 11.176013
_cell_length_c 28.432917
_cell_angle_alpha 90.000000
_cell_angle_beta 90.000000
_cell_angle_gamma 120.000000
_cell_volume 3075.571625
_symmetry_space_group_name_H-M "P 65 2 2"
_symmetry_group_IT_number 179
_symmetry_cell_setting 'hexagonal'
loop_
_space_group_symop_operation_xyz
x,y,z
x-y,x,5/6+z
-y,x-y,2/3+z
-x,-y,1/2+z
-x+y,-x,1/3+z
y,-x+y,1/6+z
x-y,-y,-z
-x,-x+y,1/3-z
y,x,2/3-z
-y,-x,1/6-z
-x+y,y,1/2-z
x,x-y,5/6-z
loop_
_atom_site_type_symbol
_atom_site_label
_atom_site_fract_x
_atom_site_fract_y
_atom_site_fract_z
Si Si1 0.494253 0.976858 0.370226
Si Si2 0.236805 0.758782 0.744538
Si Si3 0.412557 0.340493 0.058786
Si Si4 0.583523 0.671753 0.288678
Si Si5 0.256819 0.757501 0.529548
O O1 0.334460 0.879990 0.384126
O O2 0.551237 0.924239 0.329092
O O3 0.569308 0.981231 0.417924
O O4 0.534230 0.133538 0.356812
O O5 0.361539 0.723077 0.750000
O O6 0.184094 0.741204 0.690050
O O7 0.307006 0.919324 0.757333
O O8 0.557852 0.442149 0.083334
O O9 0.361383 0.182049 0.066923
O O10 0.663253 0.663253 0.333334
O O11 0.418800 0.612290 0.298093
O O12 0.216342 0.783659 0.583334
#
# Coordination Sequence:
#
# PCOD9583262 Si02
#       5
#    12  12  12  12  12
#     4  11  22  36  62  86 127 165 202 266 315 378
#     4  11  21  37  57  93 125 163 206 259 328 379
#     4  11  23  36  59  91 127 159 204 265 322 371
#     4  11  23  39  61  91 124 165 212 256 318 391
#     4  10  20  37  57  87 121 161 210 251 310 376
#
# _framework density 19.508569999999999
#
# number of rings (size 3 to 8) (size 9 to 14) (size 15 to 20)
#    0.000    1.200    6.000    3.000    2.800    0.000 
#    0.000    0.000    0.000    1.200   10.400    0.000 
#    0.000    0.000    0.000    0.000    0.000    0.000 
#
# Total GULP energy -334012.103833 kJ/mol
# GULP energy per Si atom -5566.868397 kJ/mol
# Density = 1.946417 g / cm^3
# Si number density = 19.508570 Si / 1000 Ang^3
#
#
#
# Elastic Constant Matrix: (Units=GPa)
#
#
# Indices 1 2 3 4 5 6 
#
# 1 48.5705 13.9515 8.2718 0.0000 0.0000 0.0000
# 2 13.9515 48.5705 8.2718 0.0000 0.0000 0.0000
# 3 8.2718 8.2718 56.3878 0.0000 0.0000 0.0000
# 4 0.0000 0.0000 0.0000 12.3843 0.0000 0.0000
# 5 0.0000 0.0000 0.0000 0.0000 12.3843 0.0000
# 6 0.0000 0.0000 0.0000 0.0000 0.0000 17.3095
#
#
#
# Elastic Compliance Matrix: (Units=1/GPa)
#
#
# Indices 1 2 3 4 5 6 
#
# 1 0.022763 -0.006123 -0.002441 0.000000 0.000000 0.000000
# 2 -0.006123 0.022763 -0.002441 0.000000 0.000000 0.000000
# 3 -0.002441 -0.002441 0.018451 0.000000 0.000000 0.000000
# 4 0.000000 0.000000 0.000000 0.080748 0.000000 0.000000
# 5 0.000000 0.000000 0.000000 0.000000 0.080748 0.000000
# 6 0.000000 0.000000 0.000000 0.000000 0.000000 0.057772
#
#
# Mechanical properties :
#
#
# Convention : Reuss Voigt Hill
#
# Bulk Modulus (GPa) = 23.82830 23.83544 23.83187
# Shear Modulus (GPa) = 15.66208 16.61785 16.13996
#
# Velocity S-wave (km/s) = 2.83650 2.92177 2.87945
# Velocity P-wave (km/s) = 4.79254 4.86074 4.82676
#
# Compressibility (1/GPa) = 0.04196691
#
# Stress axis : x y z
#
# Youngs Moduli (GPa) = 43.93078 43.93078 54.19907
#
# Poissons Ratio (x) = 0.26898 0.13230
# Poissons Ratio (y) = 0.26898 0.13230
# Poissons Ratio (z) = 0.10724 0.10724
#
# Static dielectric constant tensor:
#      x y z
#    x 1.679080 0.000000 0.000000 
#    y 0.000000 1.679080 0.000000 
#    z 0.000000 0.000000 0.527050 
# 
# From -- ./inp_files/8820.got.cif
#   From: 2010.05.17/outbox.cif.g08.bks.cpg/sg179_5_cif.got.tgz:8820.got - 2010.05.20 11:37:33.
