data_PCOD9583474
_publ_section_title
;
Structure prediction by ZEFSAII (Michael W. Deem and Ramdas Pophale) SiO2 
 PCOD9583474
Probable space group: P 65 2 2
;
_chemical_formula_sum "Si O2"
_cell_formula_units_Z 18
_cell_length_a 10.320621
_cell_length_b 10.320621
_cell_length_c 7.327417
_cell_angle_alpha 90.000000
_cell_angle_beta 90.000000
_cell_angle_gamma 120.000000
_cell_volume 675.916735
_symmetry_space_group_name_H-M "P 65 2 2"
_symmetry_group_IT_number 179
_symmetry_cell_setting 'hexagonal'
loop_
_space_group_symop_operation_xyz
x,y,z
x-y,x,5/6+z
-y,x-y,2/3+z
-x,-y,1/2+z
-x+y,-x,1/3+z
y,-x+y,1/6+z
x-y,-y,-z
-x,-x+y,1/3-z
y,x,2/3-z
-y,-x,1/6-z
-x+y,y,1/2-z
x,x-y,5/6-z
loop_
_atom_site_type_symbol
_atom_site_label
_atom_site_fract_x
_atom_site_fract_y
_atom_site_fract_z
Si Si1 0.694006 0.951361 0.695379
Si Si2 0.715329 0.430658 0.750000
O O1 0.739092 0.828725 0.632193
O O2 0.551997 0.871868 0.826156
O O3 0.660113 0.000000 0.500000
O O4 0.683476 0.316524 0.583334
#
# Coordination Sequence:
#
# PCOD9583474 Si02
#       2
#    12   6
#     4  10  24  48  83 120 157 203 273 349 417 474
#     4  12  30  50  76 112 166 224 274 322 404 508
#
# _framework density 26.630496999999998
#
# number of rings (size 3 to 8) (size 9 to 14) (size 15 to 20)
#    0.000    1.333    0.000    2.000    9.333   21.333 
#    6.000    0.000    0.000    0.000    0.000    0.000 
#    0.000    0.000    0.000    0.000    0.000    0.000 
#
# Total GULP energy -100564.701228 kJ/mol
# GULP energy per Si atom -5586.927846 kJ/mol
# Density = 2.656988 g / cm^3
# Si number density = 26.630497 Si / 1000 Ang^3
#
#
#
# Elastic Constant Matrix: (Units=GPa)
#
#
# Indices 1 2 3 4 5 6 
#
# 1 159.9521 60.0916 77.1905 0.0000 0.0000 0.0000
# 2 60.0916 159.9521 77.1905 0.0000 0.0000 0.0000
# 3 77.1905 77.1905 242.0398 0.0000 0.0000 0.0000
# 4 0.0000 0.0000 0.0000 55.8883 0.0000 0.0000
# 5 0.0000 0.0000 0.0000 0.0000 55.8883 0.0000
# 6 0.0000 0.0000 0.0000 0.0000 0.0000 49.9302
#
#
#
# Elastic Compliance Matrix: (Units=1/GPa)
#
#
# Indices 1 2 3 4 5 6 
#
# 1 0.007934 -0.002080 -0.001867 0.000000 0.000000 0.000000
# 2 -0.002080 0.007934 -0.001867 0.000000 0.000000 0.000000
# 3 -0.001867 -0.001867 0.005322 0.000000 0.000000 0.000000
# 4 0.000000 0.000000 0.000000 0.017893 0.000000 0.000000
# 5 0.000000 0.000000 0.000000 0.000000 0.017893 0.000000
# 6 0.000000 0.000000 0.000000 0.000000 0.000000 0.020028
#
#
# Mechanical properties :
#
#
# Convention : Reuss Voigt Hill
#
# Bulk Modulus (GPa) = 104.56913 110.09881 107.33397
# Shear Modulus (GPa) = 54.45431 55.50610 54.98021
#
# Velocity S-wave (km/s) = 4.52686 4.57037 4.54867
# Velocity P-wave (km/s) = 8.16549 8.32370 8.24497
#
# Compressibility (1/GPa) = 0.00956305
#
# Stress axis : x y z
#
# Youngs Moduli (GPa) = 126.03611 126.03611 187.88346
#
# Poissons Ratio (x) = 0.26212 0.35080
# Poissons Ratio (y) = 0.26212 0.35080
# Poissons Ratio (z) = 0.23532 0.23532
#
# Static dielectric constant tensor:
#      x y z
#    x 2.125400 0.000000 0.000000 
#    y 0.000000 2.125400 0.000000 
#    z 0.000000 0.000000 2.277540 
# 
# From -- ./inp_files/1782.got.cif
#   From: 2010.05.17/outbox.cif.g08.bks.cpg/sg179_1_cif.got.tgz:1782.got - 2010.05.20 11:37:33.
