data_PCOD9583977
_publ_section_title
;
Structure prediction by ZEFSAII (Michael W. Deem and Ramdas Pophale) SiO2 
 PCOD9583977
Probable space group: P 62 2 2
;
_chemical_formula_sum "Si O2"
_cell_formula_units_Z 42
_cell_length_a 8.742601
_cell_length_b 8.742601
_cell_length_c 25.985491
_cell_angle_alpha 90.000000
_cell_angle_beta 90.000000
_cell_angle_gamma 120.000000
_cell_volume 1720.057145
_symmetry_space_group_name_H-M "P 62 2 2"
_symmetry_group_IT_number 180
_symmetry_cell_setting 'hexagonal'
loop_
_space_group_symop_operation_xyz
x,y,z
x-y,x,1/3+z
-y,x-y,2/3+z
-x,-y,z
-x+y,-x,1/3+z
y,-x+y,2/3+z
x-y,-y,-z
-x,-x+y,1/3-z
y,x,2/3-z
-y,-x,2/3-z
-x+y,y,-z
x,x-y,1/3-z
loop_
_atom_site_type_symbol
_atom_site_label
_atom_site_fract_x
_atom_site_fract_y
_atom_site_fract_z
Si Si1 0.705801 0.608201 0.729205
Si Si2 0.711746 0.000000 0.000000
Si Si3 0.522436 0.681291 0.493644
Si Si4 0.177266 0.158779 0.580878
O O1 0.500000 0.500000 0.720409
O O2 0.756955 0.601440 0.787982
O O3 0.758504 0.807913 0.718082
O O4 0.832678 0.560901 0.696842
O O5 0.747177 0.895927 0.047468
O O6 0.500000 0.500000 0.471658
O O7 0.324202 0.648403 0.500000
O O8 0.659419 0.728961 0.541826
O O9 0.000000 0.000000 0.555139
#
# Coordination Sequence:
#
# PCOD9583977 Si02
#       4
#    12   6  12  12
#     4  11  22  45  71 102 143 189 250 303 373 460
#     4  10  25  44  71 110 137 196 243 312 381 452
#     4  12  28  45  70 110 150 193 245 320 386 451
#     4  10  22  44  74 102 139 185 253 300 372 450
#
# _framework density 24.417791000000001
#
# number of rings (size 3 to 8) (size 9 to 14) (size 15 to 20)
#    0.000    1.143    2.857    4.714    8.000    4.571 
#    0.000    0.714    0.000    0.000    0.000    0.000 
#    0.000    0.000    0.000    0.000    0.000    0.000 
#
# Total GULP energy -233900.319542 kJ/mol
# GULP energy per Si atom -5569.055227 kJ/mol
# Density = 2.436222 g / cm^3
# Si number density = 24.417791 Si / 1000 Ang^3
#
#
#
# Elastic Constant Matrix: (Units=GPa)
#
#
# Indices 1 2 3 4 5 6 
#
# 1 126.4054 51.5427 40.7664 0.0000 0.0000 0.0000
# 2 51.5427 126.4054 40.7664 0.0000 0.0000 0.0000
# 3 40.7664 40.7664 103.4604 0.0000 0.0000 0.0000
# 4 0.0000 0.0000 0.0000 23.2505 0.0000 0.0000
# 5 0.0000 0.0000 0.0000 0.0000 23.2505 0.0000
# 6 0.0000 0.0000 0.0000 0.0000 0.0000 37.4314
#
#
#
# Elastic Compliance Matrix: (Units=1/GPa)
#
#
# Indices 1 2 3 4 5 6 
#
# 1 0.010108 -0.003250 -0.002702 0.000000 0.000000 0.000000
# 2 -0.003250 0.010108 -0.002702 0.000000 0.000000 0.000000
# 3 -0.002702 -0.002702 0.011795 0.000000 0.000000 0.000000
# 4 0.000000 0.000000 0.000000 0.043010 0.000000 0.000000
# 5 0.000000 0.000000 0.000000 0.000000 0.043010 0.000000
# 6 0.000000 0.000000 0.000000 0.000000 0.000000 0.026716
#
#
# Mechanical properties :
#
#
# Convention : Reuss Voigt Hill
#
# Bulk Modulus (GPa) = 68.01874 69.15802 68.58838
# Shear Modulus (GPa) = 29.94820 31.66618 30.80719
#
# Velocity S-wave (km/s) = 3.50593 3.60509 3.55585
# Velocity P-wave (km/s) = 6.65623 6.76115 6.70890
#
# Compressibility (1/GPa) = 0.01470183
#
# Stress axis : x y z
#
# Youngs Moduli (GPa) = 98.93416 98.93416 84.78189
#
# Poissons Ratio (x) = 0.32154 0.22909
# Poissons Ratio (y) = 0.32154 0.22909
# Poissons Ratio (z) = 0.26733 0.26733
#
# Static dielectric constant tensor:
#      x y z
#    x 2.081490 0.000000 0.000000 
#    y 0.000000 2.081490 0.000000 
#    z 0.000000 0.000000 1.994980 
# 
# From -- ./inp_files/11958.got.cif
#   From: 2010.05.17/outbox.cif.g08.bks.cpg/sg180_6_cif.got.tgz:11958.got - 2010.05.20 11:43:55.
