data_PCOD9583054
_publ_section_title
;
Structure prediction by ZEFSAII (Michael W. Deem and Ramdas Pophale) SiO2 
 PCOD9583054
Probable space group: P 61 2 2
;
_chemical_formula_sum "Si O2"
_cell_formula_units_Z 60
_cell_length_a 18.893598
_cell_length_b 18.893598
_cell_length_c 9.740447
_cell_angle_alpha 90.000000
_cell_angle_beta 90.000000
_cell_angle_gamma 120.000000
_cell_volume 3011.194861
_symmetry_space_group_name_H-M "P 61 2 2"
_symmetry_group_IT_number 178
_symmetry_cell_setting 'hexagonal'
loop_
_space_group_symop_operation_xyz
x,y,z
x-y,x,1/6+z
-y,x-y,1/3+z
-x,-y,1/2+z
-x+y,-x,2/3+z
y,-x+y,5/6+z
x-y,-y,-z
-x,-x+y,2/3-z
y,x,1/3-z
-y,-x,5/6-z
-x+y,y,1/2-z
x,x-y,1/6-z
loop_
_atom_site_type_symbol
_atom_site_label
_atom_site_fract_x
_atom_site_fract_y
_atom_site_fract_z
Si Si1 0.967526 0.483763 0.083334
Si Si2 0.616871 0.308436 0.083334
Si Si3 0.683310 0.926429 0.594803
Si Si4 0.267060 0.757705 0.576497
Si Si5 0.653935 0.513631 0.611190
Si Si6 0.334614 0.947174 0.636886
O O1 0.913727 0.435529 0.215888
O O2 0.018370 0.577706 0.124047
O O3 0.683519 0.283796 0.141144
O O4 0.552998 0.335730 0.137981
O O5 0.690218 0.845109 0.583334
O O6 0.595068 0.904776 0.532306
O O7 0.677612 0.950066 0.751996
O O8 0.748199 0.000000 0.500000
O O9 0.261530 0.738471 0.416667
O O10 0.178157 0.711298 0.644460
O O11 0.304546 0.852917 0.602320
O O12 0.347154 0.000000 0.500000
#
# Coordination Sequence:
#
# PCOD9583054 Si02
#       6
#     6   6  12  12  12  12
#     4  12  27  42  62  98 134 184 242 298 356 413
#     4  12  23  36  60  86 130 196 246 296 348 393
#     4  12  26  48  72 102 135 179 229 294 360 440
#     4  12  25  40  60  92 136 184 242 299 343 405
#     4  12  23  41  61  89 136 182 241 294 345 410
#     4  12  27  42  69  97 135 185 234 296 359 414
#
# _framework density 19.925646
#
# number of rings (size 3 to 8) (size 9 to 14) (size 15 to 20)
#    0.000    0.000    5.000    6.000    8.400    0.000 
#    0.000    0.000    0.000    0.000    0.000    1.400 
#    0.000    0.000    0.000    0.000    0.000    0.000 
#
# Total GULP energy -335455.315415 kJ/mol
# GULP energy per Si atom -5590.921924 kJ/mol
# Density = 1.988029 g / cm^3
# Si number density = 19.925646 Si / 1000 Ang^3
#
#
#
# Elastic Constant Matrix: (Units=GPa)
#
#
# Indices 1 2 3 4 5 6 
#
# 1 90.9450 42.9021 32.2071 0.0000 0.0000 0.0000
# 2 42.9021 90.9450 32.2071 0.0000 0.0000 0.0000
# 3 32.2071 32.2071 89.2782 0.0000 0.0000 0.0000
# 4 0.0000 0.0000 0.0000 21.4662 0.0000 0.0000
# 5 0.0000 0.0000 0.0000 0.0000 21.4662 0.0000
# 6 0.0000 0.0000 0.0000 0.0000 0.0000 24.0214
#
#
#
# Elastic Compliance Matrix: (Units=1/GPa)
#
#
# Indices 1 2 3 4 5 6 
#
# 1 0.014928 -0.005887 -0.003261 0.000000 0.000000 0.000000
# 2 -0.005887 0.014928 -0.003261 0.000000 0.000000 0.000000
# 3 -0.003261 -0.003261 0.013554 0.000000 0.000000 0.000000
# 4 0.000000 0.000000 0.000000 0.046585 0.000000 0.000000
# 5 0.000000 0.000000 0.000000 0.000000 0.046585 0.000000
# 6 0.000000 0.000000 0.000000 0.000000 0.000000 0.041630
#
#
# Mechanical properties :
#
#
# Convention : Reuss Voigt Hill
#
# Bulk Modulus (GPa) = 53.79287 53.97785 53.88536
# Shear Modulus (GPa) = 23.89766 24.31420 24.10593
#
# Velocity S-wave (km/s) = 3.46691 3.49699 3.48198
# Velocity P-wave (km/s) = 6.56364 6.59194 6.57781
#
# Compressibility (1/GPa) = 0.01858982
#
# Stress axis : x y z
#
# Youngs Moduli (GPa) = 66.98920 66.98920 73.77851
#
# Poissons Ratio (x) = 0.39436 0.24063
# Poissons Ratio (y) = 0.39436 0.24063
# Poissons Ratio (z) = 0.21848 0.21848
#
# Static dielectric constant tensor:
#      x y z
#    x 1.711400 0.000000 0.000000 
#    y 0.000000 1.711400 0.000000 
#    z 0.000000 0.000000 1.981490 
# 
# From -- ./inp_files/4600.got.cif
#   From: 2010.05.17/outbox.cif.g08.bks.cpg/sg178_3_cif.got.tgz:4600.got - 2010.05.20 11:30:59.
