data_PCOD9583448
_publ_section_title
;
Structure prediction by ZEFSAII (Michael W. Deem and Ramdas Pophale) SiO2 
 PCOD9583448
Probable space group: P 65 2 2
;
_chemical_formula_sum "Si O2"
_cell_formula_units_Z 66
_cell_length_a 17.141045
_cell_length_b 17.141045
_cell_length_c 14.255636
_cell_angle_alpha 90.000000
_cell_angle_beta 90.000000
_cell_angle_gamma 120.000000
_cell_volume 3627.369688
_symmetry_space_group_name_H-M "P 65 2 2"
_symmetry_group_IT_number 179
_symmetry_cell_setting 'hexagonal'
loop_
_space_group_symop_operation_xyz
x,y,z
x-y,x,5/6+z
-y,x-y,2/3+z
-x,-y,1/2+z
-x+y,-x,1/3+z
y,-x+y,1/6+z
x-y,-y,-z
-x,-x+y,1/3-z
y,x,2/3-z
-y,-x,1/6-z
-x+y,y,1/2-z
x,x-y,5/6-z
loop_
_atom_site_type_symbol
_atom_site_label
_atom_site_fract_x
_atom_site_fract_y
_atom_site_fract_z
Si Si1 0.751118 0.248883 0.583334
Si Si2 0.654292 0.075193 0.928344
Si Si3 0.790271 0.368443 0.134346
Si Si4 0.963487 0.505310 0.023804
Si Si5 0.276995 0.305830 0.940489
Si Si6 0.354341 0.228142 0.075438
O O1 0.654873 0.218324 0.537773
O O2 0.749102 0.183613 0.666641
O O3 0.704584 0.088210 0.830405
O O4 0.548485 0.037941 0.907726
O O5 0.687867 0.170553 0.978911
O O6 0.651185 0.000000 0.000000
O O7 0.697330 0.302671 0.083334
O O8 0.866225 0.429629 0.059765
O O9 0.972918 0.601541 0.042373
O O10 0.971613 0.485807 0.916667
O O11 0.277620 0.277620 0.833334
O O12 0.194145 0.323495 0.948451
O O13 0.279931 0.236679 0.014223
#
# Coordination Sequence:
#
# PCOD9583448 Si02
#       6
#     6  12  12  12  12  12
#     4  12  24  36  56  90 126 168 216 266 320 376
#     4  10  24  42  60  86 123 176 216 261 321 386
#     4  11  26  36  53  86 128 171 220 267 314 380
#     4  11  21  39  61  80 122 171 211 258 318 376
#     4  12  22  41  63  95 126 164 213 272 331 390
#     4  12  24  40  67  93 124 166 221 270 329 401
#
# _framework density 18.195001999999999
#
# number of rings (size 3 to 8) (size 9 to 14) (size 15 to 20)
#    0.000    0.727    5.455    2.727    6.364    0.000 
#    0.000    0.000    0.000    0.000    0.000    6.364 
#    0.000    0.000    0.000    0.000    0.000    0.000 
#
# Total GULP energy -368680.635418 kJ/mol
# GULP energy per Si atom -5586.070234 kJ/mol
# Density = 1.815359 g / cm^3
# Si number density = 18.195002 Si / 1000 Ang^3
#
#
#
# Elastic Constant Matrix: (Units=GPa)
#
#
# Indices 1 2 3 4 5 6 
#
# 1 78.9939 42.0946 33.9040 0.0000 0.0000 0.0000
# 2 42.0946 78.9939 33.9040 0.0000 0.0000 0.0000
# 3 33.9040 33.9040 123.0518 0.0000 0.0000 0.0000
# 4 0.0000 0.0000 0.0000 0.3527 0.0000 0.0000
# 5 0.0000 0.0000 0.0000 0.0000 0.3527 0.0000
# 6 0.0000 0.0000 0.0000 0.0000 0.0000 18.4496
#
#
#
# Elastic Compliance Matrix: (Units=1/GPa)
#
#
# Indices 1 2 3 4 5 6 
#
# 1 0.018433 -0.008668 -0.002691 0.000000 0.000000 0.000000
# 2 -0.008668 0.018433 -0.002691 0.000000 0.000000 0.000000
# 3 -0.002691 -0.002691 0.009609 0.000000 0.000000 0.000000
# 4 0.000000 0.000000 0.000000 2.835186 0.000000 0.000000
# 5 0.000000 0.000000 0.000000 0.000000 2.835186 0.000000
# 6 0.000000 0.000000 0.000000 0.000000 0.000000 0.054202
#
#
# Mechanical properties :
#
#
# Convention : Reuss Voigt Hill
#
# Bulk Modulus (GPa) = 54.41490 55.64940 55.03215
# Shear Modulus (GPa) = 0.86129 15.24014 8.05071
#
# Velocity S-wave (km/s) = 0.68876 2.89727 2.10578
# Velocity P-wave (km/s) = 5.53208 6.46867 6.01862
#
# Compressibility (1/GPa) = 0.01837732
#
# Stress axis : x y z
#
# Youngs Moduli (GPa) = 54.25068 54.25068 104.06597
#
# Poissons Ratio (x) = 0.47024 0.27999
# Poissons Ratio (y) = 0.47024 0.27999
# Poissons Ratio (z) = 0.14596 0.14596
#
# Static dielectric constant tensor:
#      x y z
#    x 1.666790 0.000000 0.000000 
#    y 0.000000 1.666790 0.000000 
#    z 0.000000 0.000000 1.660640 
# 
# From -- ./inp_files/6015.got.cif
#   From: 2010.05.17/outbox.cif.g08.bks.cpg/sg179_4_cif.got.tgz:6015.got - 2010.05.20 11:37:33.
