data_PCOD9583273
_publ_section_title
;
Structure prediction by ZEFSAII (Michael W. Deem and Ramdas Pophale) SiO2 
 PCOD9583273
Probable space group: P 65 2 2
;
_chemical_formula_sum "Si O2"
_cell_formula_units_Z 84
_cell_length_a 11.435689
_cell_length_b 11.435689
_cell_length_c 29.399675
_cell_angle_alpha 90.000000
_cell_angle_beta 90.000000
_cell_angle_gamma 120.000000
_cell_volume 3329.644239
_symmetry_space_group_name_H-M "P 65 2 2"
_symmetry_group_IT_number 179
_symmetry_cell_setting 'hexagonal'
loop_
_space_group_symop_operation_xyz
x,y,z
x-y,x,5/6+z
-y,x-y,2/3+z
-x,-y,1/2+z
-x+y,-x,1/3+z
y,-x+y,1/6+z
x-y,-y,-z
-x,-x+y,1/3-z
y,x,2/3-z
-y,-x,1/6-z
-x+y,y,1/2-z
x,x-y,5/6-z
loop_
_atom_site_type_symbol
_atom_site_label
_atom_site_fract_x
_atom_site_fract_y
_atom_site_fract_z
Si Si1 0.279026 0.499576 0.994812
Si Si2 0.577873 0.186831 0.503342
Si Si3 0.692455 0.847740 0.787145
Si Si4 0.542707 0.487162 0.425799
Si Si5 0.400947 0.026148 0.777094
Si Si6 0.236996 0.844282 0.129389
Si Si7 0.273793 0.278105 0.203367
O O1 0.307013 0.461805 0.944805
O O2 0.135017 0.389554 0.013910
O O3 0.322995 0.654817 0.992467
O O4 0.384217 0.489622 0.029288
O O5 0.452980 0.170211 0.533459
O O6 0.436019 0.904657 0.541428
O O7 0.685639 0.159690 0.528201
O O8 0.677612 0.962796 0.760688
O O9 0.758405 0.914469 0.834721
O O10 0.761243 0.797396 0.751114
O O11 0.520996 0.607580 0.444792
O O12 0.436918 0.351119 0.452173
O O13 0.544494 0.088988 0.750000
O O14 0.360568 0.095462 0.818585
O O15 0.154131 0.845870 0.083334
#
# Coordination Sequence:
#
# PCOD9583273 Si02
#       7
#    12  12  12  12  12  12  12
#     4  10  21  37  62  95 140 181 222 279 343 420
#     4  12  23  37  67  96 140 192 221 283 351 416
#     4  11  24  41  67  96 140 187 236 287 347 424
#     4  11  23  41  61 100 140 182 236 276 347 434
#     4  10  20  38  62  91 125 181 240 271 330 431
#     4  11  25  40  60  90 142 191 221 278 351 418
#     4  11  23  41  63  97 145 184 237 286 345 435
#
# _framework density 25.227919
#
# number of rings (size 3 to 8) (size 9 to 14) (size 15 to 20)
#    0.000    1.143    4.286    2.143    4.000    2.286 
#    0.000    0.000    0.000    0.000    0.000    0.000 
#  128.571    0.000    0.000    0.000    0.000    0.000 
#
# Total GULP energy -468622.971245 kJ/mol
# GULP energy per Si atom -5578.844896 kJ/mol
# Density = 2.517050 g / cm^3
# Si number density = 25.227919 Si / 1000 Ang^3
#
#
#
# Elastic Constant Matrix: (Units=GPa)
#
#
# Indices 1 2 3 4 5 6 
#
# 1 73.7847 29.0874 55.6305 0.0000 0.0000 0.0000
# 2 29.0874 73.7847 55.6305 0.0000 0.0000 0.0000
# 3 55.6305 55.6305 207.2755 0.0000 0.0000 0.0000
# 4 0.0000 0.0000 0.0000 49.6679 0.0000 0.0000
# 5 0.0000 0.0000 0.0000 0.0000 49.6679 0.0000
# 6 0.0000 0.0000 0.0000 0.0000 0.0000 22.3486
#
#
#
# Elastic Compliance Matrix: (Units=1/GPa)
#
#
# Indices 1 2 3 4 5 6 
#
# 1 0.018035 -0.004338 -0.003676 0.000000 0.000000 0.000000
# 2 -0.004338 0.018035 -0.003676 0.000000 0.000000 0.000000
# 3 -0.003676 -0.003676 0.006798 0.000000 0.000000 0.000000
# 4 0.000000 0.000000 0.000000 0.020134 0.000000 0.000000
# 5 0.000000 0.000000 0.000000 0.000000 0.020134 0.000000
# 6 0.000000 0.000000 0.000000 0.000000 0.000000 0.044745
#
#
# Mechanical properties :
#
#
# Convention : Reuss Voigt Hill
#
# Bulk Modulus (GPa) = 51.31674 70.61575 60.96625
# Shear Modulus (GPa) = 31.69458 38.63667 35.16563
#
# Velocity S-wave (km/s) = 3.54832 3.91769 3.73757
# Velocity P-wave (km/s) = 6.09695 6.96536 6.54557
#
# Compressibility (1/GPa) = 0.01948682
#
# Stress axis : x y z
#
# Youngs Moduli (GPa) = 55.44881 55.44881 147.10857
#
# Poissons Ratio (x) = 0.24054 0.54077
# Poissons Ratio (y) = 0.24054 0.54077
# Poissons Ratio (z) = 0.20383 0.20383
#
# Static dielectric constant tensor:
#      x y z
#    x 2.004010 0.000000 0.000000 
#    y 0.000000 2.004010 0.000000 
#    z 0.000000 0.000000 2.132780 
# 
# From -- ./inp_files/9638.got.cif
#   From: 2010.05.17/outbox.cif.g08.bks.cpg/sg179_5_cif.got.tgz:9638.got - 2010.05.20 11:37:33.
