data_PCOD9583311
_publ_section_title
;
Structure prediction by ZEFSAII (Michael W. Deem and Ramdas Pophale) SiO2 
 PCOD9583311
Probable space group: P 65 2 2
;
_chemical_formula_sum "Si O2"
_cell_formula_units_Z 84
_cell_length_a 20.005268
_cell_length_b 20.005268
_cell_length_c 12.034935
_cell_angle_alpha 90.000000
_cell_angle_beta 90.000000
_cell_angle_gamma 120.000000
_cell_volume 4171.220308
_symmetry_space_group_name_H-M "P 65 2 2"
_symmetry_group_IT_number 179
_symmetry_cell_setting 'hexagonal'
loop_
_space_group_symop_operation_xyz
x,y,z
x-y,x,5/6+z
-y,x-y,2/3+z
-x,-y,1/2+z
-x+y,-x,1/3+z
y,-x+y,1/6+z
x-y,-y,-z
-x,-x+y,1/3-z
y,x,2/3-z
-y,-x,1/6-z
-x+y,y,1/2-z
x,x-y,5/6-z
loop_
_atom_site_type_symbol
_atom_site_label
_atom_site_fract_x
_atom_site_fract_y
_atom_site_fract_z
Si Si1 0.957811 0.222850 0.478963
Si Si2 0.382767 0.213233 0.164786
Si Si3 0.134026 0.067013 0.916667
Si Si4 0.822136 0.299232 0.674577
Si Si5 0.577912 0.666416 0.849880
Si Si6 0.715705 0.802407 0.987245
Si Si7 0.631550 0.212887 0.120125
Si Si8 0.344537 0.344537 0.833334
O O1 0.875866 0.211850 0.444922
O O2 0.956155 0.149531 0.531151
O O3 0.001439 0.235921 0.363565
O O4 0.000801 0.296078 0.559678
O O5 0.446399 0.194410 0.122382
O O6 0.421063 0.293917 0.231710
O O7 0.323453 0.144924 0.243916
O O8 0.081704 0.081704 0.833334
O O9 0.762957 0.237044 0.583334
O O10 0.798509 0.362679 0.702056
O O11 0.915958 0.339264 0.655990
O O12 0.599636 0.599636 0.833334
O O13 0.502910 0.643366 0.923908
O O14 0.648036 0.736927 0.914354
O O15 0.759661 0.879831 0.916667
O O16 0.709829 0.290172 0.083334
O O17 0.607237 0.214474 0.250000
#
# Coordination Sequence:
#
# PCOD9583311 Si02
#       8
#    12  12   6  12  12  12  12   6
#     4  12  21  41  69  97 132 177 229 289 367 424
#     4  11  21  38  66  98 134 176 222 286 346 422
#     4  12  26  44  62  90 130 188 238 292 354 444
#     4  12  25  42  70 105 140 182 244 295 350 430
#     4  11  23  43  67 102 139 176 229 290 359 425
#     4  10  21  37  63  98 131 167 225 279 346 420
#     4  12  27  49  75  99 144 199 241 288 358 439
#     4  12  24  40  70 108 142 180 232 306 366 426
#
# _framework density 20.137992000000001
#
# number of rings (size 3 to 8) (size 9 to 14) (size 15 to 20)
#    0.000    0.571    5.000    5.143    1.000    0.000 
#    1.286    0.000    0.000    0.000    0.000    0.000 
#    0.000    0.000    0.000    0.000    0.000    0.000 
#
# Total GULP energy -468751.009404 kJ/mol
# GULP energy per Si atom -5580.369160 kJ/mol
# Density = 2.009216 g / cm^3
# Si number density = 20.137992 Si / 1000 Ang^3
#
#
#
# Elastic Constant Matrix: (Units=GPa)
#
#
# Indices 1 2 3 4 5 6 
#
# 1 115.2988 40.1068 28.5373 0.0000 0.0000 0.0000
# 2 40.1068 115.2988 28.5373 0.0000 0.0000 0.0000
# 3 28.5373 28.5373 70.0536 0.0000 0.0000 0.0000
# 4 0.0000 0.0000 0.0000 37.6108 0.0000 0.0000
# 5 0.0000 0.0000 0.0000 0.0000 37.6108 0.0000
# 6 0.0000 0.0000 0.0000 0.0000 0.0000 37.5960
#
#
#
# Elastic Compliance Matrix: (Units=1/GPa)
#
#
# Indices 1 2 3 4 5 6 
#
# 1 0.010433 -0.002866 -0.003082 0.000000 0.000000 0.000000
# 2 -0.002866 0.010433 -0.003082 0.000000 0.000000 0.000000
# 3 -0.003082 -0.003082 0.016786 0.000000 0.000000 0.000000
# 4 0.000000 0.000000 0.000000 0.026588 0.000000 0.000000
# 5 0.000000 0.000000 0.000000 0.000000 0.026588 0.000000
# 6 0.000000 0.000000 0.000000 0.000000 0.000000 0.026599
#
#
# Mechanical properties :
#
#
# Convention : Reuss Voigt Hill
#
# Bulk Modulus (GPa) = 51.04646 55.00156 53.02401
# Shear Modulus (GPa) = 35.20647 36.12817 35.66732
#
# Velocity S-wave (km/s) = 4.18576 4.24019 4.21306
# Velocity P-wave (km/s) = 6.98313 7.16547 7.07489
#
# Compressibility (1/GPa) = 0.01959000
#
# Stress axis : x y z
#
# Youngs Moduli (GPa) = 95.84913 95.84913 59.57297
#
# Poissons Ratio (x) = 0.27472 0.18363
# Poissons Ratio (y) = 0.27472 0.18363
# Poissons Ratio (z) = 0.29545 0.29545
#
# Static dielectric constant tensor:
#      x y z
#    x 1.688720 0.000000 0.000000 
#    y 0.000000 1.688720 0.000000 
#    z 0.000000 0.000000 1.734820 
# 
# From -- ./inp_files/4973.got.cif
#   From: 2010.05.17/outbox.cif.g08.bks.cpg/sg179_3_cif.got.tgz:4973.got - 2010.05.20 11:37:33.
