data_PCOD9583825
_publ_section_title
;
Structure prediction by ZEFSAII (Michael W. Deem and Ramdas Pophale) SiO2 
 PCOD9583825
Probable space group: P 62 2 2
;
_chemical_formula_sum "Si O2"
_cell_formula_units_Z 48
_cell_length_a 14.061340
_cell_length_b 14.061340
_cell_length_c 12.095582
_cell_angle_alpha 90.000000
_cell_angle_beta 90.000000
_cell_angle_gamma 120.000000
_cell_volume 2071.146507
_symmetry_space_group_name_H-M "P 62 2 2"
_symmetry_group_IT_number 180
_symmetry_cell_setting 'hexagonal'
loop_
_space_group_symop_operation_xyz
x,y,z
x-y,x,1/3+z
-y,x-y,2/3+z
-x,-y,z
-x+y,-x,1/3+z
y,-x+y,2/3+z
x-y,-y,-z
-x,-x+y,1/3-z
y,x,2/3-z
-y,-x,2/3-z
-x+y,y,-z
x,x-y,1/3-z
loop_
_atom_site_type_symbol
_atom_site_label
_atom_site_fract_x
_atom_site_fract_y
_atom_site_fract_z
Si Si1 0.257026 0.735545 0.962131
Si Si2 0.251395 0.279205 0.002644
Si Si3 0.902249 0.694900 0.749034
Si Si4 0.844523 0.477496 0.051584
O O1 0.247673 0.752328 0.833334
O O2 0.365896 0.731791 0.000000
O O3 0.256502 0.826709 0.040536
O O4 0.151901 0.613208 0.975588
O O5 0.262036 0.297264 0.135911
O O6 0.125813 0.251626 0.000000
O O7 0.263202 0.185219 0.939355
O O8 0.334433 0.396768 0.947151
O O9 0.000000 0.763931 0.666667
O O10 0.823447 0.411724 0.166667
O O11 0.744239 0.488477 0.000000
#
# Coordination Sequence:
#
# PCOD9583825 Si02
#       4
#    12  12  12  12
#     4  11  21  38  63  95 136 182 227 284 357 443
#     4  11  24  45  71 102 136 179 235 303 368 439
#     4  12  26  46  68  98 138 186 243 302 364 431
#     4  10  20  39  67 103 142 181 227 288 362 445
#
# _framework density 23.175571000000001
#
# number of rings (size 3 to 8) (size 9 to 14) (size 15 to 20)
#    0.000    1.000    0.000   10.500    0.000    2.000 
#    0.000   15.000    0.000    0.000    0.000    0.000 
#    0.000    0.000    0.000    0.000    0.000    0.000 
#
# Total GULP energy -267430.241842 kJ/mol
# GULP energy per Si atom -5571.463372 kJ/mol
# Density = 2.312282 g / cm^3
# Si number density = 23.175571 Si / 1000 Ang^3
#
#
#
# Elastic Constant Matrix: (Units=GPa)
#
#
# Indices 1 2 3 4 5 6 
#
# 1 82.3002 93.1674 21.6547 0.0000 0.0000 0.0000
# 2 93.1674 82.3002 21.6547 0.0000 0.0000 0.0000
# 3 21.6547 21.6547 121.1379 0.0000 0.0000 0.0000
# 4 0.0000 0.0000 0.0000 26.2160 0.0000 0.0000
# 5 0.0000 0.0000 0.0000 0.0000 26.2160 0.0000
# 6 0.0000 0.0000 0.0000 0.0000 0.0000 -5.4336
#
#
#
# Elastic Compliance Matrix: (Units=1/GPa)
#
#
# Indices 1 2 3 4 5 6 
#
# 1 -0.043029 0.048991 -0.001066 0.000000 0.000000 0.000000
# 2 0.048991 -0.043029 -0.001066 0.000000 0.000000 0.000000
# 3 -0.001066 -0.001066 0.008636 0.000000 0.000000 0.000000
# 4 0.000000 0.000000 0.000000 0.038145 0.000000 0.000000
# 5 0.000000 0.000000 0.000000 0.000000 0.038145 0.000000
# 6 0.000000 0.000000 0.000000 0.000000 0.000000 -0.184040
#
#
# Mechanical properties :
#
#
# Convention : Reuss Voigt Hill
#
# Bulk Modulus (GPa) = 61.36037 62.07689 61.71863
# Shear Modulus (GPa) = -18.28422 19.35045 0.53311
#
# Velocity S-wave (km/s) = -2.81186 2.89269 0.48014
# Velocity P-wave (km/s) = 3.99896 6.16445 5.19578
#
# Compressibility (1/GPa) = 0.01629716
#
# Stress axis : x y z
#
# Youngs Moduli (GPa) = -23.24013 -23.24013 115.79295
#
# Poissons Ratio (x) = 1.13856 0.12341
# Poissons Ratio (y) = 1.13856 0.12341
# Poissons Ratio (z) = -0.02477 -0.02477
#
# Static dielectric constant tensor:
#      x y z
#    x 1.920460 0.000000 0.000000 
#    y 0.000000 1.920460 0.000000 
#    z 0.000000 0.000000 2.122680 
# 
# From -- ./inp_files/4355.got.cif
#   From: 2010.05.17/outbox.cif.g08.bks.cpg/sg180_3_cif.got.tgz:4355.got - 2010.05.20 11:43:55.
