data_PCOD9583975
_publ_section_title
;
Structure prediction by ZEFSAII (Michael W. Deem and Ramdas Pophale) SiO2 
 PCOD9583975
Probable space group: P 62 2 2
;
_chemical_formula_sum "Si O2"
_cell_formula_units_Z 18
_cell_length_a 10.370595
_cell_length_b 10.370595
_cell_length_c 7.654568
_cell_angle_alpha 90.000000
_cell_angle_beta 90.000000
_cell_angle_gamma 120.000000
_cell_volume 712.949331
_symmetry_space_group_name_H-M "P 62 2 2"
_symmetry_group_IT_number 180
_symmetry_cell_setting 'hexagonal'
loop_
_space_group_symop_operation_xyz
x,y,z
x-y,x,1/3+z
-y,x-y,2/3+z
-x,-y,z
-x+y,-x,1/3+z
y,-x+y,2/3+z
x-y,-y,-z
-x,-x+y,1/3-z
y,x,2/3-z
-y,-x,2/3-z
-x+y,y,-z
x,x-y,1/3-z
loop_
_atom_site_type_symbol
_atom_site_label
_atom_site_fract_x
_atom_site_fract_y
_atom_site_fract_z
Si Si1 0.176031 0.352062 0.500000
Si Si2 0.113199 0.435662 0.863158
O O1 0.177781 0.446291 0.668996
O O2 0.259197 0.263180 0.551794
O O3 0.000000 0.500000 0.888133
O O4 0.244849 0.489698 0.000000
#
# Coordination Sequence:
#
# PCOD9583975 Si02
#       2
#     6  12
#     4  10  22  44  67 104 151 206 264 328 416 500
#     4  11  25  44  73 112 157 213 275 344 422 512
#
# _framework density 25.247237999999999
#
# number of rings (size 3 to 8) (size 9 to 14) (size 15 to 20)
#    0.000    1.333    0.000    6.000    0.000   13.333 
#    0.000   20.000    0.000    0.000    0.000    0.000 
#    0.000    0.000    0.000    0.000    0.000    0.000 
#
# Total GULP energy -100443.594955 kJ/mol
# GULP energy per Si atom -5580.199720 kJ/mol
# Density = 2.518977 g / cm^3
# Si number density = 25.247238 Si / 1000 Ang^3
#
#
#
# Elastic Constant Matrix: (Units=GPa)
#
#
# Indices 1 2 3 4 5 6 
#
# 1 153.4026 47.8927 83.1783 0.0000 0.0000 0.0000
# 2 47.8927 153.4026 83.1783 0.0000 0.0000 0.0000
# 3 83.1783 83.1783 191.0471 0.0000 0.0000 0.0000
# 4 0.0000 0.0000 0.0000 31.3348 0.0000 0.0000
# 5 0.0000 0.0000 0.0000 0.0000 31.3348 0.0000
# 6 0.0000 0.0000 0.0000 0.0000 0.0000 52.7549
#
#
#
# Elastic Compliance Matrix: (Units=1/GPa)
#
#
# Indices 1 2 3 4 5 6 
#
# 1 0.008619 -0.000859 -0.003379 0.000000 0.000000 0.000000
# 2 -0.000859 0.008619 -0.003379 0.000000 0.000000 0.000000
# 3 -0.003379 -0.003379 0.008176 0.000000 0.000000 0.000000
# 4 0.000000 0.000000 0.000000 0.031913 0.000000 0.000000
# 5 0.000000 0.000000 0.000000 0.000000 0.031913 0.000000
# 6 0.000000 0.000000 0.000000 0.000000 0.000000 0.018956
#
#
# Mechanical properties :
#
#
# Convention : Reuss Voigt Hill
#
# Bulk Modulus (GPa) = 98.21284 102.92790 100.57037
# Shear Modulus (GPa) = 39.42523 41.99176 40.70850
#
# Velocity S-wave (km/s) = 3.95595 4.08269 4.01982
# Velocity P-wave (km/s) = 7.73634 7.94235 7.84002
#
# Compressibility (1/GPa) = 0.01018197
#
# Stress axis : x y z
#
# Youngs Moduli (GPa) = 116.02453 116.02453 122.30605
#
# Poissons Ratio (x) = 0.09966 0.41322
# Poissons Ratio (y) = 0.09966 0.41322
# Poissons Ratio (z) = 0.39199 0.39199
#
# Static dielectric constant tensor:
#      x y z
#    x 2.075400 0.000000 0.000000 
#    y 0.000000 2.075400 0.000000 
#    z 0.000000 0.000000 2.017550 
# 
# From -- ./inp_files/1797.got.cif
#   From: 2010.05.17/outbox.cif.g08.bks.cpg/sg180_1_cif.got.tgz:1797.got - 2010.05.20 11:43:55.
