data_PCOD9583093
_publ_section_title
;
Structure prediction by ZEFSAII (Michael W. Deem and Ramdas Pophale) SiO2 
 PCOD9583093
Probable space group: P 65 2 2
;
_chemical_formula_sum "Si O2"
_cell_formula_units_Z 60
_cell_length_a 15.826847
_cell_length_b 15.826847
_cell_length_c 14.386755
_cell_angle_alpha 90.000000
_cell_angle_beta 90.000000
_cell_angle_gamma 120.000000
_cell_volume 3120.917493
_symmetry_space_group_name_H-M "P 65 2 2"
_symmetry_group_IT_number 179
_symmetry_cell_setting 'hexagonal'
loop_
_space_group_symop_operation_xyz
x,y,z
x-y,x,5/6+z
-y,x-y,2/3+z
-x,-y,1/2+z
-x+y,-x,1/3+z
y,-x+y,1/6+z
x-y,-y,-z
-x,-x+y,1/3-z
y,x,2/3-z
-y,-x,1/6-z
-x+y,y,1/2-z
x,x-y,5/6-z
loop_
_atom_site_type_symbol
_atom_site_label
_atom_site_fract_x
_atom_site_fract_y
_atom_site_fract_z
Si Si1 0.234623 0.572011 0.104563
Si Si2 0.643224 0.821612 0.416667
Si Si3 0.276681 0.943550 0.250785
Si Si4 0.631499 0.523033 0.374273
Si Si5 0.882312 0.441156 0.416667
Si Si6 0.846625 0.611219 0.948573
O O1 0.342041 0.657960 0.083334
O O2 0.179628 0.588580 0.190071
O O3 0.233862 0.471610 0.112441
O O4 0.177726 0.574352 0.011305
O O5 0.695931 0.784597 0.487471
O O6 0.575680 0.847024 0.478842
O O7 0.373983 0.932758 0.240516
O O8 0.206893 0.865107 0.326405
O O9 0.313058 0.055669 0.270040
O O10 0.559983 0.559983 0.333334
O O11 0.675254 0.557569 0.476654
#
# Coordination Sequence:
#
# PCOD9583093 Si02
#       6
#    12   6  12  12   6  12
#     4  11  19  31  47  71 106 146 183 210 253 314
#     4  10  16  30  49  70 106 130 175 212 268 306
#     4  10  19  32  50  77 104 144 169 229 272 320
#     4  11  18  32  52  74 106 141 179 217 267 310
#     4  10  18  30  49  70 108 144 187 216 260 312
#     4  10  22  33  53  76 111 141 178 229 276 319
#
# _framework density 19.225114999999999
#
# number of rings (size 3 to 8) (size 9 to 14) (size 15 to 20)
#    0.000    1.600    5.000    2.400    1.400    0.000 
#    0.000    0.000    0.000    0.000    0.000    0.000 
#   12.000    0.000    0.000    0.000    0.000    0.000 
#
# Total GULP energy -334676.492592 kJ/mol
# GULP energy per Si atom -5577.941543 kJ/mol
# Density = 1.918136 g / cm^3
# Si number density = 19.225115 Si / 1000 Ang^3
#
#
#
# Elastic Constant Matrix: (Units=GPa)
#
#
# Indices 1 2 3 4 5 6 
#
# 1 84.9375 60.4675 4.7015 0.0000 0.0000 0.0000
# 2 60.4675 84.9375 4.7015 0.0000 0.0000 0.0000
# 3 4.7015 4.7015 19.3879 0.0000 0.0000 0.0000
# 4 0.0000 0.0000 0.0000 7.0604 0.0000 0.0000
# 5 0.0000 0.0000 0.0000 0.0000 7.0604 0.0000
# 6 0.0000 0.0000 0.0000 0.0000 0.0000 12.2350
#
#
#
# Elastic Compliance Matrix: (Units=1/GPa)
#
#
# Indices 1 2 3 4 5 6 
#
# 1 0.023927 -0.016940 -0.001694 0.000000 0.000000 0.000000
# 2 -0.016940 0.023927 -0.001694 0.000000 0.000000 0.000000
# 3 -0.001694 -0.001694 0.052400 0.000000 0.000000 0.000000
# 4 0.000000 0.000000 0.000000 0.141634 0.000000 0.000000
# 5 0.000000 0.000000 0.000000 0.000000 0.141634 0.000000
# 6 0.000000 0.000000 0.000000 0.000000 0.000000 0.081733
#
#
# Mechanical properties :
#
#
# Convention : Reuss Voigt Hill
#
# Bulk Modulus (GPa) = 16.77939 36.55598 26.66769
# Shear Modulus (GPa) = 9.50974 13.23068 11.37021
#
# Velocity S-wave (km/s) = 2.22649 2.62620 2.43456
# Velocity P-wave (km/s) = 3.91873 5.31525 4.66949
#
# Compressibility (1/GPa) = 0.05959691
#
# Stress axis : x y z
#
# Youngs Moduli (GPa) = 41.79442 41.79442 19.08388
#
# Poissons Ratio (x) = 0.70799 0.03233
# Poissons Ratio (y) = 0.70799 0.03233
# Poissons Ratio (z) = 0.07081 0.07081
#
# Static dielectric constant tensor:
#      x y z
#    x 1.684930 0.000000 0.000000 
#    y 0.000000 1.684930 0.000000 
#    z 0.000000 0.000000 1.724360 
# 
# From -- ./inp_files/5847.got.cif
#   From: 2010.05.17/outbox.cif.g08.bks.cpg/sg179_3_cif.got.tgz:5847.got - 2010.05.20 11:37:33.
