data_PCOD9583824
_publ_section_title
;
Structure prediction by ZEFSAII (Michael W. Deem and Ramdas Pophale) SiO2 
 PCOD9583824
Probable space group: P 62 2 2
;
_chemical_formula_sum "Si O2"
_cell_formula_units_Z 63
_cell_length_a 20.986108
_cell_length_b 20.986108
_cell_length_c 7.122270
_cell_angle_alpha 90.000000
_cell_angle_beta 90.000000
_cell_angle_gamma 120.000000
_cell_volume 2716.519783
_symmetry_space_group_name_H-M "P 62 2 2"
_symmetry_group_IT_number 180
_symmetry_cell_setting 'hexagonal'
loop_
_space_group_symop_operation_xyz
x,y,z
x-y,x,1/3+z
-y,x-y,2/3+z
-x,-y,z
-x+y,-x,1/3+z
y,-x+y,2/3+z
x-y,-y,-z
-x,-x+y,1/3-z
y,x,2/3-z
-y,-x,2/3-z
-x+y,y,-z
x,x-y,1/3-z
loop_
_atom_site_type_symbol
_atom_site_label
_atom_site_fract_x
_atom_site_fract_y
_atom_site_fract_z
Si Si1 0.557475 0.662030 0.276087
Si Si2 0.617609 0.235217 0.500000
Si Si3 0.226071 0.310973 0.841905
Si Si4 0.918231 0.710267 0.706099
Si Si5 0.274088 0.548175 0.500000
Si Si6 0.151844 0.694835 0.309012
Si Si7 0.500000 0.000000 0.000000
O O1 0.643031 0.726103 0.256232
O O2 0.503940 0.692072 0.213157
O O3 0.554618 0.661214 0.503316
O O4 0.524489 0.576742 0.221174
O O5 0.681078 0.276698 0.654151
O O6 0.540910 0.183853 0.597148
O O7 0.255468 0.255468 0.833334
O O8 0.157541 0.286537 0.699748
O O9 0.215977 0.309203 0.069876
O O10 0.289140 0.396445 0.816543
O O11 0.000000 0.779044 0.666667
O O12 0.224549 0.775452 0.333334
#
# Coordination Sequence:
#
# PCOD9583824 Si02
#       7
#    12   6  12  12   6  12   3
#     4  11  23  45  67  93 138 182 234 299 371 421
#     4  12  26  43  71  96 129 182 244 294 357 424
#     4  10  21  40  67  95 136 179 221 284 349 409
#     4  10  20  39  65  97 135 176 224 284 345 426
#     4  12  26  47  72  98 135 187 247 302 363 444
#     4  11  21  47  63  91 138 175 224 296 351 420
#     4  12  24  44  64  98 136 184 232 312 384 430
#
# _framework density 23.191437000000001
#
# number of rings (size 3 to 8) (size 9 to 14) (size 15 to 20)
#    0.000    1.143    6.667    1.143    0.000    4.571 
#    8.571    0.000    0.000    0.000    0.000    8.000 
#    0.000    0.000    0.000    0.000    0.000    0.000 
#
# Total GULP energy -351361.789149 kJ/mol
# GULP energy per Si atom -5577.171256 kJ/mol
# Density = 2.313865 g / cm^3
# Si number density = 23.191437 Si / 1000 Ang^3
#
#
#
# Elastic Constant Matrix: (Units=GPa)
#
#
# Indices 1 2 3 4 5 6 
#
# 1 161.5794 66.3223 12.6934 0.0000 0.0000 0.0000
# 2 66.3223 161.5794 12.6934 0.0000 0.0000 0.0000
# 3 12.6934 12.6934 61.5324 0.0000 0.0000 0.0000
# 4 0.0000 0.0000 0.0000 25.4857 0.0000 0.0000
# 5 0.0000 0.0000 0.0000 0.0000 25.4857 0.0000
# 6 0.0000 0.0000 0.0000 0.0000 0.0000 47.6286
#
#
#
# Elastic Compliance Matrix: (Units=1/GPa)
#
#
# Indices 1 2 3 4 5 6 
#
# 1 0.007494 -0.003003 -0.000926 0.000000 0.000000 0.000000
# 2 -0.003003 0.007494 -0.000926 0.000000 0.000000 0.000000
# 3 -0.000926 -0.000926 0.016634 0.000000 0.000000 0.000000
# 4 0.000000 0.000000 0.000000 0.039238 0.000000 0.000000
# 5 0.000000 0.000000 0.000000 0.000000 0.039238 0.000000
# 6 0.000000 0.000000 0.000000 0.000000 0.000000 0.020996
#
#
# Mechanical properties :
#
#
# Convention : Reuss Voigt Hill
#
# Bulk Modulus (GPa) = 45.64096 63.12324 54.38210
# Shear Modulus (GPa) = 33.75871 39.25215 36.50543
#
# Velocity S-wave (km/s) = 3.81944 4.11850 3.97179
# Velocity P-wave (km/s) = 6.25889 7.06353 6.67335
#
# Compressibility (1/GPa) = 0.02191015
#
# Stress axis : x y z
#
# Youngs Moduli (GPa) = 133.43153 133.43153 60.11846
#
# Poissons Ratio (x) = 0.40075 0.05570
# Poissons Ratio (y) = 0.40075 0.05570
# Poissons Ratio (z) = 0.12362 0.12362
#
# Static dielectric constant tensor:
#      x y z
#    x 1.996730 0.000000 0.000000 
#    y 0.000000 1.996730 0.000000 
#    z 0.000000 0.000000 2.001710 
# 
# From -- ./inp_files/3180.got.cif
#   From: 2010.05.17/outbox.cif.g08.bks.cpg/sg180_2_cif.got.tgz:3180.got - 2010.05.20 11:43:55.
