data_PCOD9583731
_publ_section_title
;
Structure prediction by ZEFSAII (Michael W. Deem and Ramdas Pophale) SiO2 
 PCOD9583731
Probable space group: P 62 2 2
;
_chemical_formula_sum "Si O2"
_cell_formula_units_Z 54
_cell_length_a 16.101487
_cell_length_b 16.101487
_cell_length_c 11.362621
_cell_angle_alpha 90.000000
_cell_angle_beta 90.000000
_cell_angle_gamma 120.000000
_cell_volume 2551.180133
_symmetry_space_group_name_H-M "P 62 2 2"
_symmetry_group_IT_number 180
_symmetry_cell_setting 'hexagonal'
loop_
_space_group_symop_operation_xyz
x,y,z
x-y,x,1/3+z
-y,x-y,2/3+z
-x,-y,z
-x+y,-x,1/3+z
y,-x+y,2/3+z
x-y,-y,-z
-x,-x+y,1/3-z
y,x,2/3-z
-y,-x,2/3-z
-x+y,y,-z
x,x-y,1/3-z
loop_
_atom_site_type_symbol
_atom_site_label
_atom_site_fract_x
_atom_site_fract_y
_atom_site_fract_z
Si Si1 0.386021 0.923139 0.231691
Si Si2 0.666617 0.520429 0.343594
Si Si3 0.718848 0.048571 0.618902
Si Si4 0.170916 0.341831 0.500000
Si Si5 0.354713 0.555203 0.713646
O O1 0.321520 0.891387 0.114971
O O2 0.394059 0.836996 0.290877
O O3 0.500000 0.000000 0.216073
O O4 0.336920 0.963887 0.316865
O O5 0.554599 0.445402 0.333334
O O6 0.720421 0.594203 0.447905
O O7 0.717650 0.457584 0.344848
O O8 0.805905 0.104968 0.714749
O O9 0.677774 0.121305 0.591218
O O10 0.730654 0.000000 0.500000
O O11 0.386208 0.613793 0.833334
#
# Coordination Sequence:
#
# PCOD9583731 Si02
#       5
#    12  12  12   6  12
#     4  10  21  34  56  74  97 150 199 243 315 388
#     4  11  22  34  47  72 108 143 187 256 327 369
#     4  10  19  38  56  73 100 138 188 246 316 383
#     4  10  24  38  50  76 104 134 189 260 309 380
#     4  10  20  31  50  75 103 139 191 248 312 382
#
# _framework density 21.166675000000001
#
# number of rings (size 3 to 8) (size 9 to 14) (size 15 to 20)
#    0.000    1.778    2.222    4.000    4.667    3.111 
#    0.000    0.000    0.000    0.000    0.000    0.000 
#    0.000    0.000    0.000    0.000    0.000    0.000 
#
# Total GULP energy -300883.315982 kJ/mol
# GULP energy per Si atom -5571.913259 kJ/mol
# Density = 2.111850 g / cm^3
# Si number density = 21.166675 Si / 1000 Ang^3
#
#
#
# Elastic Constant Matrix: (Units=GPa)
#
#
# Indices 1 2 3 4 5 6 
#
# 1 41.0857 16.1788 28.2079 0.0000 0.0000 0.0000
# 2 16.1788 41.0857 28.2079 0.0000 0.0000 0.0000
# 3 28.2079 28.2079 132.5650 0.0000 0.0000 0.0000
# 4 0.0000 0.0000 0.0000 31.7616 0.0000 0.0000
# 5 0.0000 0.0000 0.0000 0.0000 31.7616 0.0000
# 6 0.0000 0.0000 0.0000 0.0000 0.0000 12.4535
#
#
#
# Elastic Compliance Matrix: (Units=1/GPa)
#
#
# Indices 1 2 3 4 5 6 
#
# 1 0.031122 -0.009027 -0.004701 0.000000 0.000000 0.000000
# 2 -0.009027 0.031122 -0.004701 0.000000 0.000000 0.000000
# 3 -0.004701 -0.004701 0.009544 0.000000 0.000000 0.000000
# 4 0.000000 0.000000 0.000000 0.031485 0.000000 0.000000
# 5 0.000000 0.000000 0.000000 0.000000 0.031485 0.000000
# 6 0.000000 0.000000 0.000000 0.000000 0.000000 0.080299
#
#
# Mechanical properties :
#
#
# Convention : Reuss Voigt Hill
#
# Bulk Modulus (GPa) = 28.63053 39.99173 34.31113
# Shear Modulus (GPa) = 18.97105 24.67145 21.82125
#
# Velocity S-wave (km/s) = 2.99702 3.41776 3.21429
# Velocity P-wave (km/s) = 5.05290 5.87448 5.47911
#
# Compressibility (1/GPa) = 0.03492775
#
# Stress axis : x y z
#
# Youngs Moduli (GPa) = 32.13161 32.13161 104.77515
#
# Poissons Ratio (x) = 0.29007 0.49259
# Poissons Ratio (y) = 0.29007 0.49259
# Poissons Ratio (z) = 0.15106 0.15106
#
# Static dielectric constant tensor:
#      x y z
#    x 2.022180 0.000000 0.000000 
#    y 0.000000 2.022180 0.000000 
#    z 0.000000 0.000000 1.924430 
# 
# From -- ./inp_files/4720.got.cif
#   From: 2010.05.17/outbox.cif.g08.bks.cpg/sg180_3_cif.got.tgz:4720.got - 2010.05.20 11:43:55.
