data_PCOD9583944
_publ_section_title
;
Structure prediction by ZEFSAII (Michael W. Deem and Ramdas Pophale) SiO2 
 PCOD9583944
Probable space group: P 62 2 2
;
_chemical_formula_sum "Si O2"
_cell_formula_units_Z 60
_cell_length_a 11.675872
_cell_length_b 11.675872
_cell_length_c 23.474668
_cell_angle_alpha 90.000000
_cell_angle_beta 90.000000
_cell_angle_gamma 120.000000
_cell_volume 2771.460805
_symmetry_space_group_name_H-M "P 62 2 2"
_symmetry_group_IT_number 180
_symmetry_cell_setting 'hexagonal'
loop_
_space_group_symop_operation_xyz
x,y,z
x-y,x,1/3+z
-y,x-y,2/3+z
-x,-y,z
-x+y,-x,1/3+z
y,-x+y,2/3+z
x-y,-y,-z
-x,-x+y,1/3-z
y,x,2/3-z
-y,-x,2/3-z
-x+y,y,-z
x,x-y,1/3-z
loop_
_atom_site_type_symbol
_atom_site_label
_atom_site_fract_x
_atom_site_fract_y
_atom_site_fract_z
Si Si1 0.620665 0.470405 0.393982
Si Si2 0.247261 0.736157 0.509966
Si Si3 0.806874 0.648999 0.060549
Si Si4 0.237940 0.103520 0.053126
Si Si5 0.156548 0.235464 0.775585
O O1 0.500000 0.500000 0.396249
O O2 0.603671 0.396330 0.333334
O O3 0.608327 0.392692 0.452535
O O4 0.753182 0.610640 0.390960
O O5 0.404410 0.808819 0.500000
O O6 0.184532 0.738102 0.448279
O O7 0.196478 0.809406 0.552053
O O8 0.767515 0.763017 0.056705
O O9 0.966194 0.741286 0.066911
O O10 0.788530 0.577059 0.000000
O O11 0.148406 0.999610 0.101026
O O12 0.171665 0.000000 0.000000
O O13 0.192778 0.192778 0.833334
#
# Coordination Sequence:
#
# PCOD9583944 Si02
#       5
#    12  12  12  12  12
#     4  11  22  43  72 102 145 193 245 291 368 452
#     4  11  26  47  70  96 145 203 255 304 363 451
#     4  11  25  41  72 112 143 184 242 313 386 454
#     4  12  21  40  72 107 149 184 232 312 382 450
#     4  10  22  40  65 100 139 186 235 291 380 439
#
# _framework density 21.649232000000001
#
# number of rings (size 3 to 8) (size 9 to 14) (size 15 to 20)
#    0.000    1.000    6.000    0.600    0.000   11.600 
#    0.000    0.000    8.800    0.000    0.000    0.000 
#    0.000    0.000    0.000    0.000    0.000    0.000 
#
# Total GULP energy -334497.834290 kJ/mol
# GULP energy per Si atom -5574.963905 kJ/mol
# Density = 2.159996 g / cm^3
# Si number density = 21.649232 Si / 1000 Ang^3
#
#
#
# Elastic Constant Matrix: (Units=GPa)
#
#
# Indices 1 2 3 4 5 6 
#
# 1 21.9400 53.8719 35.5534 0.0000 0.0000 0.0000
# 2 53.8719 21.9400 35.5534 0.0000 0.0000 0.0000
# 3 35.5534 35.5534 104.6609 0.0000 0.0000 0.0000
# 4 0.0000 0.0000 0.0000 27.9061 0.0000 0.0000
# 5 0.0000 0.0000 0.0000 0.0000 27.9061 0.0000
# 6 0.0000 0.0000 0.0000 0.0000 0.0000 -15.9659
#
#
#
# Elastic Compliance Matrix: (Units=1/GPa)
#
#
# Indices 1 2 3 4 5 6 
#
# 1 -0.005979 0.025338 -0.006576 0.000000 0.000000 0.000000
# 2 0.025338 -0.005979 -0.006576 0.000000 0.000000 0.000000
# 3 -0.006576 -0.006576 0.014022 0.000000 0.000000 0.000000
# 4 0.000000 0.000000 0.000000 0.035834 0.000000 0.000000
# 5 0.000000 0.000000 0.000000 0.000000 0.035834 0.000000
# 6 0.000000 0.000000 0.000000 0.000000 0.000000 -0.062633
#
#
# Mechanical properties :
#
#
# Convention : Reuss Voigt Hill
#
# Bulk Modulus (GPa) = 37.82850 44.27758 41.05304
# Shear Modulus (GPa) = -1121.26663 9.54008 -555.86328
#
# Velocity S-wave (km/s) = -22.78264 2.10148 -16.04108
# Velocity P-wave (km/s) = 25.97217 5.13663 18.00234
#
# Compressibility (1/GPa) = 0.02643510
#
# Stress axis : x y z
#
# Youngs Moduli (GPa) = -167.24981 -167.24981 71.31400
#
# Poissons Ratio (x) = 4.23771 0.46897
# Poissons Ratio (y) = 4.23771 0.46897
# Poissons Ratio (z) = -1.09985 -1.09985
#
# Static dielectric constant tensor:
#      x y z
#    x 1.830880 0.000000 0.000000 
#    y 0.000000 1.830880 0.000000 
#    z 0.000000 0.000000 2.091210 
# 
# From -- ./inp_files/11224.got.cif
#   From: 2010.05.17/outbox.cif.g08.bks.cpg/sg180_6_cif.got.tgz:11224.got - 2010.05.20 11:43:55.
