data_PCOD9583429
_publ_section_title
;
Structure prediction by ZEFSAII (Michael W. Deem and Ramdas Pophale) SiO2 
 PCOD9583429
Probable space group: P 65 2 2
;
_chemical_formula_sum "Si O2"
_cell_formula_units_Z 42
_cell_length_a 13.713578
_cell_length_b 13.713578
_cell_length_c 13.092556
_cell_angle_alpha 90.000000
_cell_angle_beta 90.000000
_cell_angle_gamma 120.000000
_cell_volume 2132.340884
_symmetry_space_group_name_H-M "P 65 2 2"
_symmetry_group_IT_number 179
_symmetry_cell_setting 'hexagonal'
loop_
_space_group_symop_operation_xyz
x,y,z
x-y,x,5/6+z
-y,x-y,2/3+z
-x,-y,1/2+z
-x+y,-x,1/3+z
y,-x+y,1/6+z
x-y,-y,-z
-x,-x+y,1/3-z
y,x,2/3-z
-y,-x,1/6-z
-x+y,y,1/2-z
x,x-y,5/6-z
loop_
_atom_site_type_symbol
_atom_site_label
_atom_site_fract_x
_atom_site_fract_y
_atom_site_fract_z
Si Si1 0.287657 0.712344 0.583334
Si Si2 0.800584 0.900292 0.916667
Si Si3 0.269093 0.730908 0.083334
Si Si4 0.670351 0.607470 0.647238
Si Si5 0.573739 0.547272 0.215239
O O1 0.261785 0.613960 0.661291
O O2 0.179828 0.684622 0.517374
O O3 0.871940 0.871940 0.833334
O O4 0.718530 0.938971 0.858434
O O5 0.148788 0.679529 0.032100
O O6 0.544091 0.568241 0.690282
O O7 0.648814 0.595041 0.526185
O O8 0.571888 0.571888 0.333334
#
# Coordination Sequence:
#
# PCOD9583429 Si02
#       5
#     6   6   6  12  12
#     4  11  22  38  65  98 129 186 233 272 322 414
#     4  11  26  48  77  98 125 180 237 292 338 402
#     4  12  24  36  66  98 144 180 224 270 338 408
#     4  10  23  43  68  95 141 178 227 271 340 405
#     4  11  22  41  62 104 144 181 220 278 339 406
#
# _framework density 19.696664999999999
#
# number of rings (size 3 to 8) (size 9 to 14) (size 15 to 20)
#    0.000    1.143    2.857    4.286    4.000    2.286 
#    0.000    2.857    0.000    0.000    0.000    0.000 
#    0.000    0.000    0.000    0.000    0.000    0.000 
#
# Total GULP energy -234302.364080 kJ/mol
# GULP energy per Si atom -5578.627716 kJ/mol
# Density = 1.965183 g / cm^3
# Si number density = 19.696665 Si / 1000 Ang^3
#
#
#
# Elastic Constant Matrix: (Units=GPa)
#
#
# Indices 1 2 3 4 5 6 
#
# 1 100.5143 38.6105 49.0586 0.0000 0.0000 0.0000
# 2 38.6105 100.5143 49.0586 0.0000 0.0000 0.0000
# 3 49.0586 49.0586 165.5888 0.0000 0.0000 0.0000
# 4 0.0000 0.0000 0.0000 40.9295 0.0000 0.0000
# 5 0.0000 0.0000 0.0000 0.0000 40.9295 0.0000
# 6 0.0000 0.0000 0.0000 0.0000 0.0000 30.9519
#
#
#
# Elastic Compliance Matrix: (Units=1/GPa)
#
#
# Indices 1 2 3 4 5 6 
#
# 1 0.012620 -0.003534 -0.002692 0.000000 0.000000 0.000000
# 2 -0.003534 0.012620 -0.002692 0.000000 0.000000 0.000000
# 3 -0.002692 -0.002692 0.007634 0.000000 0.000000 0.000000
# 4 0.000000 0.000000 0.000000 0.024432 0.000000 0.000000
# 5 0.000000 0.000000 0.000000 0.000000 0.024432 0.000000
# 6 0.000000 0.000000 0.000000 0.000000 0.000000 0.032308
#
#
# Mechanical properties :
#
#
# Convention : Reuss Voigt Hill
#
# Bulk Modulus (GPa) = 66.49450 71.11919 68.80685
# Shear Modulus (GPa) = 36.52413 37.88818 37.20615
#
# Velocity S-wave (km/s) = 4.31087 4.39063 4.35093
# Velocity P-wave (km/s) = 7.65576 7.86696 7.76208
#
# Compressibility (1/GPa) = 0.01503884
#
# Stress axis : x y z
#
# Youngs Moduli (GPa) = 79.23811 79.23811 130.99044
#
# Poissons Ratio (x) = 0.28002 0.35262
# Poissons Ratio (y) = 0.28002 0.35262
# Poissons Ratio (z) = 0.21331 0.21331
#
# Static dielectric constant tensor:
#      x y z
#    x 1.723410 0.000000 0.000000 
#    y 0.000000 1.723410 0.000000 
#    z 0.000000 0.000000 1.717130 
# 
# From -- ./inp_files/4190.got.cif
#   From: 2010.05.17/outbox.cif.g08.bks.cpg/sg179_3_cif.got.tgz:4190.got - 2010.05.20 11:37:33.
