data_PCOD9583513
_publ_section_title
;
Structure prediction by ZEFSAII (Michael W. Deem and Ramdas Pophale) SiO2 
 PCOD9583513
Probable space group: P 65 2 2
;
_chemical_formula_sum "Si O2"
_cell_formula_units_Z 60
_cell_length_a 14.302103
_cell_length_b 14.302103
_cell_length_c 14.754854
_cell_angle_alpha 90.000000
_cell_angle_beta 90.000000
_cell_angle_gamma 120.000000
_cell_volume 2613.757855
_symmetry_space_group_name_H-M "P 65 2 2"
_symmetry_group_IT_number 179
_symmetry_cell_setting 'hexagonal'
loop_
_space_group_symop_operation_xyz
x,y,z
x-y,x,5/6+z
-y,x-y,2/3+z
-x,-y,1/2+z
-x+y,-x,1/3+z
y,-x+y,1/6+z
x-y,-y,-z
-x,-x+y,1/3-z
y,x,2/3-z
-y,-x,1/6-z
-x+y,y,1/2-z
x,x-y,5/6-z
loop_
_atom_site_type_symbol
_atom_site_label
_atom_site_fract_x
_atom_site_fract_y
_atom_site_fract_z
Si Si1 0.621530 0.835932 0.153261
Si Si2 0.445885 0.987370 0.392334
Si Si3 0.782757 0.323084 0.989094
Si Si4 0.218492 0.990671 0.101317
Si Si5 0.163870 0.464166 0.832481
O O1 0.626957 0.948833 0.131878
O O2 0.566053 0.765128 0.064189
O O3 0.730563 0.837757 0.185044
O O4 0.535746 0.785805 0.237084
O O5 0.471202 0.898410 0.351594
O O6 0.463485 0.000000 0.500000
O O7 0.523729 0.101193 0.347626
O O8 0.727719 0.363860 0.916667
O O9 0.721878 0.278123 0.083334
O O10 0.089682 0.910319 0.083334
O O11 0.262408 0.925331 0.157338
O O12 0.264340 0.000000 0.000000
O O13 0.243627 0.487254 0.750000
#
# Coordination Sequence:
#
# PCOD9583513 Si02
#       5
#    12  12  12  12  12
#     4  12  24  44  72 106 146 200 248 316 393 465
#     4  12  26  48  72 110 156 210 255 304 404 477
#     4  12  28  49  70 104 152 205 255 319 386 474
#     4  11  21  41  71 109 144 188 252 326 394 454
#     4  11  24  43  74 113 148 194 257 323 379 465
#
# _framework density 22.955455000000001
#
# number of rings (size 3 to 8) (size 9 to 14) (size 15 to 20)
#    0.000    0.400    6.000    4.800    2.800    2.400 
#    0.000    0.000    0.000    2.400    0.000    0.000 
#    0.000    0.000    0.000    0.000    0.000    0.000 
#
# Total GULP energy -335587.350241 kJ/mol
# GULP energy per Si atom -5593.122504 kJ/mol
# Density = 2.290321 g / cm^3
# Si number density = 22.955455 Si / 1000 Ang^3
#
#
#
# Elastic Constant Matrix: (Units=GPa)
#
#
# Indices 1 2 3 4 5 6 
#
# 1 112.4697 51.9584 39.2687 0.0000 0.0000 0.0000
# 2 51.9584 112.4697 39.2687 0.0000 0.0000 0.0000
# 3 39.2687 39.2687 180.3914 0.0000 0.0000 0.0000
# 4 0.0000 0.0000 0.0000 35.5350 0.0000 0.0000
# 5 0.0000 0.0000 0.0000 0.0000 35.5350 0.0000
# 6 0.0000 0.0000 0.0000 0.0000 0.0000 30.2556
#
#
#
# Elastic Compliance Matrix: (Units=1/GPa)
#
#
# Indices 1 2 3 4 5 6 
#
# 1 0.011657 -0.004869 -0.001478 0.000000 0.000000 0.000000
# 2 -0.004869 0.011657 -0.001478 0.000000 0.000000 0.000000
# 3 -0.001478 -0.001478 0.006187 0.000000 0.000000 0.000000
# 4 0.000000 0.000000 0.000000 0.028141 0.000000 0.000000
# 5 0.000000 0.000000 0.000000 0.000000 0.028141 0.000000
# 6 0.000000 0.000000 0.000000 0.000000 0.000000 0.033052
#
#
# Mechanical properties :
#
#
# Convention : Reuss Voigt Hill
#
# Bulk Modulus (GPa) = 72.19439 74.03584 73.11512
# Shear Modulus (GPa) = 35.94539 38.58747 37.26643
#
# Velocity S-wave (km/s) = 3.96141 4.10441 4.03354
# Velocity P-wave (km/s) = 7.24167 7.40159 7.32207
#
# Compressibility (1/GPa) = 0.01385149
#
# Stress axis : x y z
#
# Youngs Moduli (GPa) = 85.78811 85.78811 161.63512
#
# Poissons Ratio (x) = 0.41772 0.23882
# Poissons Ratio (y) = 0.41772 0.23882
# Poissons Ratio (z) = 0.12675 0.12675
#
# Static dielectric constant tensor:
#      x y z
#    x 1.886960 0.000000 0.000000 
#    y 0.000000 1.886960 0.000000 
#    z 0.000000 0.000000 1.927390 
# 
# From -- ./inp_files/5795.got.cif
#   From: 2010.05.17/outbox.cif.g08.bks.cpg/sg179_3_cif.got.tgz:5795.got - 2010.05.20 11:37:33.
