data_PCOD9583822
_publ_section_title
;
Structure prediction by ZEFSAII (Michael W. Deem and Ramdas Pophale) SiO2 
 PCOD9583822
Probable space group: P 62 2 2
;
_chemical_formula_sum "Si O2"
_cell_formula_units_Z 75
_cell_length_a 14.135680
_cell_length_b 14.135680
_cell_length_c 22.150907
_cell_angle_alpha 90.000000
_cell_angle_beta 90.000000
_cell_angle_gamma 120.000000
_cell_volume 3833.147716
_symmetry_space_group_name_H-M "P 62 2 2"
_symmetry_group_IT_number 180
_symmetry_cell_setting 'hexagonal'
loop_
_space_group_symop_operation_xyz
x,y,z
x-y,x,1/3+z
-y,x-y,2/3+z
-x,-y,z
-x+y,-x,1/3+z
y,-x+y,2/3+z
x-y,-y,-z
-x,-x+y,1/3-z
y,x,2/3-z
-y,-x,2/3-z
-x+y,y,-z
x,x-y,1/3-z
loop_
_atom_site_type_symbol
_atom_site_label
_atom_site_fract_x
_atom_site_fract_y
_atom_site_fract_z
Si Si1 0.260316 0.568030 0.431379
Si Si2 0.787553 0.941936 0.408334
Si Si3 0.000000 0.000000 0.666667
Si Si4 0.555409 0.864481 0.715181
Si Si5 0.688473 0.843698 0.815013
Si Si6 0.417108 0.103322 0.333238
Si Si7 0.317531 0.785137 0.553001
O O1 0.266018 0.532036 0.500000
O O2 0.193516 0.632968 0.417346
O O3 0.195043 0.468731 0.385562
O O4 0.273639 0.661424 0.576830
O O5 0.898039 0.975754 0.374656
O O6 0.770393 0.861275 0.464135
O O7 0.689530 0.899126 0.360769
O O8 0.789160 0.044974 0.441792
O O9 0.553907 0.776954 0.666667
O O10 0.648693 0.896271 0.765446
O O11 0.595826 0.981599 0.685522
O O12 0.580380 0.763852 0.853273
O O13 0.503978 0.141606 0.387889
O O14 0.401349 0.802698 0.500000
#
# Coordination Sequence:
#
# PCOD9583822 Si02
#       7
#    12  12   3  12  12  12  12
#     4  11  23  39  57  91 134 185 222 262 329 399
#     4  10  23  41  67  96 126 168 216 284 340 413
#     4  12  24  50  72  96 128 164 220 276 368 412
#     4  12  21  37  63  94 136 175 223 283 340 387
#     4  10  20  39  64  97 133 167 220 274 345 400
#     4  11  23  38  63  97 127 172 226 279 332 401
#     4  10  20  39  64  95 137 178 216 274 345 407
#
# _framework density 19.566165000000002
#
# number of rings (size 3 to 8) (size 9 to 14) (size 15 to 20)
#    0.000    1.280    4.800    2.880    0.000    2.560 
#    2.880    9.600    0.000    0.000    0.000    1.120 
#    0.000    0.000    0.000    0.000    0.000    0.000 
#
# Total GULP energy -417720.421899 kJ/mol
# GULP energy per Si atom -5569.605625 kJ/mol
# Density = 1.952163 g / cm^3
# Si number density = 19.566165 Si / 1000 Ang^3
#
#
#
# Elastic Constant Matrix: (Units=GPa)
#
#
# Indices 1 2 3 4 5 6 
#
# 1 76.0313 48.8420 71.8644 0.0000 0.0000 0.0000
# 2 48.8420 76.0313 71.8644 0.0000 0.0000 0.0000
# 3 71.8644 71.8644 169.8509 0.0000 0.0000 0.0000
# 4 0.0000 0.0000 0.0000 27.6634 0.0000 0.0000
# 5 0.0000 0.0000 0.0000 0.0000 27.6634 0.0000
# 6 0.0000 0.0000 0.0000 0.0000 0.0000 13.5946
#
#
#
# Elastic Compliance Matrix: (Units=1/GPa)
#
#
# Indices 1 2 3 4 5 6 
#
# 1 0.026195 -0.010585 -0.006605 0.000000 0.000000 0.000000
# 2 -0.010585 0.026195 -0.006605 0.000000 0.000000 0.000000
# 3 -0.006605 -0.006605 0.011476 0.000000 0.000000 0.000000
# 4 0.000000 0.000000 0.000000 0.036149 0.000000 0.000000
# 5 0.000000 0.000000 0.000000 0.000000 0.036149 0.000000
# 6 0.000000 0.000000 0.000000 0.000000 0.000000 0.073558
#
#
# Mechanical properties :
#
#
# Convention : Reuss Voigt Hill
#
# Bulk Modulus (GPa) = 61.43298 78.56167 69.99733
# Shear Modulus (GPa) = 19.03054 22.40712 20.71883
#
# Velocity S-wave (km/s) = 3.12208 3.38775 3.25762
# Velocity P-wave (km/s) = 6.66800 7.45261 7.07120
#
# Compressibility (1/GPa) = 0.01627790
#
# Stress axis : x y z
#
# Youngs Moduli (GPa) = 38.17576 38.17576 87.13511
#
# Poissons Ratio (x) = 0.40407 0.57550
# Poissons Ratio (y) = 0.40407 0.57550
# Poissons Ratio (z) = 0.25214 0.25214
#
# Static dielectric constant tensor:
#      x y z
#    x 1.582940 0.000000 0.000000 
#    y 0.000000 1.582940 0.000000 
#    z 0.000000 0.000000 1.491570 
# 
# From -- ./inp_files/9184.got.cif
#   From: 2010.05.17/outbox.cif.g08.bks.cpg/sg180_5_cif.got.tgz:9184.got - 2010.05.20 11:43:55.
