data_PCOD9583277
_publ_section_title
;
Structure prediction by ZEFSAII (Michael W. Deem and Ramdas Pophale) SiO2 
 PCOD9583277
Probable space group: P 65 2 2
;
_chemical_formula_sum "Si O2"
_cell_formula_units_Z 42
_cell_length_a 11.402772
_cell_length_b 11.402772
_cell_length_c 15.955588
_cell_angle_alpha 90.000000
_cell_angle_beta 90.000000
_cell_angle_gamma 120.000000
_cell_volume 1796.653495
_symmetry_space_group_name_H-M "P 65 2 2"
_symmetry_group_IT_number 179
_symmetry_cell_setting 'hexagonal'
loop_
_space_group_symop_operation_xyz
x,y,z
x-y,x,5/6+z
-y,x-y,2/3+z
-x,-y,1/2+z
-x+y,-x,1/3+z
y,-x+y,1/6+z
x-y,-y,-z
-x,-x+y,1/3-z
y,x,2/3-z
-y,-x,1/6-z
-x+y,y,1/2-z
x,x-y,5/6-z
loop_
_atom_site_type_symbol
_atom_site_label
_atom_site_fract_x
_atom_site_fract_y
_atom_site_fract_z
Si Si1 0.410093 0.000152 0.672687
Si Si2 0.713277 0.286724 0.083334
Si Si3 0.866553 0.860357 0.630308
Si Si4 0.509386 0.646505 0.377109
O O1 0.502177 0.004353 0.750000
O O2 0.333917 0.849556 0.634636
O O3 0.286544 0.024160 0.694421
O O4 0.516611 0.097784 0.602832
O O5 0.750444 0.408373 0.145829
O O6 0.873261 0.972142 0.697506
O O7 0.000000 0.854199 0.666667
O O8 0.612226 0.612226 0.333334
O O9 0.586097 0.793049 0.416667
#
# Coordination Sequence:
#
# PCOD9583277 Si02
#       4
#    12   6  12  12
#     4  11  23  41  72 113 150 200 252 321 393 472
#     4  10  20  38  66 100 148 192 252 300 376 458
#     4  10  21  41  75 110 150 203 265 328 392 474
#     4  10  23  43  71 106 152 201 252 318 385 475
#
# _framework density 23.376795000000001
#
# number of rings (size 3 to 8) (size 9 to 14) (size 15 to 20)
#    0.000    1.714    0.000    4.286    2.000    6.857 
#    5.143    0.000   12.571    0.000    0.000    0.000 
#    0.000    0.000    0.000    0.000    0.000    0.000 
#
# Total GULP energy -234182.131247 kJ/mol
# GULP energy per Si atom -5575.765030 kJ/mol
# Density = 2.332359 g / cm^3
# Si number density = 23.376795 Si / 1000 Ang^3
#
#
#
# Elastic Constant Matrix: (Units=GPa)
#
#
# Indices 1 2 3 4 5 6 
#
# 1 108.8375 89.6056 70.9475 0.0000 0.0000 0.0000
# 2 89.6056 108.8375 70.9475 0.0000 0.0000 0.0000
# 3 70.9475 70.9475 122.0136 0.0000 0.0000 0.0000
# 4 0.0000 0.0000 0.0000 -48.7267 0.0000 0.0000
# 5 0.0000 0.0000 0.0000 0.0000 -48.7267 0.0000
# 6 0.0000 0.0000 0.0000 0.0000 0.0000 9.6160
#
#
#
# Elastic Compliance Matrix: (Units=1/GPa)
#
#
# Indices 1 2 3 4 5 6 
#
# 1 0.030311 -0.021686 -0.005015 0.000000 0.000000 0.000000
# 2 -0.021686 0.030311 -0.005015 0.000000 0.000000 0.000000
# 3 -0.005015 -0.005015 0.014029 0.000000 0.000000 0.000000
# 4 0.000000 0.000000 0.000000 -0.020523 0.000000 0.000000
# 5 0.000000 0.000000 0.000000 0.000000 -0.020523 0.000000
# 6 0.000000 0.000000 0.000000 0.000000 0.000000 0.103994
#
#
# Mechanical properties :
#
#
# Convention : Reuss Voigt Hill
#
# Bulk Modulus (GPa) = 89.14565 89.18774 89.16669
# Shear Modulus (GPa) = 24.41742 -10.35493 7.03124
#
# Velocity S-wave (km/s) = 3.23540 -2.10694 1.73618
# Velocity P-wave (km/s) = 7.22317 5.68473 6.49963
#
# Compressibility (1/GPa) = 0.01121760
#
# Stress axis : x y z
#
# Youngs Moduli (GPa) = 32.99112 32.99112 71.28331
#
# Poissons Ratio (x) = 0.71543 0.35752
# Poissons Ratio (y) = 0.71543 0.35752
# Poissons Ratio (z) = 0.16547 0.16547
#
# Static dielectric constant tensor:
#      x y z
#    x 1.870910 0.000000 0.000000 
#    y 0.000000 1.870910 0.000000 
#    z 0.000000 0.000000 2.057950 
# 
# From -- ./inp_files/6449.got.cif
#   From: 2010.05.17/outbox.cif.g08.bks.cpg/sg179_4_cif.got.tgz:6449.got - 2010.05.20 11:37:33.
