data_PCOD9583811
_publ_section_title
;
Structure prediction by ZEFSAII (Michael W. Deem and Ramdas Pophale) SiO2 
 PCOD9583811
Probable space group: P 62 2 2
;
_chemical_formula_sum "Si O2"
_cell_formula_units_Z 60
_cell_length_a 20.543914
_cell_length_b 20.543914
_cell_length_c 9.158889
_cell_angle_alpha 90.000000
_cell_angle_beta 90.000000
_cell_angle_gamma 120.000000
_cell_volume 3347.648137
_symmetry_space_group_name_H-M "P 62 2 2"
_symmetry_group_IT_number 180
_symmetry_cell_setting 'hexagonal'
loop_
_space_group_symop_operation_xyz
x,y,z
x-y,x,1/3+z
-y,x-y,2/3+z
-x,-y,z
-x+y,-x,1/3+z
y,-x+y,2/3+z
x-y,-y,-z
-x,-x+y,1/3-z
y,x,2/3-z
-y,-x,2/3-z
-x+y,y,-z
x,x-y,1/3-z
loop_
_atom_site_type_symbol
_atom_site_label
_atom_site_fract_x
_atom_site_fract_y
_atom_site_fract_z
Si Si1 0.505175 0.880528 0.055969
Si Si2 0.625724 0.495586 0.721875
Si Si3 0.678766 0.000000 0.000000
Si Si4 0.356117 0.356117 0.833334
Si Si5 0.506780 0.772620 0.821110
Si Si6 0.231167 0.903593 0.267800
O O1 0.475718 0.856363 0.219693
O O2 0.595947 0.934243 0.054787
O O3 0.460333 0.920666 0.000000
O O4 0.481081 0.810889 0.944099
O O5 0.566028 0.433973 0.833334
O O6 0.621385 0.570879 0.736885
O O7 0.708018 0.515414 0.769631
O O8 0.741578 0.039254 0.128477
O O9 0.335749 0.285643 0.732453
O O10 0.466260 0.733130 0.666667
O O11 0.587629 0.841680 0.776262
O O12 0.146222 0.853779 0.333334
#
# Coordination Sequence:
#
# PCOD9583811 Si02
#       6
#    12  12   6   6  12  12
#     4  11  23  36  57  83 119 154 216 269 315 381
#     4  12  24  37  58  87 118 158 218 265 316 383
#     4  10  21  34  60  86 114 164 203 250 330 378
#     4  12  21  38  60  92 112 160 205 244 324 366
#     4  10  20  40  58  78 117 157 196 265 330 372
#     4  10  20  38  61  86 124 153 200 253 313 388
#
# _framework density 17.923029
#
# number of rings (size 3 to 8) (size 9 to 14) (size 15 to 20)
#    0.000    1.200    6.000    2.400    2.800    1.600 
#    0.000    4.000    0.000    0.000    0.000    0.000 
#    0.000    0.000    0.000    4.500    0.000    0.000 
#
# Total GULP energy -334063.255027 kJ/mol
# GULP energy per Si atom -5567.720917 kJ/mol
# Density = 1.788224 g / cm^3
# Si number density = 17.923029 Si / 1000 Ang^3
#
#
#
# Elastic Constant Matrix: (Units=GPa)
#
#
# Indices 1 2 3 4 5 6 
#
# 1 59.1027 49.8547 44.8435 0.0000 0.0000 0.0000
# 2 49.8547 59.1027 44.8435 0.0000 0.0000 0.0000
# 3 44.8435 44.8435 165.1609 0.0000 0.0000 0.0000
# 4 0.0000 0.0000 0.0000 69.3619 0.0000 0.0000
# 5 0.0000 0.0000 0.0000 0.0000 69.3619 0.0000
# 6 0.0000 0.0000 0.0000 0.0000 0.0000 4.6240
#
#
#
# Elastic Compliance Matrix: (Units=1/GPa)
#
#
# Indices 1 2 3 4 5 6 
#
# 1 0.059976 -0.048156 -0.003209 0.000000 0.000000 0.000000
# 2 -0.048156 0.059976 -0.003209 0.000000 0.000000 0.000000
# 3 -0.003209 -0.003209 0.007797 0.000000 0.000000 0.000000
# 4 0.000000 0.000000 0.000000 0.014417 0.000000 0.000000
# 5 0.000000 0.000000 0.000000 0.000000 0.014417 0.000000
# 6 0.000000 0.000000 0.000000 0.000000 0.000000 0.216264
#
#
# Mechanical properties :
#
#
# Convention : Reuss Voigt Hill
#
# Bulk Modulus (GPa) = 53.76432 62.49443 58.12938
# Shear Modulus (GPa) = 10.24178 38.25785 24.24981
#
# Velocity S-wave (km/s) = 2.39306 4.62515 3.68230
# Velocity P-wave (km/s) = 6.13988 7.96659 7.11213
#
# Compressibility (1/GPa) = 0.01859969
#
# Stress axis : x y z
#
# Youngs Moduli (GPa) = 16.67340 16.67340 128.24845
#
# Poissons Ratio (x) = 0.80293 0.41157
# Poissons Ratio (y) = 0.80293 0.41157
# Poissons Ratio (z) = 0.05351 0.05351
#
# Static dielectric constant tensor:
#      x y z
#    x 1.608330 0.000000 0.000000 
#    y 0.000000 1.608330 0.000000 
#    z 0.000000 0.000000 1.708720 
# 
# From -- ./inp_files/3147.got.cif
#   From: 2010.05.17/outbox.cif.g08.bks.cpg/sg180_2_cif.got.tgz:3147.got - 2010.05.20 11:43:55.
