data_PCOD9583544
_publ_section_title
;
Structure prediction by ZEFSAII (Michael W. Deem and Ramdas Pophale) SiO2 
 PCOD9583544
Probable space group: P 65 2 2
;
_chemical_formula_sum "Si O2"
_cell_formula_units_Z 72
_cell_length_a 15.919956
_cell_length_b 15.919956
_cell_length_c 15.407590
_cell_angle_alpha 90.000000
_cell_angle_beta 90.000000
_cell_angle_gamma 120.000000
_cell_volume 3381.808965
_symmetry_space_group_name_H-M "P 65 2 2"
_symmetry_group_IT_number 179
_symmetry_cell_setting 'hexagonal'
loop_
_space_group_symop_operation_xyz
x,y,z
x-y,x,5/6+z
-y,x-y,2/3+z
-x,-y,1/2+z
-x+y,-x,1/3+z
y,-x+y,1/6+z
x-y,-y,-z
-x,-x+y,1/3-z
y,x,2/3-z
-y,-x,1/6-z
-x+y,y,1/2-z
x,x-y,5/6-z
loop_
_atom_site_type_symbol
_atom_site_label
_atom_site_fract_x
_atom_site_fract_y
_atom_site_fract_z
Si Si1 0.968119 0.572203 0.564444
Si Si2 0.583388 0.968483 0.601539
Si Si3 0.697990 0.783952 0.989330
Si Si4 0.074893 0.946341 0.349368
Si Si5 0.922434 0.720766 0.327669
Si Si6 0.191899 0.805850 0.833591
O O1 0.862168 0.556340 0.535699
O O2 0.000000 0.597079 0.666667
O O3 0.994325 0.490214 0.540020
O O4 0.038752 0.670081 0.515103
O O5 0.555167 0.857924 0.628424
O O6 0.607881 0.000000 0.500000
O O7 0.684647 0.028091 0.649333
O O8 0.666675 0.833338 0.916667
O O9 0.808160 0.812542 0.964630
O O10 0.915866 0.933008 0.061938
O O11 0.134536 0.813203 0.416395
O O12 0.001886 0.834607 0.317338
O O13 0.848456 0.696911 0.250000
O O14 0.867397 0.685170 0.419365
#
# Coordination Sequence:
#
# PCOD9583544 Si02
#       6
#    12  12  12  12  12  12
#     4  11  24  45  77 108 139 188 246 302 368 438
#     4  11  24  45  77 108 139 188 246 302 368 438
#     4  12  25  44  69 100 141 185 240 294 351 424
#     4  12  27  43  65  98 142 192 238 286 343 423
#     4  12  25  44  69 100 141 185 240 294 351 424
#     4  12  25  48  75 103 142 192 238 297 365 438
#
# _framework density 21.290382000000001
#
# number of rings (size 3 to 8) (size 9 to 14) (size 15 to 20)
#    0.000    0.333    3.333    7.000    0.000    4.667 
#    0.000   10.000    7.333    0.000    0.000    0.000 
#    0.000    0.000    0.000    0.000    0.000    0.000 
#
# Total GULP energy -401290.879468 kJ/mol
# GULP energy per Si atom -5573.484437 kJ/mol
# Density = 2.124192 g / cm^3
# Si number density = 21.290382 Si / 1000 Ang^3
#
#
#
# Elastic Constant Matrix: (Units=GPa)
#
#
# Indices 1 2 3 4 5 6 
#
# 1 149.5573 82.0534 64.3351 0.0000 0.0000 0.0000
# 2 82.0534 149.5573 64.3351 0.0000 0.0000 0.0000
# 3 64.3351 64.3351 153.3943 0.0000 0.0000 0.0000
# 4 0.0000 0.0000 0.0000 61.7765 0.0000 0.0000
# 5 0.0000 0.0000 0.0000 0.0000 61.7765 0.0000
# 6 0.0000 0.0000 0.0000 0.0000 0.0000 33.7519
#
#
#
# Elastic Compliance Matrix: (Units=1/GPa)
#
#
# Indices 1 2 3 4 5 6 
#
# 1 0.010222 -0.004592 -0.002361 0.000000 0.000000 0.000000
# 2 -0.004592 0.010222 -0.002361 0.000000 0.000000 0.000000
# 3 -0.002361 -0.002361 0.008500 0.000000 0.000000 0.000000
# 4 0.000000 0.000000 0.000000 0.016187 0.000000 0.000000
# 5 0.000000 0.000000 0.000000 0.000000 0.016187 0.000000
# 6 0.000000 0.000000 0.000000 0.000000 0.000000 0.029628
#
#
# Mechanical properties :
#
#
# Convention : Reuss Voigt Hill
#
# Bulk Modulus (GPa) = 96.95391 97.10626 97.03009
# Shear Modulus (GPa) = 44.24308 47.58000 45.91154
#
# Velocity S-wave (km/s) = 4.56354 4.73251 4.64879
# Velocity P-wave (km/s) = 8.56770 8.69319 8.63068
#
# Compressibility (1/GPa) = 0.01031418
#
# Stress axis : x y z
#
# Youngs Moduli (GPa) = 97.83221 97.83221 117.65316
#
# Poissons Ratio (x) = 0.44928 0.27777
# Poissons Ratio (y) = 0.44928 0.27777
# Poissons Ratio (z) = 0.23098 0.23098
#
# Static dielectric constant tensor:
#      x y z
#    x 1.896610 0.000000 0.000000 
#    y 0.000000 1.896610 0.000000 
#    z 0.000000 0.000000 1.851820 
# 
# From -- ./inp_files/6829.got.cif
#   From: 2010.05.17/outbox.cif.g08.bks.cpg/sg179_4_cif.got.tgz:6829.got - 2010.05.20 11:37:33.
