data_PCOD9583204
_publ_section_title
;
Structure prediction by ZEFSAII (Michael W. Deem and Ramdas Pophale) SiO2 
 PCOD9583204
Probable space group: P 65 2 2
;
_chemical_formula_sum "Si O2"
_cell_formula_units_Z 84
_cell_length_a 20.468009
_cell_length_b 20.468009
_cell_length_c 12.560591
_cell_angle_alpha 90.000000
_cell_angle_beta 90.000000
_cell_angle_gamma 120.000000
_cell_volume 4557.135107
_symmetry_space_group_name_H-M "P 65 2 2"
_symmetry_group_IT_number 179
_symmetry_cell_setting 'hexagonal'
loop_
_space_group_symop_operation_xyz
x,y,z
x-y,x,5/6+z
-y,x-y,2/3+z
-x,-y,1/2+z
-x+y,-x,1/3+z
y,-x+y,1/6+z
x-y,-y,-z
-x,-x+y,1/3-z
y,x,2/3-z
-y,-x,1/6-z
-x+y,y,1/2-z
x,x-y,5/6-z
loop_
_atom_site_type_symbol
_atom_site_label
_atom_site_fract_x
_atom_site_fract_y
_atom_site_fract_z
Si Si1 0.812395 0.566411 0.559085
Si Si2 0.979680 0.326303 0.924158
Si Si3 0.593977 0.531645 0.928190
Si Si4 0.705266 0.787508 0.882871
Si Si5 0.235579 0.874310 0.162943
Si Si6 0.085051 0.617527 0.128883
Si Si7 0.852527 0.358348 0.851183
O O1 0.855813 0.521588 0.589598
O O2 0.857998 0.638578 0.638425
O O3 0.829994 0.604072 0.440443
O O4 0.722554 0.508169 0.559474
O O5 0.920577 0.340177 0.861920
O O6 0.037519 0.308644 0.861443
O O7 0.935263 0.265593 0.014823
O O8 0.030839 0.406395 0.980607
O O9 0.569200 0.569200 0.833334
O O10 0.522094 0.451202 0.947542
O O11 0.755987 0.755987 0.833334
O O12 0.748754 0.874377 0.916667
O O13 0.164593 0.835408 0.083334
O O14 0.303378 0.875813 0.096186
O O15 0.138032 0.620487 0.226369
O O16 0.000000 0.593141 0.166667
O O17 0.859483 0.429742 0.916667
#
# Coordination Sequence:
#
# PCOD9583204 Si02
#       7
#    12  12  12  12  12  12  12
#     4  11  22  38  61  83 121 161 200 265 318 364
#     4  11  21  36  61  89 121 158 198 259 315 370
#     4  10  19  36  57  82 109 149 201 255 316 358
#     4  12  22  38  63  97 127 155 203 260 327 378
#     4  11  22  38  58  84 121 158 200 244 316 384
#     4  11  22  36  57  83 112 153 208 254 298 374
#     4  12  24  36  57  90 120 163 210 256 307 364
#
# _framework density 18.432632999999999
#
# number of rings (size 3 to 8) (size 9 to 14) (size 15 to 20)
#    0.000    0.857    8.571    1.714    0.000    1.714 
#    0.000    0.714    3.143    0.000    0.000    1.000 
#    0.000    0.000    0.000    0.000    0.000    0.000 
#
# Total GULP energy -467760.175881 kJ/mol
# GULP energy per Si atom -5568.573522 kJ/mol
# Density = 1.839068 g / cm^3
# Si number density = 18.432633 Si / 1000 Ang^3
#
#
#
# Elastic Constant Matrix: (Units=GPa)
#
#
# Indices 1 2 3 4 5 6 
#
# 1 74.9375 43.8602 29.5148 0.0000 0.0000 0.0000
# 2 43.8602 74.9375 29.5148 0.0000 0.0000 0.0000
# 3 29.5148 29.5148 81.9599 0.0000 0.0000 0.0000
# 4 0.0000 0.0000 0.0000 12.8304 0.0000 0.0000
# 5 0.0000 0.0000 0.0000 0.0000 12.8304 0.0000
# 6 0.0000 0.0000 0.0000 0.0000 0.0000 15.5387
#
#
#
# Elastic Compliance Matrix: (Units=1/GPa)
#
#
# Indices 1 2 3 4 5 6 
#
# 1 0.021215 -0.010963 -0.003692 0.000000 0.000000 0.000000
# 2 -0.010963 0.021215 -0.003692 0.000000 0.000000 0.000000
# 3 -0.003692 -0.003692 0.014860 0.000000 0.000000 0.000000
# 4 0.000000 0.000000 0.000000 0.077940 0.000000 0.000000
# 5 0.000000 0.000000 0.000000 0.000000 0.077940 0.000000
# 6 0.000000 0.000000 0.000000 0.000000 0.000000 0.064356
#
#
# Mechanical properties :
#
#
# Convention : Reuss Voigt Hill
#
# Bulk Modulus (GPa) = 48.55145 48.62383 48.58764
# Shear Modulus (GPa) = 15.57222 16.83623 16.20422
#
# Velocity S-wave (km/s) = 2.90973 3.02552 2.96819
# Velocity P-wave (km/s) = 6.13888 6.21623 6.17767
#
# Compressibility (1/GPa) = 0.02059671
#
# Stress axis : x y z
#
# Youngs Moduli (GPa) = 47.13652 47.13652 67.29429
#
# Poissons Ratio (x) = 0.51675 0.24845
# Poissons Ratio (y) = 0.51675 0.24845
# Poissons Ratio (z) = 0.17402 0.17402
#
# Static dielectric constant tensor:
#      x y z
#    x 1.692030 0.000000 0.000000 
#    y 0.000000 1.692030 0.000000 
#    z 0.000000 0.000000 1.749420 
# 
# From -- ./inp_files/4939.got.cif
#   From: 2010.05.17/outbox.cif.g08.bks.cpg/sg179_3_cif.got.tgz:4939.got - 2010.05.20 11:37:33.
