data_PCOD9583537
_publ_section_title
;
Structure prediction by ZEFSAII (Michael W. Deem and Ramdas Pophale) SiO2 
 PCOD9583537
Probable space group: P 65 2 2
;
_chemical_formula_sum "Si O2"
_cell_formula_units_Z 30
_cell_length_a 9.714599
_cell_length_b 9.714599
_cell_length_c 15.919239
_cell_angle_alpha 90.000000
_cell_angle_beta 90.000000
_cell_angle_gamma 120.000000
_cell_volume 1301.076077
_symmetry_space_group_name_H-M "P 65 2 2"
_symmetry_group_IT_number 179
_symmetry_cell_setting 'hexagonal'
loop_
_space_group_symop_operation_xyz
x,y,z
x-y,x,5/6+z
-y,x-y,2/3+z
-x,-y,1/2+z
-x+y,-x,1/3+z
y,-x+y,1/6+z
x-y,-y,-z
-x,-x+y,1/3-z
y,x,2/3-z
-y,-x,1/6-z
-x+y,y,1/2-z
x,x-y,5/6-z
loop_
_atom_site_type_symbol
_atom_site_label
_atom_site_fract_x
_atom_site_fract_y
_atom_site_fract_z
Si Si1 0.129805 0.564903 0.916667
Si Si2 0.351422 0.175711 0.416667
Si Si3 0.532411 0.608964 0.247071
Si Si4 0.956975 0.956975 0.833334
O O1 0.242642 0.750502 0.892127
O O2 0.029908 0.458445 0.836860
O O3 0.466980 0.110929 0.436405
O O4 0.221727 0.074877 0.345263
O O5 0.630834 0.630834 0.333334
O O6 0.026426 0.052852 0.750000
#
# Coordination Sequence:
#
# PCOD9583537 Si02
#       4
#     6   6  12   6
#     4  11  28  40  82 112 153 198 258 315 392 454
#     4   9  18  32  66  88 133 178 240 289 362 426
#     4  11  23  45  69 111 145 192 252 318 371 453
#     4   8  14  28  50  92 118 180 224 290 338 434
#
# _framework density 23.057839000000001
#
# number of rings (size 3 to 8) (size 9 to 14) (size 15 to 20)
#    1.200    0.800    2.000    1.200   11.200    0.000 
#    0.000    0.000    4.400    0.000   20.800    0.000 
#    0.000    0.000    0.000    0.000    0.000    0.000 
#
# Total GULP energy -167005.970501 kJ/mol
# GULP energy per Si atom -5566.865683 kJ/mol
# Density = 2.300536 g / cm^3
# Si number density = 23.057839 Si / 1000 Ang^3
#
#
#
# Elastic Constant Matrix: (Units=GPa)
#
#
# Indices 1 2 3 4 5 6 
#
# 1 172.7805 -42.3054 58.8368 0.0000 0.0000 0.0000
# 2 -42.3054 172.7805 58.8368 0.0000 0.0000 0.0000
# 3 58.8368 58.8368 180.1035 0.0000 0.0000 0.0000
# 4 0.0000 0.0000 0.0000 108.1100 0.0000 0.0000
# 5 0.0000 0.0000 0.0000 0.0000 108.1100 0.0000
# 6 0.0000 0.0000 0.0000 0.0000 0.0000 107.5430
#
#
#
# Elastic Compliance Matrix: (Units=1/GPa)
#
#
# Indices 1 2 3 4 5 6 
#
# 1 0.007757 0.003108 -0.003550 0.000000 0.000000 0.000000
# 2 0.003108 0.007757 -0.003550 0.000000 0.000000 0.000000
# 3 -0.003550 -0.003550 0.007872 0.000000 0.000000 0.000000
# 4 0.000000 0.000000 0.000000 0.009250 0.000000 0.000000
# 5 0.000000 0.000000 0.000000 0.000000 0.009250 0.000000
# 6 0.000000 0.000000 0.000000 0.000000 0.000000 0.009299
#
#
# Mechanical properties :
#
#
# Convention : Reuss Voigt Hill
#
# Bulk Modulus (GPa) = 64.91664 75.15564 70.03614
# Shear Modulus (GPa) = 77.75838 94.77238 86.26538
#
# Velocity S-wave (km/s) = 5.81347 6.41804 6.12322
# Velocity P-wave (km/s) = 8.56019 9.35878 8.96838
#
# Compressibility (1/GPa) = 0.01540437
#
# Stress axis : x y z
#
# Youngs Moduli (GPa) = 128.90787 128.90787 127.03946
#
# Poissons Ratio (x) = -0.40067 0.45094
# Poissons Ratio (y) = -0.40067 0.45094
# Poissons Ratio (z) = 0.45757 0.45757
#
# Static dielectric constant tensor:
#      x y z
#    x 1.866770 0.000000 0.000000 
#    y 0.000000 1.866770 0.000000 
#    z 0.000000 0.000000 1.981280 
# 
# From -- ./inp_files/5199.got.cif
#   From: 2010.05.17/outbox.cif.g08.bks.cpg/sg179_3_cif.got.tgz:5199.got - 2010.05.20 11:37:33.
