data_PCOD9583563
_publ_section_title
;
Structure prediction by ZEFSAII (Michael W. Deem and Ramdas Pophale) SiO2 
 PCOD9583563
Probable space group: P 65 2 2
;
_chemical_formula_sum "Si O2"
_cell_formula_units_Z 36
_cell_length_a 13.201932
_cell_length_b 13.201932
_cell_length_c 10.396616
_cell_angle_alpha 90.000000
_cell_angle_beta 90.000000
_cell_angle_gamma 120.000000
_cell_volume 1569.269804
_symmetry_space_group_name_H-M "P 65 2 2"
_symmetry_group_IT_number 179
_symmetry_cell_setting 'hexagonal'
loop_
_space_group_symop_operation_xyz
x,y,z
x-y,x,5/6+z
-y,x-y,2/3+z
-x,-y,1/2+z
-x+y,-x,1/3+z
y,-x+y,1/6+z
x-y,-y,-z
-x,-x+y,1/3-z
y,x,2/3-z
-y,-x,1/6-z
-x+y,y,1/2-z
x,x-y,5/6-z
loop_
_atom_site_type_symbol
_atom_site_label
_atom_site_fract_x
_atom_site_fract_y
_atom_site_fract_z
Si Si1 0.393576 0.810343 0.963793
Si Si2 0.798363 0.000000 0.000000
Si Si3 0.850170 0.575055 0.480665
Si Si4 0.988560 0.494280 0.916667
O O1 0.373830 0.686915 0.916667
O O2 0.269868 0.803481 0.930928
O O3 0.484031 0.908016 0.868628
O O4 0.464379 0.829035 0.095620
O O5 0.820241 0.910121 0.916667
O O6 0.774494 0.085719 0.905308
O O7 0.944057 0.575374 0.382899
#
# Coordination Sequence:
#
# PCOD9583563 Si02
#       4
#    12   6  12   6
#     4  12  22  40  64  96 145 180 229 289 360 437
#     4  12  26  50  82  98 138 198 258 308 368 450
#     4  12  24  41  70 106 141 189 231 300 367 446
#     4  12  22  36  64  98 142 182 228 270 358 440
#
# _framework density 22.940607
#
# number of rings (size 3 to 8) (size 9 to 14) (size 15 to 20)
#    0.000    0.000    8.333    3.000    0.000    0.000 
#    0.000    0.000   14.667    0.000    0.000    0.000 
#    0.000    0.000    0.000    0.000    0.000    0.000 
#
# Total GULP energy -200658.406593 kJ/mol
# GULP energy per Si atom -5573.844628 kJ/mol
# Density = 2.288839 g / cm^3
# Si number density = 22.940607 Si / 1000 Ang^3
#
#
#
# Elastic Constant Matrix: (Units=GPa)
#
#
# Indices 1 2 3 4 5 6 
#
# 1 181.2201 -3.9876 31.5618 0.0000 0.0000 0.0000
# 2 -3.9876 181.2201 31.5618 0.0000 0.0000 0.0000
# 3 31.5618 31.5618 78.9376 0.0000 0.0000 0.0000
# 4 0.0000 0.0000 0.0000 55.0523 0.0000 0.0000
# 5 0.0000 0.0000 0.0000 0.0000 55.0523 0.0000
# 6 0.0000 0.0000 0.0000 0.0000 0.0000 92.6039
#
#
#
# Elastic Compliance Matrix: (Units=1/GPa)
#
#
# Indices 1 2 3 4 5 6 
#
# 1 0.005989 0.000590 -0.002631 0.000000 0.000000 0.000000
# 2 0.000590 0.005989 -0.002631 0.000000 0.000000 0.000000
# 3 -0.002631 -0.002631 0.014772 0.000000 0.000000 0.000000
# 4 0.000000 0.000000 0.000000 0.018165 0.000000 0.000000
# 5 0.000000 0.000000 0.000000 0.000000 0.018165 0.000000
# 6 0.000000 0.000000 0.000000 0.000000 0.000000 0.010799
#
#
# Mechanical properties :
#
#
# Convention : Reuss Voigt Hill
#
# Bulk Modulus (GPa) = 57.44513 62.18333 59.81423
# Shear Modulus (GPa) = 56.16511 66.02451 61.09481
#
# Velocity S-wave (km/s) = 4.95338 5.37058 5.16619
# Velocity P-wave (km/s) = 7.60328 8.10077 7.85596
#
# Compressibility (1/GPa) = 0.01740792
#
# Stress axis : x y z
#
# Youngs Moduli (GPa) = 166.96490 166.96490 67.69644
#
# Poissons Ratio (x) = -0.09850 0.17808
# Poissons Ratio (y) = -0.09850 0.17808
# Poissons Ratio (z) = 0.43922 0.43922
#
# Static dielectric constant tensor:
#      x y z
#    x 0.616560 0.000000 0.000000 
#    y 0.000000 0.616560 0.000000 
#    z 0.000000 0.000000 2.104770 
# 
# From -- ./inp_files/5312.got.cif
#   From: 2010.05.17/outbox.cif.g08.bks.cpg/sg179_3_cif.got.tgz:5312.got - 2010.05.20 11:37:33.
