data_PCOD9583777
_publ_section_title
;
Structure prediction by ZEFSAII (Michael W. Deem and Ramdas Pophale) SiO2 
 PCOD9583777
Probable space group: P 62 2 2
;
_chemical_formula_sum "Si O2"
_cell_formula_units_Z 48
_cell_length_a 24.135762
_cell_length_b 24.135762
_cell_length_c 5.364871
_cell_angle_alpha 90.000000
_cell_angle_beta 90.000000
_cell_angle_gamma 120.000000
_cell_volume 2706.524387
_symmetry_space_group_name_H-M "P 62 2 2"
_symmetry_group_IT_number 180
_symmetry_cell_setting 'hexagonal'
loop_
_space_group_symop_operation_xyz
x,y,z
x-y,x,1/3+z
-y,x-y,2/3+z
-x,-y,z
-x+y,-x,1/3+z
y,-x+y,2/3+z
x-y,-y,-z
-x,-x+y,1/3-z
y,x,2/3-z
-y,-x,2/3-z
-x+y,y,-z
x,x-y,1/3-z
loop_
_atom_site_type_symbol
_atom_site_label
_atom_site_fract_x
_atom_site_fract_y
_atom_site_fract_z
Si Si1 0.235258 0.470516 0.000000
Si Si2 0.246261 0.871062 0.719285
Si Si3 0.000000 0.690676 0.166667
Si Si4 0.362182 0.425502 0.219408
Si Si5 0.825028 0.377584 0.416912
O O1 0.174914 0.425182 0.174756
O O2 0.301769 0.519217 0.127429
O O3 0.177292 0.822709 0.833334
O O4 0.251416 0.937237 0.625616
O O5 0.306680 0.894132 0.909627
O O6 0.034177 0.669423 0.371218
O O7 0.420848 0.420848 0.333334
O O8 0.386806 0.490983 0.073684
O O9 0.820463 0.410232 0.666667
O O10 0.810629 0.405315 0.166667
#
# Coordination Sequence:
#
# PCOD9583777 Si02
#       5
#     6  12   6  12  12
#     4  12  24  44  64  82 118 158 206 253 337 378
#     4  11  19  36  66  86 120 162 196 258 314 385
#     4  10  20  36  59  96 112 152 208 250 307 400
#     4  10  22  38  59  88 121 147 194 250 315 380
#     4  12  27  44  63  86 114 155 205 258 323 392
#
# _framework density 17.734921
#
# number of rings (size 3 to 8) (size 9 to 14) (size 15 to 20)
#    0.000    1.000    5.000    1.500    3.500    0.500 
#    2.250    0.000    0.000    0.000    0.000    0.000 
#    0.000    0.000    0.000    0.000    0.000    0.000 
#
# Total GULP energy -267405.244585 kJ/mol
# GULP energy per Si atom -5570.942596 kJ/mol
# Density = 1.769456 g / cm^3
# Si number density = 17.734921 Si / 1000 Ang^3
#
#
#
# Elastic Constant Matrix: (Units=GPa)
#
#
# Indices 1 2 3 4 5 6 
#
# 1 76.1738 65.8046 33.3115 0.0000 0.0000 0.0000
# 2 65.8046 76.1738 33.3115 0.0000 0.0000 0.0000
# 3 33.3115 33.3115 84.7746 0.0000 0.0000 0.0000
# 4 0.0000 0.0000 0.0000 -10.5007 0.0000 0.0000
# 5 0.0000 0.0000 0.0000 0.0000 -10.5007 0.0000
# 6 0.0000 0.0000 0.0000 0.0000 0.0000 5.1846
#
#
#
# Elastic Compliance Matrix: (Units=1/GPa)
#
#
# Indices 1 2 3 4 5 6 
#
# 1 0.052538 -0.043902 -0.003393 0.000000 0.000000 0.000000
# 2 -0.043902 0.052538 -0.003393 0.000000 0.000000 0.000000
# 3 -0.003393 -0.003393 0.014463 0.000000 0.000000 0.000000
# 4 0.000000 0.000000 0.000000 -0.095232 0.000000 0.000000
# 5 0.000000 0.000000 0.000000 0.000000 -0.095232 0.000000
# 6 0.000000 0.000000 0.000000 0.000000 0.000000 0.192879
#
#
# Mechanical properties :
#
#
# Convention : Reuss Voigt Hill
#
# Bulk Modulus (GPa) = 55.06370 55.77524 55.41947
# Shear Modulus (GPa) = 21.79749 3.81627 12.80688
#
# Velocity S-wave (km/s) = 3.50962 1.46851 2.69016
# Velocity P-wave (km/s) = 6.89484 5.86456 6.40046
#
# Compressibility (1/GPa) = 0.01816078
#
# Stress axis : x y z
#
# Youngs Moduli (GPa) = 19.03400 19.03400 69.14324
#
# Poissons Ratio (x) = 0.83563 0.23462
# Poissons Ratio (y) = 0.83563 0.23462
# Poissons Ratio (z) = 0.06459 0.06459
#
# Static dielectric constant tensor:
#      x y z
#    x 1.645420 0.000000 0.000000 
#    y 0.000000 1.645420 0.000000 
#    z 0.000000 0.000000 1.749830 
# 
# From -- ./inp_files/1154.got.cif
#   From: 2010.05.17/outbox.cif.g08.bks.cpg/sg180_1_cif.got.tgz:1154.got - 2010.05.20 11:43:55.
