data_PCOD9583719
_publ_section_title
;
Structure prediction by ZEFSAII (Michael W. Deem and Ramdas Pophale) SiO2 
 PCOD9583719
Probable space group: P 62 2 2
;
_chemical_formula_sum "Si O2"
_cell_formula_units_Z 54
_cell_length_a 12.240091
_cell_length_b 12.240091
_cell_length_c 20.130605
_cell_angle_alpha 90.000000
_cell_angle_beta 90.000000
_cell_angle_gamma 120.000000
_cell_volume 2611.901244
_symmetry_space_group_name_H-M "P 62 2 2"
_symmetry_group_IT_number 180
_symmetry_cell_setting 'hexagonal'
loop_
_space_group_symop_operation_xyz
x,y,z
x-y,x,1/3+z
-y,x-y,2/3+z
-x,-y,z
-x+y,-x,1/3+z
y,-x+y,2/3+z
x-y,-y,-z
-x,-x+y,1/3-z
y,x,2/3-z
-y,-x,2/3-z
-x+y,y,-z
x,x-y,1/3-z
loop_
_atom_site_type_symbol
_atom_site_label
_atom_site_fract_x
_atom_site_fract_y
_atom_site_fract_z
Si Si1 0.458929 0.717354 0.457206
Si Si2 0.923529 0.355094 0.016349
Si Si3 0.204666 0.306700 0.885572
Si Si4 0.500000 0.500000 0.197858
Si Si5 0.318859 0.066596 0.219804
O O1 0.332262 0.664523 0.500000
O O2 0.474714 0.810560 0.397679
O O3 0.567348 0.808244 0.509701
O O4 0.477462 0.603380 0.432414
O O5 0.000000 0.500000 0.992740
O O6 0.022989 0.332530 0.059175
O O7 0.870306 0.258414 0.955155
O O8 0.210890 0.210890 0.833334
O O9 0.062884 0.257890 0.908030
O O10 0.585066 0.620804 0.152348
O O11 0.286659 0.143330 0.166667
#
# Coordination Sequence:
#
# PCOD9583719 Si02
#       5
#    12  12  12   6  12
#     4  10  19  36  64  96 130 163 210 285 343 398
#     4  11  20  38  69 103 124 157 231 296 341 389
#     4   9  20  37  64  97 126 161 214 285 336 392
#     4  10  22  40  55  84 129 174 208 246 340 408
#     4  11  23  41  59  88 135 175 214 265 332 419
#
# _framework density 20.674596000000001
#
# number of rings (size 3 to 8) (size 9 to 14) (size 15 to 20)
#    0.000    1.778    3.333    1.333    0.000    0.444 
#    0.000   15.556    0.000    8.000    0.000    0.000 
#    0.000    0.000    0.000    0.000    0.000    0.000 
#
# Total GULP energy -301277.135973 kJ/mol
# GULP energy per Si atom -5579.206222 kJ/mol
# Density = 2.062754 g / cm^3
# Si number density = 20.674596 Si / 1000 Ang^3
#
#
#
# Elastic Constant Matrix: (Units=GPa)
#
#
# Indices 1 2 3 4 5 6 
#
# 1 68.0594 17.9367 9.1360 0.0000 0.0000 0.0000
# 2 17.9367 68.0594 9.1360 0.0000 0.0000 0.0000
# 3 9.1360 9.1360 62.4762 0.0000 0.0000 0.0000
# 4 0.0000 0.0000 0.0000 10.2126 0.0000 0.0000
# 5 0.0000 0.0000 0.0000 0.0000 10.2126 0.0000
# 6 0.0000 0.0000 0.0000 0.0000 0.0000 25.0614
#
#
#
# Elastic Compliance Matrix: (Units=1/GPa)
#
#
# Indices 1 2 3 4 5 6 
#
# 1 0.015976 -0.003975 -0.001755 0.000000 0.000000 0.000000
# 2 -0.003975 0.015976 -0.001755 0.000000 0.000000 0.000000
# 3 -0.001755 -0.001755 0.016519 0.000000 0.000000 0.000000
# 4 0.000000 0.000000 0.000000 0.097918 0.000000 0.000000
# 5 0.000000 0.000000 0.000000 0.000000 0.097918 0.000000
# 6 0.000000 0.000000 0.000000 0.000000 0.000000 0.039902
#
#
# Mechanical properties :
#
#
# Convention : Reuss Voigt Hill
#
# Bulk Modulus (GPa) = 29.84887 30.11249 29.98068
# Shear Modulus (GPa) = 16.11101 19.92307 18.01704
#
# Velocity S-wave (km/s) = 2.79456 3.10764 2.95525
# Velocity P-wave (km/s) = 4.98814 5.24148 5.11638
#
# Compressibility (1/GPa) = 0.03350211
#
# Stress axis : x y z
#
# Youngs Moduli (GPa) = 62.59319 62.59319 60.53499
#
# Poissons Ratio (x) = 0.24880 0.10624
# Poissons Ratio (y) = 0.24880 0.10624
# Poissons Ratio (z) = 0.10985 0.10985
#
# Static dielectric constant tensor:
#      x y z
#    x 1.746570 0.000000 0.000000 
#    y 0.000000 1.746570 0.000000 
#    z 0.000000 0.000000 1.709430 
# 
# From -- ./inp_files/8866.got.cif
#   From: 2010.05.17/outbox.cif.g08.bks.cpg/sg180_5_cif.got.tgz:8866.got - 2010.05.20 11:43:55.
