data_PCOD9583405
_publ_section_title
;
Structure prediction by ZEFSAII (Michael W. Deem and Ramdas Pophale) SiO2 
 PCOD9583405
Probable space group: P 65 2 2
;
_chemical_formula_sum "Si O2"
_cell_formula_units_Z 48
_cell_length_a 17.866805
_cell_length_b 17.866805
_cell_length_c 8.898226
_cell_angle_alpha 90.000000
_cell_angle_beta 90.000000
_cell_angle_gamma 120.000000
_cell_volume 2459.958942
_symmetry_space_group_name_H-M "P 65 2 2"
_symmetry_group_IT_number 179
_symmetry_cell_setting 'hexagonal'
loop_
_space_group_symop_operation_xyz
x,y,z
x-y,x,5/6+z
-y,x-y,2/3+z
-x,-y,1/2+z
-x+y,-x,1/3+z
y,-x+y,1/6+z
x-y,-y,-z
-x,-x+y,1/3-z
y,x,2/3-z
-y,-x,1/6-z
-x+y,y,1/2-z
x,x-y,5/6-z
loop_
_atom_site_type_symbol
_atom_site_label
_atom_site_fract_x
_atom_site_fract_y
_atom_site_fract_z
Si Si1 0.779716 0.550029 0.082105
Si Si2 0.330804 0.280225 0.190287
Si Si3 0.445946 0.401308 0.677597
Si Si4 0.000000 0.157713 0.166667
Si Si5 0.644647 0.355354 0.083334
O O1 0.794681 0.589362 0.250000
O O2 0.858861 0.537438 0.034762
O O3 0.692757 0.458131 0.091232
O O4 0.762015 0.609031 0.970732
O O5 0.338067 0.338067 0.333334
O O6 0.233288 0.200348 0.205746
O O7 0.360231 0.348913 0.056507
O O8 0.443274 0.443274 0.833334
O O9 0.522889 0.477112 0.583334
O O10 0.073086 0.146171 0.250000
O O11 0.664374 0.328747 0.250000
#
# Coordination Sequence:
#
# PCOD9583405 Si02
#       5
#    12  12  12   6   6
#     4  11  23  43  65  97 137 179 232 290 349 425
#     4  10  24  42  70 100 138 182 233 290 356 429
#     4  12  25  42  65 102 139 187 236 290 355 422
#     4  10  22  46  74 106 140 180 238 292 366 436
#     4  10  24  40  64  92 134 184 232 290 346 418
#
# _framework density 19.512522000000001
#
# number of rings (size 3 to 8) (size 9 to 14) (size 15 to 20)
#    0.750    0.500    2.500    3.000    1.750    6.000 
#    0.000    1.250    0.000    0.000    0.000    0.000 
#    0.000    0.000    0.000    0.000    0.000    0.000 
#
# Total GULP energy -267424.982224 kJ/mol
# GULP energy per Si atom -5571.353796 kJ/mol
# Density = 1.946811 g / cm^3
# Si number density = 19.512522 Si / 1000 Ang^3
#
#
#
# Elastic Constant Matrix: (Units=GPa)
#
#
# Indices 1 2 3 4 5 6 
#
# 1 83.4489 127.6343 46.7266 0.0000 0.0000 0.0000
# 2 127.6343 83.4489 46.7266 0.0000 0.0000 0.0000
# 3 46.7266 46.7266 110.0999 0.0000 0.0000 0.0000
# 4 0.0000 0.0000 0.0000 24.0755 0.0000 0.0000
# 5 0.0000 0.0000 0.0000 0.0000 24.0755 0.0000
# 6 0.0000 0.0000 0.0000 0.0000 0.0000 -22.0927
#
#
#
# Elastic Compliance Matrix: (Units=1/GPa)
#
#
# Indices 1 2 3 4 5 6 
#
# 1 -0.008399 0.014233 -0.002476 0.000000 0.000000 0.000000
# 2 0.014233 -0.008399 -0.002476 0.000000 0.000000 0.000000
# 3 -0.002476 -0.002476 0.011184 0.000000 0.000000 0.000000
# 4 0.000000 0.000000 0.000000 0.041536 0.000000 0.000000
# 5 0.000000 0.000000 0.000000 0.000000 0.041536 0.000000
# 6 0.000000 0.000000 0.000000 0.000000 0.000000 -0.045264
#
#
# Mechanical properties :
#
#
# Convention : Reuss Voigt Hill
#
# Bulk Modulus (GPa) = 77.23116 79.90807 78.56961
# Shear Modulus (GPa) = 278.58689 8.93899 143.76294
#
# Velocity S-wave (km/s) = 11.96175 2.14269 8.59286
# Velocity P-wave (km/s) = 15.18038 6.86750 11.78148
#
# Compressibility (1/GPa) = 0.01294814
#
# Stress axis : x y z
#
# Youngs Moduli (GPa) = -119.05951 -119.05951 89.41252
#
# Poissons Ratio (x) = 1.69454 0.22137
# Poissons Ratio (y) = 1.69454 0.22137
# Poissons Ratio (z) = -0.29477 -0.29477
#
# Static dielectric constant tensor:
#      x y z
#    x 1.673220 0.000000 0.000000 
#    y 0.000000 1.673220 0.000000 
#    z 0.000000 0.000000 1.809210 
# 
# From -- ./inp_files/2720.got.cif
#   From: 2010.05.17/outbox.cif.g08.bks.cpg/sg179_2_cif.got.tgz:2720.got - 2010.05.20 11:37:33.
