data_PCOD9583396
_publ_section_title
;
Structure prediction by ZEFSAII (Michael W. Deem and Ramdas Pophale) SiO2 
 PCOD9583396
Probable space group: P 65 2 2
;
_chemical_formula_sum "Si O2"
_cell_formula_units_Z 84
_cell_length_a 19.811932
_cell_length_b 19.811932
_cell_length_c 12.794405
_cell_angle_alpha 90.000000
_cell_angle_beta 90.000000
_cell_angle_gamma 120.000000
_cell_volume 4349.149965
_symmetry_space_group_name_H-M "P 65 2 2"
_symmetry_group_IT_number 179
_symmetry_cell_setting 'hexagonal'
loop_
_space_group_symop_operation_xyz
x,y,z
x-y,x,5/6+z
-y,x-y,2/3+z
-x,-y,1/2+z
-x+y,-x,1/3+z
y,-x+y,1/6+z
x-y,-y,-z
-x,-x+y,1/3-z
y,x,2/3-z
-y,-x,1/6-z
-x+y,y,1/2-z
x,x-y,5/6-z
loop_
_atom_site_type_symbol
_atom_site_label
_atom_site_fract_x
_atom_site_fract_y
_atom_site_fract_z
Si Si1 0.109274 0.434629 0.262271
Si Si2 0.497479 0.066786 0.084456
Si Si3 0.160930 0.697333 0.800848
Si Si4 0.265168 0.698418 0.474977
Si Si5 0.989982 0.358544 0.419990
Si Si6 0.701882 0.928535 0.428666
Si Si7 0.728629 0.536670 0.353721
O O1 0.073729 0.492541 0.258997
O O2 0.126488 0.419833 0.143722
O O3 0.189672 0.484974 0.325958
O O4 0.047436 0.361718 0.328728
O O5 0.512755 0.151617 0.051110
O O6 0.438510 0.038756 0.181977
O O7 0.449757 0.000000 0.000000
O O8 0.225434 0.676896 0.758160
O O9 0.085241 0.642691 0.868854
O O10 0.214675 0.766038 0.881815
O O11 0.303531 0.696470 0.583334
O O12 0.238863 0.619432 0.416667
O O13 0.959913 0.281799 0.492353
O O14 0.728038 0.864019 0.416667
O O15 0.619886 0.880531 0.488925
O O16 0.759507 0.000000 0.500000
O O17 0.754228 0.508455 0.250000
#
# Coordination Sequence:
#
# PCOD9583396 Si02
#       7
#    12  12  12  12  12  12  12
#     4  11  25  37  56  84 116 162 207 258 316 380
#     4  12  21  37  58  85 121 154 205 263 324 377
#     4  11  22  38  57  81 115 153 209 259 309 374
#     4  10  22  43  61  77 110 160 212 260 317 376
#     4  12  20  36  58  85 119 158 195 259 319 374
#     4  11  21  38  64  93 128 152 191 241 302 373
#     4  11  19  37  61  85 117 159 198 252 316 372
#
# _framework density 19.314119000000002
#
# number of rings (size 3 to 8) (size 9 to 14) (size 15 to 20)
#    0.000    0.857    5.714    4.286    0.000    0.000 
#    0.000   11.429    0.000    0.000    0.000    0.000 
#    4.286    0.000    0.000    0.000    0.000    0.000 
#
# Total GULP energy -468691.754278 kJ/mol
# GULP energy per Si atom -5579.663741 kJ/mol
# Density = 1.927016 g / cm^3
# Si number density = 19.314119 Si / 1000 Ang^3
#
#
#
# Elastic Constant Matrix: (Units=GPa)
#
#
# Indices 1 2 3 4 5 6 
#
# 1 75.9476 29.7847 51.6305 0.0000 0.0000 0.0000
# 2 29.7847 75.9476 51.6305 0.0000 0.0000 0.0000
# 3 51.6305 51.6305 141.6939 0.0000 0.0000 0.0000
# 4 0.0000 0.0000 0.0000 35.9854 0.0000 0.0000
# 5 0.0000 0.0000 0.0000 0.0000 35.9854 0.0000
# 6 0.0000 0.0000 0.0000 0.0000 0.0000 23.0814
#
#
#
# Elastic Compliance Matrix: (Units=1/GPa)
#
#
# Indices 1 2 3 4 5 6 
#
# 1 0.018173 -0.003490 -0.005350 0.000000 0.000000 0.000000
# 2 -0.003490 0.018173 -0.005350 0.000000 0.000000 0.000000
# 3 -0.005350 -0.005350 0.010956 0.000000 0.000000 0.000000
# 4 0.000000 0.000000 0.000000 0.027789 0.000000 0.000000
# 5 0.000000 0.000000 0.000000 0.000000 0.027789 0.000000
# 6 0.000000 0.000000 0.000000 0.000000 0.000000 0.043325
#
#
# Mechanical properties :
#
#
# Convention : Reuss Voigt Hill
#
# Bulk Modulus (GPa) = 52.84942 62.18671 57.51807
# Shear Modulus (GPa) = 27.64074 29.71332 28.67703
#
# Velocity S-wave (km/s) = 3.78711 3.92653 3.85745
# Velocity P-wave (km/s) = 6.82242 7.26803 7.04875
#
# Compressibility (1/GPa) = 0.01892168
#
# Stress axis : x y z
#
# Youngs Moduli (GPa) = 55.02753 55.02753 91.27020
#
# Poissons Ratio (x) = 0.19203 0.48831
# Poissons Ratio (y) = 0.19203 0.48831
# Poissons Ratio (z) = 0.29441 0.29441
#
# Static dielectric constant tensor:
#      x y z
#    x 1.701720 0.000000 0.000000 
#    y 0.000000 1.701720 0.000000 
#    z 0.000000 0.000000 1.778950 
# 
# From -- ./inp_files/4928.got.cif
#   From: 2010.05.17/outbox.cif.g08.bks.cpg/sg179_3_cif.got.tgz:4928.got - 2010.05.20 11:37:33.
