data_PCOD9583433
_publ_section_title
;
Structure prediction by ZEFSAII (Michael W. Deem and Ramdas Pophale) SiO2 
 PCOD9583433
Probable space group: P 65 2 2
;
_chemical_formula_sum "Si O2"
_cell_formula_units_Z 48
_cell_length_a 13.102138
_cell_length_b 13.102138
_cell_length_c 11.497154
_cell_angle_alpha 90.000000
_cell_angle_beta 90.000000
_cell_angle_gamma 120.000000
_cell_volume 1709.248939
_symmetry_space_group_name_H-M "P 65 2 2"
_symmetry_group_IT_number 179
_symmetry_cell_setting 'hexagonal'
loop_
_space_group_symop_operation_xyz
x,y,z
x-y,x,5/6+z
-y,x-y,2/3+z
-x,-y,1/2+z
-x+y,-x,1/3+z
y,-x+y,1/6+z
x-y,-y,-z
-x,-x+y,1/3-z
y,x,2/3-z
-y,-x,1/6-z
-x+y,y,1/2-z
x,x-y,5/6-z
loop_
_atom_site_type_symbol
_atom_site_label
_atom_site_fract_x
_atom_site_fract_y
_atom_site_fract_z
Si Si1 0.028418 0.453571 0.540152
Si Si2 0.797844 0.029225 0.677762
Si Si3 0.252251 0.707958 0.826490
Si Si4 0.707169 0.811143 0.748622
O O1 0.028858 0.514429 0.416667
O O2 0.165516 0.490475 0.553525
O O3 0.000000 0.486599 0.666667
O O4 0.952382 0.311189 0.529642
O O5 0.899063 0.100938 0.583334
O O6 0.719923 0.149587 0.904108
O O7 0.767670 0.885339 0.626883
O O8 0.347475 0.694950 0.750000
O O9 0.205849 0.602925 0.916667
O O10 0.781693 0.717877 0.623473
O O11 0.784306 0.784306 0.833334
#
# Coordination Sequence:
#
# PCOD9583433 Si02
#       4
#    12  12  12  12
#     4  10  23  44  72 106 149 205 266 330 402 478
#     4  11  23  45  74 105 149 199 252 317 395 485
#     4  10  24  45  71 105 151 206 264 326 400 489
#     4  11  25  46  74 110 153 200 257 329 402 472
#
# _framework density 28.082509000000002
#
# number of rings (size 3 to 8) (size 9 to 14) (size 15 to 20)
#    0.000    1.500    0.000    4.500    0.000   13.000 
#    0.000    7.500    0.000    0.000    0.000    1.750 
#    0.000    0.000    0.000    0.000    0.000    0.000 
#
# Total GULP energy -267419.410896 kJ/mol
# GULP energy per Si atom -5571.237727 kJ/mol
# Density = 2.801859 g / cm^3
# Si number density = 28.082509 Si / 1000 Ang^3
#
#
#
# Elastic Constant Matrix: (Units=GPa)
#
#
# Indices 1 2 3 4 5 6 
#
# 1 198.1700 55.9320 52.2194 0.0000 0.0000 0.0000
# 2 55.9320 198.1700 52.2194 0.0000 0.0000 0.0000
# 3 52.2194 52.2194 192.7321 0.0000 0.0000 0.0000
# 4 0.0000 0.0000 0.0000 29.0830 0.0000 0.0000
# 5 0.0000 0.0000 0.0000 0.0000 29.0830 0.0000
# 6 0.0000 0.0000 0.0000 0.0000 0.0000 71.1190
#
#
#
# Elastic Compliance Matrix: (Units=1/GPa)
#
#
# Indices 1 2 3 4 5 6 
#
# 1 0.005730 -0.001301 -0.001200 0.000000 0.000000 0.000000
# 2 -0.001301 0.005730 -0.001200 0.000000 0.000000 0.000000
# 3 -0.001200 -0.001200 0.005839 0.000000 0.000000 0.000000
# 4 0.000000 0.000000 0.000000 0.034384 0.000000 0.000000
# 5 0.000000 0.000000 0.000000 0.000000 0.034384 0.000000
# 6 0.000000 0.000000 0.000000 0.000000 0.000000 0.014061
#
#
# Mechanical properties :
#
#
# Convention : Reuss Voigt Hill
#
# Bulk Modulus (GPa) = 101.04720 101.09041 101.06881
# Shear Modulus (GPa) = 45.11508 54.43710 49.77609
#
# Velocity S-wave (km/s) = 4.01249 4.40758 4.21467
# Velocity P-wave (km/s) = 7.58466 7.87262 7.72998
#
# Compressibility (1/GPa) = 0.00989636
#
# Stress axis : x y z
#
# Youngs Moduli (GPa) = 174.53427 174.53427 171.26942
#
# Poissons Ratio (x) = 0.22706 0.20551
# Poissons Ratio (y) = 0.22706 0.20551
# Poissons Ratio (z) = 0.20942 0.20942
#
# Static dielectric constant tensor:
#      x y z
#    x 2.971230 0.000000 0.000000 
#    y 0.000000 2.971230 0.000000 
#    z 0.000000 0.000000 -4.981190 
# 
# From -- ./inp_files/4242.got.cif
#   From: 2010.05.17/outbox.cif.g08.bks.cpg/sg179_3_cif.got.tgz:4242.got - 2010.05.20 11:37:33.
