data_PCOD9583345
_publ_section_title
;
Structure prediction by ZEFSAII (Michael W. Deem and Ramdas Pophale) SiO2 
 PCOD9583345
Probable space group: P 65 2 2
;
_chemical_formula_sum "Si O2"
_cell_formula_units_Z 96
_cell_length_a 14.134568
_cell_length_b 14.134568
_cell_length_c 25.012119
_cell_angle_alpha 90.000000
_cell_angle_beta 90.000000
_cell_angle_gamma 120.000000
_cell_volume 4327.590881
_symmetry_space_group_name_H-M "P 65 2 2"
_symmetry_group_IT_number 179
_symmetry_cell_setting 'hexagonal'
loop_
_space_group_symop_operation_xyz
x,y,z
x-y,x,5/6+z
-y,x-y,2/3+z
-x,-y,1/2+z
-x+y,-x,1/3+z
y,-x+y,1/6+z
x-y,-y,-z
-x,-x+y,1/3-z
y,x,2/3-z
-y,-x,1/6-z
-x+y,y,1/2-z
x,x-y,5/6-z
loop_
_atom_site_type_symbol
_atom_site_label
_atom_site_fract_x
_atom_site_fract_y
_atom_site_fract_z
Si Si1 0.138234 0.417875 0.791737
Si Si2 0.653803 0.921742 0.047881
Si Si3 0.971174 0.122753 0.288343
Si Si4 0.235490 0.204914 0.099536
Si Si5 0.558627 0.249891 0.050052
Si Si6 0.389915 0.274626 0.699078
Si Si7 0.903440 0.441649 0.633333
Si Si8 0.868611 0.317748 0.918409
O O1 0.178518 0.357036 0.750000
O O2 0.210329 0.475641 0.843923
O O3 0.143093 0.507913 0.750749
O O4 0.013888 0.342943 0.807176
O O5 0.734719 0.949496 0.096678
O O6 0.563294 0.956437 0.054882
O O7 0.581332 0.788758 0.044234
O O8 0.727488 0.000000 0.000000
O O9 0.009828 0.164968 0.348281
O O10 0.055718 0.111436 0.250000
O O11 0.850962 0.014239 0.282763
O O12 0.307326 0.149054 0.108905
O O13 0.318302 0.335729 0.096025
O O14 0.644876 0.355125 0.083334
O O15 0.489833 0.159338 0.093928
O O16 0.603286 0.194375 0.008679
O O17 0.437192 0.270738 0.641519
O O18 0.000000 0.437363 0.666667
O O19 0.870875 0.435438 0.916667
#
# Coordination Sequence:
#
# PCOD9583345 Si02
#       8
#    12  12  12  12  12  12  12  12
#     4  10  24  44  71  97 134 188 234 305 373 434
#     4  10  22  42  71 102 138 187 243 306 371 443
#     4  11  22  42  70 102 143 187 239 304 379 457
#     4  11  23  44  67 103 142 191 244 306 377 461
#     4  11  26  42  70 104 140 185 244 301 369 445
#     4  12  24  44  69 102 145 180 251 305 373 451
#     4  10  21  45  67  97 135 181 236 293 361 436
#     4  11  26  45  71 106 147 200 246 310 380 460
#
# _framework density 22.183243999999998
#
# number of rings (size 3 to 8) (size 9 to 14) (size 15 to 20)
#    0.000    1.250    3.750    2.625    3.500    4.000 
#    0.000    2.500    0.000    0.000    0.000    0.000 
#    0.000    0.000    0.000    0.000    0.000    0.000 
#
# Total GULP energy -534745.832167 kJ/mol
# GULP energy per Si atom -5570.269085 kJ/mol
# Density = 2.213275 g / cm^3
# Si number density = 22.183244 Si / 1000 Ang^3
#
#
#
# Elastic Constant Matrix: (Units=GPa)
#
#
# Indices 1 2 3 4 5 6 
#
# 1 94.0185 35.8745 32.5480 0.0000 0.0000 0.0000
# 2 35.8745 94.0185 32.5480 0.0000 0.0000 0.0000
# 3 32.5480 32.5480 93.2789 0.0000 0.0000 0.0000
# 4 0.0000 0.0000 0.0000 23.1967 0.0000 0.0000
# 5 0.0000 0.0000 0.0000 0.0000 23.1967 0.0000
# 6 0.0000 0.0000 0.0000 0.0000 0.0000 29.0720
#
#
#
# Elastic Compliance Matrix: (Units=1/GPa)
#
#
# Indices 1 2 3 4 5 6 
#
# 1 0.013264 -0.003934 -0.003256 0.000000 0.000000 0.000000
# 2 -0.003934 0.013264 -0.003256 0.000000 0.000000 0.000000
# 3 -0.003256 -0.003256 0.012993 0.000000 0.000000 0.000000
# 4 0.000000 0.000000 0.000000 0.043110 0.000000 0.000000
# 5 0.000000 0.000000 0.000000 0.000000 0.043110 0.000000
# 6 0.000000 0.000000 0.000000 0.000000 0.000000 0.034397
#
#
# Mechanical properties :
#
#
# Convention : Reuss Voigt Hill
#
# Bulk Modulus (GPa) = 53.67551 53.69524 53.68538
# Shear Modulus (GPa) = 26.70385 27.11611 26.90998
#
# Velocity S-wave (km/s) = 3.47332 3.50003 3.48670
# Velocity P-wave (km/s) = 6.35093 6.37115 6.36104
#
# Compressibility (1/GPa) = 0.01863047
#
# Stress axis : x y z
#
# Youngs Moduli (GPa) = 75.38955 75.38955 76.96741
#
# Poissons Ratio (x) = 0.29660 0.25058
# Poissons Ratio (y) = 0.29660 0.25058
# Poissons Ratio (z) = 0.24544 0.24544
#
# Static dielectric constant tensor:
#      x y z
#    x 1.880010 0.000000 0.000000 
#    y 0.000000 1.880010 0.000000 
#    z 0.000000 0.000000 1.874040 
# 
# From -- ./inp_files/9056.got.cif
#   From: 2010.05.17/outbox.cif.g08.bks.cpg/sg179_5_cif.got.tgz:9056.got - 2010.05.20 11:37:33.
