data_PCOD9583281
_publ_section_title
;
Structure prediction by ZEFSAII (Michael W. Deem and Ramdas Pophale) SiO2 
 PCOD9583281
Probable space group: P 65 2 2
;
_chemical_formula_sum "Si O2"
_cell_formula_units_Z 60
_cell_length_a 21.015166
_cell_length_b 21.015166
_cell_length_c 8.874466
_cell_angle_alpha 90.000000
_cell_angle_beta 90.000000
_cell_angle_gamma 120.000000
_cell_volume 3394.208458
_symmetry_space_group_name_H-M "P 65 2 2"
_symmetry_group_IT_number 179
_symmetry_cell_setting 'hexagonal'
loop_
_space_group_symop_operation_xyz
x,y,z
x-y,x,5/6+z
-y,x-y,2/3+z
-x,-y,1/2+z
-x+y,-x,1/3+z
y,-x+y,1/6+z
x-y,-y,-z
-x,-x+y,1/3-z
y,x,2/3-z
-y,-x,1/6-z
-x+y,y,1/2-z
x,x-y,5/6-z
loop_
_atom_site_type_symbol
_atom_site_label
_atom_site_fract_x
_atom_site_fract_y
_atom_site_fract_z
Si Si1 0.569221 0.010516 0.824106
Si Si2 0.666952 0.722235 0.116714
Si Si3 0.901831 0.673707 0.287111
Si Si4 0.172962 0.473918 0.971349
Si Si5 0.355865 0.644135 0.583334
Si Si6 0.197591 0.395181 0.250000
O O1 0.491660 0.983319 0.750000
O O2 0.622328 0.096906 0.797065
O O3 0.606779 0.966435 0.761634
O O4 0.560916 0.000000 0.000000
O O5 0.655921 0.734553 0.290408
O O6 0.742355 0.718527 0.115836
O O7 0.654642 0.776762 0.009614
O O8 0.857855 0.715710 0.250000
O O9 0.846785 0.596951 0.367935
O O10 0.185878 0.447504 0.133628
O O11 0.237942 0.554844 0.927959
O O12 0.340424 0.670212 0.416667
#
# Coordination Sequence:
#
# PCOD9583281 Si02
#       6
#    12  12  12  12   6   6
#     4  11  23  39  57  85 111 151 202 252 302 366
#     4  10  23  36  60  89 118 157 199 246 310 369
#     4  10  20  39  60  86 118 160 192 241 309 368
#     4  11  23  40  63  78 116 157 198 262 310 364
#     4  12  27  46  60  84 116 160 220 268 326 384
#     4  12  21  40  58  94 116 156 204 254 318 372
#
# _framework density 17.677171000000001
#
# number of rings (size 3 to 8) (size 9 to 14) (size 15 to 20)
#    0.000    1.200    5.000    1.200    5.600    0.000 
#    0.000    0.000    0.000    0.000    0.000    0.000 
#    0.000    0.000   54.400    0.000    2.800    0.000 
#
# Total GULP energy -334256.355064 kJ/mol
# GULP energy per Si atom -5570.939251 kJ/mol
# Density = 1.763694 g / cm^3
# Si number density = 17.677171 Si / 1000 Ang^3
#
#
#
# Elastic Constant Matrix: (Units=GPa)
#
#
# Indices 1 2 3 4 5 6 
#
# 1 73.6543 45.3621 26.7646 0.0000 0.0000 0.0000
# 2 45.3621 73.6543 26.7646 0.0000 0.0000 0.0000
# 3 26.7646 26.7646 87.8574 0.0000 0.0000 0.0000
# 4 0.0000 0.0000 0.0000 38.3590 0.0000 0.0000
# 5 0.0000 0.0000 0.0000 0.0000 38.3590 0.0000
# 6 0.0000 0.0000 0.0000 0.0000 0.0000 14.1461
#
#
#
# Elastic Compliance Matrix: (Units=1/GPa)
#
#
# Indices 1 2 3 4 5 6 
#
# 1 0.022541 -0.012805 -0.002966 0.000000 0.000000 0.000000
# 2 -0.012805 0.022541 -0.002966 0.000000 0.000000 0.000000
# 3 -0.002966 -0.002966 0.013189 0.000000 0.000000 0.000000
# 4 0.000000 0.000000 0.000000 0.026070 0.000000 0.000000
# 5 0.000000 0.000000 0.000000 0.000000 0.026070 0.000000
# 6 0.000000 0.000000 0.000000 0.000000 0.000000 0.070691
#
#
# Mechanical properties :
#
#
# Convention : Reuss Voigt Hill
#
# Bulk Modulus (GPa) = 48.08253 48.10540 48.09397
# Shear Modulus (GPa) = 22.17232 27.25779 24.71505
#
# Velocity S-wave (km/s) = 3.54544 3.93106 3.74322
# Velocity P-wave (km/s) = 6.63473 6.91930 6.77851
#
# Compressibility (1/GPa) = 0.02079757
#
# Stress axis : x y z
#
# Youngs Moduli (GPa) = 44.36398 44.36398 75.81959
#
# Poissons Ratio (x) = 0.56806 0.22488
# Poissons Ratio (y) = 0.56806 0.22488
# Poissons Ratio (z) = 0.13158 0.13158
#
# Static dielectric constant tensor:
#      x y z
#    x 1.600630 0.000000 0.000000 
#    y 0.000000 1.600630 0.000000 
#    z 0.000000 0.000000 1.627680 
# 
# From -- ./inp_files/3233.got.cif
#   From: 2010.05.17/outbox.cif.g08.bks.cpg/sg179_2_cif.got.tgz:3233.got - 2010.05.20 11:37:33.
