data_PCOD9583973
_publ_section_title
;
Structure prediction by ZEFSAII (Michael W. Deem and Ramdas Pophale) SiO2 
 PCOD9583973
Probable space group: P 62 2 2
;
_chemical_formula_sum "Si O2"
_cell_formula_units_Z 75
_cell_length_a 11.928818
_cell_length_b 11.928818
_cell_length_c 28.772116
_cell_angle_alpha 90.000000
_cell_angle_beta 90.000000
_cell_angle_gamma 120.000000
_cell_volume 3545.661399
_symmetry_space_group_name_H-M "P 62 2 2"
_symmetry_group_IT_number 180
_symmetry_cell_setting 'hexagonal'
loop_
_space_group_symop_operation_xyz
x,y,z
x-y,x,1/3+z
-y,x-y,2/3+z
-x,-y,z
-x+y,-x,1/3+z
y,-x+y,2/3+z
x-y,-y,-z
-x,-x+y,1/3-z
y,x,2/3-z
-y,-x,2/3-z
-x+y,y,-z
x,x-y,1/3-z
loop_
_atom_site_type_symbol
_atom_site_label
_atom_site_fract_x
_atom_site_fract_y
_atom_site_fract_z
Si Si1 0.075089 0.364673 0.319610
Si Si2 0.000000 0.500000 0.166667
Si Si3 0.649069 0.362492 0.952767
Si Si4 0.303170 0.985010 0.759086
Si Si5 0.500000 0.000000 0.834720
Si Si6 0.862646 0.550308 0.582394
Si Si7 0.606079 0.867579 0.571682
Si Si8 0.714010 0.000000 0.000000
O O1 0.179381 0.500422 0.295278
O O2 0.024551 0.366822 0.371939
O O3 0.151168 0.284404 0.325926
O O4 0.959118 0.307718 0.283358
O O5 0.930094 0.373064 0.199557
O O6 0.672336 0.243706 0.944720
O O7 0.726760 0.467724 0.914366
O O8 0.715709 0.431418 0.000000
O O9 0.189809 0.836284 0.766198
O O10 0.406783 0.016067 0.799385
O O11 0.285890 0.110144 0.765672
O O12 0.596946 0.107219 0.871196
O O13 0.976626 0.630230 0.619675
#
# Coordination Sequence:
#
# PCOD9583973 Si02
#       8
#    12   3  12  12   6  12  12   6
#     4  11  23  44  69 105 133 187 238 292 363 419
#     4  12  28  46  68 104 134 202 260 284 372 422
#     4  12  21  39  73 101 142 170 228 297 356 424
#     4  11  25  43  65  97 141 184 234 292 361 422
#     4  12  26  38  66  98 150 184 230 278 358 452
#     4  11  25  43  68 110 138 188 226 288 375 435
#     4  12  27  44  69  98 139 185 242 304 349 435
#     4  10  22  43  75  98 148 170 233 289 356 438
#
# _framework density 21.152614
#
# number of rings (size 3 to 8) (size 9 to 14) (size 15 to 20)
#    0.000    0.640    4.800    3.840    4.480    1.920 
#    0.000    6.400    0.000    0.000    0.000    0.000 
#    0.000    0.000    0.000    0.000    0.000    0.000 
#
# Total GULP energy -417541.812273 kJ/mol
# GULP energy per Si atom -5567.224164 kJ/mol
# Density = 2.110447 g / cm^3
# Si number density = 21.152614 Si / 1000 Ang^3
#
#
#
# Elastic Constant Matrix: (Units=GPa)
#
#
# Indices 1 2 3 4 5 6 
#
# 1 83.0124 17.1946 22.2392 0.0000 0.0000 0.0000
# 2 17.1946 83.0124 22.2392 0.0000 0.0000 0.0000
# 3 22.2392 22.2392 112.8851 0.0000 0.0000 0.0000
# 4 0.0000 0.0000 0.0000 63.1984 0.0000 0.0000
# 5 0.0000 0.0000 0.0000 0.0000 63.1984 0.0000
# 6 0.0000 0.0000 0.0000 0.0000 0.0000 32.9089
#
#
#
# Elastic Compliance Matrix: (Units=1/GPa)
#
#
# Indices 1 2 3 4 5 6 
#
# 1 0.013065 -0.002129 -0.002154 0.000000 0.000000 0.000000
# 2 -0.002129 0.013065 -0.002154 0.000000 0.000000 0.000000
# 3 -0.002154 -0.002154 0.009707 0.000000 0.000000 0.000000
# 4 0.000000 0.000000 0.000000 0.015823 0.000000 0.000000
# 5 0.000000 0.000000 0.000000 0.000000 0.015823 0.000000
# 6 0.000000 0.000000 0.000000 0.000000 0.000000 0.030387
#
#
# Mechanical properties :
#
#
# Convention : Reuss Voigt Hill
#
# Bulk Modulus (GPa) = 43.55198 44.69507 44.12353
# Shear Modulus (GPa) = 42.23016 46.34364 44.28690
#
# Velocity S-wave (km/s) = 4.47301 4.68580 4.58064
# Velocity P-wave (km/s) = 6.87832 7.10291 6.99152
#
# Compressibility (1/GPa) = 0.02296107
#
# Stress axis : x y z
#
# Youngs Moduli (GPa) = 76.54317 76.54317 103.01391
#
# Poissons Ratio (x) = 0.16295 0.22193
# Poissons Ratio (y) = 0.16295 0.22193
# Poissons Ratio (z) = 0.16490 0.16490
#
# Static dielectric constant tensor:
#      x y z
#    x 1.835120 0.000000 0.000000 
#    y 0.000000 1.835120 0.000000 
#    z 0.000000 0.000000 1.770820 
# 
# From -- ./inp_files/12396.got.cif
#   From: 2010.05.17/outbox.cif.g08.bks.cpg/sg180_7_cif.got.tgz:12396.got - 2010.05.20 11:43:55.
