data_PCOD9583575
_publ_section_title
;
Structure prediction by ZEFSAII (Michael W. Deem and Ramdas Pophale) SiO2 
 PCOD9583575
Probable space group: P 65 2 2
;
_chemical_formula_sum "Si O2"
_cell_formula_units_Z 42
_cell_length_a 20.732213
_cell_length_b 20.732213
_cell_length_c 5.118752
_cell_angle_alpha 90.000000
_cell_angle_beta 90.000000
_cell_angle_gamma 120.000000
_cell_volume 1905.399490
_symmetry_space_group_name_H-M "P 65 2 2"
_symmetry_group_IT_number 179
_symmetry_cell_setting 'hexagonal'
loop_
_space_group_symop_operation_xyz
x,y,z
x-y,x,5/6+z
-y,x-y,2/3+z
-x,-y,1/2+z
-x+y,-x,1/3+z
y,-x+y,1/6+z
x-y,-y,-z
-x,-x+y,1/3-z
y,x,2/3-z
-y,-x,1/6-z
-x+y,y,1/2-z
x,x-y,5/6-z
loop_
_atom_site_type_symbol
_atom_site_label
_atom_site_fract_x
_atom_site_fract_y
_atom_site_fract_z
Si Si1 0.267174 0.948770 0.756203
Si Si2 0.662099 0.831050 0.416667
Si Si3 0.418528 0.709264 0.916667
Si Si4 0.465094 0.000000 0.500000
Si Si5 0.550114 0.687211 0.743393
O O1 0.294465 0.890571 0.681958
O O2 0.280522 0.000000 0.500000
O O3 0.185286 0.894919 0.872908
O O4 0.311016 0.000000 0.000000
O O5 0.607742 0.754554 0.564534
O O6 0.362919 0.725838 0.750000
O O7 0.474354 0.689525 0.761647
O O8 0.458995 0.066164 0.644215
O O9 0.518214 0.036428 0.250000
#
# Coordination Sequence:
#
# PCOD9583575 Si02
#       5
#    12   6   6   6  12
#     4  12  24  43  73 107 141 186 246 306 378 453
#     4  12  24  44  78 104 146 189 244 321 382 456
#     4  12  30  46  66  96 142 195 248 315 402 478
#     4  12  30  46  72 102 136 180 248 324 382 446
#     4  12  26  47  73 100 138 184 253 316 393 450
#
# _framework density 22.042618999999998
#
# number of rings (size 3 to 8) (size 9 to 14) (size 15 to 20)
#    0.000    0.000    7.143    0.857   10.000    0.000 
#    0.000    0.000    0.000    0.000    0.000    0.000 
#    0.000    0.000    0.000    0.000   16.286   38.000 
#
# Total GULP energy -234430.183081 kJ/mol
# GULP energy per Si atom -5581.671026 kJ/mol
# Density = 2.199245 g / cm^3
# Si number density = 22.042619 Si / 1000 Ang^3
#
#
#
# Elastic Constant Matrix: (Units=GPa)
#
#
# Indices 1 2 3 4 5 6 
#
# 1 105.5110 54.2100 45.4095 0.0000 0.0000 0.0000
# 2 54.2100 105.5110 45.4095 0.0000 0.0000 0.0000
# 3 45.4095 45.4095 139.4906 0.0000 0.0000 0.0000
# 4 0.0000 0.0000 0.0000 43.2194 0.0000 0.0000
# 5 0.0000 0.0000 0.0000 0.0000 43.2194 0.0000
# 6 0.0000 0.0000 0.0000 0.0000 0.0000 25.6505
#
#
#
# Elastic Compliance Matrix: (Units=1/GPa)
#
#
# Indices 1 2 3 4 5 6 
#
# 1 0.013588 -0.005905 -0.002501 0.000000 0.000000 0.000000
# 2 -0.005905 0.013588 -0.002501 0.000000 0.000000 0.000000
# 3 -0.002501 -0.002501 0.008797 0.000000 0.000000 0.000000
# 4 0.000000 0.000000 0.000000 0.023138 0.000000 0.000000
# 5 0.000000 0.000000 0.000000 0.000000 0.023138 0.000000
# 6 0.000000 0.000000 0.000000 0.000000 0.000000 0.038986
#
#
# Mechanical properties :
#
#
# Convention : Reuss Voigt Hill
#
# Bulk Modulus (GPa) = 70.62644 71.17449 70.90046
# Shear Modulus (GPa) = 33.83677 36.11677 34.97677
#
# Velocity S-wave (km/s) = 3.92224 4.05223 3.98776
# Velocity P-wave (km/s) = 7.25413 7.36571 7.31013
#
# Compressibility (1/GPa) = 0.01415900
#
# Stress axis : x y z
#
# Youngs Moduli (GPa) = 73.59472 73.59472 113.67039
#
# Poissons Ratio (x) = 0.43457 0.28430
# Poissons Ratio (y) = 0.43457 0.28430
# Poissons Ratio (z) = 0.18407 0.18407
#
# Static dielectric constant tensor:
#      x y z
#    x 1.912520 0.000000 0.000000 
#    y 0.000000 1.912520 0.000000 
#    z 0.000000 0.000000 1.950320 
# 
# From -- ./inp_files/828.got.cif
#   From: 2010.05.17/outbox.cif.g08.bks.cpg/sg179_1_cif.got.tgz:828.got - 2010.05.20 11:37:33.
