data_PCOD9583030
_publ_section_title
;
Structure prediction by ZEFSAII (Michael W. Deem and Ramdas Pophale) SiO2 
 PCOD9583030
Probable space group: P 61 2 2
;
_chemical_formula_sum "Si O2"
_cell_formula_units_Z 42
_cell_length_a 14.041073
_cell_length_b 14.041073
_cell_length_c 10.367601
_cell_angle_alpha 90.000000
_cell_angle_beta 90.000000
_cell_angle_gamma 120.000000
_cell_volume 1770.147684
_symmetry_space_group_name_H-M "P 61 2 2"
_symmetry_group_IT_number 178
_symmetry_cell_setting 'hexagonal'
loop_
_space_group_symop_operation_xyz
x,y,z
x-y,x,1/6+z
-y,x-y,1/3+z
-x,-y,1/2+z
-x+y,-x,2/3+z
y,-x+y,5/6+z
x-y,-y,-z
-x,-x+y,2/3-z
y,x,1/3-z
-y,-x,5/6-z
-x+y,y,1/2-z
x,x-y,1/6-z
loop_
_atom_site_type_symbol
_atom_site_label
_atom_site_fract_x
_atom_site_fract_y
_atom_site_fract_z
Si Si1 0.458287 0.458287 0.166667
Si Si2 0.630795 0.743059 0.849107
Si Si3 0.000000 0.172340 0.333334
Si Si4 0.227949 0.670747 0.280812
Si Si5 0.112063 0.224126 0.750000
O O1 0.413403 0.379779 0.293901
O O2 0.571919 0.466224 0.128039
O O3 0.720429 0.809916 0.740873
O O4 0.527540 0.762614 0.851584
O O5 0.697241 0.788989 0.983620
O O6 0.069422 0.138844 0.250000
O O7 0.267629 0.732372 0.416667
O O8 0.316729 0.633457 0.250000
O O9 0.153564 0.153564 0.666667
#
# Coordination Sequence:
#
# PCOD9583030 Si02
#       5
#     6  12   6  12   6
#     4  11  28  52  85 120 174 214 273 366 422 515
#     4  11  26  51  80 116 159 217 272 344 419 507
#     4  11  26  52  75 114 156 210 275 332 416 487
#     4  12  26  53  80 125 165 217 277 341 430 516
#     4  12  28  52  80 114 164 220 284 350 424 514
#
# _framework density 23.726832999999999
#
# number of rings (size 3 to 8) (size 9 to 14) (size 15 to 20)
#    0.000    0.571    4.286    1.714    2.000    9.143 
#   23.143    0.000    0.000    0.000    0.000    0.000 
#    0.000    0.000    0.000    0.000    0.000    0.000 
#
# Total GULP energy -235028.098992 kJ/mol
# GULP energy per Si atom -5595.907119 kJ/mol
# Density = 2.367283 g / cm^3
# Si number density = 23.726833 Si / 1000 Ang^3
#
#
#
# Elastic Constant Matrix: (Units=GPa)
#
#
# Indices 1 2 3 4 5 6 
#
# 1 239.3359 75.5046 78.9390 0.0000 0.0000 0.0000
# 2 75.5046 239.3359 78.9390 0.0000 0.0000 0.0000
# 3 78.9390 78.9390 126.6489 0.0000 0.0000 0.0000
# 4 0.0000 0.0000 0.0000 51.1326 0.0000 0.0000
# 5 0.0000 0.0000 0.0000 0.0000 51.1326 0.0000
# 6 0.0000 0.0000 0.0000 0.0000 0.0000 81.9156
#
#
#
# Elastic Compliance Matrix: (Units=1/GPa)
#
#
# Indices 1 2 3 4 5 6 
#
# 1 0.005362 -0.000742 -0.002880 0.000000 0.000000 0.000000
# 2 -0.000742 0.005362 -0.002880 0.000000 0.000000 0.000000
# 3 -0.002880 -0.002880 0.011486 0.000000 0.000000 0.000000
# 4 0.000000 0.000000 0.000000 0.019557 0.000000 0.000000
# 5 0.000000 0.000000 0.000000 0.000000 0.019557 0.000000
# 6 0.000000 0.000000 0.000000 0.000000 0.000000 0.012208
#
#
# Mechanical properties :
#
#
# Convention : Reuss Voigt Hill
#
# Bulk Modulus (GPa) = 108.61092 119.12066 113.86579
# Shear Modulus (GPa) = 55.80154 61.63203 58.71679
#
# Velocity S-wave (km/s) = 4.85483 5.10216 4.98003
# Velocity P-wave (km/s) = 8.79209 9.22082 9.00900
#
# Compressibility (1/GPa) = 0.00920718
#
# Stress axis : x y z
#
# Youngs Moduli (GPa) = 186.49532 186.49532 87.06464
#
# Poissons Ratio (x) = 0.13834 0.25073
# Poissons Ratio (y) = 0.13834 0.25073
# Poissons Ratio (z) = 0.53707 0.53707
#
# Static dielectric constant tensor:
#      x y z
#    x 1.881280 0.000000 0.000000 
#    y 0.000000 1.881280 0.000000 
#    z 0.000000 0.000000 1.905810 
# 
# From -- ./inp_files/3902.got.cif
#   From: 2010.05.17/outbox.cif.g08.bks.cpg/sg178_2_cif.got.tgz:3902.got - 2010.05.20 11:30:59.
