data_PCOD9583904
_publ_section_title
;
Structure prediction by ZEFSAII (Michael W. Deem and Ramdas Pophale) SiO2 
 PCOD9583904
Probable space group: P 62 2 2
;
_chemical_formula_sum "Si O2"
_cell_formula_units_Z 54
_cell_length_a 12.445351
_cell_length_b 12.445351
_cell_length_c 20.004948
_cell_angle_alpha 90.000000
_cell_angle_beta 90.000000
_cell_angle_gamma 120.000000
_cell_volume 2683.381108
_symmetry_space_group_name_H-M "P 62 2 2"
_symmetry_group_IT_number 180
_symmetry_cell_setting 'hexagonal'
loop_
_space_group_symop_operation_xyz
x,y,z
x-y,x,1/3+z
-y,x-y,2/3+z
-x,-y,z
-x+y,-x,1/3+z
y,-x+y,2/3+z
x-y,-y,-z
-x,-x+y,1/3-z
y,x,2/3-z
-y,-x,2/3-z
-x+y,y,-z
x,x-y,1/3-z
loop_
_atom_site_type_symbol
_atom_site_label
_atom_site_fract_x
_atom_site_fract_y
_atom_site_fract_z
Si Si1 0.544460 0.854730 0.984769
Si Si2 0.041859 0.745347 0.968095
Si Si3 0.832517 0.090700 0.438884
Si Si4 0.500000 0.500000 0.096901
Si Si5 0.514296 0.228056 0.834555
O O1 0.544092 0.816603 0.908163
O O2 0.398808 0.797616 0.000000
O O3 0.623066 0.812104 0.028930
O O4 0.609572 0.000000 0.000000
O O5 0.975254 0.789679 0.914595
O O6 0.002644 0.605926 0.948765
O O7 0.988379 0.752596 0.039927
O O8 0.775142 0.178697 0.457675
O O9 0.811560 0.000000 0.500000
O O10 0.421994 0.545110 0.141642
O O11 0.637666 0.362335 0.833334
#
# Coordination Sequence:
#
# PCOD9583904 Si02
#       5
#    12  12  12   6  12
#     4  11  23  41  66  96 131 169 216 274 341 407
#     4  10  22  39  66  92 137 172 226 286 334 412
#     4  10  21  41  65  96 132 178 229 282 343 411
#     4  10  22  38  58  96 128 170 220 274 340 406
#     4  11  23  39  65  94 131 174 221 273 346 416
#
# _framework density 20.123866
#
# number of rings (size 3 to 8) (size 9 to 14) (size 15 to 20)
#    0.000    1.556    2.222    2.667    3.111    0.444 
#    0.000    5.556    4.889    0.000    0.000    0.000 
#    0.000    0.000    0.000    0.000    0.000    0.000 
#
# Total GULP energy -301366.819151 kJ/mol
# GULP energy per Si atom -5580.867021 kJ/mol
# Density = 2.007806 g / cm^3
# Si number density = 20.123866 Si / 1000 Ang^3
#
#
#
# Elastic Constant Matrix: (Units=GPa)
#
#
# Indices 1 2 3 4 5 6 
#
# 1 110.6371 59.4151 43.7006 0.0000 0.0000 0.0000
# 2 59.4151 110.6371 43.7006 0.0000 0.0000 0.0000
# 3 43.7006 43.7006 73.5273 0.0000 0.0000 0.0000
# 4 0.0000 0.0000 0.0000 11.6102 0.0000 0.0000
# 5 0.0000 0.0000 0.0000 0.0000 11.6102 0.0000
# 6 0.0000 0.0000 0.0000 0.0000 0.0000 25.6110
#
#
#
# Elastic Compliance Matrix: (Units=1/GPa)
#
#
# Indices 1 2 3 4 5 6 
#
# 1 0.013995 -0.005528 -0.005032 0.000000 0.000000 0.000000
# 2 -0.005528 0.013995 -0.005032 0.000000 0.000000 0.000000
# 3 -0.005032 -0.005032 0.019582 0.000000 0.000000 0.000000
# 4 0.000000 0.000000 0.000000 0.086131 0.000000 0.000000
# 5 0.000000 0.000000 0.000000 0.000000 0.086131 0.000000
# 6 0.000000 0.000000 0.000000 0.000000 0.000000 0.039046
#
#
# Mechanical properties :
#
#
# Convention : Reuss Voigt Hill
#
# Bulk Modulus (GPa) = 61.02407 65.38157 63.20282
# Shear Modulus (GPa) = 16.91888 19.63195 18.27542
#
# Velocity S-wave (km/s) = 2.90269 3.12678 3.01682
# Velocity P-wave (km/s) = 6.45168 6.75246 6.60379
#
# Compressibility (1/GPa) = 0.01638698
#
# Stress axis : x y z
#
# Youngs Moduli (GPa) = 71.45446 71.45446 51.06670
#
# Poissons Ratio (x) = 0.39500 0.25698
# Poissons Ratio (y) = 0.39500 0.25698
# Poissons Ratio (z) = 0.35958 0.35958
#
# Static dielectric constant tensor:
#      x y z
#    x 1.717490 0.000000 0.000000 
#    y 0.000000 1.717490 0.000000 
#    z 0.000000 0.000000 1.743030 
# 
# From -- ./inp_files/8854.got.cif
#   From: 2010.05.17/outbox.cif.g08.bks.cpg/sg180_5_cif.got.tgz:8854.got - 2010.05.20 11:43:55.
