data_PCOD9583465
_publ_section_title
;
Structure prediction by ZEFSAII (Michael W. Deem and Ramdas Pophale) SiO2 
 PCOD9583465
Probable space group: P 65 2 2
;
_chemical_formula_sum "Si O2"
_cell_formula_units_Z 48
_cell_length_a 18.593562
_cell_length_b 18.593562
_cell_length_c 7.189444
_cell_angle_alpha 90.000000
_cell_angle_beta 90.000000
_cell_angle_gamma 120.000000
_cell_volume 2152.539499
_symmetry_space_group_name_H-M "P 65 2 2"
_symmetry_group_IT_number 179
_symmetry_cell_setting 'hexagonal'
loop_
_space_group_symop_operation_xyz
x,y,z
x-y,x,5/6+z
-y,x-y,2/3+z
-x,-y,1/2+z
-x+y,-x,1/3+z
y,-x+y,1/6+z
x-y,-y,-z
-x,-x+y,1/3-z
y,x,2/3-z
-y,-x,1/6-z
-x+y,y,1/2-z
x,x-y,5/6-z
loop_
_atom_site_type_symbol
_atom_site_label
_atom_site_fract_x
_atom_site_fract_y
_atom_site_fract_z
Si Si1 0.595114 0.404887 0.083334
Si Si2 0.910482 0.202866 0.239714
Si Si3 0.184197 0.092099 0.916667
Si Si4 0.231091 0.771180 0.865535
Si Si5 0.917959 0.517716 0.071042
O O1 0.690723 0.449081 0.019701
O O2 0.591101 0.456606 0.259090
O O3 0.914139 0.156856 0.425703
O O4 0.851208 0.241447 0.269735
O O5 0.000000 0.269637 0.166667
O O6 0.867483 0.132518 0.083334
O O7 0.127853 0.127853 0.833334
O O8 0.312360 0.856078 0.810513
O O9 0.219229 0.780772 0.083334
O O10 0.000000 0.590926 0.166667
O O11 0.941432 0.470716 0.916667
#
# Coordination Sequence:
#
# PCOD9583465 Si02
#       5
#     6  12   6  12  12
#     4  10  24  46  66 102 139 184 237 286 354 422
#     4  12  26  44  73 107 143 190 239 290 361 430
#     4  12  26  48  74 104 149 186 237 294 358 430
#     4  10  25  46  71 103 145 188 235 304 353 424
#     4  11  24  43  71 101 140 184 236 288 356 415
#
# _framework density 22.299243000000001
#
# number of rings (size 3 to 8) (size 9 to 14) (size 15 to 20)
#    0.000    1.000    5.000    0.000    3.500   10.000 
#    0.000    0.000    0.000    0.000    0.000    0.000 
#    0.000    0.000    0.000    0.000    0.000    0.000 
#
# Total GULP energy -268580.546117 kJ/mol
# GULP energy per Si atom -5595.428044 kJ/mol
# Density = 2.224849 g / cm^3
# Si number density = 22.299243 Si / 1000 Ang^3
#
#
#
# Elastic Constant Matrix: (Units=GPa)
#
#
# Indices 1 2 3 4 5 6 
#
# 1 145.0656 86.2737 25.8271 0.0000 0.0000 0.0000
# 2 86.2737 145.0656 25.8271 0.0000 0.0000 0.0000
# 3 25.8271 25.8271 94.4085 0.0000 0.0000 0.0000
# 4 0.0000 0.0000 0.0000 27.8628 0.0000 0.0000
# 5 0.0000 0.0000 0.0000 0.0000 27.8628 0.0000
# 6 0.0000 0.0000 0.0000 0.0000 0.0000 29.3959
#
#
#
# Elastic Compliance Matrix: (Units=1/GPa)
#
#
# Indices 1 2 3 4 5 6 
#
# 1 0.010807 -0.006203 -0.001259 0.000000 0.000000 0.000000
# 2 -0.006203 0.010807 -0.001259 0.000000 0.000000 0.000000
# 3 -0.001259 -0.001259 0.011281 0.000000 0.000000 0.000000
# 4 0.000000 0.000000 0.000000 0.035890 0.000000 0.000000
# 5 0.000000 0.000000 0.000000 0.000000 0.035890 0.000000
# 6 0.000000 0.000000 0.000000 0.000000 0.000000 0.034018
#
#
# Mechanical properties :
#
#
# Convention : Reuss Voigt Hill
#
# Bulk Modulus (GPa) = 64.71976 73.37728 69.04852
# Shear Modulus (GPa) = 31.00075 33.46511 32.23293
#
# Velocity S-wave (km/s) = 3.73260 3.87813 3.80606
# Velocity P-wave (km/s) = 6.90382 7.28219 7.09553
#
# Compressibility (1/GPa) = 0.01545123
#
# Stress axis : x y z
#
# Youngs Moduli (GPa) = 92.53679 92.53679 88.64172
#
# Poissons Ratio (x) = 0.57397 0.11164
# Poissons Ratio (y) = 0.57397 0.11164
# Poissons Ratio (z) = 0.11655 0.11655
#
# Static dielectric constant tensor:
#      x y z
#    x 1.824250 0.000000 0.000000 
#    y 0.000000 1.824250 0.000000 
#    z 0.000000 0.000000 1.870760 
# 
# From -- ./inp_files/2853.got.cif
#   From: 2010.05.17/outbox.cif.g08.bks.cpg/sg179_2_cif.got.tgz:2853.got - 2010.05.20 11:37:33.
