data_PCOD9583268
_publ_section_title
;
Structure prediction by ZEFSAII (Michael W. Deem and Ramdas Pophale) SiO2 
 PCOD9583268
Probable space group: P 65 2 2
;
_chemical_formula_sum "Si O2"
_cell_formula_units_Z 66
_cell_length_a 21.270205
_cell_length_b 21.270205
_cell_length_c 8.168324
_cell_angle_alpha 90.000000
_cell_angle_beta 90.000000
_cell_angle_gamma 120.000000
_cell_volume 3200.419728
_symmetry_space_group_name_H-M "P 65 2 2"
_symmetry_group_IT_number 179
_symmetry_cell_setting 'hexagonal'
loop_
_space_group_symop_operation_xyz
x,y,z
x-y,x,5/6+z
-y,x-y,2/3+z
-x,-y,1/2+z
-x+y,-x,1/3+z
y,-x+y,1/6+z
x-y,-y,-z
-x,-x+y,1/3-z
y,x,2/3-z
-y,-x,1/6-z
-x+y,y,1/2-z
x,x-y,5/6-z
loop_
_atom_site_type_symbol
_atom_site_label
_atom_site_fract_x
_atom_site_fract_y
_atom_site_fract_z
Si Si1 0.650994 0.482862 0.638932
Si Si2 0.317595 0.775814 0.331526
Si Si3 0.368690 0.299728 0.719325
Si Si4 0.855791 0.890200 0.175940
Si Si5 0.210630 0.789371 0.083334
Si Si6 0.198556 0.929234 0.619149
O O1 0.570674 0.429327 0.583334
O O2 0.700068 0.450982 0.560989
O O3 0.658267 0.482217 0.835803
O O4 0.670119 0.557436 0.551521
O O5 0.385166 0.770332 0.250000
O O6 0.277751 0.801601 0.201135
O O7 0.351987 0.351987 0.833334
O O8 0.371800 0.237506 0.827292
O O9 0.309191 0.264463 0.578335
O O10 0.916468 0.885981 0.074759
O O11 0.838773 0.838773 0.333334
O O12 0.788218 0.866881 0.064541
O O13 0.159199 0.840802 0.583334
O O14 0.227469 0.000000 0.500000
#
# Coordination Sequence:
#
# PCOD9583268 Si02
#       6
#    12  12  12  12   6  12
#     4  10  23  41  68 105 144 181 226 277 337 410
#     4  10  20  37  68 109 149 180 219 280 347 403
#     4  11  27  46  68  93 133 179 233 278 344 400
#     4  10  21  41  59  88 122 161 201 260 331 401
#     4  10  24  42  68 100 138 180 228 286 336 410
#     4  12  26  42  67  93 126 164 224 277 341 400
#
# _framework density 20.622294
#
# number of rings (size 3 to 8) (size 9 to 14) (size 15 to 20)
#    0.000    1.455    1.818    2.727   11.455    1.455 
#    9.818    3.636    0.000    0.000    0.000    0.000 
#    0.000    0.000    0.000    0.000    0.000    0.000 
#
# Total GULP energy -367555.944735 kJ/mol
# GULP energy per Si atom -5569.029466 kJ/mol
# Density = 2.057536 g / cm^3
# Si number density = 20.622294 Si / 1000 Ang^3
#
#
#
# Elastic Constant Matrix: (Units=GPa)
#
#
# Indices 1 2 3 4 5 6 
#
# 1 70.6778 32.9522 46.0045 0.0000 0.0000 0.0000
# 2 32.9522 70.6778 46.0045 0.0000 0.0000 0.0000
# 3 46.0045 46.0045 109.5254 0.0000 0.0000 0.0000
# 4 0.0000 0.0000 0.0000 27.8453 0.0000 0.0000
# 5 0.0000 0.0000 0.0000 0.0000 27.8453 0.0000
# 6 0.0000 0.0000 0.0000 0.0000 0.0000 18.8628
#
#
#
# Elastic Compliance Matrix: (Units=1/GPa)
#
#
# Indices 1 2 3 4 5 6 
#
# 1 0.020948 -0.005559 -0.006464 0.000000 0.000000 0.000000
# 2 -0.005559 0.020948 -0.006464 0.000000 0.000000 0.000000
# 3 -0.006464 -0.006464 0.014560 0.000000 0.000000 0.000000
# 4 0.000000 0.000000 0.000000 0.035913 0.000000 0.000000
# 5 0.000000 0.000000 0.000000 0.000000 0.035913 0.000000
# 6 0.000000 0.000000 0.000000 0.000000 0.000000 0.053014
#
#
# Mechanical properties :
#
#
# Convention : Reuss Voigt Hill
#
# Bulk Modulus (GPa) = 51.32802 55.64483 53.48643
# Shear Modulus (GPa) = 22.24557 23.30534 22.77545
#
# Velocity S-wave (km/s) = 3.28794 3.36535 3.32687
# Velocity P-wave (km/s) = 6.27357 6.49170 6.38357
#
# Compressibility (1/GPa) = 0.01948253
#
# Stress axis : x y z
#
# Youngs Moduli (GPa) = 47.73740 47.73740 68.67978
#
# Poissons Ratio (x) = 0.26539 0.44393
# Poissons Ratio (y) = 0.26539 0.44393
# Poissons Ratio (z) = 0.30856 0.30856
#
# Static dielectric constant tensor:
#      x y z
#    x 0.440350 0.000000 0.000000 
#    y 0.000000 0.440350 0.000000 
#    z 0.000000 0.000000 1.656930 
# 
# From -- ./inp_files/3380.got.cif
#   From: 2010.05.17/outbox.cif.g08.bks.cpg/sg179_2_cif.got.tgz:3380.got - 2010.05.20 11:37:33.
