data_PCOD9583551
_publ_section_title
;
Structure prediction by ZEFSAII (Michael W. Deem and Ramdas Pophale) SiO2 
 PCOD9583551
Probable space group: P 65 2 2
;
_chemical_formula_sum "Si O2"
_cell_formula_units_Z 54
_cell_length_a 13.950348
_cell_length_b 13.950348
_cell_length_c 14.673580
_cell_angle_alpha 90.000000
_cell_angle_beta 90.000000
_cell_angle_gamma 120.000000
_cell_volume 2473.072219
_symmetry_space_group_name_H-M "P 65 2 2"
_symmetry_group_IT_number 179
_symmetry_cell_setting 'hexagonal'
loop_
_space_group_symop_operation_xyz
x,y,z
x-y,x,5/6+z
-y,x-y,2/3+z
-x,-y,1/2+z
-x+y,-x,1/3+z
y,-x+y,1/6+z
x-y,-y,-z
-x,-x+y,1/3-z
y,x,2/3-z
-y,-x,1/6-z
-x+y,y,1/2-z
x,x-y,5/6-z
loop_
_atom_site_type_symbol
_atom_site_label
_atom_site_fract_x
_atom_site_fract_y
_atom_site_fract_z
Si Si1 0.597033 0.898154 0.445601
Si Si2 0.379282 0.401218 0.063767
Si Si3 0.143714 0.000000 0.500000
Si Si4 0.760411 0.406385 0.657117
Si Si5 0.137182 0.768988 0.777748
O O1 0.645101 0.822551 0.416667
O O2 0.567441 0.939489 0.354332
O O3 0.485719 0.829324 0.502794
O O4 0.685236 0.000000 0.500000
O O5 0.470857 0.529144 0.083334
O O6 0.362756 0.310273 0.142531
O O7 0.261297 0.388995 0.035131
O O8 0.113865 0.056933 0.416667
O O9 0.257268 0.083877 0.551335
O O10 0.666832 0.333169 0.583334
O O11 0.706509 0.413017 0.750000
O O12 0.839415 0.527562 0.617884
#
# Coordination Sequence:
#
# PCOD9583551 Si02
#       5
#    12  12   6  12  12
#     4  11  26  45  70 102 151 193 250 307 378 456
#     4  12  26  47  74 112 153 202 255 323 397 474
#     4  12  26  52  80 118 152 208 276 338 398 474
#     4  11  27  42  72 109 151 196 247 305 386 466
#     4  12  26  46  78 110 154 201 260 322 391 471
#
# _framework density 21.835190000000001
#
# number of rings (size 3 to 8) (size 9 to 14) (size 15 to 20)
#    0.000    0.444    4.444    2.667   14.000    0.000 
#    0.000    1.111    0.000    0.000    0.000    0.000 
#    0.000    0.000    0.000    0.000    0.000    0.000 
#
# Total GULP energy -301848.263015 kJ/mol
# GULP energy per Si atom -5589.782648 kJ/mol
# Density = 2.178549 g / cm^3
# Si number density = 21.835190 Si / 1000 Ang^3
#
#
#
# Elastic Constant Matrix: (Units=GPa)
#
#
# Indices 1 2 3 4 5 6 
#
# 1 123.6662 47.1989 56.7615 0.0000 0.0000 0.0000
# 2 47.1989 123.6662 56.7615 0.0000 0.0000 0.0000
# 3 56.7615 56.7615 84.4055 0.0000 0.0000 0.0000
# 4 0.0000 0.0000 0.0000 1.3842 0.0000 0.0000
# 5 0.0000 0.0000 0.0000 0.0000 1.3842 0.0000
# 6 0.0000 0.0000 0.0000 0.0000 0.0000 38.2337
#
#
#
# Elastic Compliance Matrix: (Units=1/GPa)
#
#
# Indices 1 2 3 4 5 6 
#
# 1 0.011828 -0.001249 -0.007115 0.000000 0.000000 0.000000
# 2 -0.001249 0.011828 -0.007115 0.000000 0.000000 0.000000
# 3 -0.007115 -0.007115 0.021416 0.000000 0.000000 0.000000
# 4 0.000000 0.000000 0.000000 0.722433 0.000000 0.000000
# 5 0.000000 0.000000 0.000000 0.000000 0.722433 0.000000
# 6 0.000000 0.000000 0.000000 0.000000 0.000000 0.026155
#
#
# Mechanical properties :
#
#
# Convention : Reuss Voigt Hill
#
# Bulk Modulus (GPa) = 70.83558 72.57574 71.70566
# Shear Modulus (GPa) = 3.22216 19.60148 11.41182
#
# Velocity S-wave (km/s) = 1.21609 2.99942 2.28860
# Velocity P-wave (km/s) = 5.87225 6.73093 6.31620
#
# Compressibility (1/GPa) = 0.01411720
#
# Stress axis : x y z
#
# Youngs Moduli (GPa) = 84.54165 84.54165 46.69305
#
# Poissons Ratio (x) = 0.10559 0.33220
# Poissons Ratio (y) = 0.10559 0.33220
# Poissons Ratio (z) = 0.60148 0.60148
#
# Static dielectric constant tensor:
#      x y z
#    x 1.827140 0.000000 0.000000 
#    y 0.000000 1.827140 0.000000 
#    z 0.000000 0.000000 1.853320 
# 
# From -- ./inp_files/5664.got.cif
#   From: 2010.05.17/outbox.cif.g08.bks.cpg/sg179_3_cif.got.tgz:5664.got - 2010.05.20 11:37:33.
