data_PCOD9583638
_publ_section_title
;
Structure prediction by ZEFSAII (Michael W. Deem and Ramdas Pophale) SiO2 
 PCOD9583638
Probable space group: P 62 2 2
;
_chemical_formula_sum "Si O2"
_cell_formula_units_Z 33
_cell_length_a 9.134318
_cell_length_b 9.134318
_cell_length_c 24.336757
_cell_angle_alpha 90.000000
_cell_angle_beta 90.000000
_cell_angle_gamma 120.000000
_cell_volume 1758.513033
_symmetry_space_group_name_H-M "P 62 2 2"
_symmetry_group_IT_number 180
_symmetry_cell_setting 'hexagonal'
loop_
_space_group_symop_operation_xyz
x,y,z
x-y,x,1/3+z
-y,x-y,2/3+z
-x,-y,z
-x+y,-x,1/3+z
y,-x+y,2/3+z
x-y,-y,-z
-x,-x+y,1/3-z
y,x,2/3-z
-y,-x,2/3-z
-x+y,y,-z
x,x-y,1/3-z
loop_
_atom_site_type_symbol
_atom_site_label
_atom_site_fract_x
_atom_site_fract_y
_atom_site_fract_z
Si Si1 0.715046 0.683051 0.111684
Si Si2 0.500000 0.500000 0.212826
Si Si3 0.000000 0.000000 0.833334
Si Si4 0.663688 0.394677 0.605977
O O1 0.624108 0.643555 0.171000
O O2 0.588087 0.699969 0.068680
O O3 0.714171 0.512649 0.093387
O O4 0.890651 0.845356 0.125142
O O5 0.598266 0.427461 0.247205
O O6 0.641560 0.320780 0.666667
#
# Coordination Sequence:
#
# PCOD9583638 Si02
#       4
#    12   6   3  12
#     4  10  21  40  63  92 125 172 222 266 323 402
#     4  10  17  40  66  92 120 176 221 264 312 416
#     4  12  20  44  68  92 132 174 228 292 316 386
#     4  10  20  39  64  91 128 167 212 273 330 400
#
# _framework density 18.765853
#
# number of rings (size 3 to 8) (size 9 to 14) (size 15 to 20)
#    0.000    2.182    3.636    3.818    0.000    0.000 
#   13.091    2.727    0.000    0.000    0.000    0.000 
#    0.000    0.000    0.000    0.000    0.000    0.000 
#
# Total GULP energy -183737.780989 kJ/mol
# GULP energy per Si atom -5567.811545 kJ/mol
# Density = 1.872314 g / cm^3
# Si number density = 18.765853 Si / 1000 Ang^3
#
#
#
# Elastic Constant Matrix: (Units=GPa)
#
#
# Indices 1 2 3 4 5 6 
#
# 1 122.0356 53.1972 49.2489 0.0000 0.0000 0.0000
# 2 53.1972 122.0356 49.2489 0.0000 0.0000 0.0000
# 3 49.2489 49.2489 99.8537 0.0000 0.0000 0.0000
# 4 0.0000 0.0000 0.0000 26.9540 0.0000 0.0000
# 5 0.0000 0.0000 0.0000 0.0000 26.9540 0.0000
# 6 0.0000 0.0000 0.0000 0.0000 0.0000 34.4192
#
#
#
# Elastic Compliance Matrix: (Units=1/GPa)
#
#
# Indices 1 2 3 4 5 6 
#
# 1 0.011211 -0.003316 -0.003894 0.000000 0.000000 0.000000
# 2 -0.003316 0.011211 -0.003894 0.000000 0.000000 0.000000
# 3 -0.003894 -0.003894 0.013856 0.000000 0.000000 0.000000
# 4 0.000000 0.000000 0.000000 0.037100 0.000000 0.000000
# 5 0.000000 0.000000 0.000000 0.000000 0.037100 0.000000
# 6 0.000000 0.000000 0.000000 0.000000 0.000000 0.029054
#
#
# Mechanical properties :
#
#
# Convention : Reuss Voigt Hill
#
# Bulk Modulus (GPa) = 71.07123 71.92391 71.49757
# Shear Modulus (GPa) = 30.04255 30.48075 30.26165
#
# Velocity S-wave (km/s) = 4.00549 4.03459 4.02006
# Velocity P-wave (km/s) = 7.70368 7.75333 7.72855
#
# Compressibility (1/GPa) = 0.01407039
#
# Stress axis : x y z
#
# Youngs Moduli (GPa) = 89.19655 89.19655 72.17103
#
# Poissons Ratio (x) = 0.29574 0.28105
# Poissons Ratio (y) = 0.29574 0.28105
# Poissons Ratio (z) = 0.34735 0.34735
#
# Static dielectric constant tensor:
#      x y z
#    x 1.733910 0.000000 0.000000 
#    y 0.000000 1.733910 0.000000 
#    z 0.000000 0.000000 1.621300 
# 
# From -- ./inp_files/10652.got.cif
#   From: 2010.05.17/outbox.cif.g08.bks.cpg/sg180_6_cif.got.tgz:10652.got - 2010.05.20 11:43:55.
