data_PCOD9583390
_publ_section_title
;
Structure prediction by ZEFSAII (Michael W. Deem and Ramdas Pophale) SiO2 
 PCOD9583390
Probable space group: P 65 2 2
;
_chemical_formula_sum "Si O2"
_cell_formula_units_Z 66
_cell_length_a 14.952564
_cell_length_b 14.952564
_cell_length_c 16.859208
_cell_angle_alpha 90.000000
_cell_angle_beta 90.000000
_cell_angle_gamma 120.000000
_cell_volume 3264.368214
_symmetry_space_group_name_H-M "P 65 2 2"
_symmetry_group_IT_number 179
_symmetry_cell_setting 'hexagonal'
loop_
_space_group_symop_operation_xyz
x,y,z
x-y,x,5/6+z
-y,x-y,2/3+z
-x,-y,1/2+z
-x+y,-x,1/3+z
y,-x+y,1/6+z
x-y,-y,-z
-x,-x+y,1/3-z
y,x,2/3-z
-y,-x,1/6-z
-x+y,y,1/2-z
x,x-y,5/6-z
loop_
_atom_site_type_symbol
_atom_site_label
_atom_site_fract_x
_atom_site_fract_y
_atom_site_fract_z
Si Si1 0.788032 0.576063 0.750000
Si Si2 0.114987 0.561268 0.821372
Si Si3 0.758177 0.474662 0.920852
Si Si4 0.689315 0.700649 0.707756
Si Si5 0.340548 0.278497 0.916234
Si Si6 0.905751 0.694056 0.957926
O O1 0.760299 0.511287 0.830768
O O2 0.738940 0.648916 0.760593
O O3 0.110897 0.555449 0.916667
O O4 0.229859 0.644111 0.790984
O O5 0.076175 0.448159 0.785273
O O6 0.055514 0.621660 0.792884
O O7 0.809262 0.404631 0.916667
O O8 0.829308 0.572571 0.975285
O O9 0.725685 0.819510 0.725138
O O10 0.731761 0.701067 0.619950
O O11 0.315569 0.315569 0.833334
O O12 0.349863 0.174932 0.916667
O O13 0.244118 0.256977 0.972390
#
# Coordination Sequence:
#
# PCOD9583390 Si02
#       6
#     6  12  12  12  12  12
#     4  10  24  40  68 100 134 174 236 272 352 400
#     4  11  24  42  65  96 138 180 223 269 344 410
#     4  10  24  38  65 100 139 177 219 281 326 412
#     4  10  22  42  68  94 129 174 221 282 334 403
#     4  12  27  43  71 102 136 182 229 284 346 422
#     4  10  22  42  66  90 131 175 219 275 338 401
#
# _framework density 20.218306999999999
#
# number of rings (size 3 to 8) (size 9 to 14) (size 15 to 20)
#    0.000    1.455    1.818    1.636   11.455    5.818 
#    0.000    0.000   12.000    0.000    0.000    0.000 
#    0.000    0.000    0.000    0.000    0.000    0.000 
#
# Total GULP energy -368231.847593 kJ/mol
# GULP energy per Si atom -5579.270418 kJ/mol
# Density = 2.017229 g / cm^3
# Si number density = 20.218307 Si / 1000 Ang^3
#
#
#
# Elastic Constant Matrix: (Units=GPa)
#
#
# Indices 1 2 3 4 5 6 
#
# 1 82.2886 44.3883 31.9189 0.0000 0.0000 0.0000
# 2 44.3883 82.2886 31.9189 0.0000 0.0000 0.0000
# 3 31.9189 31.9189 93.2431 0.0000 0.0000 0.0000
# 4 0.0000 0.0000 0.0000 26.7859 0.0000 0.0000
# 5 0.0000 0.0000 0.0000 0.0000 26.7859 0.0000
# 6 0.0000 0.0000 0.0000 0.0000 0.0000 18.9502
#
#
#
# Elastic Compliance Matrix: (Units=1/GPa)
#
#
# Indices 1 2 3 4 5 6 
#
# 1 0.017962 -0.008423 -0.003266 0.000000 0.000000 0.000000
# 2 -0.008423 0.017962 -0.003266 0.000000 0.000000 0.000000
# 3 -0.003266 -0.003266 0.012960 0.000000 0.000000 0.000000
# 4 0.000000 0.000000 0.000000 0.037333 0.000000 0.000000
# 5 0.000000 0.000000 0.000000 0.000000 0.037333 0.000000
# 6 0.000000 0.000000 0.000000 0.000000 0.000000 0.052770
#
#
# Mechanical properties :
#
#
# Convention : Reuss Voigt Hill
#
# Bulk Modulus (GPa) = 52.69417 52.69692 52.69555
# Shear Modulus (GPa) = 23.52334 24.47736 24.00035
#
# Velocity S-wave (km/s) = 3.41466 3.48322 3.44911
# Velocity P-wave (km/s) = 6.45490 6.50366 6.47933
#
# Compressibility (1/GPa) = 0.01897743
#
# Stress axis : x y z
#
# Youngs Moduli (GPa) = 55.67187 55.67187 77.15781
#
# Poissons Ratio (x) = 0.46890 0.25197
# Poissons Ratio (y) = 0.46890 0.25197
# Poissons Ratio (z) = 0.18181 0.18181
#
# Static dielectric constant tensor:
#      x y z
#    x 1.755060 0.000000 0.000000 
#    y 0.000000 1.755060 0.000000 
#    z 0.000000 0.000000 1.780240 
# 
# From -- ./inp_files/6720.got.cif
#   From: 2010.05.17/outbox.cif.g08.bks.cpg/sg179_4_cif.got.tgz:6720.got - 2010.05.20 11:37:33.
