data_PCOD9583319
_publ_section_title
;
Structure prediction by ZEFSAII (Michael W. Deem and Ramdas Pophale) SiO2 
 PCOD9583319
Probable space group: P 65 2 2
;
_chemical_formula_sum "Si O2"
_cell_formula_units_Z 72
_cell_length_a 14.470240
_cell_length_b 14.470240
_cell_length_c 17.265446
_cell_angle_alpha 90.000000
_cell_angle_beta 90.000000
_cell_angle_gamma 120.000000
_cell_volume 3130.832993
_symmetry_space_group_name_H-M "P 65 2 2"
_symmetry_group_IT_number 179
_symmetry_cell_setting 'hexagonal'
loop_
_space_group_symop_operation_xyz
x,y,z
x-y,x,5/6+z
-y,x-y,2/3+z
-x,-y,1/2+z
-x+y,-x,1/3+z
y,-x+y,1/6+z
x-y,-y,-z
-x,-x+y,1/3-z
y,x,2/3-z
-y,-x,1/6-z
-x+y,y,1/2-z
x,x-y,5/6-z
loop_
_atom_site_type_symbol
_atom_site_label
_atom_site_fract_x
_atom_site_fract_y
_atom_site_fract_z
Si Si1 0.265005 0.956480 0.087251
Si Si2 0.454035 0.834838 0.396485
Si Si3 0.460826 0.764988 0.683515
Si Si4 0.897436 0.703992 0.941399
Si Si5 0.369309 0.519645 0.271285
Si Si6 0.715478 0.964069 0.889751
O O1 0.150675 0.849326 0.083334
O O2 0.353284 0.927365 0.119821
O O3 0.256355 0.038553 0.145369
O O4 0.297421 0.000000 0.000000
O O5 0.468820 0.734410 0.416667
O O6 0.357548 0.786796 0.335009
O O7 0.405979 0.857850 0.473824
O O8 0.381025 0.762051 0.750000
O O9 0.578018 0.823600 0.716804
O O10 0.451954 0.831222 0.612687
O O11 0.974312 0.723905 0.869633
O O12 0.817650 0.745719 0.916655
O O13 0.259127 0.518253 0.250000
O O14 0.343327 0.401494 0.248058
O O15 0.720475 0.860238 0.916667
#
# Coordination Sequence:
#
# PCOD9583319 Si02
#       6
#    12  12  12  12  12  12
#     4  11  25  47  70  97 138 186 243 298 355 427
#     4  10  21  38  65  98 139 188 229 272 348 438
#     4  11  20  38  62  98 141 174 221 271 347 431
#     4  12  25  45  69 100 140 180 237 307 359 431
#     4  11  19  38  68  97 142 186 228 289 346 431
#     4  11  25  45  71 101 136 182 242 309 370 418
#
# _framework density 22.997073
#
# number of rings (size 3 to 8) (size 9 to 14) (size 15 to 20)
#    0.000    1.000    5.000    3.500    0.000    4.000 
#    0.000    6.667    0.000    0.000    0.000    0.000 
#    0.000    0.000    0.000    0.000    0.000    0.000 
#
# Total GULP energy -402703.332766 kJ/mol
# GULP energy per Si atom -5593.101844 kJ/mol
# Density = 2.294473 g / cm^3
# Si number density = 22.997073 Si / 1000 Ang^3
#
#
#
# Elastic Constant Matrix: (Units=GPa)
#
#
# Indices 1 2 3 4 5 6 
#
# 1 664.9986 -527.3372 24.4692 0.0000 0.0000 -0.0001
# 2 -527.3372 664.9986 24.4692 0.0000 0.0000 0.0001
# 3 24.4692 24.4692 98.9972 0.0000 0.0000 0.0000
# 4 0.0000 0.0000 0.0000 12.5400 0.0000 0.0000
# 5 0.0000 0.0000 0.0000 0.0000 12.5400 0.0000
# 6 -0.0001 0.0001 0.0000 0.0000 0.0000 596.1680
#
#
#
# Elastic Compliance Matrix: (Units=1/GPa)
#
#
# Indices 1 2 3 4 5 6 
#
# 1 0.004401 0.003563 -0.001968 0.000000 0.000000 0.000000
# 2 0.003563 0.004401 -0.001968 0.000000 0.000000 0.000000
# 3 -0.001968 -0.001968 0.011074 0.000000 0.000000 0.000000
# 4 0.000000 0.000000 0.000000 0.079745 0.000000 0.000000
# 5 0.000000 0.000000 0.000000 0.000000 0.079745 0.000000
# 6 0.000000 0.000000 0.000000 0.000000 0.000000 0.001677
#
#
# Mechanical properties :
#
#
# Convention : Reuss Voigt Hill
#
# Bulk Modulus (GPa) = 52.27798 52.46629 52.37213
# Shear Modulus (GPa) = 26.57185 251.40914 138.99049
#
# Velocity S-wave (km/s) = 3.40287 10.46707 7.78264
# Velocity P-wave (km/s) = 6.18233 12.99782 10.17754
#
# Compressibility (1/GPa) = 0.01912851
#
# Stress axis : x y z
#
# Youngs Moduli (GPa) = 227.20361 227.20361 90.29848
#
# Poissons Ratio (x) = -0.80945 0.17775
# Poissons Ratio (y) = -0.80945 0.17775
# Poissons Ratio (z) = 0.44724 0.44724
#
# Static dielectric constant tensor:
#      x y z
#    x 1.879070 0.000000 0.000000 
#    y 0.000000 1.879070 0.000000 
#    z 0.000000 0.000000 1.801910 
# 
# From -- ./inp_files/6846.got.cif
#   From: 2010.05.17/outbox.cif.g08.bks.cpg/sg179_4_cif.got.tgz:6846.got - 2010.05.20 11:37:33.
