data_PCOD9583583
_publ_section_title
;
Structure prediction by ZEFSAII (Michael W. Deem and Ramdas Pophale) SiO2 
 PCOD9583583
Probable space group: P 65 2 2
;
_chemical_formula_sum "Si O2"
_cell_formula_units_Z 42
_cell_length_a 13.830496
_cell_length_b 13.830496
_cell_length_c 12.026594
_cell_angle_alpha 90.000000
_cell_angle_beta 90.000000
_cell_angle_gamma 120.000000
_cell_volume 1992.272740
_symmetry_space_group_name_H-M "P 65 2 2"
_symmetry_group_IT_number 179
_symmetry_cell_setting 'hexagonal'
loop_
_space_group_symop_operation_xyz
x,y,z
x-y,x,5/6+z
-y,x-y,2/3+z
-x,-y,1/2+z
-x+y,-x,1/3+z
y,-x+y,1/6+z
x-y,-y,-z
-x,-x+y,1/3-z
y,x,2/3-z
-y,-x,1/6-z
-x+y,y,1/2-z
x,x-y,5/6-z
loop_
_atom_site_type_symbol
_atom_site_label
_atom_site_fract_x
_atom_site_fract_y
_atom_site_fract_z
Si Si1 0.120381 0.751446 0.192613
Si Si2 0.204411 0.071079 0.637861
Si Si3 0.401857 0.582668 0.214995
Si Si4 0.000000 0.646126 0.666667
O O1 0.098668 0.829639 0.274756
O O2 0.186282 0.695598 0.243957
O O3 0.000000 0.647867 0.166667
O O4 0.180441 0.819560 0.083334
O O5 0.154721 0.116096 0.540957
O O6 0.301454 0.050957 0.587117
O O7 0.295252 0.590505 0.250000
O O8 0.380003 0.467345 0.271615
O O9 0.418747 0.581254 0.083334
#
# Coordination Sequence:
#
# PCOD9583583 Si02
#       4
#    12  12  12   6
#     4  12  25  47  73 107 146 193 247 307 371 441
#     4  12  26  49  72 108 150 196 247 305 375 447
#     4  12  26  48  76 110 147 194 249 306 372 444
#     4  12  26  48  74 104 150 192 244 310 370 442
#
# _framework density 21.081448999999999
#
# number of rings (size 3 to 8) (size 9 to 14) (size 15 to 20)
#    0.000    0.000    4.286    6.857    0.000    0.000 
#   12.857    0.000    0.000    0.000    0.000    0.000 
#    0.000    0.000    0.000    0.000    0.000    0.000 
#
# Total GULP energy -234896.100229 kJ/mol
# GULP energy per Si atom -5592.764291 kJ/mol
# Density = 2.103347 g / cm^3
# Si number density = 21.081449 Si / 1000 Ang^3
#
#
#
# Elastic Constant Matrix: (Units=GPa)
#
#
# Indices 1 2 3 4 5 6 
#
# 1 34.4803 143.7191 62.9166 0.0000 0.0000 0.0000
# 2 143.7191 34.4803 62.9166 0.0000 0.0000 0.0000
# 3 62.9166 62.9166 153.4936 0.0000 0.0000 0.0000
# 4 0.0000 0.0000 0.0000 25.8151 0.0000 0.0000
# 5 0.0000 0.0000 0.0000 0.0000 25.8151 0.0000
# 6 0.0000 0.0000 0.0000 0.0000 0.0000 -54.6194
#
#
#
# Elastic Compliance Matrix: (Units=1/GPa)
#
#
# Indices 1 2 3 4 5 6 
#
# 1 -0.000628 0.008526 -0.003237 0.000000 0.000000 0.000000
# 2 0.008526 -0.000628 -0.003237 0.000000 0.000000 0.000000
# 3 -0.003237 -0.003237 0.009169 0.000000 0.000000 0.000000
# 4 0.000000 0.000000 0.000000 0.038737 0.000000 0.000000
# 5 0.000000 0.000000 0.000000 0.000000 0.038737 0.000000
# 6 0.000000 0.000000 0.000000 0.000000 0.000000 -0.018309
#
#
# Mechanical properties :
#
#
# Convention : Reuss Voigt Hill
#
# Bulk Modulus (GPa) = 83.22819 84.61762 83.92291
# Shear Modulus (GPa) = 74.64945 -3.73771 35.45587
#
# Velocity S-wave (km/s) = 5.95709 -1.33298 4.10549
# Velocity P-wave (km/s) = 9.32099 6.15276 7.89738
#
# Compressibility (1/GPa) = 0.01201516
#
# Stress axis : x y z
#
# Youngs Moduli (GPa) = -1591.51900 -1591.51898 109.06596
#
# Poissons Ratio (x) = 13.56918 0.35307
# Poissons Ratio (y) = 13.56918 0.35307
# Poissons Ratio (z) = -5.15207 -5.15207
#
# Static dielectric constant tensor:
#      x y z
#    x 1.818070 0.000000 0.000000 
#    y 0.000000 1.818070 0.000000 
#    z 0.000000 0.000000 1.768970 
# 
# From -- ./inp_files/4087.got.cif
#   From: 2010.05.17/outbox.cif.g08.bks.cpg/sg179_3_cif.got.tgz:4087.got - 2010.05.20 11:37:33.
