data_PCOD9583696
_publ_section_title
;
Structure prediction by ZEFSAII (Michael W. Deem and Ramdas Pophale) SiO2 
 PCOD9583696
Probable space group: P 62 2 2
;
_chemical_formula_sum "Si O2"
_cell_formula_units_Z 66
_cell_length_a 28.872374
_cell_length_b 28.872374
_cell_length_c 5.805727
_cell_angle_alpha 90.000000
_cell_angle_beta 90.000000
_cell_angle_gamma 120.000000
_cell_volume 4191.333625
_symmetry_space_group_name_H-M "P 62 2 2"
_symmetry_group_IT_number 180
_symmetry_cell_setting 'hexagonal'
loop_
_space_group_symop_operation_xyz
x,y,z
x-y,x,1/3+z
-y,x-y,2/3+z
-x,-y,z
-x+y,-x,1/3+z
y,-x+y,2/3+z
x-y,-y,-z
-x,-x+y,1/3-z
y,x,2/3-z
-y,-x,2/3-z
-x+y,y,-z
x,x-y,1/3-z
loop_
_atom_site_type_symbol
_atom_site_label
_atom_site_fract_x
_atom_site_fract_y
_atom_site_fract_z
Si Si1 0.868115 0.348966 0.436723
Si Si2 0.493925 0.740481 0.419778
Si Si3 0.105490 0.552745 0.166667
Si Si4 0.060653 0.680811 0.129478
Si Si5 0.411682 0.465106 0.475365
Si Si6 0.169411 0.782208 0.081798
O O1 0.816390 0.299814 0.545833
O O2 0.859735 0.385760 0.250629
O O3 0.911145 0.333535 0.339016
O O4 0.896570 0.388748 0.642902
O O5 0.464352 0.732176 0.666667
O O6 0.547318 0.799536 0.417790
O O7 0.468352 0.734176 0.166667
O O8 0.064459 0.510695 0.347057
O O9 0.105985 0.741223 0.073792
O O10 0.000000 0.667731 0.166667
O O11 0.054544 0.638491 0.934762
O O12 0.443032 0.443032 0.333334
O O13 0.186785 0.813216 0.333334
O O14 0.187007 0.812994 0.833334
#
# Coordination Sequence:
#
# PCOD9583696 Si02
#       6
#    12  12   6  12  12  12
#     4  11  21  37  50  72 101 136 168 213 256 311
#     4  10  19  33  56  75  96 126 161 209 256 305
#     4  10  26  35  48  70  98 140 174 214 248 312
#     4  11  21  34  51  78 102 137 177 216 259 313
#     4  11  22  36  50  65  99 143 175 206 251 311
#     4  10  19  33  53  76 101 133 168 216 259 303
#
# _framework density 15.746779
#
# number of rings (size 3 to 8) (size 9 to 14) (size 15 to 20)
#    0.000    1.455    5.455    2.727    2.545    2.182 
#    0.000    0.000    0.000    0.000    0.000    0.000 
#    0.000    2.909    3.091    0.000    0.000    0.000 
#
# Total GULP energy -367475.119550 kJ/mol
# GULP energy per Si atom -5567.804842 kJ/mol
# Density = 1.571094 g / cm^3
# Si number density = 15.746779 Si / 1000 Ang^3
#
#
#
# Elastic Constant Matrix: (Units=GPa)
#
#
# Indices 1 2 3 4 5 6 
#
# 1 43.5428 36.7606 26.9959 0.0000 0.0000 0.0000
# 2 36.7606 43.5428 26.9959 0.0000 0.0000 0.0000
# 3 26.9959 26.9959 126.0648 0.0000 0.0000 0.0000
# 4 0.0000 0.0000 0.0000 17.8627 0.0000 0.0000
# 5 0.0000 0.0000 0.0000 0.0000 17.8627 0.0000
# 6 0.0000 0.0000 0.0000 0.0000 0.0000 3.3911
#
#
#
# Elastic Compliance Matrix: (Units=1/GPa)
#
#
# Indices 1 2 3 4 5 6 
#
# 1 0.080995 -0.066448 -0.003115 0.000000 0.000000 0.000000
# 2 -0.066448 0.080995 -0.003115 0.000000 0.000000 0.000000
# 3 -0.003115 -0.003115 0.009267 0.000000 0.000000 0.000000
# 4 0.000000 0.000000 0.000000 0.055982 0.000000 0.000000
# 5 0.000000 0.000000 0.000000 0.000000 0.055982 0.000000
# 6 0.000000 0.000000 0.000000 0.000000 0.000000 0.294887
#
#
# Mechanical properties :
#
#
# Convention : Reuss Voigt Hill
#
# Bulk Modulus (GPa) = 38.60948 43.85058 41.23003
# Shear Modulus (GPa) = 6.82966 15.98319 11.40643
#
# Velocity S-wave (km/s) = 2.08485 3.18938 2.69432
# Velocity P-wave (km/s) = 5.51069 6.43977 5.99326
#
# Compressibility (1/GPa) = 0.02590037
#
# Stress axis : x y z
#
# Youngs Moduli (GPa) = 12.34637 12.34637 107.91417
#
# Poissons Ratio (x) = 0.82039 0.33617
# Poissons Ratio (y) = 0.82039 0.33617
# Poissons Ratio (z) = 0.03846 0.03846
#
# Static dielectric constant tensor:
#      x y z
#    x 1.539690 0.000000 0.000000 
#    y 0.000000 1.539690 0.000000 
#    z 0.000000 0.000000 1.618800 
# 
# From -- ./inp_files/1638.got.cif
#   From: 2010.05.17/outbox.cif.g08.bks.cpg/sg180_1_cif.got.tgz:1638.got - 2010.05.20 11:43:55.
