data_PCOD9583403
_publ_section_title
;
Structure prediction by ZEFSAII (Michael W. Deem and Ramdas Pophale) SiO2 
 PCOD9583403
Probable space group: P 65 2 2
;
_chemical_formula_sum "Si O2"
_cell_formula_units_Z 60
_cell_length_a 13.903897
_cell_length_b 13.903897
_cell_length_c 14.818118
_cell_angle_alpha 90.000000
_cell_angle_beta 90.000000
_cell_angle_gamma 120.000000
_cell_volume 2480.828625
_symmetry_space_group_name_H-M "P 65 2 2"
_symmetry_group_IT_number 179
_symmetry_cell_setting 'hexagonal'
loop_
_space_group_symop_operation_xyz
x,y,z
x-y,x,5/6+z
-y,x-y,2/3+z
-x,-y,1/2+z
-x+y,-x,1/3+z
y,-x+y,1/6+z
x-y,-y,-z
-x,-x+y,1/3-z
y,x,2/3-z
-y,-x,1/6-z
-x+y,y,1/2-z
x,x-y,5/6-z
loop_
_atom_site_type_symbol
_atom_site_label
_atom_site_fract_x
_atom_site_fract_y
_atom_site_fract_z
Si Si1 0.880935 0.000000 0.000000
Si Si2 0.885388 0.460409 0.213046
Si Si3 0.365058 0.202408 0.106607
Si Si4 0.823953 0.176047 0.583334
Si Si5 0.163355 0.581678 0.916667
Si Si6 0.090168 0.763041 0.455636
Si Si7 0.514844 0.257422 0.416667
O O1 0.763205 0.890720 0.021148
O O2 0.963831 0.036169 0.083334
O O3 0.874219 0.569306 0.223450
O O4 0.890675 0.436592 0.318364
O O5 0.786511 0.360964 0.154191
O O6 0.000000 0.490906 0.166667
O O7 0.494991 0.284974 0.082266
O O8 0.355372 0.116988 0.182805
O O9 0.312714 0.274256 0.144307
O O10 0.295191 0.158931 0.013297
O O11 0.158759 0.723265 0.515992
#
# Coordination Sequence:
#
# PCOD9583403 Si02
#       7
#     6  12  12   6   6  12   6
#     4  12  24  44  68 102 144 180 230 306 360 416
#     4  11  25  46  72 105 141 190 237 302 362 433
#     4  11  24  43  70  98 138 191 232 291 357 431
#     4  10  28  48  65  91 151 184 240 295 346 430
#     4  10  22  45  67  98 144 176 230 302 350 418
#     4  12  23  42  73 104 137 183 235 294 363 425
#     4  12  24  43  74 109 133 178 244 295 370 440
#
# _framework density 24.185469000000001
#
# number of rings (size 3 to 8) (size 9 to 14) (size 15 to 20)
#    0.000    0.800    5.000    1.200    7.000    3.200 
#    1.800    0.000    0.000    0.000    0.000    0.000 
#    0.000    0.000    0.000    0.000    0.000    0.000 
#
# Total GULP energy -334491.244658 kJ/mol
# GULP energy per Si atom -5574.854078 kJ/mol
# Density = 2.413042 g / cm^3
# Si number density = 24.185469 Si / 1000 Ang^3
#
#
#
# Elastic Constant Matrix: (Units=GPa)
#
#
# Indices 1 2 3 4 5 6 
#
# 1 59.2877 21.6578 16.9032 0.0000 0.0000 0.0000
# 2 21.6578 59.2877 16.9032 0.0000 0.0000 0.0000
# 3 16.9032 16.9032 195.6596 0.0000 0.0000 0.0000
# 4 0.0000 0.0000 0.0000 25.9849 0.0000 0.0000
# 5 0.0000 0.0000 0.0000 0.0000 25.9849 0.0000
# 6 0.0000 0.0000 0.0000 0.0000 0.0000 18.8150
#
#
#
# Elastic Compliance Matrix: (Units=1/GPa)
#
#
# Indices 1 2 3 4 5 6 
#
# 1 0.019696 -0.006879 -0.001107 0.000000 0.000000 0.000000
# 2 -0.006879 0.019696 -0.001107 0.000000 0.000000 0.000000
# 3 -0.001107 -0.001107 0.005302 0.000000 0.000000 0.000000
# 4 0.000000 0.000000 0.000000 0.038484 0.000000 0.000000
# 5 0.000000 0.000000 0.000000 0.000000 0.038484 0.000000
# 6 0.000000 0.000000 0.000000 0.000000 0.000000 0.053149
#
#
# Mechanical properties :
#
#
# Convention : Reuss Voigt Hill
#
# Bulk Modulus (GPa) = 37.72706 47.24037 42.48372
# Shear Modulus (GPa) = 24.77302 31.40836 28.09069
#
# Velocity S-wave (km/s) = 3.20393 3.60758 3.41173
# Velocity P-wave (km/s) = 5.41478 6.07683 5.75533
#
# Compressibility (1/GPa) = 0.02650617
#
# Stress axis : x y z
#
# Youngs Moduli (GPa) = 50.77302 50.77302 188.60013
#
# Poissons Ratio (x) = 0.34927 0.20882
# Poissons Ratio (y) = 0.34927 0.20882
# Poissons Ratio (z) = 0.05622 0.05622
#
# Static dielectric constant tensor:
#      x y z
#    x 1.951070 0.000000 0.000000 
#    y 0.000000 1.951070 0.000000 
#    z 0.000000 0.000000 2.171290 
# 
# From -- ./inp_files/5886.got.cif
#   From: 2010.05.17/outbox.cif.g08.bks.cpg/sg179_3_cif.got.tgz:5886.got - 2010.05.20 11:37:33.
