data_PCOD9583751
_publ_section_title
;
Structure prediction by ZEFSAII (Michael W. Deem and Ramdas Pophale) SiO2 
 PCOD9583751
Probable space group: P 62 2 2
;
_chemical_formula_sum "Si O2"
_cell_formula_units_Z 54
_cell_length_a 17.362590
_cell_length_b 17.362590
_cell_length_c 10.954888
_cell_angle_alpha 90.000000
_cell_angle_beta 90.000000
_cell_angle_gamma 120.000000
_cell_volume 2860.010275
_symmetry_space_group_name_H-M "P 62 2 2"
_symmetry_group_IT_number 180
_symmetry_cell_setting 'hexagonal'
loop_
_space_group_symop_operation_xyz
x,y,z
x-y,x,1/3+z
-y,x-y,2/3+z
-x,-y,z
-x+y,-x,1/3+z
y,-x+y,2/3+z
x-y,-y,-z
-x,-x+y,1/3-z
y,x,2/3-z
-y,-x,2/3-z
-x+y,y,-z
x,x-y,1/3-z
loop_
_atom_site_type_symbol
_atom_site_label
_atom_site_fract_x
_atom_site_fract_y
_atom_site_fract_z
Si Si1 0.664618 0.335383 0.333334
Si Si2 0.882760 0.596664 0.438899
Si Si3 0.660821 0.900267 0.501011
Si Si4 0.825919 0.398473 0.470550
Si Si5 0.082040 0.712792 0.441842
O O1 0.770152 0.376079 0.345052
O O2 0.644899 0.387322 0.227835
O O3 0.800385 0.600770 0.500000
O O4 0.882868 0.606187 0.291271
O O5 0.876114 0.504373 0.478912
O O6 0.979966 0.675225 0.475345
O O7 0.616451 0.905165 0.628075
O O8 0.671614 0.814253 0.516010
O O9 0.747069 0.000000 0.500000
O O10 0.883024 0.351310 0.490936
#
# Coordination Sequence:
#
# PCOD9583751 Si02
#       5
#     6  12  12  12  12
#     4  10  20  34  53  70 120 152 186 237 276 314
#     4  11  22  38  54  83 122 146 185 242 291 342
#     4   9  20  39  59  82 109 142 195 245 285 343
#     4  11  21  36  51  83 113 158 196 234 277 340
#     4  10  21  37  62  82 105 155 196 231 288 348
#
# _framework density 18.881049999999998
#
# number of rings (size 3 to 8) (size 9 to 14) (size 15 to 20)
#    0.000    1.778    2.222    3.333    0.000    3.556 
#    0.000    4.444    0.000    0.667    0.000    6.222 
#    0.000    0.000    0.000    0.000    0.000    0.000 
#
# Total GULP energy -300613.760552 kJ/mol
# GULP energy per Si atom -5566.921492 kJ/mol
# Density = 1.883808 g / cm^3
# Si number density = 18.881050 Si / 1000 Ang^3
#
#
#
# Elastic Constant Matrix: (Units=GPa)
#
#
# Indices 1 2 3 4 5 6 
#
# 1 97.7987 79.4304 8.9601 0.0000 0.0000 0.0000
# 2 79.4304 97.7987 8.9601 0.0000 0.0000 0.0000
# 3 8.9601 8.9601 24.9235 0.0000 0.0000 0.0000
# 4 0.0000 0.0000 0.0000 19.7477 0.0000 0.0000
# 5 0.0000 0.0000 0.0000 0.0000 19.7477 0.0000
# 6 0.0000 0.0000 0.0000 0.0000 0.0000 9.1842
#
#
#
# Elastic Compliance Matrix: (Units=1/GPa)
#
#
# Indices 1 2 3 4 5 6 
#
# 1 0.030148 -0.024293 -0.002105 0.000000 0.000000 0.000000
# 2 -0.024293 0.030148 -0.002105 0.000000 0.000000 0.000000
# 3 -0.002105 -0.002105 0.041636 0.000000 0.000000 0.000000
# 4 0.000000 0.000000 0.000000 0.050639 0.000000 0.000000
# 5 0.000000 0.000000 0.000000 0.000000 0.050639 0.000000
# 6 0.000000 0.000000 0.000000 0.000000 0.000000 0.108883
#
#
# Mechanical properties :
#
#
# Convention : Reuss Voigt Hill
#
# Bulk Modulus (GPa) = 22.25839 46.13578 34.19708
# Shear Modulus (GPa) = 13.01827 17.94729 15.48278
#
# Velocity S-wave (km/s) = 2.62866 3.08644 2.86670
# Velocity P-wave (km/s) = 4.58557 6.09832 5.39523
#
# Compressibility (1/GPa) = 0.04492688
#
# Stress axis : x y z
#
# Youngs Moduli (GPa) = 33.16925 33.16925 24.01751
#
# Poissons Ratio (x) = 0.80579 0.05056
# Poissons Ratio (y) = 0.80579 0.05056
# Poissons Ratio (z) = 0.06982 0.06982
#
# Static dielectric constant tensor:
#      x y z
#    x 1.665650 0.000000 0.000000 
#    y 0.000000 1.665650 0.000000 
#    z 0.000000 0.000000 2.162070 
# 
# From -- ./inp_files/4693.got.cif
#   From: 2010.05.17/outbox.cif.g08.bks.cpg/sg180_3_cif.got.tgz:4693.got - 2010.05.20 11:43:55.
