data_PCOD9583743
_publ_section_title
;
Structure prediction by ZEFSAII (Michael W. Deem and Ramdas Pophale) SiO2 
 PCOD9583743
Probable space group: P 62 2 2
;
_chemical_formula_sum "Si O2"
_cell_formula_units_Z 54
_cell_length_a 17.393785
_cell_length_b 17.393785
_cell_length_c 9.668481
_cell_angle_alpha 90.000000
_cell_angle_beta 90.000000
_cell_angle_gamma 120.000000
_cell_volume 2533.244305
_symmetry_space_group_name_H-M "P 62 2 2"
_symmetry_group_IT_number 180
_symmetry_cell_setting 'hexagonal'
loop_
_space_group_symop_operation_xyz
x,y,z
x-y,x,1/3+z
-y,x-y,2/3+z
-x,-y,z
-x+y,-x,1/3+z
y,-x+y,2/3+z
x-y,-y,-z
-x,-x+y,1/3-z
y,x,2/3-z
-y,-x,2/3-z
-x+y,y,-z
x,x-y,1/3-z
loop_
_atom_site_type_symbol
_atom_site_label
_atom_site_fract_x
_atom_site_fract_y
_atom_site_fract_z
Si Si1 0.624399 0.248799 0.500000
Si Si2 0.880813 0.585423 0.456542
Si Si3 0.668085 0.902356 0.495872
Si Si4 0.824019 0.385841 0.469444
Si Si5 0.077179 0.716600 0.478917
O O1 0.728107 0.315828 0.531255
O O2 0.575136 0.194065 0.636464
O O3 0.796548 0.593095 0.500000
O O4 0.894034 0.600057 0.290267
O O5 0.861824 0.488826 0.500749
O O6 0.973275 0.666739 0.510091
O O7 0.631277 0.901678 0.647427
O O8 0.679871 0.817528 0.470554
O O9 0.755640 0.000000 0.500000
O O10 0.887267 0.349301 0.518082
#
# Coordination Sequence:
#
# PCOD9583743 Si02
#       5
#     6  12  12  12  12
#     4  10  20  30  55  72 114 148 191 230 268 312
#     4  11  22  35  52  80 117 147 179 227 287 341
#     4   9  19  37  58  80 105 137 188 239 283 329
#     4  11  19  34  49  80 108 153 189 227 267 326
#     4  10  20  36  59  79 103 146 193 233 271 333
#
# _framework density 21.316537
#
# number of rings (size 3 to 8) (size 9 to 14) (size 15 to 20)
#    0.000    1.778    1.111    6.000    0.000    0.889 
#    0.000    4.444    0.000    3.333    0.000    6.222 
#    0.000    0.000    0.000    0.000    0.000    0.000 
#
# Total GULP energy -301572.761616 kJ/mol
# GULP energy per Si atom -5584.680771 kJ/mol
# Density = 2.126802 g / cm^3
# Si number density = 21.316537 Si / 1000 Ang^3
#
#
#
# Elastic Constant Matrix: (Units=GPa)
#
#
# Indices 1 2 3 4 5 6 
#
# 1 144.8090 111.5372 -6.6084 0.0000 0.0000 0.0000
# 2 111.5372 144.8090 -6.6084 0.0000 0.0000 0.0000
# 3 -6.6084 -6.6084 68.6676 0.0000 0.0000 0.0000
# 4 0.0000 0.0000 0.0000 16.7492 0.0000 0.0000
# 5 0.0000 0.0000 0.0000 0.0000 16.7492 0.0000
# 6 0.0000 0.0000 0.0000 0.0000 0.0000 16.6359
#
#
#
# Elastic Compliance Matrix: (Units=1/GPa)
#
#
# Indices 1 2 3 4 5 6 
#
# 1 0.016988 -0.013068 0.000377 0.000000 0.000000 0.000000
# 2 -0.013068 0.016988 0.000377 0.000000 0.000000 0.000000
# 3 0.000377 0.000377 0.014636 0.000000 0.000000 0.000000
# 4 0.000000 0.000000 0.000000 0.059704 0.000000 0.000000
# 5 0.000000 0.000000 0.000000 0.000000 0.059704 0.000000
# 6 0.000000 0.000000 0.000000 0.000000 0.000000 0.060111
#
#
# Mechanical properties :
#
#
# Convention : Reuss Voigt Hill
#
# Bulk Modulus (GPa) = 41.69175 61.65848 51.67511
# Shear Modulus (GPa) = 19.17527 27.35785 23.26656
#
# Velocity S-wave (km/s) = 3.00250 3.58636 3.30734
# Velocity P-wave (km/s) = 5.62325 6.79244 6.23531
#
# Compressibility (1/GPa) = 0.02398556
#
# Stress axis : x y z
#
# Youngs Moduli (GPa) = 58.86509 58.86509 68.32684
#
# Poissons Ratio (x) = 0.76922 -0.02578
# Poissons Ratio (y) = 0.76922 -0.02578
# Poissons Ratio (z) = -0.02221 -0.02221
#
# Static dielectric constant tensor:
#      x y z
#    x 1.769000 0.000000 0.000000 
#    y 0.000000 1.769000 0.000000 
#    z 0.000000 0.000000 1.899670 
# 
# From -- ./inp_files/4692.got.cif
#   From: 2010.05.17/outbox.cif.g08.bks.cpg/sg180_3_cif.got.tgz:4692.got - 2010.05.20 11:43:55.
