data_PCOD9583553
_publ_section_title
;
Structure prediction by ZEFSAII (Michael W. Deem and Ramdas Pophale) SiO2 
 PCOD9583553
Probable space group: P 65 2 2
;
_chemical_formula_sum "Si O2"
_cell_formula_units_Z 42
_cell_length_a 14.169078
_cell_length_b 14.169078
_cell_length_c 11.144394
_cell_angle_alpha 90.000000
_cell_angle_beta 90.000000
_cell_angle_gamma 120.000000
_cell_volume 1937.627420
_symmetry_space_group_name_H-M "P 65 2 2"
_symmetry_group_IT_number 179
_symmetry_cell_setting 'hexagonal'
loop_
_space_group_symop_operation_xyz
x,y,z
x-y,x,5/6+z
-y,x-y,2/3+z
-x,-y,1/2+z
-x+y,-x,1/3+z
y,-x+y,1/6+z
x-y,-y,-z
-x,-x+y,1/3-z
y,x,2/3-z
-y,-x,1/6-z
-x+y,y,1/2-z
x,x-y,5/6-z
loop_
_atom_site_type_symbol
_atom_site_label
_atom_site_fract_x
_atom_site_fract_y
_atom_site_fract_z
Si Si1 0.665140 0.000000 0.500000
Si Si2 0.624179 0.624179 0.833334
Si Si3 0.148987 0.851014 0.583334
Si Si4 0.173058 0.565049 0.776025
Si Si5 0.857900 0.803186 0.504561
O O1 0.556054 0.898999 0.446211
O O2 0.710823 0.960912 0.609074
O O3 0.647797 0.720342 0.928150
O O4 0.614732 0.514657 0.889839
O O5 0.131199 0.890730 0.454309
O O6 0.300760 0.601520 0.750000
O O7 0.168460 0.584230 0.916667
O O8 0.841934 0.895920 0.566176
#
# Coordination Sequence:
#
# PCOD9583553 Si02
#       5
#     6   6   6  12  12
#     4  11  26  48  75 104 152 200 259 330 401 500
#     4  11  26  46  75 110 152 212 267 340 407 496
#     4  12  24  46  72 106 154 204 274 326 412 488
#     4  11  26  49  75 114 151 201 264 335 419 486
#     4  12  24  45  68 105 146 202 253 327 394 487
#
# _framework density 21.675993999999999
#
# number of rings (size 3 to 8) (size 9 to 14) (size 15 to 20)
#    0.000    0.571    2.857    4.286    6.000    0.000 
#   15.429    0.000    0.000    0.000    0.000    0.000 
#    0.000    0.000    0.000    0.000    0.000    0.000 
#
# Total GULP energy -233810.092716 kJ/mol
# GULP energy per Si atom -5566.906969 kJ/mol
# Density = 2.162666 g / cm^3
# Si number density = 21.675994 Si / 1000 Ang^3
#
#
#
# Elastic Constant Matrix: (Units=GPa)
#
#
# Indices 1 2 3 4 5 6 
#
# 1 130.6698 30.1375 52.4672 0.0000 0.0000 0.0000
# 2 30.1375 130.6698 52.4672 0.0000 0.0000 0.0000
# 3 52.4672 52.4672 154.8541 0.0000 0.0000 0.0000
# 4 0.0000 0.0000 0.0000 -132.7788 0.0000 0.0000
# 5 0.0000 0.0000 0.0000 0.0000 -132.7788 0.0000
# 6 0.0000 0.0000 0.0000 0.0000 0.0000 50.2661
#
#
#
# Elastic Compliance Matrix: (Units=1/GPa)
#
#
# Indices 1 2 3 4 5 6 
#
# 1 0.008965 -0.000982 -0.002705 0.000000 0.000000 0.000000
# 2 -0.000982 0.008965 -0.002705 0.000000 0.000000 0.000000
# 3 -0.002705 -0.002705 0.008291 0.000000 0.000000 0.000000
# 4 0.000000 0.000000 0.000000 -0.007531 0.000000 0.000000
# 5 0.000000 0.000000 0.000000 0.000000 -0.007531 0.000000
# 6 0.000000 0.000000 0.000000 0.000000 0.000000 0.019894
#
#
# Mechanical properties :
#
#
# Convention : Reuss Voigt Hill
#
# Bulk Modulus (GPa) = 74.41512 76.25971 75.33741
# Shear Modulus (GPa) = 103.48579 -24.31683 39.58448
#
# Velocity S-wave (km/s) = 6.91706 -3.35301 4.27803
# Velocity P-wave (km/s) = 9.90957 4.50198 7.69634
#
# Compressibility (1/GPa) = 0.01343813
#
# Stress axis : x y z
#
# Youngs Moduli (GPa) = 111.53968 111.53968 120.61686
#
# Poissons Ratio (x) = 0.10949 0.32627
# Poissons Ratio (y) = 0.10949 0.32627
# Poissons Ratio (z) = 0.30172 0.30172
#
# Static dielectric constant tensor:
#      x y z
#    x 2.016320 0.000000 0.000000 
#    y 0.000000 2.016320 0.000000 
#    z 0.000000 0.000000 1.491000 
# 
# From -- ./inp_files/4141.got.cif
#   From: 2010.05.17/outbox.cif.g08.bks.cpg/sg179_3_cif.got.tgz:4141.got - 2010.05.20 11:37:33.
