data_PCOD9583329
_publ_section_title
;
Structure prediction by ZEFSAII (Michael W. Deem and Ramdas Pophale) SiO2 
 PCOD9583329
Probable space group: P 65 2 2
;
_chemical_formula_sum "Si O2"
_cell_formula_units_Z 84
_cell_length_a 14.096068
_cell_length_b 14.096068
_cell_length_c 19.728126
_cell_angle_alpha 90.000000
_cell_angle_beta 90.000000
_cell_angle_gamma 120.000000
_cell_volume 3394.786270
_symmetry_space_group_name_H-M "P 65 2 2"
_symmetry_group_IT_number 179
_symmetry_cell_setting 'hexagonal'
loop_
_space_group_symop_operation_xyz
x,y,z
x-y,x,5/6+z
-y,x-y,2/3+z
-x,-y,1/2+z
-x+y,-x,1/3+z
y,-x+y,1/6+z
x-y,-y,-z
-x,-x+y,1/3-z
y,x,2/3-z
-y,-x,1/6-z
-x+y,y,1/2-z
x,x-y,5/6-z
loop_
_atom_site_type_symbol
_atom_site_label
_atom_site_fract_x
_atom_site_fract_y
_atom_site_fract_z
Si Si1 0.470409 0.855333 0.180947
Si Si2 0.679049 0.148793 0.399841
Si Si3 0.474208 0.650361 0.017612
Si Si4 0.000000 0.135226 0.666667
Si Si5 0.591378 0.172798 0.532951
Si Si6 0.163186 0.228485 0.971715
Si Si7 0.017914 0.298043 0.313587
Si Si8 0.000000 0.658548 0.666667
O O1 0.451126 0.902252 0.250000
O O2 0.479257 0.753172 0.209565
O O3 0.393632 0.831982 0.114602
O O4 0.591431 0.937210 0.156658
O O5 0.559097 0.120107 0.375045
O O6 0.665540 0.146558 0.481878
O O7 0.734928 0.089582 0.358115
O O8 0.424588 0.575413 0.083334
O O9 0.408171 0.715887 0.013587
O O10 0.605094 0.733304 0.014630
O O11 0.114216 0.135242 0.658960
O O12 0.007246 0.201470 0.601006
O O13 0.463399 0.092728 0.518777
O O14 0.051122 0.231652 0.983898
O O15 0.029566 0.292956 0.232544
#
# Coordination Sequence:
#
# PCOD9583329 Si02
#       8
#    12  12  12   6  12  12  12   6
#     4  10  21  40  59  95 143 193 258 303 364 455
#     4  11  23  40  67 103 146 197 249 308 384 466
#     4  12  23  39  67 105 151 207 241 307 377 465
#     4  10  24  55  81 102 142 180 258 346 400 454
#     4  11  23  40  63  96 149 201 248 311 376 455
#     4  10  25  49  79 108 139 192 254 330 397 471
#     4  10  23  41  67 104 142 190 250 311 381 471
#     4  10  22  41  61 100 148 194 250 310 372 462
#
# _framework density 24.743827
#
# number of rings (size 3 to 8) (size 9 to 14) (size 15 to 20)
#    0.000    1.429    2.857    1.714    2.000    0.571 
#    0.000    9.286    0.000    0.000    0.000    0.000 
#    0.000    0.000    0.000    0.000    0.000    0.000 
#
# Total GULP energy -467786.503277 kJ/mol
# GULP energy per Si atom -5568.886944 kJ/mol
# Density = 2.468751 g / cm^3
# Si number density = 24.743827 Si / 1000 Ang^3
#
#
#
# Elastic Constant Matrix: (Units=GPa)
#
#
# Indices 1 2 3 4 5 6 
#
# 1 -356.1250 447.9951 20.9337 0.0000 0.0000 0.0000
# 2 447.9951 -356.1250 20.9337 0.0000 0.0000 0.0000
# 3 20.9337 20.9337 149.6256 0.0000 0.0000 0.0000
# 4 0.0000 0.0000 0.0000 22.5228 0.0000 0.0000
# 5 0.0000 0.0000 0.0000 0.0000 22.5228 0.0000
# 6 0.0000 0.0000 0.0000 0.0000 0.0000 -402.0601
#
#
#
# Elastic Compliance Matrix: (Units=1/GPa)
#
#
# Indices 1 2 3 4 5 6 
#
# 1 0.005191 0.006435 -0.001627 0.000000 0.000000 0.000000
# 2 0.006435 0.005191 -0.001627 0.000000 0.000000 0.000000
# 3 -0.001627 -0.001627 0.007138 0.000000 0.000000 0.000000
# 4 0.000000 0.000000 0.000000 0.044400 0.000000 0.000000
# 5 0.000000 0.000000 0.000000 0.000000 0.044400 0.000000
# 6 0.000000 0.000000 0.000000 0.000000 0.000000 -0.002487
#
#
# Mechanical properties :
#
#
# Convention : Reuss Voigt Hill
#
# Bulk Modulus (GPa) = 41.86807 46.34451 44.10629
# Shear Modulus (GPa) = 47.42437 -141.56871 -47.07217
#
# Velocity S-wave (km/s) = 4.38266 -7.57218 -4.36636
# Velocity P-wave (km/s) = 6.52439 7.59475 2.74887
#
# Compressibility (1/GPa) = 0.02388455
#
# Stress axis : x y z
#
# Youngs Moduli (GPa) = 192.62980 192.62980 140.08568
#
# Poissons Ratio (x) = -1.23955 0.22786
# Poissons Ratio (y) = -1.23955 0.22786
# Poissons Ratio (z) = 0.31333 0.31333
#
# Static dielectric constant tensor:
#      x y z
#    x 2.056850 0.000000 0.000000 
#    y 0.000000 2.056850 0.000000 
#    z 0.000000 0.000000 2.158720 
# 
# From -- ./inp_files/8409.got.cif
#   From: 2010.05.17/outbox.cif.g08.bks.cpg/sg179_5_cif.got.tgz:8409.got - 2010.05.20 11:37:33.
