data_PCOD9583729
_publ_section_title
;
Structure prediction by ZEFSAII (Michael W. Deem and Ramdas Pophale) SiO2 
 PCOD9583729
Probable space group: P 62 2 2
;
_chemical_formula_sum "Si O2"
_cell_formula_units_Z 66
_cell_length_a 12.254755
_cell_length_b 12.254755
_cell_length_c 24.723504
_cell_angle_alpha 90.000000
_cell_angle_beta 90.000000
_cell_angle_gamma 120.000000
_cell_volume 3215.510412
_symmetry_space_group_name_H-M "P 62 2 2"
_symmetry_group_IT_number 180
_symmetry_cell_setting 'hexagonal'
loop_
_space_group_symop_operation_xyz
x,y,z
x-y,x,1/3+z
-y,x-y,2/3+z
-x,-y,z
-x+y,-x,1/3+z
y,-x+y,2/3+z
x-y,-y,-z
-x,-x+y,1/3-z
y,x,2/3-z
-y,-x,2/3-z
-x+y,y,-z
x,x-y,1/3-z
loop_
_atom_site_type_symbol
_atom_site_label
_atom_site_fract_x
_atom_site_fract_y
_atom_site_fract_z
Si Si1 0.000000 0.500000 0.384474
Si Si2 0.336479 0.060077 0.635855
Si Si3 0.334451 0.210673 0.358692
Si Si4 0.493621 0.121918 0.878024
Si Si5 0.430047 0.700493 0.050007
Si Si6 0.306961 0.443544 0.854245
O O1 0.027282 0.615224 0.345665
O O2 0.138242 0.544348 0.408737
O O3 0.293919 0.146960 0.666667
O O4 0.426776 0.129244 0.585244
O O5 0.219572 0.926522 0.618500
O O6 0.220588 0.220588 0.333334
O O7 0.398612 0.316204 0.404544
O O8 0.442121 0.243844 0.313662
O O9 0.625458 0.229889 0.903821
O O10 0.443185 0.185342 0.835704
O O11 0.500000 0.000000 0.859372
O O12 0.327819 0.655637 0.000000
O O13 0.334818 0.334818 0.833334
O O14 0.427500 0.572501 0.833334
#
# Coordination Sequence:
#
# PCOD9583729 Si02
#       6
#     6  12  12  12  12  12
#     4  10  20  36  59  90 136 160 217 280 332 386
#     4  11  24  40  63  99 132 173 228 282 345 415
#     4  10  19  37  64 100 126 165 225 284 334 409
#     4  11  21  39  67  98 133 175 226 280 344 411
#     4   9  19  30  58  95 126 165 207 271 334 392
#     4  11  24  42  67  97 141 187 226 280 361 426
#
# _framework density 20.525511999999999
#
# number of rings (size 3 to 8) (size 9 to 14) (size 15 to 20)
#    0.000    1.636    3.636    1.636    7.636    0.364 
#    1.636    0.000    0.000    0.000    0.000    0.000 
#    0.000    0.000    0.000    0.000    0.000    0.000 
#
# Total GULP energy -368624.565976 kJ/mol
# GULP energy per Si atom -5585.220697 kJ/mol
# Density = 2.047879 g / cm^3
# Si number density = 20.525512 Si / 1000 Ang^3
#
#
#
# Elastic Constant Matrix: (Units=GPa)
#
#
# Indices 1 2 3 4 5 6 
#
# 1 113.9283 44.9391 26.4192 0.0000 0.0000 0.0000
# 2 44.9391 113.9283 26.4192 0.0000 0.0000 0.0000
# 3 26.4192 26.4192 51.9545 0.0000 0.0000 0.0000
# 4 0.0000 0.0000 0.0000 -50.8723 0.0000 0.0000
# 5 0.0000 0.0000 0.0000 0.0000 -50.8723 0.0000
# 6 0.0000 0.0000 0.0000 0.0000 0.0000 34.4946
#
#
#
# Elastic Compliance Matrix: (Units=1/GPa)
#
#
# Indices 1 2 3 4 5 6 
#
# 1 0.011035 -0.003460 -0.003852 0.000000 0.000000 0.000000
# 2 -0.003460 0.011035 -0.003852 0.000000 0.000000 0.000000
# 3 -0.003852 -0.003852 0.023165 0.000000 0.000000 0.000000
# 4 0.000000 0.000000 0.000000 -0.019657 0.000000 0.000000
# 5 0.000000 0.000000 0.000000 0.000000 -0.019657 0.000000
# 6 0.000000 0.000000 0.000000 0.000000 0.000000 0.028990
#
#
# Mechanical properties :
#
#
# Convention : Reuss Voigt Hill
#
# Bulk Modulus (GPa) = 43.65338 52.81846 48.23592
# Shear Modulus (GPa) = 77.06921 -1.31443 37.87739
#
# Velocity S-wave (km/s) = 6.13429 -0.80111 4.30045
# Velocity P-wave (km/s) = 8.45498 4.99332 6.94334
#
# Compressibility (1/GPa) = 0.02290773
#
# Stress axis : x y z
#
# Youngs Moduli (GPa) = 90.61729 90.61729 43.16769
#
# Poissons Ratio (x) = 0.31350 0.16630
# Poissons Ratio (y) = 0.31350 0.16630
# Poissons Ratio (z) = 0.34909 0.34909
#
# Static dielectric constant tensor:
#      x y z
#    x 1.738640 0.000000 0.000000 
#    y 0.000000 1.738640 0.000000 
#    z 0.000000 0.000000 1.738860 
# 
# From -- ./inp_files/12269.got.cif
#   From: 2010.05.17/outbox.cif.g08.bks.cpg/sg180_7_cif.got.tgz:12269.got - 2010.05.20 11:43:55.
