data_PCOD9583294
_publ_section_title
;
Structure prediction by ZEFSAII (Michael W. Deem and Ramdas Pophale) SiO2 
 PCOD9583294
Probable space group: P 65 2 2
;
_chemical_formula_sum "Si O2"
_cell_formula_units_Z 84
_cell_length_a 18.136299
_cell_length_b 18.136299
_cell_length_c 14.557532
_cell_angle_alpha 90.000000
_cell_angle_beta 90.000000
_cell_angle_gamma 120.000000
_cell_volume 4146.825107
_symmetry_space_group_name_H-M "P 65 2 2"
_symmetry_group_IT_number 179
_symmetry_cell_setting 'hexagonal'
loop_
_space_group_symop_operation_xyz
x,y,z
x-y,x,5/6+z
-y,x-y,2/3+z
-x,-y,1/2+z
-x+y,-x,1/3+z
y,-x+y,1/6+z
x-y,-y,-z
-x,-x+y,1/3-z
y,x,2/3-z
-y,-x,1/6-z
-x+y,y,1/2-z
x,x-y,5/6-z
loop_
_atom_site_type_symbol
_atom_site_label
_atom_site_fract_x
_atom_site_fract_y
_atom_site_fract_z
Si Si1 0.372462 0.627538 0.583334
Si Si2 0.532577 0.518564 0.686253
Si Si3 0.467833 0.168696 0.350379
Si Si4 0.634804 0.269608 0.250000
Si Si5 0.073357 0.136564 0.406513
Si Si6 0.645020 0.637677 0.228754
Si Si7 0.874017 0.303695 0.394057
Si Si8 0.871776 0.200604 0.881845
O O1 0.351668 0.668339 0.667924
O O2 0.327307 0.525382 0.586052
O O3 0.519086 0.480915 0.583334
O O4 0.615159 0.521147 0.728015
O O5 0.444453 0.451630 0.732031
O O6 0.554016 0.614482 0.667243
O O7 0.490987 0.245494 0.416667
O O8 0.534999 0.209435 0.267837
O O9 0.374113 0.135415 0.312188
O O10 0.084922 0.094624 0.502792
O O11 0.145179 0.145179 0.333334
O O12 0.087025 0.228003 0.435815
O O13 0.668015 0.668015 0.333334
O O14 0.700203 0.616136 0.157619
O O15 0.643891 0.715298 0.178034
O O16 0.847265 0.219650 0.334982
#
# Coordination Sequence:
#
# PCOD9583294 Si02
#       8
#     6  12  12   6  12  12  12  12
#     4  12  24  39  62  90 136 186 238 292 339 414
#     4  10  20  42  64  84 134 181 223 273 343 407
#     4  12  24  38  67  97 131 182 225 287 355 400
#     4  12  24  41  58  98 140 180 242 296 339 406
#     4  10  24  47  76 109 142 177 222 287 370 450
#     4  11  24  43  70  94 135 189 234 287 352 416
#     4  11  23  43  65  93 134 186 232 288 356 407
#     4  12  24  42  71 104 141 176 232 300 346 423
#
# _framework density 20.256461999999999
#
# number of rings (size 3 to 8) (size 9 to 14) (size 15 to 20)
#    0.000    0.857    7.857    0.857    2.000    4.000 
#    0.000    3.571    0.000    0.000    0.000    0.000 
#    0.000    0.000    0.000    0.000    0.000    0.000 
#
# Total GULP energy -468113.668502 kJ/mol
# GULP energy per Si atom -5572.781768 kJ/mol
# Density = 2.021036 g / cm^3
# Si number density = 20.256462 Si / 1000 Ang^3
#
#
#
# Elastic Constant Matrix: (Units=GPa)
#
#
# Indices 1 2 3 4 5 6 
#
# 1 81.2267 17.9154 18.6791 0.0000 0.0000 0.0000
# 2 17.9154 81.2267 18.6791 0.0000 0.0000 0.0000
# 3 18.6791 18.6791 58.9791 0.0000 0.0000 0.0000
# 4 0.0000 0.0000 0.0000 56.2635 0.0000 0.0000
# 5 0.0000 0.0000 0.0000 0.0000 56.2635 0.0000
# 6 0.0000 0.0000 0.0000 0.0000 0.0000 31.6557
#
#
#
# Elastic Compliance Matrix: (Units=1/GPa)
#
#
# Indices 1 2 3 4 5 6 
#
# 1 0.013624 -0.002171 -0.003627 0.000000 0.000000 0.000000
# 2 -0.002171 0.013624 -0.003627 0.000000 0.000000 0.000000
# 3 -0.003627 -0.003627 0.019253 0.000000 0.000000 0.000000
# 4 0.000000 0.000000 0.000000 0.017774 0.000000 0.000000
# 5 0.000000 0.000000 0.000000 0.000000 0.017774 0.000000
# 6 0.000000 0.000000 0.000000 0.000000 0.000000 0.031590
#
#
# Mechanical properties :
#
#
# Convention : Reuss Voigt Hill
#
# Bulk Modulus (GPa) = 36.16624 36.88661 36.52643
# Shear Modulus (GPa) = 35.28437 39.91378 37.59907
#
# Velocity S-wave (km/s) = 4.17811 4.44376 4.31298
# Velocity P-wave (km/s) = 6.41626 6.67673 6.54779
#
# Compressibility (1/GPa) = 0.02765009
#
# Stress axis : x y z
#
# Youngs Moduli (GPa) = 73.39897 73.39897 51.94056
#
# Poissons Ratio (x) = 0.15933 0.18841
# Poissons Ratio (y) = 0.15933 0.18841
# Poissons Ratio (z) = 0.26624 0.26624
#
# Static dielectric constant tensor:
#      x y z
#    x 1.762550 0.000000 0.000000 
#    y 0.000000 1.762550 0.000000 
#    z 0.000000 0.000000 1.711800 
# 
# From -- ./inp_files/6145.got.cif
#   From: 2010.05.17/outbox.cif.g08.bks.cpg/sg179_4_cif.got.tgz:6145.got - 2010.05.20 11:37:33.
