data_PCOD9583035
_publ_section_title
;
Structure prediction by ZEFSAII (Michael W. Deem and Ramdas Pophale) SiO2 
 PCOD9583035
Probable space group: P 61 2 2
;
_chemical_formula_sum "Si O2"
_cell_formula_units_Z 48
_cell_length_a 16.575659
_cell_length_b 16.575659
_cell_length_c 9.591350
_cell_angle_alpha 90.000000
_cell_angle_beta 90.000000
_cell_angle_gamma 120.000000
_cell_volume 2282.190947
_symmetry_space_group_name_H-M "P 61 2 2"
_symmetry_group_IT_number 178
_symmetry_cell_setting 'hexagonal'
loop_
_space_group_symop_operation_xyz
x,y,z
x-y,x,1/6+z
-y,x-y,1/3+z
-x,-y,1/2+z
-x+y,-x,2/3+z
y,-x+y,5/6+z
x-y,-y,-z
-x,-x+y,2/3-z
y,x,1/3-z
-y,-x,5/6-z
-x+y,y,1/2-z
x,x-y,1/6-z
loop_
_atom_site_type_symbol
_atom_site_label
_atom_site_fract_x
_atom_site_fract_y
_atom_site_fract_z
Si Si1 0.752088 0.247913 0.416667
Si Si2 0.993996 0.665354 0.166909
Si Si3 0.471657 0.943313 0.250000
Si Si4 0.614095 0.810377 0.855228
Si Si5 0.203821 0.566113 0.829121
O O1 0.758468 0.191397 0.546230
O O2 0.792374 0.357894 0.434506
O O3 0.001523 0.583549 0.085602
O O4 0.896760 0.654084 0.113325
O O5 0.000000 0.653783 0.333334
O O6 0.083276 0.766586 0.145385
O O7 0.422643 0.874832 0.381528
O O8 0.527964 0.809699 0.936125
O O9 0.302850 0.605700 0.750000
#
# Coordination Sequence:
#
# PCOD9583035 Si02
#       5
#     6  12   6  12  12
#     4  12  25  38  62  96 140 192 240 280 351 420
#     4  12  25  45  68  96 136 184 239 301 361 426
#     4  12  23  38  66  96 136 184 236 290 355 420
#     4  12  26  44  66  98 140 189 242 302 357 432
#     4  12  20  40  60  94 136 185 239 287 340 410
#
# _framework density 21.032419999999998
#
# number of rings (size 3 to 8) (size 9 to 14) (size 15 to 20)
#    0.000    0.000    7.500    3.750    3.500    1.000 
#    0.000    0.000    0.000    0.000    0.000    0.000 
#   22.500    0.000    0.000    0.000    0.000    0.000 
#
# Total GULP energy -268155.129676 kJ/mol
# GULP energy per Si atom -5586.565202 kJ/mol
# Density = 2.098455 g / cm^3
# Si number density = 21.032420 Si / 1000 Ang^3
#
#
#
# Elastic Constant Matrix: (Units=GPa)
#
#
# Indices 1 2 3 4 5 6 
#
# 1 120.5691 65.4160 43.3270 0.0000 0.0000 0.0000
# 2 65.4160 120.5691 43.3270 0.0000 0.0000 0.0000
# 3 43.3270 43.3270 96.9101 0.0000 0.0000 0.0000
# 4 0.0000 0.0000 0.0000 35.3698 0.0000 0.0000
# 5 0.0000 0.0000 0.0000 0.0000 35.3698 0.0000
# 6 0.0000 0.0000 0.0000 0.0000 0.0000 27.5766
#
#
#
# Elastic Compliance Matrix: (Units=1/GPa)
#
#
# Indices 1 2 3 4 5 6 
#
# 1 0.012461 -0.005670 -0.003036 0.000000 0.000000 0.000000
# 2 -0.005670 0.012461 -0.003036 0.000000 0.000000 0.000000
# 3 -0.003036 -0.003036 0.013034 0.000000 0.000000 0.000000
# 4 0.000000 0.000000 0.000000 0.028273 0.000000 0.000000
# 5 0.000000 0.000000 0.000000 0.000000 0.028273 0.000000
# 6 0.000000 0.000000 0.000000 0.000000 0.000000 0.036263
#
#
# Mechanical properties :
#
#
# Convention : Reuss Voigt Hill
#
# Bulk Modulus (GPa) = 69.10200 71.35425 70.22813
# Shear Modulus (GPa) = 31.43195 32.06180 31.74688
#
# Velocity S-wave (km/s) = 3.87001 3.90859 3.88935
# Velocity P-wave (km/s) = 7.27294 7.37353 7.32341
#
# Compressibility (1/GPa) = 0.01447136
#
# Stress axis : x y z
#
# Youngs Moduli (GPa) = 80.24778 80.24778 76.72322
#
# Poissons Ratio (x) = 0.45500 0.23296
# Poissons Ratio (y) = 0.45500 0.23296
# Poissons Ratio (z) = 0.24366 0.24366
#
# Static dielectric constant tensor:
#      x y z
#    x 1.839000 0.000000 0.000000 
#    y 0.000000 1.839000 0.000000 
#    z 0.000000 0.000000 1.805780 
# 
# From -- ./inp_files/2806.got.cif
#   From: 2010.05.17/outbox.cif.g08.bks.cpg/sg178_2_cif.got.tgz:2806.got - 2010.05.20 11:30:59.
