data_PCOD9583859
_publ_section_title
;
Structure prediction by ZEFSAII (Michael W. Deem and Ramdas Pophale) SiO2 
 PCOD9583859
Probable space group: P 62 2 2
;
_chemical_formula_sum "Si O2"
_cell_formula_units_Z 69
_cell_length_a 15.017637
_cell_length_b 15.017637
_cell_length_c 18.339769
_cell_angle_alpha 90.000000
_cell_angle_beta 90.000000
_cell_angle_gamma 120.000000
_cell_volume 3582.017456
_symmetry_space_group_name_H-M "P 62 2 2"
_symmetry_group_IT_number 180
_symmetry_cell_setting 'hexagonal'
loop_
_space_group_symop_operation_xyz
x,y,z
x-y,x,1/3+z
-y,x-y,2/3+z
-x,-y,z
-x+y,-x,1/3+z
y,-x+y,2/3+z
x-y,-y,-z
-x,-x+y,1/3-z
y,x,2/3-z
-y,-x,2/3-z
-x+y,y,-z
x,x-y,1/3-z
loop_
_atom_site_type_symbol
_atom_site_label
_atom_site_fract_x
_atom_site_fract_y
_atom_site_fract_z
Si Si1 0.611304 0.843157 0.892901
Si Si2 0.000000 0.635833 0.666667
Si Si3 0.500000 0.000000 0.500000
Si Si4 0.358989 0.407814 0.706186
Si Si5 0.836831 0.392378 0.765508
Si Si6 0.425637 0.806659 0.262539
Si Si7 0.261379 0.390065 0.061732
O O1 0.619208 0.746513 0.920390
O O2 0.495599 0.828206 0.901878
O O3 0.646163 0.871220 0.809898
O O4 0.668486 0.937431 0.946945
O O5 0.076673 0.612947 0.716461
O O6 0.414353 0.976750 0.436091
O O7 0.387533 0.514112 0.665355
O O8 0.359265 0.340293 0.639065
O O9 0.857469 0.381855 0.850820
O O10 0.725638 0.300301 0.740578
O O11 0.316896 0.802295 0.264668
O O12 0.176387 0.352773 0.000000
#
# Coordination Sequence:
#
# PCOD9583859 Si02
#       7
#    12   6   3  12  12  12  12
#     4  11  24  36  59  86 117 158 201 247 299 356
#     4  12  21  36  58  84 117 146 193 244 300 362
#     4  12  24  36  60  84 120 158 210 248 292 360
#     4  12  23  38  57  86 115 159 204 249 292 359
#     4  10  21  35  56  84 115 156 193 245 299 351
#     4  10  21  37  56  80 117 156 199 241 293 350
#     4  11  24  41  57  79 121 159 199 248 299 349
#
# _framework density 19.262888
#
# number of rings (size 3 to 8) (size 9 to 14) (size 15 to 20)
#    0.000    1.043    3.478    3.652    2.435    4.174 
#    0.000    0.000    0.000    0.000    0.000    0.609 
#    0.000    2.783    0.000    0.000    0.000    0.000 
#
# Total GULP energy -384126.865179 kJ/mol
# GULP energy per Si atom -5567.056017 kJ/mol
# Density = 1.921905 g / cm^3
# Si number density = 19.262888 Si / 1000 Ang^3
#
#
#
# Elastic Constant Matrix: (Units=GPa)
#
#
# Indices 1 2 3 4 5 6 
#
# 1 41.0557 20.2351 29.5016 0.0000 0.0000 0.0000
# 2 20.2351 41.0557 29.5016 0.0000 0.0000 0.0000
# 3 29.5016 29.5016 176.1236 0.0000 0.0000 0.0000
# 4 0.0000 0.0000 0.0000 26.6803 0.0000 0.0000
# 5 0.0000 0.0000 0.0000 0.0000 26.6803 0.0000
# 6 0.0000 0.0000 0.0000 0.0000 0.0000 10.4103
#
#
#
# Elastic Compliance Matrix: (Units=1/GPa)
#
#
# Indices 1 2 3 4 5 6 
#
# 1 0.033741 -0.014289 -0.003258 0.000000 0.000000 0.000000
# 2 -0.014289 0.033741 -0.003258 0.000000 0.000000 0.000000
# 3 -0.003258 -0.003258 0.006769 0.000000 0.000000 0.000000
# 4 0.000000 0.000000 0.000000 0.037481 0.000000 0.000000
# 5 0.000000 0.000000 0.000000 0.000000 0.037481 0.000000
# 6 0.000000 0.000000 0.000000 0.000000 0.000000 0.096059
#
#
# Mechanical properties :
#
#
# Convention : Reuss Voigt Hill
#
# Bulk Modulus (GPa) = 30.63654 46.30129 38.46892
# Shear Modulus (GPa) = 16.79188 24.68728 20.73958
#
# Velocity S-wave (km/s) = 2.95570 3.58382 3.28481
# Velocity P-wave (km/s) = 5.25235 6.41980 5.86519
#
# Compressibility (1/GPa) = 0.03264076
#
# Stress axis : x y z
#
# Youngs Moduli (GPa) = 29.63755 29.63755 147.72314
#
# Poissons Ratio (x) = 0.42348 0.48134
# Poissons Ratio (y) = 0.42348 0.48134
# Poissons Ratio (z) = 0.09657 0.09657
#
# Static dielectric constant tensor:
#      x y z
#    x 1.724460 0.000000 0.000000 
#    y 0.000000 1.724460 0.000000 
#    z 0.000000 0.000000 1.693740 
# 
# From -- ./inp_files/7824.got.cif
#   From: 2010.05.17/outbox.cif.g08.bks.cpg/sg180_4_cif.got.tgz:7824.got - 2010.05.20 11:43:55.
