data_PCOD9583673
_publ_section_title
;
Structure prediction by ZEFSAII (Michael W. Deem and Ramdas Pophale) SiO2 
 PCOD9583673
Probable space group: P 62 2 2
;
_chemical_formula_sum "Si O2"
_cell_formula_units_Z 45
_cell_length_a 11.379211
_cell_length_b 11.379211
_cell_length_c 19.033058
_cell_angle_alpha 90.000000
_cell_angle_beta 90.000000
_cell_angle_gamma 120.000000
_cell_volume 2134.339508
_symmetry_space_group_name_H-M "P 62 2 2"
_symmetry_group_IT_number 180
_symmetry_cell_setting 'hexagonal'
loop_
_space_group_symop_operation_xyz
x,y,z
x-y,x,1/3+z
-y,x-y,2/3+z
-x,-y,z
-x+y,-x,1/3+z
y,-x+y,2/3+z
x-y,-y,-z
-x,-x+y,1/3-z
y,x,2/3-z
-y,-x,2/3-z
-x+y,y,-z
x,x-y,1/3-z
loop_
_atom_site_type_symbol
_atom_site_label
_atom_site_fract_x
_atom_site_fract_y
_atom_site_fract_z
Si Si1 0.328109 0.656218 0.000000
Si Si2 0.500000 0.500000 0.833334
Si Si3 0.344439 0.430097 0.077240
Si Si4 0.267087 0.386959 0.714904
Si Si5 0.948252 0.157519 0.518846
O O1 0.315197 0.550607 0.059986
O O2 0.253919 0.739538 0.017100
O O3 0.371478 0.450089 0.780745
O O4 0.500000 0.500000 0.101686
O O5 0.240922 0.334015 0.134274
O O6 0.338281 0.341674 0.008118
O O7 0.117941 0.272181 0.739178
O O8 0.104933 0.209865 0.500000
O O9 0.870760 0.000000 0.500000
#
# Coordination Sequence:
#
# PCOD9583673 Si02
#       5
#     6   3  12  12  12
#     4  10  18  36  64  98 130 162 216 278 332 396
#     4  12  16  36  66  96 128 164 232 278 320 432
#     4  10  21  41  63  96 138 170 214 283 337 401
#     4  11  21  37  66  99 130 174 225 276 344 407
#     4  11  24  42  65  95 131 178 229 271 334 414
#
# _framework density 21.083805000000002
#
# number of rings (size 3 to 8) (size 9 to 14) (size 15 to 20)
#    0.000    1.333    5.333    3.200    0.000    1.067 
#    9.600    2.667    0.000    0.000    0.000    0.000 
#    0.000    0.000    0.000    0.000    0.000    0.000 
#
# Total GULP energy -251116.427473 kJ/mol
# GULP energy per Si atom -5580.365055 kJ/mol
# Density = 2.103582 g / cm^3
# Si number density = 21.083805 Si / 1000 Ang^3
#
#
#
# Elastic Constant Matrix: (Units=GPa)
#
#
# Indices 1 2 3 4 5 6 
#
# 1 74.3259 22.3304 14.0855 0.0000 0.0000 0.0000
# 2 22.3304 74.3259 14.0855 0.0000 0.0000 0.0000
# 3 14.0855 14.0855 46.3436 0.0000 0.0000 0.0000
# 4 0.0000 0.0000 0.0000 34.0932 0.0000 0.0000
# 5 0.0000 0.0000 0.0000 0.0000 34.0932 0.0000
# 6 0.0000 0.0000 0.0000 0.0000 0.0000 25.9977
#
#
#
# Elastic Compliance Matrix: (Units=1/GPa)
#
#
# Indices 1 2 3 4 5 6 
#
# 1 0.015292 -0.003940 -0.003450 0.000000 0.000000 0.000000
# 2 -0.003940 0.015292 -0.003450 0.000000 0.000000 0.000000
# 3 -0.003450 -0.003450 0.023675 0.000000 0.000000 0.000000
# 4 0.000000 0.000000 0.000000 0.029331 0.000000 0.000000
# 5 0.000000 0.000000 0.000000 0.000000 0.029331 0.000000
# 6 0.000000 0.000000 0.000000 0.000000 0.000000 0.038465
#
#
# Mechanical properties :
#
#
# Convention : Reuss Voigt Hill
#
# Bulk Modulus (GPa) = 30.69588 32.88868 31.79228
# Shear Modulus (GPa) = 27.18463 28.46975 27.82719
#
# Velocity S-wave (km/s) = 3.59466 3.67865 3.63690
# Velocity P-wave (km/s) = 5.64087 5.80312 5.72257
#
# Compressibility (1/GPa) = 0.03257766
#
# Stress axis : x y z
#
# Youngs Moduli (GPa) = 65.39377 65.39377 42.23829
#
# Poissons Ratio (x) = 0.25768 0.14573
# Poissons Ratio (y) = 0.25768 0.14573
# Poissons Ratio (z) = 0.22562 0.22562
#
# Static dielectric constant tensor:
#      x y z
#    x 1.788470 0.000000 0.000000 
#    y 0.000000 1.788470 0.000000 
#    z 0.000000 0.000000 1.777700 
# 
# From -- ./inp_files/7436.got.cif
#   From: 2010.05.17/outbox.cif.g08.bks.cpg/sg180_4_cif.got.tgz:7436.got - 2010.05.20 11:43:55.
