data_PCOD9583582
_publ_section_title
;
Structure prediction by ZEFSAII (Michael W. Deem and Ramdas Pophale) SiO2 
 PCOD9583582
Probable space group: P 65 2 2
;
_chemical_formula_sum "Si O2"
_cell_formula_units_Z 42
_cell_length_a 19.783356
_cell_length_b 19.783356
_cell_length_c 5.885242
_cell_angle_alpha 90.000000
_cell_angle_beta 90.000000
_cell_angle_gamma 120.000000
_cell_volume 1994.779469
_symmetry_space_group_name_H-M "P 65 2 2"
_symmetry_group_IT_number 179
_symmetry_cell_setting 'hexagonal'
loop_
_space_group_symop_operation_xyz
x,y,z
x-y,x,5/6+z
-y,x-y,2/3+z
-x,-y,1/2+z
-x+y,-x,1/3+z
y,-x+y,1/6+z
x-y,-y,-z
-x,-x+y,1/3-z
y,x,2/3-z
-y,-x,1/6-z
-x+y,y,1/2-z
x,x-y,5/6-z
loop_
_atom_site_type_symbol
_atom_site_label
_atom_site_fract_x
_atom_site_fract_y
_atom_site_fract_z
Si Si1 0.169001 0.471370 0.902871
Si Si2 0.477867 0.522134 0.583334
Si Si3 0.912398 0.700991 0.578964
Si Si4 0.291074 0.708927 0.583334
Si Si5 0.827886 0.913943 0.416667
O O1 0.243997 0.487993 0.750000
O O2 0.102515 0.491300 0.835911
O O3 0.121215 0.379216 0.944593
O O4 0.211160 0.525219 0.121063
O O5 0.483192 0.483192 0.333334
O O6 0.842587 0.685173 0.750000
O O7 0.919647 0.771965 0.433267
O O8 0.000000 0.729238 0.666667
O O9 0.279665 0.639833 0.416667
O O10 0.881450 0.881450 0.333334
#
# Coordination Sequence:
#
# PCOD9583582 Si02
#       5
#    12   6  12   6   6
#     4  12  27  47  79 107 150 200 261 318 387 473
#     4  12  31  52  78 120 167 210 263 336 410 476
#     4  12  25  45  73 105 140 189 243 307 369 450
#     4  12  25  46  74 109 146 192 256 319 382 452
#     4  12  26  44  72 103 141 180 231 293 366 442
#
# _framework density 21.054957999999999
#
# number of rings (size 3 to 8) (size 9 to 14) (size 15 to 20)
#    0.000    0.000    5.714    4.286    6.000    4.571 
#    0.000    0.000    0.000    0.000    0.000    0.000 
#    0.000    0.000    0.000    0.000    0.000    0.000 
#
# Total GULP energy -234257.559587 kJ/mol
# GULP energy per Si atom -5577.560943 kJ/mol
# Density = 2.100704 g / cm^3
# Si number density = 21.054958 Si / 1000 Ang^3
#
#
#
# Elastic Constant Matrix: (Units=GPa)
#
#
# Indices 1 2 3 4 5 6 
#
# 1 127.0979 60.6242 27.6816 0.0000 0.0000 0.0000
# 2 60.6242 127.0979 27.6816 0.0000 0.0000 0.0000
# 3 27.6816 27.6816 50.8539 0.0000 0.0000 0.0000
# 4 0.0000 0.0000 0.0000 50.5108 0.0000 0.0000
# 5 0.0000 0.0000 0.0000 0.0000 50.5108 0.0000
# 6 0.0000 0.0000 0.0000 0.0000 0.0000 33.2369
#
#
#
# Elastic Compliance Matrix: (Units=1/GPa)
#
#
# Indices 1 2 3 4 5 6 
#
# 1 0.010695 -0.004349 -0.003454 0.000000 0.000000 0.000000
# 2 -0.004349 0.010695 -0.003454 0.000000 0.000000 0.000000
# 3 -0.003454 -0.003454 0.023425 0.000000 0.000000 0.000000
# 4 0.000000 0.000000 0.000000 0.019798 0.000000 0.000000
# 5 0.000000 0.000000 0.000000 0.000000 0.019798 0.000000
# 6 0.000000 0.000000 0.000000 0.000000 0.000000 0.030087
#
#
# Mechanical properties :
#
#
# Convention : Reuss Voigt Hill
#
# Bulk Modulus (GPa) = 44.84445 59.66941 52.25693
# Shear Modulus (GPa) = 34.61540 39.45583 37.03562
#
# Velocity S-wave (km/s) = 4.05909 4.33360 4.19859
# Velocity P-wave (km/s) = 6.58128 7.31037 6.95539
#
# Compressibility (1/GPa) = 0.02229930
#
# Stress axis : x y z
#
# Youngs Moduli (GPa) = 93.50476 93.50476 42.68999
#
# Poissons Ratio (x) = 0.40664 0.14746
# Poissons Ratio (y) = 0.40664 0.14746
# Poissons Ratio (z) = 0.32299 0.32299
#
# Static dielectric constant tensor:
#      x y z
#    x 1.730260 0.000000 0.000000 
#    y 0.000000 1.730260 0.000000 
#    z 0.000000 0.000000 1.841900 
# 
# From -- ./inp_files/844.got.cif
#   From: 2010.05.17/outbox.cif.g08.bks.cpg/sg179_1_cif.got.tgz:844.got - 2010.05.20 11:37:33.
