data_PCOD9583710
_publ_section_title
;
Structure prediction by ZEFSAII (Michael W. Deem and Ramdas Pophale) SiO2 
 PCOD9583710
Probable space group: P 62 2 2
;
_chemical_formula_sum "Si O2"
_cell_formula_units_Z 60
_cell_length_a 15.511865
_cell_length_b 15.511865
_cell_length_c 14.359762
_cell_angle_alpha 90.000000
_cell_angle_beta 90.000000
_cell_angle_gamma 120.000000
_cell_volume 2992.305332
_symmetry_space_group_name_H-M "P 62 2 2"
_symmetry_group_IT_number 180
_symmetry_cell_setting 'hexagonal'
loop_
_space_group_symop_operation_xyz
x,y,z
x-y,x,1/3+z
-y,x-y,2/3+z
-x,-y,z
-x+y,-x,1/3+z
y,-x+y,2/3+z
x-y,-y,-z
-x,-x+y,1/3-z
y,x,2/3-z
-y,-x,2/3-z
-x+y,y,-z
x,x-y,1/3-z
loop_
_atom_site_type_symbol
_atom_site_label
_atom_site_fract_x
_atom_site_fract_y
_atom_site_fract_z
Si Si1 0.891211 0.488993 0.073865
Si Si2 0.118444 0.738497 0.775545
Si Si3 0.880715 0.275612 0.567933
Si Si4 0.878650 0.436171 0.874191
Si Si5 0.203529 0.298010 0.904356
O O1 0.844123 0.422062 0.166667
O O2 0.910743 0.601794 0.072284
O O3 0.000000 0.500000 0.070968
O O4 0.839730 0.437119 0.977231
O O5 0.160189 0.839812 0.833334
O O6 0.158897 0.759350 0.671220
O O7 0.148191 0.669449 0.834178
O O8 0.000234 0.672184 0.766068
O O9 0.849408 0.352730 0.529901
O O10 0.846756 0.186914 0.497434
O O11 0.000000 0.500000 0.877628
O O12 0.228462 0.228462 0.833334
O O13 0.132413 0.264825 0.000000
#
# Coordination Sequence:
#
# PCOD9583710 Si02
#       5
#    12  12  12  12  12
#     4  10  19  35  61  92 128 172 215 273 339 410
#     4  10  22  37  63  89 122 170 220 281 342 414
#     4  10  22  39  60  91 126 166 224 282 336 425
#     4   9  18  35  59  85 122 160 212 263 334 399
#     4  12  25  41  68 102 138 184 242 296 358 433
#
# _framework density 20.05143
#
# number of rings (size 3 to 8) (size 9 to 14) (size 15 to 20)
#    0.000    1.800    4.000    0.600    5.600    2.400 
#    0.000    1.000    4.400    0.600    0.000    0.000 
#    0.000    0.000    0.000    0.000    0.000    0.000 
#
# Total GULP energy -334045.481970 kJ/mol
# GULP energy per Si atom -5567.424699 kJ/mol
# Density = 2.000579 g / cm^3
# Si number density = 20.051430 Si / 1000 Ang^3
#
#
#
# Elastic Constant Matrix: (Units=GPa)
#
#
# Indices 1 2 3 4 5 6 
#
# 1 37.3399 24.4940 27.7113 0.0000 0.0000 0.0000
# 2 24.4940 37.3399 27.7113 0.0000 0.0000 0.0000
# 3 27.7113 27.7113 151.0508 0.0000 0.0000 0.0000
# 4 0.0000 0.0000 0.0000 20.1006 0.0000 0.0000
# 5 0.0000 0.0000 0.0000 0.0000 20.1006 0.0000
# 6 0.0000 0.0000 0.0000 0.0000 0.0000 6.4229
#
#
#
# Elastic Compliance Matrix: (Units=1/GPa)
#
#
# Indices 1 2 3 4 5 6 
#
# 1 0.048601 -0.029245 -0.003551 0.000000 0.000000 0.000000
# 2 -0.029245 0.048601 -0.003551 0.000000 0.000000 0.000000
# 3 -0.003551 -0.003551 0.007923 0.000000 0.000000 0.000000
# 4 0.000000 0.000000 0.000000 0.049750 0.000000 0.000000
# 5 0.000000 0.000000 0.000000 0.000000 0.049750 0.000000
# 6 0.000000 0.000000 0.000000 0.000000 0.000000 0.155692
#
#
# Mechanical properties :
#
#
# Convention : Reuss Voigt Hill
#
# Bulk Modulus (GPa) = 30.83571 42.84042 36.83806
# Shear Modulus (GPa) = 11.26583 19.04574 15.15579
#
# Velocity S-wave (km/s) = 2.37290 3.08530 2.75225
# Velocity P-wave (km/s) = 4.78741 5.83984 5.33962
#
# Compressibility (1/GPa) = 0.03242993
#
# Stress axis : x y z
#
# Youngs Moduli (GPa) = 20.57592 20.57592 126.21273
#
# Poissons Ratio (x) = 0.60175 0.44816
# Poissons Ratio (y) = 0.60175 0.44816
# Poissons Ratio (z) = 0.07306 0.07306
#
# Static dielectric constant tensor:
#      x y z
#    x 1.975210 0.000000 0.000000 
#    y 0.000000 1.975210 0.000000 
#    z 0.000000 0.000000 1.809640 
# 
# From -- ./inp_files/6107.got.cif
#   From: 2010.05.17/outbox.cif.g08.bks.cpg/sg180_4_cif.got.tgz:6107.got - 2010.05.20 11:43:55.
