data_PCOD9583233
_publ_section_title
;
Structure prediction by ZEFSAII (Michael W. Deem and Ramdas Pophale) SiO2 
 PCOD9583233
Probable space group: P 65 2 2
;
_chemical_formula_sum "Si O2"
_cell_formula_units_Z 78
_cell_length_a 18.520055
_cell_length_b 18.520055
_cell_length_c 13.585537
_cell_angle_alpha 90.000000
_cell_angle_beta 90.000000
_cell_angle_gamma 120.000000
_cell_volume 4035.450137
_symmetry_space_group_name_H-M "P 65 2 2"
_symmetry_group_IT_number 179
_symmetry_cell_setting 'hexagonal'
loop_
_space_group_symop_operation_xyz
x,y,z
x-y,x,5/6+z
-y,x-y,2/3+z
-x,-y,1/2+z
-x+y,-x,1/3+z
y,-x+y,1/6+z
x-y,-y,-z
-x,-x+y,1/3-z
y,x,2/3-z
-y,-x,1/6-z
-x+y,y,1/2-z
x,x-y,5/6-z
loop_
_atom_site_type_symbol
_atom_site_label
_atom_site_fract_x
_atom_site_fract_y
_atom_site_fract_z
Si Si1 0.069798 0.319138 0.880814
Si Si2 0.782029 0.527678 0.635526
Si Si3 0.215451 0.430902 0.750000
Si Si4 0.472261 0.077437 0.671866
Si Si5 0.506407 0.506407 0.833334
Si Si6 0.393383 0.606617 0.083334
Si Si7 0.140527 0.654496 0.232655
Si Si8 0.329825 0.111270 0.169274
O O1 0.121267 0.368302 0.784066
O O2 0.979352 0.238480 0.869564
O O3 0.059374 0.390220 0.936086
O O4 0.134909 0.301166 0.940221
O O5 0.771384 0.542767 0.750000
O O6 0.854165 0.518914 0.577814
O O7 0.701150 0.438105 0.616920
O O8 0.781552 0.605789 0.582630
O O9 0.270466 0.487368 0.840715
O O10 0.547154 0.094307 0.750000
O O11 0.450956 0.998536 0.602501
O O12 0.417072 0.498803 0.825667
O O13 0.450143 0.614110 0.177409
O O14 0.092240 0.699797 0.273311
#
# Coordination Sequence:
#
# PCOD9583233 Si02
#       8
#    12  12   6  12   6   6  12  12
#     4  10  21  37  60  87 123 155 194 258 306 374
#     4  10  22  39  56  83 116 162 214 258 309 369
#     4  10  20  38  61  88 118 154 204 248 310 360
#     4  11  24  38  57  86 122 163 212 268 312 363
#     4  12  24  34  60  88 112 168 214 248 312 354
#     4  10  22  36  55  74 112 156 196 252 304 340
#     4  10  20  34  56  83 112 156 200 256 298 360
#     4   9  20  37  58  84 122 150 195 255 310 363
#
# _framework density 19.328699
#
# number of rings (size 3 to 8) (size 9 to 14) (size 15 to 20)
#    0.000    1.846    0.000    4.615    7.538    2.462 
#    0.000    5.385    0.000    0.000    0.000    0.000 
#   11.538    0.000    0.000    0.000    0.000    0.000 
#
# Total GULP energy -434230.372258 kJ/mol
# GULP energy per Si atom -5567.056055 kJ/mol
# Density = 1.928471 g / cm^3
# Si number density = 19.328699 Si / 1000 Ang^3
#
#
#
# Elastic Constant Matrix: (Units=GPa)
#
#
# Indices 1 2 3 4 5 6 
#
# 1 73.1192 49.7779 31.2217 0.0000 0.0000 0.0000
# 2 49.7779 73.1192 31.2217 0.0000 0.0000 0.0000
# 3 31.2217 31.2217 104.5265 0.0000 0.0000 0.0000
# 4 0.0000 0.0000 0.0000 21.0952 0.0000 0.0000
# 5 0.0000 0.0000 0.0000 0.0000 21.0952 0.0000
# 6 0.0000 0.0000 0.0000 0.0000 0.0000 11.6706
#
#
#
# Elastic Compliance Matrix: (Units=1/GPa)
#
#
# Indices 1 2 3 4 5 6 
#
# 1 0.026218 -0.016625 -0.002865 0.000000 0.000000 0.000000
# 2 -0.016625 0.026218 -0.002865 0.000000 0.000000 0.000000
# 3 -0.002865 -0.002865 0.011279 0.000000 0.000000 0.000000
# 4 0.000000 0.000000 0.000000 0.047404 0.000000 0.000000
# 5 0.000000 0.000000 0.000000 0.000000 0.047404 0.000000
# 6 0.000000 0.000000 0.000000 0.000000 0.000000 0.085685
#
#
# Mechanical properties :
#
#
# Convention : Reuss Voigt Hill
#
# Bulk Modulus (GPa) = 52.62359 52.80082 52.71221
# Shear Modulus (GPa) = 16.93464 20.00844 18.47154
#
# Velocity S-wave (km/s) = 2.96318 3.22089 3.09472
# Velocity P-wave (km/s) = 6.24435 6.41941 6.33249
#
# Compressibility (1/GPa) = 0.01900289
#
# Stress axis : x y z
#
# Youngs Moduli (GPa) = 38.14227 38.14227 88.66294
#
# Poissons Ratio (x) = 0.63411 0.25405
# Poissons Ratio (y) = 0.63411 0.25405
# Poissons Ratio (z) = 0.10929 0.10929
#
# Static dielectric constant tensor:
#      x y z
#    x 1.708670 0.000000 0.000000 
#    y 0.000000 1.708670 0.000000 
#    z 0.000000 0.000000 1.727390 
# 
# From -- ./inp_files/6090.got.cif
#   From: 2010.05.17/outbox.cif.g08.bks.cpg/sg179_4_cif.got.tgz:6090.got - 2010.05.20 11:37:33.
