data_PCOD9583473
_publ_section_title
;
Structure prediction by ZEFSAII (Michael W. Deem and Ramdas Pophale) SiO2 
 PCOD9583473
Probable space group: P 65 2 2
;
_chemical_formula_sum "Si O2"
_cell_formula_units_Z 84
_cell_length_a 18.314904
_cell_length_b 18.314904
_cell_length_c 14.612087
_cell_angle_alpha 90.000000
_cell_angle_beta 90.000000
_cell_angle_gamma 120.000000
_cell_volume 4244.750559
_symmetry_space_group_name_H-M "P 65 2 2"
_symmetry_group_IT_number 179
_symmetry_cell_setting 'hexagonal'
loop_
_space_group_symop_operation_xyz
x,y,z
x-y,x,5/6+z
-y,x-y,2/3+z
-x,-y,1/2+z
-x+y,-x,1/3+z
y,-x+y,1/6+z
x-y,-y,-z
-x,-x+y,1/3-z
y,x,2/3-z
-y,-x,1/6-z
-x+y,y,1/2-z
x,x-y,5/6-z
loop_
_atom_site_type_symbol
_atom_site_label
_atom_site_fract_x
_atom_site_fract_y
_atom_site_fract_z
Si Si1 0.373680 0.626321 0.583334
Si Si2 0.549110 0.531064 0.725786
Si Si3 0.466074 0.181939 0.334020
Si Si4 0.640374 0.280747 0.250000
Si Si5 0.078869 0.137176 0.409104
Si Si6 0.622710 0.637178 0.224944
Si Si7 0.884443 0.318174 0.400501
Si Si8 0.858201 0.184354 0.865524
O O1 0.343369 0.657966 0.667487
O O2 0.329266 0.525233 0.583426
O O3 0.545376 0.545376 0.833334
O O4 0.637062 0.539538 0.701473
O O5 0.473762 0.436240 0.706261
O O6 0.545077 0.602549 0.665898
O O7 0.491619 0.245810 0.416667
O O8 0.540457 0.223157 0.260558
O O9 0.378183 0.163377 0.292734
O O10 0.089161 0.092179 0.503564
O O11 0.149228 0.149228 0.333334
O O12 0.095250 0.227053 0.444827
O O13 0.638097 0.638097 0.333334
O O14 0.673470 0.605185 0.162487
O O15 0.647360 0.729589 0.189856
O O16 0.865655 0.230879 0.353852
#
# Coordination Sequence:
#
# PCOD9583473 Si02
#       8
#     6  12  12   6  12  12  12  12
#     4  12  26  41  64  92 136 192 242 292 347 418
#     4  11  24  42  67  96 140 187 237 282 357 432
#     4  12  25  40  67 101 136 184 232 293 359 413
#     4  12  26  45  62  98 146 180 250 302 341 414
#     4  10  24  48  76 110 145 180 227 292 380 462
#     4  11  25  45  69  96 139 192 240 290 354 420
#     4  12  24  45  66  97 138 190 240 292 363 418
#     4  12  25  42  72 108 141 182 236 309 353 429
#
# _framework density 19.789148000000001
#
# number of rings (size 3 to 8) (size 9 to 14) (size 15 to 20)
#    0.000    0.571    5.000    2.571    2.000    2.286 
#    0.000    3.571    0.000    0.000    0.000    0.000 
#    0.000    0.000    0.000    0.000    0.000    0.000 
#
# Total GULP energy -468859.369636 kJ/mol
# GULP energy per Si atom -5581.659162 kJ/mol
# Density = 1.974411 g / cm^3
# Si number density = 19.789148 Si / 1000 Ang^3
#
#
#
# Elastic Constant Matrix: (Units=GPa)
#
#
# Indices 1 2 3 4 5 6 
#
# 1 78.0332 47.1314 52.2396 0.0000 0.0000 0.0000
# 2 47.1314 78.0332 52.2396 0.0000 0.0000 0.0000
# 3 52.2396 52.2396 126.7308 0.0000 0.0000 0.0000
# 4 0.0000 0.0000 0.0000 28.2043 0.0000 0.0000
# 5 0.0000 0.0000 0.0000 0.0000 28.2043 0.0000
# 6 0.0000 0.0000 0.0000 0.0000 0.0000 15.4509
#
#
#
# Elastic Compliance Matrix: (Units=1/GPa)
#
#
# Indices 1 2 3 4 5 6 
#
# 1 0.022271 -0.010090 -0.005021 0.000000 0.000000 0.000000
# 2 -0.010090 0.022271 -0.005021 0.000000 0.000000 0.000000
# 3 -0.005021 -0.005021 0.012030 0.000000 0.000000 0.000000
# 4 0.000000 0.000000 0.000000 0.035456 0.000000 0.000000
# 5 0.000000 0.000000 0.000000 0.000000 0.035456 0.000000
# 6 0.000000 0.000000 0.000000 0.000000 0.000000 0.064721
#
#
# Mechanical properties :
#
#
# Convention : Reuss Voigt Hill
#
# Bulk Modulus (GPa) = 61.32133 65.11313 63.21723
# Shear Modulus (GPa) = 21.01692 23.11766 22.06729
#
# Velocity S-wave (km/s) = 3.26244 3.42160 3.34297
# Velocity P-wave (km/s) = 6.72651 6.97027 6.84948
#
# Compressibility (1/GPa) = 0.01630754
#
# Stress axis : x y z
#
# Youngs Moduli (GPa) = 44.90218 44.90218 83.12460
#
# Poissons Ratio (x) = 0.45306 0.41737
# Poissons Ratio (y) = 0.45306 0.41737
# Poissons Ratio (z) = 0.22545 0.22545
#
# Static dielectric constant tensor:
#      x y z
#    x 1.679210 0.000000 0.000000 
#    y 0.000000 1.679210 0.000000 
#    z 0.000000 0.000000 1.683300 
# 
# From -- ./inp_files/6144.got.cif
#   From: 2010.05.17/outbox.cif.g08.bks.cpg/sg179_4_cif.got.tgz:6144.got - 2010.05.20 11:37:33.
