data_PCOD9583585
_publ_section_title
;
Structure prediction by ZEFSAII (Michael W. Deem and Ramdas Pophale) SiO2 
 PCOD9583585
Probable space group: P 65 2 2
;
_chemical_formula_sum "Si O2"
_cell_formula_units_Z 30
_cell_length_a 13.995377
_cell_length_b 13.995377
_cell_length_c 7.154880
_cell_angle_alpha 90.000000
_cell_angle_beta 90.000000
_cell_angle_gamma 120.000000
_cell_volume 1213.674394
_symmetry_space_group_name_H-M "P 65 2 2"
_symmetry_group_IT_number 179
_symmetry_cell_setting 'hexagonal'
loop_
_space_group_symop_operation_xyz
x,y,z
x-y,x,5/6+z
-y,x-y,2/3+z
-x,-y,1/2+z
-x+y,-x,1/3+z
y,-x+y,1/6+z
x-y,-y,-z
-x,-x+y,1/3-z
y,x,2/3-z
-y,-x,1/6-z
-x+y,y,1/2-z
x,x-y,5/6-z
loop_
_atom_site_type_symbol
_atom_site_label
_atom_site_fract_x
_atom_site_fract_y
_atom_site_fract_z
Si Si1 0.000000 0.201990 0.166667
Si Si2 0.009097 0.668751 0.363284
Si Si3 0.579285 0.420716 0.083334
Si Si4 0.754921 0.509842 0.750000
O O1 0.092520 0.185039 0.250000
O O2 0.948529 0.244477 0.320329
O O3 0.127811 0.706380 0.464352
O O4 0.000000 0.717021 0.166667
O O5 0.072835 0.612257 0.002602
O O6 0.558883 0.336104 0.254199
#
# Coordination Sequence:
#
# PCOD9583585 Si02
#       4
#     6  12   6   6
#     4  12  26  52  78 122 162 208 284 352 438 518
#     4  12  25  52  86 119 171 230 285 359 444 532
#     4  12  26  52  87 128 180 228 307 364 444 544
#     4  12  26  54  85 128 172 242 295 364 456 544
#
# _framework density 24.718325
#
# number of rings (size 3 to 8) (size 9 to 14) (size 15 to 20)
#    0.000    0.000    6.000    2.400    0.000    6.400 
#    3.600   24.000    0.000    0.000    0.000    0.000 
#    0.000    0.000    0.000    0.000    0.000    0.000 
#
# Total GULP energy -167506.711399 kJ/mol
# GULP energy per Si atom -5583.557047 kJ/mol
# Density = 2.466207 g / cm^3
# Si number density = 24.718325 Si / 1000 Ang^3
#
#
#
# Elastic Constant Matrix: (Units=GPa)
#
#
# Indices 1 2 3 4 5 6 
#
# 1 143.5719 63.8350 71.2366 0.0000 0.0000 0.0000
# 2 63.8350 143.5719 71.2366 0.0000 0.0000 0.0000
# 3 71.2366 71.2366 231.7632 0.0000 0.0000 0.0000
# 4 0.0000 0.0000 0.0000 43.8130 0.0000 0.0000
# 5 0.0000 0.0000 0.0000 0.0000 43.8130 0.0000
# 6 0.0000 0.0000 0.0000 0.0000 0.0000 39.8685
#
#
#
# Elastic Compliance Matrix: (Units=1/GPa)
#
#
# Indices 1 2 3 4 5 6 
#
# 1 0.009327 -0.003215 -0.001879 0.000000 0.000000 0.000000
# 2 -0.003215 0.009327 -0.001879 0.000000 0.000000 0.000000
# 3 -0.001879 -0.001879 0.005470 0.000000 0.000000 0.000000
# 4 0.000000 0.000000 0.000000 0.022824 0.000000 0.000000
# 5 0.000000 0.000000 0.000000 0.000000 0.022824 0.000000
# 6 0.000000 0.000000 0.000000 0.000000 0.000000 0.025082
#
#
# Mechanical properties :
#
#
# Convention : Reuss Voigt Hill
#
# Bulk Modulus (GPa) = 98.24163 103.50260 100.87212
# Shear Modulus (GPa) = 44.56705 46.33882 45.45294
#
# Velocity S-wave (km/s) = 4.25078 4.33445 4.29282
# Velocity P-wave (km/s) = 7.99518 8.18619 8.09125
#
# Compressibility (1/GPa) = 0.01017898
#
# Stress axis : x y z
#
# Youngs Moduli (GPa) = 107.22054 107.22054 182.82899
#
# Poissons Ratio (x) = 0.34468 0.34346
# Poissons Ratio (y) = 0.34468 0.34346
# Poissons Ratio (z) = 0.20142 0.20142
#
# Static dielectric constant tensor:
#      x y z
#    x 2.056810 0.000000 0.000000 
#    y 0.000000 2.056810 0.000000 
#    z 0.000000 0.000000 2.110770 
# 
# From -- ./inp_files/438.got.cif
#   From: 2010.05.17/outbox.cif.g08.bks.cpg/sg179_1_cif.got.tgz:438.got - 2010.05.20 11:37:33.
