data_PCOD9583625
_publ_section_title
;
Structure prediction by ZEFSAII (Michael W. Deem and Ramdas Pophale) SiO2 
 PCOD9583625
Probable space group: P 62 2 2
;
_chemical_formula_sum "Si O2"
_cell_formula_units_Z 96
_cell_length_a 15.304677
_cell_length_b 15.304677
_cell_length_c 21.613884
_cell_angle_alpha 90.000000
_cell_angle_beta 90.000000
_cell_angle_gamma 120.000000
_cell_volume 4384.416311
_symmetry_space_group_name_H-M "P 62 2 2"
_symmetry_group_IT_number 180
_symmetry_cell_setting 'hexagonal'
loop_
_space_group_symop_operation_xyz
x,y,z
x-y,x,1/3+z
-y,x-y,2/3+z
-x,-y,z
-x+y,-x,1/3+z
y,-x+y,2/3+z
x-y,-y,-z
-x,-x+y,1/3-z
y,x,2/3-z
-y,-x,2/3-z
-x+y,y,-z
x,x-y,1/3-z
loop_
_atom_site_type_symbol
_atom_site_label
_atom_site_fract_x
_atom_site_fract_y
_atom_site_fract_z
Si Si1 0.218833 0.773984 0.757697
Si Si2 0.326563 0.670622 0.241880
Si Si3 0.212700 0.426183 0.089856
Si Si4 0.006323 0.720294 0.900314
Si Si5 0.995574 0.392164 0.772952
Si Si6 0.283696 0.008583 0.428969
Si Si7 0.439853 0.210965 0.907999
Si Si8 0.882208 0.940801 0.741611
O O1 0.222541 0.777460 0.833334
O O2 0.297040 0.738980 0.738337
O O3 0.244391 0.884806 0.737404
O O4 0.108084 0.685082 0.739903
O O5 0.327880 0.663940 0.166667
O O6 0.264336 0.723257 0.262016
O O7 0.273559 0.554708 0.260901
O O8 0.268633 0.365679 0.069427
O O9 0.219603 0.430188 0.165673
O O10 0.097094 0.361107 0.068889
O O11 0.008573 0.667008 0.836183
O O12 0.989142 0.816918 0.897528
O O13 0.097443 0.409495 0.741327
O O14 0.000000 0.500000 0.783563
O O15 0.367203 0.115334 0.403133
O O16 0.309107 0.000000 0.500000
O O17 0.175716 0.002745 0.428050
O O18 0.875275 0.937638 0.666667
O O19 0.000000 0.000000 0.758508
#
# Coordination Sequence:
#
# PCOD9583625 Si02
#       8
#    12  12  12  12  12  12  12  12
#     4   9  17  25  40  67 104 136 169 204 257 320
#     4   9  15  24  39  66  99 141 170 199 254 318
#     4   8  16  27  40  63 100 133 168 211 253 312
#     4   9  19  30  47  73  94 136 181 217 261 315
#     4  10  17  28  44  72 114 143 166 211 267 329
#     4   9  18  33  49  77 103 132 170 221 272 316
#     4   9  16  25  42  65 101 138 169 198 261 309
#     4  10  22  40  56  74 103 144 186 224 276 340
#
# _framework density 21.895731000000001
#
# number of rings (size 3 to 8) (size 9 to 14) (size 15 to 20)
#    0.000    2.875    1.250    0.750    7.000    0.750 
#    4.500    2.500    0.000    0.000    6.500    0.875 
#    0.000    3.000    0.000    0.000    0.000    0.000 
#
# Total GULP energy -535558.435333 kJ/mol
# GULP energy per Si atom -5578.733701 kJ/mol
# Density = 2.184590 g / cm^3
# Si number density = 21.895731 Si / 1000 Ang^3
#
#
#
# Elastic Constant Matrix: (Units=GPa)
#
#
# Indices 1 2 3 4 5 6 
#
# 1 189.9458 101.1727 -8.3578 0.0000 0.0000 0.0000
# 2 101.1727 189.9458 -8.3578 0.0000 0.0000 0.0000
# 3 -8.3578 -8.3578 91.2243 0.0000 0.0000 0.0000
# 4 0.0000 0.0000 0.0000 -25.8117 0.0000 0.0000
# 5 0.0000 0.0000 0.0000 0.0000 -25.8117 0.0000
# 6 0.0000 0.0000 0.0000 0.0000 0.0000 44.3866
#
#
#
# Elastic Compliance Matrix: (Units=1/GPa)
#
#
# Indices 1 2 3 4 5 6 
#
# 1 0.007359 -0.003906 0.000316 0.000000 0.000000 0.000000
# 2 -0.003906 0.007359 0.000316 0.000000 0.000000 0.000000
# 3 0.000316 0.000316 0.011020 0.000000 0.000000 0.000000
# 4 0.000000 0.000000 0.000000 -0.038742 0.000000 0.000000
# 5 0.000000 0.000000 0.000000 0.000000 -0.038742 0.000000
# 6 0.000000 0.000000 0.000000 0.000000 0.000000 0.022529
#
#
# Mechanical properties :
#
#
# Convention : Reuss Voigt Hill
#
# Bulk Modulus (GPa) = 52.10546 71.11445 61.60996
# Shear Modulus (GPa) = -307.24240 24.32989 -141.45626
#
# Velocity S-wave (km/s) = -11.85855 3.33704 -8.04641
# Velocity P-wave (km/s) = 12.79264 6.88455 7.62413
#
# Compressibility (1/GPa) = 0.01919185
#
# Stress axis : x y z
#
# Youngs Moduli (GPa) = 135.88931 135.88931 90.74443
#
# Poissons Ratio (x) = 0.53075 -0.02871
# Poissons Ratio (y) = 0.53075 -0.02871
# Poissons Ratio (z) = -0.04299 -0.04299
#
# Static dielectric constant tensor:
#      x y z
#    x 1.765730 0.000000 0.000000 
#    y 0.000000 1.765730 0.000000 
#    z 0.000000 0.000000 1.873530 
# 
# From -- ./inp_files/11458.got.cif
#   From: 2010.05.17/outbox.cif.g08.bks.cpg/sg180_6_cif.got.tgz:11458.got - 2010.05.20 11:43:55.
