data_PCOD9583103
_publ_section_title
;
Structure prediction by ZEFSAII (Michael W. Deem and Ramdas Pophale) SiO2 
 PCOD9583103
Probable space group: P 65 2 2
;
_chemical_formula_sum "Si O2"
_cell_formula_units_Z 84
_cell_length_a 14.443833
_cell_length_b 14.443833
_cell_length_c 27.832521
_cell_angle_alpha 90.000000
_cell_angle_beta 90.000000
_cell_angle_gamma 120.000000
_cell_volume 5028.611613
_symmetry_space_group_name_H-M "P 65 2 2"
_symmetry_group_IT_number 179
_symmetry_cell_setting 'hexagonal'
loop_
_space_group_symop_operation_xyz
x,y,z
x-y,x,5/6+z
-y,x-y,2/3+z
-x,-y,1/2+z
-x+y,-x,1/3+z
y,-x+y,1/6+z
x-y,-y,-z
-x,-x+y,1/3-z
y,x,2/3-z
-y,-x,1/6-z
-x+y,y,1/2-z
x,x-y,5/6-z
loop_
_atom_site_type_symbol
_atom_site_label
_atom_site_fract_x
_atom_site_fract_y
_atom_site_fract_z
Si Si1 0.368612 0.358510 0.464004
Si Si2 0.579321 0.778530 0.738875
Si Si3 0.762388 0.520753 0.392136
Si Si4 0.242743 0.477587 0.320360
Si Si5 0.314456 0.600494 0.506313
Si Si6 0.530396 0.065133 0.050031
Si Si7 0.616689 0.605611 0.077692
O O1 0.253996 0.335536 0.445731
O O2 0.392686 0.261432 0.464036
O O3 0.459821 0.452519 0.429883
O O4 0.371543 0.385553 0.520087
O O5 0.560993 0.745631 0.794288
O O6 0.474975 0.708400 0.705821
O O7 0.604388 0.899998 0.736872
O O8 0.744527 0.436677 0.349433
O O9 0.744877 0.464063 0.444028
O O10 0.663303 0.542821 0.389254
O O11 0.888505 0.604028 0.395781
O O12 0.240789 0.586396 0.330552
O O13 0.348883 0.512792 0.290430
O O14 0.499343 0.000000 0.000000
O O15 0.507745 0.492256 0.083334
#
# Coordination Sequence:
#
# PCOD9583103 Si02
#       7
#    12  12  12  12  12  12  12
#     4  11  20  32  48  75 106 139 176 220 268 319
#     4  11  20  30  48  74 107 138 184 223 255 316
#     4  10  19  33  51  70 108 145 178 217 277 327
#     4  10  20  32  50  72 105 144 171 213 273 322
#     4  10  17  31  47  72 100 142 176 215 263 313
#     4  11  21  35  53  77 107 143 174 217 276 331
#     4  11  21  33  50  76 103 143 184 219 267 322
#
# _framework density 16.704412000000001
#
# number of rings (size 3 to 8) (size 9 to 14) (size 15 to 20)
#    0.000    1.429    5.714    2.571    0.000    0.000 
#    0.000    0.000    0.000    0.000    0.000    1.000 
#    0.000    0.000    0.000    0.000    0.000    0.000 
#
# Total GULP energy -467636.575441 kJ/mol
# GULP energy per Si atom -5567.102089 kJ/mol
# Density = 1.666639 g / cm^3
# Si number density = 16.704412 Si / 1000 Ang^3
#
#
#
# Elastic Constant Matrix: (Units=GPa)
#
#
# Indices 1 2 3 4 5 6 
#
# 1 67.6294 30.8661 22.7420 0.0000 0.0000 0.0000
# 2 30.8661 67.6294 22.7420 0.0000 0.0000 0.0000
# 3 22.7420 22.7420 77.7689 0.0000 0.0000 0.0000
# 4 0.0000 0.0000 0.0000 21.0683 0.0000 0.0000
# 5 0.0000 0.0000 0.0000 0.0000 21.0683 0.0000
# 6 0.0000 0.0000 0.0000 0.0000 0.0000 18.3816
#
#
#
# Elastic Compliance Matrix: (Units=1/GPa)
#
#
# Indices 1 2 3 4 5 6 
#
# 1 0.019469 -0.007732 -0.003433 0.000000 0.000000 0.000000
# 2 -0.007732 0.019469 -0.003433 0.000000 0.000000 0.000000
# 3 -0.003433 -0.003433 0.014866 0.000000 0.000000 0.000000
# 4 0.000000 0.000000 0.000000 0.047465 0.000000 0.000000
# 5 0.000000 0.000000 0.000000 0.000000 0.047465 0.000000
# 6 0.000000 0.000000 0.000000 0.000000 0.000000 0.054402
#
#
# Mechanical properties :
#
#
# Convention : Reuss Voigt Hill
#
# Bulk Modulus (GPa) = 40.63091 40.63645 40.63368
# Shear Modulus (GPa) = 20.78708 21.21546 21.00127
#
# Velocity S-wave (km/s) = 3.53144 3.56764 3.54959
# Velocity P-wave (km/s) = 6.40347 6.43042 6.41696
#
# Compressibility (1/GPa) = 0.02461180
#
# Stress axis : x y z
#
# Youngs Moduli (GPa) = 51.36246 51.36246 67.26693
#
# Poissons Ratio (x) = 0.39712 0.23089
# Poissons Ratio (y) = 0.39712 0.23089
# Poissons Ratio (z) = 0.17630 0.17630
#
# Static dielectric constant tensor:
#      x y z
#    x 1.607520 0.000000 0.000000 
#    y 0.000000 1.607520 0.000000 
#    z 0.000000 0.000000 1.601190 
# 
# From -- ./inp_files/8994.got.cif
#   From: 2010.05.17/outbox.cif.g08.bks.cpg/sg179_5_cif.got.tgz:8994.got - 2010.05.20 11:37:33.
