data_PCOD9583876
_publ_section_title
;
Structure prediction by ZEFSAII (Michael W. Deem and Ramdas Pophale) SiO2 
 PCOD9583876
Probable space group: P 62 2 2
;
_chemical_formula_sum "Si O2"
_cell_formula_units_Z 66
_cell_length_a 11.904232
_cell_length_b 11.904232
_cell_length_c 25.955152
_cell_angle_alpha 90.000000
_cell_angle_beta 90.000000
_cell_angle_gamma 120.000000
_cell_volume 3185.348635
_symmetry_space_group_name_H-M "P 62 2 2"
_symmetry_group_IT_number 180
_symmetry_cell_setting 'hexagonal'
loop_
_space_group_symop_operation_xyz
x,y,z
x-y,x,1/3+z
-y,x-y,2/3+z
-x,-y,z
-x+y,-x,1/3+z
y,-x+y,2/3+z
x-y,-y,-z
-x,-x+y,1/3-z
y,x,2/3-z
-y,-x,2/3-z
-x+y,y,-z
x,x-y,1/3-z
loop_
_atom_site_type_symbol
_atom_site_label
_atom_site_fract_x
_atom_site_fract_y
_atom_site_fract_z
Si Si1 0.985811 0.257861 0.350960
Si Si2 0.961719 0.350827 0.459180
Si Si3 0.970006 0.616819 0.757324
Si Si4 0.142008 0.478816 0.120895
Si Si5 0.123167 0.680209 0.068439
Si Si6 0.205297 0.205297 0.333334
O O1 0.837679 0.162321 0.333334
O O2 0.998772 0.289875 0.411386
O O3 0.061430 0.391946 0.320290
O O4 0.065895 0.191624 0.329048
O O5 0.010917 0.348467 0.517047
O O6 0.806795 0.255266 0.462461
O O7 0.000000 0.500000 0.448958
O O8 0.818105 0.572510 0.749230
O O9 0.000000 0.500000 0.748003
O O10 0.031446 0.728372 0.714582
O O11 0.142394 0.571197 0.166667
O O12 0.165707 0.573285 0.073119
O O13 0.999870 0.356939 0.107276
#
# Coordination Sequence:
#
# PCOD9583876 Si02
#       6
#    12  12  12  12  12   6
#     4  11  23  42  64  90 132 170 220 280 327 402
#     4  11  25  40  62  99 139 169 212 282 343 393
#     4  10  22  42  64  94 130 167 219 276 334 403
#     4  11  21  38  67  97 129 173 222 262 326 409
#     4  10  21  37  68  94 124 174 220 264 328 405
#     4  10  24  44  66  86 116 184 230 264 334 398
#
# _framework density 20.719868000000002
#
# number of rings (size 3 to 8) (size 9 to 14) (size 15 to 20)
#    0.000    1.455    3.636    1.636    2.545    2.182 
#    0.000    1.818    0.000    2.182    0.000    0.000 
#    0.000    0.000    0.000    0.000    0.000    0.000 
#
# Total GULP energy -367631.542331 kJ/mol
# GULP energy per Si atom -5570.174884 kJ/mol
# Density = 2.067271 g / cm^3
# Si number density = 20.719868 Si / 1000 Ang^3
#
#
#
# Elastic Constant Matrix: (Units=GPa)
#
#
# Indices 1 2 3 4 5 6 
#
# 1 73.4944 26.3347 17.9420 0.0000 0.0000 0.0000
# 2 26.3347 73.4944 17.9420 0.0000 0.0000 0.0000
# 3 17.9420 17.9420 119.2438 0.0000 0.0000 0.0000
# 4 0.0000 0.0000 0.0000 26.8599 0.0000 0.0000
# 5 0.0000 0.0000 0.0000 0.0000 26.8599 0.0000
# 6 0.0000 0.0000 0.0000 0.0000 0.0000 23.5799
#
#
#
# Elastic Compliance Matrix: (Units=1/GPa)
#
#
# Indices 1 2 3 4 5 6 
#
# 1 0.015897 -0.005307 -0.001593 0.000000 0.000000 0.000000
# 2 -0.005307 0.015897 -0.001593 0.000000 0.000000 0.000000
# 3 -0.001593 -0.001593 0.008866 0.000000 0.000000 0.000000
# 4 0.000000 0.000000 0.000000 0.037230 0.000000 0.000000
# 5 0.000000 0.000000 0.000000 0.000000 0.037230 0.000000
# 6 0.000000 0.000000 0.000000 0.000000 0.000000 0.042409
#
#
# Mechanical properties :
#
#
# Convention : Reuss Voigt Hill
#
# Bulk Modulus (GPa) = 42.24434 43.40778 42.82606
# Shear Modulus (GPa) = 27.41100 29.06086 28.23593
#
# Velocity S-wave (km/s) = 3.64116 3.74914 3.69554
# Velocity P-wave (km/s) = 6.17333 6.30371 6.23886
#
# Compressibility (1/GPa) = 0.02367181
#
# Stress axis : x y z
#
# Youngs Moduli (GPa) = 62.90413 62.90413 112.79444
#
# Poissons Ratio (x) = 0.33385 0.17973
# Poissons Ratio (y) = 0.33385 0.17973
# Poissons Ratio (z) = 0.10023 0.10023
#
# Static dielectric constant tensor:
#      x y z
#    x 1.769960 0.000000 0.000000 
#    y 0.000000 1.769960 0.000000 
#    z 0.000000 0.000000 1.871140 
# 
# From -- ./inp_files/12274.got.cif
#   From: 2010.05.17/outbox.cif.g08.bks.cpg/sg180_7_cif.got.tgz:12274.got - 2010.05.20 11:43:55.
