data_PCOD9583153
_publ_section_title
;
Structure prediction by ZEFSAII (Michael W. Deem and Ramdas Pophale) SiO2 
 PCOD9583153
Probable space group: P 65 2 2
;
_chemical_formula_sum "Si O2"
_cell_formula_units_Z 42
_cell_length_a 15.426440
_cell_length_b 15.426440
_cell_length_c 10.833894
_cell_angle_alpha 90.000000
_cell_angle_beta 90.000000
_cell_angle_gamma 120.000000
_cell_volume 2232.783646
_symmetry_space_group_name_H-M "P 65 2 2"
_symmetry_group_IT_number 179
_symmetry_cell_setting 'hexagonal'
loop_
_space_group_symop_operation_xyz
x,y,z
x-y,x,5/6+z
-y,x-y,2/3+z
-x,-y,1/2+z
-x+y,-x,1/3+z
y,-x+y,1/6+z
x-y,-y,-z
-x,-x+y,1/3-z
y,x,2/3-z
-y,-x,1/6-z
-x+y,y,1/2-z
x,x-y,5/6-z
loop_
_atom_site_type_symbol
_atom_site_label
_atom_site_fract_x
_atom_site_fract_y
_atom_site_fract_z
Si Si1 0.503801 0.751901 0.916667
Si Si2 0.923495 0.275347 0.560700
Si Si3 0.582815 0.150761 0.886529
Si Si4 0.354977 0.336848 0.467899
O O1 0.442711 0.667078 0.814877
O O2 0.572568 0.710398 0.978125
O O3 0.831874 0.168127 0.583334
O O4 0.883919 0.353366 0.584705
O O5 0.000000 0.293702 0.666667
O O6 0.972567 0.291731 0.425115
O O7 0.598213 0.196426 0.750000
O O8 0.591385 0.049819 0.876628
O O9 0.301953 0.301953 0.333334
#
# Coordination Sequence:
#
# PCOD9583153 Si02
#       4
#     6  12  12  12
#     4  10  18  36  70  90 122 170 212 258 310 376
#     4  11  24  40  61  90 127 163 202 257 317 371
#     4   9  20  40  60  90 129 162 207 255 308 371
#     4   9  20  37  65  87 121 160 211 255 302 369
#
# _framework density 18.810599
#
# number of rings (size 3 to 8) (size 9 to 14) (size 15 to 20)
#    0.000    2.286    0.000    2.571   12.000    0.000 
#    7.714    4.286    0.000    0.000    3.714    0.000 
#    0.000    0.000    0.000    0.000    0.000    0.000 
#
# Total GULP energy -234179.123360 kJ/mol
# GULP energy per Si atom -5575.693413 kJ/mol
# Density = 1.876779 g / cm^3
# Si number density = 18.810599 Si / 1000 Ang^3
#
#
#
# Elastic Constant Matrix: (Units=GPa)
#
#
# Indices 1 2 3 4 5 6 
#
# 1 81.1989 75.8445 63.9561 0.0000 0.0000 0.0000
# 2 75.8445 81.1989 63.9561 0.0000 0.0000 0.0000
# 3 63.9561 63.9561 114.9634 0.0000 0.0000 0.0000
# 4 0.0000 0.0000 0.0000 226.8940 0.0000 0.0000
# 5 0.0000 0.0000 0.0000 0.0000 226.8939 0.0000
# 6 0.0000 0.0000 0.0000 0.0000 0.0000 2.6772
#
#
#
# Elastic Compliance Matrix: (Units=1/GPa)
#
#
# Indices 1 2 3 4 5 6 
#
# 1 0.099201 -0.087558 -0.006478 0.000000 0.000000 0.000000
# 2 -0.087558 0.099201 -0.006478 0.000000 0.000000 0.000000
# 3 -0.006478 -0.006478 0.015906 0.000000 0.000000 0.000000
# 4 0.000000 0.000000 0.000000 0.004407 0.000000 0.000000
# 5 0.000000 0.000000 0.000000 0.000000 0.004407 0.000000
# 6 0.000000 0.000000 0.000000 0.000000 0.000000 0.373519
#
#
# Mechanical properties :
#
#
# Convention : Reuss Voigt Hill
#
# Bulk Modulus (GPa) = 75.28625 76.09715 75.69170
# Shear Modulus (GPa) = 6.23367 96.20001 51.21684
#
# Velocity S-wave (km/s) = 1.82239 7.15908 5.22367
# Velocity P-wave (km/s) = 6.67371 10.43450 8.75834
#
# Compressibility (1/GPa) = 0.01328264
#
# Stress axis : x y z
#
# Youngs Moduli (GPa) = 10.08050 10.08050 62.87104
#
# Poissons Ratio (x) = 0.88263 0.40725
# Poissons Ratio (y) = 0.88263 0.40725
# Poissons Ratio (z) = 0.06530 0.06530
#
# Static dielectric constant tensor:
#      x y z
#    x 0.398150 0.000000 0.000000 
#    y 0.000000 0.398150 0.000000 
#    z 0.000000 0.000000 1.702280 
# 
# From -- ./inp_files/4070.got.cif
#   From: 2010.05.17/outbox.cif.g08.bks.cpg/sg179_3_cif.got.tgz:4070.got - 2010.05.20 11:37:33.
