data_PCOD9583481
_publ_section_title
;
Structure prediction by ZEFSAII (Michael W. Deem and Ramdas Pophale) SiO2 
 PCOD9583481
Probable space group: P 65 2 2
;
_chemical_formula_sum "Si O2"
_cell_formula_units_Z 60
_cell_length_a 14.103682
_cell_length_b 14.103682
_cell_length_c 15.288465
_cell_angle_alpha 90.000000
_cell_angle_beta 90.000000
_cell_angle_gamma 120.000000
_cell_volume 2633.658919
_symmetry_space_group_name_H-M "P 65 2 2"
_symmetry_group_IT_number 179
_symmetry_cell_setting 'hexagonal'
loop_
_space_group_symop_operation_xyz
x,y,z
x-y,x,5/6+z
-y,x-y,2/3+z
-x,-y,1/2+z
-x+y,-x,1/3+z
y,-x+y,1/6+z
x-y,-y,-z
-x,-x+y,1/3-z
y,x,2/3-z
-y,-x,1/6-z
-x+y,y,1/2-z
x,x-y,5/6-z
loop_
_atom_site_type_symbol
_atom_site_label
_atom_site_fract_x
_atom_site_fract_y
_atom_site_fract_z
Si Si1 0.141170 0.479066 0.581371
Si Si2 0.133753 0.078533 0.210810
Si Si3 0.542780 0.073448 0.853282
Si Si4 0.753341 0.246660 0.583334
Si Si5 0.741325 0.482649 0.750000
Si Si6 0.611057 0.835001 0.092741
O O1 0.169012 0.432119 0.667903
O O2 0.205465 0.610701 0.588759
O O3 0.185989 0.443570 0.499902
O O4 0.016975 0.448882 0.565304
O O5 0.114148 0.082072 0.105706
O O6 0.135009 0.067505 0.416667
O O7 0.260370 0.145904 0.231954
O O8 0.527908 0.055816 0.750000
O O9 0.560310 0.192739 0.876227
O O10 0.650017 0.073810 0.887436
O O11 0.780530 0.559313 0.834647
#
# Coordination Sequence:
#
# PCOD9583481 Si02
#       6
#    12  12  12   6   6  12
#     4  12  27  47  75 113 161 208 261 319 399 470
#     4  10  26  50  82 108 149 193 258 338 397 452
#     4  12  26  48  75 110 164 209 261 329 390 480
#     4  12  24  46  72 104 156 216 252 310 388 470
#     4  12  26  42  76 118 162 204 252 316 390 464
#     4  12  27  45  78 117 152 206 262 324 393 471
#
# _framework density 22.781994000000001
#
# number of rings (size 3 to 8) (size 9 to 14) (size 15 to 20)
#    0.000    0.400    4.000    3.600    9.800    0.000 
#    0.000    0.000   35.200    0.000    0.000    0.000 
#    0.000    0.000    0.000    0.000    0.000    0.000 
#
# Total GULP energy -335496.718745 kJ/mol
# GULP energy per Si atom -5591.611979 kJ/mol
# Density = 2.273014 g / cm^3
# Si number density = 22.781994 Si / 1000 Ang^3
#
#
#
# Elastic Constant Matrix: (Units=GPa)
#
#
# Indices 1 2 3 4 5 6 
#
# 1 90.9295 46.9291 55.5069 0.0000 0.0000 0.0000
# 2 46.9291 90.9295 55.5069 0.0000 0.0000 0.0000
# 3 55.5069 55.5069 210.2010 0.0000 0.0000 0.0000
# 4 0.0000 0.0000 0.0000 33.8461 0.0000 0.0000
# 5 0.0000 0.0000 0.0000 0.0000 33.8461 0.0000
# 6 0.0000 0.0000 0.0000 0.0000 0.0000 22.0002
#
#
#
# Elastic Compliance Matrix: (Units=1/GPa)
#
#
# Indices 1 2 3 4 5 6 
#
# 1 0.015970 -0.006757 -0.002433 0.000000 0.000000 0.000000
# 2 -0.006757 0.015970 -0.002433 0.000000 0.000000 0.000000
# 3 -0.002433 -0.002433 0.006042 0.000000 0.000000 0.000000
# 4 0.000000 0.000000 0.000000 0.029546 0.000000 0.000000
# 5 0.000000 0.000000 0.000000 0.000000 0.029546 0.000000
# 6 0.000000 0.000000 0.000000 0.000000 0.000000 0.045454
#
#
# Mechanical properties :
#
#
# Convention : Reuss Voigt Hill
#
# Bulk Modulus (GPa) = 67.85764 78.66065 73.25915
# Shear Modulus (GPa) = 29.29373 33.54627 31.42000
#
# Velocity S-wave (km/s) = 3.58973 3.84147 3.71773
# Velocity P-wave (km/s) = 6.85798 7.36738 7.11724
#
# Compressibility (1/GPa) = 0.01473673
#
# Stress axis : x y z
#
# Youngs Moduli (GPa) = 62.61747 62.61747 165.50270
#
# Poissons Ratio (x) = 0.42311 0.40264
# Poissons Ratio (y) = 0.42311 0.40264
# Poissons Ratio (z) = 0.15234 0.15234
#
# Static dielectric constant tensor:
#      x y z
#    x 1.831280 0.000000 0.000000 
#    y 0.000000 1.831280 0.000000 
#    z 0.000000 0.000000 1.902820 
# 
# From -- ./inp_files/5821.got.cif
#   From: 2010.05.17/outbox.cif.g08.bks.cpg/sg179_3_cif.got.tgz:5821.got - 2010.05.20 11:37:33.
