data_PCOD9583058
_publ_section_title
;
Structure prediction by ZEFSAII (Michael W. Deem and Ramdas Pophale) SiO2 
 PCOD9583058
Probable space group: P 61 2 2
;
_chemical_formula_sum "Si O2"
_cell_formula_units_Z 54
_cell_length_a 15.058519
_cell_length_b 15.058519
_cell_length_c 11.837316
_cell_angle_alpha 90.000000
_cell_angle_beta 90.000000
_cell_angle_gamma 120.000000
_cell_volume 2324.600868
_symmetry_space_group_name_H-M "P 61 2 2"
_symmetry_group_IT_number 178
_symmetry_cell_setting 'hexagonal'
loop_
_space_group_symop_operation_xyz
x,y,z
x-y,x,1/6+z
-y,x-y,1/3+z
-x,-y,1/2+z
-x+y,-x,2/3+z
y,-x+y,5/6+z
x-y,-y,-z
-x,-x+y,2/3-z
y,x,1/3-z
-y,-x,5/6-z
-x+y,y,1/2-z
x,x-y,1/6-z
loop_
_atom_site_type_symbol
_atom_site_label
_atom_site_fract_x
_atom_site_fract_y
_atom_site_fract_z
Si Si1 0.026046 0.318382 0.634258
Si Si2 0.203858 0.587976 0.446343
Si Si3 0.167557 0.000000 0.000000
Si Si4 0.197419 0.821405 0.105616
Si Si5 0.165148 0.082574 0.583334
Si Si6 0.555598 0.555598 0.166667
O O1 0.917795 0.263030 0.570932
O O2 0.000746 0.381015 0.724964
O O3 0.132050 0.373398 0.565314
O O4 0.037713 0.232341 0.699856
O O5 0.300510 0.699491 0.416667
O O6 0.183059 0.591530 0.583334
O O7 0.224714 0.495647 0.414798
O O8 0.104327 0.556198 0.365524
O O9 0.145022 0.072511 0.083334
O O10 0.197135 0.921600 0.058940
O O11 0.091602 0.091602 0.666667
#
# Coordination Sequence:
#
# PCOD9583058 Si02
#       6
#    12  12   6  12   6   6
#     4  12  23  44  78 107 151 203 260 334 407 484
#     4  12  28  52  81 122 162 214 285 352 425 509
#     4  12  27  50  75 110 168 226 278 345 423 516
#     4  12  25  49  72 111 160 210 264 340 414 497
#     4  12  24  40  68 110 144 194 254 310 394 476
#     4  12  25  48  83 108 150 204 268 345 405 488
#
# _framework density 23.229793999999998
#
# number of rings (size 3 to 8) (size 9 to 14) (size 15 to 20)
#    0.000    0.000    7.778    2.000    1.556    0.889 
#   16.000    0.000    0.000    0.000    0.000    0.000 
#    0.000    0.000    0.000    0.000    0.000    0.000 
#
# Total GULP energy -300620.631234 kJ/mol
# GULP energy per Si atom -5567.048727 kJ/mol
# Density = 2.317692 g / cm^3
# Si number density = 23.229794 Si / 1000 Ang^3
#
#
#
# Elastic Constant Matrix: (Units=GPa)
#
#
# Indices 1 2 3 4 5 6 
#
# 1 108.2360 21.5494 13.9710 0.0000 0.0000 0.0000
# 2 21.5494 108.2360 13.9710 0.0000 0.0000 0.0000
# 3 13.9710 13.9710 60.1740 0.0000 0.0000 0.0000
# 4 0.0000 0.0000 0.0000 23.7170 0.0000 0.0000
# 5 0.0000 0.0000 0.0000 0.0000 23.7170 0.0000
# 6 0.0000 0.0000 0.0000 0.0000 0.0000 43.3433
#
#
#
# Elastic Compliance Matrix: (Units=1/GPa)
#
#
# Indices 1 2 3 4 5 6 
#
# 1 0.009823 -0.001713 -0.001883 0.000000 0.000000 0.000000
# 2 -0.001713 0.009823 -0.001883 0.000000 0.000000 0.000000
# 3 -0.001883 -0.001883 0.017493 0.000000 0.000000 0.000000
# 4 0.000000 0.000000 0.000000 0.042164 0.000000 0.000000
# 5 0.000000 0.000000 0.000000 0.000000 0.042164 0.000000
# 6 0.000000 0.000000 0.000000 0.000000 0.000000 0.023072
#
#
# Mechanical properties :
#
#
# Convention : Reuss Voigt Hill
#
# Bulk Modulus (GPa) = 38.19486 41.73653 39.96570
# Shear Modulus (GPa) = 30.44639 33.29912 31.87275
#
# Velocity S-wave (km/s) = 3.62423 3.79022 3.70816
# Velocity P-wave (km/s) = 5.83021 6.09592 5.96454
#
# Compressibility (1/GPa) = 0.02618153
#
# Stress axis : x y z
#
# Youngs Moduli (GPa) = 101.80065 101.80065 57.16618
#
# Poissons Ratio (x) = 0.17435 0.10765
# Poissons Ratio (y) = 0.17435 0.10765
# Poissons Ratio (z) = 0.19170 0.19170
#
# Static dielectric constant tensor:
#      x y z
#    x 1.923440 0.000000 0.000000 
#    y 0.000000 1.923440 0.000000 
#    z 0.000000 0.000000 2.029320 
# 
# From -- ./inp_files/5607.got.cif
#   From: 2010.05.17/outbox.cif.g08.bks.cpg/sg178_3_cif.got.tgz:5607.got - 2010.05.20 11:30:59.
