data_PCOD9583410
_publ_section_title
;
Structure prediction by ZEFSAII (Michael W. Deem and Ramdas Pophale) SiO2 
 PCOD9583410
Probable space group: P 65 2 2
;
_chemical_formula_sum "Si O2"
_cell_formula_units_Z 30
_cell_length_a 10.445064
_cell_length_b 10.445064
_cell_length_c 13.497294
_cell_angle_alpha 90.000000
_cell_angle_beta 90.000000
_cell_angle_gamma 120.000000
_cell_volume 1275.262386
_symmetry_space_group_name_H-M "P 65 2 2"
_symmetry_group_IT_number 179
_symmetry_cell_setting 'hexagonal'
loop_
_space_group_symop_operation_xyz
x,y,z
x-y,x,5/6+z
-y,x-y,2/3+z
-x,-y,1/2+z
-x+y,-x,1/3+z
y,-x+y,1/6+z
x-y,-y,-z
-x,-x+y,1/3-z
y,x,2/3-z
-y,-x,1/6-z
-x+y,y,1/2-z
x,x-y,5/6-z
loop_
_atom_site_type_symbol
_atom_site_label
_atom_site_fract_x
_atom_site_fract_y
_atom_site_fract_z
Si Si1 0.950125 0.178546 0.917937
Si Si2 0.925824 0.357310 0.568079
Si Si3 0.639695 0.000000 0.000000
O O1 0.024598 0.335143 0.863263
O O2 0.891791 0.060910 0.828379
O O3 0.801714 0.136111 0.979193
O O4 0.749976 0.250025 0.583334
O O5 0.987786 0.531912 0.576696
O O6 0.000000 0.330412 0.666667
#
# Coordination Sequence:
#
# PCOD9583410 Si02
#       3
#    12  12   6
#     4  12  25  47  74 108 147 187 249 309 370 434
#     4  10  22  48  71 101 139 197 242 289 367 435
#     4  10  26  44  64 112 140 188 244 290 372 438
#
# _framework density 23.524571999999999
#
# number of rings (size 3 to 8) (size 9 to 14) (size 15 to 20)
#    1.200    0.000    4.000    1.200    0.000    8.000 
#   14.400    0.000    0.000    0.000    0.000    0.000 
#    0.000    0.000    0.000    0.000    0.000    0.000 
#
# Total GULP energy -167372.777030 kJ/mol
# GULP energy per Si atom -5579.092568 kJ/mol
# Density = 2.347103 g / cm^3
# Si number density = 23.524572 Si / 1000 Ang^3
#
#
#
# Elastic Constant Matrix: (Units=GPa)
#
#
# Indices 1 2 3 4 5 6 
#
# 1 105.1282 39.6840 49.1108 0.0000 0.0000 0.0000
# 2 39.6840 105.1282 49.1108 0.0000 0.0000 0.0000
# 3 49.1108 49.1108 170.4609 0.0000 0.0000 0.0000
# 4 0.0000 0.0000 0.0000 43.6508 0.0000 0.0000
# 5 0.0000 0.0000 0.0000 0.0000 43.6508 0.0000
# 6 0.0000 0.0000 0.0000 0.0000 0.0000 32.7221
#
#
#
# Elastic Compliance Matrix: (Units=1/GPa)
#
#
# Indices 1 2 3 4 5 6 
#
# 1 0.011931 -0.003349 -0.002473 0.000000 0.000000 0.000000
# 2 -0.003349 0.011931 -0.002473 0.000000 0.000000 0.000000
# 3 -0.002473 -0.002473 0.007291 0.000000 0.000000 0.000000
# 4 0.000000 0.000000 0.000000 0.022909 0.000000 0.000000
# 5 0.000000 0.000000 0.000000 0.000000 0.022909 0.000000
# 6 0.000000 0.000000 0.000000 0.000000 0.000000 0.030560
#
#
# Mechanical properties :
#
#
# Convention : Reuss Voigt Hill
#
# Bulk Modulus (GPa) = 68.65437 72.94760 70.80098
# Shear Modulus (GPa) = 38.76681 40.19219 39.47950
#
# Velocity S-wave (km/s) = 4.06387 4.13791 4.10106
# Velocity P-wave (km/s) = 7.16014 7.34208 7.25168
#
# Compressibility (1/GPa) = 0.01456572
#
# Stress axis : x y z
#
# Youngs Moduli (GPa) = 83.81228 83.81228 137.15058
#
# Poissons Ratio (x) = 0.28067 0.33913
# Poissons Ratio (y) = 0.28067 0.33913
# Poissons Ratio (z) = 0.20724 0.20724
#
# Static dielectric constant tensor:
#      x y z
#    x 1.881640 0.000000 0.000000 
#    y 0.000000 1.881640 0.000000 
#    z 0.000000 0.000000 1.933320 
# 
# From -- ./inp_files/5096.got.cif
#   From: 2010.05.17/outbox.cif.g08.bks.cpg/sg179_3_cif.got.tgz:5096.got - 2010.05.20 11:37:33.
