data_PCOD9583190
_publ_section_title
;
Structure prediction by ZEFSAII (Michael W. Deem and Ramdas Pophale) SiO2 
 PCOD9583190
Probable space group: P 65 2 2
;
_chemical_formula_sum "Si O2"
_cell_formula_units_Z 42
_cell_length_a 16.472702
_cell_length_b 16.472702
_cell_length_c 7.764184
_cell_angle_alpha 90.000000
_cell_angle_beta 90.000000
_cell_angle_gamma 120.000000
_cell_volume 1824.551534
_symmetry_space_group_name_H-M "P 65 2 2"
_symmetry_group_IT_number 179
_symmetry_cell_setting 'hexagonal'
loop_
_space_group_symop_operation_xyz
x,y,z
x-y,x,5/6+z
-y,x-y,2/3+z
-x,-y,1/2+z
-x+y,-x,1/3+z
y,-x+y,1/6+z
x-y,-y,-z
-x,-x+y,1/3-z
y,x,2/3-z
-y,-x,1/6-z
-x+y,y,1/2-z
x,x-y,5/6-z
loop_
_atom_site_type_symbol
_atom_site_label
_atom_site_fract_x
_atom_site_fract_y
_atom_site_fract_z
Si Si1 0.989861 0.642317 0.372784
Si Si2 0.960782 0.812860 0.423381
Si Si3 0.648595 0.461794 0.217001
Si Si4 0.437018 0.562983 0.083334
O O1 0.972836 0.722097 0.454789
O O2 0.903576 0.537273 0.384086
O O3 0.072418 0.623671 0.433067
O O4 0.000000 0.662686 0.166667
O O5 0.900502 0.835765 0.557161
O O6 0.897881 0.795762 0.250000
O O7 0.758086 0.516171 0.250000
O O8 0.597313 0.425278 0.397002
O O9 0.621389 0.378612 0.083334
#
# Coordination Sequence:
#
# PCOD9583190 Si02
#       4
#    12  12  12   6
#     4  10  19  38  63  97 129 183 232 290 345 424
#     4  10  19  34  64 102 136 181 237 292 357 431
#     4  11  25  41  67  96 137 182 230 291 354 411
#     4  10  24  42  68  98 138 184 244 290 350 428
#
# _framework density 23.019354
#
# number of rings (size 3 to 8) (size 9 to 14) (size 15 to 20)
#    0.000    1.714    4.286    0.857    6.000    0.000 
#    0.000    0.000    0.000   24.000    0.000    0.000 
#    0.000    0.000    0.000    0.000    0.000    0.000 
#
# Total GULP energy -234037.942740 kJ/mol
# GULP energy per Si atom -5572.331970 kJ/mol
# Density = 2.296696 g / cm^3
# Si number density = 23.019354 Si / 1000 Ang^3
#
#
#
# Elastic Constant Matrix: (Units=GPa)
#
#
# Indices 1 2 3 4 5 6 
#
# 1 121.7467 80.7910 45.1228 0.0000 0.0000 0.0000
# 2 80.7910 121.7467 45.1228 0.0000 0.0000 0.0000
# 3 45.1228 45.1228 109.1702 0.0000 0.0000 0.0000
# 4 0.0000 0.0000 0.0000 14.6752 0.0000 0.0000
# 5 0.0000 0.0000 0.0000 0.0000 14.6752 0.0000
# 6 0.0000 0.0000 0.0000 0.0000 0.0000 20.4778
#
#
#
# Elastic Compliance Matrix: (Units=1/GPa)
#
#
# Indices 1 2 3 4 5 6 
#
# 1 0.015234 -0.009182 -0.002501 0.000000 0.000000 0.000000
# 2 -0.009182 0.015234 -0.002501 0.000000 0.000000 0.000000
# 3 -0.002501 -0.002501 0.011228 0.000000 0.000000 0.000000
# 4 0.000000 0.000000 0.000000 0.068142 0.000000 0.000000
# 5 0.000000 0.000000 0.000000 0.000000 0.068142 0.000000
# 6 0.000000 0.000000 0.000000 0.000000 0.000000 0.048833
#
#
# Mechanical properties :
#
#
# Convention : Reuss Voigt Hill
#
# Bulk Modulus (GPa) = 75.04131 77.19298 76.11714
# Shear Modulus (GPa) = 19.25843 22.07410 20.66627
#
# Velocity S-wave (km/s) = 2.89557 3.10003 2.99954
# Velocity P-wave (km/s) = 6.62187 6.81325 6.71824
#
# Compressibility (1/GPa) = 0.01332599
#
# Stress axis : x y z
#
# Youngs Moduli (GPa) = 65.64141 65.64141 89.06471
#
# Poissons Ratio (x) = 0.60274 0.22279
# Poissons Ratio (y) = 0.60274 0.22279
# Poissons Ratio (z) = 0.16420 0.16420
#
# Static dielectric constant tensor:
#      x y z
#    x 1.807100 0.000000 0.000000 
#    y 0.000000 1.807100 0.000000 
#    z 0.000000 0.000000 1.681480 
# 
# From -- ./inp_files/2424.got.cif
#   From: 2010.05.17/outbox.cif.g08.bks.cpg/sg179_2_cif.got.tgz:2424.got - 2010.05.20 11:37:33.
