data_PCOD9583984
_publ_section_title
;
Structure prediction by ZEFSAII (Michael W. Deem and Ramdas Pophale) SiO2 
 PCOD9583984
Probable space group: P 62 2 2
;
_chemical_formula_sum "Si O2"
_cell_formula_units_Z 60
_cell_length_a 14.692496
_cell_length_b 14.692496
_cell_length_c 16.107052
_cell_angle_alpha 90.000000
_cell_angle_beta 90.000000
_cell_angle_gamma 120.000000
_cell_volume 3011.187887
_symmetry_space_group_name_H-M "P 62 2 2"
_symmetry_group_IT_number 180
_symmetry_cell_setting 'hexagonal'
loop_
_space_group_symop_operation_xyz
x,y,z
x-y,x,1/3+z
-y,x-y,2/3+z
-x,-y,z
-x+y,-x,1/3+z
y,-x+y,2/3+z
x-y,-y,-z
-x,-x+y,1/3-z
y,x,2/3-z
-y,-x,2/3-z
-x+y,y,-z
x,x-y,1/3-z
loop_
_atom_site_type_symbol
_atom_site_label
_atom_site_fract_x
_atom_site_fract_y
_atom_site_fract_z
Si Si1 0.879472 0.669320 0.147721
Si Si2 0.357123 0.449749 0.383317
Si Si3 0.353290 0.507183 0.988107
Si Si4 0.348307 0.332518 0.551158
Si Si5 0.717370 0.157068 0.652805
O O1 0.878560 0.588854 0.077025
O O2 0.792963 0.703840 0.129336
O O3 0.834385 0.603284 0.231434
O O4 0.000000 0.756810 0.166667
O O5 0.350923 0.350923 0.333334
O O6 0.450800 0.549201 0.333334
O O7 0.364055 0.412631 0.476404
O O8 0.260800 0.469419 0.371742
O O9 0.277786 0.555571 0.000000
O O10 0.362390 0.460379 0.075693
O O11 0.467648 0.599911 0.966329
O O12 0.288177 0.353330 0.624474
#
# Coordination Sequence:
#
# PCOD9583984 Si02
#       5
#    12  12  12  12  12
#     4  11  23  42  64  95 129 169 217 271 326 385
#     4  11  25  42  64  90 131 172 211 264 326 383
#     4  10  23  38  62  96 132 168 214 265 323 391
#     4  11  24  43  64  96 128 172 222 267 323 393
#     4  12  23  39  67  92 130 173 214 270 322 395
#
# _framework density 19.925691
#
# number of rings (size 3 to 8) (size 9 to 14) (size 15 to 20)
#    0.000    1.000    4.000    2.400    5.600    0.800 
#    0.000    4.000    0.000    2.400    0.000    0.000 
#    0.000    0.000    0.000    0.000    0.000    0.000 
#
# Total GULP energy -334187.412123 kJ/mol
# GULP energy per Si atom -5569.790202 kJ/mol
# Density = 1.988034 g / cm^3
# Si number density = 19.925691 Si / 1000 Ang^3
#
#
#
# Elastic Constant Matrix: (Units=GPa)
#
#
# Indices 1 2 3 4 5 6 
#
# 1 86.8416 54.4203 25.5447 0.0000 0.0000 0.0000
# 2 54.4203 86.8416 25.5447 0.0000 0.0000 0.0000
# 3 25.5447 25.5447 111.0840 0.0000 0.0000 0.0000
# 4 0.0000 0.0000 0.0000 17.7096 0.0000 0.0000
# 5 0.0000 0.0000 0.0000 0.0000 17.7096 0.0000
# 6 0.0000 0.0000 0.0000 0.0000 0.0000 16.2107
#
#
#
# Elastic Compliance Matrix: (Units=1/GPa)
#
#
# Indices 1 2 3 4 5 6 
#
# 1 0.019283 -0.011561 -0.001776 0.000000 0.000000 0.000000
# 2 -0.011561 0.019283 -0.001776 0.000000 0.000000 0.000000
# 3 -0.001776 -0.001776 0.009819 0.000000 0.000000 0.000000
# 4 0.000000 0.000000 0.000000 0.056466 0.000000 0.000000
# 5 0.000000 0.000000 0.000000 0.000000 0.056466 0.000000
# 6 0.000000 0.000000 0.000000 0.000000 0.000000 0.061688
#
#
# Mechanical properties :
#
#
# Convention : Reuss Voigt Hill
#
# Bulk Modulus (GPa) = 55.06915 55.08741 55.07828
# Shear Modulus (GPa) = 19.28400 22.27650 20.78025
#
# Velocity S-wave (km/s) = 3.11432 3.34725 3.23288
# Velocity P-wave (km/s) = 6.37411 6.53033 6.45269
#
# Compressibility (1/GPa) = 0.01815899
#
# Stress axis : x y z
#
# Youngs Moduli (GPa) = 51.86041 51.86041 101.84537
#
# Poissons Ratio (x) = 0.59958 0.18083
# Poissons Ratio (y) = 0.59958 0.18083
# Poissons Ratio (z) = 0.09208 0.09208
#
# Static dielectric constant tensor:
#      x y z
#    x 1.785740 0.000000 0.000000 
#    y 0.000000 1.785740 0.000000 
#    z 0.000000 0.000000 1.736640 
# 
# From -- ./inp_files/6087.got.cif
#   From: 2010.05.17/outbox.cif.g08.bks.cpg/sg180_4_cif.got.tgz:6087.got - 2010.05.20 11:43:55.
