data_PCOD9583104
_publ_section_title
;
Structure prediction by ZEFSAII (Michael W. Deem and Ramdas Pophale) SiO2 
 PCOD9583104
Probable space group: P 65 2 2
;
_chemical_formula_sum "Si O2"
_cell_formula_units_Z 78
_cell_length_a 25.886680
_cell_length_b 25.886680
_cell_length_c 8.245376
_cell_angle_alpha 90.000000
_cell_angle_beta 90.000000
_cell_angle_gamma 120.000000
_cell_volume 4785.130726
_symmetry_space_group_name_H-M "P 65 2 2"
_symmetry_group_IT_number 179
_symmetry_cell_setting 'hexagonal'
loop_
_space_group_symop_operation_xyz
x,y,z
x-y,x,5/6+z
-y,x-y,2/3+z
-x,-y,1/2+z
-x+y,-x,1/3+z
y,-x+y,1/6+z
x-y,-y,-z
-x,-x+y,1/3-z
y,x,2/3-z
-y,-x,1/6-z
-x+y,y,1/2-z
x,x-y,5/6-z
loop_
_atom_site_type_symbol
_atom_site_label
_atom_site_fract_x
_atom_site_fract_y
_atom_site_fract_z
Si Si1 0.108628 0.494897 0.457601
Si Si2 0.931215 0.323554 0.123276
Si Si3 0.341975 0.134606 0.263469
Si Si4 0.749635 0.818916 0.362241
Si Si5 0.734266 0.186085 0.456249
Si Si6 0.364194 0.283477 0.026273
Si Si7 0.398962 0.398962 0.833334
O O1 0.117661 0.558831 0.416667
O O2 0.093674 0.456195 0.292892
O O3 0.164914 0.494003 0.539413
O O4 0.052274 0.457753 0.579991
O O5 0.903401 0.290976 0.292204
O O6 0.000000 0.363713 0.166667
O O7 0.916587 0.271144 0.996337
O O8 0.327658 0.163829 0.416667
O O9 0.404804 0.183246 0.179130
O O10 0.290430 0.102872 0.129874
O O11 0.797601 0.797601 0.333334
O O12 0.773699 0.886850 0.416667
O O13 0.701978 0.771237 0.492382
O O14 0.759570 0.240431 0.583334
O O15 0.726552 0.133006 0.572810
O O16 0.373619 0.346875 0.967480
#
# Coordination Sequence:
#
# PCOD9583104 Si02
#       7
#    12  12  12  12  12  12   6
#     4  10  22  33  46  72 105 143 186 221 260 325
#     4  11  19  29  47  71 102 141 179 217 255 312
#     4  10  19  31  50  80 106 133 176 222 273 326
#     4  11  21  34  52  75 108 143 177 220 271 326
#     4   9  18  33  51  70 100 138 174 223 274 321
#     4  10  17  31  49  74 101 137 178 207 265 323
#     4  10  18  30  46  64 104 148 176 208 256 324
#
# _framework density 16.300494
#
# number of rings (size 3 to 8) (size 9 to 14) (size 15 to 20)
#    0.000    1.846    2.308    5.538    1.077    0.000 
#    0.000    2.308    0.000    0.000    0.000    1.077 
#    0.000   56.615    0.000    0.000    0.000    0.000 
#
# Total GULP energy -434601.424198 kJ/mol
# GULP energy per Si atom -5571.813131 kJ/mol
# Density = 1.626339 g / cm^3
# Si number density = 16.300494 Si / 1000 Ang^3
#
#
#
# Elastic Constant Matrix: (Units=GPa)
#
#
# Indices 1 2 3 4 5 6 
#
# 1 89.8524 63.6905 38.6065 0.0000 0.0000 0.0000
# 2 63.6905 89.8524 38.6065 0.0000 0.0000 0.0000
# 3 38.6065 38.6065 101.1752 0.0000 0.0000 0.0000
# 4 0.0000 0.0000 0.0000 24.9753 0.0000 0.0000
# 5 0.0000 0.0000 0.0000 0.0000 24.9753 0.0000
# 6 0.0000 0.0000 0.0000 0.0000 0.0000 13.0810
#
#
#
# Elastic Compliance Matrix: (Units=1/GPa)
#
#
# Indices 1 2 3 4 5 6 
#
# 1 0.023141 -0.015082 -0.003075 0.000000 0.000000 0.000000
# 2 -0.015082 0.023141 -0.003075 0.000000 0.000000 0.000000
# 3 -0.003075 -0.003075 0.012231 0.000000 0.000000 0.000000
# 4 0.000000 0.000000 0.000000 0.040040 0.000000 0.000000
# 5 0.000000 0.000000 0.000000 0.000000 0.040040 0.000000
# 6 0.000000 0.000000 0.000000 0.000000 0.000000 0.076447
#
#
# Mechanical properties :
#
#
# Convention : Reuss Voigt Hill
#
# Bulk Modulus (GPa) = 62.31194 62.52082 62.41638
# Shear Modulus (GPa) = 19.02192 21.93806 20.47999
#
# Velocity S-wave (km/s) = 3.41978 3.67257 3.54842
# Velocity P-wave (km/s) = 7.34188 7.51146 7.42715
#
# Compressibility (1/GPa) = 0.01604829
#
# Stress axis : x y z
#
# Youngs Moduli (GPa) = 43.21257 43.21257 81.76090
#
# Poissons Ratio (x) = 0.65174 0.25144
# Poissons Ratio (y) = 0.65174 0.25144
# Poissons Ratio (z) = 0.13289 0.13289
#
# Static dielectric constant tensor:
#      x y z
#    x 1.563540 0.000000 0.000000 
#    y 0.000000 1.563540 0.000000 
#    z 0.000000 0.000000 1.610760 
# 
# From -- ./inp_files/3726.got.cif
#   From: 2010.05.17/outbox.cif.g08.bks.cpg/sg179_2_cif.got.tgz:3726.got - 2010.05.20 11:37:33.
