data_PCOD9583415
_publ_section_title
;
Structure prediction by ZEFSAII (Michael W. Deem and Ramdas Pophale) SiO2 
 PCOD9583415
Probable space group: P 65 2 2
;
_chemical_formula_sum "Si O2"
_cell_formula_units_Z 66
_cell_length_a 19.527623
_cell_length_b 19.527623
_cell_length_c 10.261038
_cell_angle_alpha 90.000000
_cell_angle_beta 90.000000
_cell_angle_gamma 120.000000
_cell_volume 3388.603005
_symmetry_space_group_name_H-M "P 65 2 2"
_symmetry_group_IT_number 179
_symmetry_cell_setting 'hexagonal'
loop_
_space_group_symop_operation_xyz
x,y,z
x-y,x,5/6+z
-y,x-y,2/3+z
-x,-y,1/2+z
-x+y,-x,1/3+z
y,-x+y,1/6+z
x-y,-y,-z
-x,-x+y,1/3-z
y,x,2/3-z
-y,-x,1/6-z
-x+y,y,1/2-z
x,x-y,5/6-z
loop_
_atom_site_type_symbol
_atom_site_label
_atom_site_fract_x
_atom_site_fract_y
_atom_site_fract_z
Si Si1 0.786170 0.599664 0.403236
Si Si2 0.478655 0.478655 0.833334
Si Si3 0.265030 0.328199 0.432341
Si Si4 0.140000 0.491781 0.210446
Si Si5 0.945936 0.352194 0.879505
Si Si6 0.720195 0.298086 0.312968
O O1 0.801224 0.602448 0.250000
O O2 0.866770 0.664568 0.476038
O O3 0.718946 0.619324 0.445631
O O4 0.750586 0.507425 0.449927
O O5 0.487372 0.563596 0.823245
O O6 0.438169 0.430202 0.704620
O O7 0.260099 0.260099 0.333334
O O8 0.289919 0.404808 0.342382
O O9 0.336822 0.343565 0.527651
O O10 0.120999 0.475059 0.362973
O O11 0.221471 0.553483 0.145239
O O12 0.633060 0.266120 0.250000
O O13 0.731840 0.365920 0.416667
#
# Coordination Sequence:
#
# PCOD9583415 Si02
#       6
#    12   6  12  12  12  12
#     4  11  25  43  59  87 119 150 200 258 317 379
#     4  12  22  34  58  80 108 142 206 242 296 354
#     4   9  20  41  60  86 110 147 195 244 301 366
#     4  10  23  38  56  81 105 145 201 253 291 373
#     4  11  23  38  61  83 111 151 192 252 309 360
#     4  11  27  40  55  73 113 152 194 254 326 376
#
# _framework density 19.477052
#
# number of rings (size 3 to 8) (size 9 to 14) (size 15 to 20)
#    0.000    1.455    2.727    2.182   12.727    5.818 
#    0.000    0.000    0.000    0.000    0.000    0.000 
#    0.000    0.000    0.000    0.000   38.000    0.000 
#
# Total GULP energy -368154.741410 kJ/mol
# GULP energy per Si atom -5578.102143 kJ/mol
# Density = 1.943272 g / cm^3
# Si number density = 19.477052 Si / 1000 Ang^3
#
#
#
# Elastic Constant Matrix: (Units=GPa)
#
#
# Indices 1 2 3 4 5 6 
#
# 1 47.9341 14.5822 17.9175 0.0000 0.0000 0.0000
# 2 14.5822 47.9341 17.9175 0.0000 0.0000 0.0000
# 3 17.9175 17.9175 119.5369 0.0000 0.0000 0.0000
# 4 0.0000 0.0000 0.0000 17.8427 0.0000 0.0000
# 5 0.0000 0.0000 0.0000 0.0000 17.8427 0.0000
# 6 0.0000 0.0000 0.0000 0.0000 0.0000 16.6759
#
#
#
# Elastic Compliance Matrix: (Units=1/GPa)
#
#
# Indices 1 2 3 4 5 6 
#
# 1 0.023741 -0.006242 -0.002623 0.000000 0.000000 0.000000
# 2 -0.006242 0.023741 -0.002623 0.000000 0.000000 0.000000
# 3 -0.002623 -0.002623 0.009152 0.000000 0.000000 0.000000
# 4 0.000000 0.000000 0.000000 0.056045 0.000000 0.000000
# 5 0.000000 0.000000 0.000000 0.000000 0.056045 0.000000
# 6 0.000000 0.000000 0.000000 0.000000 0.000000 0.059967
#
#
# Mechanical properties :
#
#
# Convention : Reuss Voigt Hill
#
# Bulk Modulus (GPa) = 29.71002 35.13773 32.42388
# Shear Modulus (GPa) = 19.01954 21.47145 20.24549
#
# Velocity S-wave (km/s) = 3.12831 3.32384 3.22755
# Velocity P-wave (km/s) = 5.32310 5.72803 5.52927
#
# Compressibility (1/GPa) = 0.03365867
#
# Stress axis : x y z
#
# Youngs Moduli (GPa) = 42.12059 42.12059 109.26632
#
# Poissons Ratio (x) = 0.26292 0.28661
# Poissons Ratio (y) = 0.26292 0.28661
# Poissons Ratio (z) = 0.11048 0.11048
#
# Static dielectric constant tensor:
#      x y z
#    x 1.705670 0.000000 0.000000 
#    y 0.000000 1.705670 0.000000 
#    z 0.000000 0.000000 1.730530 
# 
# From -- ./inp_files/3341.got.cif
#   From: 2010.05.17/outbox.cif.g08.bks.cpg/sg179_2_cif.got.tgz:3341.got - 2010.05.20 11:37:33.
