data_PCOD9583028
_publ_section_title
;
Structure prediction by ZEFSAII (Michael W. Deem and Ramdas Pophale) SiO2 
 PCOD9583028
Probable space group: P 61 2 2
;
_chemical_formula_sum "Si O2"
_cell_formula_units_Z 72
_cell_length_a 14.125044
_cell_length_b 14.125044
_cell_length_c 19.177336
_cell_angle_alpha 90.000000
_cell_angle_beta 90.000000
_cell_angle_gamma 120.000000
_cell_volume 3313.588145
_symmetry_space_group_name_H-M "P 61 2 2"
_symmetry_group_IT_number 178
_symmetry_cell_setting 'hexagonal'
loop_
_space_group_symop_operation_xyz
x,y,z
x-y,x,1/6+z
-y,x-y,1/3+z
-x,-y,1/2+z
-x+y,-x,2/3+z
y,-x+y,5/6+z
x-y,-y,-z
-x,-x+y,2/3-z
y,x,1/3-z
-y,-x,5/6-z
-x+y,y,1/2-z
x,x-y,1/6-z
loop_
_atom_site_type_symbol
_atom_site_label
_atom_site_fract_x
_atom_site_fract_y
_atom_site_fract_z
Si Si1 0.085677 0.804607 0.660220
Si Si2 0.431012 0.979593 0.181824
Si Si3 0.241003 0.260305 0.747175
Si Si4 0.875169 0.167662 0.317823
Si Si5 0.487481 0.632173 0.088401
Si Si6 0.160940 0.513832 0.275287
O O1 0.165141 0.911986 0.617020
O O2 0.139843 0.822870 0.735857
O O3 0.064354 0.692340 0.626220
O O4 0.959477 0.771828 0.671482
O O5 0.505447 0.010893 0.250000
O O6 0.475495 0.078286 0.124366
O O7 0.423108 0.880446 0.136647
O O8 0.264126 0.264126 0.666667
O O9 0.323007 0.386054 0.767442
O O10 0.117700 0.235399 0.750000
O O11 0.851099 0.255582 0.354994
O O12 0.000000 0.210641 0.333334
O O13 0.470138 0.735069 0.083334
O O14 0.445380 0.578490 0.165583
O O15 0.287444 0.574888 0.250000
#
# Coordination Sequence:
#
# PCOD9583028 Si02
#       6
#    12  12  12  12  12  12
#     4  12  26  44  77 109 150 198 251 317 383 465
#     4  12  27  46  75 114 154 197 262 323 394 468
#     4  11  26  48  72 100 149 201 246 301 383 466
#     4  12  22  44  73 112 152 192 245 320 394 452
#     4  11  27  51  75 107 152 210 256 314 391 471
#     4  12  23  49  78 113 151 199 253 336 404 451
#
# _framework density 21.72871
#
# number of rings (size 3 to 8) (size 9 to 14) (size 15 to 20)
#    0.000    0.333    5.000    3.000    7.000    3.333 
#    3.000    0.000    0.000    0.000    0.000    0.000 
#    0.000    0.000    0.000    0.000    0.000    0.000 
#
# Total GULP energy -402116.435539 kJ/mol
# GULP energy per Si atom -5584.950494 kJ/mol
# Density = 2.167925 g / cm^3
# Si number density = 21.728710 Si / 1000 Ang^3
#
#
#
# Elastic Constant Matrix: (Units=GPa)
#
#
# Indices 1 2 3 4 5 6 
#
# 1 108.6581 66.0467 36.0811 0.0000 0.0000 0.0000
# 2 66.0467 108.6581 36.0811 0.0000 0.0000 0.0000
# 3 36.0811 36.0811 123.6487 0.0000 0.0000 0.0000
# 4 0.0000 0.0000 0.0000 30.2401 0.0000 0.0000
# 5 0.0000 0.0000 0.0000 0.0000 30.2401 0.0000
# 6 0.0000 0.0000 0.0000 0.0000 0.0000 21.3057
#
#
#
# Elastic Compliance Matrix: (Units=1/GPa)
#
#
# Indices 1 2 3 4 5 6 
#
# 1 0.014988 -0.008480 -0.001899 0.000000 0.000000 0.000000
# 2 -0.008480 0.014988 -0.001899 0.000000 0.000000 0.000000
# 3 -0.001899 -0.001899 0.009196 0.000000 0.000000 0.000000
# 4 0.000000 0.000000 0.000000 0.033069 0.000000 0.000000
# 5 0.000000 0.000000 0.000000 0.000000 0.033069 0.000000
# 6 0.000000 0.000000 0.000000 0.000000 0.000000 0.046936
#
#
# Mechanical properties :
#
#
# Convention : Reuss Voigt Hill
#
# Bulk Modulus (GPa) = 68.41861 68.59807 68.50834
# Shear Modulus (GPa) = 27.52192 29.87426 28.69809
#
# Velocity S-wave (km/s) = 3.56282 3.71195 3.63815
# Velocity P-wave (km/s) = 6.96282 7.07179 7.01752
#
# Compressibility (1/GPa) = 0.01461591
#
# Stress axis : x y z
#
# Youngs Moduli (GPa) = 66.71934 66.71934 108.74536
#
# Poissons Ratio (x) = 0.56576 0.20653
# Poissons Ratio (y) = 0.56576 0.20653
# Poissons Ratio (z) = 0.12671 0.12671
#
# Static dielectric constant tensor:
#      x y z
#    x 1.804610 0.000000 0.000000 
#    y 0.000000 1.804610 0.000000 
#    z 0.000000 0.000000 1.815360 
# 
# From -- ./inp_files/6804.got.cif
#   From: 2010.05.17/outbox.cif.g08.bks.cpg/sg178_4_cif.got.tgz:6804.got - 2010.05.20 11:30:59.
