data_PCOD9583117
_publ_section_title
;
Structure prediction by ZEFSAII (Michael W. Deem and Ramdas Pophale) SiO2 
 PCOD9583117
Probable space group: P 65 2 2
;
_chemical_formula_sum "Si O2"
_cell_formula_units_Z 54
_cell_length_a 27.003637
_cell_length_b 27.003637
_cell_length_c 4.884144
_cell_angle_alpha 90.000000
_cell_angle_beta 90.000000
_cell_angle_gamma 120.000000
_cell_volume 3084.349715
_symmetry_space_group_name_H-M "P 65 2 2"
_symmetry_group_IT_number 179
_symmetry_cell_setting 'hexagonal'
loop_
_space_group_symop_operation_xyz
x,y,z
x-y,x,5/6+z
-y,x-y,2/3+z
-x,-y,1/2+z
-x+y,-x,1/3+z
y,-x+y,1/6+z
x-y,-y,-z
-x,-x+y,1/3-z
y,x,2/3-z
-y,-x,1/6-z
-x+y,y,1/2-z
x,x-y,5/6-z
loop_
_atom_site_type_symbol
_atom_site_label
_atom_site_fract_x
_atom_site_fract_y
_atom_site_fract_z
Si Si1 0.698188 0.508488 0.749430
Si Si2 0.645306 0.705923 0.474154
Si Si3 0.124870 0.357273 0.286722
Si Si4 0.480105 0.960209 0.750000
Si Si5 0.366666 0.486596 0.733382
O O1 0.742114 0.484228 0.750000
O O2 0.737506 0.576398 0.813410
O O3 0.674516 0.506639 0.448859
O O4 0.644445 0.486598 0.958738
O O5 0.681163 0.681163 0.333334
O O6 0.667667 0.737393 0.761033
O O7 0.579787 0.655255 0.500645
O O8 0.643540 0.750912 0.264351
O O9 0.165509 0.331018 0.250000
O O10 0.494166 0.918911 0.567418
O O11 0.477784 0.000000 0.500000
#
# Coordination Sequence:
#
# PCOD9583117 Si02
#       5
#    12  12  12   6  12
#     4   9  17  31  50  69  87 109 147 200 248 284
#     4  10  18  28  43  62  84 113 152 191 227 268
#     4   9  17  28  42  60  83 110 140 184 235 271
#     4  12  24  36  48  66 102 146 174 192 222 284
#     4  10  20  32  47  67  93 124 160 194 233 289
#
# _framework density 17.507743000000001
#
# number of rings (size 3 to 8) (size 9 to 14) (size 15 to 20)
#    0.000    2.222    0.000    4.000    0.000    8.889 
#    0.000    0.000    0.000    0.000    0.000    0.000 
#    6.667    0.000    0.000    0.000    0.000    0.000 
#
# Total GULP energy -300613.276875 kJ/mol
# GULP energy per Si atom -5566.912535 kJ/mol
# Density = 1.746789 g / cm^3
# Si number density = 17.507743 Si / 1000 Ang^3
#
#
#
# Elastic Constant Matrix: (Units=GPa)
#
#
# Indices 1 2 3 4 5 6 
#
# 1 34.2048 15.2983 2.7835 0.0000 0.0000 0.0000
# 2 15.2983 34.2048 2.7835 0.0000 0.0000 0.0000
# 3 2.7835 2.7835 82.8000 0.0000 0.0000 0.0000
# 4 0.0000 0.0000 0.0000 11.6094 0.0000 0.0000
# 5 0.0000 0.0000 0.0000 0.0000 11.6094 0.0000
# 6 0.0000 0.0000 0.0000 0.0000 0.0000 9.4532
#
#
#
# Elastic Compliance Matrix: (Units=1/GPa)
#
#
# Indices 1 2 3 4 5 6 
#
# 1 0.036585 -0.016307 -0.000682 0.000000 0.000000 0.000000
# 2 -0.016307 0.036585 -0.000682 0.000000 0.000000 0.000000
# 3 -0.000682 -0.000682 0.012123 0.000000 0.000000 0.000000
# 4 0.000000 0.000000 0.000000 0.086137 0.000000 0.000000
# 5 0.000000 0.000000 0.000000 0.000000 0.086137 0.000000
# 6 0.000000 0.000000 0.000000 0.000000 0.000000 0.105784
#
#
# Mechanical properties :
#
#
# Convention : Reuss Voigt Hill
#
# Bulk Modulus (GPa) = 20.01948 21.43778 20.72863
# Shear Modulus (GPa) = 12.03828 15.22403 13.63116
#
# Velocity S-wave (km/s) = 2.62505 2.95203 2.79333
# Velocity P-wave (km/s) = 4.54393 4.88780 4.71900
#
# Compressibility (1/GPa) = 0.04995134
#
# Stress axis : x y z
#
# Youngs Moduli (GPa) = 27.33385 27.33385 82.48695
#
# Poissons Ratio (x) = 0.44574 0.05623
# Poissons Ratio (y) = 0.44574 0.05623
# Poissons Ratio (z) = 0.01863 0.01863
#
# Static dielectric constant tensor:
#      x y z
#    x 1.633790 0.000000 0.000000 
#    y 0.000000 1.633790 0.000000 
#    z 0.000000 0.000000 1.630670 
# 
# From -- ./inp_files/1202.got.cif
#   From: 2010.05.17/outbox.cif.g08.bks.cpg/sg179_1_cif.got.tgz:1202.got - 2010.05.20 11:37:33.
