data_PCOD9583567
_publ_section_title
;
Structure prediction by ZEFSAII (Michael W. Deem and Ramdas Pophale) SiO2 
 PCOD9583567
Probable space group: P 65 2 2
;
_chemical_formula_sum "Si O2"
_cell_formula_units_Z 48
_cell_length_a 14.191282
_cell_length_b 14.191282
_cell_length_c 13.303135
_cell_angle_alpha 90.000000
_cell_angle_beta 90.000000
_cell_angle_gamma 120.000000
_cell_volume 2320.213185
_symmetry_space_group_name_H-M "P 65 2 2"
_symmetry_group_IT_number 179
_symmetry_cell_setting 'hexagonal'
loop_
_space_group_symop_operation_xyz
x,y,z
x-y,x,5/6+z
-y,x-y,2/3+z
-x,-y,1/2+z
-x+y,-x,1/3+z
y,-x+y,1/6+z
x-y,-y,-z
-x,-x+y,1/3-z
y,x,2/3-z
-y,-x,1/6-z
-x+y,y,1/2-z
x,x-y,5/6-z
loop_
_atom_site_type_symbol
_atom_site_label
_atom_site_fract_x
_atom_site_fract_y
_atom_site_fract_z
Si Si1 0.734454 0.111565 0.849323
Si Si2 0.326273 0.895193 0.933732
Si Si3 0.241535 0.583606 0.147627
Si Si4 0.829822 0.000000 0.000000
Si Si5 0.507495 0.492506 0.583334
O O1 0.828158 0.206682 0.781109
O O2 0.693931 0.165928 0.929604
O O3 0.620552 0.045078 0.786439
O O4 0.788535 0.057845 0.918499
O O5 0.418951 0.925693 0.847718
O O6 0.345856 0.816324 0.005569
O O7 0.351108 0.000000 0.000000
O O8 0.347723 0.652278 0.083334
O O9 0.280674 0.561348 0.250000
O O10 0.925899 0.074102 0.083334
#
# Coordination Sequence:
#
# PCOD9583567 Si02
#       5
#    12  12  12   6   6
#     4  12  24  45  74 105 150 192 238 299 377 456
#     4  12  25  40  65 105 143 186 233 291 351 433
#     4  12  22  40  66 103 147 186 225 269 350 449
#     4  12  28  56  80 104 136 198 274 346 398 434
#     4  12  24  44  66 106 150 186 238 286 356 466
#
# _framework density 20.687754000000002
#
# number of rings (size 3 to 8) (size 9 to 14) (size 15 to 20)
#    0.000    0.000    5.000    6.750    0.000    0.000 
#    2.250    0.000    0.000    0.000    0.000    0.000 
#    0.000    0.000    0.000    0.000    0.000    0.000 
#
# Total GULP energy -267461.789822 kJ/mol
# GULP energy per Si atom -5572.120621 kJ/mol
# Density = 2.064067 g / cm^3
# Si number density = 20.687754 Si / 1000 Ang^3
#
#
#
# Elastic Constant Matrix: (Units=GPa)
#
#
# Indices 1 2 3 4 5 6 
#
# 1 -3.6638 136.4088 62.4222 0.0000 0.0000 0.0000
# 2 136.4088 -3.6638 62.4222 0.0000 0.0000 0.0000
# 3 62.4222 62.4222 120.3407 0.0000 0.0000 0.0000
# 4 0.0000 0.0000 0.0000 50.3321 0.0000 0.0000
# 5 0.0000 0.0000 0.0000 0.0000 50.3321 0.0000
# 6 0.0000 0.0000 0.0000 0.0000 0.0000 -70.0363
#
#
#
# Elastic Compliance Matrix: (Units=1/GPa)
#
#
# Indices 1 2 3 4 5 6 
#
# 1 0.003785 0.010924 -0.007630 0.000000 0.000000 0.000000
# 2 0.010924 0.003785 -0.007630 0.000000 0.000000 0.000000
# 3 -0.007630 -0.007630 0.016225 0.000000 0.000000 0.000000
# 4 0.000000 0.000000 0.000000 0.019868 0.000000 0.000000
# 5 0.000000 0.000000 0.000000 0.000000 0.019868 0.000000
# 6 0.000000 0.000000 0.000000 0.000000 0.000000 -0.014278
#
#
# Mechanical properties :
#
#
# Convention : Reuss Voigt Hill
#
# Bulk Modulus (GPa) = 66.12024 70.61325 68.36675
# Shear Modulus (GPa) = 79.41023 -3.75710 37.82656
#
# Velocity S-wave (km/s) = 6.20230 -1.34909 4.28068
# Velocity P-wave (km/s) = 9.12807 5.63740 7.58624
#
# Compressibility (1/GPa) = 0.01512396
#
# Stress axis : x y z
#
# Youngs Moduli (GPa) = 264.21410 264.21410 61.63366
#
# Poissons Ratio (x) = -2.88627 0.47024
# Poissons Ratio (y) = -2.88627 0.47024
# Poissons Ratio (z) = 2.01585 2.01585
#
# Static dielectric constant tensor:
#      x y z
#    x 1.794270 0.000000 0.000000 
#    y 0.000000 1.794270 0.000000 
#    z 0.000000 0.000000 1.727710 
# 
# From -- ./inp_files/4311.got.cif
#   From: 2010.05.17/outbox.cif.g08.bks.cpg/sg179_3_cif.got.tgz:4311.got - 2010.05.20 11:37:33.
