data_PCOD9583739
_publ_section_title
;
Structure prediction by ZEFSAII (Michael W. Deem and Ramdas Pophale) SiO2 
 PCOD9583739
Probable space group: P 62 2 2
;
_chemical_formula_sum "Si O2"
_cell_formula_units_Z 54
_cell_length_a 11.881849
_cell_length_b 11.881849
_cell_length_c 22.553872
_cell_angle_alpha 90.000000
_cell_angle_beta 90.000000
_cell_angle_gamma 120.000000
_cell_volume 2757.527173
_symmetry_space_group_name_H-M "P 62 2 2"
_symmetry_group_IT_number 180
_symmetry_cell_setting 'hexagonal'
loop_
_space_group_symop_operation_xyz
x,y,z
x-y,x,1/3+z
-y,x-y,2/3+z
-x,-y,z
-x+y,-x,1/3+z
y,-x+y,2/3+z
x-y,-y,-z
-x,-x+y,1/3-z
y,x,2/3-z
-y,-x,2/3-z
-x+y,y,-z
x,x-y,1/3-z
loop_
_atom_site_type_symbol
_atom_site_label
_atom_site_fract_x
_atom_site_fract_y
_atom_site_fract_z
Si Si1 0.000000 0.300264 0.666667
Si Si2 0.284491 0.361225 0.045299
Si Si3 0.588923 0.275536 0.564969
Si Si4 0.794793 0.397397 0.666667
Si Si5 0.154418 0.074856 0.095518
Si Si6 0.500000 0.000000 0.624648
O O1 0.880534 0.327617 0.661153
O O2 0.988770 0.213158 0.724297
O O3 0.309241 0.474002 0.092298
O O4 0.220579 0.221879 0.073668
O O5 0.182904 0.365808 0.000000
O O6 0.405565 0.388915 0.003938
O O7 0.646861 0.293723 0.500000
O O8 0.702020 0.363309 0.610352
O O9 0.537592 0.126392 0.585542
O O10 0.169477 0.084739 0.166667
O O11 0.000000 0.000000 0.082364
#
# Coordination Sequence:
#
# PCOD9583739 Si02
#       6
#     6  12  12   6  12   6
#     4  11  25  44  70  88 141 181 216 272 340 409
#     4  10  21  41  65  92 129 169 214 274 336 389
#     4  11  23  40  67 100 133 170 224 283 338 410
#     4  11  24  46  64 104 135 180 214 272 347 412
#     4  11  25  44  65  98 128 176 233 278 331 401
#     4  10  19  42  64  96 126 171 214 270 340 395
#
# _framework density 19.582761999999999
#
# number of rings (size 3 to 8) (size 9 to 14) (size 15 to 20)
#    0.000    1.333    3.333    3.333    3.111    2.667 
#    8.000    0.000    0.000    0.000    0.000    0.000 
#    0.000    0.000    0.000    0.000    0.000    0.000 
#
# Total GULP energy -301578.036306 kJ/mol
# GULP energy per Si atom -5584.778450 kJ/mol
# Density = 1.953819 g / cm^3
# Si number density = 19.582762 Si / 1000 Ang^3
#
#
#
# Elastic Constant Matrix: (Units=GPa)
#
#
# Indices 1 2 3 4 5 6 
#
# 1 93.8992 36.4724 47.9863 0.0000 0.0000 0.0000
# 2 36.4724 93.8992 47.9863 0.0000 0.0000 0.0000
# 3 47.9863 47.9863 143.7250 0.0000 0.0000 0.0000
# 4 0.0000 0.0000 0.0000 21.4889 0.0000 0.0000
# 5 0.0000 0.0000 0.0000 0.0000 21.4889 0.0000
# 6 0.0000 0.0000 0.0000 0.0000 0.0000 28.7134
#
#
#
# Elastic Compliance Matrix: (Units=1/GPa)
#
#
# Indices 1 2 3 4 5 6 
#
# 1 0.013792 -0.003622 -0.003396 0.000000 0.000000 0.000000
# 2 -0.003622 0.013792 -0.003396 0.000000 0.000000 0.000000
# 3 -0.003396 -0.003396 0.009225 0.000000 0.000000 0.000000
# 4 0.000000 0.000000 0.000000 0.046536 0.000000 0.000000
# 5 0.000000 0.000000 0.000000 0.000000 0.046536 0.000000
# 6 0.000000 0.000000 0.000000 0.000000 0.000000 0.034827
#
#
# Mechanical properties :
#
#
# Convention : Reuss Voigt Hill
#
# Bulk Modulus (GPa) = 62.56647 66.26816 64.41731
# Shear Modulus (GPa) = 26.19723 27.61014 26.90369
#
# Velocity S-wave (km/s) = 3.66152 3.75896 3.71056
# Velocity P-wave (km/s) = 7.06362 7.26314 7.16408
#
# Compressibility (1/GPa) = 0.01598300
#
# Stress axis : x y z
#
# Youngs Moduli (GPa) = 72.50722 72.50722 108.40009
#
# Poissons Ratio (x) = 0.26260 0.36807
# Poissons Ratio (y) = 0.26260 0.36807
# Poissons Ratio (z) = 0.24620 0.24620
#
# Static dielectric constant tensor:
#      x y z
#    x 1.698460 0.000000 0.000000 
#    y 0.000000 1.698460 0.000000 
#    z 0.000000 0.000000 2.252970 
# 
# From -- ./inp_files/10132.got.cif
#   From: 2010.05.17/outbox.cif.g08.bks.cpg/sg180_6_cif.got.tgz:10132.got - 2010.05.20 11:43:55.
