data_PCOD9583133
_publ_section_title
;
Structure prediction by ZEFSAII (Michael W. Deem and Ramdas Pophale) SiO2 
 PCOD9583133
Probable space group: P 65 2 2
;
_chemical_formula_sum "Si O2"
_cell_formula_units_Z 84
_cell_length_a 14.939962
_cell_length_b 14.939962
_cell_length_c 27.358870
_cell_angle_alpha 90.000000
_cell_angle_beta 90.000000
_cell_angle_gamma 120.000000
_cell_volume 5288.442335
_symmetry_space_group_name_H-M "P 65 2 2"
_symmetry_group_IT_number 179
_symmetry_cell_setting 'hexagonal'
loop_
_space_group_symop_operation_xyz
x,y,z
x-y,x,5/6+z
-y,x-y,2/3+z
-x,-y,1/2+z
-x+y,-x,1/3+z
y,-x+y,1/6+z
x-y,-y,-z
-x,-x+y,1/3-z
y,x,2/3-z
-y,-x,1/6-z
-x+y,y,1/2-z
x,x-y,5/6-z
loop_
_atom_site_type_symbol
_atom_site_label
_atom_site_fract_x
_atom_site_fract_y
_atom_site_fract_z
Si Si1 0.506371 0.699254 0.281875
Si Si2 0.476053 0.476053 0.833334
Si Si3 0.660632 0.582816 0.477835
Si Si4 0.119785 0.488844 0.080331
Si Si5 0.466256 0.317186 0.581720
Si Si6 0.297581 0.453205 0.706233
Si Si7 0.547714 0.273857 0.416667
Si Si8 0.369093 0.440719 0.187466
O O1 0.544388 0.624456 0.304146
O O2 0.558300 0.726417 0.228104
O O3 0.533807 0.789201 0.320684
O O4 0.382368 0.625394 0.276433
O O5 0.504244 0.567661 0.795544
O O6 0.696229 0.590351 0.533474
O O7 0.636692 0.672735 0.462970
O O8 0.547876 0.478850 0.477516
O O9 0.218050 0.478696 0.092234
O O10 0.156323 0.596780 0.052041
O O11 0.032170 0.394210 0.048931
O O12 0.580092 0.419909 0.583334
O O13 0.412256 0.334161 0.534797
O O14 0.218347 0.436693 0.750000
O O15 0.474105 0.179236 0.381441
#
# Coordination Sequence:
#
# PCOD9583133 Si02
#       8
#    12   6  12  12  12  12   6  12
#     4  11  20  31  49  69 100 138 173 212 244 305
#     4  12  18  34  48  70 106 126 178 226 248 288
#     4   9  20  36  43  70 103 131 172 221 249 286
#     4  11  21  32  51  75  99 139 175 217 253 298
#     4  10  21  34  51  68 102 142 175 204 252 315
#     4  11  20  31  51  74  96 139 180 206 252 297
#     4  10  18  32  46  72  96 132 174 208 250 306
#     4   9  19  33  46  68 101 130 167 216 253 288
#
# _framework density 15.883694999999999
#
# number of rings (size 3 to 8) (size 9 to 14) (size 15 to 20)
#    0.000    1.714    5.714    1.286    6.000    1.143 
#    3.857    0.000    0.000    0.000    0.000    0.000 
#    0.000    0.000   34.000    0.000    0.000    0.000 
#
# Total GULP energy -468223.358474 kJ/mol
# GULP energy per Si atom -5574.087601 kJ/mol
# Density = 1.584754 g / cm^3
# Si number density = 15.883695 Si / 1000 Ang^3
#
#
#
# Elastic Constant Matrix: (Units=GPa)
#
#
# Indices 1 2 3 4 5 6 
#
# 1 49.9464 11.6963 30.0769 0.0000 0.0000 0.0000
# 2 11.6963 49.9464 30.0769 0.0000 0.0000 0.0000
# 3 30.0769 30.0769 123.9148 0.0000 0.0000 0.0000
# 4 0.0000 0.0000 0.0000 24.1807 0.0000 0.0000
# 5 0.0000 0.0000 0.0000 0.0000 24.1807 0.0000
# 6 0.0000 0.0000 0.0000 0.0000 0.0000 19.1250
#
#
#
# Elastic Compliance Matrix: (Units=1/GPa)
#
#
# Indices 1 2 3 4 5 6 
#
# 1 0.023701 -0.002443 -0.005160 0.000000 0.000000 0.000000
# 2 -0.002443 0.023701 -0.005160 0.000000 0.000000 0.000000
# 3 -0.005160 -0.005160 0.010575 0.000000 0.000000 0.000000
# 4 0.000000 0.000000 0.000000 0.041355 0.000000 0.000000
# 5 0.000000 0.000000 0.000000 0.000000 0.041355 0.000000
# 6 0.000000 0.000000 0.000000 0.000000 0.000000 0.052288
#
#
# Mechanical properties :
#
#
# Convention : Reuss Voigt Hill
#
# Bulk Modulus (GPa) = 30.81548 40.83419 35.82484
# Shear Modulus (GPa) = 21.80395 23.62779 22.71587
#
# Velocity S-wave (km/s) = 3.70905 3.86106 3.78582
# Velocity P-wave (km/s) = 6.14700 6.75582 6.45859
#
# Compressibility (1/GPa) = 0.03245122
#
# Stress axis : x y z
#
# Youngs Moduli (GPa) = 42.19288 42.19288 94.56435
#
# Poissons Ratio (x) = 0.10308 0.48792
# Poissons Ratio (y) = 0.10308 0.48792
# Poissons Ratio (z) = 0.21770 0.21770
#
# Static dielectric constant tensor:
#      x y z
#    x 1.522290 0.000000 0.000000 
#    y 0.000000 1.522290 0.000000 
#    z 0.000000 0.000000 1.600630 
# 
# From -- ./inp_files/9028.got.cif
#   From: 2010.05.17/outbox.cif.g08.bks.cpg/sg179_5_cif.got.tgz:9028.got - 2010.05.20 11:37:33.
