data_PCOD9583323
_publ_section_title
;
Structure prediction by ZEFSAII (Michael W. Deem and Ramdas Pophale) SiO2 
 PCOD9583323
Probable space group: P 65 2 2
;
_chemical_formula_sum "Si O2"
_cell_formula_units_Z 84
_cell_length_a 14.685491
_cell_length_b 14.685491
_cell_length_c 23.515132
_cell_angle_alpha 90.000000
_cell_angle_beta 90.000000
_cell_angle_gamma 120.000000
_cell_volume 4391.925813
_symmetry_space_group_name_H-M "P 65 2 2"
_symmetry_group_IT_number 179
_symmetry_cell_setting 'hexagonal'
loop_
_space_group_symop_operation_xyz
x,y,z
x-y,x,5/6+z
-y,x-y,2/3+z
-x,-y,1/2+z
-x+y,-x,1/3+z
y,-x+y,1/6+z
x-y,-y,-z
-x,-x+y,1/3-z
y,x,2/3-z
-y,-x,1/6-z
-x+y,y,1/2-z
x,x-y,5/6-z
loop_
_atom_site_type_symbol
_atom_site_label
_atom_site_fract_x
_atom_site_fract_y
_atom_site_fract_z
Si Si1 0.728601 0.911361 0.751075
Si Si2 0.013927 0.425542 0.463443
Si Si3 0.346304 0.565069 0.333689
Si Si4 0.384308 0.793285 0.183167
Si Si5 0.126834 0.516727 0.291782
Si Si6 0.900341 0.330165 0.269433
Si Si7 0.869446 0.983037 0.859289
O O1 0.657529 0.958804 0.729791
O O2 0.657655 0.785179 0.748789
O O3 0.779263 0.953753 0.812667
O O4 0.823786 0.928814 0.709683
O O5 0.018582 0.509291 0.416667
O O6 0.094421 0.499625 0.511553
O O7 0.895483 0.371249 0.487443
O O8 0.393539 0.688130 0.345075
O O9 0.219871 0.516205 0.327771
O O10 0.383278 0.550974 0.271882
O O11 0.374523 0.507507 0.382076
O O12 0.384975 0.769950 0.250000
O O13 0.496764 0.829157 0.154359
O O14 0.020525 0.404964 0.287158
O O15 0.948743 0.948743 0.833334
O O16 0.826085 0.913043 0.916667
#
# Coordination Sequence:
#
# PCOD9583323 Si02
#       7
#    12  12  12  12  12  12  12
#     4  11  23  38  68  89 124 169 207 266 325 375
#     4  10  22  37  58  91 120 154 218 261 304 377
#     4  11  21  38  59  80 121 167 197 239 321 368
#     4  10  21  39  60  84 121 161 200 260 302 374
#     4  10  22  37  53  86 122 154 202 253 297 381
#     4  11  24  36  58  89 123 158 206 252 315 372
#     4   9  22  42  59  92 126 161 211 266 320 383
#
# _framework density 19.126004999999999
#
# number of rings (size 3 to 8) (size 9 to 14) (size 15 to 20)
#    0.000    1.714    1.429    2.571    8.000    3.429 
#    2.571    0.000    0.000   12.000    0.000    0.000 
#    0.000    0.000    0.000    0.000    0.000    0.000 
#
# Total GULP energy -469272.283638 kJ/mol
# GULP energy per Si atom -5586.574805 kJ/mol
# Density = 1.908247 g / cm^3
# Si number density = 19.126005 Si / 1000 Ang^3
#
#
#
# Elastic Constant Matrix: (Units=GPa)
#
#
# Indices 1 2 3 4 5 6 
#
# 1 99.7893 54.7475 36.4856 0.0000 0.0000 0.0000
# 2 54.7475 99.7893 36.4856 0.0000 0.0000 0.0000
# 3 36.4856 36.4856 93.8904 0.0000 0.0000 0.0000
# 4 0.0000 0.0000 0.0000 19.9693 0.0000 0.0000
# 5 0.0000 0.0000 0.0000 0.0000 19.9693 0.0000
# 6 0.0000 0.0000 0.0000 0.0000 0.0000 22.5209
#
#
#
# Elastic Compliance Matrix: (Units=1/GPa)
#
#
# Indices 1 2 3 4 5 6 
#
# 1 0.015063 -0.007138 -0.003080 0.000000 0.000000 0.000000
# 2 -0.007138 0.015063 -0.003080 0.000000 0.000000 0.000000
# 3 -0.003080 -0.003080 0.013044 0.000000 0.000000 0.000000
# 4 0.000000 0.000000 0.000000 0.050077 0.000000 0.000000
# 5 0.000000 0.000000 0.000000 0.000000 0.050077 0.000000
# 6 0.000000 0.000000 0.000000 0.000000 0.000000 0.044403
#
#
# Mechanical properties :
#
#
# Convention : Reuss Voigt Hill
#
# Bulk Modulus (GPa) = 60.32903 60.98960 60.65932
# Shear Modulus (GPa) = 22.74293 23.54191 23.14242
#
# Velocity S-wave (km/s) = 3.45209 3.51220 3.48228
# Velocity P-wave (km/s) = 6.89207 6.95737 6.92480
#
# Compressibility (1/GPa) = 0.01657577
#
# Stress axis : x y z
#
# Youngs Moduli (GPa) = 66.38617 66.38617 76.66216
#
# Poissons Ratio (x) = 0.47388 0.23610
# Poissons Ratio (y) = 0.47388 0.23610
# Poissons Ratio (z) = 0.20445 0.20445
#
# Static dielectric constant tensor:
#      x y z
#    x 1.674840 0.000000 0.000000 
#    y 0.000000 1.674840 0.000000 
#    z 0.000000 0.000000 1.681660 
# 
# From -- ./inp_files/8376.got.cif
#   From: 2010.05.17/outbox.cif.g08.bks.cpg/sg179_5_cif.got.tgz:8376.got - 2010.05.20 11:37:33.
