data_PCOD9583025
_publ_section_title
;
Structure prediction by ZEFSAII (Michael W. Deem and Ramdas Pophale) SiO2 
 PCOD9583025
Probable space group: P 61 2 2
;
_chemical_formula_sum "Si O2"
_cell_formula_units_Z 48
_cell_length_a 11.698086
_cell_length_b 11.698086
_cell_length_c 19.010943
_cell_angle_alpha 90.000000
_cell_angle_beta 90.000000
_cell_angle_gamma 120.000000
_cell_volume 2253.014107
_symmetry_space_group_name_H-M "P 61 2 2"
_symmetry_group_IT_number 178
_symmetry_cell_setting 'hexagonal'
loop_
_space_group_symop_operation_xyz
x,y,z
x-y,x,1/6+z
-y,x-y,1/3+z
-x,-y,1/2+z
-x+y,-x,2/3+z
y,-x+y,5/6+z
x-y,-y,-z
-x,-x+y,2/3-z
y,x,1/3-z
-y,-x,5/6-z
-x+y,y,1/2-z
x,x-y,1/6-z
loop_
_atom_site_type_symbol
_atom_site_label
_atom_site_fract_x
_atom_site_fract_y
_atom_site_fract_z
Si Si1 0.758695 0.123013 0.728168
Si Si2 0.641532 0.693780 0.054845
Si Si3 0.653028 0.191913 0.596876
Si Si4 0.151339 0.301909 0.330055
O O1 0.694865 0.070544 0.803967
O O2 0.687217 0.177323 0.677229
O O3 0.908042 0.240237 0.738425
O O4 0.750785 0.998776 0.686991
O O5 0.670059 0.835030 0.083334
O O6 0.499475 0.584663 0.084254
O O7 0.668578 0.334289 0.583334
O O8 0.752388 0.171399 0.548044
O O9 0.175638 0.351275 0.250000
O O10 0.000000 0.186653 0.333334
#
# Coordination Sequence:
#
# PCOD9583025 Si02
#       4
#    12  12  12  12
#     4  12  24  47  73 100 149 188 245 304 368 442
#     4  11  26  45  70 106 142 193 239 304 366 436
#     4  11  27  44  71 105 142 195 243 296 371 432
#     4  12  25  46  74 109 143 191 252 309 368 440
#
# _framework density 21.304791999999999
#
# number of rings (size 3 to 8) (size 9 to 14) (size 15 to 20)
#    0.000    0.500    5.000    1.500    3.500   11.000 
#    0.000    0.000    0.000    0.000    0.000    0.000 
#    0.000    0.000    0.000    0.000    0.000    0.000 
#
# Total GULP energy -268790.585151 kJ/mol
# GULP energy per Si atom -5599.803857 kJ/mol
# Density = 2.125630 g / cm^3
# Si number density = 21.304792 Si / 1000 Ang^3
#
#
#
# Elastic Constant Matrix: (Units=GPa)
#
#
# Indices 1 2 3 4 5 6 
#
# 1 97.6120 54.1662 -9.0523 0.0000 0.0000 0.0000
# 2 54.1662 97.6120 -9.0523 0.0000 0.0000 0.0000
# 3 -9.0523 -9.0523 78.2774 0.0000 0.0000 0.0000
# 4 0.0000 0.0000 0.0000 28.5936 0.0000 0.0000
# 5 0.0000 0.0000 0.0000 0.0000 28.5936 0.0000
# 6 0.0000 0.0000 0.0000 0.0000 0.0000 21.7229
#
#
#
# Elastic Compliance Matrix: (Units=1/GPa)
#
#
# Indices 1 2 3 4 5 6 
#
# 1 0.014849 -0.008168 0.000773 0.000000 0.000000 0.000000
# 2 -0.008168 0.014849 0.000773 0.000000 0.000000 0.000000
# 3 0.000773 0.000773 0.012954 0.000000 0.000000 0.000000
# 4 0.000000 0.000000 0.000000 0.034973 0.000000 0.000000
# 5 0.000000 0.000000 0.000000 0.000000 0.034973 0.000000
# 6 0.000000 0.000000 0.000000 0.000000 0.000000 0.046034
#
#
# Mechanical properties :
#
#
# Convention : Reuss Voigt Hill
#
# Bulk Modulus (GPa) = 34.00719 38.40272 36.20495
# Shear Modulus (GPa) = 27.52094 31.61132 29.56613
#
# Velocity S-wave (km/s) = 3.59802 3.85615 3.72932
# Velocity P-wave (km/s) = 5.76697 6.15557 5.96443
#
# Compressibility (1/GPa) = 0.02940554
#
# Stress axis : x y z
#
# Youngs Moduli (GPa) = 67.34483 67.34483 77.19765
#
# Poissons Ratio (x) = 0.55009 -0.05964
# Poissons Ratio (y) = 0.55009 -0.05964
# Poissons Ratio (z) = -0.05203 -0.05203
#
# Static dielectric constant tensor:
#      x y z
#    x 1.734000 0.000000 0.000000 
#    y 0.000000 1.734000 0.000000 
#    z 0.000000 0.000000 1.798090 
# 
# From -- ./inp_files/7269.got.cif
#   From: 2010.05.17/outbox.cif.g08.bks.cpg/sg178_4_cif.got.tgz:7269.got - 2010.05.20 11:30:59.
