data_PCOD9583803
_publ_section_title
;
Structure prediction by ZEFSAII (Michael W. Deem and Ramdas Pophale) SiO2 
 PCOD9583803
Probable space group: P 62 2 2
;
_chemical_formula_sum "Si O2"
_cell_formula_units_Z 66
_cell_length_a 22.089491
_cell_length_b 22.089491
_cell_length_c 8.455735
_cell_angle_alpha 90.000000
_cell_angle_beta 90.000000
_cell_angle_gamma 120.000000
_cell_volume 3573.167811
_symmetry_space_group_name_H-M "P 62 2 2"
_symmetry_group_IT_number 180
_symmetry_cell_setting 'hexagonal'
loop_
_space_group_symop_operation_xyz
x,y,z
x-y,x,1/3+z
-y,x-y,2/3+z
-x,-y,z
-x+y,-x,1/3+z
y,-x+y,2/3+z
x-y,-y,-z
-x,-x+y,1/3-z
y,x,2/3-z
-y,-x,2/3-z
-x+y,y,-z
x,x-y,1/3-z
loop_
_atom_site_type_symbol
_atom_site_label
_atom_site_fract_x
_atom_site_fract_y
_atom_site_fract_z
Si Si1 0.045242 0.954759 0.833334
Si Si2 0.675664 0.702956 0.506954
Si Si3 0.831894 0.803435 0.010311
Si Si4 0.552175 0.846845 0.684339
Si Si5 0.913936 0.461094 0.851651
Si Si6 0.936878 0.366016 0.062507
O O1 0.000000 0.943424 0.666667
O O2 0.011170 0.877920 0.904329
O O3 0.676280 0.676280 0.333334
O O4 0.749186 0.766950 0.555384
O O5 0.617883 0.726229 0.533386
O O6 0.658977 0.638513 0.621417
O O7 0.809618 0.809618 0.833334
O O8 0.890649 0.781298 0.000000
O O9 0.531747 0.765874 0.666667
O O10 0.498377 0.872754 0.743564
O O11 0.576491 0.883470 0.513263
O O12 0.895963 0.447982 0.666667
O O13 0.000000 0.500000 0.856356
O O14 0.896301 0.394338 0.957870
O O15 0.000000 0.426836 0.166667
#
# Coordination Sequence:
#
# PCOD9583803 Si02
#       6
#     6  12  12  12  12  12
#     4  12  26  47  66  92 112 158 218 276 322 392
#     4  11  23  40  61  91 128 170 217 270 337 406
#     4  12  25  42  62  83 118 159 212 266 333 401
#     4  11  23  39  62  97 139 171 217 276 349 395
#     4  11  20  36  68 100 130 168 225 283 325 399
#     4  10  20  37  64  96 124 167 218 268 323 392
#
# _framework density 18.471004000000001
#
# number of rings (size 3 to 8) (size 9 to 14) (size 15 to 20)
#    0.000    0.909    5.455    4.364    0.000    1.091 
#    0.000    2.727    0.000    4.364    0.000    0.000 
#    0.000    0.000    0.000    0.000    0.000    0.000 
#
# Total GULP energy -367846.757969 kJ/mol
# GULP energy per Si atom -5573.435727 kJ/mol
# Density = 1.842896 g / cm^3
# Si number density = 18.471004 Si / 1000 Ang^3
#
#
#
# Elastic Constant Matrix: (Units=GPa)
#
#
# Indices 1 2 3 4 5 6 
#
# 1 106.6475 36.1702 28.5684 0.0000 0.0000 0.0000
# 2 36.1702 106.6475 28.5684 0.0000 0.0000 0.0000
# 3 28.5684 28.5684 94.7805 0.0000 0.0000 0.0000
# 4 0.0000 0.0000 0.0000 59.6240 0.0000 0.0000
# 5 0.0000 0.0000 0.0000 0.0000 59.6240 0.0000
# 6 0.0000 0.0000 0.0000 0.0000 0.0000 35.2387
#
#
#
# Elastic Compliance Matrix: (Units=1/GPa)
#
#
# Indices 1 2 3 4 5 6 
#
# 1 0.011076 -0.003113 -0.002400 0.000000 0.000000 0.000000
# 2 -0.003113 0.011076 -0.002400 0.000000 0.000000 0.000000
# 3 -0.002400 -0.002400 0.011997 0.000000 0.000000 0.000000
# 4 0.000000 0.000000 0.000000 0.016772 0.000000 0.000000
# 5 0.000000 0.000000 0.000000 0.000000 0.016772 0.000000
# 6 0.000000 0.000000 0.000000 0.000000 0.000000 0.028378
#
#
# Mechanical properties :
#
#
# Convention : Reuss Voigt Hill
#
# Bulk Modulus (GPa) = 54.57930 54.96549 54.77240
# Shear Modulus (GPa) = 42.37155 45.21525 43.79340
#
# Velocity S-wave (km/s) = 4.79472 4.95300 4.87450
# Velocity P-wave (km/s) = 7.76307 7.90771 7.83572
#
# Compressibility (1/GPa) = 0.01832196
#
# Stress axis : x y z
#
# Youngs Moduli (GPa) = 90.28931 90.28931 83.35117
#
# Poissons Ratio (x) = 0.28111 0.20003
# Poissons Ratio (y) = 0.28111 0.20003
# Poissons Ratio (z) = 0.21668 0.21668
#
# Static dielectric constant tensor:
#      x y z
#    x 1.610250 0.000000 0.000000 
#    y 0.000000 1.610250 0.000000 
#    z 0.000000 0.000000 1.675130 
# 
# From -- ./inp_files/3204.got.cif
#   From: 2010.05.17/outbox.cif.g08.bks.cpg/sg180_2_cif.got.tgz:3204.got - 2010.05.20 11:43:55.
