data_PCOD9583957
_publ_section_title
;
Structure prediction by ZEFSAII (Michael W. Deem and Ramdas Pophale) SiO2 
 PCOD9583957
Probable space group: P 62 2 2
;
_chemical_formula_sum "Si O2"
_cell_formula_units_Z 69
_cell_length_a 14.979830
_cell_length_b 14.979830
_cell_length_c 16.870576
_cell_angle_alpha 90.000000
_cell_angle_beta 90.000000
_cell_angle_gamma 120.000000
_cell_volume 3278.493386
_symmetry_space_group_name_H-M "P 62 2 2"
_symmetry_group_IT_number 180
_symmetry_cell_setting 'hexagonal'
loop_
_space_group_symop_operation_xyz
x,y,z
x-y,x,1/3+z
-y,x-y,2/3+z
-x,-y,z
-x+y,-x,1/3+z
y,-x+y,2/3+z
x-y,-y,-z
-x,-x+y,1/3-z
y,x,2/3-z
-y,-x,2/3-z
-x+y,y,-z
x,x-y,1/3-z
loop_
_atom_site_type_symbol
_atom_site_label
_atom_site_fract_x
_atom_site_fract_y
_atom_site_fract_z
Si Si1 0.854357 0.854357 0.833334
Si Si2 0.508774 0.398864 0.642998
Si Si3 0.230057 0.212227 0.145687
Si Si4 0.990076 0.705849 0.032655
Si Si5 0.115168 0.448345 0.800997
Si Si6 0.500000 0.500000 0.333334
Si Si7 0.655503 0.494352 0.766541
O O1 0.779183 0.803600 0.758702
O O2 0.958633 0.848949 0.826781
O O3 0.500000 0.500000 0.661812
O O4 0.408286 0.303914 0.682109
O O5 0.502036 0.390674 0.549221
O O6 0.611292 0.422930 0.688368
O O7 0.274639 0.137320 0.166667
O O8 0.279837 0.324751 0.186272
O O9 0.255269 0.238395 0.052509
O O10 0.074086 0.683897 0.074820
O O11 0.070404 0.476646 0.725292
O O12 0.235255 0.487977 0.792494
O O13 0.566662 0.433338 0.833334
#
# Coordination Sequence:
#
# PCOD9583957 Si02
#       7
#     6  12  12  12  12   3  12
#     4  12  21  42  69 106 140 182 241 298 351 424
#     4   9  20  41  67  97 140 173 222 293 345 417
#     4  11  26  44  70 103 145 191 239 300 355 433
#     4  10  22  41  69 101 137 187 228 285 369 424
#     4  11  25  46  69 102 137 191 240 288 369 428
#     4  12  28  48  72  92 136 188 244 300 336 458
#     4  11  23  42  72 108 137 181 234 292 364 452
#
# _framework density 21.046253
#
# number of rings (size 3 to 8) (size 9 to 14) (size 15 to 20)
#    0.000    1.391    2.609    1.826    2.435    5.217 
#    0.000    2.609    0.000    0.000    0.000    0.000 
#    0.000    0.000    0.000    0.000    0.000    0.000 
#
# Total GULP energy -384954.332979 kJ/mol
# GULP energy per Si atom -5579.048304 kJ/mol
# Density = 2.099835 g / cm^3
# Si number density = 21.046253 Si / 1000 Ang^3
#
#
#
# Elastic Constant Matrix: (Units=GPa)
#
#
# Indices 1 2 3 4 5 6 
#
# 1 61.6597 41.6305 40.1562 0.0000 0.0000 0.0000
# 2 41.6305 61.6597 40.1562 0.0000 0.0000 0.0000
# 3 40.1562 40.1562 104.0140 0.0000 0.0000 0.0000
# 4 0.0000 0.0000 0.0000 -122.4359 0.0000 0.0000
# 5 0.0000 0.0000 0.0000 0.0000 -122.4359 0.0000
# 6 0.0000 0.0000 0.0000 0.0000 0.0000 10.0146
#
#
#
# Elastic Compliance Matrix: (Units=1/GPa)
#
#
# Indices 1 2 3 4 5 6 
#
# 1 0.031881 -0.018046 -0.005341 0.000000 0.000000 0.000000
# 2 -0.018046 0.031881 -0.005341 0.000000 0.000000 0.000000
# 3 -0.005341 -0.005341 0.013738 0.000000 0.000000 0.000000
# 4 0.000000 0.000000 0.000000 -0.008168 0.000000 0.000000
# 5 0.000000 0.000000 0.000000 0.000000 -0.008168 0.000000
# 6 0.000000 0.000000 0.000000 0.000000 0.000000 0.099854
#
#
# Mechanical properties :
#
#
# Convention : Reuss Voigt Hill
#
# Bulk Modulus (GPa) = 49.89326 52.35769 51.12548
# Shear Modulus (GPa) = 22.20686 -39.94539 -8.86927
#
# Velocity S-wave (km/s) = 3.25182 -4.36131 -2.05507
# Velocity P-wave (km/s) = 6.15281 0.65567 4.32592
#
# Compressibility (1/GPa) = 0.02004279
#
# Stress axis : x y z
#
# Youngs Moduli (GPa) = 31.36699 31.36699 72.79084
#
# Poissons Ratio (x) = 0.56606 0.38877
# Poissons Ratio (y) = 0.56606 0.38877
# Poissons Ratio (z) = 0.16753 0.16753
#
# Static dielectric constant tensor:
#      x y z
#    x 1.812860 0.000000 0.000000 
#    y 0.000000 1.812860 0.000000 
#    z 0.000000 0.000000 1.749880 
# 
# From -- ./inp_files/7839.got.cif
#   From: 2010.05.17/outbox.cif.g08.bks.cpg/sg180_4_cif.got.tgz:7839.got - 2010.05.20 11:43:55.
