data_PCOD9583118
_publ_section_title
;
Structure prediction by ZEFSAII (Michael W. Deem and Ramdas Pophale) SiO2 
 PCOD9583118
Probable space group: P 65 2 2
;
_chemical_formula_sum "Si O2"
_cell_formula_units_Z 60
_cell_length_a 27.714539
_cell_length_b 27.714539
_cell_length_c 5.209825
_cell_angle_alpha 90.000000
_cell_angle_beta 90.000000
_cell_angle_gamma 120.000000
_cell_volume 3465.525391
_symmetry_space_group_name_H-M "P 65 2 2"
_symmetry_group_IT_number 179
_symmetry_cell_setting 'hexagonal'
loop_
_space_group_symop_operation_xyz
x,y,z
x-y,x,5/6+z
-y,x-y,2/3+z
-x,-y,1/2+z
-x+y,-x,1/3+z
y,-x+y,1/6+z
x-y,-y,-z
-x,-x+y,1/3-z
y,x,2/3-z
-y,-x,1/6-z
-x+y,y,1/2-z
x,x-y,5/6-z
loop_
_atom_site_type_symbol
_atom_site_label
_atom_site_fract_x
_atom_site_fract_y
_atom_site_fract_z
Si Si1 0.937430 0.653755 0.737946
Si Si2 0.506235 0.875085 0.424882
Si Si3 0.537234 0.939224 0.919603
Si Si4 0.381105 0.248297 0.908261
Si Si5 0.245560 0.654264 0.168161
O O1 0.940780 0.596805 0.746587
O O2 0.897900 0.647811 0.503691
O O3 0.000000 0.701737 0.666667
O O4 0.906932 0.653341 0.001970
O O5 0.501895 0.894320 0.138936
O O6 0.559382 0.865411 0.431372
O O7 0.454461 0.818418 0.520018
O O8 0.515567 0.921740 0.632445
O O9 0.550217 0.000000 0.000000
O O10 0.387927 0.193964 0.916667
O O11 0.262387 0.631193 0.416667
O O12 0.281355 0.718646 0.083334
O O13 0.253680 0.626840 0.916667
#
# Coordination Sequence:
#
# PCOD9583118 Si02
#       5
#    12  12  12  12  12
#     4   9  17  28  43  65  94 127 159 189 229 282
#     4  10  20  34  54  77 101 126 154 192 234 282
#     4   9  17  31  53  78 102 130 158 183 219 275
#     4  10  18  29  46  70  96 120 153 197 243 279
#     4  12  25  42  61  78  98 123 157 197 243 294
#
# _framework density 17.313392
#
# number of rings (size 3 to 8) (size 9 to 14) (size 15 to 20)
#    0.000    2.000    0.000    4.800    0.000    4.800 
#    0.000    6.000    0.000   12.000    0.000    0.000 
#    0.000    0.000    0.000    0.000    0.000    0.000 
#
# Total GULP energy -334911.217731 kJ/mol
# GULP energy per Si atom -5581.853629 kJ/mol
# Density = 1.727399 g / cm^3
# Si number density = 17.313392 Si / 1000 Ang^3
#
#
#
# Elastic Constant Matrix: (Units=GPa)
#
#
# Indices 1 2 3 4 5 6 
#
# 1 39.9555 9.1332 8.0955 0.0000 0.0000 0.0000
# 2 9.1332 39.9555 8.0955 0.0000 0.0000 0.0000
# 3 8.0955 8.0955 108.3049 0.0000 0.0000 0.0000
# 4 0.0000 0.0000 0.0000 16.1566 0.0000 0.0000
# 5 0.0000 0.0000 0.0000 0.0000 16.1566 0.0000
# 6 0.0000 0.0000 0.0000 0.0000 0.0000 15.4111
#
#
#
# Elastic Compliance Matrix: (Units=1/GPa)
#
#
# Indices 1 2 3 4 5 6 
#
# 1 0.026665 -0.005779 -0.001561 0.000000 0.000000 0.000000
# 2 -0.005779 0.026665 -0.001561 0.000000 0.000000 0.000000
# 3 -0.001561 -0.001561 0.009467 0.000000 0.000000 0.000000
# 4 0.000000 0.000000 0.000000 0.061894 0.000000 0.000000
# 5 0.000000 0.000000 0.000000 0.000000 0.061894 0.000000
# 6 0.000000 0.000000 0.000000 0.000000 0.000000 0.064888
#
#
# Mechanical properties :
#
#
# Convention : Reuss Voigt Hill
#
# Bulk Modulus (GPa) = 22.22504 26.54046 24.38275
# Shear Modulus (GPa) = 17.58864 20.40430 18.99647
#
# Velocity S-wave (km/s) = 3.19077 3.43669 3.31601
# Velocity P-wave (km/s) = 5.14193 5.57768 5.36423
#
# Compressibility (1/GPa) = 0.04499430
#
# Stress axis : x y z
#
# Youngs Moduli (GPa) = 37.50214 37.50214 105.63476
#
# Poissons Ratio (x) = 0.21672 0.16492
# Poissons Ratio (y) = 0.21672 0.16492
# Poissons Ratio (z) = 0.05855 0.05855
#
# Static dielectric constant tensor:
#      x y z
#    x 1.638210 0.000000 0.000000 
#    y 0.000000 1.638210 0.000000 
#    z 0.000000 0.000000 1.596890 
# 
# From -- ./inp_files/1475.got.cif
#   From: 2010.05.17/outbox.cif.g08.bks.cpg/sg179_1_cif.got.tgz:1475.got - 2010.05.20 11:37:33.
