data_PCOD9583408
_publ_section_title
;
Structure prediction by ZEFSAII (Michael W. Deem and Ramdas Pophale) SiO2 
 PCOD9583408
Probable space group: P 65 2 2
;
_chemical_formula_sum "Si O2"
_cell_formula_units_Z 48
_cell_length_a 11.167742
_cell_length_b 11.167742
_cell_length_c 20.675064
_cell_angle_alpha 90.000000
_cell_angle_beta 90.000000
_cell_angle_gamma 120.000000
_cell_volume 2233.100345
_symmetry_space_group_name_H-M "P 65 2 2"
_symmetry_group_IT_number 179
_symmetry_cell_setting 'hexagonal'
loop_
_space_group_symop_operation_xyz
x,y,z
x-y,x,5/6+z
-y,x-y,2/3+z
-x,-y,1/2+z
-x+y,-x,1/3+z
y,-x+y,1/6+z
x-y,-y,-z
-x,-x+y,1/3-z
y,x,2/3-z
-y,-x,1/6-z
-x+y,y,1/2-z
x,x-y,5/6-z
loop_
_atom_site_type_symbol
_atom_site_label
_atom_site_fract_x
_atom_site_fract_y
_atom_site_fract_z
Si Si1 0.654246 0.671315 0.651117
Si Si2 0.528163 0.907687 0.381586
Si Si3 0.872027 0.589870 0.618664
Si Si4 0.877799 0.201201 0.708056
O O1 0.455487 0.503234 0.507919
O O2 0.748457 0.602188 0.647746
O O3 0.674934 0.752207 0.718390
O O4 0.692827 0.781212 0.593881
O O5 0.399492 0.837086 0.430873
O O6 0.585986 0.819311 0.346875
O O7 0.653787 0.038575 0.418935
O O8 0.000000 0.649474 0.666667
O O9 0.000000 0.198030 0.666667
#
# Coordination Sequence:
#
# PCOD9583408 Si02
#       4
#    12  12  12  12
#     4  10  24  47  73 105 153 193 253 313 387 463
#     4  10  26  46  77 106 154 190 263 306 396 449
#     4  10  22  47  73 109 149 195 254 316 386 464
#     4  12  24  50  70 115 149 199 251 319 382 473
#
# _framework density 21.494779000000001
#
# number of rings (size 3 to 8) (size 9 to 14) (size 15 to 20)
#    1.500    0.000    0.000    4.500    0.000    0.000 
#   22.500   12.500    0.000    0.000    0.000    0.000 
#    0.000    0.000    0.000    0.000    0.000    0.000 
#
# Total GULP energy -267391.804397 kJ/mol
# GULP energy per Si atom -5570.662592 kJ/mol
# Density = 2.144586 g / cm^3
# Si number density = 21.494779 Si / 1000 Ang^3
#
#
#
# Elastic Constant Matrix: (Units=GPa)
#
#
# Indices 1 2 3 4 5 6 
#
# 1 79.9976 81.9782 23.0312 0.0000 0.0000 0.0000
# 2 81.9782 79.9976 23.0312 0.0000 0.0000 0.0000
# 3 23.0312 23.0312 103.7357 0.0000 0.0000 0.0000
# 4 0.0000 0.0000 0.0000 39.4189 0.0000 0.0000
# 5 0.0000 0.0000 0.0000 0.0000 39.4189 0.0000
# 6 0.0000 0.0000 0.0000 0.0000 0.0000 -0.9903
#
#
#
# Elastic Compliance Matrix: (Units=1/GPa)
#
#
# Indices 1 2 3 4 5 6 
#
# 1 -0.249154 0.255744 -0.001463 0.000000 0.000000 0.000000
# 2 0.255744 -0.249154 -0.001463 0.000000 0.000000 0.000000
# 3 -0.001463 -0.001463 0.010290 0.000000 0.000000 0.000000
# 4 0.000000 0.000000 0.000000 0.025369 0.000000 0.000000
# 5 0.000000 0.000000 0.000000 0.000000 0.025369 0.000000
# 6 0.000000 0.000000 0.000000 0.000000 0.000000 -1.009796
#
#
# Mechanical properties :
#
#
# Convention : Reuss Voigt Hill
#
# Bulk Modulus (GPa) = 56.76352 57.75688 57.26020
# Shear Modulus (GPa) = -2.56826 24.61551 11.02363
#
# Velocity S-wave (km/s) = -1.09427 3.38773 2.26708
# Velocity P-wave (km/s) = 4.98686 6.49852 5.79222
#
# Compressibility (1/GPa) = 0.01761695
#
# Stress axis : x y z
#
# Youngs Moduli (GPa) = -4.01358 -4.01358 97.18617
#
# Poissons Ratio (x) = 1.02645 0.14219
# Poissons Ratio (y) = 1.02645 0.14219
# Poissons Ratio (z) = -0.00587 -0.00587
#
# Static dielectric constant tensor:
#      x y z
#    x 1.769640 0.000000 0.000000 
#    y 0.000000 1.769640 0.000000 
#    z 0.000000 0.000000 1.874660 
# 
# From -- ./inp_files/8068.got.cif
#   From: 2010.05.17/outbox.cif.g08.bks.cpg/sg179_5_cif.got.tgz:8068.got - 2010.05.20 11:37:33.
