data_PCOD9583616
_publ_section_title
;
Structure prediction by ZEFSAII (Michael W. Deem and Ramdas Pophale) SiO2 
 PCOD9583616
Probable space group: P 62 2 2
;
_chemical_formula_sum "Si O2"
_cell_formula_units_Z 72
_cell_length_a 14.536460
_cell_length_b 14.536460
_cell_length_c 19.464723
_cell_angle_alpha 90.000000
_cell_angle_beta 90.000000
_cell_angle_gamma 120.000000
_cell_volume 3562.018531
_symmetry_space_group_name_H-M "P 62 2 2"
_symmetry_group_IT_number 180
_symmetry_cell_setting 'hexagonal'
loop_
_space_group_symop_operation_xyz
x,y,z
x-y,x,1/3+z
-y,x-y,2/3+z
-x,-y,z
-x+y,-x,1/3+z
y,-x+y,2/3+z
x-y,-y,-z
-x,-x+y,1/3-z
y,x,2/3-z
-y,-x,2/3-z
-x+y,y,-z
x,x-y,1/3-z
loop_
_atom_site_type_symbol
_atom_site_label
_atom_site_fract_x
_atom_site_fract_y
_atom_site_fract_z
Si Si1 0.700507 0.792289 0.774616
Si Si2 0.879179 0.816028 0.675306
Si Si3 0.089473 0.339026 0.778195
Si Si4 0.525741 0.251375 0.973322
Si Si5 0.115620 0.590947 0.246267
Si Si6 0.797301 0.152220 0.910082
O O1 0.734674 0.734674 0.833334
O O2 0.792191 0.832435 0.716767
O O3 0.687589 0.883139 0.813490
O O4 0.584532 0.702612 0.748751
O O5 0.889411 0.734398 0.726373
O O6 0.849615 0.752277 0.603243
O O7 0.000000 0.910485 0.666667
O O8 0.175407 0.458091 0.756535
O O9 0.968187 0.301952 0.760906
O O10 0.580037 0.373976 0.952013
O O11 0.612268 0.224535 0.000000
O O12 0.443969 0.223895 0.035708
O O13 0.122738 0.561369 0.166667
O O14 0.000000 0.500000 0.271401
O O15 0.808393 0.191608 0.833334
#
# Coordination Sequence:
#
# PCOD9583616 Si02
#       6
#    12  12  12  12  12  12
#     4  10  16  31  62  94 128 169 216 269 337 412
#     4   8  16  32  60  91 122 164 214 257 316 398
#     4   9  18  35  61  89 115 166 219 263 326 401
#     4  11  23  39  63  88 124 166 218 272 327 405
#     4  11  18  33  61  94 129 169 215 270 345 416
#     4  10  21  39  59  84 122 165 213 268 326 392
#
# _framework density 20.213258
#
# number of rings (size 3 to 8) (size 9 to 14) (size 15 to 20)
#    0.000    2.167    3.333    3.500    0.000    2.000 
#    0.000    4.167    3.667   17.500    0.000    0.000 
#    0.000    0.000    0.000    0.000    0.000    0.000 
#
# Total GULP energy -401434.780093 kJ/mol
# GULP energy per Si atom -5575.483057 kJ/mol
# Density = 2.016725 g / cm^3
# Si number density = 20.213258 Si / 1000 Ang^3
#
#
#
# Elastic Constant Matrix: (Units=GPa)
#
#
# Indices 1 2 3 4 5 6 
#
# 1 114.3208 27.4827 48.4614 0.0000 0.0000 0.0000
# 2 27.4827 114.3208 48.4614 0.0000 0.0000 0.0000
# 3 48.4614 48.4614 73.5227 0.0000 0.0000 0.0000
# 4 0.0000 0.0000 0.0000 22.7584 0.0000 0.0000
# 5 0.0000 0.0000 0.0000 0.0000 22.7584 0.0000
# 6 0.0000 0.0000 0.0000 0.0000 0.0000 43.4191
#
#
#
# Elastic Compliance Matrix: (Units=1/GPa)
#
#
# Indices 1 2 3 4 5 6 
#
# 1 0.012175 0.000659 -0.008459 0.000000 0.000000 0.000000
# 2 0.000659 0.012175 -0.008459 0.000000 0.000000 0.000000
# 3 -0.008459 -0.008459 0.024753 0.000000 0.000000 0.000000
# 4 0.000000 0.000000 0.000000 0.043940 0.000000 0.000000
# 5 0.000000 0.000000 0.000000 0.000000 0.043940 0.000000
# 6 0.000000 0.000000 0.000000 0.000000 0.000000 0.023031
#
#
# Mechanical properties :
#
#
# Convention : Reuss Voigt Hill
#
# Bulk Modulus (GPa) = 60.30069 61.21950 60.76010
# Shear Modulus (GPa) = 25.24481 29.63776 27.44129
#
# Velocity S-wave (km/s) = 3.53784 3.83332 3.68854
# Velocity P-wave (km/s) = 6.82536 7.06718 6.94732
#
# Compressibility (1/GPa) = 0.01658356
#
# Stress axis : x y z
#
# Youngs Moduli (GPa) = 82.13672 82.13672 40.39927
#
# Poissons Ratio (x) = -0.05414 0.34175
# Poissons Ratio (y) = -0.05414 0.34175
# Poissons Ratio (z) = 0.69482 0.69482
#
# Static dielectric constant tensor:
#      x y z
#    x 1.756560 0.000000 0.000000 
#    y 0.000000 1.756560 0.000000 
#    z 0.000000 0.000000 1.726660 
# 
# From -- ./inp_files/7787.got.cif
#   From: 2010.05.17/outbox.cif.g08.bks.cpg/sg180_4_cif.got.tgz:7787.got - 2010.05.20 11:43:55.
