data_PCOD9583692
_publ_section_title
;
Structure prediction by ZEFSAII (Michael W. Deem and Ramdas Pophale) SiO2 
 PCOD9583692
Probable space group: P 62 2 2
;
_chemical_formula_sum "Si O2"
_cell_formula_units_Z 60
_cell_length_a 28.876377
_cell_length_b 28.876377
_cell_length_c 5.258485
_cell_angle_alpha 90.000000
_cell_angle_beta 90.000000
_cell_angle_gamma 120.000000
_cell_volume 3797.315460
_symmetry_space_group_name_H-M "P 62 2 2"
_symmetry_group_IT_number 180
_symmetry_cell_setting 'hexagonal'
loop_
_space_group_symop_operation_xyz
x,y,z
x-y,x,1/3+z
-y,x-y,2/3+z
-x,-y,z
-x+y,-x,1/3+z
y,-x+y,2/3+z
x-y,-y,-z
-x,-x+y,1/3-z
y,x,2/3-z
-y,-x,2/3-z
-x+y,y,-z
x,x-y,1/3-z
loop_
_atom_site_type_symbol
_atom_site_label
_atom_site_fract_x
_atom_site_fract_y
_atom_site_fract_z
Si Si1 0.756696 0.544545 0.253095
Si Si2 0.902424 0.344142 0.701021
Si Si3 0.676344 0.968120 0.239969
Si Si4 0.063669 0.476881 0.139666
Si Si5 0.335137 0.142357 0.412834
O O1 0.756707 0.513413 0.500000
O O2 0.708278 0.555994 0.281522
O O3 0.814860 0.600382 0.251783
O O4 0.758010 0.516020 0.000000
O O5 0.943827 0.323928 0.762023
O O6 0.919994 0.385273 0.468151
O O7 0.903000 0.372273 0.966779
O O8 0.677306 0.917134 0.362143
O O9 0.680349 0.000000 0.500000
O O10 0.715919 0.000000 0.000000
O O11 0.071060 0.535530 0.166667
O O12 0.000000 0.435749 0.166667
O O13 0.315249 0.157624 0.666667
O O14 0.313056 0.156528 0.166667
#
# Coordination Sequence:
#
# PCOD9583692 Si02
#       5
#    12  12  12  12  12
#     4  10  19  32  51  70  98 127 162 202 265 310
#     4  12  21  36  54  73  95 136 175 214 245 309
#     4  12  23  32  49  78 104 130 180 227 254 304
#     4  11  24  39  51  69 100 136 176 212 256 308
#     4  10  19  34  48  65 101 138 162 207 279 315
#
# _framework density 15.800636000000001
#
# number of rings (size 3 to 8) (size 9 to 14) (size 15 to 20)
#    0.000    1.000    4.000    6.600    5.600    1.600 
#    0.000    0.000    0.000    0.000    0.000    0.000 
#    0.000    0.000    0.000   75.600    0.000    0.000 
#
# Total GULP energy -334166.812988 kJ/mol
# GULP energy per Si atom -5569.446883 kJ/mol
# Density = 1.576467 g / cm^3
# Si number density = 15.800636 Si / 1000 Ang^3
#
#
#
# Elastic Constant Matrix: (Units=GPa)
#
#
# Indices 1 2 3 4 5 6 
#
# 1 53.2134 35.7331 32.5729 0.0000 0.0000 0.0000
# 2 35.7331 53.2134 32.5729 0.0000 0.0000 0.0000
# 3 32.5729 32.5729 168.4814 0.0000 0.0000 0.0000
# 4 0.0000 0.0000 0.0000 14.1861 0.0000 0.0000
# 5 0.0000 0.0000 0.0000 0.0000 14.1861 0.0000
# 6 0.0000 0.0000 0.0000 0.0000 0.0000 8.7401
#
#
#
# Elastic Compliance Matrix: (Units=1/GPa)
#
#
# Indices 1 2 3 4 5 6 
#
# 1 0.035152 -0.022055 -0.002532 0.000000 0.000000 0.000000
# 2 -0.022055 0.035152 -0.002532 0.000000 0.000000 0.000000
# 3 -0.002532 -0.002532 0.006914 0.000000 0.000000 0.000000
# 4 0.000000 0.000000 0.000000 0.070491 0.000000 0.000000
# 5 0.000000 0.000000 0.000000 0.000000 0.070491 0.000000
# 6 0.000000 0.000000 0.000000 0.000000 0.000000 0.114415
#
#
# Mechanical properties :
#
#
# Convention : Reuss Voigt Hill
#
# Bulk Modulus (GPa) = 43.51511 52.96287 48.23899
# Shear Modulus (GPa) = 12.67378 19.02442 15.84910
#
# Velocity S-wave (km/s) = 2.83522 3.47368 3.17056
# Velocity P-wave (km/s) = 6.19014 7.04846 6.63320
#
# Compressibility (1/GPa) = 0.02298052
#
# Stress axis : x y z
#
# Youngs Moduli (GPa) = 28.44763 28.44763 144.62447
#
# Poissons Ratio (x) = 0.62741 0.36621
# Poissons Ratio (y) = 0.62741 0.36621
# Poissons Ratio (z) = 0.07203 0.07203
#
# Static dielectric constant tensor:
#      x y z
#    x 1.577260 0.000000 0.000000 
#    y 0.000000 1.577260 0.000000 
#    z 0.000000 0.000000 1.708120 
# 
# From -- ./inp_files/1444.got.cif
#   From: 2010.05.17/outbox.cif.g08.bks.cpg/sg180_1_cif.got.tgz:1444.got - 2010.05.20 11:43:55.
