data_PCOD9583631
_publ_section_title
;
Structure prediction by ZEFSAII (Michael W. Deem and Ramdas Pophale) SiO2 
 PCOD9583631
Probable space group: P 62 2 2
;
_chemical_formula_sum "Si O2"
_cell_formula_units_Z 48
_cell_length_a 15.741784
_cell_length_b 15.741784
_cell_length_c 11.537158
_cell_angle_alpha 90.000000
_cell_angle_beta 90.000000
_cell_angle_gamma 120.000000
_cell_volume 2475.924344
_symmetry_space_group_name_H-M "P 62 2 2"
_symmetry_group_IT_number 180
_symmetry_cell_setting 'hexagonal'
loop_
_space_group_symop_operation_xyz
x,y,z
x-y,x,1/3+z
-y,x-y,2/3+z
-x,-y,z
-x+y,-x,1/3+z
y,-x+y,2/3+z
x-y,-y,-z
-x,-x+y,1/3-z
y,x,2/3-z
-y,-x,2/3-z
-x+y,y,-z
x,x-y,1/3-z
loop_
_atom_site_type_symbol
_atom_site_label
_atom_site_fract_x
_atom_site_fract_y
_atom_site_fract_z
Si Si1 0.412730 0.807249 0.637419
Si Si2 0.943321 0.239182 0.783850
Si Si3 0.299149 0.803249 0.001519
Si Si4 0.280106 0.879814 0.250866
O O1 0.408084 0.816167 0.500000
O O2 0.416819 0.708410 0.666667
O O3 0.309200 0.782570 0.691939
O O4 0.514523 0.892291 0.687254
O O5 0.866554 0.133447 0.833334
O O6 0.881560 0.291302 0.744739
O O7 0.000000 0.239185 0.666667
O O8 0.021216 0.304906 0.880744
O O9 0.405629 0.811258 0.000000
O O10 0.276078 0.825304 0.130684
O O11 0.188319 0.811682 0.333334
#
# Coordination Sequence:
#
# PCOD9583631 Si02
#       4
#    12  12  12  12
#     4  10  17  31  57  93 132 174 210 249 309 370
#     4  10  24  44  66  93 126 169 216 271 328 380
#     4  10  21  35  59  93 134 178 218 249 296 384
#     4  10  20  38  61  92 129 168 212 270 324 371
#
# _framework density 19.386699
#
# number of rings (size 3 to 8) (size 9 to 14) (size 15 to 20)
#    0.000    2.000    5.000    0.000    3.500    4.500 
#    0.000    5.000    0.000    3.750    0.000    0.000 
#    0.000    0.000    0.000    0.000    0.000    0.000 
#
# Total GULP energy -267881.152008 kJ/mol
# GULP energy per Si atom -5580.857334 kJ/mol
# Density = 1.934257 g / cm^3
# Si number density = 19.386699 Si / 1000 Ang^3
#
#
#
# Elastic Constant Matrix: (Units=GPa)
#
#
# Indices 1 2 3 4 5 6 
#
# 1 121.5300 58.5649 63.1132 0.0000 0.0000 0.0000
# 2 58.5649 121.5300 63.1132 0.0000 0.0000 0.0000
# 3 63.1132 63.1132 118.1255 0.0000 0.0000 0.0000
# 4 0.0000 0.0000 0.0000 35.6823 0.0000 0.0000
# 5 0.0000 0.0000 0.0000 0.0000 35.6823 0.0000
# 6 0.0000 0.0000 0.0000 0.0000 0.0000 31.4825
#
#
#
# Elastic Compliance Matrix: (Units=1/GPa)
#
#
# Indices 1 2 3 4 5 6 
#
# 1 0.012379 -0.003503 -0.004743 0.000000 0.000000 0.000000
# 2 -0.003503 0.012379 -0.004743 0.000000 0.000000 0.000000
# 3 -0.004743 -0.004743 0.013534 0.000000 0.000000 0.000000
# 4 0.000000 0.000000 0.000000 0.028025 0.000000 0.000000
# 5 0.000000 0.000000 0.000000 0.000000 0.028025 0.000000
# 6 0.000000 0.000000 0.000000 0.000000 0.000000 0.031764
#
#
# Mechanical properties :
#
#
# Convention : Reuss Voigt Hill
#
# Bulk Modulus (GPa) = 81.19471 81.19649 81.19560
# Shear Modulus (GPa) = 32.01281 32.32905 32.17093
#
# Velocity S-wave (km/s) = 4.06800 4.08804 4.07803
# Velocity P-wave (km/s) = 8.00234 8.01600 8.00917
#
# Compressibility (1/GPa) = 0.01231607
#
# Stress axis : x y z
#
# Youngs Moduli (GPa) = 80.78001 80.78001 73.89017
#
# Poissons Ratio (x) = 0.28293 0.35044
# Poissons Ratio (y) = 0.28293 0.35044
# Poissons Ratio (z) = 0.38312 0.38312
#
# Static dielectric constant tensor:
#      x y z
#    x 1.701430 0.000000 0.000000 
#    y 0.000000 1.701430 0.000000 
#    z 0.000000 0.000000 1.764420 
# 
# From -- ./inp_files/2652.got.cif
#   From: 2010.05.17/outbox.cif.g08.bks.cpg/sg180_2_cif.got.tgz:2652.got - 2010.05.20 11:43:55.
