data_PCOD9583542
_publ_section_title
;
Structure prediction by ZEFSAII (Michael W. Deem and Ramdas Pophale) SiO2 
 PCOD9583542
Probable space group: P 65 2 2
;
_chemical_formula_sum "Si O2"
_cell_formula_units_Z 48
_cell_length_a 16.319867
_cell_length_b 16.319867
_cell_length_c 9.024250
_cell_angle_alpha 90.000000
_cell_angle_beta 90.000000
_cell_angle_gamma 120.000000
_cell_volume 2081.493121
_symmetry_space_group_name_H-M "P 65 2 2"
_symmetry_group_IT_number 179
_symmetry_cell_setting 'hexagonal'
loop_
_space_group_symop_operation_xyz
x,y,z
x-y,x,5/6+z
-y,x-y,2/3+z
-x,-y,1/2+z
-x+y,-x,1/3+z
y,-x+y,1/6+z
x-y,-y,-z
-x,-x+y,1/3-z
y,x,2/3-z
-y,-x,1/6-z
-x+y,y,1/2-z
x,x-y,5/6-z
loop_
_atom_site_type_symbol
_atom_site_label
_atom_site_fract_x
_atom_site_fract_y
_atom_site_fract_z
Si Si1 0.831247 0.005376 0.758152
Si Si2 0.659125 0.148712 0.073725
Si Si3 0.452775 0.353108 0.747478
Si Si4 0.701389 0.000000 0.000000
Si Si5 0.167572 0.832429 0.083334
O O1 0.746239 0.964797 0.874399
O O2 0.803903 0.065783 0.650348
O O3 0.926887 0.081747 0.841755
O O4 0.746407 0.253594 0.083334
O O5 0.643508 0.098322 0.235364
O O6 0.562343 0.146744 0.037406
O O7 0.684456 0.086731 0.964120
O O8 0.400879 0.400879 0.833334
O O9 0.400621 0.244504 0.797320
#
# Coordination Sequence:
#
# PCOD9583542 Si02
#       5
#    12  12  12   6   6
#     4  12  26  46  68 101 142 187 244 303 368 438
#     4  11  24  43  71 106 147 186 244 302 370 437
#     4  11  24  45  69 104 142 191 243 300 366 444
#     4  12  22  44  68 100 136 188 236 300 356 444
#     4  12  24  44  70  96 140 184 244 296 366 432
#
# _framework density 23.060369000000001
#
# number of rings (size 3 to 8) (size 9 to 14) (size 15 to 20)
#    0.000    0.500    1.250    9.000    0.000    2.000 
#   13.500    0.000    0.000    0.000    0.000    0.000 
#    0.000    0.000    0.000    0.000    0.000    0.000 
#
# Total GULP energy -268669.336674 kJ/mol
# GULP energy per Si atom -5597.277847 kJ/mol
# Density = 2.300788 g / cm^3
# Si number density = 23.060369 Si / 1000 Ang^3
#
#
#
# Elastic Constant Matrix: (Units=GPa)
#
#
# Indices 1 2 3 4 5 6 
#
# 1 132.7214 57.7873 16.7211 0.0000 0.0000 0.0000
# 2 57.7873 132.7214 16.7211 0.0000 0.0000 0.0000
# 3 16.7211 16.7211 48.2410 0.0000 0.0000 0.0000
# 4 0.0000 0.0000 0.0000 37.6768 0.0000 0.0000
# 5 0.0000 0.0000 0.0000 0.0000 37.6768 0.0000
# 6 0.0000 0.0000 0.0000 0.0000 0.0000 37.4671
#
#
#
# Elastic Compliance Matrix: (Units=1/GPa)
#
#
# Indices 1 2 3 4 5 6 
#
# 1 0.009467 -0.003878 -0.001937 0.000000 0.000000 0.000000
# 2 -0.003878 0.009467 -0.001937 0.000000 0.000000 0.000000
# 3 -0.001937 -0.001937 0.022072 0.000000 0.000000 0.000000
# 4 0.000000 0.000000 0.000000 0.026542 0.000000 0.000000
# 5 0.000000 0.000000 0.000000 0.000000 0.026542 0.000000
# 6 0.000000 0.000000 0.000000 0.000000 0.000000 0.026690
#
#
# Mechanical properties :
#
#
# Convention : Reuss Voigt Hill
#
# Bulk Modulus (GPa) = 39.21351 55.12696 47.17024
# Shear Modulus (GPa) = 34.53392 37.39442 35.96417
#
# Velocity S-wave (km/s) = 3.87401 4.03126 3.95342
# Velocity P-wave (km/s) = 6.08705 6.75467 6.42953
#
# Compressibility (1/GPa) = 0.02550141
#
# Stress axis : x y z
#
# Youngs Moduli (GPa) = 105.62875 105.62875 45.30580
#
# Poissons Ratio (x) = 0.40962 0.08777
# Poissons Ratio (y) = 0.40962 0.08777
# Poissons Ratio (z) = 0.20463 0.20463
#
# Static dielectric constant tensor:
#      x y z
#    x 1.838780 0.000000 0.000000 
#    y 0.000000 1.838780 0.000000 
#    z 0.000000 0.000000 1.980780 
# 
# From -- ./inp_files/4360.got.cif
#   From: 2010.05.17/outbox.cif.g08.bks.cpg/sg179_3_cif.got.tgz:4360.got - 2010.05.20 11:37:33.
