data_PCOD9583732
_publ_section_title
;
Structure prediction by ZEFSAII (Michael W. Deem and Ramdas Pophale) SiO2 
 PCOD9583732
Probable space group: P 62 2 2
;
_chemical_formula_sum "Si O2"
_cell_formula_units_Z 60
_cell_length_a 19.438072
_cell_length_b 19.438072
_cell_length_c 9.893921
_cell_angle_alpha 90.000000
_cell_angle_beta 90.000000
_cell_angle_gamma 120.000000
_cell_volume 3237.467691
_symmetry_space_group_name_H-M "P 62 2 2"
_symmetry_group_IT_number 180
_symmetry_cell_setting 'hexagonal'
loop_
_space_group_symop_operation_xyz
x,y,z
x-y,x,1/3+z
-y,x-y,2/3+z
-x,-y,z
-x+y,-x,1/3+z
y,-x+y,2/3+z
x-y,-y,-z
-x,-x+y,1/3-z
y,x,2/3-z
-y,-x,2/3-z
-x+y,y,-z
x,x-y,1/3-z
loop_
_atom_site_type_symbol
_atom_site_label
_atom_site_fract_x
_atom_site_fract_y
_atom_site_fract_z
Si Si1 0.171499 0.719876 0.955148
Si Si2 0.062155 0.268034 0.790648
Si Si3 0.451303 0.546052 0.170092
Si Si4 0.081591 0.268329 0.371817
Si Si5 0.817820 0.266037 0.470797
O O1 0.224995 0.775005 0.833334
O O2 0.132641 0.630387 0.904700
O O3 0.104983 0.745212 0.982271
O O4 0.228944 0.747409 0.084872
O O5 0.124904 0.240810 0.750319
O O6 0.114313 0.362393 0.808362
O O7 0.000000 0.247227 0.666667
O O8 0.009297 0.226323 0.920713
O O9 0.500000 0.500000 0.145194
O O10 0.447198 0.552803 0.333334
O O11 0.360342 0.500407 0.121466
O O12 0.133913 0.267826 0.500000
O O13 0.781030 0.218971 0.333334
#
# Coordination Sequence:
#
# PCOD9583732 Si02
#       5
#    12  12  12  12  12
#     4  10  19  38  56  83 117 159 209 255 311 364
#     4   9  17  32  57  84 118 160 194 248 300 366
#     4  11  23  38  65  91 114 165 224 263 307 380
#     4   8  15  27  53  81 114 148 190 242 288 347
#     4  11  24  40  58  90 126 157 208 262 316 365
#
# _framework density 18.533003000000001
#
# number of rings (size 3 to 8) (size 9 to 14) (size 15 to 20)
#    0.000    2.200    2.000    2.400    2.800    0.800 
#    3.600   10.000    0.000    0.000    0.000    0.000 
#    0.000   68.000    0.000    0.000    0.000    0.000 
#
# Total GULP energy -334631.598228 kJ/mol
# GULP energy per Si atom -5577.193304 kJ/mol
# Density = 1.849082 g / cm^3
# Si number density = 18.533003 Si / 1000 Ang^3
#
#
#
# Elastic Constant Matrix: (Units=GPa)
#
#
# Indices 1 2 3 4 5 6 
#
# 1 115.7030 78.4607 42.9969 0.0000 0.0000 0.0000
# 2 78.4607 115.7030 42.9969 0.0000 0.0000 0.0000
# 3 42.9969 42.9969 66.1028 0.0000 0.0000 0.0000
# 4 0.0000 0.0000 0.0000 19.4760 0.0000 0.0000
# 5 0.0000 0.0000 0.0000 0.0000 19.4760 0.0000
# 6 0.0000 0.0000 0.0000 0.0000 0.0000 18.6211
#
#
#
# Elastic Compliance Matrix: (Units=1/GPa)
#
#
# Indices 1 2 3 4 5 6 
#
# 1 0.017043 -0.009808 -0.004706 0.000000 0.000000 0.000000
# 2 -0.009808 0.017043 -0.004706 0.000000 0.000000 0.000000
# 3 -0.004706 -0.004706 0.021250 0.000000 0.000000 0.000000
# 4 0.000000 0.000000 0.000000 0.051345 0.000000 0.000000
# 5 0.000000 0.000000 0.000000 0.000000 0.051345 0.000000
# 6 0.000000 0.000000 0.000000 0.000000 0.000000 0.053702
#
#
# Mechanical properties :
#
#
# Convention : Reuss Voigt Hill
#
# Bulk Modulus (GPa) = 59.18640 69.60199 64.39420
# Shear Modulus (GPa) = 19.54656 20.38491 19.96574
#
# Velocity S-wave (km/s) = 3.25112 3.32011 3.28580
# Velocity P-wave (km/s) = 6.78956 7.23427 7.01544
#
# Compressibility (1/GPa) = 0.01689577
#
# Stress axis : x y z
#
# Youngs Moduli (GPa) = 58.67583 58.67583 47.05969
#
# Poissons Ratio (x) = 0.57552 0.22145
# Poissons Ratio (y) = 0.57552 0.22145
# Poissons Ratio (z) = 0.27611 0.27611
#
# Static dielectric constant tensor:
#      x y z
#    x 1.634030 0.000000 0.000000 
#    y 0.000000 1.634030 0.000000 
#    z 0.000000 0.000000 1.674970 
# 
# From -- ./inp_files/4808.got.cif
#   From: 2010.05.17/outbox.cif.g08.bks.cpg/sg180_3_cif.got.tgz:4808.got - 2010.05.20 11:43:55.
