data_PCOD9583790
_publ_section_title
;
Structure prediction by ZEFSAII (Michael W. Deem and Ramdas Pophale) SiO2 
 PCOD9583790
Probable space group: P 62 2 2
;
_chemical_formula_sum "Si O2"
_cell_formula_units_Z 84
_cell_length_a 15.543064
_cell_length_b 15.543064
_cell_length_c 23.019891
_cell_angle_alpha 90.000000
_cell_angle_beta 90.000000
_cell_angle_gamma 120.000000
_cell_volume 4816.229407
_symmetry_space_group_name_H-M "P 62 2 2"
_symmetry_group_IT_number 180
_symmetry_cell_setting 'hexagonal'
loop_
_space_group_symop_operation_xyz
x,y,z
x-y,x,1/3+z
-y,x-y,2/3+z
-x,-y,z
-x+y,-x,1/3+z
y,-x+y,2/3+z
x-y,-y,-z
-x,-x+y,1/3-z
y,x,2/3-z
-y,-x,2/3-z
-x+y,y,-z
x,x-y,1/3-z
loop_
_atom_site_type_symbol
_atom_site_label
_atom_site_fract_x
_atom_site_fract_y
_atom_site_fract_z
Si Si1 0.466261 0.707599 0.871334
Si Si2 0.717357 0.560296 0.554566
Si Si3 0.764596 0.432252 0.334589
Si Si4 0.752175 0.654538 0.871449
Si Si5 0.926665 0.380502 0.317871
Si Si6 0.720039 0.048207 0.236727
Si Si7 0.902443 0.420084 0.508027
O O1 0.377823 0.622178 0.833334
O O2 0.474377 0.678949 0.936584
O O3 0.566592 0.734904 0.838607
O O4 0.447935 0.800644 0.874302
O O5 0.774663 0.549325 0.500000
O O6 0.723839 0.514250 0.615918
O O7 0.743454 0.674586 0.558107
O O8 0.601304 0.488321 0.538396
O O9 0.649334 0.350667 0.333334
O O10 0.824954 0.373029 0.341094
O O11 0.726396 0.726396 0.833334
O O12 0.674593 0.596811 0.924243
O O13 0.865661 0.700168 0.895426
O O14 0.952800 0.323610 0.366535
O O15 0.000000 0.500000 0.314896
O O16 0.658510 0.077339 0.191924
O O17 0.000000 0.500000 0.542538
#
# Coordination Sequence:
#
# PCOD9583790 Si02
#       7
#    12  12  12  12  12  12  12
#     4  11  21  32  48  79 118 150 183 235 296 358
#     4  11  21  35  57  79 104 148 208 252 290 350
#     4  12  21  31  50  80 118 150 192 240 294 355
#     4  11  24  35  53  81 120 159 191 240 306 373
#     4  12  20  34  54  84 120 158 194 230 292 375
#     4  10  20  37  54  76 113 153 197 243 296 357
#     4   9  17  32  51  71 101 146 187 228 277 339
#
# _framework density 17.441030000000001
#
# number of rings (size 3 to 8) (size 9 to 14) (size 15 to 20)
#    0.000    1.143    4.286    4.714    0.000    0.000 
#    0.000    0.000    0.000   16.286    0.000    0.000 
#    0.000    2.286    0.000    0.000    0.000    0.000 
#
# Total GULP energy -467818.960204 kJ/mol
# GULP energy per Si atom -5569.273336 kJ/mol
# Density = 1.740133 g / cm^3
# Si number density = 17.441030 Si / 1000 Ang^3
#
#
#
# Elastic Constant Matrix: (Units=GPa)
#
#
# Indices 1 2 3 4 5 6 
#
# 1 81.1114 36.8335 32.9052 0.0000 0.0000 0.0000
# 2 36.8335 81.1114 32.9052 0.0000 0.0000 0.0000
# 3 32.9052 32.9052 100.0045 0.0000 0.0000 0.0000
# 4 0.0000 0.0000 0.0000 10.7471 0.0000 0.0000
# 5 0.0000 0.0000 0.0000 0.0000 10.7471 0.0000
# 6 0.0000 0.0000 0.0000 0.0000 0.0000 22.1389
#
#
#
# Elastic Compliance Matrix: (Units=1/GPa)
#
#
# Indices 1 2 3 4 5 6 
#
# 1 0.016485 -0.006100 -0.003417 0.000000 0.000000 0.000000
# 2 -0.006100 0.016485 -0.003417 0.000000 0.000000 0.000000
# 3 -0.003417 -0.003417 0.012248 0.000000 0.000000 0.000000
# 4 0.000000 0.000000 0.000000 0.093048 0.000000 0.000000
# 5 0.000000 0.000000 0.000000 0.000000 0.093048 0.000000
# 6 0.000000 0.000000 0.000000 0.000000 0.000000 0.045169
#
#
# Mechanical properties :
#
#
# Convention : Reuss Voigt Hill
#
# Bulk Modulus (GPa) = 51.67902 51.94610 51.81256
# Shear Modulus (GPa) = 16.19161 19.36553 17.77857
#
# Velocity S-wave (km/s) = 3.05021 3.33580 3.19619
# Velocity P-wave (km/s) = 6.48846 6.68470 6.58731
#
# Compressibility (1/GPa) = 0.01935021
#
# Stress axis : x y z
#
# Youngs Moduli (GPa) = 60.66150 60.66150 81.64423
#
# Poissons Ratio (x) = 0.37002 0.27899
# Poissons Ratio (y) = 0.37002 0.27899
# Poissons Ratio (z) = 0.20729 0.20729
#
# Static dielectric constant tensor:
#      x y z
#    x 1.648450 0.000000 0.000000 
#    y 0.000000 1.648450 0.000000 
#    z 0.000000 0.000000 1.651800 
# 
# From -- ./inp_files/10263.got.cif
#   From: 2010.05.17/outbox.cif.g08.bks.cpg/sg180_6_cif.got.tgz:10263.got - 2010.05.20 11:43:55.
