data_PCOD9583044
_publ_section_title
;
Structure prediction by ZEFSAII (Michael W. Deem and Ramdas Pophale) SiO2 
 PCOD9583044
Probable space group: P 61 2 2
;
_chemical_formula_sum "Si O2"
_cell_formula_units_Z 54
_cell_length_a 23.267524
_cell_length_b 23.267524
_cell_length_c 5.377081
_cell_angle_alpha 90.000000
_cell_angle_beta 90.000000
_cell_angle_gamma 120.000000
_cell_volume 2521.027317
_symmetry_space_group_name_H-M "P 61 2 2"
_symmetry_group_IT_number 178
_symmetry_cell_setting 'hexagonal'
loop_
_space_group_symop_operation_xyz
x,y,z
x-y,x,1/6+z
-y,x-y,1/3+z
-x,-y,1/2+z
-x+y,-x,2/3+z
y,-x+y,5/6+z
x-y,-y,-z
-x,-x+y,2/3-z
y,x,1/3-z
-y,-x,5/6-z
-x+y,y,1/2-z
x,x-y,1/6-z
loop_
_atom_site_type_symbol
_atom_site_label
_atom_site_fract_x
_atom_site_fract_y
_atom_site_fract_z
Si Si1 0.520170 0.040339 0.750000
Si Si2 0.690161 0.845081 0.083334
Si Si3 0.870296 0.000000 0.500000
Si Si4 0.198107 0.801893 0.916667
Si Si5 0.384862 0.615139 0.416667
Si Si6 0.203854 0.203854 0.666667
Si Si7 0.659360 0.150886 0.589427
Si Si8 0.269620 0.730381 0.416667
O O1 0.598620 0.082042 0.679980
O O2 0.486912 0.000000 0.500000
O O3 0.647260 0.831796 0.334461
O O4 0.731597 0.806822 0.154930
O O5 0.879181 0.939591 0.583334
O O6 0.828253 0.992931 0.255152
O O7 0.163181 0.720995 0.920452
O O8 0.437112 0.621120 0.622031
O O9 0.312729 0.585789 0.528616
O O10 0.697992 0.194966 0.827583
#
# Coordination Sequence:
#
# PCOD9583044 Si02
#       8
#     6   6   6   6   6   6  12   6
#     4  12  29  52  78 104 155 212 266 322 380 479
#     4  12  27  50  81 104 152 196 260 318 386 448
#     4  12  22  39  72 112 160 190 227 288 372 462
#     4  12  28  50  77 108 151 195 254 334 372 462
#     4  12  23  41  71 112 150 193 224 312 392 485
#     4  12  24  49  76 110 142 202 251 320 376 448
#     4  12  26  46  76 107 151 195 254 314 400 450
#     4  12  23  41  71 112 154 184 234 314 386 476
#
# _framework density 21.419840000000001
#
# number of rings (size 3 to 8) (size 9 to 14) (size 15 to 20)
#    0.000    0.000    6.667    2.667    0.000    5.333 
#    6.000    0.000    0.000    0.000    0.000    0.000 
#    0.000    0.000    0.000    0.000    0.000    0.000 
#
# Total GULP energy -301223.401442 kJ/mol
# GULP energy per Si atom -5578.211138 kJ/mol
# Density = 2.137109 g / cm^3
# Si number density = 21.419840 Si / 1000 Ang^3
#
#
#
# Elastic Constant Matrix: (Units=GPa)
#
#
# Indices 1 2 3 4 5 6 
#
# 1 479.3025 -319.4181 50.2236 0.0000 0.0000 0.0000
# 2 -319.4181 479.3025 50.2236 0.0000 0.0000 0.0000
# 3 50.2236 50.2236 164.2519 0.0000 0.0000 0.0000
# 4 0.0000 0.0000 0.0000 49.6779 0.0000 0.0000
# 5 0.0000 0.0000 0.0000 0.0000 49.6779 0.0000
# 6 0.0000 0.0000 0.0000 0.0000 0.0000 399.3603
#
#
#
# Elastic Compliance Matrix: (Units=1/GPa)
#
#
# Indices 1 2 3 4 5 6 
#
# 1 0.004497 0.003245 -0.002367 0.000000 0.000000 0.000000
# 2 0.003245 0.004497 -0.002367 0.000000 0.000000 0.000000
# 3 -0.002367 -0.002367 0.007536 0.000000 0.000000 0.000000
# 4 0.000000 0.000000 0.000000 0.020130 0.000000 0.000000
# 5 0.000000 0.000000 0.000000 0.000000 0.020130 0.000000
# 6 0.000000 0.000000 0.000000 0.000000 0.000000 0.002504
#
#
# Mechanical properties :
#
#
# Convention : Reuss Voigt Hill
#
# Bulk Modulus (GPa) = 73.79812 76.10169 74.94991
# Shear Modulus (GPa) = 74.86283 189.19841 132.03062
#
# Velocity S-wave (km/s) = 5.91829 9.40852 7.85959
# Velocity P-wave (km/s) = 9.01274 12.39487 10.83656
#
# Compressibility (1/GPa) = 0.01355048
#
# Stress axis : x y z
#
# Youngs Moduli (GPa) = 222.37776 222.37776 132.69900
#
# Poissons Ratio (x) = -0.72158 0.31412
# Poissons Ratio (y) = -0.72158 0.31412
# Poissons Ratio (z) = 0.52641 0.52641
#
# Static dielectric constant tensor:
#      x y z
#    x 1.845330 0.000000 0.000000 
#    y 0.000000 1.845330 0.000000 
#    z 0.000000 0.000000 1.786450 
# 
# From -- ./inp_files/1306.got.cif
#   From: 2010.05.17/outbox.cif.g08.bks.cpg/sg178_1_cif.got.tgz:1306.got - 2010.05.20 11:30:59.
