data_PCOD9583090
_publ_section_title
;
Structure prediction by ZEFSAII (Michael W. Deem and Ramdas Pophale) SiO2 
 PCOD9583090
Probable space group: P 61 2 2
;
_chemical_formula_sum "Si O2"
_cell_formula_units_Z 72
_cell_length_a 15.000000
_cell_length_b 15.000000
_cell_length_c 18.000000
_cell_angle_alpha 90.000000
_cell_angle_beta 90.000000
_cell_angle_gamma 120.000000
_cell_volume 3507.402885
_symmetry_space_group_name_H-M "P 61 2 2"
_symmetry_group_IT_number 178
_symmetry_cell_setting 'hexagonal'
loop_
_space_group_symop_operation_xyz
x,y,z
x-y,x,1/6+z
-y,x-y,1/3+z
-x,-y,1/2+z
-x+y,-x,2/3+z
y,-x+y,5/6+z
x-y,-y,-z
-x,-x+y,2/3-z
y,x,1/3-z
-y,-x,5/6-z
-x+y,y,1/2-z
x,x-y,1/6-z
loop_
_atom_site_type_symbol
_atom_site_label
_atom_site_fract_x
_atom_site_fract_y
_atom_site_fract_z
Si Si1 0.778774 0.888211 0.206405
Si Si2 0.441142 0.720571 0.583334
Si Si3 0.668064 0.052841 0.581013
Si Si4 0.388358 0.194179 0.583334
Si Si5 0.102135 0.282063 0.034673
Si Si6 0.413665 0.874829 0.484321
Si Si7 0.109543 0.461936 0.127767
O O1 0.850909 0.850909 0.166667
O O2 0.687697 0.868491 0.150375
O O3 0.726874 0.822184 0.279363
O O4 0.835855 0.008298 0.227950
O O5 0.392373 0.789661 0.549630
O O6 0.504278 0.712936 0.513713
O O7 0.783978 0.095379 0.606862
O O8 0.628865 0.133818 0.569284
O O9 0.654331 0.000000 0.500000
O O10 0.592151 0.979297 0.644263
O O11 0.460686 0.309116 0.611300
O O12 0.091038 0.374514 0.068595
O O13 0.472250 0.000000 0.500000
O O14 0.114750 0.557375 0.083334
#
# Coordination Sequence:
#
# PCOD9583090 Si02
#       7
#    12   6  12   6  12  12  12
#     4  12  26  48  74 102 146 191 243 303 370 433
#     4  12  24  46  72 103 151 182 240 306 360 426
#     4  11  23  46  74 103 146 188 241 293 376 435
#     4  12  28  46  74  97 147 202 244 284 368 434
#     4  12  25  45  73 107 139 187 241 303 363 440
#     4  11  25  45  74 105 143 193 239 297 361 432
#     4  12  26  42  74 105 143 192 239 301 362 436
#
# _framework density 20.528009999999998
#
# number of rings (size 3 to 8) (size 9 to 14) (size 15 to 20)
#    0.000    0.333    8.333    0.500    5.833    0.000 
#    0.000    2.500    1.833    0.000    0.000    0.000 
#    0.000    0.000    0.000    0.000    0.000    0.000 
#
# Total GULP energy -401382.936061 kJ/mol
# GULP energy per Si atom -5574.763001 kJ/mol
# Density = 2.048129 g / cm^3
# Si number density = 20.528010 Si / 1000 Ang^3
#
#
#
# Elastic Constant Matrix: (Units=GPa)
#
#
# Indices 1 2 3 4 5 6 
#
# 1 117.9648 68.6229 44.1247 0.0000 0.0000 0.0000
# 2 68.6229 117.9648 44.1247 0.0000 0.0000 0.0000
# 3 44.1247 44.1247 111.2910 0.0000 0.0000 0.0000
# 4 0.0000 0.0000 0.0000 38.6067 0.0000 0.0000
# 5 0.0000 0.0000 0.0000 0.0000 38.6067 0.0000
# 6 0.0000 0.0000 0.0000 0.0000 0.0000 24.6710
#
#
#
# Elastic Compliance Matrix: (Units=1/GPa)
#
#
# Indices 1 2 3 4 5 6 
#
# 1 0.013432 -0.006835 -0.002615 0.000000 0.000000 0.000000
# 2 -0.006835 0.013432 -0.002615 0.000000 0.000000 0.000000
# 3 -0.002615 -0.002615 0.011059 0.000000 0.000000 0.000000
# 4 0.000000 0.000000 0.000000 0.025902 0.000000 0.000000
# 5 0.000000 0.000000 0.000000 0.000000 0.025902 0.000000
# 6 0.000000 0.000000 0.000000 0.000000 0.000000 0.040533
#
#
# Mechanical properties :
#
#
# Convention : Reuss Voigt Hill
#
# Bulk Modulus (GPa) = 72.51253 73.44059 72.97656
# Shear Modulus (GPa) = 31.44871 33.06675 32.25773
#
# Velocity S-wave (km/s) = 3.91831 4.01785 3.96839
# Velocity P-wave (km/s) = 7.47471 7.57480 7.52492
#
# Compressibility (1/GPa) = 0.01379072
#
# Stress axis : x y z
#
# Youngs Moduli (GPa) = 74.45154 74.45154 90.42153
#
# Poissons Ratio (x) = 0.50889 0.23648
# Poissons Ratio (y) = 0.50889 0.23648
# Poissons Ratio (z) = 0.19472 0.19472
#
# Static dielectric constant tensor:
#      x y z
#    x 1.794720 0.000000 0.000000 
#    y 0.000000 1.794720 0.000000 
#    z 0.000000 0.000000 2.355340 
# 
# From -- ./inp_files/6840.got.cif
#   From: 2010.05.17/outbox.ucp.g08.bks.cvg/sg178_4_cif.got.tgz:6840.got - 2010.06.11 15:19:19.
