data_PCOD9583071
_publ_section_title
;
Structure prediction by ZEFSAII (Michael W. Deem and Ramdas Pophale) SiO2 
 PCOD9583071
Probable space group: P 61 2 2
;
_chemical_formula_sum "Si O2"
_cell_formula_units_Z 36
_cell_length_a 11.164554
_cell_length_b 11.164554
_cell_length_c 13.336244
_cell_angle_alpha 90.000000
_cell_angle_beta 90.000000
_cell_angle_gamma 120.000000
_cell_volume 1439.616852
_symmetry_space_group_name_H-M "P 61 2 2"
_symmetry_group_IT_number 178
_symmetry_cell_setting 'hexagonal'
loop_
_space_group_symop_operation_xyz
x,y,z
x-y,x,1/6+z
-y,x-y,1/3+z
-x,-y,1/2+z
-x+y,-x,2/3+z
y,-x+y,5/6+z
x-y,-y,-z
-x,-x+y,2/3-z
y,x,1/3-z
-y,-x,5/6-z
-x+y,y,1/2-z
x,x-y,1/6-z
loop_
_atom_site_type_symbol
_atom_site_label
_atom_site_fract_x
_atom_site_fract_y
_atom_site_fract_z
Si Si1 0.528635 0.382476 0.529870
Si Si2 0.860360 0.612667 0.852542
Si Si3 0.218621 0.208131 0.839535
O O1 0.579340 0.420661 0.416667
O O2 0.586102 0.293051 0.583334
O O3 0.609376 0.524410 0.589409
O O4 0.363385 0.293034 0.538596
O O5 0.777763 0.555525 0.750000
O O6 0.778949 0.654546 0.928440
O O7 0.000000 0.757989 0.833334
O O8 0.187154 0.091700 0.752097
#
# Coordination Sequence:
#
# PCOD9583071 Si02
#       3
#    12  12  12
#     4  12  28  52  82 126 170 227 285 363 439 518
#     4  12  25  49  86 122 170 224 292 346 434 516
#     4  12  28  57  84 130 177 236 290 363 444 530
#
# _framework density 25.006653
#
# number of rings (size 3 to 8) (size 9 to 14) (size 15 to 20)
#    0.000    0.000    6.667    1.000    4.667    4.000 
#   12.000    0.000    0.000    0.000    0.000    0.000 
#    0.000    0.000    0.000    0.000    0.000    0.000 
#
# Total GULP energy -201049.478284 kJ/mol
# GULP energy per Si atom -5584.707730 kJ/mol
# Density = 2.494974 g / cm^3
# Si number density = 25.006653 Si / 1000 Ang^3
#
#
#
# Elastic Constant Matrix: (Units=GPa)
#
#
# Indices 1 2 3 4 5 6 
#
# 1 101.6024 48.8252 78.2237 0.0000 0.0000 0.0000
# 2 48.8252 101.6024 78.2237 0.0000 0.0000 0.0000
# 3 78.2237 78.2237 200.1202 0.0000 0.0000 0.0000
# 4 0.0000 0.0000 0.0000 53.3635 0.0000 0.0000
# 5 0.0000 0.0000 0.0000 0.0000 53.3635 0.0000
# 6 0.0000 0.0000 0.0000 0.0000 0.0000 26.3886
#
#
#
# Elastic Compliance Matrix: (Units=1/GPa)
#
#
# Indices 1 2 3 4 5 6 
#
# 1 0.015074 -0.003873 -0.004378 0.000000 0.000000 0.000000
# 2 -0.003873 0.015074 -0.004378 0.000000 0.000000 0.000000
# 3 -0.004378 -0.004378 0.008420 0.000000 0.000000 0.000000
# 4 0.000000 0.000000 0.000000 0.018739 0.000000 0.000000
# 5 0.000000 0.000000 0.000000 0.000000 0.018739 0.000000
# 6 0.000000 0.000000 0.000000 0.000000 0.000000 0.037895
#
#
# Mechanical properties :
#
#
# Convention : Reuss Voigt Hill
#
# Bulk Modulus (GPa) = 75.13759 90.43000 82.78379
# Shear Modulus (GPa) = 34.80949 39.82661 37.31805
#
# Velocity S-wave (km/s) = 3.73501 3.99512 3.86725
# Velocity P-wave (km/s) = 6.97945 7.58434 7.28817
#
# Compressibility (1/GPa) = 0.01330892
#
# Stress axis : x y z
#
# Youngs Moduli (GPa) = 66.33737 66.33737 118.76623
#
# Poissons Ratio (x) = 0.25693 0.52001
# Poissons Ratio (y) = 0.25693 0.52001
# Poissons Ratio (z) = 0.29045 0.29045
#
# Static dielectric constant tensor:
#      x y z
#    x 2.049160 0.000000 0.000000 
#    y 0.000000 2.049160 0.000000 
#    z 0.000000 0.000000 2.044950 
# 
# From -- ./inp_files/5076.got.cif
#   From: 2010.05.17/outbox.cif.g08.bks.cpg/sg178_3_cif.got.tgz:5076.got - 2010.05.20 11:30:59.
