data_PCOD9583799
_publ_section_title
;
Structure prediction by ZEFSAII (Michael W. Deem and Ramdas Pophale) SiO2 
 PCOD9583799
Probable space group: P 62 2 2
;
_chemical_formula_sum "Si O2"
_cell_formula_units_Z 48
_cell_length_a 18.165802
_cell_length_b 18.165802
_cell_length_c 8.303982
_cell_angle_alpha 90.000000
_cell_angle_beta 90.000000
_cell_angle_gamma 120.000000
_cell_volume 2373.155430
_symmetry_space_group_name_H-M "P 62 2 2"
_symmetry_group_IT_number 180
_symmetry_cell_setting 'hexagonal'
loop_
_space_group_symop_operation_xyz
x,y,z
x-y,x,1/3+z
-y,x-y,2/3+z
-x,-y,z
-x+y,-x,1/3+z
y,-x+y,2/3+z
x-y,-y,-z
-x,-x+y,1/3-z
y,x,2/3-z
-y,-x,2/3-z
-x+y,y,-z
x,x-y,1/3-z
loop_
_atom_site_type_symbol
_atom_site_label
_atom_site_fract_x
_atom_site_fract_y
_atom_site_fract_z
Si Si1 0.500000 0.000000 0.238963
Si Si2 0.578170 0.421831 0.333334
Si Si3 0.236723 0.459909 0.192852
Si Si4 0.695084 0.916139 0.056213
Si Si5 0.332798 0.951251 0.639343
O O1 0.421613 0.988464 0.340670
O O2 0.529911 0.087059 0.141251
O O3 0.677124 0.466007 0.278569
O O4 0.232100 0.372013 0.251414
O O5 0.146829 0.445787 0.259655
O O6 0.235011 0.470021 0.000000
O O7 0.714933 0.857467 0.166667
O O8 0.651207 0.949146 0.183072
O O9 0.777309 0.000000 0.000000
O O10 0.311162 0.000000 0.500000
#
# Coordination Sequence:
#
# PCOD9583799 Si02
#       5
#     6   6  12  12  12
#     4  11  21  36  64  88 122 174 220 264 330 410
#     4  11  22  38  66  92 126 170 218 278 350 386
#     4  11  23  40  65  92 128 172 227 284 330 398
#     4  10  20  37  61  91 130 163 211 268 326 383
#     4  11  22  37  64  89 121 165 226 272 323 395
#
# _framework density 20.226237000000001
#
# number of rings (size 3 to 8) (size 9 to 14) (size 15 to 20)
#    0.000    1.250    2.500    4.875    0.000    0.000 
#    0.000    0.000   24.750    0.000    0.000    0.000 
#    0.000  117.000    0.000    0.000    0.000    0.000 
#
# Total GULP energy -267436.843756 kJ/mol
# GULP energy per Si atom -5571.600912 kJ/mol
# Density = 2.018020 g / cm^3
# Si number density = 20.226237 Si / 1000 Ang^3
#
#
#
# Elastic Constant Matrix: (Units=GPa)
#
#
# Indices 1 2 3 4 5 6 
#
# 1 85.7293 53.6230 28.3039 0.0000 0.0000 0.0000
# 2 53.6230 85.7293 28.3039 0.0000 0.0000 0.0000
# 3 28.3039 28.3039 99.8963 0.0000 0.0000 0.0000
# 4 0.0000 0.0000 0.0000 100.7387 0.0000 0.0000
# 5 0.0000 0.0000 0.0000 0.0000 100.7387 0.0000
# 6 0.0000 0.0000 0.0000 0.0000 0.0000 16.0531
#
#
#
# Elastic Compliance Matrix: (Units=1/GPa)
#
#
# Indices 1 2 3 4 5 6 
#
# 1 0.019628 -0.011519 -0.002298 0.000000 0.000000 0.000000
# 2 -0.011519 0.019628 -0.002298 0.000000 0.000000 0.000000
# 3 -0.002298 -0.002298 0.011312 0.000000 0.000000 0.000000
# 4 0.000000 0.000000 0.000000 0.009927 0.000000 0.000000
# 5 0.000000 0.000000 0.000000 0.000000 0.009927 0.000000
# 6 0.000000 0.000000 0.000000 0.000000 0.000000 0.062293
#
#
# Mechanical properties :
#
#
# Convention : Reuss Voigt Hill
#
# Bulk Modulus (GPa) = 54.52396 54.64629 54.58512
# Shear Modulus (GPa) = 29.23016 54.24769 41.73892
#
# Velocity S-wave (km/s) = 3.80565 5.18447 4.54762
# Velocity P-wave (km/s) = 6.80634 7.93186 7.39056
#
# Compressibility (1/GPa) = 0.01834056
#
# Stress axis : x y z
#
# Youngs Moduli (GPa) = 50.94764 50.94764 88.39867
#
# Poissons Ratio (x) = 0.58684 0.20311
# Poissons Ratio (y) = 0.58684 0.20311
# Poissons Ratio (z) = 0.11706 0.11706
#
# Static dielectric constant tensor:
#      x y z
#    x 1.763790 0.000000 0.000000 
#    y 0.000000 1.763790 0.000000 
#    z 0.000000 0.000000 1.908300 
# 
# From -- ./inp_files/2695.got.cif
#   From: 2010.05.17/outbox.cif.g08.bks.cpg/sg180_2_cif.got.tgz:2695.got - 2010.05.20 11:43:55.
