data_PCOD9583347
_publ_section_title
;
Structure prediction by ZEFSAII (Michael W. Deem and Ramdas Pophale) SiO2 
 PCOD9583347
Probable space group: P 65 2 2
;
_chemical_formula_sum "Si O2"
_cell_formula_units_Z 36
_cell_length_a 7.968023
_cell_length_b 7.968023
_cell_length_c 26.000047
_cell_angle_alpha 90.000000
_cell_angle_beta 90.000000
_cell_angle_gamma 120.000000
_cell_volume 1429.571636
_symmetry_space_group_name_H-M "P 65 2 2"
_symmetry_group_IT_number 179
_symmetry_cell_setting 'hexagonal'
loop_
_space_group_symop_operation_xyz
x,y,z
x-y,x,5/6+z
-y,x-y,2/3+z
-x,-y,1/2+z
-x+y,-x,1/3+z
y,-x+y,1/6+z
x-y,-y,-z
-x,-x+y,1/3-z
y,x,2/3-z
-y,-x,1/6-z
-x+y,y,1/2-z
x,x-y,5/6-z
loop_
_atom_site_type_symbol
_atom_site_label
_atom_site_fract_x
_atom_site_fract_y
_atom_site_fract_z
Si Si1 0.214369 0.028877 0.688178
Si Si2 0.592916 0.729139 0.284745
Si Si3 0.434198 0.606626 0.184053
O O1 0.253770 0.106278 0.746686
O O2 0.361484 0.234636 0.660635
O O3 0.298930 0.885558 0.679278
O O4 0.000000 0.927433 0.666667
O O5 0.684466 0.684466 0.333334
O O6 0.486944 0.558923 0.240859
O O7 0.404238 0.732322 0.305791
#
# Coordination Sequence:
#
# PCOD9583347 Si02
#       3
#    12  12  12
#     4  10  21  45  83 121 168 230 293 352 456 544
#     4   9  20  45  80 118 165 225 287 374 444 519
#     4   9  21  44  80 120 166 227 291 361 448 540
#
# _framework density 25.182369000000001
#
# number of rings (size 3 to 8) (size 9 to 14) (size 15 to 20)
#    2.000    0.667    0.000    1.000    0.000    0.000 
#    0.000   30.000    0.000    0.000    0.000    0.000 
#    0.000    0.000    0.000    0.000    0.000    0.000 
#
# Total GULP energy -200742.833823 kJ/mol
# GULP energy per Si atom -5576.189828 kJ/mol
# Density = 2.512505 g / cm^3
# Si number density = 25.182369 Si / 1000 Ang^3
#
#
#
# Elastic Constant Matrix: (Units=GPa)
#
#
# Indices 1 2 3 4 5 6 
#
# 1 186.6422 98.7953 92.6979 0.0000 0.0000 0.0000
# 2 98.7953 186.6422 92.6979 0.0000 0.0000 0.0000
# 3 92.6979 92.6979 146.7847 0.0000 0.0000 0.0000
# 4 0.0000 0.0000 0.0000 49.8658 0.0000 0.0000
# 5 0.0000 0.0000 0.0000 0.0000 49.8658 0.0000
# 6 0.0000 0.0000 0.0000 0.0000 0.0000 43.9234
#
#
#
# Elastic Compliance Matrix: (Units=1/GPa)
#
#
# Indices 1 2 3 4 5 6 
#
# 1 0.008662 -0.002722 -0.003751 0.000000 0.000000 0.000000
# 2 -0.002722 0.008662 -0.003751 0.000000 0.000000 0.000000
# 3 -0.003751 -0.003751 0.011551 0.000000 0.000000 0.000000
# 4 0.000000 0.000000 0.000000 0.020054 0.000000 0.000000
# 5 0.000000 0.000000 0.000000 0.000000 0.020054 0.000000
# 6 0.000000 0.000000 0.000000 0.000000 0.000000 0.022767
#
#
# Mechanical properties :
#
#
# Convention : Reuss Voigt Hill
#
# Bulk Modulus (GPa) = 118.68509 120.93901 119.81205
# Shear Modulus (GPa) = 43.47638 44.45621 43.96629
#
# Velocity S-wave (km/s) = 4.15958 4.20619 4.18295
# Velocity P-wave (km/s) = 8.38463 8.46870 8.42677
#
# Compressibility (1/GPa) = 0.00842566
#
# Stress axis : x y z
#
# Youngs Moduli (GPa) = 115.45184 115.45184 86.57612
#
# Poissons Ratio (x) = 0.31424 0.32476
# Poissons Ratio (y) = 0.31424 0.32476
# Poissons Ratio (z) = 0.43307 0.43307
#
# Static dielectric constant tensor:
#      x y z
#    x 2.074980 0.000000 0.000000 
#    y 0.000000 2.074980 0.000000 
#    z 0.000000 0.000000 2.012600 
# 
# From -- ./inp_files/8577.got.cif
#   From: 2010.05.17/outbox.cif.g08.bks.cpg/sg179_5_cif.got.tgz:8577.got - 2010.05.20 11:37:33.
