data_PCOD9583343
_publ_section_title
;
Structure prediction by ZEFSAII (Michael W. Deem and Ramdas Pophale) SiO2 
 PCOD9583343
Probable space group: P 65 2 2
;
_chemical_formula_sum "Si O2"
_cell_formula_units_Z 42
_cell_length_a 8.237198
_cell_length_b 8.237198
_cell_length_c 31.332688
_cell_angle_alpha 90.000000
_cell_angle_beta 90.000000
_cell_angle_gamma 120.000000
_cell_volume 1841.142048
_symmetry_space_group_name_H-M "P 65 2 2"
_symmetry_group_IT_number 179
_symmetry_cell_setting 'hexagonal'
loop_
_space_group_symop_operation_xyz
x,y,z
x-y,x,5/6+z
-y,x-y,2/3+z
-x,-y,1/2+z
-x+y,-x,1/3+z
y,-x+y,1/6+z
x-y,-y,-z
-x,-x+y,1/3-z
y,x,2/3-z
-y,-x,1/6-z
-x+y,y,1/2-z
x,x-y,5/6-z
loop_
_atom_site_type_symbol
_atom_site_label
_atom_site_fract_x
_atom_site_fract_y
_atom_site_fract_z
Si Si1 0.273207 0.799668 0.941580
Si Si2 0.598506 0.000000 0.000000
Si Si3 0.134084 0.071074 0.626375
Si Si4 0.871306 0.511823 0.578410
O O1 0.227397 0.613699 0.916667
O O2 0.095767 0.808650 0.956628
O O3 0.417498 0.980578 0.913093
O O4 0.401181 0.830211 0.983076
O O5 0.632951 0.924144 0.043866
O O6 0.332931 0.074852 0.624810
O O7 0.000000 0.977577 0.666667
O O8 0.021509 0.978492 0.583334
O O9 0.661726 0.338275 0.583334
#
# Coordination Sequence:
#
# PCOD9583343 Si02
#       4
#    12   6  12  12
#     4  10  21  43  69  98 143 179 228 294 347 417
#     4   8  22  42  66 100 140 170 240 282 348 414
#     4  12  26  43  68 106 143 185 239 289 350 423
#     4  10  22  43  73  99 138 186 232 288 356 418
#
# _framework density 22.81193
#
# number of rings (size 3 to 8) (size 9 to 14) (size 15 to 20)
#    1.714    0.000    1.429    2.571    2.000    2.286 
#    0.000    0.000    0.000    0.000    0.000    0.000 
#    0.000    0.000    0.000    0.000    0.000    0.000 
#
# Total GULP energy -234113.305817 kJ/mol
# GULP energy per Si atom -5574.126329 kJ/mol
# Density = 2.276001 g / cm^3
# Si number density = 22.811930 Si / 1000 Ang^3
#
#
#
# Elastic Constant Matrix: (Units=GPa)
#
#
# Indices 1 2 3 4 5 6 
#
# 1 60.0631 11.0914 21.0546 0.0000 0.0000 0.0000
# 2 11.0914 60.0631 21.0546 0.0000 0.0000 0.0000
# 3 21.0546 21.0546 65.7922 0.0000 0.0000 0.0000
# 4 0.0000 0.0000 0.0000 22.8733 0.0000 0.0000
# 5 0.0000 0.0000 0.0000 0.0000 22.8733 0.0000
# 6 0.0000 0.0000 0.0000 0.0000 0.0000 24.4859
#
#
#
# Elastic Compliance Matrix: (Units=1/GPa)
#
#
# Indices 1 2 3 4 5 6 
#
# 1 0.018879 -0.001541 -0.005548 0.000000 0.000000 0.000000
# 2 -0.001541 0.018879 -0.005548 0.000000 0.000000 0.000000
# 3 -0.005548 -0.005548 0.018750 0.000000 0.000000 0.000000
# 4 0.000000 0.000000 0.000000 0.043719 0.000000 0.000000
# 5 0.000000 0.000000 0.000000 0.000000 0.043719 0.000000
# 6 0.000000 0.000000 0.000000 0.000000 0.000000 0.040840
#
#
# Mechanical properties :
#
#
# Convention : Reuss Voigt Hill
#
# Bulk Modulus (GPa) = 32.01826 32.47997 32.24912
# Shear Modulus (GPa) = 22.67861 22.89435 22.78648
#
# Velocity S-wave (km/s) = 3.15644 3.17142 3.16394
# Velocity P-wave (km/s) = 5.22976 5.26114 5.24548
#
# Compressibility (1/GPa) = 0.03123217
#
# Stress axis : x y z
#
# Youngs Moduli (GPa) = 52.96985 52.96985 53.33212
#
# Poissons Ratio (x) = 0.08164 0.29590
# Poissons Ratio (y) = 0.08164 0.29590
# Poissons Ratio (z) = 0.29389 0.29389
#
# Static dielectric constant tensor:
#      x y z
#    x 1.879030 0.000000 0.000000 
#    y 0.000000 1.879030 0.000000 
#    z 0.000000 0.000000 1.873930 
# 
# From -- ./inp_files/9310.got.cif
#   From: 2010.05.17/outbox.cif.g08.bks.cpg/sg179_5_cif.got.tgz:9310.got - 2010.05.20 11:37:33.
