data_PCOD9583493
_publ_section_title
;
Structure prediction by ZEFSAII (Michael W. Deem and Ramdas Pophale) SiO2 
 PCOD9583493
Probable space group: P 65 2 2
;
_chemical_formula_sum "Si O2"
_cell_formula_units_Z 96
_cell_length_a 15.403453
_cell_length_b 15.403453
_cell_length_c 24.250371
_cell_angle_alpha 90.000000
_cell_angle_beta 90.000000
_cell_angle_gamma 120.000000
_cell_volume 4982.934683
_symmetry_space_group_name_H-M "P 65 2 2"
_symmetry_group_IT_number 179
_symmetry_cell_setting 'hexagonal'
loop_
_space_group_symop_operation_xyz
x,y,z
x-y,x,5/6+z
-y,x-y,2/3+z
-x,-y,1/2+z
-x+y,-x,1/3+z
y,-x+y,1/6+z
x-y,-y,-z
-x,-x+y,1/3-z
y,x,2/3-z
-y,-x,1/6-z
-x+y,y,1/2-z
x,x-y,5/6-z
loop_
_atom_site_type_symbol
_atom_site_label
_atom_site_fract_x
_atom_site_fract_y
_atom_site_fract_z
Si Si1 0.636931 0.262275 0.643471
Si Si2 0.711514 0.908112 0.709945
Si Si3 0.443626 0.217558 0.777069
Si Si4 0.016548 0.601505 0.229809
Si Si5 0.553749 0.027975 0.865589
Si Si6 0.485190 0.854167 0.695637
Si Si7 0.308411 0.266374 0.142215
Si Si8 0.087790 0.302546 0.795006
O O1 0.694411 0.305590 0.583334
O O2 0.704097 0.253244 0.692197
O O3 0.586985 0.328988 0.661608
O O4 0.546507 0.147404 0.637867
O O5 0.592211 0.865641 0.708829
O O6 0.726426 0.818339 0.688882
O O7 0.745512 0.966042 0.768203
O O8 0.763265 0.990621 0.662010
O O9 0.441087 0.313158 0.753889
O O10 0.394998 0.128525 0.731452
O O11 0.364332 0.172144 0.826958
O O12 0.999780 0.491310 0.240022
O O13 0.000000 0.613225 0.166667
O O14 0.938065 0.620684 0.263781
O O15 0.450354 0.958516 0.832613
O O16 0.629830 0.996448 0.841661
O O17 0.426124 0.852248 0.750000
O O18 0.127877 0.255754 0.750000
#
# Coordination Sequence:
#
# PCOD9583493 Si02
#       8
#    12  12  12  12  12  12  12  12
#     4  11  23  37  57  83 125 172 229 269 331 384
#     4  11  21  39  57  91 124 171 218 264 332 390
#     4  11  21  36  57  85 120 174 212 260 315 394
#     4  12  22  35  55  84 126 167 222 255 320 400
#     4  12  22  38  57  80 120 171 221 272 334 370
#     4  11  21  36  56  87 121 169 225 281 309 398
#     4  11  23  38  63  87 125 170 216 269 331 399
#     4  11  20  34  55  83 123 166 205 249 325 389
#
# _framework density 19.265756
#
# number of rings (size 3 to 8) (size 9 to 14) (size 15 to 20)
#    0.000    0.750    7.500    1.875    0.000    0.000 
#    0.000    0.000    0.000    0.000    0.000    0.000 
#    0.000   10.000    0.000    0.000    0.000    0.000 
#
# Total GULP energy -535127.600561 kJ/mol
# GULP energy per Si atom -5574.245839 kJ/mol
# Density = 1.922191 g / cm^3
# Si number density = 19.265756 Si / 1000 Ang^3
#
#
#
# Elastic Constant Matrix: (Units=GPa)
#
#
# Indices 1 2 3 4 5 6 
#
# 1 59.4573 11.3941 21.3530 0.0000 0.0000 0.0000
# 2 11.3941 59.4573 21.3530 0.0000 0.0000 0.0000
# 3 21.3530 21.3530 50.8564 0.0000 0.0000 0.0000
# 4 0.0000 0.0000 0.0000 30.6479 0.0000 0.0000
# 5 0.0000 0.0000 0.0000 0.0000 30.6479 0.0000
# 6 0.0000 0.0000 0.0000 0.0000 0.0000 24.0316
#
#
#
# Elastic Compliance Matrix: (Units=1/GPa)
#
#
# Indices 1 2 3 4 5 6 
#
# 1 0.019851 -0.000955 -0.007934 0.000000 0.000000 0.000000
# 2 -0.000955 0.019851 -0.007934 0.000000 0.000000 0.000000
# 3 -0.007934 -0.007934 0.026326 0.000000 0.000000 0.000000
# 4 0.000000 0.000000 0.000000 0.032629 0.000000 0.000000
# 5 0.000000 0.000000 0.000000 0.000000 0.032629 0.000000
# 6 0.000000 0.000000 0.000000 0.000000 0.000000 0.041612
#
#
# Mechanical properties :
#
#
# Convention : Reuss Voigt Hill
#
# Bulk Modulus (GPa) = 30.88099 30.88569 30.88334
# Shear Modulus (GPa) = 23.00578 24.77688 23.89133
#
# Velocity S-wave (km/s) = 3.45936 3.59006 3.52532
# Velocity P-wave (km/s) = 5.65862 5.76636 5.71274
#
# Compressibility (1/GPa) = 0.03238238
#
# Stress axis : x y z
#
# Youngs Moduli (GPa) = 50.37503 50.37503 37.98574
#
# Poissons Ratio (x) = 0.04810 0.30138
# Poissons Ratio (y) = 0.04810 0.30138
# Poissons Ratio (z) = 0.39967 0.39967
#
# Static dielectric constant tensor:
#      x y z
#    x 1.699350 0.000000 0.000000 
#    y 0.000000 1.699350 0.000000 
#    z 0.000000 0.000000 1.754220 
# 
# From -- ./inp_files/9036.got.cif
#   From: 2010.05.17/outbox.cif.g08.bks.cpg/sg179_5_cif.got.tgz:9036.got - 2010.05.20 11:37:33.
