data_PCOD9583468
_publ_section_title
;
Structure prediction by ZEFSAII (Michael W. Deem and Ramdas Pophale) SiO2 
 PCOD9583468
Probable space group: P 65 2 2
;
_chemical_formula_sum "Si O2"
_cell_formula_units_Z 48
_cell_length_a 14.003148
_cell_length_b 14.003148
_cell_length_c 12.027769
_cell_angle_alpha 90.000000
_cell_angle_beta 90.000000
_cell_angle_gamma 120.000000
_cell_volume 2042.523529
_symmetry_space_group_name_H-M "P 65 2 2"
_symmetry_group_IT_number 179
_symmetry_cell_setting 'hexagonal'
loop_
_space_group_symop_operation_xyz
x,y,z
x-y,x,5/6+z
-y,x-y,2/3+z
-x,-y,1/2+z
-x+y,-x,1/3+z
y,-x+y,1/6+z
x-y,-y,-z
-x,-x+y,1/3-z
y,x,2/3-z
-y,-x,1/6-z
-x+y,y,1/2-z
x,x-y,5/6-z
loop_
_atom_site_type_symbol
_atom_site_label
_atom_site_fract_x
_atom_site_fract_y
_atom_site_fract_z
Si Si1 0.344554 0.172277 0.416667
Si Si2 0.587679 0.587679 0.333334
Si Si3 0.005968 0.833058 0.906182
Si Si4 0.635178 0.152957 0.932830
Si Si5 0.341846 0.170923 0.916667
Si Si6 0.302494 0.651247 0.916667
O O1 0.271060 0.200276 0.496948
O O2 0.414373 0.274616 0.334308
O O3 0.527297 0.483522 0.246030
O O4 0.606537 0.711051 0.351318
O O5 0.074349 0.930919 0.821501
O O6 0.085881 0.814854 0.986691
O O7 0.678696 0.221919 0.820381
O O8 0.623879 0.242305 0.010530
#
# Coordination Sequence:
#
# PCOD9583468 Si02
#       6
#     6   6  12  12   6   6
#     4  11  28  47  76 116 162 195 266 325 416 466
#     4  12  26  48  74 110 152 198 264 312 390 472
#     4  12  27  49  78 110 156 203 260 330 392 471
#     4  10  24  46  75 115 149 208 254 330 393 474
#     4  12  26  49  76 113 153 207 268 322 388 470
#     4   9  20  48  78 101 159 196 268 317 396 454
#
# _framework density 23.500342
#
# number of rings (size 3 to 8) (size 9 to 14) (size 15 to 20)
#    0.000    1.000    2.500    2.250    7.000    7.000 
#    0.000    0.000    0.000    0.000    0.000    0.000 
#    0.000    0.000    0.000    0.000    0.000    0.000 
#
# Total GULP energy -267544.435253 kJ/mol
# GULP energy per Si atom -5573.842401 kJ/mol
# Density = 2.344685 g / cm^3
# Si number density = 23.500342 Si / 1000 Ang^3
#
#
#
# Elastic Constant Matrix: (Units=GPa)
#
#
# Indices 1 2 3 4 5 6 
#
# 1 117.6759 11.3824 19.7163 0.0000 0.0000 0.0000
# 2 11.3824 117.6759 19.7163 0.0000 0.0000 0.0000
# 3 19.7163 19.7163 90.0413 0.0000 0.0000 0.0000
# 4 0.0000 0.0000 0.0000 3.2337 0.0000 0.0000
# 5 0.0000 0.0000 0.0000 0.0000 3.2337 0.0000
# 6 0.0000 0.0000 0.0000 0.0000 0.0000 53.1467
#
#
#
# Elastic Compliance Matrix: (Units=1/GPa)
#
#
# Indices 1 2 3 4 5 6 
#
# 1 0.008856 -0.000552 -0.001818 0.000000 0.000000 0.000000
# 2 -0.000552 0.008856 -0.001818 0.000000 0.000000 0.000000
# 3 -0.001818 -0.001818 0.011902 0.000000 0.000000 0.000000
# 4 0.000000 0.000000 0.000000 0.309244 0.000000 0.000000
# 5 0.000000 0.000000 0.000000 0.000000 0.309244 0.000000
# 6 0.000000 0.000000 0.000000 0.000000 0.000000 0.018816
#
#
# Mechanical properties :
#
#
# Convention : Reuss Voigt Hill
#
# Bulk Modulus (GPa) = 47.08754 47.44702 47.26728
# Shear Modulus (GPa) = 7.32735 30.22802 18.77769
#
# Velocity S-wave (km/s) = 1.76769 3.59037 2.82979
# Velocity P-wave (km/s) = 4.92410 6.11730 5.55285
#
# Compressibility (1/GPa) = 0.02123704
#
# Stress axis : x y z
#
# Youngs Moduli (GPa) = 112.91826 112.91826 84.01718
#
# Poissons Ratio (x) = 0.06233 0.15277
# Poissons Ratio (y) = 0.06233 0.15277
# Poissons Ratio (z) = 0.20532 0.20532
#
# Static dielectric constant tensor:
#      x y z
#    x 1.927960 0.000000 0.000000 
#    y 0.000000 1.927960 0.000000 
#    z 0.000000 0.000000 1.887850 
# 
# From -- ./inp_files/4399.got.cif
#   From: 2010.05.17/outbox.cif.g08.bks.cpg/sg179_3_cif.got.tgz:4399.got - 2010.05.20 11:37:33.
