data_PCOD9583313
_publ_section_title
;
Structure prediction by ZEFSAII (Michael W. Deem and Ramdas Pophale) SiO2 
 PCOD9583313
Probable space group: P 65 2 2
;
_chemical_formula_sum "Si O2"
_cell_formula_units_Z 96
_cell_length_a 14.441927
_cell_length_b 14.441927
_cell_length_c 25.939047
_cell_angle_alpha 90.000000
_cell_angle_beta 90.000000
_cell_angle_gamma 120.000000
_cell_volume 4685.273403
_symmetry_space_group_name_H-M "P 65 2 2"
_symmetry_group_IT_number 179
_symmetry_cell_setting 'hexagonal'
loop_
_space_group_symop_operation_xyz
x,y,z
x-y,x,5/6+z
-y,x-y,2/3+z
-x,-y,1/2+z
-x+y,-x,1/3+z
y,-x+y,1/6+z
x-y,-y,-z
-x,-x+y,1/3-z
y,x,2/3-z
-y,-x,1/6-z
-x+y,y,1/2-z
x,x-y,5/6-z
loop_
_atom_site_type_symbol
_atom_site_label
_atom_site_fract_x
_atom_site_fract_y
_atom_site_fract_z
Si Si1 0.788297 0.385924 0.112883
Si Si2 0.028600 0.338321 0.988690
Si Si3 0.365830 0.926057 0.219620
Si Si4 0.288741 0.518809 0.453479
Si Si5 0.918544 0.108334 0.022088
Si Si6 0.891468 0.440308 0.824989
Si Si7 0.283925 0.877556 0.488408
Si Si8 0.759334 0.257820 0.528615
O O1 0.673481 0.326520 0.083334
O O2 0.865751 0.455246 0.067701
O O3 0.808854 0.292633 0.132181
O O4 0.801703 0.447812 0.166136
O O5 0.028024 0.345541 0.927313
O O6 0.143985 0.433355 0.006960
O O7 0.013101 0.227704 0.010134
O O8 0.936578 0.367979 0.004243
O O9 0.450485 0.900969 0.250000
O O10 0.274563 0.832924 0.186895
O O11 0.439256 0.012387 0.178227
O O12 0.205858 0.558154 0.472287
O O13 0.278221 0.461555 0.398270
O O14 0.403285 0.625220 0.456614
O O15 0.902495 0.097506 0.083334
O O16 0.821503 0.113894 0.993999
O O17 0.910822 0.000000 0.000000
O O18 0.379956 0.000000 0.500000
O O19 0.780197 0.219804 0.583334
#
# Coordination Sequence:
#
# PCOD9583313 Si02
#       8
#    12  12  12  12  12  12  12  12
#     4  12  22  32  51  76 112 156 211 257 311 363
#     4  11  22  40  64  88 134 170 211 271 314 383
#     4  10  21  38  56  80 120 165 221 263 306 372
#     4  12  22  39  58  91 125 169 220 256 314 390
#     4  11  23  41  62  94 129 163 207 267 337 391
#     4  11  22  34  60  85 118 169 215 255 312 384
#     4  11  23  36  55  83 123 163 206 256 318 381
#     4  12  23  38  55  83 122 170 220 272 309 375
#
# _framework density 20.489732
#
# number of rings (size 3 to 8) (size 9 to 14) (size 15 to 20)
#    0.000    0.750    5.000    6.000    0.000    3.500 
#    0.000    0.000    0.000    0.000    0.000    3.500 
#    0.000    1.000    0.000    0.250    0.000    0.000 
#
# Total GULP energy -535154.668074 kJ/mol
# GULP energy per Si atom -5574.527792 kJ/mol
# Density = 2.044310 g / cm^3
# Si number density = 20.489732 Si / 1000 Ang^3
#
#
#
# Elastic Constant Matrix: (Units=GPa)
#
#
# Indices 1 2 3 4 5 6 
#
# 1 27.6782 9.3825 -5.6459 0.0000 0.0000 0.0000
# 2 9.3825 27.6782 -5.6459 0.0000 0.0000 0.0000
# 3 -5.6459 -5.6459 75.0637 0.0000 0.0000 0.0000
# 4 0.0000 0.0000 0.0000 24.1075 0.0000 0.0000
# 5 0.0000 0.0000 0.0000 0.0000 24.1075 0.0000
# 6 0.0000 0.0000 0.0000 0.0000 0.0000 9.1478
#
#
#
# Elastic Compliance Matrix: (Units=1/GPa)
#
#
# Indices 1 2 3 4 5 6 
#
# 1 0.041137 -0.013521 0.002077 0.000000 0.000000 0.000000
# 2 -0.013521 0.041137 0.002077 0.000000 0.000000 0.000000
# 3 0.002077 0.002077 0.013634 0.000000 0.000000 0.000000
# 4 0.000000 0.000000 0.000000 0.041481 0.000000 0.000000
# 5 0.000000 0.000000 0.000000 0.000000 0.041481 0.000000
# 6 0.000000 0.000000 0.000000 0.000000 0.000000 0.109316
#
#
# Mechanical properties :
#
#
# Convention : Reuss Voigt Hill
#
# Bulk Modulus (GPa) = 12.95770 14.06682 13.51226
# Shear Modulus (GPa) = 15.03110 20.29453 17.66281
#
# Velocity S-wave (km/s) = 2.71143 3.15059 2.93922
# Velocity P-wave (km/s) = 4.01748 4.48500 4.25766
#
# Compressibility (1/GPa) = 0.07717421
#
# Stress axis : x y z
#
# Youngs Moduli (GPa) = 24.30917 24.30917 73.34348
#
# Poissons Ratio (x) = 0.32869 -0.15234
# Poissons Ratio (y) = 0.32869 -0.15234
# Poissons Ratio (z) = -0.05049 -0.05049
#
# Static dielectric constant tensor:
#      x y z
#    x 1.852130 0.000000 0.000000 
#    y 0.000000 1.852130 0.000000 
#    z 0.000000 0.000000 1.795960 
# 
# From -- ./inp_files/9035.got.cif
#   From: 2010.05.17/outbox.cif.g08.bks.cpg/sg179_5_cif.got.tgz:9035.got - 2010.05.20 11:37:33.
