data_PCOD9583633
_publ_section_title
;
Structure prediction by ZEFSAII (Michael W. Deem and Ramdas Pophale) SiO2 
 PCOD9583633
Probable space group: P 62 2 2
;
_chemical_formula_sum "Si O2"
_cell_formula_units_Z 42
_cell_length_a 11.413360
_cell_length_b 11.413360
_cell_length_c 17.621730
_cell_angle_alpha 90.000000
_cell_angle_beta 90.000000
_cell_angle_gamma 120.000000
_cell_volume 1987.953430
_symmetry_space_group_name_H-M "P 62 2 2"
_symmetry_group_IT_number 180
_symmetry_cell_setting 'hexagonal'
loop_
_space_group_symop_operation_xyz
x,y,z
x-y,x,1/3+z
-y,x-y,2/3+z
-x,-y,z
-x+y,-x,1/3+z
y,-x+y,2/3+z
x-y,-y,-z
-x,-x+y,1/3-z
y,x,2/3-z
-y,-x,2/3-z
-x+y,y,-z
x,x-y,1/3-z
loop_
_atom_site_type_symbol
_atom_site_label
_atom_site_fract_x
_atom_site_fract_y
_atom_site_fract_z
Si Si1 0.340287 0.414622 0.634985
Si Si2 0.264253 0.735748 0.833334
Si Si3 0.100942 0.899059 0.333334
Si Si4 0.819287 0.819287 0.833334
Si Si5 0.515497 0.722610 0.871731
O O1 0.500000 0.500000 0.623675
O O2 0.264139 0.435487 0.565915
O O3 0.291814 0.259043 0.648440
O O4 0.303502 0.474171 0.707504
O O5 0.420733 0.787566 0.856746
O O6 0.027753 0.892574 0.250515
O O7 0.668093 0.798645 0.841721
O O8 0.424362 0.575638 0.833334
#
# Coordination Sequence:
#
# PCOD9583633 Si02
#       5
#    12   6   6   6  12
#     4  11  21  35  57  91 127 169 213 268 333 412
#     4  10  22  33  56  89 134 164 200 268 346 402
#     4  10  22  34  62  85 126 162 221 274 318 392
#     4  10  17  34  54  93 122 162 214 269 326 399
#     4   9  18  29  55  90 127 165 198 257 334 412
#
# _framework density 21.127254000000001
#
# number of rings (size 3 to 8) (size 9 to 14) (size 15 to 20)
#    0.857    1.143    0.000    6.429    4.000    0.000 
#    0.000    0.000    0.000   26.571    0.000    0.000 
#    0.000    0.000    0.000    0.000    0.000    0.000 
#
# Total GULP energy -233965.842816 kJ/mol
# GULP energy per Si atom -5570.615305 kJ/mol
# Density = 2.107917 g / cm^3
# Si number density = 21.127254 Si / 1000 Ang^3
#
#
#
# Elastic Constant Matrix: (Units=GPa)
#
#
# Indices 1 2 3 4 5 6 
#
# 1 16.1875 119.0146 53.5588 0.0000 0.0000 0.0000
# 2 119.0146 16.1875 53.5588 0.0000 0.0000 0.0000
# 3 53.5588 53.5588 205.1527 0.0000 0.0000 0.0000
# 4 0.0000 0.0000 0.0000 85.8659 0.0000 0.0000
# 5 0.0000 0.0000 0.0000 0.0000 85.8659 0.0000
# 6 0.0000 0.0000 0.0000 0.0000 0.0000 -51.4136
#
#
#
# Elastic Compliance Matrix: (Units=1/GPa)
#
#
# Indices 1 2 3 4 5 6 
#
# 1 -0.000200 0.009525 -0.002434 0.000000 0.000000 0.000000
# 2 0.009525 -0.000200 -0.002434 0.000000 0.000000 0.000000
# 3 -0.002434 -0.002434 0.006146 0.000000 0.000000 0.000000
# 4 0.000000 0.000000 0.000000 0.011646 0.000000 0.000000
# 5 0.000000 0.000000 0.000000 0.000000 0.011646 0.000000
# 6 0.000000 0.000000 0.000000 0.000000 0.000000 -0.019450
#
#
# Mechanical properties :
#
#
# Convention : Reuss Voigt Hill
#
# Bulk Modulus (GPa) = 66.41059 76.64359 71.52709
# Shear Modulus (GPa) = 944.33792 24.82333 484.58062
#
# Velocity S-wave (km/s) = 21.16475 3.43146 15.16116
# Velocity P-wave (km/s) = 25.07516 7.21497 18.45020
#
# Compressibility (1/GPa) = 0.01505784
#
# Stress axis : x y z
#
# Youngs Moduli (GPa) = -5000.88834 -5000.88847 162.71917
#
# Poissons Ratio (x) = 47.63394 0.39614
# Poissons Ratio (y) = 47.63394 0.39614
# Poissons Ratio (z) = -12.17464 -12.17464
#
# Static dielectric constant tensor:
#      x y z
#    x 1.718860 0.000000 0.000000 
#    y 0.000000 1.718860 0.000000 
#    z 0.000000 0.000000 1.644460 
# 
# From -- ./inp_files/7215.got.cif
#   From: 2010.05.17/outbox.cif.g08.bks.cpg/sg180_4_cif.got.tgz:7215.got - 2010.05.20 11:43:55.
