data_PCOD9583826
_publ_section_title
;
Structure prediction by ZEFSAII (Michael W. Deem and Ramdas Pophale) SiO2 
 PCOD9583826
Probable space group: P 62 2 2
;
_chemical_formula_sum "Si O2"
_cell_formula_units_Z 33
_cell_length_a 8.003453
_cell_length_b 8.003453
_cell_length_c 28.927571
_cell_angle_alpha 90.000000
_cell_angle_beta 90.000000
_cell_angle_gamma 120.000000
_cell_volume 1604.713099
_symmetry_space_group_name_H-M "P 62 2 2"
_symmetry_group_IT_number 180
_symmetry_cell_setting 'hexagonal'
loop_
_space_group_symop_operation_xyz
x,y,z
x-y,x,1/3+z
-y,x-y,2/3+z
-x,-y,z
-x+y,-x,1/3+z
y,-x+y,2/3+z
x-y,-y,-z
-x,-x+y,1/3-z
y,x,2/3-z
-y,-x,2/3-z
-x+y,y,-z
x,x-y,1/3-z
loop_
_atom_site_type_symbol
_atom_site_label
_atom_site_fract_x
_atom_site_fract_y
_atom_site_fract_z
Si Si1 0.000000 0.000000 0.000000
Si Si2 0.092355 0.306710 0.841910
Si Si3 0.000000 0.500000 0.764201
Si Si4 0.367420 0.290849 0.059797
O O1 0.180794 0.142120 0.031306
O O2 0.258267 0.258267 0.833334
O O3 0.118416 0.449713 0.800968
O O4 0.056993 0.352666 0.893653
O O5 0.889952 0.110049 0.833334
O O6 0.842092 0.306956 0.737665
O O7 0.500000 0.500000 0.036149
#
# Coordination Sequence:
#
# PCOD9583826 Si02
#       4
#     3  12   6  12
#     4  12  28  46  62  94 136 194 232 258 336 420
#     4   9  17  35  64  97 130 162 207 280 350 396
#     4  10  20  39  70 100 128 162 220 290 351 390
#     4  11  24  43  67  94 134 178 226 278 333 415
#
# _framework density 20.564425
#
# number of rings (size 3 to 8) (size 9 to 14) (size 15 to 20)
#    0.000    1.818    1.818    4.364    0.000    3.636 
#    0.000    7.273    0.000    0.000    0.000    0.000 
#    0.000    0.000    0.000    0.000    0.000    0.000 
#
# Total GULP energy -183819.099956 kJ/mol
# GULP energy per Si atom -5570.275756 kJ/mol
# Density = 2.051762 g / cm^3
# Si number density = 20.564425 Si / 1000 Ang^3
#
#
#
# Elastic Constant Matrix: (Units=GPa)
#
#
# Indices 1 2 3 4 5 6 
#
# 1 143.2089 71.0654 55.9360 0.0000 0.0000 0.0000
# 2 71.0654 143.2089 55.9360 0.0000 0.0000 0.0000
# 3 55.9360 55.9360 53.7415 0.0000 0.0000 0.0000
# 4 0.0000 0.0000 0.0000 36.3824 0.0000 0.0000
# 5 0.0000 0.0000 0.0000 0.0000 36.3824 0.0000
# 6 0.0000 0.0000 0.0000 0.0000 0.0000 36.0718
#
#
#
# Elastic Compliance Matrix: (Units=1/GPa)
#
#
# Indices 1 2 3 4 5 6 
#
# 1 0.012041 -0.001820 -0.010639 0.000000 0.000000 0.000000
# 2 -0.001820 0.012041 -0.010639 0.000000 0.000000 0.000000
# 3 -0.010639 -0.010639 0.040754 0.000000 0.000000 0.000000
# 4 0.000000 0.000000 0.000000 0.027486 0.000000 0.000000
# 5 0.000000 0.000000 0.000000 0.000000 0.027486 0.000000
# 6 0.000000 0.000000 0.000000 0.000000 0.000000 0.027723
#
#
# Mechanical properties :
#
#
# Convention : Reuss Voigt Hill
#
# Bulk Modulus (GPa) = 53.64325 78.44825 66.04575
# Shear Modulus (GPa) = 25.00754 32.24879 28.62817
#
# Velocity S-wave (km/s) = 3.49099 3.96433 3.73516
# Velocity P-wave (km/s) = 6.51087 7.69317 7.12658
#
# Compressibility (1/GPa) = 0.01864168
#
# Stress axis : x y z
#
# Youngs Moduli (GPa) = 83.04733 83.04733 24.53745
#
# Poissons Ratio (x) = 0.15114 0.26105
# Poissons Ratio (y) = 0.15114 0.26105
# Poissons Ratio (z) = 0.88352 0.88352
#
# Static dielectric constant tensor:
#      x y z
#    x 1.756930 0.000000 0.000000 
#    y 0.000000 1.756930 0.000000 
#    z 0.000000 0.000000 1.773010 
# 
# From -- ./inp_files/10830.got.cif
#   From: 2010.05.17/outbox.cif.g08.bks.cpg/sg180_6_cif.got.tgz:10830.got - 2010.05.20 11:43:55.
