data_PCOD9583216
_publ_section_title
;
Structure prediction by ZEFSAII (Michael W. Deem and Ramdas Pophale) SiO2 
 PCOD9583216
Probable space group: P 65 2 2
;
_chemical_formula_sum "Si O2"
_cell_formula_units_Z 36
_cell_length_a 22.404661
_cell_length_b 22.404661
_cell_length_c 4.843884
_cell_angle_alpha 90.000000
_cell_angle_beta 90.000000
_cell_angle_gamma 120.000000
_cell_volume 2105.722415
_symmetry_space_group_name_H-M "P 65 2 2"
_symmetry_group_IT_number 179
_symmetry_cell_setting 'hexagonal'
loop_
_space_group_symop_operation_xyz
x,y,z
x-y,x,5/6+z
-y,x-y,2/3+z
-x,-y,1/2+z
-x+y,-x,1/3+z
y,-x+y,1/6+z
x-y,-y,-z
-x,-x+y,1/3-z
y,x,2/3-z
-y,-x,1/6-z
-x+y,y,1/2-z
x,x-y,5/6-z
loop_
_atom_site_type_symbol
_atom_site_label
_atom_site_fract_x
_atom_site_fract_y
_atom_site_fract_z
Si Si1 0.524028 0.475973 0.583334
Si Si2 0.414004 0.707002 0.416667
Si Si3 0.575901 0.919272 0.045160
Si Si4 0.167516 0.449267 0.596140
O O1 0.524147 0.524147 0.333334
O O2 0.595767 0.506665 0.737013
O O3 0.362096 0.724192 0.250000
O O4 0.469441 0.696219 0.237782
O O5 0.587005 0.867526 0.853634
O O6 0.561525 0.891719 0.354112
O O7 0.630819 0.000000 0.000000
O O8 0.209091 0.418182 0.750000
#
# Coordination Sequence:
#
# PCOD9583216 Si02
#       4
#     6   6  12  12
#     4  10  20  31  48  72  90 114 154 192 236 292
#     4  10  26  37  54  72  96 134 166 198 264 320
#     4  11  21  36  53  72  96 126 156 196 255 303
#     4  10  24  36  54  74  99 122 163 208 245 305
#
# _framework density 17.096271999999999
#
# number of rings (size 3 to 8) (size 9 to 14) (size 15 to 20)
#    1.000    0.667    0.000    6.000    9.333    0.000 
#    0.000    0.000    0.000    0.000    0.000    0.000 
#    0.000    0.000    0.000    0.000    0.000    0.000 
#
# Total GULP energy -200538.870551 kJ/mol
# GULP energy per Si atom -5570.524182 kJ/mol
# Density = 1.705736 g / cm^3
# Si number density = 17.096272 Si / 1000 Ang^3
#
#
#
# Elastic Constant Matrix: (Units=GPa)
#
#
# Indices 1 2 3 4 5 6 
#
# 1 62.0549 19.8840 12.5328 0.0000 0.0000 0.0000
# 2 19.8840 62.0549 12.5328 0.0000 0.0000 0.0000
# 3 12.5328 12.5328 81.7807 0.0000 0.0000 0.0000
# 4 0.0000 0.0000 0.0000 27.6772 0.0000 0.0000
# 5 0.0000 0.0000 0.0000 0.0000 27.6772 0.0000
# 6 0.0000 0.0000 0.0000 0.0000 0.0000 21.0855
#
#
#
# Elastic Compliance Matrix: (Units=1/GPa)
#
#
# Indices 1 2 3 4 5 6 
#
# 1 0.018259 -0.005454 -0.001962 0.000000 0.000000 0.000000
# 2 -0.005454 0.018259 -0.001962 0.000000 0.000000 0.000000
# 3 -0.001962 -0.001962 0.012829 0.000000 0.000000 0.000000
# 4 0.000000 0.000000 0.000000 0.036131 0.000000 0.000000
# 5 0.000000 0.000000 0.000000 0.000000 0.036131 0.000000
# 6 0.000000 0.000000 0.000000 0.000000 0.000000 0.047426
#
#
# Mechanical properties :
#
#
# Convention : Reuss Voigt Hill
#
# Bulk Modulus (GPa) = 32.69134 32.86552 32.77843
# Shear Modulus (GPa) = 25.25400 26.01737 25.63569
#
# Velocity S-wave (km/s) = 3.84756 3.90528 3.87653
# Velocity P-wave (km/s) = 6.23712 6.29289 6.26507
#
# Compressibility (1/GPa) = 0.03058914
#
# Stress axis : x y z
#
# Youngs Moduli (GPa) = 54.76827 54.76827 77.94681
#
# Poissons Ratio (x) = 0.29872 0.15295
# Poissons Ratio (y) = 0.29872 0.15295
# Poissons Ratio (z) = 0.10747 0.10747
#
# Static dielectric constant tensor:
#      x y z
#    x 1.648000 0.000000 0.000000 
#    y 0.000000 1.648000 0.000000 
#    z 0.000000 0.000000 1.780590 
# 
# From -- ./inp_files/932.got.cif
#   From: 2010.05.17/outbox.cif.g08.bks.cpg/sg179_1_cif.got.tgz:932.got - 2010.05.20 11:37:33.
