data_PCOD9583412
_publ_section_title
;
Structure prediction by ZEFSAII (Michael W. Deem and Ramdas Pophale) SiO2 
 PCOD9583412
Probable space group: P 65 2 2
;
_chemical_formula_sum "Si O2"
_cell_formula_units_Z 54
_cell_length_a 9.841137
_cell_length_b 9.841137
_cell_length_c 25.321380
_cell_angle_alpha 90.000000
_cell_angle_beta 90.000000
_cell_angle_gamma 120.000000
_cell_volume 2123.775263
_symmetry_space_group_name_H-M "P 65 2 2"
_symmetry_group_IT_number 179
_symmetry_cell_setting 'hexagonal'
loop_
_space_group_symop_operation_xyz
x,y,z
x-y,x,5/6+z
-y,x-y,2/3+z
-x,-y,1/2+z
-x+y,-x,1/3+z
y,-x+y,1/6+z
x-y,-y,-z
-x,-x+y,1/3-z
y,x,2/3-z
-y,-x,1/6-z
-x+y,y,1/2-z
x,x-y,5/6-z
loop_
_atom_site_type_symbol
_atom_site_label
_atom_site_fract_x
_atom_site_fract_y
_atom_site_fract_z
Si Si1 0.041882 0.555371 0.337410
Si Si2 0.159080 0.270141 0.134393
Si Si3 0.375465 0.202874 0.088120
Si Si4 0.179056 0.652215 0.750371
Si Si5 0.407054 0.407054 0.833334
O O1 0.089258 0.417036 0.344110
O O2 0.181086 0.704912 0.303712
O O3 0.948168 0.585483 0.386519
O O4 0.901757 0.475848 0.294693
O O5 0.210970 0.149330 0.115936
O O6 0.124427 0.345748 0.083056
O O7 0.000000 0.193308 0.166667
O O8 0.364360 0.085338 0.043866
O O9 0.365210 0.730419 0.750000
O O10 0.123236 0.565868 0.694880
#
# Coordination Sequence:
#
# PCOD9583412 Si02
#       5
#    12  12  12  12   6
#     4  11  27  51  82 117 163 228 278 350 420 527
#     4  12  29  51  75 121 164 214 271 353 427 508
#     4  11  26  52  79 123 163 218 291 349 434 510
#     4  11  22  46  79 109 153 202 279 324 412 495
#     4  10  22  48  78 116 146 220 268 348 396 524
#
# _framework density 25.426418999999999
#
# number of rings (size 3 to 8) (size 9 to 14) (size 15 to 20)
#    0.000    0.889    3.333    2.000    6.222    2.667 
#    6.000    0.000    0.000    0.000    0.000    0.000 
#    0.000    0.000    0.000    0.000    0.000    0.000 
#
# Total GULP energy -300641.185134 kJ/mol
# GULP energy per Si atom -5567.429354 kJ/mol
# Density = 2.536855 g / cm^3
# Si number density = 25.426419 Si / 1000 Ang^3
#
#
#
# Elastic Constant Matrix: (Units=GPa)
#
#
# Indices 1 2 3 4 5 6 
#
# 1 103.0537 29.9704 39.3363 0.0000 0.0000 0.0000
# 2 29.9704 103.0537 39.3363 0.0000 0.0000 0.0000
# 3 39.3363 39.3363 107.2953 0.0000 0.0000 0.0000
# 4 0.0000 0.0000 0.0000 28.0051 0.0000 0.0000
# 5 0.0000 0.0000 0.0000 0.0000 28.0051 0.0000
# 6 0.0000 0.0000 0.0000 0.0000 0.0000 36.5417
#
#
#
# Elastic Compliance Matrix: (Units=1/GPa)
#
#
# Indices 1 2 3 4 5 6 
#
# 1 0.011641 -0.002042 -0.003519 0.000000 0.000000 0.000000
# 2 -0.002042 0.011641 -0.003519 0.000000 0.000000 0.000000
# 3 -0.003519 -0.003519 0.011900 0.000000 0.000000 0.000000
# 4 0.000000 0.000000 0.000000 0.035708 0.000000 0.000000
# 5 0.000000 0.000000 0.000000 0.000000 0.035708 0.000000
# 6 0.000000 0.000000 0.000000 0.000000 0.000000 0.027366
#
#
# Mechanical properties :
#
#
# Convention : Reuss Voigt Hill
#
# Bulk Modulus (GPa) = 58.74914 58.96540 58.85727
# Shear Modulus (GPa) = 31.68612 32.16104 31.92358
#
# Velocity S-wave (km/s) = 3.53397 3.56036 3.54719
# Velocity P-wave (km/s) = 6.30933 6.33581 6.32258
#
# Compressibility (1/GPa) = 0.01702153
#
# Stress axis : x y z
#
# Youngs Moduli (GPa) = 85.90460 85.90460 84.03125
#
# Poissons Ratio (x) = 0.17543 0.29571
# Poissons Ratio (y) = 0.17543 0.29571
# Poissons Ratio (z) = 0.30230 0.30230
#
# Static dielectric constant tensor:
#      x y z
#    x 2.033950 0.000000 0.000000 
#    y 0.000000 2.033950 0.000000 
#    z 0.000000 0.000000 2.089190 
# 
# From -- ./inp_files/8746.got.cif
#   From: 2010.05.17/outbox.cif.g08.bks.cpg/sg179_5_cif.got.tgz:8746.got - 2010.05.20 11:37:33.
