data_PCOD9583438
_publ_section_title
;
Structure prediction by ZEFSAII (Michael W. Deem and Ramdas Pophale) SiO2 
 PCOD9583438
Probable space group: P 65 2 2
;
_chemical_formula_sum "Si O2"
_cell_formula_units_Z 54
_cell_length_a 10.799365
_cell_length_b 10.799365
_cell_length_c 23.854848
_cell_angle_alpha 90.000000
_cell_angle_beta 90.000000
_cell_angle_gamma 120.000000
_cell_volume 2409.371257
_symmetry_space_group_name_H-M "P 65 2 2"
_symmetry_group_IT_number 179
_symmetry_cell_setting 'hexagonal'
loop_
_space_group_symop_operation_xyz
x,y,z
x-y,x,5/6+z
-y,x-y,2/3+z
-x,-y,1/2+z
-x+y,-x,1/3+z
y,-x+y,1/6+z
x-y,-y,-z
-x,-x+y,1/3-z
y,x,2/3-z
-y,-x,1/6-z
-x+y,y,1/2-z
x,x-y,5/6-z
loop_
_atom_site_type_symbol
_atom_site_label
_atom_site_fract_x
_atom_site_fract_y
_atom_site_fract_z
Si Si1 0.693534 0.363545 0.149445
Si Si2 0.417298 0.582703 0.083334
Si Si3 0.888733 0.056193 0.881079
Si Si4 0.634440 0.807147 0.024429
Si Si5 0.153510 0.312198 0.816856
O O1 0.659795 0.340206 0.083334
O O2 0.581577 0.265597 0.198811
O O3 0.807150 0.306714 0.161757
O O4 0.740281 0.525743 0.163369
O O5 0.565856 0.648506 0.051860
O O6 0.794705 0.093001 0.922465
O O7 0.006156 0.193100 0.846669
O O8 0.961951 0.980976 0.916667
O O9 0.769452 0.930938 0.844434
O O10 0.271007 0.271007 0.833334
O O11 0.153344 0.306687 0.750000
#
# Coordination Sequence:
#
# PCOD9583438 Si02
#       5
#    12   6  12  12  12
#     4  10  23  48  72 106 146 197 250 314 378 454
#     4   8  22  48  64 106 142 184 252 300 378 450
#     4  12  25  43  73 110 148 198 255 316 382 463
#     4  10  23  47  71 107 148 194 255 316 377 460
#     4  12  25  45  67 104 151 197 244 312 391 461
#
# _framework density 22.412485
#
# number of rings (size 3 to 8) (size 9 to 14) (size 15 to 20)
#    1.333    0.000    1.111    4.667    0.000    7.111 
#   10.000    0.000    0.000    0.000    0.000    0.000 
#    0.000    0.000    0.000    0.000    0.000    0.000 
#
# Total GULP energy -300628.506166 kJ/mol
# GULP energy per Si atom -5567.194559 kJ/mol
# Density = 2.236147 g / cm^3
# Si number density = 22.412485 Si / 1000 Ang^3
#
#
#
# Elastic Constant Matrix: (Units=GPa)
#
#
# Indices 1 2 3 4 5 6 
#
# 1 91.8756 46.0150 59.3940 0.0000 0.0000 0.0000
# 2 46.0150 91.8756 59.3940 0.0000 0.0000 0.0000
# 3 59.3940 59.3940 191.1058 0.0000 0.0000 0.0000
# 4 0.0000 0.0000 0.0000 39.5424 0.0000 0.0000
# 5 0.0000 0.0000 0.0000 0.0000 39.5424 0.0000
# 6 0.0000 0.0000 0.0000 0.0000 0.0000 22.9303
#
#
#
# Elastic Compliance Matrix: (Units=1/GPa)
#
#
# Indices 1 2 3 4 5 6 
#
# 1 0.015854 -0.005951 -0.003078 0.000000 0.000000 0.000000
# 2 -0.005951 0.015854 -0.003078 0.000000 0.000000 0.000000
# 3 -0.003078 -0.003078 0.007146 0.000000 0.000000 0.000000
# 4 0.000000 0.000000 0.000000 0.025289 0.000000 0.000000
# 5 0.000000 0.000000 0.000000 0.000000 0.025289 0.000000
# 6 0.000000 0.000000 0.000000 0.000000 0.000000 0.043610
#
#
# Mechanical properties :
#
#
# Convention : Reuss Voigt Hill
#
# Bulk Modulus (GPa) = 68.29951 78.27365 73.28658
# Shear Modulus (GPa) = 30.83798 34.40664 32.62231
#
# Velocity S-wave (km/s) = 3.71338 3.92236 3.81930
# Velocity P-wave (km/s) = 6.99468 7.45071 7.22629
#
# Compressibility (1/GPa) = 0.01464139
#
# Stress axis : x y z
#
# Youngs Moduli (GPa) = 63.07375 63.07375 139.93995
#
# Poissons Ratio (x) = 0.37534 0.43073
# Poissons Ratio (y) = 0.37534 0.43073
# Poissons Ratio (z) = 0.19414 0.19414
#
# Static dielectric constant tensor:
#      x y z
#    x 1.870570 0.000000 0.000000 
#    y 0.000000 1.870570 0.000000 
#    z 0.000000 0.000000 1.921690 
# 
# From -- ./inp_files/7412.got.cif
#   From: 2010.05.17/outbox.cif.g08.bks.cpg/sg179_4_cif.got.tgz:7412.got - 2010.05.20 11:37:33.
