data_PCOD9583129
_publ_section_title
;
Structure prediction by ZEFSAII (Michael W. Deem and Ramdas Pophale) SiO2 
 PCOD9583129
Probable space group: P 65 2 2
;
_chemical_formula_sum "Si O2"
_cell_formula_units_Z 84
_cell_length_a 14.683392
_cell_length_b 14.683392
_cell_length_c 26.982271
_cell_angle_alpha 90.000000
_cell_angle_beta 90.000000
_cell_angle_gamma 120.000000
_cell_volume 5038.043558
_symmetry_space_group_name_H-M "P 65 2 2"
_symmetry_group_IT_number 179
_symmetry_cell_setting 'hexagonal'
loop_
_space_group_symop_operation_xyz
x,y,z
x-y,x,5/6+z
-y,x-y,2/3+z
-x,-y,1/2+z
-x+y,-x,1/3+z
y,-x+y,1/6+z
x-y,-y,-z
-x,-x+y,1/3-z
y,x,2/3-z
-y,-x,1/6-z
-x+y,y,1/2-z
x,x-y,5/6-z
loop_
_atom_site_type_symbol
_atom_site_label
_atom_site_fract_x
_atom_site_fract_y
_atom_site_fract_z
Si Si1 0.357872 0.701133 0.831159
Si Si2 0.309345 0.104657 0.465218
Si Si3 0.348075 0.439457 0.568491
Si Si4 0.319153 0.476346 0.455816
Si Si5 0.967222 0.524832 0.722919
Si Si6 0.414467 0.143695 0.284578
Si Si7 0.207534 0.686922 0.234871
O O1 0.260826 0.671283 0.795024
O O2 0.466344 0.788341 0.806526
O O3 0.350244 0.595657 0.852910
O O4 0.334016 0.745875 0.881379
O O5 0.261243 0.130622 0.416667
O O6 0.411804 0.098644 0.444635
O O7 0.345021 0.201508 0.502893
O O8 0.243947 0.000000 0.500000
O O9 0.449476 0.550525 0.583334
O O10 0.321442 0.438371 0.510740
O O11 0.382006 0.351398 0.571411
O O12 0.252220 0.440279 0.598188
O O13 0.409769 0.475788 0.424382
O O14 0.212948 0.405973 0.425781
O O15 0.911825 0.403795 0.738866
O O16 0.000000 0.531405 0.666667
#
# Coordination Sequence:
#
# PCOD9583129 Si02
#       7
#    12  12  12  12  12  12  12
#     4  10  18  31  50  73 106 150 191 226 284 349
#     4  11  21  36  57  84 118 151 193 248 311 375
#     4  11  22  37  50  78 118 153 195 236 286 359
#     4  11  20  34  50  80 111 146 199 236 288 357
#     4  11  20  34  55  83 113 152 198 243 294 362
#     4  12  22  32  58  82 114 155 193 244 297 354
#     4  10  18  34  51  70 111 157 187 233 291 351
#
# _framework density 16.67314
#
# number of rings (size 3 to 8) (size 9 to 14) (size 15 to 20)
#    0.000    1.143    7.143    3.857    0.000    1.143 
#    0.000    0.000    0.000    0.000    0.000    1.000 
#    0.000    0.000    0.000    0.000    0.000    0.000 
#
# Total GULP energy -467716.593371 kJ/mol
# GULP energy per Si atom -5568.054683 kJ/mol
# Density = 1.663519 g / cm^3
# Si number density = 16.673140 Si / 1000 Ang^3
#
#
#
# Elastic Constant Matrix: (Units=GPa)
#
#
# Indices 1 2 3 4 5 6 
#
# 1 84.8720 28.7768 19.0804 0.0000 0.0000 0.0000
# 2 28.7768 84.8720 19.0804 0.0000 0.0000 0.0000
# 3 19.0804 19.0804 61.4586 0.0000 0.0000 0.0000
# 4 0.0000 0.0000 0.0000 25.1698 0.0000 0.0000
# 5 0.0000 0.0000 0.0000 0.0000 25.1698 0.0000
# 6 0.0000 0.0000 0.0000 0.0000 0.0000 28.0476
#
#
#
# Elastic Compliance Matrix: (Units=1/GPa)
#
#
# Indices 1 2 3 4 5 6 
#
# 1 0.013825 -0.004002 -0.003050 0.000000 0.000000 0.000000
# 2 -0.004002 0.013825 -0.003050 0.000000 0.000000 0.000000
# 3 -0.003050 -0.003050 0.018165 0.000000 0.000000 0.000000
# 4 0.000000 0.000000 0.000000 0.039730 0.000000 0.000000
# 5 0.000000 0.000000 0.000000 0.000000 0.039730 0.000000
# 6 0.000000 0.000000 0.000000 0.000000 0.000000 0.035654
#
#
# Mechanical properties :
#
#
# Convention : Reuss Voigt Hill
#
# Bulk Modulus (GPa) = 39.04392 40.56419 39.80406
# Shear Modulus (GPa) = 26.36179 26.62843 26.49511
#
# Velocity S-wave (km/s) = 3.98061 4.00069 3.99066
# Velocity P-wave (km/s) = 6.67796 6.76185 6.72003
#
# Compressibility (1/GPa) = 0.02561218
#
# Stress axis : x y z
#
# Youngs Moduli (GPa) = 72.33303 72.33303 55.05186
#
# Poissons Ratio (x) = 0.28947 0.16789
# Poissons Ratio (y) = 0.28947 0.16789
# Poissons Ratio (z) = 0.22059 0.22059
#
# Static dielectric constant tensor:
#      x y z
#    x 1.599420 0.000000 0.000000 
#    y 0.000000 1.599420 0.000000 
#    z 0.000000 0.000000 1.585160 
# 
# From -- ./inp_files/9636.got.cif
#   From: 2010.05.17/outbox.cif.g08.bks.cpg/sg179_5_cif.got.tgz:9636.got - 2010.05.20 11:37:33.
