data_PCOD9583783
_publ_section_title
;
Structure prediction by ZEFSAII (Michael W. Deem and Ramdas Pophale) SiO2 
 PCOD9583783
Probable space group: P 62 2 2
;
_chemical_formula_sum "Si O2"
_cell_formula_units_Z 48
_cell_length_a 13.890682
_cell_length_b 13.890682
_cell_length_c 13.733556
_cell_angle_alpha 90.000000
_cell_angle_beta 90.000000
_cell_angle_gamma 120.000000
_cell_volume 2294.884183
_symmetry_space_group_name_H-M "P 62 2 2"
_symmetry_group_IT_number 180
_symmetry_cell_setting 'hexagonal'
loop_
_space_group_symop_operation_xyz
x,y,z
x-y,x,1/3+z
-y,x-y,2/3+z
-x,-y,z
-x+y,-x,1/3+z
y,-x+y,2/3+z
x-y,-y,-z
-x,-x+y,1/3-z
y,x,2/3-z
-y,-x,2/3-z
-x+y,y,-z
x,x-y,1/3-z
loop_
_atom_site_type_symbol
_atom_site_label
_atom_site_fract_x
_atom_site_fract_y
_atom_site_fract_z
Si Si1 0.282188 0.520326 0.890624
Si Si2 0.888992 0.158340 0.225838
Si Si3 0.444546 0.825762 0.111393
Si Si4 0.255184 0.956409 0.888866
O O1 0.394025 0.605976 0.833334
O O2 0.260723 0.396012 0.896904
O O3 0.179424 0.521649 0.836604
O O4 0.279233 0.558466 0.000000
O O5 0.886376 0.113625 0.333334
O O6 0.000000 0.194220 0.166667
O O7 0.784276 0.060304 0.173751
O O8 0.449257 0.724629 0.166667
O O9 0.571629 0.923531 0.113286
O O10 0.404102 0.808204 0.000000
O O11 0.147722 0.852279 0.833334
O O12 0.254711 0.000000 0.000000
#
# Coordination Sequence:
#
# PCOD9583783 Si02
#       4
#    12  12  12  12
#     4  10  21  37  60  91 128 168 206 254 318 389
#     4  11  25  43  62  88 123 165 217 270 322 385
#     4  10  20  36  62  97 133 166 207 261 327 403
#     4  11  24  42  66  94 125 165 215 274 333 391
#
# _framework density 20.916088999999999
#
# number of rings (size 3 to 8) (size 9 to 14) (size 15 to 20)
#    0.000    1.500    0.000    6.000    0.000   10.500 
#    0.000    7.500    0.000    0.000    0.000    0.000 
#    0.000    0.000    0.000    0.000    0.000    0.000 
#
# Total GULP energy -267411.424343 kJ/mol
# GULP energy per Si atom -5571.071340 kJ/mol
# Density = 2.086848 g / cm^3
# Si number density = 20.916089 Si / 1000 Ang^3
#
#
#
# Elastic Constant Matrix: (Units=GPa)
#
#
# Indices 1 2 3 4 5 6 
#
# 1 95.9979 41.7463 45.3696 0.0000 0.0000 0.0000
# 2 41.7463 95.9979 45.3696 0.0000 0.0000 0.0000
# 3 45.3696 45.3696 201.1042 0.0000 0.0000 0.0000
# 4 0.0000 0.0000 0.0000 9.9280 0.0000 0.0000
# 5 0.0000 0.0000 0.0000 0.0000 9.9280 0.0000
# 6 0.0000 0.0000 0.0000 0.0000 0.0000 27.1258
#
#
#
# Elastic Compliance Matrix: (Units=1/GPa)
#
#
# Indices 1 2 3 4 5 6 
#
# 1 0.013480 -0.004953 -0.001924 0.000000 0.000000 0.000000
# 2 -0.004953 0.013480 -0.001924 0.000000 0.000000 0.000000
# 3 -0.001924 -0.001924 0.005841 0.000000 0.000000 0.000000
# 4 0.000000 0.000000 0.000000 0.100726 0.000000 0.000000
# 5 0.000000 0.000000 0.000000 0.000000 0.100726 0.000000
# 6 0.000000 0.000000 0.000000 0.000000 0.000000 0.036865
#
#
# Mechanical properties :
#
#
# Convention : Reuss Voigt Hill
#
# Bulk Modulus (GPa) = 65.79031 73.11897 69.45464
# Shear Modulus (GPa) = 17.01931 26.77064 21.89497
#
# Velocity S-wave (km/s) = 2.85563 3.58146 3.23894
# Velocity P-wave (km/s) = 6.51118 7.22057 6.87503
#
# Compressibility (1/GPa) = 0.01519981
#
# Stress axis : x y z
#
# Youngs Moduli (GPa) = 74.18468 74.18468 171.21697
#
# Poissons Ratio (x) = 0.36742 0.32938
# Poissons Ratio (y) = 0.36742 0.32938
# Poissons Ratio (z) = 0.14271 0.14271
#
# Static dielectric constant tensor:
#      x y z
#    x 1.806910 0.000000 0.000000 
#    y 0.000000 1.806910 0.000000 
#    z 0.000000 0.000000 1.851070 
# 
# From -- ./inp_files/4376.got.cif
#   From: 2010.05.17/outbox.cif.g08.bks.cpg/sg180_3_cif.got.tgz:4376.got - 2010.05.20 11:43:55.
