data_PCOD9583809
_publ_section_title
;
Structure prediction by ZEFSAII (Michael W. Deem and Ramdas Pophale) SiO2 
 PCOD9583809
Probable space group: P 62 2 2
;
_chemical_formula_sum "Si O2"
_cell_formula_units_Z 66
_cell_length_a 26.411011
_cell_length_b 26.411011
_cell_length_c 5.575099
_cell_angle_alpha 90.000000
_cell_angle_beta 90.000000
_cell_angle_gamma 120.000000
_cell_volume 3367.854090
_symmetry_space_group_name_H-M "P 62 2 2"
_symmetry_group_IT_number 180
_symmetry_cell_setting 'hexagonal'
loop_
_space_group_symop_operation_xyz
x,y,z
x-y,x,1/3+z
-y,x-y,2/3+z
-x,-y,z
-x+y,-x,1/3+z
y,-x+y,2/3+z
x-y,-y,-z
-x,-x+y,1/3-z
y,x,2/3-z
-y,-x,2/3-z
-x+y,y,-z
x,x-y,1/3-z
loop_
_atom_site_type_symbol
_atom_site_label
_atom_site_fract_x
_atom_site_fract_y
_atom_site_fract_z
Si Si1 0.443446 0.780313 0.121849
Si Si2 0.256355 0.289716 0.581530
Si Si3 0.570857 0.429144 0.833334
Si Si4 0.009840 0.619511 0.419769
Si Si5 0.829864 0.659728 0.500000
Si Si6 0.333450 0.864879 0.261437
Si Si7 0.411930 0.205965 0.666667
O O1 0.447772 0.723886 0.166667
O O2 0.443033 0.815335 0.350588
O O3 0.381434 0.762868 0.000000
O O4 0.497339 0.826645 0.965825
O O5 0.258148 0.258148 0.333334
O O6 0.319876 0.349982 0.584352
O O7 0.204189 0.304618 0.560312
O O8 0.258265 0.258265 0.833334
O O9 0.512092 0.400598 0.680463
O O10 0.076925 0.669759 0.435284
O O11 0.000000 0.585226 0.666667
O O12 0.000000 0.588374 0.166667
O O13 0.822075 0.623920 0.751423
O O14 0.274278 0.821998 0.400899
#
# Coordination Sequence:
#
# PCOD9583809 Si02
#       7
#    12  12   6  12   6  12   6
#     4  10  23  40  62  90 117 157 206 270 348 421
#     4  10  20  38  59  93 135 175 219 260 322 385
#     4  10  24  42  61  81 122 156 208 275 346 414
#     4  10  21  38  62  86 117 160 205 255 318 386
#     4  12  24  40  66 103 138 176 223 277 324 404
#     4  11  24  40  63  87 123 161 208 282 331 412
#     4  12  24  36  66  98 126 162 216 278 353 394
#
# _framework density 19.597049999999999
#
# number of rings (size 3 to 8) (size 9 to 14) (size 15 to 20)
#    0.000    1.455    0.000    6.545    7.636    1.455 
#    0.000    0.455    0.000    0.000    0.000    0.000 
#    0.000    0.000    0.000    4.091    0.000    0.364 
#
# Total GULP energy -367434.706085 kJ/mol
# GULP energy per Si atom -5567.192516 kJ/mol
# Density = 1.955245 g / cm^3
# Si number density = 19.597050 Si / 1000 Ang^3
#
#
#
# Elastic Constant Matrix: (Units=GPa)
#
#
# Indices 1 2 3 4 5 6 
#
# 1 86.3502 34.1185 39.1101 0.0000 0.0000 0.0000
# 2 34.1185 86.3502 39.1101 0.0000 0.0000 0.0000
# 3 39.1101 39.1101 146.8649 0.0000 0.0000 0.0000
# 4 0.0000 0.0000 0.0000 11.8660 0.0000 0.0000
# 5 0.0000 0.0000 0.0000 0.0000 11.8660 0.0000
# 6 0.0000 0.0000 0.0000 0.0000 0.0000 26.1158
#
#
#
# Elastic Compliance Matrix: (Units=1/GPa)
#
#
# Indices 1 2 3 4 5 6 
#
# 1 0.014591 -0.004555 -0.002673 0.000000 0.000000 0.000000
# 2 -0.004555 0.014591 -0.002673 0.000000 0.000000 0.000000
# 3 -0.002673 -0.002673 0.008232 0.000000 0.000000 0.000000
# 4 0.000000 0.000000 0.000000 0.084275 0.000000 0.000000
# 5 0.000000 0.000000 0.000000 0.000000 0.084275 0.000000
# 6 0.000000 0.000000 0.000000 0.000000 0.000000 0.038291
#
#
# Mechanical properties :
#
#
# Convention : Reuss Voigt Hill
#
# Bulk Modulus (GPa) = 56.77193 60.47142 58.62168
# Shear Modulus (GPa) = 18.52362 23.78466 21.15414
#
# Velocity S-wave (km/s) = 3.07779 3.48758 3.28907
# Velocity P-wave (km/s) = 6.45468 6.86600 6.66352
#
# Compressibility (1/GPa) = 0.01761434
#
# Stress axis : x y z
#
# Youngs Moduli (GPa) = 68.53602 68.53602 121.47069
#
# Poissons Ratio (x) = 0.31215 0.32465
# Poissons Ratio (y) = 0.31215 0.32465
# Poissons Ratio (z) = 0.18317 0.18317
#
# Static dielectric constant tensor:
#      x y z
#    x 1.663450 0.000000 0.000000 
#    y 0.000000 1.663450 0.000000 
#    z 0.000000 0.000000 1.860150 
# 
# From -- ./inp_files/1570.got.cif
#   From: 2010.05.17/outbox.cif.g08.bks.cpg/sg180_1_cif.got.tgz:1570.got - 2010.05.20 11:43:55.
