data_PCOD9583766
_publ_section_title
;
Structure prediction by ZEFSAII (Michael W. Deem and Ramdas Pophale) SiO2 
 PCOD9583766
Probable space group: P 62 2 2
;
_chemical_formula_sum "Si O2"
_cell_formula_units_Z 42
_cell_length_a 20.128586
_cell_length_b 20.128586
_cell_length_c 5.510404
_cell_angle_alpha 90.000000
_cell_angle_beta 90.000000
_cell_angle_gamma 120.000000
_cell_volume 1933.484111
_symmetry_space_group_name_H-M "P 62 2 2"
_symmetry_group_IT_number 180
_symmetry_cell_setting 'hexagonal'
loop_
_space_group_symop_operation_xyz
x,y,z
x-y,x,1/3+z
-y,x-y,2/3+z
-x,-y,z
-x+y,-x,1/3+z
y,-x+y,2/3+z
x-y,-y,-z
-x,-x+y,1/3-z
y,x,2/3-z
-y,-x,2/3-z
-x+y,y,-z
x,x-y,1/3-z
loop_
_atom_site_type_symbol
_atom_site_label
_atom_site_fract_x
_atom_site_fract_y
_atom_site_fract_z
Si Si1 0.430857 0.346041 0.930835
Si Si2 0.915313 0.699942 0.593645
Si Si3 0.215433 0.568545 0.420641
Si Si4 0.796074 0.592147 0.000000
O O1 0.404187 0.404187 0.833334
O O2 0.451300 0.292129 0.757852
O O3 0.357815 0.281475 0.076475
O O4 0.508466 0.384161 0.083842
O O5 0.870690 0.741379 0.500000
O O6 0.000000 0.759068 0.666667
O O7 0.857279 0.646245 0.800414
O O8 0.262530 0.525060 0.500000
O O9 0.234520 0.617260 0.666667
O O10 0.235046 0.617523 0.166667
#
# Coordination Sequence:
#
# PCOD9583766 Si02
#       4
#    12  12  12   6
#     4  11  24  42  69 100 138 181 222 296 364 425
#     4  10  20  35  60  94 132 173 225 280 349 421
#     4  12  28  49  76 104 139 192 251 303 357 436
#     4  10  20  38  64  94 133 172 220 270 347 428
#
# _framework density 21.722443999999999
#
# number of rings (size 3 to 8) (size 9 to 14) (size 15 to 20)
#    0.000    1.143    2.857    4.286    8.000    0.571 
#    0.000    1.429    0.000    0.000    0.000    5.000 
#    0.000    0.000    0.000    0.000    0.000    0.000 
#
# Total GULP energy -233817.777389 kJ/mol
# GULP energy per Si atom -5567.089938 kJ/mol
# Density = 2.167300 g / cm^3
# Si number density = 21.722444 Si / 1000 Ang^3
#
#
#
# Elastic Constant Matrix: (Units=GPa)
#
#
# Indices 1 2 3 4 5 6 
#
# 1 92.1760 34.8703 26.8111 0.0000 0.0000 0.0000
# 2 34.8703 92.1760 26.8111 0.0000 0.0000 0.0000
# 3 26.8111 26.8111 67.3508 0.0000 0.0000 0.0000
# 4 0.0000 0.0000 0.0000 11.3052 0.0000 0.0000
# 5 0.0000 0.0000 0.0000 0.0000 11.3052 0.0000
# 6 0.0000 0.0000 0.0000 0.0000 0.0000 28.6528
#
#
#
# Elastic Compliance Matrix: (Units=1/GPa)
#
#
# Indices 1 2 3 4 5 6 
#
# 1 0.013455 -0.003995 -0.003766 0.000000 0.000000 0.000000
# 2 -0.003995 0.013455 -0.003766 0.000000 0.000000 0.000000
# 3 -0.003766 -0.003766 0.017846 0.000000 0.000000 0.000000
# 4 0.000000 0.000000 0.000000 0.088455 0.000000 0.000000
# 5 0.000000 0.000000 0.000000 0.000000 0.088455 0.000000
# 6 0.000000 0.000000 0.000000 0.000000 0.000000 0.034901
#
#
# Mechanical properties :
#
#
# Convention : Reuss Voigt Hill
#
# Bulk Modulus (GPa) = 46.07660 47.63196 46.85428
# Shear Modulus (GPa) = 17.43032 21.13332 19.28182
#
# Velocity S-wave (km/s) = 2.83576 3.12249 2.98257
# Velocity P-wave (km/s) = 5.65505 5.91397 5.78596
#
# Compressibility (1/GPa) = 0.02170299
#
# Stress axis : x y z
#
# Youngs Moduli (GPa) = 74.31910 74.31910 56.03472
#
# Poissons Ratio (x) = 0.29689 0.21103
# Poissons Ratio (y) = 0.29689 0.21103
# Poissons Ratio (z) = 0.27989 0.27989
#
# Static dielectric constant tensor:
#      x y z
#    x 1.898090 0.000000 0.000000 
#    y 0.000000 1.898090 0.000000 
#    z 0.000000 0.000000 1.824840 
# 
# From -- ./inp_files/786.got.cif
#   From: 2010.05.17/outbox.cif.g08.bks.cpg/sg180_1_cif.got.tgz:786.got - 2010.05.20 11:43:55.
