data_PCOD9583297
_publ_section_title
;
Structure prediction by ZEFSAII (Michael W. Deem and Ramdas Pophale) SiO2 
 PCOD9583297
Probable space group: P 65 2 2
;
_chemical_formula_sum "Si O2"
_cell_formula_units_Z 42
_cell_length_a 19.297606
_cell_length_b 19.297606
_cell_length_c 8.282832
_cell_angle_alpha 90.000000
_cell_angle_beta 90.000000
_cell_angle_gamma 120.000000
_cell_volume 2671.261191
_symmetry_space_group_name_H-M "P 65 2 2"
_symmetry_group_IT_number 179
_symmetry_cell_setting 'hexagonal'
loop_
_space_group_symop_operation_xyz
x,y,z
x-y,x,5/6+z
-y,x-y,2/3+z
-x,-y,1/2+z
-x+y,-x,1/3+z
y,-x+y,1/6+z
x-y,-y,-z
-x,-x+y,1/3-z
y,x,2/3-z
-y,-x,1/6-z
-x+y,y,1/2-z
x,x-y,5/6-z
loop_
_atom_site_type_symbol
_atom_site_label
_atom_site_fract_x
_atom_site_fract_y
_atom_site_fract_z
Si Si1 0.291220 0.781130 0.416245
Si Si2 0.406950 0.406950 0.833334
Si Si3 0.558982 0.960092 0.176230
Si Si4 0.373773 0.823106 0.923099
O O1 0.240888 0.759113 0.583334
O O2 0.330906 0.870638 0.353424
O O3 0.235161 0.718100 0.284517
O O4 0.371340 0.778357 0.464305
O O5 0.373603 0.376438 0.653479
O O6 0.486493 0.396745 0.822000
O O7 0.484287 0.968573 0.250000
O O8 0.580330 0.000000 0.000000
O O9 0.418217 0.836434 0.750000
#
# Coordination Sequence:
#
# PCOD9583297 Si02
#       4
#    12   6  12  12
#     4  10  21  34  47  71 100 125 160 214 273 319
#     4  12  22  38  54  70  90 134 174 202 260 336
#     4  12  21  34  54  71  93 128 168 206 259 324
#     4  10  21  35  49  68  98 128 165 210 274 324
#
# _framework density 15.722909
#
# number of rings (size 3 to 8) (size 9 to 14) (size 15 to 20)
#    0.000    1.143    4.286    4.286    0.000    6.857 
#    0.000    0.000    0.000    0.000    0.000    0.000 
#    0.000    0.000    0.000    0.000    0.000    0.000 
#
# Total GULP energy -233811.727373 kJ/mol
# GULP energy per Si atom -5566.945890 kJ/mol
# Density = 1.568712 g / cm^3
# Si number density = 15.722909 Si / 1000 Ang^3
#
#
#
# Elastic Constant Matrix: (Units=GPa)
#
#
# Indices 1 2 3 4 5 6 
#
# 1 66.4410 35.2912 33.1415 0.0000 0.0000 0.0000
# 2 35.2912 66.4410 33.1415 0.0000 0.0000 0.0000
# 3 33.1415 33.1415 131.9827 0.0000 0.0000 0.0000
# 4 0.0000 0.0000 0.0000 29.0350 0.0000 0.0000
# 5 0.0000 0.0000 0.0000 0.0000 29.0350 0.0000
# 6 0.0000 0.0000 0.0000 0.0000 0.0000 15.5749
#
#
#
# Elastic Compliance Matrix: (Units=1/GPa)
#
#
# Indices 1 2 3 4 5 6 
#
# 1 0.021928 -0.010175 -0.002951 0.000000 0.000000 0.000000
# 2 -0.010175 0.021928 -0.002951 0.000000 0.000000 0.000000
# 3 -0.002951 -0.002951 0.009059 0.000000 0.000000 0.000000
# 4 0.000000 0.000000 0.000000 0.034441 0.000000 0.000000
# 5 0.000000 0.000000 0.000000 0.000000 0.034441 0.000000
# 6 0.000000 0.000000 0.000000 0.000000 0.000000 0.064206
#
#
# Mechanical properties :
#
#
# Convention : Reuss Voigt Hill
#
# Bulk Modulus (GPa) = 48.17099 52.00147 50.08623
# Shear Modulus (GPa) = 22.21460 25.61502 23.91481
#
# Velocity S-wave (km/s) = 3.76291 4.04065 3.90425
# Velocity P-wave (km/s) = 7.04154 7.41044 7.22835
#
# Compressibility (1/GPa) = 0.02075938
#
# Stress axis : x y z
#
# Youngs Moduli (GPa) = 45.60439 45.60439 110.38962
#
# Poissons Ratio (x) = 0.46403 0.32577
# Poissons Ratio (y) = 0.46403 0.32577
# Poissons Ratio (z) = 0.13458 0.13458
#
# Static dielectric constant tensor:
#      x y z
#    x 1.531130 0.000000 0.000000 
#    y 0.000000 1.531130 0.000000 
#    z 0.000000 0.000000 1.687960 
# 
# From -- ./inp_files/2400.got.cif
#   From: 2010.05.17/outbox.cif.g08.bks.cpg/sg179_2_cif.got.tgz:2400.got - 2010.05.20 11:37:33.
