data_PCOD9583376
_publ_section_title
;
Structure prediction by ZEFSAII (Michael W. Deem and Ramdas Pophale) SiO2 
 PCOD9583376
Probable space group: P 65 2 2
;
_chemical_formula_sum "Si O2"
_cell_formula_units_Z 48
_cell_length_a 18.514412
_cell_length_b 18.514412
_cell_length_c 8.352633
_cell_angle_alpha 90.000000
_cell_angle_beta 90.000000
_cell_angle_gamma 120.000000
_cell_volume 2479.555760
_symmetry_space_group_name_H-M "P 65 2 2"
_symmetry_group_IT_number 179
_symmetry_cell_setting 'hexagonal'
loop_
_space_group_symop_operation_xyz
x,y,z
x-y,x,5/6+z
-y,x-y,2/3+z
-x,-y,1/2+z
-x+y,-x,1/3+z
y,-x+y,1/6+z
x-y,-y,-z
-x,-x+y,1/3-z
y,x,2/3-z
-y,-x,1/6-z
-x+y,y,1/2-z
x,x-y,5/6-z
loop_
_atom_site_type_symbol
_atom_site_label
_atom_site_fract_x
_atom_site_fract_y
_atom_site_fract_z
Si Si1 0.170319 0.048594 0.159809
Si Si2 0.844242 0.688483 0.750000
Si Si3 0.703147 0.469461 0.078843
Si Si4 0.409345 0.818689 0.750000
Si Si5 0.442202 0.098079 0.494159
O O1 0.251852 0.110173 0.263479
O O2 0.105391 0.972989 0.269300
O O3 0.176305 0.000000 0.000000
O O4 0.744995 0.626681 0.757640
O O5 0.616425 0.383576 0.083334
O O6 0.747492 0.494983 0.250000
O O7 0.762009 0.447269 0.974470
O O8 0.682139 0.534031 0.994704
O O9 0.472642 0.869344 0.892618
O O10 0.400449 0.000000 0.500000
#
# Coordination Sequence:
#
# PCOD9583376 Si02
#       5
#    12   6  12   6  12
#     4  10  22  40  68 102 136 189 247 294 343 418
#     4  12  24  48  64  95 148 196 221 298 366 420
#     4  12  22  42  74 102 132 174 226 286 345 422
#     4  12  22  44  72  99 136 174 231 280 348 420
#     4  12  27  45  68 106 142 183 232 289 365 428
#
# _framework density 19.358307
#
# number of rings (size 3 to 8) (size 9 to 14) (size 15 to 20)
#    0.000    0.500    6.250    2.250    1.750    6.000 
#    9.000    1.250    0.000    0.000    0.000    0.000 
#    0.000    0.000    0.000    0.000    0.000    0.000 
#
# Total GULP energy -267909.454110 kJ/mol
# GULP energy per Si atom -5581.446961 kJ/mol
# Density = 1.931425 g / cm^3
# Si number density = 19.358307 Si / 1000 Ang^3
#
#
#
# Elastic Constant Matrix: (Units=GPa)
#
#
# Indices 1 2 3 4 5 6 
#
# 1 208.3367 -49.5940 46.5203 0.0000 0.0000 0.0000
# 2 -49.5940 208.3367 46.5203 0.0000 0.0000 0.0000
# 3 46.5203 46.5203 98.9192 0.0000 0.0000 0.0000
# 4 0.0000 0.0000 0.0000 -5.6537 0.0000 0.0000
# 5 0.0000 0.0000 0.0000 0.0000 -5.6537 0.0000
# 6 0.0000 0.0000 0.0000 0.0000 0.0000 128.9654
#
#
#
# Elastic Compliance Matrix: (Units=1/GPa)
#
#
# Indices 1 2 3 4 5 6 
#
# 1 0.006287 0.002410 -0.004090 0.000000 0.000000 0.000000
# 2 0.002410 0.006287 -0.004090 0.000000 0.000000 0.000000
# 3 -0.004090 -0.004090 0.013956 0.000000 0.000000 0.000000
# 4 0.000000 0.000000 0.000000 -0.176876 0.000000 0.000000
# 5 0.000000 0.000000 0.000000 0.000000 -0.176876 0.000000
# 6 0.000000 0.000000 0.000000 0.000000 0.000000 0.007754
#
#
# Mechanical properties :
#
#
# Convention : Reuss Voigt Hill
#
# Bulk Modulus (GPa) = 66.71222 66.94289 66.82755
# Shear Modulus (GPa) = -16.50542 55.00799 19.25128
#
# Velocity S-wave (km/s) = -2.92315 5.33642 3.15695
# Velocity P-wave (km/s) = 4.81078 8.52208 6.91988
#
# Compressibility (1/GPa) = 0.01498976
#
# Stress axis : x y z
#
# Youngs Moduli (GPa) = 159.06286 159.06286 71.65314
#
# Poissons Ratio (x) = -0.38331 0.29305
# Poissons Ratio (y) = -0.38331 0.29305
# Poissons Ratio (z) = 0.65055 0.65055
#
# Static dielectric constant tensor:
#      x y z
#    x 1.679470 0.000000 0.000000 
#    y 0.000000 1.679470 0.000000 
#    z 0.000000 0.000000 1.763310 
# 
# From -- ./inp_files/2752.got.cif
#   From: 2010.05.17/outbox.cif.g08.bks.cpg/sg179_2_cif.got.tgz:2752.got - 2010.05.20 11:37:33.
