data_PCOD9583449
_publ_section_title
;
Structure prediction by ZEFSAII (Michael W. Deem and Ramdas Pophale) SiO2 
 PCOD9583449
Probable space group: P 65 2 2
;
_chemical_formula_sum "Si O2"
_cell_formula_units_Z 66
_cell_length_a 26.489359
_cell_length_b 26.489359
_cell_length_c 5.177397
_cell_angle_alpha 90.000000
_cell_angle_beta 90.000000
_cell_angle_gamma 120.000000
_cell_volume 3146.190373
_symmetry_space_group_name_H-M "P 65 2 2"
_symmetry_group_IT_number 179
_symmetry_cell_setting 'hexagonal'
loop_
_space_group_symop_operation_xyz
x,y,z
x-y,x,5/6+z
-y,x-y,2/3+z
-x,-y,1/2+z
-x+y,-x,1/3+z
y,-x+y,1/6+z
x-y,-y,-z
-x,-x+y,1/3-z
y,x,2/3-z
-y,-x,1/6-z
-x+y,y,1/2-z
x,x-y,5/6-z
loop_
_atom_site_type_symbol
_atom_site_label
_atom_site_fract_x
_atom_site_fract_y
_atom_site_fract_z
Si Si1 0.420787 0.061761 0.635941
Si Si2 0.789378 0.758920 0.584759
Si Si3 0.325076 0.325076 0.833334
Si Si4 0.678949 0.839475 0.916667
Si Si5 0.476294 0.181959 0.296643
Si Si6 0.090900 0.545450 0.916667
Si Si7 0.599041 0.799521 0.416667
Si Si8 0.585271 0.170541 0.250000
O O1 0.384330 0.053721 0.896610
O O2 0.443179 0.120809 0.462958
O O3 0.477062 0.057212 0.712669
O O4 0.378926 0.000000 0.500000
O O5 0.797358 0.797358 0.333334
O O6 0.722798 0.706779 0.554529
O O7 0.821296 0.722644 0.624471
O O8 0.796198 0.796198 0.833334
O O9 0.639065 0.804444 0.666882
O O10 0.475387 0.237694 0.416667
O O11 0.544031 0.199056 0.273784
O O12 0.442801 0.177021 0.027438
O O13 0.130919 0.559257 0.667566
#
# Coordination Sequence:
#
# PCOD9583449 Si02
#       8
#    12  12   6   6  12   6   6   6
#     4  11  27  42  69  99 140 179 220 286 356 427
#     4  10  24  42  61  94 136 184 235 290 340 413
#     4  10  26  38  68  94 140 176 224 280 350 414
#     4  12  26  42  70 100 145 188 241 303 356 417
#     4  11  28  48  73 103 136 179 236 299 356 439
#     4  10  26  45  68  96 128 170 220 266 354 436
#     4  12  28  40  71 104 131 174 240 283 362 423
#     4  10  26  51  69  96 134 166 217 296 354 422
#
# _framework density 20.977751999999999
#
# number of rings (size 3 to 8) (size 9 to 14) (size 15 to 20)
#    0.545    0.727    0.909    1.636   19.091    0.727 
#    0.000    0.909    0.000    0.000    0.000    0.000 
#    0.000    0.000    0.000    1.636    0.000    1.455 
#
# Total GULP energy -367799.732136 kJ/mol
# GULP energy per Si atom -5572.723214 kJ/mol
# Density = 2.093001 g / cm^3
# Si number density = 20.977752 Si / 1000 Ang^3
#
#
#
# Elastic Constant Matrix: (Units=GPa)
#
#
# Indices 1 2 3 4 5 6 
#
# 1 76.1761 37.5726 32.1518 0.0000 0.0000 0.0000
# 2 37.5726 76.1761 32.1518 0.0000 0.0000 0.0000
# 3 32.1518 32.1518 144.5845 0.0000 0.0000 0.0000
# 4 0.0000 0.0000 0.0000 23.9761 0.0000 0.0000
# 5 0.0000 0.0000 0.0000 0.0000 23.9761 0.0000
# 6 0.0000 0.0000 0.0000 0.0000 0.0000 19.3018
#
#
#
# Elastic Compliance Matrix: (Units=1/GPa)
#
#
# Indices 1 2 3 4 5 6 
#
# 1 0.017980 -0.007924 -0.002236 0.000000 0.000000 0.000000
# 2 -0.007924 0.017980 -0.002236 0.000000 0.000000 0.000000
# 3 -0.002236 -0.002236 0.007911 0.000000 0.000000 0.000000
# 4 0.000000 0.000000 0.000000 0.041708 0.000000 0.000000
# 5 0.000000 0.000000 0.000000 0.000000 0.041708 0.000000
# 6 0.000000 0.000000 0.000000 0.000000 0.000000 0.051809
#
#
# Mechanical properties :
#
#
# Convention : Reuss Voigt Hill
#
# Bulk Modulus (GPa) = 52.41806 55.63212 54.02509
# Shear Modulus (GPa) = 23.78143 26.45483 25.11813
#
# Velocity S-wave (km/s) = 3.37062 3.55504 3.46406
# Velocity P-wave (km/s) = 6.33955 6.59001 6.46599
#
# Compressibility (1/GPa) = 0.01907739
#
# Stress axis : x y z
#
# Youngs Moduli (GPa) = 55.61776 55.61776 126.40867
#
# Poissons Ratio (x) = 0.44074 0.28266
# Poissons Ratio (y) = 0.44074 0.28266
# Poissons Ratio (z) = 0.12436 0.12436
#
# Static dielectric constant tensor:
#      x y z
#    x 1.876520 0.000000 0.000000 
#    y 0.000000 1.876520 0.000000 
#    z 0.000000 0.000000 1.908670 
# 
# From -- ./inp_files/1632.got.cif
#   From: 2010.05.17/outbox.cif.g08.bks.cpg/sg179_1_cif.got.tgz:1632.got - 2010.05.20 11:37:33.
