data_PCOD9583257
_publ_section_title
;
Structure prediction by ZEFSAII (Michael W. Deem and Ramdas Pophale) SiO2 
 PCOD9583257
Probable space group: P 65 2 2
;
_chemical_formula_sum "Si O2"
_cell_formula_units_Z 60
_cell_length_a 14.510593
_cell_length_b 14.510593
_cell_length_c 16.275817
_cell_angle_alpha 90.000000
_cell_angle_beta 90.000000
_cell_angle_gamma 120.000000
_cell_volume 2967.862332
_symmetry_space_group_name_H-M "P 65 2 2"
_symmetry_group_IT_number 179
_symmetry_cell_setting 'hexagonal'
loop_
_space_group_symop_operation_xyz
x,y,z
x-y,x,5/6+z
-y,x-y,2/3+z
-x,-y,1/2+z
-x+y,-x,1/3+z
y,-x+y,1/6+z
x-y,-y,-z
-x,-x+y,1/3-z
y,x,2/3-z
-y,-x,1/6-z
-x+y,y,1/2-z
x,x-y,5/6-z
loop_
_atom_site_type_symbol
_atom_site_label
_atom_site_fract_x
_atom_site_fract_y
_atom_site_fract_z
Si Si1 0.457025 0.228513 0.416667
Si Si2 0.579429 0.202623 0.568564
Si Si3 0.086927 0.000000 0.500000
Si Si4 0.275314 0.394063 0.812259
Si Si5 0.778107 0.601890 0.021326
Si Si6 0.225465 0.932171 0.704891
O O1 0.524704 0.207660 0.484024
O O2 0.380907 0.259525 0.466898
O O3 0.681962 0.318039 0.583334
O O4 0.624935 0.122481 0.560902
O O5 0.495391 0.175640 0.641444
O O6 0.041025 0.020513 0.416667
O O7 0.199893 0.105805 0.516668
O O8 0.305951 0.305951 0.833334
O O9 0.177592 0.355183 0.750000
O O10 0.243972 0.431148 0.895836
O O11 0.751178 0.694226 0.041315
O O12 0.874780 0.652062 0.956278
#
# Coordination Sequence:
#
# PCOD9583257 Si02
#       6
#     6  12   6  12  12  12
#     4  10  20  36  66 100 134 168 230 278 338 388
#     4  10  23  41  67  95 132 174 217 286 345 415
#     4  12  22  42  64 100 146 182 230 280 358 412
#     4  11  25  46  68  95 136 182 225 284 353 427
#     4  11  23  41  64  98 132 171 233 274 344 413
#     4  11  21  37  65  98 135 179 220 288 325 409
#
# _framework density 20.216571999999999
#
# number of rings (size 3 to 8) (size 9 to 14) (size 15 to 20)
#    0.000    1.200    3.000    2.400    2.800    4.000 
#    1.800    0.000    0.000    0.000    0.000    0.000 
#    0.000    0.000    0.000    0.000    0.000    0.000 
#
# Total GULP energy -335547.697408 kJ/mol
# GULP energy per Si atom -5592.461623 kJ/mol
# Density = 2.017056 g / cm^3
# Si number density = 20.216572 Si / 1000 Ang^3
#
#
#
# Elastic Constant Matrix: (Units=GPa)
#
#
# Indices 1 2 3 4 5 6 
#
# 1 70.3618 43.0497 31.3936 0.0000 0.0000 0.0000
# 2 43.0497 70.3618 31.3936 0.0000 0.0000 0.0000
# 3 31.3936 31.3936 132.8044 0.0000 0.0000 0.0000
# 4 0.0000 0.0000 0.0000 25.5061 0.0000 0.0000
# 5 0.0000 0.0000 0.0000 0.0000 25.5061 0.0000
# 6 0.0000 0.0000 0.0000 0.0000 0.0000 13.6561
#
#
#
# Elastic Compliance Matrix: (Units=1/GPa)
#
#
# Indices 1 2 3 4 5 6 
#
# 1 0.023379 -0.013234 -0.002398 0.000000 0.000000 0.000000
# 2 -0.013234 0.023379 -0.002398 0.000000 0.000000 0.000000
# 3 -0.002398 -0.002398 0.008664 0.000000 0.000000 0.000000
# 4 0.000000 0.000000 0.000000 0.039206 0.000000 0.000000
# 5 0.000000 0.000000 0.000000 0.000000 0.039206 0.000000
# 6 0.000000 0.000000 0.000000 0.000000 0.000000 0.073228
#
#
# Mechanical properties :
#
#
# Convention : Reuss Voigt Hill
#
# Bulk Modulus (GPa) = 51.64979 53.91131 52.78055
# Shear Modulus (GPa) = 20.03382 24.11305 22.07343
#
# Velocity S-wave (km/s) = 3.15137 3.45735 3.30790
# Velocity P-wave (km/s) = 6.23259 6.53165 6.38387
#
# Compressibility (1/GPa) = 0.01936116
#
# Stress axis : x y z
#
# Youngs Moduli (GPa) = 42.77260 42.77260 115.42419
#
# Poissons Ratio (x) = 0.56607 0.27681
# Poissons Ratio (y) = 0.56607 0.27681
# Poissons Ratio (z) = 0.10258 0.10258
#
# Static dielectric constant tensor:
#      x y z
#    x 1.696700 0.000000 0.000000 
#    y 0.000000 1.696700 0.000000 
#    z 0.000000 0.000000 1.723630 
# 
# From -- ./inp_files/5843.got.cif
#   From: 2010.05.17/outbox.cif.g08.bks.cpg/sg179_3_cif.got.tgz:5843.got - 2010.05.20 11:37:33.
