data_PCOD9583609
_publ_section_title
;
Structure prediction by ZEFSAII (Michael W. Deem and Ramdas Pophale) SiO2 
 PCOD9583609
Probable space group: P 62 2 2
;
_chemical_formula_sum "Si O2"
_cell_formula_units_Z 69
_cell_length_a 21.044123
_cell_length_b 21.044123
_cell_length_c 7.836841
_cell_angle_alpha 90.000000
_cell_angle_beta 90.000000
_cell_angle_gamma 120.000000
_cell_volume 3005.614867
_symmetry_space_group_name_H-M "P 62 2 2"
_symmetry_group_IT_number 180
_symmetry_cell_setting 'hexagonal'
loop_
_space_group_symop_operation_xyz
x,y,z
x-y,x,1/3+z
-y,x-y,2/3+z
-x,-y,z
-x+y,-x,1/3+z
y,-x+y,2/3+z
x-y,-y,-z
-x,-x+y,1/3-z
y,x,2/3-z
-y,-x,2/3-z
-x+y,y,-z
x,x-y,1/3-z
loop_
_atom_site_type_symbol
_atom_site_label
_atom_site_fract_x
_atom_site_fract_y
_atom_site_fract_z
Si Si1 0.091492 0.908509 0.333334
Si Si2 0.390662 0.765917 0.195887
Si Si3 0.500000 0.500000 0.333334
Si Si4 0.001828 0.678894 0.876815
Si Si5 0.472618 0.354861 0.532236
Si Si6 0.710166 0.554459 0.504410
Si Si7 0.060086 0.842617 0.980895
O O1 0.130340 0.901482 0.503272
O O2 0.004611 0.867218 0.364231
O O3 0.355341 0.677671 0.166667
O O4 0.358480 0.813613 0.283622
O O5 0.474174 0.797377 0.256594
O O6 0.395668 0.791335 0.000000
O O7 0.488035 0.433727 0.457771
O O8 0.075252 0.675066 0.912570
O O9 0.017820 0.755541 0.952814
O O10 0.000000 0.682227 0.666667
O O11 0.930172 0.607503 0.949362
O O12 0.456876 0.307690 0.361796
O O13 0.797534 0.595068 0.500000
O O14 0.117455 0.882546 0.833334
#
# Coordination Sequence:
#
# PCOD9583609 Si02
#       7
#     6  12   3  12  12  12  12
#     4  10  24  42  63  92 129 176 214 257 334 392
#     4   9  16  27  44  69 107 152 194 261 333 397
#     4  12  12  28  44  72 126 158 188 272 346 412
#     4  10  18  29  51  84 118 159 212 271 334 402
#     4  10  16  26  44  72 110 159 201 262 335 403
#     4   9  15  23  39  72 109 142 192 254 332 387
#     4  11  22  41  65  92 128 172 216 271 327 392
#
# _framework density 22.957034
#
# number of rings (size 3 to 8) (size 9 to 14) (size 15 to 20)
#    0.000    2.087    5.217    2.087    0.000    1.391 
#    0.000    5.217    1.913    0.000    0.000    0.000 
#    0.000    5.565    0.000    0.000    0.000    0.000 
#
# Total GULP energy -384152.172442 kJ/mol
# GULP energy per Si atom -5567.422789 kJ/mol
# Density = 2.290478 g / cm^3
# Si number density = 22.957034 Si / 1000 Ang^3
#
#
#
# Elastic Constant Matrix: (Units=GPa)
#
#
# Indices 1 2 3 4 5 6 
#
# 1 130.3084 50.1556 24.7161 0.0000 0.0000 0.0000
# 2 50.1556 130.3084 24.7161 0.0000 0.0000 0.0000
# 3 24.7161 24.7161 69.3953 0.0000 0.0000 0.0000
# 4 0.0000 0.0000 0.0000 9.0772 0.0000 0.0000
# 5 0.0000 0.0000 0.0000 0.0000 9.0772 0.0000
# 6 0.0000 0.0000 0.0000 0.0000 0.0000 40.0764
#
#
#
# Elastic Compliance Matrix: (Units=1/GPa)
#
#
# Indices 1 2 3 4 5 6 
#
# 1 0.009308 -0.003168 -0.002187 0.000000 0.000000 0.000000
# 2 -0.003168 0.009308 -0.002187 0.000000 0.000000 0.000000
# 3 -0.002187 -0.002187 0.015968 0.000000 0.000000 0.000000
# 4 0.000000 0.000000 0.000000 0.110166 0.000000 0.000000
# 5 0.000000 0.000000 0.000000 0.000000 0.110166 0.000000
# 6 0.000000 0.000000 0.000000 0.000000 0.000000 0.024952
#
#
# Mechanical properties :
#
#
# Convention : Reuss Voigt Hill
#
# Bulk Modulus (GPa) = 51.27987 58.79864 55.03925
# Shear Modulus (GPa) = 16.58633 27.00779 21.79706
#
# Velocity S-wave (km/s) = 2.69084 3.43366 3.08469
# Velocity P-wave (km/s) = 5.66039 6.43336 6.05921
#
# Compressibility (1/GPa) = 0.01950083
#
# Stress axis : x y z
#
# Youngs Moduli (GPa) = 107.43169 107.43169 62.62511
#
# Poissons Ratio (x) = 0.34034 0.13696
# Poissons Ratio (y) = 0.34034 0.13696
# Poissons Ratio (z) = 0.23495 0.23495
#
# Static dielectric constant tensor:
#      x y z
#    x 1.952520 0.000000 0.000000 
#    y 0.000000 1.952520 0.000000 
#    z 0.000000 0.000000 1.902430 
# 
# From -- ./inp_files/3280.got.cif
#   From: 2010.05.17/outbox.cif.g08.bks.cpg/sg180_2_cif.got.tgz:3280.got - 2010.05.20 11:43:55.
