data_PCOD9583165
_publ_section_title
;
Structure prediction by ZEFSAII (Michael W. Deem and Ramdas Pophale) SiO2 
 PCOD9583165
Probable space group: P 65 2 2
;
_chemical_formula_sum "Si O2"
_cell_formula_units_Z 36
_cell_length_a 18.378575
_cell_length_b 18.378575
_cell_length_c 5.472720
_cell_angle_alpha 90.000000
_cell_angle_beta 90.000000
_cell_angle_gamma 120.000000
_cell_volume 1600.875398
_symmetry_space_group_name_H-M "P 65 2 2"
_symmetry_group_IT_number 179
_symmetry_cell_setting 'hexagonal'
loop_
_space_group_symop_operation_xyz
x,y,z
x-y,x,5/6+z
-y,x-y,2/3+z
-x,-y,1/2+z
-x+y,-x,1/3+z
y,-x+y,1/6+z
x-y,-y,-z
-x,-x+y,1/3-z
y,x,2/3-z
-y,-x,1/6-z
-x+y,y,1/2-z
x,x-y,5/6-z
loop_
_atom_site_type_symbol
_atom_site_label
_atom_site_fract_x
_atom_site_fract_y
_atom_site_fract_z
Si Si1 0.314383 0.542579 0.504169
Si Si2 0.194691 0.362293 0.002168
Si Si3 0.446822 0.393680 0.586350
O O1 0.412028 0.587973 0.583334
O O2 0.281181 0.562361 0.250000
O O3 0.263499 0.441686 0.509128
O O4 0.284411 0.568821 0.750000
O O5 0.157946 0.315891 0.750000
O O6 0.156468 0.312936 0.250000
O O7 0.294907 0.407582 0.034604
O O8 0.412460 0.412460 0.333334
O O9 0.548849 0.451152 0.583334
O O10 0.423008 0.423008 0.833334
#
# Coordination Sequence:
#
# PCOD9583165 Si02
#       3
#    12  12  12
#     4  10  19  28  38  57  85 111 132 168 232 298
#     4  10  21  33  49  71  92 115 153 205 254 295
#     4  10  21  37  53  68  93 132 170 199 243 319
#
# _framework density 22.487696
#
# number of rings (size 3 to 8) (size 9 to 14) (size 15 to 20)
#    0.000    2.000    0.000    4.000    0.000   12.000 
#    0.000    8.333    0.000    0.000    0.000    0.000 
#    0.000    0.000    0.000    0.000    0.000    0.000 
#
# Total GULP energy -200635.643898 kJ/mol
# GULP energy per Si atom -5573.212330 kJ/mol
# Density = 2.243651 g / cm^3
# Si number density = 22.487696 Si / 1000 Ang^3
#
#
#
# Elastic Constant Matrix: (Units=GPa)
#
#
# Indices 1 2 3 4 5 6 
#
# 1 33.8963 9.4347 28.9122 0.0000 0.0000 0.0000
# 2 9.4347 33.8963 28.9122 0.0000 0.0000 0.0000
# 3 28.9122 28.9122 286.4676 0.0000 0.0000 0.0000
# 4 0.0000 0.0000 0.0000 25.4966 0.0000 0.0000
# 5 0.0000 0.0000 0.0000 0.0000 25.4966 0.0000
# 6 0.0000 0.0000 0.0000 0.0000 0.0000 12.2308
#
#
#
# Elastic Compliance Matrix: (Units=1/GPa)
#
#
# Indices 1 2 3 4 5 6 
#
# 1 0.033775 -0.007105 -0.002692 0.000000 0.000000 0.000000
# 2 -0.007105 0.033775 -0.002692 0.000000 0.000000 0.000000
# 3 -0.002692 -0.002692 0.004034 0.000000 0.000000 0.000000
# 4 0.000000 0.000000 0.000000 0.039221 0.000000 0.000000
# 5 0.000000 0.000000 0.000000 0.000000 0.039221 0.000000
# 6 0.000000 0.000000 0.000000 0.000000 0.000000 0.081761
#
#
# Mechanical properties :
#
#
# Convention : Reuss Voigt Hill
#
# Bulk Modulus (GPa) = 21.45571 54.30872 37.88222
# Shear Modulus (GPa) = 18.36210 31.77822 25.07016
#
# Velocity S-wave (km/s) = 2.86062 3.76325 3.34254
# Velocity P-wave (km/s) = 4.52467 6.56396 5.63730
#
# Compressibility (1/GPa) = 0.04660764
#
# Stress axis : x y z
#
# Youngs Moduli (GPa) = 29.60747 29.60747 247.88485
#
# Poissons Ratio (x) = 0.21036 0.66724
# Poissons Ratio (y) = 0.21036 0.66724
# Poissons Ratio (z) = 0.07970 0.07970
#
# Static dielectric constant tensor:
#      x y z
#    x 1.928210 0.000000 0.000000 
#    y 0.000000 1.928210 0.000000 
#    z 0.000000 0.000000 2.019820 
# 
# From -- ./inp_files/611.got.cif
#   From: 2010.05.17/outbox.cif.g08.bks.cpg/sg179_1_cif.got.tgz:611.got - 2010.05.20 11:37:33.
