data_PCOD9583079
_publ_section_title
;
Structure prediction by ZEFSAII (Michael W. Deem and Ramdas Pophale) SiO2 
 PCOD9583079
Probable space group: P 61 2 2
;
_chemical_formula_sum "Si O2"
_cell_formula_units_Z 36
_cell_length_a 8.082332
_cell_length_b 8.082332
_cell_length_c 24.309945
_cell_angle_alpha 90.000000
_cell_angle_beta 90.000000
_cell_angle_gamma 120.000000
_cell_volume 1375.270034
_symmetry_space_group_name_H-M "P 61 2 2"
_symmetry_group_IT_number 178
_symmetry_cell_setting 'hexagonal'
loop_
_space_group_symop_operation_xyz
x,y,z
x-y,x,1/6+z
-y,x-y,1/3+z
-x,-y,1/2+z
-x+y,-x,2/3+z
y,-x+y,5/6+z
x-y,-y,-z
-x,-x+y,2/3-z
y,x,1/3-z
-y,-x,5/6-z
-x+y,y,1/2-z
x,x-y,1/6-z
loop_
_atom_site_type_symbol
_atom_site_label
_atom_site_fract_x
_atom_site_fract_y
_atom_site_fract_z
Si Si1 0.392593 0.857867 0.545236
Si Si2 0.418699 0.410286 0.827168
Si Si3 0.795463 0.014395 0.359027
O O1 0.204317 0.727672 0.511333
O O2 0.577323 0.641313 0.497012
O O3 0.545052 0.000000 0.500000
O O4 0.371279 0.976842 0.595021
O O5 0.701152 0.402303 0.750000
O O6 0.655819 0.869893 0.805927
O O7 0.875887 0.124114 0.416667
O O8 0.000000 0.068380 0.333334
#
# Coordination Sequence:
#
# PCOD9583079 Si02
#       3
#    12  12  12
#     4  12  27  54  86 131 179 245 308 392 477 568
#     4  12  27  55  87 128 185 238 311 387 471 564
#     4  12  29  52  86 129 178 241 309 384 472 563
#
# _framework density 26.176679
#
# number of rings (size 3 to 8) (size 9 to 14) (size 15 to 20)
#    0.000    0.000    3.333    5.000    0.000    5.333 
#    6.000    0.000    0.000    0.000    0.000    0.000 
#    0.000    0.000    0.000    0.000    0.000    0.000 
#
# Total GULP energy -200690.236756 kJ/mol
# GULP energy per Si atom -5574.728799 kJ/mol
# Density = 2.611710 g / cm^3
# Si number density = 26.176679 Si / 1000 Ang^3
#
#
#
# Elastic Constant Matrix: (Units=GPa)
#
#
# Indices 1 2 3 4 5 6 
#
# 1 119.1391 140.3034 56.8662 0.0000 0.0000 0.0000
# 2 140.3034 119.1391 56.8662 0.0000 0.0000 0.0000
# 3 56.8662 56.8662 161.8986 0.0000 0.0000 0.0000
# 4 0.0000 0.0000 0.0000 26.8135 0.0000 0.0000
# 5 0.0000 0.0000 0.0000 0.0000 26.8135 0.0000
# 6 0.0000 0.0000 0.0000 0.0000 0.0000 -10.5821
#
#
#
# Elastic Compliance Matrix: (Units=1/GPa)
#
#
# Indices 1 2 3 4 5 6 
#
# 1 -0.021347 0.025903 -0.001600 0.000000 0.000000 0.000000
# 2 0.025903 -0.021347 -0.001600 0.000000 0.000000 0.000000
# 3 -0.001600 -0.001600 0.007301 0.000000 0.000000 0.000000
# 4 0.000000 0.000000 0.000000 0.037295 0.000000 0.000000
# 5 0.000000 0.000000 0.000000 0.000000 0.037295 0.000000
# 6 0.000000 0.000000 0.000000 0.000000 0.000000 -0.094499
#
#
# Mechanical properties :
#
#
# Convention : Reuss Voigt Hill
#
# Bulk Modulus (GPa) = 99.88298 100.91651 100.39974
# Shear Modulus (GPa) = -51.35086 18.35173 -16.49956
#
# Velocity S-wave (km/s) = -4.43392 2.65065 -2.51333
# Velocity P-wave (km/s) = 3.46803 6.92847 5.47864
#
# Compressibility (1/GPa) = 0.01001172
#
# Stress axis : x y z
#
# Youngs Moduli (GPa) = -46.84556 -46.84556 136.97006
#
# Poissons Ratio (x) = 1.21342 0.21919
# Poissons Ratio (y) = 1.21342 0.21919
# Poissons Ratio (z) = -0.07496 -0.07496
#
# Static dielectric constant tensor:
#      x y z
#    x 2.468590 0.000000 0.000000 
#    y 0.000000 2.468590 0.000000 
#    z 0.000000 0.000000 2.198210 
# 
# From -- ./inp_files/8521.got.cif
#   From: 2010.05.17/outbox.cif.g08.bks.cpg/sg178_5_cif.got.tgz:8521.got - 2010.05.20 11:30:59.
