data_PCOD9583386
_publ_section_title
;
Structure prediction by ZEFSAII (Michael W. Deem and Ramdas Pophale) SiO2 
 PCOD9583386
Probable space group: P 65 2 2
;
_chemical_formula_sum "Si O2"
_cell_formula_units_Z 60
_cell_length_a 15.563038
_cell_length_b 15.563038
_cell_length_c 13.981091
_cell_angle_alpha 90.000000
_cell_angle_beta 90.000000
_cell_angle_gamma 120.000000
_cell_volume 2932.651453
_symmetry_space_group_name_H-M "P 65 2 2"
_symmetry_group_IT_number 179
_symmetry_cell_setting 'hexagonal'
loop_
_space_group_symop_operation_xyz
x,y,z
x-y,x,5/6+z
-y,x-y,2/3+z
-x,-y,1/2+z
-x+y,-x,1/3+z
y,-x+y,1/6+z
x-y,-y,-z
-x,-x+y,1/3-z
y,x,2/3-z
-y,-x,1/6-z
-x+y,y,1/2-z
x,x-y,5/6-z
loop_
_atom_site_type_symbol
_atom_site_label
_atom_site_fract_x
_atom_site_fract_y
_atom_site_fract_z
Si Si1 0.656832 0.544924 0.331483
Si Si2 0.188842 0.396509 0.489151
Si Si3 0.858055 0.929028 0.916667
Si Si4 0.573851 0.256325 0.525796
Si Si5 0.761594 0.777349 0.594431
Si Si6 0.719970 0.859985 0.416667
O O1 0.567035 0.567035 0.333334
O O2 0.706270 0.546501 0.433169
O O3 0.618199 0.435212 0.291853
O O4 0.745645 0.641500 0.278192
O O5 0.254533 0.465595 0.404320
O O6 0.246481 0.347494 0.540976
O O7 0.084022 0.307812 0.452352
O O8 0.921544 0.921544 0.833334
O O9 0.803333 0.978426 0.859505
O O10 0.644866 0.355135 0.583334
O O11 0.573129 0.286565 0.416667
O O12 0.782249 0.857317 0.508424
#
# Coordination Sequence:
#
# PCOD9583386 Si02
#       6
#    12  12   6  12  12   6
#     4  11  22  43  71 106 139 179 240 293 348 419
#     4  11  25  45  71 102 142 187 233 292 353 424
#     4  12  26  45  64  98 146 186 236 291 360 436
#     4  12  26  46  70 102 146 188 235 299 362 422
#     4  11  24  45  71 101 143 187 236 292 355 419
#     4  10  22  41  76 104 136 180 238 305 346 406
#
# _framework density 20.459302000000001
#
# number of rings (size 3 to 8) (size 9 to 14) (size 15 to 20)
#    0.000    0.800    7.000    0.000    1.400    2.400 
#    0.000    0.000    0.000    0.000    0.000    0.000 
#    0.000    0.000    0.000    0.000    0.000    0.000 
#
# Total GULP energy -334714.065521 kJ/mol
# GULP energy per Si atom -5578.567759 kJ/mol
# Density = 2.041274 g / cm^3
# Si number density = 20.459302 Si / 1000 Ang^3
#
#
#
# Elastic Constant Matrix: (Units=GPa)
#
#
# Indices 1 2 3 4 5 6 
#
# 1 60.3823 24.6186 21.7389 0.0000 0.0000 0.0000
# 2 24.6186 60.3823 21.7389 0.0000 0.0000 0.0000
# 3 21.7389 21.7389 126.2048 0.0000 0.0000 0.0000
# 4 0.0000 0.0000 0.0000 37.3708 0.0000 0.0000
# 5 0.0000 0.0000 0.0000 0.0000 37.3708 0.0000
# 6 0.0000 0.0000 0.0000 0.0000 0.0000 17.8818
#
#
#
# Elastic Compliance Matrix: (Units=1/GPa)
#
#
# Indices 1 2 3 4 5 6 
#
# 1 0.020431 -0.007530 -0.002222 0.000000 0.000000 0.000000
# 2 -0.007530 0.020431 -0.002222 0.000000 0.000000 0.000000
# 3 -0.002222 -0.002222 0.008689 0.000000 0.000000 0.000000
# 4 0.000000 0.000000 0.000000 0.026759 0.000000 0.000000
# 5 0.000000 0.000000 0.000000 0.000000 0.026759 0.000000
# 6 0.000000 0.000000 0.000000 0.000000 0.000000 0.055923
#
#
# Mechanical properties :
#
#
# Convention : Reuss Voigt Hill
#
# Bulk Modulus (GPa) = 39.05836 42.57357 40.81597
# Shear Modulus (GPa) = 26.11301 30.44956 28.28128
#
# Velocity S-wave (km/s) = 3.57646 3.86203 3.72199
# Velocity P-wave (km/s) = 6.01556 6.38288 6.20194
#
# Compressibility (1/GPa) = 0.02560271
#
# Stress axis : x y z
#
# Youngs Moduli (GPa) = 48.94453 48.94453 115.08537
#
# Poissons Ratio (x) = 0.36855 0.25575
# Poissons Ratio (y) = 0.36855 0.25575
# Poissons Ratio (z) = 0.10877 0.10877
#
# Static dielectric constant tensor:
#      x y z
#    x 1.751340 0.000000 0.000000 
#    y 0.000000 1.751340 0.000000 
#    z 0.000000 0.000000 1.782180 
# 
# From -- ./inp_files/5840.got.cif
#   From: 2010.05.17/outbox.cif.g08.bks.cpg/sg179_3_cif.got.tgz:5840.got - 2010.05.20 11:37:33.
