data_PCOD9583012
_publ_section_title
;
Structure prediction by ZEFSAII (Michael W. Deem and Ramdas Pophale) SiO2 
 PCOD9583012
Probable space group: P 61 2 2
;
_chemical_formula_sum "Si O2"
_cell_formula_units_Z 36
_cell_length_a 8.101536
_cell_length_b 8.101536
_cell_length_c 24.695401
_cell_angle_alpha 90.000000
_cell_angle_beta 90.000000
_cell_angle_gamma 120.000000
_cell_volume 1403.723099
_symmetry_space_group_name_H-M "P 61 2 2"
_symmetry_group_IT_number 178
_symmetry_cell_setting 'hexagonal'
loop_
_space_group_symop_operation_xyz
x,y,z
x-y,x,1/6+z
-y,x-y,1/3+z
-x,-y,1/2+z
-x+y,-x,2/3+z
y,-x+y,5/6+z
x-y,-y,-z
-x,-x+y,2/3-z
y,x,1/3-z
-y,-x,5/6-z
-x+y,y,1/2-z
x,x-y,1/6-z
loop_
_atom_site_type_symbol
_atom_site_label
_atom_site_fract_x
_atom_site_fract_y
_atom_site_fract_z
Si Si1 0.216573 0.478096 0.314160
Si Si2 0.177590 0.425038 0.508523
Si Si3 0.116099 0.220954 0.886446
O O1 0.228351 0.456701 0.250000
O O2 0.327826 0.376510 0.338934
O O3 0.349465 0.698167 0.332174
O O4 0.000000 0.376925 0.333334
O O5 0.230883 0.309094 0.466232
O O6 0.222128 0.377516 0.568571
O O7 0.000000 0.215775 0.833334
O O8 0.980528 0.019473 0.916667
#
# Coordination Sequence:
#
# PCOD9583012 Si02
#       3
#    12  12  12
#     4  12  29  51  75 114 156 199 258 323 385 460
#     4  11  24  45  79 105 158 203 250 318 392 454
#     4   9  19  41  74 118 154 203 258 317 385 462
#
# _framework density 25.646083000000001
#
# number of rings (size 3 to 8) (size 9 to 14) (size 15 to 20)
#    0.000    1.333    0.000    6.000    4.667    5.333 
#   12.000    1.667    0.000    0.000    0.000    0.000 
#    0.000    0.000    0.000    0.000    0.000    0.000 
#
# Total GULP energy -201948.364177 kJ/mol
# GULP energy per Si atom -5609.676783 kJ/mol
# Density = 2.558771 g / cm^3
# Si number density = 25.646083 Si / 1000 Ang^3
#
#
#
# Elastic Constant Matrix: (Units=GPa)
#
#
# Indices 1 2 3 4 5 6 
#
# 1 177.9606 82.5331 46.1950 0.0000 0.0000 0.0000
# 2 82.5331 177.9606 46.1950 0.0000 0.0000 0.0000
# 3 46.1950 46.1950 153.2453 0.0000 0.0000 0.0000
# 4 0.0000 0.0000 0.0000 19.1530 0.0000 0.0000
# 5 0.0000 0.0000 0.0000 0.0000 19.1530 0.0000
# 6 0.0000 0.0000 0.0000 0.0000 0.0000 47.7138
#
#
#
# Elastic Compliance Matrix: (Units=1/GPa)
#
#
# Indices 1 2 3 4 5 6 
#
# 1 0.007389 -0.003090 -0.001296 0.000000 0.000000 0.000000
# 2 -0.003090 0.007389 -0.001296 0.000000 0.000000 0.000000
# 3 -0.001296 -0.001296 0.007307 0.000000 0.000000 0.000000
# 4 0.000000 0.000000 0.000000 0.052211 0.000000 0.000000
# 5 0.000000 0.000000 0.000000 0.000000 0.052211 0.000000
# 6 0.000000 0.000000 0.000000 0.000000 0.000000 0.020958
#
#
# Mechanical properties :
#
#
# Convention : Reuss Voigt Hill
#
# Bulk Modulus (GPa) = 93.27861 95.44587 94.36224
# Shear Modulus (GPa) = 30.78778 39.48684 35.13731
#
# Velocity S-wave (km/s) = 3.46856 3.92814 3.70548
# Velocity P-wave (km/s) = 7.24511 7.60730 7.42842
#
# Compressibility (1/GPa) = 0.01072057
#
# Stress axis : x y z
#
# Youngs Moduli (GPa) = 135.34009 135.34009 136.86119
#
# Poissons Ratio (x) = 0.41825 0.17734
# Poissons Ratio (y) = 0.41825 0.17734
# Poissons Ratio (z) = 0.17537 0.17537
#
# Static dielectric constant tensor:
#      x y z
#    x 2.061940 0.000000 0.000000 
#    y 0.000000 2.061940 0.000000 
#    z 0.000000 0.000000 2.042550 
# 
# From -- ./inp_files/8493.got.cif
#   From: 2010.05.17/outbox.cif.g08.bks.cpg/sg178_5_cif.got.tgz:8493.got - 2010.05.20 11:30:59.
