data_PCOD9583245
_publ_section_title
;
Structure prediction by ZEFSAII (Michael W. Deem and Ramdas Pophale) SiO2 
 PCOD9583245
Probable space group: P 65 2 2
;
_chemical_formula_sum "Si O2"
_cell_formula_units_Z 78
_cell_length_a 15.974800
_cell_length_b 15.974800
_cell_length_c 15.752348
_cell_angle_alpha 90.000000
_cell_angle_beta 90.000000
_cell_angle_gamma 120.000000
_cell_volume 3481.342794
_symmetry_space_group_name_H-M "P 65 2 2"
_symmetry_group_IT_number 179
_symmetry_cell_setting 'hexagonal'
loop_
_space_group_symop_operation_xyz
x,y,z
x-y,x,5/6+z
-y,x-y,2/3+z
-x,-y,1/2+z
-x+y,-x,1/3+z
y,-x+y,1/6+z
x-y,-y,-z
-x,-x+y,1/3-z
y,x,2/3-z
-y,-x,1/6-z
-x+y,y,1/2-z
x,x-y,5/6-z
loop_
_atom_site_type_symbol
_atom_site_label
_atom_site_fract_x
_atom_site_fract_y
_atom_site_fract_z
Si Si1 0.434478 0.197535 0.554852
Si Si2 0.414599 0.339177 0.447043
Si Si3 0.462504 0.578270 0.682350
Si Si4 0.970559 0.029442 0.083334
Si Si5 0.726400 0.832586 0.501406
Si Si6 0.913792 0.316713 0.609338
Si Si7 0.056387 0.813564 0.807059
O O1 0.462735 0.299686 0.513989
O O2 0.430355 0.126070 0.478415
O O3 0.501502 0.189784 0.625756
O O4 0.328429 0.150893 0.596449
O O5 0.441931 0.449769 0.459503
O O6 0.299408 0.278181 0.464479
O O7 0.441462 0.558539 0.583334
O O8 0.368312 0.507963 0.736767
O O9 0.000000 0.997518 0.166667
O O10 0.019400 0.144192 0.076250
O O11 0.784427 0.892214 0.416667
O O12 0.638538 0.857047 0.498212
O O13 0.673353 0.721776 0.469514
O O14 0.768857 0.844619 0.594037
O O15 0.000000 0.391120 0.666667
#
# Coordination Sequence:
#
# PCOD9583245 Si02
#       7
#    12  12  12   6  12  12  12
#     4  10  21  37  61  95 130 167 210 274 337 402
#     4  10  20  35  60  95 127 159 213 265 330 394
#     4  11  21  35  61  92 127 166 218 273 337 404
#     4  12  26  42  58  84 122 170 210 260 340 396
#     4   8  22  37  57  91 116 160 217 264 328 393
#     4   9  18  36  57  86 119 160 207 264 327 393
#     4  11  19  38  62  89 122 162 218 271 321 400
#
# _framework density 22.405146999999999
#
# number of rings (size 3 to 8) (size 9 to 14) (size 15 to 20)
#    0.923    0.923    0.000    7.385    0.000    3.692 
#    1.385    0.000    3.385    0.000   24.000    0.000 
#    0.000    0.000    0.000    0.000    0.000    0.000 
#
# Total GULP energy -435186.832884 kJ/mol
# GULP energy per Si atom -5579.318370 kJ/mol
# Density = 2.235415 g / cm^3
# Si number density = 22.405147 Si / 1000 Ang^3
#
#
#
# Elastic Constant Matrix: (Units=GPa)
#
#
# Indices 1 2 3 4 5 6 
#
# 1 49.5650 24.8200 29.6175 0.0000 0.0000 0.0000
# 2 24.8200 49.5650 29.6175 0.0000 0.0000 0.0000
# 3 29.6175 29.6175 136.7992 0.0000 0.0000 0.0000
# 4 0.0000 0.0000 0.0000 31.9994 0.0000 0.0000
# 5 0.0000 0.0000 0.0000 0.0000 31.9994 0.0000
# 6 0.0000 0.0000 0.0000 0.0000 0.0000 12.3725
#
#
#
# Elastic Compliance Matrix: (Units=1/GPa)
#
#
# Indices 1 2 3 4 5 6 
#
# 1 0.028328 -0.012084 -0.003517 0.000000 0.000000 0.000000
# 2 -0.012084 0.028328 -0.003517 0.000000 0.000000 0.000000
# 3 -0.003517 -0.003517 0.008833 0.000000 0.000000 0.000000
# 4 0.000000 0.000000 0.000000 0.031251 0.000000 0.000000
# 5 0.000000 0.000000 0.000000 0.000000 0.031251 0.000000
# 6 0.000000 0.000000 0.000000 0.000000 0.000000 0.080824
#
#
# Mechanical properties :
#
#
# Convention : Reuss Voigt Hill
#
# Bulk Modulus (GPa) = 36.69247 44.89323 40.79285
# Shear Modulus (GPa) = 19.52097 25.39920 22.46009
#
# Velocity S-wave (km/s) = 2.95493 3.37060 3.16959
# Velocity P-wave (km/s) = 5.29665 5.93535 5.62508
#
# Compressibility (1/GPa) = 0.02725355
#
# Stress axis : x y z
#
# Youngs Moduli (GPa) = 35.30055 35.30055 113.21398
#
# Poissons Ratio (x) = 0.42657 0.39816
# Poissons Ratio (y) = 0.42657 0.39816
# Poissons Ratio (z) = 0.12415 0.12415
#
# Static dielectric constant tensor:
#      x y z
#    x 1.850490 0.000000 0.000000 
#    y 0.000000 1.850490 0.000000 
#    z 0.000000 0.000000 1.879540 
# 
# From -- ./inp_files/6062.got.cif
#   From: 2010.05.17/outbox.cif.g08.bks.cpg/sg179_4_cif.got.tgz:6062.got - 2010.05.20 11:37:33.
