data_PCOD9583505
_publ_section_title
;
Structure prediction by ZEFSAII (Michael W. Deem and Ramdas Pophale) SiO2 
 PCOD9583505
Probable space group: P 65 2 2
;
_chemical_formula_sum "Si O2"
_cell_formula_units_Z 60
_cell_length_a 12.074465
_cell_length_b 12.074465
_cell_length_c 26.037698
_cell_angle_alpha 90.000000
_cell_angle_beta 90.000000
_cell_angle_gamma 120.000000
_cell_volume 3287.524599
_symmetry_space_group_name_H-M "P 65 2 2"
_symmetry_group_IT_number 179
_symmetry_cell_setting 'hexagonal'
loop_
_space_group_symop_operation_xyz
x,y,z
x-y,x,5/6+z
-y,x-y,2/3+z
-x,-y,1/2+z
-x+y,-x,1/3+z
y,-x+y,1/6+z
x-y,-y,-z
-x,-x+y,1/3-z
y,x,2/3-z
-y,-x,1/6-z
-x+y,y,1/2-z
x,x-y,5/6-z
loop_
_atom_site_type_symbol
_atom_site_label
_atom_site_fract_x
_atom_site_fract_y
_atom_site_fract_z
Si Si1 0.290619 0.494219 0.693103
Si Si2 0.083802 0.222815 0.851842
Si Si3 0.166942 0.336396 0.963366
Si Si4 0.380927 0.749661 0.867306
Si Si5 0.456146 0.459751 0.142478
O O1 0.259766 0.519532 0.750000
O O2 0.177038 0.355332 0.677263
O O3 0.311042 0.610871 0.657853
O O4 0.422593 0.494520 0.680712
O O5 0.113952 0.113952 0.833334
O O6 0.118957 0.254862 0.911304
O O7 0.942294 0.195448 0.837107
O O8 0.284132 0.480829 0.952625
O O9 0.058837 0.367485 0.981365
O O10 0.442105 0.721053 0.916667
O O11 0.473786 0.850416 0.826044
O O12 0.505752 0.494248 0.083334
#
# Coordination Sequence:
#
# PCOD9583505 Si02
#       5
#    12  12  12  12  12
#     4  11  21  35  59  92 123 154 202 257 309 356
#     4  12  23  38  62  91 122 159 203 254 305 360
#     4  11  21  41  61  88 124 164 207 248 305 377
#     4  11  21  38  62  91 124 159 205 258 309 364
#     4  11  21  41  64  87 123 168 206 248 311 381
#
# _framework density 18.250814999999999
#
# number of rings (size 3 to 8) (size 9 to 14) (size 15 to 20)
#    0.000    0.800    6.000    3.600    0.000    1.600 
#    0.000    2.000    0.000    1.200    0.000    0.000 
#    0.000    0.000    0.000    0.000    0.000    0.000 
#
# Total GULP energy -334617.865353 kJ/mol
# GULP energy per Si atom -5576.964423 kJ/mol
# Density = 1.820927 g / cm^3
# Si number density = 18.250815 Si / 1000 Ang^3
#
#
#
# Elastic Constant Matrix: (Units=GPa)
#
#
# Indices 1 2 3 4 5 6 
#
# 1 77.9787 23.5853 13.6428 0.0000 0.0000 0.0000
# 2 23.5853 77.9787 13.6428 0.0000 0.0000 0.0000
# 3 13.6428 13.6428 56.3954 0.0000 0.0000 0.0000
# 4 0.0000 0.0000 0.0000 23.5719 0.0000 0.0000
# 5 0.0000 0.0000 0.0000 0.0000 23.5719 0.0000
# 6 0.0000 0.0000 0.0000 0.0000 0.0000 27.1967
#
#
#
# Elastic Compliance Matrix: (Units=1/GPa)
#
#
# Indices 1 2 3 4 5 6 
#
# 1 0.014457 -0.003927 -0.002547 0.000000 0.000000 0.000000
# 2 -0.003927 0.014457 -0.002547 0.000000 0.000000 0.000000
# 3 -0.002547 -0.002547 0.018964 0.000000 0.000000 0.000000
# 4 0.000000 0.000000 0.000000 0.042423 0.000000 0.000000
# 5 0.000000 0.000000 0.000000 0.000000 0.042423 0.000000
# 6 0.000000 0.000000 0.000000 0.000000 0.000000 0.036769
#
#
# Mechanical properties :
#
#
# Convention : Reuss Voigt Hill
#
# Bulk Modulus (GPa) = 33.51718 34.89942 34.20830
# Shear Modulus (GPa) = 25.31843 25.63356 25.47599
#
# Velocity S-wave (km/s) = 3.72862 3.75175 3.74020
# Velocity P-wave (km/s) = 6.07795 6.15883 6.11852
#
# Compressibility (1/GPa) = 0.02983545
#
# Stress axis : x y z
#
# Youngs Moduli (GPa) = 69.16836 69.16836 52.73022
#
# Poissons Ratio (x) = 0.27163 0.13433
# Poissons Ratio (y) = 0.27163 0.13433
# Poissons Ratio (z) = 0.17620 0.17620
#
# Static dielectric constant tensor:
#      x y z
#    x 1.643760 0.000000 0.000000 
#    y 0.000000 1.643760 0.000000 
#    z 0.000000 0.000000 1.671880 
# 
# From -- ./inp_files/8794.got.cif
#   From: 2010.05.17/outbox.cif.g08.bks.cpg/sg179_5_cif.got.tgz:8794.got - 2010.05.20 11:37:33.
