data_PCOD9583290
_publ_section_title
;
Structure prediction by ZEFSAII (Michael W. Deem and Ramdas Pophale) SiO2 
 PCOD9583290
Probable space group: P 65 2 2
;
_chemical_formula_sum "Si O2"
_cell_formula_units_Z 54
_cell_length_a 15.042216
_cell_length_b 15.042216
_cell_length_c 14.373968
_cell_angle_alpha 90.000000
_cell_angle_beta 90.000000
_cell_angle_gamma 120.000000
_cell_volume 2816.637433
_symmetry_space_group_name_H-M "P 65 2 2"
_symmetry_group_IT_number 179
_symmetry_cell_setting 'hexagonal'
loop_
_space_group_symop_operation_xyz
x,y,z
x-y,x,5/6+z
-y,x-y,2/3+z
-x,-y,1/2+z
-x+y,-x,1/3+z
y,-x+y,1/6+z
x-y,-y,-z
-x,-x+y,1/3-z
y,x,2/3-z
-y,-x,1/6-z
-x+y,y,1/2-z
x,x-y,5/6-z
loop_
_atom_site_type_symbol
_atom_site_label
_atom_site_fract_x
_atom_site_fract_y
_atom_site_fract_z
Si Si1 0.213645 0.914117 0.729326
Si Si2 0.761197 0.238804 0.583334
Si Si3 0.446478 0.223239 0.416667
Si Si4 0.484643 0.596000 0.777499
Si Si5 0.000000 0.117735 0.166667
Si Si6 0.384674 0.141285 0.717946
O O1 0.254278 0.877956 0.643085
O O2 0.095094 0.872703 0.703079
O O3 0.213293 0.853838 0.820304
O O4 0.280024 0.034980 0.736965
O O5 0.830142 0.362931 0.593146
O O6 0.804549 0.228074 0.483571
O O7 0.504732 0.314139 0.345509
O O8 0.534493 0.534493 0.833334
O O9 0.543731 0.655755 0.681107
O O10 0.039387 0.078774 0.250000
#
# Coordination Sequence:
#
# PCOD9583290 Si02
#       6
#    12   6   6  12   6  12
#     4  11  20  40  69 103 132 181 232 288 339 413
#     4  12  30  48  66  99 151 184 232 298 374 442
#     4  10  20  40  74 105 131 170 242 296 340 414
#     4  11  25  47  75 106 138 188 239 303 363 438
#     4  12  22  38  66  98 142 174 228 284 326 392
#     4  11  25  44  70 101 141 186 236 289 356 436
#
# _framework density 19.171797999999999
#
# number of rings (size 3 to 8) (size 9 to 14) (size 15 to 20)
#    0.000    0.889    5.556    0.667    9.333    0.000 
#    2.000    0.000    0.000    0.000    0.000    0.000 
#    0.000    0.000    0.000    0.000    0.000    0.000 
#
# Total GULP energy -300769.010546 kJ/mol
# GULP energy per Si atom -5569.796492 kJ/mol
# Density = 1.912816 g / cm^3
# Si number density = 19.171798 Si / 1000 Ang^3
#
#
#
# Elastic Constant Matrix: (Units=GPa)
#
#
# Indices 1 2 3 4 5 6 
#
# 1 66.8290 20.9884 44.2871 0.0000 0.0000 0.0000
# 2 20.9884 66.8290 44.2871 0.0000 0.0000 0.0000
# 3 44.2871 44.2871 168.9254 0.0000 0.0000 0.0000
# 4 0.0000 0.0000 0.0000 16.3711 0.0000 0.0000
# 5 0.0000 0.0000 0.0000 0.0000 16.3711 0.0000
# 6 0.0000 0.0000 0.0000 0.0000 0.0000 22.9203
#
#
#
# Elastic Compliance Matrix: (Units=1/GPa)
#
#
# Indices 1 2 3 4 5 6 
#
# 1 0.018648 -0.003167 -0.004059 0.000000 0.000000 0.000000
# 2 -0.003167 0.018648 -0.004059 0.000000 0.000000 0.000000
# 3 -0.004059 -0.004059 0.008048 0.000000 0.000000 0.000000
# 4 0.000000 0.000000 0.000000 0.061083 0.000000 0.000000
# 5 0.000000 0.000000 0.000000 0.000000 0.061083 0.000000
# 6 0.000000 0.000000 0.000000 0.000000 0.000000 0.043629
#
#
# Mechanical properties :
#
#
# Convention : Reuss Voigt Hill
#
# Bulk Modulus (GPa) = 43.90751 57.96761 50.93756
# Shear Modulus (GPa) = 20.72115 24.00056 22.36085
#
# Velocity S-wave (km/s) = 3.29114 3.54201 3.41888
# Velocity P-wave (km/s) = 6.11506 6.85779 6.49705
#
# Compressibility (1/GPa) = 0.02277514
#
# Stress axis : x y z
#
# Youngs Moduli (GPa) = 53.62567 53.62567 124.25667
#
# Poissons Ratio (x) = 0.16983 0.50431
# Poissons Ratio (y) = 0.16983 0.50431
# Poissons Ratio (z) = 0.21765 0.21765
#
# Static dielectric constant tensor:
#      x y z
#    x 2.076920 0.000000 0.000000 
#    y 0.000000 2.076920 0.000000 
#    z 0.000000 0.000000 1.652660 
# 
# From -- ./inp_files/5733.got.cif
#   From: 2010.05.17/outbox.cif.g08.bks.cpg/sg179_3_cif.got.tgz:5733.got - 2010.05.20 11:37:33.
