data_PCOD9583724
_publ_section_title
;
Structure prediction by ZEFSAII (Michael W. Deem and Ramdas Pophale) SiO2 
 PCOD9583724
Probable space group: P 62 2 2
;
_chemical_formula_sum "Si O2"
_cell_formula_units_Z 60
_cell_length_a 13.676807
_cell_length_b 13.676807
_cell_length_c 17.340259
_cell_angle_alpha 90.000000
_cell_angle_beta 90.000000
_cell_angle_gamma 120.000000
_cell_volume 2809.025285
_symmetry_space_group_name_H-M "P 62 2 2"
_symmetry_group_IT_number 180
_symmetry_cell_setting 'hexagonal'
loop_
_space_group_symop_operation_xyz
x,y,z
x-y,x,1/3+z
-y,x-y,2/3+z
-x,-y,z
-x+y,-x,1/3+z
y,-x+y,2/3+z
x-y,-y,-z
-x,-x+y,1/3-z
y,x,2/3-z
-y,-x,2/3-z
-x+y,y,-z
x,x-y,1/3-z
loop_
_atom_site_type_symbol
_atom_site_label
_atom_site_fract_x
_atom_site_fract_y
_atom_site_fract_z
Si Si1 0.302833 0.553622 0.126866
Si Si2 0.637115 0.772751 0.413442
Si Si3 0.619893 0.099137 0.342122
Si Si4 0.781915 0.789479 0.998798
Si Si5 0.780192 0.649601 0.423424
O O1 0.344608 0.672304 0.166667
O O2 0.254494 0.456856 0.191027
O O3 0.198764 0.527514 0.070625
O O4 0.390616 0.541043 0.072391
O O5 0.695981 0.698668 0.430798
O O6 0.585750 0.747885 0.325953
O O7 0.734330 0.904455 0.406206
O O8 0.705831 0.051957 0.330640
O O9 0.500000 0.000000 0.368176
O O10 0.751859 0.845524 0.069938
O O11 0.910627 0.821253 0.000000
O O12 0.798083 0.596166 0.500000
#
# Coordination Sequence:
#
# PCOD9583724 Si02
#       5
#    12  12  12  12  12
#     4  11  23  44  70  99 136 168 238 296 339 417
#     4   9  21  36  60  94 132 178 222 269 344 403
#     4  11  24  43  67  98 134 175 223 286 359 403
#     4  10  19  37  59  94 134 171 221 275 334 406
#     4   9  19  36  57  90 136 178 220 265 324 416
#
# _framework density 21.359722999999999
#
# number of rings (size 3 to 8) (size 9 to 14) (size 15 to 20)
#    1.200    0.800    2.000    2.400    0.000    4.400 
#    0.000    4.000    4.400    0.000    0.000    0.000 
#    0.000    0.000    0.000    0.000    0.000    0.000 
#
# Total GULP energy -334726.015372 kJ/mol
# GULP energy per Si atom -5578.766923 kJ/mol
# Density = 2.131111 g / cm^3
# Si number density = 21.359723 Si / 1000 Ang^3
#
#
#
# Elastic Constant Matrix: (Units=GPa)
#
#
# Indices 1 2 3 4 5 6 
#
# 1 46.4457 31.4354 27.8732 0.0000 0.0000 0.0000
# 2 31.4354 46.4457 27.8732 0.0000 0.0000 0.0000
# 3 27.8732 27.8732 126.6582 0.0000 0.0000 0.0000
# 4 0.0000 0.0000 0.0000 11.3121 0.0000 0.0000
# 5 0.0000 0.0000 0.0000 0.0000 11.3121 0.0000
# 6 0.0000 0.0000 0.0000 0.0000 0.0000 7.5052
#
#
#
# Elastic Compliance Matrix: (Units=1/GPa)
#
#
# Indices 1 2 3 4 5 6 
#
# 1 0.040931 -0.025690 -0.003354 0.000000 0.000000 0.000000
# 2 -0.025690 0.040931 -0.003354 0.000000 0.000000 0.000000
# 3 -0.003354 -0.003354 0.009371 0.000000 0.000000 0.000000
# 4 0.000000 0.000000 0.000000 0.088401 0.000000 0.000000
# 5 0.000000 0.000000 0.000000 0.000000 0.088401 0.000000
# 6 0.000000 0.000000 0.000000 0.000000 0.000000 0.133241
#
#
# Mechanical properties :
#
#
# Convention : Reuss Voigt Hill
#
# Bulk Modulus (GPa) = 37.82552 43.76812 40.79682
# Shear Modulus (GPa) = 10.52889 14.85041 12.68965
#
# Velocity S-wave (km/s) = 2.22262 2.63963 2.44005
# Velocity P-wave (km/s) = 4.93294 5.46128 5.20382
#
# Compressibility (1/GPa) = 0.02643717
#
# Stress axis : x y z
#
# Youngs Moduli (GPa) = 24.43148 24.43148 106.70683
#
# Poissons Ratio (x) = 0.62764 0.35789
# Poissons Ratio (y) = 0.62764 0.35789
# Poissons Ratio (z) = 0.08194 0.08194
#
# Static dielectric constant tensor:
#      x y z
#    x 1.753890 0.000000 0.000000 
#    y 0.000000 1.753890 0.000000 
#    z 0.000000 0.000000 1.830790 
# 
# From -- ./inp_files/6085.got.cif
#   From: 2010.05.17/outbox.cif.g08.bks.cpg/sg180_4_cif.got.tgz:6085.got - 2010.05.20 11:43:55.
