data_PCOD9583791
_publ_section_title
;
Structure prediction by ZEFSAII (Michael W. Deem and Ramdas Pophale) SiO2 
 PCOD9583791
Probable space group: P 62 2 2
;
_chemical_formula_sum "Si O2"
_cell_formula_units_Z 60
_cell_length_a 15.427490
_cell_length_b 15.427490
_cell_length_c 13.836633
_cell_angle_alpha 90.000000
_cell_angle_beta 90.000000
_cell_angle_gamma 120.000000
_cell_volume 2852.013657
_symmetry_space_group_name_H-M "P 62 2 2"
_symmetry_group_IT_number 180
_symmetry_cell_setting 'hexagonal'
loop_
_space_group_symop_operation_xyz
x,y,z
x-y,x,1/3+z
-y,x-y,2/3+z
-x,-y,z
-x+y,-x,1/3+z
y,-x+y,2/3+z
x-y,-y,-z
-x,-x+y,1/3-z
y,x,2/3-z
-y,-x,2/3-z
-x+y,y,-z
x,x-y,1/3-z
loop_
_atom_site_type_symbol
_atom_site_label
_atom_site_fract_x
_atom_site_fract_y
_atom_site_fract_z
Si Si1 0.279432 0.281467 0.067033
Si Si2 0.584684 0.801846 0.354557
Si Si3 0.202372 0.897696 0.456697
Si Si4 0.933740 0.548121 0.789054
Si Si5 0.618909 0.239463 0.252622
O O1 0.169825 0.253924 0.103714
O O2 0.351022 0.351444 0.150414
O O3 0.318826 0.206741 0.036019
O O4 0.275184 0.339323 0.969817
O O5 0.607517 0.842346 0.465223
O O6 0.568209 0.691014 0.367841
O O7 0.486850 0.794476 0.306251
O O8 0.219627 0.000000 0.500000
O O9 0.850283 0.472636 0.865344
O O10 0.000000 0.500000 0.764051
O O11 0.703967 0.296034 0.333334
O O12 0.630531 0.315266 0.166667
#
# Coordination Sequence:
#
# PCOD9583791 Si02
#       5
#    12  12  12  12  12
#     4   9  17  32  56  86 125 166 217 269 326 392
#     4  10  20  37  56  83 119 166 219 271 322 387
#     4   8  16  30  55  88 124 166 208 269 333 390
#     4  11  22  37  60  85 119 172 224 276 336 396
#     4  12  25  40  57  82 120 169 219 274 330 387
#
# _framework density 21.037769000000001
#
# number of rings (size 3 to 8) (size 9 to 14) (size 15 to 20)
#    0.000    2.000    4.000    0.000    5.600    0.000 
#    0.000    2.000    0.000    0.000    0.000    0.000 
#    0.000    0.800    8.800    3.200   11.600    0.000 
#
# Total GULP energy -334433.471030 kJ/mol
# GULP energy per Si atom -5573.891184 kJ/mol
# Density = 2.098989 g / cm^3
# Si number density = 21.037769 Si / 1000 Ang^3
#
#
#
# Elastic Constant Matrix: (Units=GPa)
#
#
# Indices 1 2 3 4 5 6 
#
# 1 103.8137 40.9056 50.1613 0.0000 0.0000 0.0000
# 2 40.9056 103.8137 50.1613 0.0000 0.0000 0.0000
# 3 50.1613 50.1613 97.2171 0.0000 0.0000 0.0000
# 4 0.0000 0.0000 0.0000 14.7430 0.0000 0.0000
# 5 0.0000 0.0000 0.0000 0.0000 14.7430 0.0000
# 6 0.0000 0.0000 0.0000 0.0000 0.0000 31.4541
#
#
#
# Elastic Compliance Matrix: (Units=1/GPa)
#
#
# Indices 1 2 3 4 5 6 
#
# 1 0.013327 -0.002569 -0.005551 0.000000 0.000000 0.000000
# 2 -0.002569 0.013327 -0.005551 0.000000 0.000000 0.000000
# 3 -0.005551 -0.005551 0.016014 0.000000 0.000000 0.000000
# 4 0.000000 0.000000 0.000000 0.067829 0.000000 0.000000
# 5 0.000000 0.000000 0.000000 0.000000 0.067829 0.000000
# 6 0.000000 0.000000 0.000000 0.000000 0.000000 0.031792
#
#
# Mechanical properties :
#
#
# Convention : Reuss Voigt Hill
#
# Bulk Modulus (GPa) = 65.24434 65.25568 65.25001
# Shear Modulus (GPa) = 20.61271 23.09576 21.85423
#
# Velocity S-wave (km/s) = 3.13356 3.31694 3.22655
# Velocity P-wave (km/s) = 6.64625 6.76425 6.70551
#
# Compressibility (1/GPa) = 0.01532700
#
# Stress axis : x y z
#
# Youngs Moduli (GPa) = 75.03559 75.03559 62.44416
#
# Poissons Ratio (x) = 0.19278 0.34661
# Poissons Ratio (y) = 0.19278 0.34661
# Poissons Ratio (z) = 0.41650 0.41650
#
# Static dielectric constant tensor:
#      x y z
#    x 1.765870 0.000000 0.000000 
#    y 0.000000 1.765870 0.000000 
#    z 0.000000 0.000000 1.852020 
# 
# From -- ./inp_files/6065.got.cif
#   From: 2010.05.17/outbox.cif.g08.bks.cpg/sg180_4_cif.got.tgz:6065.got - 2010.05.20 11:43:55.
