data_PCOD9583274
_publ_section_title
;
Structure prediction by ZEFSAII (Michael W. Deem and Ramdas Pophale) SiO2 
 PCOD9583274
Probable space group: P 65 2 2
;
_chemical_formula_sum "Si O2"
_cell_formula_units_Z 30
_cell_length_a 13.709979
_cell_length_b 13.709979
_cell_length_c 8.314200
_cell_angle_alpha 90.000000
_cell_angle_beta 90.000000
_cell_angle_gamma 120.000000
_cell_volume 1353.395344
_symmetry_space_group_name_H-M "P 65 2 2"
_symmetry_group_IT_number 179
_symmetry_cell_setting 'hexagonal'
loop_
_space_group_symop_operation_xyz
x,y,z
x-y,x,5/6+z
-y,x-y,2/3+z
-x,-y,1/2+z
-x+y,-x,1/3+z
y,-x+y,1/6+z
x-y,-y,-z
-x,-x+y,1/3-z
y,x,2/3-z
-y,-x,1/6-z
-x+y,y,1/2-z
x,x-y,5/6-z
loop_
_atom_site_type_symbol
_atom_site_label
_atom_site_fract_x
_atom_site_fract_y
_atom_site_fract_z
Si Si1 0.382607 0.195426 0.727103
Si Si2 0.795525 0.000000 0.000000
Si Si3 0.417509 0.835018 0.250000
Si Si4 0.590261 0.000000 0.500000
O O1 0.306866 0.087159 0.616732
O O2 0.512685 0.227254 0.714675
O O3 0.377811 0.309285 0.704329
O O4 0.349023 0.174512 0.916667
O O5 0.820312 0.910156 0.916667
O O6 0.482443 0.912713 0.401654
#
# Coordination Sequence:
#
# PCOD9583274 Si02
#       4
#    12   6   6   6
#     4  10  22  42  65  91 134 174 219 280 339 394
#     4  12  25  39  64  96 128 174 222 267 335 402
#     4  10  20  38  62  92 122 170 222 260 340 394
#     4  10  21  41  62  90 134 170 216 285 327 394
#
# _framework density 22.166471999999999
#
# number of rings (size 3 to 8) (size 9 to 14) (size 15 to 20)
#    0.000    1.600    0.000    6.000    0.000    3.200 
#   10.800    0.000    4.400    0.000    0.000    0.000 
#    0.000    0.000    0.000    0.000    0.000    0.000 
#
# Total GULP energy -167112.012133 kJ/mol
# GULP energy per Si atom -5570.400404 kJ/mol
# Density = 2.211602 g / cm^3
# Si number density = 22.166472 Si / 1000 Ang^3
#
#
#
# Elastic Constant Matrix: (Units=GPa)
#
#
# Indices 1 2 3 4 5 6 
#
# 1 118.6759 85.9513 39.7388 0.0000 0.0000 0.0000
# 2 85.9513 118.6759 39.7388 0.0000 0.0000 0.0000
# 3 39.7388 39.7388 70.7993 0.0000 0.0000 0.0000
# 4 0.0000 0.0000 0.0000 43.0447 0.0000 0.0000
# 5 0.0000 0.0000 0.0000 0.0000 43.0447 0.0000
# 6 0.0000 0.0000 0.0000 0.0000 0.0000 16.3623
#
#
#
# Elastic Compliance Matrix: (Units=1/GPa)
#
#
# Indices 1 2 3 4 5 6 
#
# 1 0.018404 -0.012154 -0.003508 0.000000 0.000000 0.000000
# 2 -0.012154 0.018404 -0.003508 0.000000 0.000000 0.000000
# 3 -0.003508 -0.003508 0.018062 0.000000 0.000000 0.000000
# 4 0.000000 0.000000 0.000000 0.023232 0.000000 0.000000
# 5 0.000000 0.000000 0.000000 0.000000 0.023232 0.000000
# 6 0.000000 0.000000 0.000000 0.000000 0.000000 0.061116
#
#
# Mechanical properties :
#
#
# Convention : Reuss Voigt Hill
#
# Bulk Modulus (GPa) = 60.49595 71.00098 65.74846
# Shear Modulus (GPa) = 24.23672 30.00513 27.12092
#
# Velocity S-wave (km/s) = 3.31024 3.68316 3.50167
# Velocity P-wave (km/s) = 6.47774 7.08434 6.78782
#
# Compressibility (1/GPa) = 0.01653003
#
# Stress axis : x y z
#
# Youngs Moduli (GPa) = 54.33687 54.33687 55.36467
#
# Poissons Ratio (x) = 0.66043 0.19420
# Poissons Ratio (y) = 0.66043 0.19420
# Poissons Ratio (z) = 0.19060 0.19060
#
# Static dielectric constant tensor:
#      x y z
#    x 1.846710 0.000000 0.000000 
#    y 0.000000 1.846710 0.000000 
#    z 0.000000 0.000000 2.299380 
# 
# From -- ./inp_files/2074.got.cif
#   From: 2010.05.17/outbox.cif.g08.bks.cpg/sg179_2_cif.got.tgz:2074.got - 2010.05.20 11:37:33.
