data_PCOD9583240
_publ_section_title
;
Structure prediction by ZEFSAII (Michael W. Deem and Ramdas Pophale) SiO2 
 PCOD9583240
Probable space group: P 65 2 2
;
_chemical_formula_sum "Si O2"
_cell_formula_units_Z 60
_cell_length_a 15.060817
_cell_length_b 15.060817
_cell_length_c 14.761281
_cell_angle_alpha 90.000000
_cell_angle_beta 90.000000
_cell_angle_gamma 120.000000
_cell_volume 2899.691146
_symmetry_space_group_name_H-M "P 65 2 2"
_symmetry_group_IT_number 179
_symmetry_cell_setting 'hexagonal'
loop_
_space_group_symop_operation_xyz
x,y,z
x-y,x,5/6+z
-y,x-y,2/3+z
-x,-y,1/2+z
-x+y,-x,1/3+z
y,-x+y,1/6+z
x-y,-y,-z
-x,-x+y,1/3-z
y,x,2/3-z
-y,-x,1/6-z
-x+y,y,1/2-z
x,x-y,5/6-z
loop_
_atom_site_type_symbol
_atom_site_label
_atom_site_fract_x
_atom_site_fract_y
_atom_site_fract_z
Si Si1 0.480856 0.550286 0.923671
Si Si2 0.715358 0.472505 0.635606
Si Si3 0.237542 0.342296 0.673502
Si Si4 0.255232 0.875089 0.847553
Si Si5 0.565126 0.424880 0.983240
O O1 0.523831 0.523831 0.833334
O O2 0.361619 0.466560 0.938665
O O3 0.549626 0.524237 0.992682
O O4 0.488212 0.660655 0.940145
O O5 0.611695 0.388306 0.583334
O O6 0.757016 0.577636 0.581000
O O7 0.793103 0.434980 0.596833
O O8 0.152378 0.304756 0.750000
O O9 0.283156 0.268220 0.666734
O O10 0.194773 0.358486 0.580341
O O11 0.329455 0.453945 0.703777
O O12 0.595947 0.404054 0.083334
#
# Coordination Sequence:
#
# PCOD9583240 Si02
#       5
#    12  12  12  12  12
#     4  10  21  36  53  78 113 153 202 256 305 369
#     4  10  21  35  53  77 107 153 205 247 300 374
#     4  11  20  33  54  82 114 154 190 246 308 367
#     4  10  20  35  55  79 113 156 197 244 313 376
#     4  11  20  36  56  76 111 154 197 242 306 363
#
# _framework density 20.691858
#
# number of rings (size 3 to 8) (size 9 to 14) (size 15 to 20)
#    0.000    1.600    2.000    6.600    0.000    0.800 
#    0.000    0.000    0.000    0.000    0.000    0.000 
#    0.000    6.400    0.000    8.200    0.000    0.000 
#
# Total GULP energy -334445.268200 kJ/mol
# GULP energy per Si atom -5574.087803 kJ/mol
# Density = 2.064476 g / cm^3
# Si number density = 20.691858 Si / 1000 Ang^3
#
#
#
# Elastic Constant Matrix: (Units=GPa)
#
#
# Indices 1 2 3 4 5 6 
#
# 1 251.4821 -130.1865 -2.7829 0.0000 0.0000 0.0000
# 2 -130.1865 251.4821 -2.7829 0.0000 0.0000 0.0000
# 3 -2.7829 -2.7829 63.1961 0.0000 0.0000 0.0000
# 4 0.0000 0.0000 0.0000 -64.8779 0.0000 0.0000
# 5 0.0000 0.0000 0.0000 0.0000 -64.8779 0.0000
# 6 0.0000 0.0000 0.0000 0.0000 0.0000 190.8343
#
#
#
# Elastic Compliance Matrix: (Units=1/GPa)
#
#
# Indices 1 2 3 4 5 6 
#
# 1 0.005441 0.002820 0.000364 0.000000 0.000000 0.000000
# 2 0.002820 0.005441 0.000364 0.000000 0.000000 0.000000
# 3 0.000364 0.000364 0.015856 0.000000 0.000000 0.000000
# 4 0.000000 0.000000 0.000000 -0.015414 0.000000 0.000000
# 5 0.000000 0.000000 0.000000 0.000000 -0.015414 0.000000
# 6 0.000000 0.000000 0.000000 0.000000 0.000000 0.005240
#
#
# Mechanical properties :
#
#
# Convention : Reuss Voigt Hill
#
# Bulk Modulus (GPa) = 29.55700 32.73955 31.14827
# Shear Modulus (GPa) = 937.82605 59.00989 498.41797
#
# Velocity S-wave (km/s) = 21.31240 5.34606 15.53703
# Velocity P-wave (km/s) = 24.89859 7.34601 18.35625
#
# Compressibility (1/GPa) = 0.03383294
#
# Stress axis : x y z
#
# Youngs Moduli (GPa) = 183.80522 183.80522 63.06838
#
# Poissons Ratio (x) = -0.51842 -0.02294
# Poissons Ratio (y) = -0.51842 -0.02294
# Poissons Ratio (z) = -0.06686 -0.06686
#
# Static dielectric constant tensor:
#      x y z
#    x 1.782470 0.000000 0.000000 
#    y 0.000000 1.782470 0.000000 
#    z 0.000000 0.000000 2.398610 
# 
# From -- ./inp_files/5779.got.cif
#   From: 2010.05.17/outbox.cif.g08.bks.cpg/sg179_3_cif.got.tgz:5779.got - 2010.05.20 11:37:33.
