data_PCOD9583252
_publ_section_title
;
Structure prediction by ZEFSAII (Michael W. Deem and Ramdas Pophale) SiO2 
 PCOD9583252
Probable space group: P 65 2 2
;
_chemical_formula_sum "Si O2"
_cell_formula_units_Z 48
_cell_length_a 17.605354
_cell_length_b 17.605354
_cell_length_c 8.453297
_cell_angle_alpha 90.000000
_cell_angle_beta 90.000000
_cell_angle_gamma 120.000000
_cell_volume 2269.061587
_symmetry_space_group_name_H-M "P 65 2 2"
_symmetry_group_IT_number 179
_symmetry_cell_setting 'hexagonal'
loop_
_space_group_symop_operation_xyz
x,y,z
x-y,x,5/6+z
-y,x-y,2/3+z
-x,-y,1/2+z
-x+y,-x,1/3+z
y,-x+y,1/6+z
x-y,-y,-z
-x,-x+y,1/3-z
y,x,2/3-z
-y,-x,1/6-z
-x+y,y,1/2-z
x,x-y,5/6-z
loop_
_atom_site_type_symbol
_atom_site_label
_atom_site_fract_x
_atom_site_fract_y
_atom_site_fract_z
Si Si1 0.522936 0.761468 0.916667
Si Si2 0.957879 0.134366 0.341089
Si Si3 0.235393 0.382025 0.536226
Si Si4 0.840007 0.420004 0.916667
Si Si5 0.336480 0.435883 0.834007
O O1 0.585867 0.740864 0.809575
O O2 0.460099 0.782362 0.813615
O O3 0.915823 0.193982 0.390002
O O4 0.032823 0.147019 0.466688
O O5 0.000000 0.167702 0.166667
O O6 0.315788 0.443697 0.651270
O O7 0.157815 0.401193 0.581789
O O8 0.891552 0.409131 0.767993
O O9 0.361830 0.361830 0.833334
#
# Coordination Sequence:
#
# PCOD9583252 Si02
#       5
#     6  12  12   6  12
#     4  10  22  40  62  89 120 154 200 251 316 392
#     4  10  20  36  57  86 123 166 213 264 316 366
#     4  10  21  39  62  86 119 164 208 249 307 385
#     4  10  24  40  60  89 118 152 194 249 314 374
#     4  10  22  40  60  88 119 154 201 252 305 368
#
# _framework density 21.154118
#
# number of rings (size 3 to 8) (size 9 to 14) (size 15 to 20)
#    0.000    2.000    0.000    3.000    0.000    9.000 
#    0.000   21.250    0.000    0.000    0.000    0.000 
#    0.000    0.000    0.000    0.000    0.000    0.000 
#
# Total GULP energy -267667.084980 kJ/mol
# GULP energy per Si atom -5576.397604 kJ/mol
# Density = 2.110597 g / cm^3
# Si number density = 21.154118 Si / 1000 Ang^3
#
#
#
# Elastic Constant Matrix: (Units=GPa)
#
#
# Indices 1 2 3 4 5 6 
#
# 1 81.0542 21.2557 40.4723 0.0000 0.0000 0.0000
# 2 21.2557 81.0542 40.4723 0.0000 0.0000 0.0000
# 3 40.4723 40.4723 96.4581 0.0000 0.0000 0.0000
# 4 0.0000 0.0000 0.0000 -1.9292 0.0000 0.0000
# 5 0.0000 0.0000 0.0000 0.0000 -1.9292 0.0000
# 6 0.0000 0.0000 0.0000 0.0000 0.0000 29.8993
#
#
#
# Elastic Compliance Matrix: (Units=1/GPa)
#
#
# Indices 1 2 3 4 5 6 
#
# 1 0.015677 -0.001046 -0.006139 0.000000 0.000000 0.000000
# 2 -0.001046 0.015677 -0.006139 0.000000 0.000000 0.000000
# 3 -0.006139 -0.006139 0.015519 0.000000 0.000000 0.000000
# 4 0.000000 0.000000 0.000000 -0.518345 0.000000 0.000000
# 5 0.000000 0.000000 0.000000 0.000000 -0.518345 0.000000
# 6 0.000000 0.000000 0.000000 0.000000 0.000000 0.033446
#
#
# Mechanical properties :
#
#
# Convention : Reuss Voigt Hill
#
# Bulk Modulus (GPa) = 49.44324 51.44080 50.44202
# Shear Modulus (GPa) = -5.41723 15.63258 5.10767
#
# Velocity S-wave (km/s) = -1.60200 2.72138 1.55555
# Velocity P-wave (km/s) = 4.47233 5.85188 5.20798
#
# Compressibility (1/GPa) = 0.02022521
#
# Stress axis : x y z
#
# Youngs Moduli (GPa) = 63.78757 63.78757 64.43758
#
# Poissons Ratio (x) = 0.06671 0.39559
# Poissons Ratio (y) = 0.06671 0.39559
# Poissons Ratio (z) = 0.39159 0.39159
#
# Static dielectric constant tensor:
#      x y z
#    x 1.756750 0.000000 0.000000 
#    y 0.000000 1.756750 0.000000 
#    z 0.000000 0.000000 1.949020 
# 
# From -- ./inp_files/2838.got.cif
#   From: 2010.05.17/outbox.cif.g08.bks.cpg/sg179_2_cif.got.tgz:2838.got - 2010.05.20 11:37:33.
