data_PCOD9583580
_publ_section_title
;
Structure prediction by ZEFSAII (Michael W. Deem and Ramdas Pophale) SiO2 
 PCOD9583580
Probable space group: P 65 2 2
;
_chemical_formula_sum "Si O2"
_cell_formula_units_Z 60
_cell_length_a 14.031072
_cell_length_b 14.031072
_cell_length_c 16.221573
_cell_angle_alpha 90.000000
_cell_angle_beta 90.000000
_cell_angle_gamma 120.000000
_cell_volume 2765.701488
_symmetry_space_group_name_H-M "P 65 2 2"
_symmetry_group_IT_number 179
_symmetry_cell_setting 'hexagonal'
loop_
_space_group_symop_operation_xyz
x,y,z
x-y,x,5/6+z
-y,x-y,2/3+z
-x,-y,1/2+z
-x+y,-x,1/3+z
y,-x+y,1/6+z
x-y,-y,-z
-x,-x+y,1/3-z
y,x,2/3-z
-y,-x,1/6-z
-x+y,y,1/2-z
x,x-y,5/6-z
loop_
_atom_site_type_symbol
_atom_site_label
_atom_site_fract_x
_atom_site_fract_y
_atom_site_fract_z
Si Si1 0.235928 0.969768 0.123819
Si Si2 0.453562 0.907123 0.750000
Si Si3 0.794557 0.062496 0.809601
Si Si4 0.050992 0.556396 0.080512
Si Si5 0.535434 0.803621 0.068242
Si Si6 0.843642 0.687284 0.750000
O O1 0.126867 0.873134 0.083334
O O2 0.259697 0.968868 0.220734
O O3 0.332900 0.955829 0.084062
O O4 0.226686 0.079333 0.118875
O O5 0.323020 0.824204 0.742264
O O6 0.488673 0.981723 0.832510
O O7 0.752491 0.131153 0.859865
O O8 0.763658 0.955378 0.865061
O O9 0.168736 0.561951 0.083796
O O10 0.000000 0.496607 0.166667
O O11 0.605349 0.849770 0.983647
#
# Coordination Sequence:
#
# PCOD9583580 Si02
#       6
#    12   6  12  12  12   6
#     4  12  27  48  71 104 150 199 250 307 381 465
#     4  12  26  50  71 114 157 192 264 310 378 466
#     4  12  24  49  73 106 149 193 248 318 383 444
#     4  12  25  47  76 104 150 199 247 317 381 452
#     4  12  25  44  76 112 149 199 248 319 379 452
#     4  12  24  48  77 110 147 192 260 322 388 454
#
# _framework density 21.694313999999999
#
# number of rings (size 3 to 8) (size 9 to 14) (size 15 to 20)
#    0.000    0.000    4.000    7.200    1.400    0.000 
#    5.400    3.000    0.000    0.000    0.000    0.000 
#    0.000    0.000    0.000    0.000    0.000    0.000 
#
# Total GULP energy -335108.554194 kJ/mol
# GULP energy per Si atom -5585.142570 kJ/mol
# Density = 2.164494 g / cm^3
# Si number density = 21.694314 Si / 1000 Ang^3
#
#
#
# Elastic Constant Matrix: (Units=GPa)
#
#
# Indices 1 2 3 4 5 6 
#
# 1 126.0665 74.0678 36.2799 0.0000 0.0000 0.0000
# 2 74.0678 126.0665 36.2799 0.0000 0.0000 0.0000
# 3 36.2799 36.2799 88.6500 0.0000 0.0000 0.0000
# 4 0.0000 0.0000 0.0000 18.8277 0.0000 0.0000
# 5 0.0000 0.0000 0.0000 0.0000 18.8277 0.0000
# 6 0.0000 0.0000 0.0000 0.0000 0.0000 25.9993
#
#
#
# Elastic Compliance Matrix: (Units=1/GPa)
#
#
# Indices 1 2 3 4 5 6 
#
# 1 0.012549 -0.006682 -0.002401 0.000000 0.000000 0.000000
# 2 -0.006682 0.012549 -0.002401 0.000000 0.000000 0.000000
# 3 -0.002401 -0.002401 0.013246 0.000000 0.000000 0.000000
# 4 0.000000 0.000000 0.000000 0.053113 0.000000 0.000000
# 5 0.000000 0.000000 0.000000 0.000000 0.053113 0.000000
# 6 0.000000 0.000000 0.000000 0.000000 0.000000 0.038463
#
#
# Mechanical properties :
#
#
# Convention : Reuss Voigt Hill
#
# Bulk Modulus (GPa) = 65.03869 70.44870 67.74370
# Shear Modulus (GPa) = 23.68245 25.67464 24.67855
#
# Velocity S-wave (km/s) = 3.30759 3.44390 3.37643
# Velocity P-wave (km/s) = 6.68068 6.95397 6.81870
#
# Compressibility (1/GPa) = 0.01537546
#
# Stress axis : x y z
#
# Youngs Moduli (GPa) = 79.68619 79.68619 75.49647
#
# Poissons Ratio (x) = 0.53247 0.18128
# Poissons Ratio (y) = 0.53247 0.18128
# Poissons Ratio (z) = 0.19134 0.19134
#
# Static dielectric constant tensor:
#      x y z
#    x 1.844100 0.000000 0.000000 
#    y 0.000000 1.844100 0.000000 
#    z 0.000000 0.000000 2.027410 
# 
# From -- ./inp_files/5831.got.cif
#   From: 2010.05.17/outbox.cif.g08.bks.cpg/sg179_3_cif.got.tgz:5831.got - 2010.05.20 11:37:33.
