data_PCOD9583309
_publ_section_title
;
Structure prediction by ZEFSAII (Michael W. Deem and Ramdas Pophale) SiO2 
 PCOD9583309
Probable space group: P 65 2 2
;
_chemical_formula_sum "Si O2"
_cell_formula_units_Z 36
_cell_length_a 16.268133
_cell_length_b 16.268133
_cell_length_c 7.759088
_cell_angle_alpha 90.000000
_cell_angle_beta 90.000000
_cell_angle_gamma 120.000000
_cell_volume 1778.347947
_symmetry_space_group_name_H-M "P 65 2 2"
_symmetry_group_IT_number 179
_symmetry_cell_setting 'hexagonal'
loop_
_space_group_symop_operation_xyz
x,y,z
x-y,x,5/6+z
-y,x-y,2/3+z
-x,-y,1/2+z
-x+y,-x,1/3+z
y,-x+y,1/6+z
x-y,-y,-z
-x,-x+y,1/3-z
y,x,2/3-z
-y,-x,1/6-z
-x+y,y,1/2-z
x,x-y,5/6-z
loop_
_atom_site_type_symbol
_atom_site_label
_atom_site_fract_x
_atom_site_fract_y
_atom_site_fract_z
Si Si1 0.869179 0.626377 0.579982
Si Si2 0.379698 0.820477 0.560701
Si Si3 0.177434 0.000000 0.500000
Si Si4 0.759212 0.518424 0.250000
O O1 0.819957 0.639913 0.750000
O O2 0.888011 0.542429 0.641464
O O3 0.799921 0.581808 0.419220
O O4 0.952018 0.732052 0.536682
O O5 0.282806 0.717195 0.583334
O O6 0.425175 0.850350 0.750000
O O7 0.450657 0.803751 0.443215
O O8 0.161251 0.080626 0.416667
#
# Coordination Sequence:
#
# PCOD9583309 Si02
#       4
#    12  12   6   6
#     4  10  21  37  62  93 135 171 219 283 333 392
#     4  11  17  29  55  96 141 190 222 244 300 390
#     4  10  24  52  74  92 120 168 224 314 382 406
#     4  12  18  32  62 100 140 192 224 250 312 414
#
# _framework density 20.243507999999999
#
# number of rings (size 3 to 8) (size 9 to 14) (size 15 to 20)
#    0.000    1.333    8.333    1.000    0.000    0.000 
#    3.000    8.333    0.000    0.000    0.000    0.000 
#    0.000    0.000    0.000    0.000    0.000    0.000 
#
# Total GULP energy -200662.555065 kJ/mol
# GULP energy per Si atom -5573.959863 kJ/mol
# Density = 2.019743 g / cm^3
# Si number density = 20.243508 Si / 1000 Ang^3
#
#
#
# Elastic Constant Matrix: (Units=GPa)
#
#
# Indices 1 2 3 4 5 6 
#
# 1 130.6478 59.2777 33.4964 0.0000 0.0000 0.0000
# 2 59.2777 130.6478 33.4964 0.0000 0.0000 0.0000
# 3 33.4964 33.4964 101.6926 0.0000 0.0000 0.0000
# 4 0.0000 0.0000 0.0000 5.7025 0.0000 0.0000
# 5 0.0000 0.0000 0.0000 0.0000 5.7025 0.0000
# 6 0.0000 0.0000 0.0000 0.0000 0.0000 35.6851
#
#
#
# Elastic Compliance Matrix: (Units=1/GPa)
#
#
# Indices 1 2 3 4 5 6 
#
# 1 0.009984 -0.004027 -0.001962 0.000000 0.000000 0.000000
# 2 -0.004027 0.009984 -0.001962 0.000000 0.000000 0.000000
# 3 -0.001962 -0.001962 0.011126 0.000000 0.000000 0.000000
# 4 0.000000 0.000000 0.000000 0.175363 0.000000 0.000000
# 5 0.000000 0.000000 0.000000 0.000000 0.175363 0.000000
# 6 0.000000 0.000000 0.000000 0.000000 0.000000 0.028023
#
#
# Mechanical properties :
#
#
# Convention : Reuss Voigt Hill
#
# Bulk Modulus (GPa) = 65.82472 68.39214 67.10843
# Shear Modulus (GPa) = 11.60603 25.19919 18.40261
#
# Velocity S-wave (km/s) = 2.39701 3.53200 3.01834
# Velocity P-wave (km/s) = 6.34413 7.10574 6.73570
#
# Compressibility (1/GPa) = 0.01519186
#
# Stress axis : x y z
#
# Youngs Moduli (GPa) = 100.15601 100.15601 89.87734
#
# Poissons Ratio (x) = 0.40333 0.17637
# Poissons Ratio (y) = 0.40333 0.17637
# Poissons Ratio (z) = 0.19654 0.19654
#
# Static dielectric constant tensor:
#      x y z
#    x 1.791940 0.000000 0.000000 
#    y 0.000000 1.791940 0.000000 
#    z 0.000000 0.000000 1.716040 
# 
# From -- ./inp_files/2317.got.cif
#   From: 2010.05.17/outbox.cif.g08.bks.cpg/sg179_2_cif.got.tgz:2317.got - 2010.05.20 11:37:33.
