data_PCOD9583391
_publ_section_title
;
Structure prediction by ZEFSAII (Michael W. Deem and Ramdas Pophale) SiO2 
 PCOD9583391
Probable space group: P 65 2 2
;
_chemical_formula_sum "Si O2"
_cell_formula_units_Z 60
_cell_length_a 15.507363
_cell_length_b 15.507363
_cell_length_c 12.389997
_cell_angle_alpha 90.000000
_cell_angle_beta 90.000000
_cell_angle_gamma 120.000000
_cell_volume 2580.344779
_symmetry_space_group_name_H-M "P 65 2 2"
_symmetry_group_IT_number 179
_symmetry_cell_setting 'hexagonal'
loop_
_space_group_symop_operation_xyz
x,y,z
x-y,x,5/6+z
-y,x-y,2/3+z
-x,-y,1/2+z
-x+y,-x,1/3+z
y,-x+y,1/6+z
x-y,-y,-z
-x,-x+y,1/3-z
y,x,2/3-z
-y,-x,1/6-z
-x+y,y,1/2-z
x,x-y,5/6-z
loop_
_atom_site_type_symbol
_atom_site_label
_atom_site_fract_x
_atom_site_fract_y
_atom_site_fract_z
Si Si1 0.128222 0.986062 0.333259
Si Si2 0.235927 0.512383 0.419617
Si Si3 0.448680 0.285102 0.016114
Si Si4 0.091439 0.572409 0.725759
Si Si5 0.336639 0.018559 0.307547
O O1 0.027877 0.889983 0.377487
O O2 0.131584 0.065792 0.416667
O O3 0.230794 0.989452 0.357324
O O4 0.233128 0.616564 0.416667
O O5 0.251896 0.484372 0.543064
O O6 0.328008 0.517878 0.349385
O O7 0.131967 0.416638 0.383884
O O8 0.357905 0.303848 0.038723
O O9 0.424694 0.212347 0.916667
O O10 0.534490 0.390290 0.973804
O O11 0.000000 0.477433 0.666667
O O12 0.024798 0.610711 0.783831
#
# Coordination Sequence:
#
# PCOD9583391 Si02
#       5
#    12  12  12  12  12
#     4  10  22  42  68  98 137 180 232 307 369 435
#     4  11  24  45  73 105 146 190 242 299 364 432
#     4  11  26  47  67 102 152 192 240 294 353 438
#     4  11  26  44  68 102 143 187 237 294 359 430
#     4  11  24  43  70 107 139 186 241 301 362 428
#
# _framework density 23.252707000000001
#
# number of rings (size 3 to 8) (size 9 to 14) (size 15 to 20)
#    0.000    1.200    0.000    6.600   11.200    0.000 
#    0.000    5.000    0.000    0.000    0.000    0.000 
#    0.000    0.000    0.000    0.000    0.000    0.000 
#
# Total GULP energy -334428.682059 kJ/mol
# GULP energy per Si atom -5573.811368 kJ/mol
# Density = 2.319978 g / cm^3
# Si number density = 23.252707 Si / 1000 Ang^3
#
#
#
# Elastic Constant Matrix: (Units=GPa)
#
#
# Indices 1 2 3 4 5 6 
#
# 1 82.8565 3.7645 22.2022 0.0000 0.0000 0.0000
# 2 3.7645 82.8565 22.2022 0.0000 0.0000 0.0000
# 3 22.2022 22.2022 72.0337 0.0000 0.0000 0.0000
# 4 0.0000 0.0000 0.0000 -327.4546 -0.0001 0.0000
# 5 0.0000 0.0000 0.0000 -0.0001 -327.4546 0.0000
# 6 0.0000 0.0000 0.0000 0.0000 0.0000 39.5460
#
#
#
# Elastic Compliance Matrix: (Units=1/GPa)
#
#
# Indices 1 2 3 4 5 6 
#
# 1 0.013177 0.000534 -0.004226 0.000000 0.000000 0.000000
# 2 0.000534 0.013177 -0.004226 0.000000 0.000000 0.000000
# 3 -0.004226 -0.004226 0.016487 0.000000 0.000000 0.000000
# 4 0.000000 0.000000 0.000000 -0.003054 0.000000 0.000000
# 5 0.000000 0.000000 0.000000 0.000000 -0.003054 0.000000
# 6 0.000000 0.000000 0.000000 0.000000 0.000000 0.025287
#
#
# Mechanical properties :
#
#
# Convention : Reuss Voigt Hill
#
# Bulk Modulus (GPa) = 37.02968 37.12050 37.07509
# Shear Modulus (GPa) = 57.56426 -110.43413 -26.43493
#
# Velocity S-wave (km/s) = 4.98093 -6.89899 -3.37538
# Velocity P-wave (km/s) = 7.00279 6.88933 0.88773
#
# Compressibility (1/GPa) = 0.02700536
#
# Stress axis : x y z
#
# Youngs Moduli (GPa) = 75.88862 75.88862 60.65221
#
# Poissons Ratio (x) = -0.04050 0.25631
# Poissons Ratio (y) = -0.04050 0.25631
# Poissons Ratio (z) = 0.32070 0.32070
#
# Static dielectric constant tensor:
#      x y z
#    x 3.903340 0.000000 0.000000 
#    y 0.000000 3.903340 0.000000 
#    z 0.000000 0.000000 1.991720 
# 
# From -- ./inp_files/5790.got.cif
#   From: 2010.05.17/outbox.cif.g08.bks.cpg/sg179_3_cif.got.tgz:5790.got - 2010.05.20 11:37:33.
