data_PCOD9583014
_publ_section_title
;
Structure prediction by ZEFSAII (Michael W. Deem and Ramdas Pophale) SiO2 
 PCOD9583014
Probable space group: P 61 2 2
;
_chemical_formula_sum "Si O2"
_cell_formula_units_Z 54
_cell_length_a 10.183641
_cell_length_b 10.183641
_cell_length_c 26.332639
_cell_angle_alpha 90.000000
_cell_angle_beta 90.000000
_cell_angle_gamma 120.000000
_cell_volume 2365.000184
_symmetry_space_group_name_H-M "P 61 2 2"
_symmetry_group_IT_number 178
_symmetry_cell_setting 'hexagonal'
loop_
_space_group_symop_operation_xyz
x,y,z
x-y,x,1/6+z
-y,x-y,1/3+z
-x,-y,1/2+z
-x+y,-x,2/3+z
y,-x+y,5/6+z
x-y,-y,-z
-x,-x+y,2/3-z
y,x,1/3-z
-y,-x,5/6-z
-x+y,y,1/2-z
x,x-y,1/6-z
loop_
_atom_site_type_symbol
_atom_site_label
_atom_site_fract_x
_atom_site_fract_y
_atom_site_fract_z
Si Si1 0.866578 0.174527 0.012174
Si Si2 0.270387 0.766062 0.611716
Si Si3 0.869704 0.863762 0.798757
Si Si4 0.735586 0.264415 0.916667
Si Si5 0.597608 0.547299 0.539645
O O1 0.821122 0.202875 0.067709
O O2 0.036304 0.200690 0.012500
O O3 0.812035 0.240907 0.966649
O O4 0.768166 0.000000 0.000000
O O5 0.325580 0.662790 0.583334
O O6 0.152822 0.666224 0.655667
O O7 0.422528 0.915626 0.630491
O O8 0.726687 0.703724 0.785376
O O9 0.973066 0.946133 0.750000
O O10 0.000000 0.866368 0.833334
O O11 0.553168 0.170286 0.917499
#
# Coordination Sequence:
#
# PCOD9583014 Si02
#       5
#    12  12  12   6  12
#     4  11  24  46  79 101 144 198 256 307 384 476
#     4  12  26  49  74 111 159 202 258 326 395 476
#     4  11  26  47  73 105 147 195 253 317 390 473
#     4  12  24  44  74 110 142 196 246 316 380 470
#     4  12  27  46  74 113 151 203 260 325 403 473
#
# _framework density 22.832979000000002
#
# number of rings (size 3 to 8) (size 9 to 14) (size 15 to 20)
#    0.000    0.444    4.444    3.333    6.222    3.556 
#    4.000    0.000    0.000    0.000    0.000    0.000 
#    0.000    0.000    0.000    0.000    0.000    0.000 
#
# Total GULP energy -301330.546283 kJ/mol
# GULP energy per Si atom -5580.195302 kJ/mol
# Density = 2.278101 g / cm^3
# Si number density = 22.832979 Si / 1000 Ang^3
#
#
#
# Elastic Constant Matrix: (Units=GPa)
#
#
# Indices 1 2 3 4 5 6 
#
# 1 100.2090 74.3612 38.8909 0.0000 0.0000 0.0000
# 2 74.3612 100.2090 38.8909 0.0000 0.0000 0.0000
# 3 38.8909 38.8909 109.3537 0.0000 0.0000 0.0000
# 4 0.0000 0.0000 0.0000 32.0051 0.0000 0.0000
# 5 0.0000 0.0000 0.0000 0.0000 32.0051 0.0000
# 6 0.0000 0.0000 0.0000 0.0000 0.0000 12.9239
#
#
#
# Elastic Compliance Matrix: (Units=1/GPa)
#
#
# Indices 1 2 3 4 5 6 
#
# 1 0.022748 -0.015941 -0.002421 0.000000 0.000000 0.000000
# 2 -0.015941 0.022748 -0.002421 0.000000 0.000000 0.000000
# 3 -0.002421 -0.002421 0.010867 0.000000 0.000000 0.000000
# 4 0.000000 0.000000 0.000000 0.031245 0.000000 0.000000
# 5 0.000000 0.000000 0.000000 0.000000 0.031245 0.000000
# 6 0.000000 0.000000 0.000000 0.000000 0.000000 0.077376
#
#
# Mechanical properties :
#
#
# Convention : Reuss Voigt Hill
#
# Bulk Modulus (GPa) = 67.58073 68.22861 67.90467
# Shear Modulus (GPa) = 20.59949 25.89542 23.24745
#
# Velocity S-wave (km/s) = 3.00689 3.37133 3.19431
# Velocity P-wave (km/s) = 6.45889 6.71572 6.58856
#
# Compressibility (1/GPa) = 0.01479712
#
# Stress axis : x y z
#
# Youngs Moduli (GPa) = 43.96086 43.96086 92.02546
#
# Poissons Ratio (x) = 0.70076 0.22278
# Poissons Ratio (y) = 0.70076 0.22278
# Poissons Ratio (z) = 0.10642 0.10642
#
# Static dielectric constant tensor:
#      x y z
#    x 2.041310 0.000000 0.000000 
#    y 0.000000 2.041310 0.000000 
#    z 0.000000 0.000000 2.315970 
# 
# From -- ./inp_files/8168.got.cif
#   From: 2010.05.17/outbox.cif.g08.bks.cpg/sg178_5_cif.got.tgz:8168.got - 2010.05.20 11:30:59.
