data_PCOD9583829
_publ_section_title
;
Structure prediction by ZEFSAII (Michael W. Deem and Ramdas Pophale) SiO2 
 PCOD9583829
Probable space group: P 62 2 2
;
_chemical_formula_sum "Si O2"
_cell_formula_units_Z 72
_cell_length_a 14.749359
_cell_length_b 14.749359
_cell_length_c 18.178879
_cell_angle_alpha 90.000000
_cell_angle_beta 90.000000
_cell_angle_gamma 120.000000
_cell_volume 3424.869466
_symmetry_space_group_name_H-M "P 62 2 2"
_symmetry_group_IT_number 180
_symmetry_cell_setting 'hexagonal'
loop_
_space_group_symop_operation_xyz
x,y,z
x-y,x,1/3+z
-y,x-y,2/3+z
-x,-y,z
-x+y,-x,1/3+z
y,-x+y,2/3+z
x-y,-y,-z
-x,-x+y,1/3-z
y,x,2/3-z
-y,-x,2/3-z
-x+y,y,-z
x,x-y,1/3-z
loop_
_atom_site_type_symbol
_atom_site_label
_atom_site_fract_x
_atom_site_fract_y
_atom_site_fract_z
Si Si1 0.420994 0.539250 0.673552
Si Si2 0.405855 0.594146 0.833334
Si Si3 0.000000 0.500000 0.554073
Si Si4 0.073816 0.809639 0.406467
Si Si5 0.173436 0.499890 0.874087
Si Si6 0.000000 0.339409 0.666667
Si Si7 0.797068 0.797068 0.833334
Si Si8 0.671534 0.879784 0.355909
O O1 0.500000 0.500000 0.648480
O O2 0.447382 0.573301 0.757981
O O3 0.442520 0.632946 0.619055
O O4 0.303610 0.443636 0.672501
O O5 0.280801 0.539198 0.831184
O O6 0.899700 0.428195 0.505810
O O7 0.023296 0.421714 0.601266
O O8 0.144305 0.855696 0.333334
O O9 0.112627 0.737129 0.445104
O O10 0.102046 0.907637 0.459320
O O11 0.957021 0.745734 0.375189
O O12 0.901068 0.227924 0.645306
O O13 0.770393 0.712569 0.767400
#
# Coordination Sequence:
#
# PCOD9583829 Si02
#       8
#    12   6   6  12  12   6   6  12
#     4  12  24  42  67 102 140 181 231 287 348 423
#     4  12  27  36  68 104 142 178 230 283 350 418
#     4  11  24  46  66  89 130 186 228 287 350 412
#     4  10  20  40  65  96 132 173 216 283 344 408
#     4  12  24  45  64  99 140 182 233 288 346 425
#     4  11  26  46  71  94 132 182 243 286 352 437
#     4  10  22  40  70  98 132 176 218 278 357 407
#     4  11  24  43  69  97 135 177 229 283 352 418
#
# _framework density 21.022698999999999
#
# number of rings (size 3 to 8) (size 9 to 14) (size 15 to 20)
#    0.000    0.833    2.500    4.750    7.000    0.000 
#    0.000    8.750    0.000    0.000    0.000    0.000 
#    0.000    0.000    0.000    0.000    0.000    0.000 
#
# Total GULP energy -402541.729890 kJ/mol
# GULP energy per Si atom -5590.857360 kJ/mol
# Density = 2.097485 g / cm^3
# Si number density = 21.022699 Si / 1000 Ang^3
#
#
#
# Elastic Constant Matrix: (Units=GPa)
#
#
# Indices 1 2 3 4 5 6 
#
# 1 107.6272 47.9357 34.6939 0.0000 0.0000 0.0000
# 2 47.9357 107.6272 34.6939 0.0000 0.0000 0.0000
# 3 34.6939 34.6939 105.5779 0.0000 0.0000 0.0000
# 4 0.0000 0.0000 0.0000 21.5384 0.0000 0.0000
# 5 0.0000 0.0000 0.0000 0.0000 21.5384 0.0000
# 6 0.0000 0.0000 0.0000 0.0000 0.0000 29.8457
#
#
#
# Elastic Compliance Matrix: (Units=1/GPa)
#
#
# Indices 1 2 3 4 5 6 
#
# 1 0.012143 -0.004610 -0.002475 0.000000 0.000000 0.000000
# 2 -0.004610 0.012143 -0.002475 0.000000 0.000000 0.000000
# 3 -0.002475 -0.002475 0.011098 0.000000 0.000000 0.000000
# 4 0.000000 0.000000 0.000000 0.046429 0.000000 0.000000
# 5 0.000000 0.000000 0.000000 0.000000 0.046429 0.000000
# 6 0.000000 0.000000 0.000000 0.000000 0.000000 0.033506
#
#
# Mechanical properties :
#
#
# Convention : Reuss Voigt Hill
#
# Bulk Modulus (GPa) = 61.49199 61.71994 61.60597
# Shear Modulus (GPa) = 26.84006 28.15174 27.49590
#
# Velocity S-wave (km/s) = 3.57700 3.66336 3.62043
# Velocity P-wave (km/s) = 6.80982 6.87867 6.84433
#
# Compressibility (1/GPa) = 0.01626228
#
# Stress axis : x y z
#
# Youngs Moduli (GPa) = 82.35494 82.35494 90.10288
#
# Poissons Ratio (x) = 0.37968 0.22302
# Poissons Ratio (y) = 0.37968 0.22302
# Poissons Ratio (z) = 0.20384 0.20384
#
# Static dielectric constant tensor:
#      x y z
#    x 1.758680 0.000000 0.000000 
#    y 0.000000 1.758680 0.000000 
#    z 0.000000 0.000000 1.789050 
# 
# From -- ./inp_files/7882.got.cif
#   From: 2010.05.17/outbox.cif.g08.bks.cpg/sg180_4_cif.got.tgz:7882.got - 2010.05.20 11:43:55.
