data_PCOD9583954
_publ_section_title
;
Structure prediction by ZEFSAII (Michael W. Deem and Ramdas Pophale) SiO2 
 PCOD9583954
Probable space group: P 62 2 2
;
_chemical_formula_sum "Si O2"
_cell_formula_units_Z 69
_cell_length_a 11.824886
_cell_length_b 11.824886
_cell_length_c 25.396809
_cell_angle_alpha 90.000000
_cell_angle_beta 90.000000
_cell_angle_gamma 120.000000
_cell_volume 3075.414868
_symmetry_space_group_name_H-M "P 62 2 2"
_symmetry_group_IT_number 180
_symmetry_cell_setting 'hexagonal'
loop_
_space_group_symop_operation_xyz
x,y,z
x-y,x,1/3+z
-y,x-y,2/3+z
-x,-y,z
-x+y,-x,1/3+z
y,-x+y,2/3+z
x-y,-y,-z
-x,-x+y,1/3-z
y,x,2/3-z
-y,-x,2/3-z
-x+y,y,-z
x,x-y,1/3-z
loop_
_atom_site_type_symbol
_atom_site_label
_atom_site_fract_x
_atom_site_fract_y
_atom_site_fract_z
Si Si1 0.027997 0.384019 0.909424
Si Si2 0.740111 0.884457 0.961299
Si Si3 0.500000 0.000000 0.500000
Si Si4 0.792797 0.544116 0.619782
Si Si5 0.272250 0.311214 0.467409
Si Si6 0.706512 0.413023 0.000000
Si Si7 0.901680 0.603823 0.070014
O O1 0.158081 0.388180 0.927690
O O2 0.000000 0.500000 0.920592
O O3 0.901669 0.262799 0.935252
O O4 0.034059 0.372997 0.846649
O O5 0.727350 0.743967 0.949947
O O6 0.756730 0.949246 0.904209
O O7 0.604255 0.853063 0.990184
O O8 0.847693 0.000000 0.000000
O O9 0.620613 0.070019 0.457733
O O10 0.891248 0.568322 0.572888
O O11 0.682083 0.396022 0.623634
O O12 0.145260 0.290519 0.500000
O O13 0.640500 0.491307 0.974401
#
# Coordination Sequence:
#
# PCOD9583954 Si02
#       7
#    12  12   3  12  12   6  12
#     4  11  22  41  63  91 133 180 232 281 354 428
#     4  10  22  44  69 100 140 183 242 299 365 427
#     4  12  28  44  68 116 154 196 256 314 406 450
#     4  10  22  41  64  96 131 175 234 290 347 425
#     4   9  21  41  65  93 130 178 228 288 343 420
#     4  12  24  42  70 102 138 190 238 298 368 438
#     4  12  25  42  69 101 146 188 240 309 367 454
#
# _framework density 22.435995999999999
#
# number of rings (size 3 to 8) (size 9 to 14) (size 15 to 20)
#    0.000    1.391    1.739    3.130    0.000    2.783 
#    0.000   23.478    0.000    0.000    0.000    0.000 
#    0.000    0.000    0.000    0.000    0.000    0.000 
#
# Total GULP energy -384559.439938 kJ/mol
# GULP energy per Si atom -5573.325216 kJ/mol
# Density = 2.238493 g / cm^3
# Si number density = 22.435996 Si / 1000 Ang^3
#
#
#
# Elastic Constant Matrix: (Units=GPa)
#
#
# Indices 1 2 3 4 5 6 
#
# 1 81.8516 29.0832 32.1512 0.0000 0.0000 0.0000
# 2 29.0832 81.8516 32.1512 0.0000 0.0000 0.0000
# 3 32.1512 32.1512 133.3605 0.0000 0.0000 0.0000
# 4 0.0000 0.0000 0.0000 24.1060 0.0000 0.0000
# 5 0.0000 0.0000 0.0000 0.0000 24.1060 0.0000
# 6 0.0000 0.0000 0.0000 0.0000 0.0000 26.3842
#
#
#
# Elastic Compliance Matrix: (Units=1/GPa)
#
#
# Indices 1 2 3 4 5 6 
#
# 1 0.014715 -0.004236 -0.002526 0.000000 0.000000 0.000000
# 2 -0.004236 0.014715 -0.002526 0.000000 0.000000 0.000000
# 3 -0.002526 -0.002526 0.008717 0.000000 0.000000 0.000000
# 4 0.000000 0.000000 0.000000 0.041483 0.000000 0.000000
# 5 0.000000 0.000000 0.000000 0.000000 0.041483 0.000000
# 6 0.000000 0.000000 0.000000 0.000000 0.000000 0.037901
#
#
# Mechanical properties :
#
#
# Convention : Reuss Voigt Hill
#
# Bulk Modulus (GPa) = 51.10167 53.75943 52.43055
# Shear Modulus (GPa) = 27.15705 28.49778 27.82741
#
# Velocity S-wave (km/s) = 3.48289 3.56783 3.52561
# Velocity P-wave (km/s) = 6.24501 6.40201 6.32400
#
# Compressibility (1/GPa) = 0.01956883
#
# Stress axis : x y z
#
# Youngs Moduli (GPa) = 67.95937 67.95937 114.72432
#
# Poissons Ratio (x) = 0.28788 0.28982
# Poissons Ratio (y) = 0.28788 0.28982
# Poissons Ratio (z) = 0.17168 0.17168
#
# Static dielectric constant tensor:
#      x y z
#    x 1.875400 0.000000 0.000000 
#    y 0.000000 1.875400 0.000000 
#    z 0.000000 0.000000 1.898720 
# 
# From -- ./inp_files/12348.got.cif
#   From: 2010.05.17/outbox.cif.g08.bks.cpg/sg180_7_cif.got.tgz:12348.got - 2010.05.20 11:43:55.
