data_PCOD9583330
_publ_section_title
;
Structure prediction by ZEFSAII (Michael W. Deem and Ramdas Pophale) SiO2 
 PCOD9583330
Probable space group: P 65 2 2
;
_chemical_formula_sum "Si O2"
_cell_formula_units_Z 42
_cell_length_a 13.262456
_cell_length_b 13.262456
_cell_length_c 13.472166
_cell_angle_alpha 90.000000
_cell_angle_beta 90.000000
_cell_angle_gamma 120.000000
_cell_volume 2052.182450
_symmetry_space_group_name_H-M "P 65 2 2"
_symmetry_group_IT_number 179
_symmetry_cell_setting 'hexagonal'
loop_
_space_group_symop_operation_xyz
x,y,z
x-y,x,5/6+z
-y,x-y,2/3+z
-x,-y,1/2+z
-x+y,-x,1/3+z
y,-x+y,1/6+z
x-y,-y,-z
-x,-x+y,1/3-z
y,x,2/3-z
-y,-x,1/6-z
-x+y,y,1/2-z
x,x-y,5/6-z
loop_
_atom_site_type_symbol
_atom_site_label
_atom_site_fract_x
_atom_site_fract_y
_atom_site_fract_z
Si Si1 0.793033 0.396517 0.416667
Si Si2 0.635212 0.780884 0.027640
Si Si3 0.768709 0.655562 0.065032
Si Si4 0.167915 0.167915 0.833334
Si Si5 0.383553 0.767106 0.750000
O O1 0.863680 0.330295 0.444513
O O2 0.708287 0.391295 0.503200
O O3 0.730701 0.751644 0.067227
O O4 0.632535 0.862668 0.113783
O O5 0.508592 0.665023 0.032410
O O6 0.658150 0.829075 0.916667
O O7 0.895292 0.713367 0.117328
O O8 0.067571 0.135141 0.750000
#
# Coordination Sequence:
#
# PCOD9583330 Si02
#       5
#     6  12  12   6   6
#     4  10  23  40  66  98 130 173 224 286 354 426
#     4  11  22  41  63  96 132 174 225 283 347 418
#     4  11  24  42  67  96 136 176 231 280 350 415
#     4  12  26  48  68 100 138 190 240 292 344 424
#     4  10  21  40  64  92 132 169 222 284 354 426
#
# _framework density 20.466014999999999
#
# number of rings (size 3 to 8) (size 9 to 14) (size 15 to 20)
#    0.000    1.143    4.286    1.714    2.000    1.143 
#    0.000    0.000    0.000    0.000    0.000    0.000 
#    0.000    0.000    0.000    0.000    0.000    0.000 
#
# Total GULP energy -234109.586825 kJ/mol
# GULP energy per Si atom -5574.037782 kJ/mol
# Density = 2.041943 g / cm^3
# Si number density = 20.466015 Si / 1000 Ang^3
#
#
#
# Elastic Constant Matrix: (Units=GPa)
#
#
# Indices 1 2 3 4 5 6 
#
# 1 66.4445 20.3670 16.3004 0.0000 0.0000 0.0000
# 2 20.3670 66.4445 16.3004 0.0000 0.0000 0.0000
# 3 16.3004 16.3004 81.5650 0.0000 0.0000 0.0000
# 4 0.0000 0.0000 0.0000 31.8763 0.0000 0.0000
# 5 0.0000 0.0000 0.0000 0.0000 31.8763 0.0000
# 6 0.0000 0.0000 0.0000 0.0000 0.0000 23.0388
#
#
#
# Elastic Compliance Matrix: (Units=1/GPa)
#
#
# Indices 1 2 3 4 5 6 
#
# 1 0.017078 -0.004624 -0.002489 0.000000 0.000000 0.000000
# 2 -0.004624 0.017078 -0.002489 0.000000 0.000000 0.000000
# 3 -0.002489 -0.002489 0.013255 0.000000 0.000000 0.000000
# 4 0.000000 0.000000 0.000000 0.031371 0.000000 0.000000
# 5 0.000000 0.000000 0.000000 0.000000 0.031371 0.000000
# 6 0.000000 0.000000 0.000000 0.000000 0.000000 0.043405
#
#
# Mechanical properties :
#
#
# Convention : Reuss Voigt Hill
#
# Bulk Modulus (GPa) = 35.45186 35.59884 35.52535
# Shear Modulus (GPa) = 27.44758 28.12403 27.78580
#
# Velocity S-wave (km/s) = 3.66612 3.71102 3.68864
# Velocity P-wave (km/s) = 5.93974 5.98282 5.96131
#
# Compressibility (1/GPa) = 0.02820727
#
# Stress axis : x y z
#
# Youngs Moduli (GPa) = 58.55418 58.55418 75.44368
#
# Poissons Ratio (x) = 0.27077 0.18777
# Poissons Ratio (y) = 0.27077 0.18777
# Poissons Ratio (z) = 0.14573 0.14573
#
# Static dielectric constant tensor:
#      x y z
#    x 1.765300 0.000000 0.000000 
#    y 0.000000 1.765300 0.000000 
#    z 0.000000 0.000000 1.713360 
# 
# From -- ./inp_files/4145.got.cif
#   From: 2010.05.17/outbox.cif.g08.bks.cpg/sg179_3_cif.got.tgz:4145.got - 2010.05.20 11:37:33.
