data_PCOD9583925
_publ_section_title
;
Structure prediction by ZEFSAII (Michael W. Deem and Ramdas Pophale) SiO2 
 PCOD9583925
Probable space group: P 62 2 2
;
_chemical_formula_sum "Si O2"
_cell_formula_units_Z 60
_cell_length_a 17.925289
_cell_length_b 17.925289
_cell_length_c 12.514707
_cell_angle_alpha 90.000000
_cell_angle_beta 90.000000
_cell_angle_gamma 120.000000
_cell_volume 3482.440063
_symmetry_space_group_name_H-M "P 62 2 2"
_symmetry_group_IT_number 180
_symmetry_cell_setting 'hexagonal'
loop_
_space_group_symop_operation_xyz
x,y,z
x-y,x,1/3+z
-y,x-y,2/3+z
-x,-y,z
-x+y,-x,1/3+z
y,-x+y,2/3+z
x-y,-y,-z
-x,-x+y,1/3-z
y,x,2/3-z
-y,-x,2/3-z
-x+y,y,-z
x,x-y,1/3-z
loop_
_atom_site_type_symbol
_atom_site_label
_atom_site_fract_x
_atom_site_fract_y
_atom_site_fract_z
Si Si1 0.518102 0.599240 0.525806
Si Si2 0.095373 0.364228 0.034847
Si Si3 0.264688 0.365506 0.713806
Si Si4 0.331144 0.838348 0.809121
Si Si5 0.635023 0.726628 0.337821
O O1 0.500000 0.500000 0.526364
O O2 0.561102 0.654727 0.631594
O O3 0.421276 0.578150 0.510948
O O4 0.576246 0.660354 0.430212
O O5 0.105120 0.385348 0.160638
O O6 0.996367 0.285598 0.021339
O O7 0.175030 0.350060 0.000000
O O8 0.322518 0.447717 0.638526
O O9 0.168533 0.345955 0.689519
O O10 0.256841 0.743160 0.833334
O O11 0.311424 0.892570 0.896104
O O12 0.720673 0.720673 0.333334
#
# Coordination Sequence:
#
# PCOD9583925 Si02
#       5
#    12  12  12  12  12
#     4  12  21  37  62  88 117 163 202 250 301 357
#     4  11  22  40  62  85 118 158 208 243 295 365
#     4  10  22  39  59  87 118 157 198 252 295 362
#     4  10  22  37  55  86 118 148 202 250 301 350
#     4  11  20  35  63  90 115 149 196 250 304 361
#
# _framework density 17.229299000000001
#
# number of rings (size 3 to 8) (size 9 to 14) (size 15 to 20)
#    0.000    1.200    6.000    0.600    0.000    0.800 
#    0.000    4.000    0.000    0.600    0.000    2.800 
#    0.000    0.000    0.000    0.000    0.000    0.000 
#
# Total GULP energy -334276.066523 kJ/mol
# GULP energy per Si atom -5571.267775 kJ/mol
# Density = 1.719008 g / cm^3
# Si number density = 17.229299 Si / 1000 Ang^3
#
#
#
# Elastic Constant Matrix: (Units=GPa)
#
#
# Indices 1 2 3 4 5 6 
#
# 1 96.3678 40.5139 21.8079 0.0000 0.0000 0.0000
# 2 40.5139 96.3678 21.8079 0.0000 0.0000 0.0000
# 3 21.8079 21.8079 92.1874 0.0000 0.0000 0.0000
# 4 0.0000 0.0000 0.0000 4.7646 0.0000 0.0000
# 5 0.0000 0.0000 0.0000 0.0000 4.7646 0.0000
# 6 0.0000 0.0000 0.0000 0.0000 0.0000 27.9269
#
#
#
# Elastic Compliance Matrix: (Units=1/GPa)
#
#
# Indices 1 2 3 4 5 6 
#
# 1 0.012903 -0.005001 -0.001869 0.000000 0.000000 0.000000
# 2 -0.005001 0.012903 -0.001869 0.000000 0.000000 0.000000
# 3 -0.001869 -0.001869 0.011732 0.000000 0.000000 0.000000
# 4 0.000000 0.000000 0.000000 0.209883 0.000000 0.000000
# 5 0.000000 0.000000 0.000000 0.000000 0.209883 0.000000
# 6 0.000000 0.000000 0.000000 0.000000 0.000000 0.035808
#
#
# Mechanical properties :
#
#
# Convention : Reuss Voigt Hill
#
# Bulk Modulus (GPa) = 49.85623 50.35360 50.10492
# Shear Modulus (GPa) = 9.66602 20.87742 15.27172
#
# Velocity S-wave (km/s) = 2.37116 3.48478 2.98044
# Velocity P-wave (km/s) = 6.04121 6.74393 6.40222
#
# Compressibility (1/GPa) = 0.02005767
#
# Stress axis : x y z
#
# Youngs Moduli (GPa) = 77.50433 77.50433 85.23858
#
# Poissons Ratio (x) = 0.38763 0.15932
# Poissons Ratio (y) = 0.38763 0.15932
# Poissons Ratio (z) = 0.14486 0.14486
#
# Static dielectric constant tensor:
#      x y z
#    x 1.622830 0.000000 0.000000 
#    y 0.000000 1.622830 0.000000 
#    z 0.000000 0.000000 1.615050 
# 
# From -- ./inp_files/6250.got.cif
#   From: 2010.05.17/outbox.cif.g08.bks.cpg/sg180_4_cif.got.tgz:6250.got - 2010.05.20 11:43:55.
