data_PCOD9583253
_publ_section_title
;
Structure prediction by ZEFSAII (Michael W. Deem and Ramdas Pophale) SiO2 
 PCOD9583253
Probable space group: P 65 2 2
;
_chemical_formula_sum "Si O2"
_cell_formula_units_Z 60
_cell_length_a 15.580485
_cell_length_b 15.580485
_cell_length_c 13.797813
_cell_angle_alpha 90.000000
_cell_angle_beta 90.000000
_cell_angle_gamma 120.000000
_cell_volume 2900.700111
_symmetry_space_group_name_H-M "P 65 2 2"
_symmetry_group_IT_number 179
_symmetry_cell_setting 'hexagonal'
loop_
_space_group_symop_operation_xyz
x,y,z
x-y,x,5/6+z
-y,x-y,2/3+z
-x,-y,1/2+z
-x+y,-x,1/3+z
y,-x+y,1/6+z
x-y,-y,-z
-x,-x+y,1/3-z
y,x,2/3-z
-y,-x,1/6-z
-x+y,y,1/2-z
x,x-y,5/6-z
loop_
_atom_site_type_symbol
_atom_site_label
_atom_site_fract_x
_atom_site_fract_y
_atom_site_fract_z
Si Si1 0.448247 0.371262 0.531971
Si Si2 0.201398 0.574505 0.806083
Si Si3 0.086862 0.173723 0.750000
Si Si4 0.575597 0.822594 0.106593
Si Si5 0.907669 0.261066 0.469968
Si Si6 0.645699 0.645699 0.833334
O O1 0.529815 0.470186 0.583334
O O2 0.466859 0.282109 0.556475
O O3 0.343675 0.339983 0.581773
O O4 0.433946 0.380732 0.418842
O O5 0.300732 0.601464 0.750000
O O6 0.153004 0.638945 0.772090
O O7 0.133071 0.455184 0.801556
O O8 0.224821 0.612411 0.916667
O O9 0.113106 0.113106 0.833334
O O10 0.186224 0.253801 0.691980
O O11 0.613788 0.826686 0.216046
O O12 0.659772 0.913055 0.046569
#
# Coordination Sequence:
#
# PCOD9583253 Si02
#       6
#    12  12   6  12  12   6
#     4  11  22  40  61  95 134 179 233 286 341 415
#     4  10  20  36  57  90 133 176 223 278 329 397
#     4  12  26  48  80 106 136 168 226 288 356 426
#     4  10  21  37  60  92 136 177 233 279 335 408
#     4  10  21  42  65  97 132 176 221 277 349 420
#     4  10  22  38  58  80 128 178 224 280 342 400
#
# _framework density 20.684660000000001
#
# number of rings (size 3 to 8) (size 9 to 14) (size 15 to 20)
#    0.000    1.600    1.000    5.400    0.000    4.800 
#   10.800    0.000   19.800    0.000    0.000    0.000 
#    0.000    0.000    0.000    0.000    0.000    0.000 
#
# Total GULP energy -334367.832650 kJ/mol
# GULP energy per Si atom -5572.797211 kJ/mol
# Density = 2.063758 g / cm^3
# Si number density = 20.684660 Si / 1000 Ang^3
#
#
#
# Elastic Constant Matrix: (Units=GPa)
#
#
# Indices 1 2 3 4 5 6 
#
# 1 71.4880 16.0520 47.6749 0.0000 0.0000 0.0000
# 2 16.0520 71.4880 47.6749 0.0000 0.0000 0.0000
# 3 47.6749 47.6749 110.7107 0.0000 0.0000 0.0000
# 4 0.0000 0.0000 0.0000 26.0260 0.0000 0.0000
# 5 0.0000 0.0000 0.0000 0.0000 26.0260 0.0000
# 6 0.0000 0.0000 0.0000 0.0000 0.0000 27.7180
#
#
#
# Elastic Compliance Matrix: (Units=1/GPa)
#
#
# Indices 1 2 3 4 5 6 
#
# 1 0.019777 0.001738 -0.009265 0.000000 0.000000 0.000000
# 2 0.001738 0.019777 -0.009265 0.000000 0.000000 0.000000
# 3 -0.009265 -0.009265 0.017012 0.000000 0.000000 0.000000
# 4 0.000000 0.000000 0.000000 0.038423 0.000000 0.000000
# 5 0.000000 0.000000 0.000000 0.000000 0.038423 0.000000
# 6 0.000000 0.000000 0.000000 0.000000 0.000000 0.036078
#
#
# Mechanical properties :
#
#
# Convention : Reuss Voigt Hill
#
# Bulk Modulus (GPa) = 43.51212 52.94339 48.22776
# Shear Modulus (GPa) = 23.72666 25.43965 24.58315
#
# Velocity S-wave (km/s) = 3.39051 3.51077 3.45116
# Velocity P-wave (km/s) = 6.03399 6.48730 6.26475
#
# Compressibility (1/GPa) = 0.02298210
#
# Stress axis : x y z
#
# Youngs Moduli (GPa) = 50.56441 50.56441 58.78243
#
# Poissons Ratio (x) = -0.08788 0.54461
# Poissons Ratio (y) = -0.08788 0.54461
# Poissons Ratio (z) = 0.46847 0.46847
#
# Static dielectric constant tensor:
#      x y z
#    x 1.802040 0.000000 0.000000 
#    y 0.000000 1.802040 0.000000 
#    z 0.000000 0.000000 1.841640 
# 
# From -- ./inp_files/5881.got.cif
#   From: 2010.05.17/outbox.cif.g08.bks.cpg/sg179_3_cif.got.tgz:5881.got - 2010.05.20 11:37:33.
