data_PCOD9583080
_publ_section_title
;
Structure prediction by ZEFSAII (Michael W. Deem and Ramdas Pophale) SiO2 
 PCOD9583080
Probable space group: P 61 2 2
;
_chemical_formula_sum "Si O2"
_cell_formula_units_Z 30
_cell_length_a 10.367955
_cell_length_b 10.367955
_cell_length_c 13.528244
_cell_angle_alpha 90.000000
_cell_angle_beta 90.000000
_cell_angle_gamma 120.000000
_cell_volume 1259.384276
_symmetry_space_group_name_H-M "P 61 2 2"
_symmetry_group_IT_number 178
_symmetry_cell_setting 'hexagonal'
loop_
_space_group_symop_operation_xyz
x,y,z
x-y,x,1/6+z
-y,x-y,1/3+z
-x,-y,1/2+z
-x+y,-x,2/3+z
y,-x+y,5/6+z
x-y,-y,-z
-x,-x+y,2/3-z
y,x,1/3-z
-y,-x,5/6-z
-x+y,y,1/2-z
x,x-y,1/6-z
loop_
_atom_site_type_symbol
_atom_site_label
_atom_site_fract_x
_atom_site_fract_y
_atom_site_fract_z
Si Si1 0.615137 0.000000 0.500000
Si Si2 0.366732 0.880960 0.345429
Si Si3 0.068873 0.234493 0.086261
O O1 0.525714 0.009799 0.593641
O O2 0.781013 0.135060 0.523917
O O3 0.248247 0.751754 0.416667
O O4 0.408302 0.816604 0.250000
O O5 0.301397 0.980154 0.302774
O O6 0.959320 0.124345 0.168857
#
# Coordination Sequence:
#
# PCOD9583080 Si02
#       3
#     6  12  12
#     4  12  28  50  84 122 156 224 270 344 418 486
#     4  12  29  55  82 120 168 221 279 347 424 507
#     4  12  28  54  82 120 166 214 277 343 415 495
#
# _framework density 23.821166000000002
#
# number of rings (size 3 to 8) (size 9 to 14) (size 15 to 20)
#    0.000    0.000    4.000    3.600    0.000   11.200 
#    0.000    0.000    0.000    0.000    0.000    0.000 
#    0.000    0.000    0.000    0.000    0.000    0.000 
#
# Total GULP energy -168030.706438 kJ/mol
# GULP energy per Si atom -5601.023548 kJ/mol
# Density = 2.376695 g / cm^3
# Si number density = 23.821166 Si / 1000 Ang^3
#
#
#
# Elastic Constant Matrix: (Units=GPa)
#
#
# Indices 1 2 3 4 5 6 
#
# 1 142.1795 100.1386 114.0577 0.0000 0.0000 0.0000
# 2 100.1386 142.1795 114.0577 0.0000 0.0000 0.0000
# 3 114.0577 114.0577 243.4061 0.0000 0.0000 0.0000
# 4 0.0000 0.0000 0.0000 63.4375 0.0000 0.0000
# 5 0.0000 0.0000 0.0000 0.0000 63.4375 0.0000
# 6 0.0000 0.0000 0.0000 0.0000 0.0000 21.0205
#
#
#
# Elastic Compliance Matrix: (Units=1/GPa)
#
#
# Indices 1 2 3 4 5 6 
#
# 1 0.015585 -0.008201 -0.003460 0.000000 0.000000 0.000000
# 2 -0.008201 0.015585 -0.003460 0.000000 0.000000 0.000000
# 3 -0.003460 -0.003460 0.007351 0.000000 0.000000 0.000000
# 4 0.000000 0.000000 0.000000 0.015764 0.000000 0.000000
# 5 0.000000 0.000000 0.000000 0.000000 0.015764 0.000000
# 6 0.000000 0.000000 0.000000 0.000000 0.000000 0.047573
#
#
# Mechanical properties :
#
#
# Convention : Reuss Voigt Hill
#
# Bulk Modulus (GPa) = 120.78945 131.58589 126.18767
# Shear Modulus (GPa) = 33.19530 42.87983 38.03757
#
# Velocity S-wave (km/s) = 3.73704 4.24733 4.00033
# Velocity P-wave (km/s) = 8.33291 8.91134 8.62698
#
# Compressibility (1/GPa) = 0.00827887
#
# Stress axis : x y z
#
# Youngs Moduli (GPa) = 64.16328 64.16328 136.03352
#
# Poissons Ratio (x) = 0.52621 0.47069
# Poissons Ratio (y) = 0.52621 0.47069
# Poissons Ratio (z) = 0.22201 0.22201
#
# Static dielectric constant tensor:
#      x y z
#    x 1.896740 0.000000 0.000000 
#    y 0.000000 1.896740 0.000000 
#    z 0.000000 0.000000 1.957610 
# 
# From -- ./inp_files/5015.got.cif
#   From: 2010.05.17/outbox.cif.g08.bks.cpg/sg178_3_cif.got.tgz:5015.got - 2010.05.20 11:30:59.
