data_PCOD9583963
_publ_section_title
;
Structure prediction by ZEFSAII (Michael W. Deem and Ramdas Pophale) SiO2 
 PCOD9583963
Probable space group: P 62 2 2
;
_chemical_formula_sum "Si O2"
_cell_formula_units_Z 69
_cell_length_a 14.856125
_cell_length_b 14.856125
_cell_length_c 17.576964
_cell_angle_alpha 90.000000
_cell_angle_beta 90.000000
_cell_angle_gamma 120.000000
_cell_volume 3359.584623
_symmetry_space_group_name_H-M "P 62 2 2"
_symmetry_group_IT_number 180
_symmetry_cell_setting 'hexagonal'
loop_
_space_group_symop_operation_xyz
x,y,z
x-y,x,1/3+z
-y,x-y,2/3+z
-x,-y,z
-x+y,-x,1/3+z
y,-x+y,2/3+z
x-y,-y,-z
-x,-x+y,1/3-z
y,x,2/3-z
-y,-x,2/3-z
-x+y,y,-z
x,x-y,1/3-z
loop_
_atom_site_type_symbol
_atom_site_label
_atom_site_fract_x
_atom_site_fract_y
_atom_site_fract_z
Si Si1 0.000000 0.000000 0.000000
Si Si2 0.476882 0.889985 0.239285
Si Si3 0.206302 0.032588 0.385713
Si Si4 0.530107 0.345685 0.721121
Si Si5 0.294906 0.059688 0.220269
Si Si6 0.339882 0.159999 0.523213
Si Si7 0.667356 0.334711 0.500000
O O1 0.969782 0.067545 0.054433
O O2 0.431501 0.884235 0.324956
O O3 0.583977 0.889816 0.239322
O O4 0.400013 0.788660 0.189522
O O5 0.500000 0.000000 0.206028
O O6 0.238233 0.050529 0.298949
O O7 0.296680 0.113326 0.440307
O O8 0.183363 0.921802 0.415547
O O9 0.495420 0.247710 0.666667
O O10 0.445757 0.287989 0.788844
O O11 0.640431 0.379667 0.759890
O O12 0.277828 0.138914 0.166667
O O13 0.255987 0.939251 0.195179
#
# Coordination Sequence:
#
# PCOD9583963 Si02
#       7
#     3  12  12  12  12  12   6
#     4  12  20  42  60  96 146 198 226 272 358 438
#     4  11  23  43  72  96 137 181 232 292 367 425
#     4  11  24  38  66  97 141 182 240 279 351 426
#     4  10  22  42  70  94 132 175 230 285 354 412
#     4  12  23  41  65 100 141 182 231 289 354 428
#     4  11  23  41  67  99 136 181 233 296 347 421
#     4  10  22  44  67 104 128 181 226 286 354 434
#
# _framework density 20.538253999999998
#
# number of rings (size 3 to 8) (size 9 to 14) (size 15 to 20)
#    0.000    1.043    2.609    5.217    2.435    0.696 
#    0.000    0.000    0.000    4.696    0.000    0.000 
#    0.000    0.000    0.000    0.000    0.000    0.000 
#
# Total GULP energy -384126.075481 kJ/mol
# GULP energy per Si atom -5567.044572 kJ/mol
# Density = 2.049151 g / cm^3
# Si number density = 20.538254 Si / 1000 Ang^3
#
#
#
# Elastic Constant Matrix: (Units=GPa)
#
#
# Indices 1 2 3 4 5 6 
#
# 1 101.1096 34.0519 38.2398 0.0000 0.0000 0.0000
# 2 34.0519 101.1096 38.2398 0.0000 0.0000 0.0000
# 3 38.2398 38.2398 74.3455 0.0000 0.0000 0.0000
# 4 0.0000 0.0000 0.0000 38.8794 0.0000 0.0000
# 5 0.0000 0.0000 0.0000 0.0000 38.8794 0.0000
# 6 0.0000 0.0000 0.0000 0.0000 0.0000 33.5289
#
#
#
# Elastic Compliance Matrix: (Units=1/GPa)
#
#
# Indices 1 2 3 4 5 6 
#
# 1 0.012674 -0.002238 -0.005368 0.000000 0.000000 0.000000
# 2 -0.002238 0.012674 -0.005368 0.000000 0.000000 0.000000
# 3 -0.005368 -0.005368 0.018972 0.000000 0.000000 0.000000
# 4 0.000000 0.000000 0.000000 0.025721 0.000000 0.000000
# 5 0.000000 0.000000 0.000000 0.000000 0.025721 0.000000
# 6 0.000000 0.000000 0.000000 0.000000 0.000000 0.029825
#
#
# Mechanical properties :
#
#
# Convention : Reuss Voigt Hill
#
# Bulk Modulus (GPa) = 54.42665 55.29196 54.85931
# Shear Modulus (GPa) = 31.71406 33.32643 32.52025
#
# Velocity S-wave (km/s) = 3.93383 4.03258 3.98351
# Velocity P-wave (km/s) = 6.86957 6.97583 6.92290
#
# Compressibility (1/GPa) = 0.01837335
#
# Stress axis : x y z
#
# Youngs Moduli (GPa) = 78.90073 78.90073 52.70802
#
# Poissons Ratio (x) = 0.17661 0.28292
# Poissons Ratio (y) = 0.17661 0.28292
# Poissons Ratio (z) = 0.42351 0.42351
#
# Static dielectric constant tensor:
#      x y z
#    x 1.821600 0.000000 0.000000 
#    y 0.000000 1.821600 0.000000 
#    z 0.000000 0.000000 1.714030 
# 
# From -- ./inp_files/7852.got.cif
#   From: 2010.05.17/outbox.cif.g08.bks.cpg/sg180_4_cif.got.tgz:7852.got - 2010.05.20 11:43:55.
