data_PCOD9583453
_publ_section_title
;
Structure prediction by ZEFSAII (Michael W. Deem and Ramdas Pophale) SiO2 
 PCOD9583453
Probable space group: P 65 2 2
;
_chemical_formula_sum "Si O2"
_cell_formula_units_Z 36
_cell_length_a 7.385740
_cell_length_b 7.385740
_cell_length_c 35.716254
_cell_angle_alpha 90.000000
_cell_angle_beta 90.000000
_cell_angle_gamma 120.000000
_cell_volume 1687.269922
_symmetry_space_group_name_H-M "P 65 2 2"
_symmetry_group_IT_number 179
_symmetry_cell_setting 'hexagonal'
loop_
_space_group_symop_operation_xyz
x,y,z
x-y,x,5/6+z
-y,x-y,2/3+z
-x,-y,1/2+z
-x+y,-x,1/3+z
y,-x+y,1/6+z
x-y,-y,-z
-x,-x+y,1/3-z
y,x,2/3-z
-y,-x,1/6-z
-x+y,y,1/2-z
x,x-y,5/6-z
loop_
_atom_site_type_symbol
_atom_site_label
_atom_site_fract_x
_atom_site_fract_y
_atom_site_fract_z
Si Si1 0.468972 0.020102 0.119614
Si Si2 0.772634 0.766367 0.654343
Si Si3 0.104209 0.563352 0.707040
O O1 0.665144 0.046821 0.143143
O O2 0.504111 0.049848 0.075176
O O3 0.292679 0.776503 0.123787
O O4 0.375251 0.154570 0.137477
O O5 0.811542 0.622668 0.625189
O O6 0.000000 0.953582 0.666667
O O7 0.000000 0.489284 0.666667
#
# Coordination Sequence:
#
# PCOD9583453 Si02
#       3
#    12  12  12
#     4  11  23  45  69 101 139 179 229 284 342 417
#     4  11  24  44  71  99 135 178 233 278 347 403
#     4  10  24  43  67 103 135 179 230 279 347 407
#
# _framework density 21.336241999999999
#
# number of rings (size 3 to 8) (size 9 to 14) (size 15 to 20)
#    0.000    1.333    3.333    1.000    0.000   13.333 
#    0.000    0.000    0.000    0.000    0.000    0.000 
#    0.000    0.000    0.000    0.000    0.000    0.000 
#
# Total GULP energy -201348.518566 kJ/mol
# GULP energy per Si atom -5593.014405 kJ/mol
# Density = 2.128768 g / cm^3
# Si number density = 21.336242 Si / 1000 Ang^3
#
#
#
# Elastic Constant Matrix: (Units=GPa)
#
#
# Indices 1 2 3 4 5 6 
#
# 1 80.1595 24.9317 59.0789 0.0000 0.0000 0.0000
# 2 24.9317 80.1595 59.0789 0.0000 0.0000 0.0000
# 3 59.0789 59.0789 163.6749 0.0000 0.0000 0.0000
# 4 0.0000 0.0000 0.0000 1.2831 0.0000 0.0000
# 5 0.0000 0.0000 0.0000 0.0000 1.2831 0.0000
# 6 0.0000 0.0000 0.0000 0.0000 0.0000 27.6139
#
#
#
# Elastic Compliance Matrix: (Units=1/GPa)
#
#
# Indices 1 2 3 4 5 6 
#
# 1 0.017061 -0.001046 -0.005781 0.000000 0.000000 0.000000
# 2 -0.001046 0.017061 -0.005781 0.000000 0.000000 0.000000
# 3 -0.005781 -0.005781 0.010283 0.000000 0.000000 0.000000
# 4 0.000000 0.000000 0.000000 0.779369 0.000000 0.000000
# 5 0.000000 0.000000 0.000000 0.000000 0.779369 0.000000
# 6 0.000000 0.000000 0.000000 0.000000 0.000000 0.036214
#
#
# Mechanical properties :
#
#
# Convention : Reuss Voigt Hill
#
# Bulk Modulus (GPa) = 52.11034 67.79699 59.95366
# Shear Modulus (GPa) = 2.99228 18.09631 10.54429
#
# Velocity S-wave (km/s) = 1.18553 2.91546 2.22546
# Velocity P-wave (km/s) = 5.13326 6.57097 5.89610
#
# Compressibility (1/GPa) = 0.01919005
#
# Stress axis : x y z
#
# Youngs Moduli (GPa) = 58.61368 58.61368 97.25033
#
# Poissons Ratio (x) = 0.06131 0.56217
# Poissons Ratio (y) = 0.06131 0.56217
# Poissons Ratio (z) = 0.33882 0.33882
#
# Static dielectric constant tensor:
#      x y z
#    x 1.863930 0.000000 0.000000 
#    y 0.000000 1.863930 0.000000 
#    z 0.000000 0.000000 1.741660 
# 
# From -- ./inp_files/8564.got.cif
#   From: 2010.05.17/outbox.cif.g08.bks.cpg/sg179_5_cif.got.tgz:8564.got - 2010.05.20 11:37:33.
