data_PCOD9583798
_publ_section_title
;
Structure prediction by ZEFSAII (Michael W. Deem and Ramdas Pophale) SiO2 
 PCOD9583798
Probable space group: P 62 2 2
;
_chemical_formula_sum "Si O2"
_cell_formula_units_Z 54
_cell_length_a 14.387930
_cell_length_b 14.387930
_cell_length_c 13.451967
_cell_angle_alpha 90.000000
_cell_angle_beta 90.000000
_cell_angle_gamma 120.000000
_cell_volume 2411.643214
_symmetry_space_group_name_H-M "P 62 2 2"
_symmetry_group_IT_number 180
_symmetry_cell_setting 'hexagonal'
loop_
_space_group_symop_operation_xyz
x,y,z
x-y,x,1/3+z
-y,x-y,2/3+z
-x,-y,z
-x+y,-x,1/3+z
y,-x+y,2/3+z
x-y,-y,-z
-x,-x+y,1/3-z
y,x,2/3-z
-y,-x,2/3-z
-x+y,y,-z
x,x-y,1/3-z
loop_
_atom_site_type_symbol
_atom_site_label
_atom_site_fract_x
_atom_site_fract_y
_atom_site_fract_z
Si Si1 0.100147 0.784520 0.599582
Si Si2 0.643704 0.509898 0.133895
Si Si3 0.263264 0.000000 0.500000
Si Si4 0.677742 0.472371 0.400669
Si Si5 0.491600 0.353618 0.753534
O O1 0.069938 0.702219 0.506335
O O2 0.170042 0.747551 0.668074
O O3 0.000000 0.761018 0.666667
O O4 0.164304 0.905386 0.559065
O O5 0.557601 0.436990 0.216923
O O6 0.745292 0.489594 0.120190
O O7 0.598452 0.480012 0.023389
O O8 0.363705 0.062871 0.573569
O O9 0.635082 0.364919 0.333334
O O10 0.738597 0.477194 0.500000
O O11 0.556107 0.443894 0.833334
#
# Coordination Sequence:
#
# PCOD9583798 Si02
#       5
#    12  12   6  12  12
#     4  10  23  45  63  93 134 181 229 298 355 409
#     4   9  21  35  61  95 142 183 224 266 328 418
#     4  10  23  42  64  96 129 174 238 288 363 415
#     4  10  22  36  60  99 140 182 223 261 328 415
#     4  10  20  37  60  95 142 185 221 275 332 408
#
# _framework density 22.391372
#
# number of rings (size 3 to 8) (size 9 to 14) (size 15 to 20)
#    0.000    2.222    0.000    1.000   12.444    5.778 
#    4.000    0.000    0.000    0.000    0.000   58.333 
#    0.000    0.000    0.000    0.000    0.000    0.000 
#
# Total GULP energy -301095.106025 kJ/mol
# GULP energy per Si atom -5575.835297 kJ/mol
# Density = 2.234041 g / cm^3
# Si number density = 22.391372 Si / 1000 Ang^3
#
#
#
# Elastic Constant Matrix: (Units=GPa)
#
#
# Indices 1 2 3 4 5 6 
#
# 1 95.7427 60.4629 38.9488 0.0000 0.0000 0.0000
# 2 60.4629 95.7427 38.9488 0.0000 0.0000 0.0000
# 3 38.9488 38.9488 161.6003 0.0000 0.0000 0.0000
# 4 0.0000 0.0000 0.0000 16.4865 0.0000 0.0000
# 5 0.0000 0.0000 0.0000 0.0000 16.4865 0.0000
# 6 0.0000 0.0000 0.0000 0.0000 0.0000 17.6399
#
#
#
# Elastic Compliance Matrix: (Units=1/GPa)
#
#
# Indices 1 2 3 4 5 6 
#
# 1 0.017811 -0.010534 -0.001754 0.000000 0.000000 0.000000
# 2 -0.010534 0.017811 -0.001754 0.000000 0.000000 0.000000
# 3 -0.001754 -0.001754 0.007033 0.000000 0.000000 0.000000
# 4 0.000000 0.000000 0.000000 0.060656 0.000000 0.000000
# 5 0.000000 0.000000 0.000000 0.000000 0.060656 0.000000
# 6 0.000000 0.000000 0.000000 0.000000 0.000000 0.056690
#
#
# Mechanical properties :
#
#
# Convention : Reuss Voigt Hill
#
# Bulk Modulus (GPa) = 68.62823 69.97851 69.30337
# Shear Modulus (GPa) = 19.71638 24.43760 22.07699
#
# Velocity S-wave (km/s) = 2.97060 3.30720 3.14341
# Velocity P-wave (km/s) = 6.51781 6.77523 6.64777
#
# Compressibility (1/GPa) = 0.01457126
#
# Stress axis : x y z
#
# Youngs Moduli (GPa) = 56.14641 56.14641 142.17712
#
# Poissons Ratio (x) = 0.59146 0.24934
# Poissons Ratio (y) = 0.59146 0.24934
# Poissons Ratio (z) = 0.09847 0.09847
#
# Static dielectric constant tensor:
#      x y z
#    x 1.878020 0.000000 0.000000 
#    y 0.000000 1.878020 0.000000 
#    z 0.000000 0.000000 1.886510 
# 
# From -- ./inp_files/6011.got.cif
#   From: 2010.05.17/outbox.cif.g08.bks.cpg/sg180_4_cif.got.tgz:6011.got - 2010.05.20 11:43:55.
