data_PCOD9583488
_publ_section_title
;
Structure prediction by ZEFSAII (Michael W. Deem and Ramdas Pophale) SiO2 
 PCOD9583488
Probable space group: P 65 2 2
;
_chemical_formula_sum "Si O2"
_cell_formula_units_Z 66
_cell_length_a 17.503476
_cell_length_b 17.503476
_cell_length_c 14.187112
_cell_angle_alpha 90.000000
_cell_angle_beta 90.000000
_cell_angle_gamma 120.000000
_cell_volume 3764.204728
_symmetry_space_group_name_H-M "P 65 2 2"
_symmetry_group_IT_number 179
_symmetry_cell_setting 'hexagonal'
loop_
_space_group_symop_operation_xyz
x,y,z
x-y,x,5/6+z
-y,x-y,2/3+z
-x,-y,1/2+z
-x+y,-x,1/3+z
y,-x+y,1/6+z
x-y,-y,-z
-x,-x+y,1/3-z
y,x,2/3-z
-y,-x,1/6-z
-x+y,y,1/2-z
x,x-y,5/6-z
loop_
_atom_site_type_symbol
_atom_site_label
_atom_site_fract_x
_atom_site_fract_y
_atom_site_fract_z
Si Si1 0.758330 0.241670 0.583334
Si Si2 0.618420 0.130256 0.831815
Si Si3 0.783328 0.376152 0.138556
Si Si4 0.959179 0.513924 0.063205
Si Si5 0.267335 0.313636 0.936344
Si Si6 0.349708 0.238749 0.057339
O O1 0.688164 0.232619 0.505643
O O2 0.733620 0.151026 0.634822
O O3 0.586957 0.173914 0.750000
O O4 0.693371 0.108521 0.801114
O O5 0.529431 0.037312 0.847295
O O6 0.646709 0.188018 0.927565
O O7 0.702261 0.297740 0.083334
O O8 0.868823 0.422092 0.071427
O O9 0.940287 0.591037 0.032928
O O10 0.000000 0.543237 0.166667
O O11 0.286227 0.286227 0.833334
O O12 0.180168 0.320544 0.923250
O O13 0.270441 0.249982 0.016563
#
# Coordination Sequence:
#
# PCOD9583488 Si02
#       6
#     6  12  12  12  12  12
#     4  12  20  34  52  78 116 160 200 244 302 356
#     4  11  21  37  57  78 110 158 212 255 298 365
#     4  11  24  36  53  81 120 161 204 258 305 357
#     4   9  18  37  55  70 106 155 196 236 300 354
#     4  11  19  34  54  80 112 155 191 247 308 375
#     4  12  22  35  58  85 117 156 208 252 320 372
#
# _framework density 17.533584999999999
#
# number of rings (size 3 to 8) (size 9 to 14) (size 15 to 20)
#    0.000    1.091    7.273    1.091    2.545    1.455 
#    1.636    0.000    0.000    0.000    0.000    0.000 
#    0.000   27.636    0.000    0.000    0.000    0.000 
#
# Total GULP energy -368094.032587 kJ/mol
# GULP energy per Si atom -5577.182312 kJ/mol
# Density = 1.749368 g / cm^3
# Si number density = 17.533585 Si / 1000 Ang^3
#
#
#
# Elastic Constant Matrix: (Units=GPa)
#
#
# Indices 1 2 3 4 5 6 
#
# 1 -8.9094 164.6912 38.8011 0.0000 0.0000 0.0000
# 2 164.6912 -8.9094 38.8011 0.0000 0.0000 0.0000
# 3 38.8011 38.8011 66.4354 0.0000 0.0000 0.0000
# 4 0.0000 0.0000 0.0000 27.9021 0.0000 0.0000
# 5 0.0000 0.0000 0.0000 0.0000 27.9021 0.0000
# 6 0.0000 0.0000 0.0000 0.0000 0.0000 -86.8003
#
#
#
# Elastic Compliance Matrix: (Units=1/GPa)
#
#
# Indices 1 2 3 4 5 6 
#
# 1 0.001646 0.007407 -0.005287 0.000000 0.000000 0.000000
# 2 0.007407 0.001646 -0.005287 0.000000 0.000000 0.000000
# 3 -0.005287 -0.005287 0.021228 0.000000 0.000000 0.000000
# 4 0.000000 0.000000 0.000000 0.035840 0.000000 0.000000
# 5 0.000000 0.000000 0.000000 0.000000 0.035840 0.000000
# 6 0.000000 0.000000 0.000000 0.000000 0.000000 -0.011521
#
#
# Mechanical properties :
#
#
# Convention : Reuss Voigt Hill
#
# Bulk Modulus (GPa) = 54.99044 59.24480 57.11762
# Shear Modulus (GPa) = 51.50517 -19.11103 16.19707
#
# Velocity S-wave (km/s) = 5.42576 -3.30505 3.04266
# Velocity P-wave (km/s) = 8.40731 4.39298 6.70750
#
# Compressibility (1/GPa) = 0.01818498
#
# Stress axis : x y z
#
# Youngs Moduli (GPa) = 607.38510 607.38510 47.10678
#
# Poissons Ratio (x) = -4.49875 0.24907
# Poissons Ratio (y) = -4.49875 0.24907
# Poissons Ratio (z) = 3.21150 3.21150
#
# Static dielectric constant tensor:
#      x y z
#    x 1.628250 0.000000 0.000000 
#    y 0.000000 1.628250 0.000000 
#    z 0.000000 0.000000 1.593260 
# 
# From -- ./inp_files/6014.got.cif
#   From: 2010.05.17/outbox.cif.g08.bks.cpg/sg179_4_cif.got.tgz:6014.got - 2010.05.20 11:37:33.
