data_PCOD9583741
_publ_section_title
;
Structure prediction by ZEFSAII (Michael W. Deem and Ramdas Pophale) SiO2 
 PCOD9583741
Probable space group: P 62 2 2
;
_chemical_formula_sum "Si O2"
_cell_formula_units_Z 48
_cell_length_a 11.730914
_cell_length_b 11.730914
_cell_length_c 21.216170
_cell_angle_alpha 90.000000
_cell_angle_beta 90.000000
_cell_angle_gamma 120.000000
_cell_volume 2528.490465
_symmetry_space_group_name_H-M "P 62 2 2"
_symmetry_group_IT_number 180
_symmetry_cell_setting 'hexagonal'
loop_
_space_group_symop_operation_xyz
x,y,z
x-y,x,1/3+z
-y,x-y,2/3+z
-x,-y,z
-x+y,-x,1/3+z
y,-x+y,2/3+z
x-y,-y,-z
-x,-x+y,1/3-z
y,x,2/3-z
-y,-x,2/3-z
-x+y,y,-z
x,x-y,1/3-z
loop_
_atom_site_type_symbol
_atom_site_label
_atom_site_fract_x
_atom_site_fract_y
_atom_site_fract_z
Si Si1 0.352558 0.929928 0.704467
Si Si2 0.712977 0.026644 0.836096
Si Si3 0.760217 0.411982 0.562246
Si Si4 0.630336 0.871335 0.954289
O O1 0.343605 0.007612 0.765697
O O2 0.314853 0.786494 0.732226
O O3 0.236635 0.891633 0.654705
O O4 0.500000 0.000000 0.679109
O O5 0.865919 0.134082 0.833334
O O6 0.649216 0.108870 0.868129
O O7 0.692402 0.916795 0.885372
O O8 0.672095 0.344191 0.500000
O O9 0.804074 0.328549 0.604180
O O10 0.683890 0.000000 0.000000
#
# Coordination Sequence:
#
# PCOD9583741 Si02
#       4
#    12  12  12  12
#     4  10  20  30  41  70 115 153 194 257 301 371
#     4   9  17  28  43  71 111 149 197 259 294 354
#     4   9  18  28  44  69 105 147 196 245 293 364
#     4  12  19  28  53  77 104 163 213 243 305 383
#
# _framework density 18.983657000000001
#
# number of rings (size 3 to 8) (size 9 to 14) (size 15 to 20)
#    0.000    2.500    5.000    4.500    3.500    0.000 
#    0.000    0.000    0.000    0.750    0.000    0.000 
#    0.000    4.000   17.000    0.000    1.000    0.000 
#
# Total GULP energy -267383.162586 kJ/mol
# GULP energy per Si atom -5570.482554 kJ/mol
# Density = 1.894045 g / cm^3
# Si number density = 18.983657 Si / 1000 Ang^3
#
#
#
# Elastic Constant Matrix: (Units=GPa)
#
#
# Indices 1 2 3 4 5 6 
#
# 1 50.5778 20.1926 36.6143 0.0000 0.0000 0.0000
# 2 20.1926 50.5778 36.6143 0.0000 0.0000 0.0000
# 3 36.6143 36.6143 119.4661 0.0000 0.0000 0.0000
# 4 0.0000 0.0000 0.0000 19.6959 0.0000 0.0000
# 5 0.0000 0.0000 0.0000 0.0000 19.6959 0.0000
# 6 0.0000 0.0000 0.0000 0.0000 0.0000 15.1926
#
#
#
# Elastic Compliance Matrix: (Units=1/GPa)
#
#
# Indices 1 2 3 4 5 6 
#
# 1 0.026802 -0.006109 -0.006342 0.000000 0.000000 0.000000
# 2 -0.006109 0.026802 -0.006342 0.000000 0.000000 0.000000
# 3 -0.006342 -0.006342 0.012258 0.000000 0.000000 0.000000
# 4 0.000000 0.000000 0.000000 0.050772 0.000000 0.000000
# 5 0.000000 0.000000 0.000000 0.000000 0.050772 0.000000
# 6 0.000000 0.000000 0.000000 0.000000 0.000000 0.065822
#
#
# Mechanical properties :
#
#
# Convention : Reuss Voigt Hill
#
# Bulk Modulus (GPa) = 35.36667 45.27378 40.32023
# Shear Modulus (GPa) = 17.84201 19.39691 18.61946
#
# Velocity S-wave (km/s) = 3.06904 3.19998 3.13519
# Velocity P-wave (km/s) = 5.58831 6.12811 5.86442
#
# Compressibility (1/GPa) = 0.02827521
#
# Stress axis : x y z
#
# Youngs Moduli (GPa) = 37.31125 37.31125 81.57999
#
# Poissons Ratio (x) = 0.22794 0.51737
# Poissons Ratio (y) = 0.22794 0.51737
# Poissons Ratio (z) = 0.23662 0.23662
#
# Static dielectric constant tensor:
#      x y z
#    x 1.689090 0.000000 0.000000 
#    y 0.000000 1.689090 0.000000 
#    z 0.000000 0.000000 1.759490 
# 
# From -- ./inp_files/8689.got.cif
#   From: 2010.05.17/outbox.cif.g08.bks.cpg/sg180_5_cif.got.tgz:8689.got - 2010.05.20 11:43:55.
