data_PCOD9583522
_publ_section_title
;
Structure prediction by ZEFSAII (Michael W. Deem and Ramdas Pophale) SiO2 
 PCOD9583522
Probable space group: P 65 2 2
;
_chemical_formula_sum "Si O2"
_cell_formula_units_Z 60
_cell_length_a 14.852949
_cell_length_b 14.852949
_cell_length_c 15.512370
_cell_angle_alpha 90.000000
_cell_angle_beta 90.000000
_cell_angle_gamma 120.000000
_cell_volume 2963.699496
_symmetry_space_group_name_H-M "P 65 2 2"
_symmetry_group_IT_number 179
_symmetry_cell_setting 'hexagonal'
loop_
_space_group_symop_operation_xyz
x,y,z
x-y,x,5/6+z
-y,x-y,2/3+z
-x,-y,1/2+z
-x+y,-x,1/3+z
y,-x+y,1/6+z
x-y,-y,-z
-x,-x+y,1/3-z
y,x,2/3-z
-y,-x,1/6-z
-x+y,y,1/2-z
x,x-y,5/6-z
loop_
_atom_site_type_symbol
_atom_site_label
_atom_site_fract_x
_atom_site_fract_y
_atom_site_fract_z
Si Si1 0.892681 0.456619 0.670987
Si Si2 0.628674 0.762371 0.751001
Si Si3 0.144840 0.144840 0.333334
Si Si4 0.120183 0.637965 0.470293
Si Si5 0.752237 0.504473 0.250000
Si Si6 0.115945 0.663293 0.922984
O O1 0.912029 0.555065 0.613379
O O2 0.881454 0.481686 0.767766
O O3 0.793871 0.353528 0.637227
O O4 0.000000 0.454085 0.666667
O O5 0.748354 0.819872 0.779261
O O6 0.581220 0.821446 0.801549
O O7 0.598888 0.751855 0.650325
O O8 0.123873 0.061937 0.416667
O O9 0.175561 0.587781 0.416667
O O10 0.007939 0.600260 0.426062
O O11 0.720366 0.564222 0.180590
O O12 0.154030 0.577015 0.916667
#
# Coordination Sequence:
#
# PCOD9583522 Si02
#       6
#    12  12   6  12   6  12
#     4  12  22  42  62  97 142 185 246 304 365 451
#     4  12  22  42  70 102 139 187 247 310 377 456
#     4  12  26  48  84 116 144 190 258 338 408 468
#     4  11  23  39  64  93 137 187 243 293 357 440
#     4  12  26  38  68  96 150 202 244 298 376 446
#     4  11  22  43  58  92 144 192 237 304 363 451
#
# _framework density 20.244966999999999
#
# number of rings (size 3 to 8) (size 9 to 14) (size 15 to 20)
#    0.000    0.400    5.000    5.400    1.400    1.600 
#    0.000    0.000    8.800    0.000    0.000    0.000 
#    0.000    0.000    0.000    0.000    0.000    0.000 
#
# Total GULP energy -334233.077880 kJ/mol
# GULP energy per Si atom -5570.551298 kJ/mol
# Density = 2.019889 g / cm^3
# Si number density = 20.244967 Si / 1000 Ang^3
#
#
#
# Elastic Constant Matrix: (Units=GPa)
#
#
# Indices 1 2 3 4 5 6 
#
# 1 88.5407 38.3356 41.8957 0.0000 0.0000 0.0000
# 2 38.3356 88.5407 41.8957 0.0000 0.0000 0.0000
# 3 41.8957 41.8957 151.8519 0.0000 0.0000 0.0000
# 4 0.0000 0.0000 0.0000 73.5905 0.0000 0.0000
# 5 0.0000 0.0000 0.0000 0.0000 73.5905 0.0000
# 6 0.0000 0.0000 0.0000 0.0000 0.0000 25.1025
#
#
#
# Elastic Compliance Matrix: (Units=1/GPa)
#
#
# Indices 1 2 3 4 5 6 
#
# 1 0.014778 -0.005140 -0.002659 0.000000 0.000000 0.000000
# 2 -0.005140 0.014778 -0.002659 0.000000 0.000000 0.000000
# 3 -0.002659 -0.002659 0.008053 0.000000 0.000000 0.000000
# 4 0.000000 0.000000 0.000000 0.013589 0.000000 0.000000
# 5 0.000000 0.000000 0.000000 0.000000 0.013589 0.000000
# 6 0.000000 0.000000 0.000000 0.000000 0.000000 0.039837
#
#
# Mechanical properties :
#
#
# Convention : Reuss Voigt Hill
#
# Bulk Modulus (GPa) = 59.90904 63.68750 61.79827
# Shear Modulus (GPa) = 38.13784 48.24381 43.19082
#
# Velocity S-wave (km/s) = 4.34501 4.88690 4.62390
# Velocity P-wave (km/s) = 7.40462 7.96047 7.68757
#
# Compressibility (1/GPa) = 0.01669197
#
# Stress axis : x y z
#
# Youngs Moduli (GPa) = 67.66799 67.66799 124.18324
#
# Poissons Ratio (x) = 0.34783 0.33021
# Poissons Ratio (y) = 0.34783 0.33021
# Poissons Ratio (z) = 0.17993 0.17993
#
# Static dielectric constant tensor:
#      x y z
#    x 1.746310 0.000000 0.000000 
#    y 0.000000 1.746310 0.000000 
#    z 0.000000 0.000000 1.867970 
# 
# From -- ./inp_files/5866.got.cif
#   From: 2010.05.17/outbox.cif.g08.bks.cpg/sg179_3_cif.got.tgz:5866.got - 2010.05.20 11:37:33.
