data_PCOD9583978
_publ_section_title
;
Structure prediction by ZEFSAII (Michael W. Deem and Ramdas Pophale) SiO2 
 PCOD9583978
Probable space group: P 62 2 2
;
_chemical_formula_sum "Si O2"
_cell_formula_units_Z 60
_cell_length_a 14.615884
_cell_length_b 14.615884
_cell_length_c 14.542769
_cell_angle_alpha 90.000000
_cell_angle_beta 90.000000
_cell_angle_gamma 120.000000
_cell_volume 2690.468505
_symmetry_space_group_name_H-M "P 62 2 2"
_symmetry_group_IT_number 180
_symmetry_cell_setting 'hexagonal'
loop_
_space_group_symop_operation_xyz
x,y,z
x-y,x,1/3+z
-y,x-y,2/3+z
-x,-y,z
-x+y,-x,1/3+z
y,-x+y,2/3+z
x-y,-y,-z
-x,-x+y,1/3-z
y,x,2/3-z
-y,-x,2/3-z
-x+y,y,-z
x,x-y,1/3-z
loop_
_atom_site_type_symbol
_atom_site_label
_atom_site_fract_x
_atom_site_fract_y
_atom_site_fract_z
Si Si1 0.440992 0.885210 0.173137
Si Si2 0.853683 0.604611 0.370217
Si Si3 0.030913 0.219033 0.565268
Si Si4 0.686948 0.278661 0.590126
Si Si5 0.912532 0.257596 0.403414
O O1 0.524770 0.868069 0.229659
O O2 0.387679 0.788737 0.105109
O O3 0.350350 0.887070 0.236684
O O4 0.500000 0.000000 0.127625
O O5 0.793387 0.663361 0.409639
O O6 0.794689 0.527631 0.287001
O O7 0.974110 0.693721 0.352267
O O8 0.085511 0.171022 0.500000
O O9 0.000000 0.170482 0.666667
O O10 0.940946 0.221662 0.501957
O O11 0.616660 0.233319 0.500000
O O12 0.633769 0.316885 0.666667
O O13 0.826675 0.173326 0.333334
#
# Coordination Sequence:
#
# PCOD9583978 Si02
#       5
#    12  12  12  12  12
#     4  10  23  40  65  98 139 186 240 298 359 441
#     4  10  23  44  69 100 145 191 241 306 371 441
#     4  10  22  44  76 106 141 185 243 304 372 445
#     4  12  25  39  66  96 145 188 241 297 368 433
#     4  10  23  43  75 102 148 191 249 306 375 443
#
# _framework density 22.300948000000002
#
# number of rings (size 3 to 8) (size 9 to 14) (size 15 to 20)
#    0.000    1.600    2.000    1.200   14.000    0.400 
#    0.000    9.000    0.000   24.000    0.000    0.000 
#    0.000    0.000    0.000    0.000    0.000    0.000 
#
# Total GULP energy -334767.724940 kJ/mol
# GULP energy per Si atom -5579.462082 kJ/mol
# Density = 2.225019 g / cm^3
# Si number density = 22.300948 Si / 1000 Ang^3
#
#
#
# Elastic Constant Matrix: (Units=GPa)
#
#
# Indices 1 2 3 4 5 6 
#
# 1 79.6565 16.5015 44.5978 0.0000 0.0000 0.0000
# 2 16.5015 79.6565 44.5978 0.0000 0.0000 0.0000
# 3 44.5978 44.5978 125.3519 0.0000 0.0000 0.0000
# 4 0.0000 0.0000 0.0000 40.6863 0.0000 0.0000
# 5 0.0000 0.0000 0.0000 0.0000 40.6863 0.0000
# 6 0.0000 0.0000 0.0000 0.0000 0.0000 31.5775
#
#
#
# Elastic Compliance Matrix: (Units=1/GPa)
#
#
# Indices 1 2 3 4 5 6 
#
# 1 0.015678 -0.000156 -0.005522 0.000000 0.000000 0.000000
# 2 -0.000156 0.015678 -0.005522 0.000000 0.000000 0.000000
# 3 -0.005522 -0.005522 0.011907 0.000000 0.000000 0.000000
# 4 0.000000 0.000000 0.000000 0.024578 0.000000 0.000000
# 5 0.000000 0.000000 0.000000 0.000000 0.024578 0.000000
# 6 0.000000 0.000000 0.000000 0.000000 0.000000 0.031668
#
#
# Mechanical properties :
#
#
# Convention : Reuss Voigt Hill
#
# Bulk Modulus (GPa) = 47.93513 55.11767 51.52640
# Shear Modulus (GPa) = 32.58525 34.52123 33.55324
#
# Velocity S-wave (km/s) = 3.82666 3.93870 3.88308
# Velocity P-wave (km/s) = 6.40826 6.74192 6.57720
#
# Compressibility (1/GPa) = 0.02086153
#
# Stress axis : x y z
#
# Youngs Moduli (GPa) = 63.78319 63.78319 83.98323
#
# Poissons Ratio (x) = 0.00995 0.46380
# Poissons Ratio (y) = 0.00995 0.46380
# Poissons Ratio (z) = 0.35224 0.35224
#
# Static dielectric constant tensor:
#      x y z
#    x 1.865880 0.000000 0.000000 
#    y 0.000000 1.865880 0.000000 
#    z 0.000000 0.000000 1.953740 
# 
# From -- ./inp_files/6110.got.cif
#   From: 2010.05.17/outbox.cif.g08.bks.cpg/sg180_4_cif.got.tgz:6110.got - 2010.05.20 11:43:55.
