data_PCOD9583531
_publ_section_title
;
Structure prediction by ZEFSAII (Michael W. Deem and Ramdas Pophale) SiO2 
 PCOD9583531
Probable space group: P 65 2 2
;
_chemical_formula_sum "Si O2"
_cell_formula_units_Z 48
_cell_length_a 17.833875
_cell_length_b 17.833875
_cell_length_c 7.629098
_cell_angle_alpha 90.000000
_cell_angle_beta 90.000000
_cell_angle_gamma 120.000000
_cell_volume 2101.334844
_symmetry_space_group_name_H-M "P 65 2 2"
_symmetry_group_IT_number 179
_symmetry_cell_setting 'hexagonal'
loop_
_space_group_symop_operation_xyz
x,y,z
x-y,x,5/6+z
-y,x-y,2/3+z
-x,-y,1/2+z
-x+y,-x,1/3+z
y,-x+y,1/6+z
x-y,-y,-z
-x,-x+y,1/3-z
y,x,2/3-z
-y,-x,1/6-z
-x+y,y,1/2-z
x,x-y,5/6-z
loop_
_atom_site_type_symbol
_atom_site_label
_atom_site_fract_x
_atom_site_fract_y
_atom_site_fract_z
Si Si1 0.094571 0.302363 0.588416
Si Si2 0.903447 0.806893 0.750000
Si Si3 0.408636 0.904133 0.440044
Si Si4 0.506053 0.753027 0.916667
Si Si5 0.309742 0.800541 0.922565
O O1 0.142426 0.284851 0.750000
O O2 0.092989 0.251446 0.411273
O O3 0.145583 0.405354 0.555543
O O4 0.000000 0.272098 0.666667
O O5 0.864854 0.864854 0.833334
O O6 0.450930 0.901859 0.250000
O O7 0.306314 0.849342 0.496430
O O8 0.456639 0.865541 0.551982
O O9 0.439853 0.000000 0.500000
O O10 0.451040 0.746585 0.749943
O O11 0.262326 0.737675 0.083334
#
# Coordination Sequence:
#
# PCOD9583531 Si02
#       5
#    12   6  12   6  12
#     4  11  23  42  67  93 134 179 231 295 367 433
#     4  12  25  42  66 100 136 182 238 300 374 454
#     4  12  26  49  77 111 157 208 263 321 391 468
#     4  12  25  48  76 110 150 202 256 308 382 444
#     4  11  24  45  70 107 144 190 243 311 374 447
#
# _framework density 22.842621999999999
#
# number of rings (size 3 to 8) (size 9 to 14) (size 15 to 20)
#    0.000    0.500    5.000    3.750    0.000    3.000 
#    2.250    0.000    0.000    0.000    0.000    0.000 
#    0.000    0.000    0.000    0.000    0.000    0.000 
#
# Total GULP energy -267563.686971 kJ/mol
# GULP energy per Si atom -5574.243479 kJ/mol
# Density = 2.279063 g / cm^3
# Si number density = 22.842622 Si / 1000 Ang^3
#
#
#
# Elastic Constant Matrix: (Units=GPa)
#
#
# Indices 1 2 3 4 5 6 
#
# 1 120.7351 44.7574 33.2904 0.0000 0.0000 0.0000
# 2 44.7574 120.7351 33.2904 0.0000 0.0000 0.0000
# 3 33.2904 33.2904 179.0039 0.0000 0.0000 0.0000
# 4 0.0000 0.0000 0.0000 12.6111 0.0000 0.0000
# 5 0.0000 0.0000 0.0000 0.0000 12.6111 0.0000
# 6 0.0000 0.0000 0.0000 0.0000 0.0000 37.9889
#
#
#
# Elastic Compliance Matrix: (Units=1/GPa)
#
#
# Indices 1 2 3 4 5 6 
#
# 1 0.009846 -0.003315 -0.001215 0.000000 0.000000 0.000000
# 2 -0.003315 0.009846 -0.001215 0.000000 0.000000 0.000000
# 3 -0.001215 -0.001215 0.006038 0.000000 0.000000 0.000000
# 4 0.000000 0.000000 0.000000 0.079295 0.000000 0.000000
# 5 0.000000 0.000000 0.000000 0.000000 0.079295 0.000000
# 6 0.000000 0.000000 0.000000 0.000000 0.000000 0.026323
#
#
# Mechanical properties :
#
#
# Convention : Reuss Voigt Hill
#
# Bulk Modulus (GPa) = 70.21416 71.46117 70.83766
# Shear Modulus (GPa) = 22.03790 33.25127 27.64458
#
# Velocity S-wave (km/s) = 3.10945 3.81946 3.48259
# Velocity P-wave (km/s) = 6.61033 7.12763 6.87385
#
# Compressibility (1/GPa) = 0.01424214
#
# Stress axis : x y z
#
# Youngs Moduli (GPa) = 101.55896 101.55896 165.61051
#
# Poissons Ratio (x) = 0.33669 0.20116
# Poissons Ratio (y) = 0.33669 0.20116
# Poissons Ratio (z) = 0.12336 0.12336
#
# Static dielectric constant tensor:
#      x y z
#    x 1.934950 0.000000 0.000000 
#    y 0.000000 1.934950 0.000000 
#    z 0.000000 0.000000 1.928250 
# 
# From -- ./inp_files/2756.got.cif
#   From: 2010.05.17/outbox.cif.g08.bks.cpg/sg179_2_cif.got.tgz:2756.got - 2010.05.20 11:37:33.
