data_PCOD9583806
_publ_section_title
;
Structure prediction by ZEFSAII (Michael W. Deem and Ramdas Pophale) SiO2 
 PCOD9583806
Probable space group: P 62 2 2
;
_chemical_formula_sum "Si O2"
_cell_formula_units_Z 42
_cell_length_a 22.446555
_cell_length_b 22.446555
_cell_length_c 5.163509
_cell_angle_alpha 90.000000
_cell_angle_beta 90.000000
_cell_angle_gamma 120.000000
_cell_volume 2253.071446
_symmetry_space_group_name_H-M "P 62 2 2"
_symmetry_group_IT_number 180
_symmetry_cell_setting 'hexagonal'
loop_
_space_group_symop_operation_xyz
x,y,z
x-y,x,1/3+z
-y,x-y,2/3+z
-x,-y,z
-x+y,-x,1/3+z
y,-x+y,2/3+z
x-y,-y,-z
-x,-x+y,1/3-z
y,x,2/3-z
-y,-x,2/3-z
-x+y,y,-z
x,x-y,1/3-z
loop_
_atom_site_type_symbol
_atom_site_label
_atom_site_fract_x
_atom_site_fract_y
_atom_site_fract_z
Si Si1 0.613177 0.469135 0.591054
Si Si2 0.952676 0.321709 0.919749
Si Si3 0.234336 0.048627 0.249649
Si Si4 0.705483 0.294518 0.833334
O O1 0.569343 0.430658 0.333334
O O2 0.650833 0.550693 0.561089
O O3 0.675746 0.453598 0.641832
O O4 0.561655 0.438346 0.833334
O O5 0.924284 0.240107 0.957602
O O6 0.000000 0.344548 0.666667
O O7 0.000000 0.357616 0.166667
O O8 0.222953 0.111477 0.166667
O O9 0.194680 0.000000 0.500000
O O10 0.211192 0.000000 0.000000
O O11 0.718151 0.359076 0.666667
#
# Coordination Sequence:
#
# PCOD9583806 Si02
#       4
#    12  12  12   6
#     4  11  23  36  58  82 107 157 192 246 310 349
#     4  10  22  39  57  86 120 151 195 243 291 355
#     4  10  21  39  64  92 124 160 198 241 288 344
#     4  10  20  38  54  76 113 138 202 246 289 346
#
# _framework density 18.641221000000002
#
# number of rings (size 3 to 8) (size 9 to 14) (size 15 to 20)
#    0.000    1.714    1.429    2.571    2.000    3.429 
#    0.000    0.000    0.000    4.286    0.000    0.000 
#    0.000    0.000    0.000    0.000    0.000    0.000 
#
# Total GULP energy -234000.936648 kJ/mol
# GULP energy per Si atom -5571.450873 kJ/mol
# Density = 1.859879 g / cm^3
# Si number density = 18.641221 Si / 1000 Ang^3
#
#
#
# Elastic Constant Matrix: (Units=GPa)
#
#
# Indices 1 2 3 4 5 6 
#
# 1 101.5321 88.7558 34.5285 0.0000 0.0000 0.0000
# 2 88.7558 101.5321 34.5285 0.0000 0.0000 0.0000
# 3 34.5285 34.5285 125.6578 0.0000 0.0000 0.0000
# 4 0.0000 0.0000 0.0000 19.9468 0.0000 0.0000
# 5 0.0000 0.0000 0.0000 0.0000 19.9468 0.0000
# 6 0.0000 0.0000 0.0000 0.0000 0.0000 6.3882
#
#
#
# Elastic Compliance Matrix: (Units=1/GPa)
#
#
# Indices 1 2 3 4 5 6 
#
# 1 0.042054 -0.036216 -0.001604 0.000000 0.000000 0.000000
# 2 -0.036216 0.042054 -0.001604 0.000000 0.000000 0.000000
# 3 -0.001604 -0.001604 0.008840 0.000000 0.000000 0.000000
# 4 0.000000 0.000000 0.000000 0.050133 0.000000 0.000000
# 5 0.000000 0.000000 0.000000 0.000000 0.050133 0.000000
# 6 0.000000 0.000000 0.000000 0.000000 0.000000 0.156540
#
#
# Mechanical properties :
#
#
# Convention : Reuss Voigt Hill
#
# Bulk Modulus (GPa) = 70.93073 71.59420 71.26246
# Shear Modulus (GPa) = 11.53933 20.65029 16.09481
#
# Velocity S-wave (km/s) = 2.49071 3.33194 2.94155
# Velocity P-wave (km/s) = 6.81209 7.30015 7.06034
#
# Compressibility (1/GPa) = 0.01409826
#
# Stress axis : x y z
#
# Youngs Moduli (GPa) = 23.77921 23.77921 113.12709
#
# Poissons Ratio (x) = 0.86119 0.18145
# Poissons Ratio (y) = 0.86119 0.18145
# Poissons Ratio (z) = 0.03814 0.03814
#
# Static dielectric constant tensor:
#      x y z
#    x 1.700170 0.000000 0.000000 
#    y 0.000000 1.700170 0.000000 
#    z 0.000000 0.000000 1.646450 
# 
# From -- ./inp_files/832.got.cif
#   From: 2010.05.17/outbox.cif.g08.bks.cpg/sg180_1_cif.got.tgz:832.got - 2010.05.20 11:43:55.
