data_PCOD9583039
_publ_section_title
;
Structure prediction by ZEFSAII (Michael W. Deem and Ramdas Pophale) SiO2 
 PCOD9583039
Probable space group: P 61 2 2
;
_chemical_formula_sum "Si O2"
_cell_formula_units_Z 54
_cell_length_a 11.268362
_cell_length_b 11.268362
_cell_length_c 20.999481
_cell_angle_alpha 90.000000
_cell_angle_beta 90.000000
_cell_angle_gamma 120.000000
_cell_volume 2309.195879
_symmetry_space_group_name_H-M "P 61 2 2"
_symmetry_group_IT_number 178
_symmetry_cell_setting 'hexagonal'
loop_
_space_group_symop_operation_xyz
x,y,z
x-y,x,1/6+z
-y,x-y,1/3+z
-x,-y,1/2+z
-x+y,-x,2/3+z
y,-x+y,5/6+z
x-y,-y,-z
-x,-x+y,2/3-z
y,x,1/3-z
-y,-x,5/6-z
-x+y,y,1/2-z
x,x-y,1/6-z
loop_
_atom_site_type_symbol
_atom_site_label
_atom_site_fract_x
_atom_site_fract_y
_atom_site_fract_z
Si Si1 0.744592 0.111892 0.083430
Si Si2 0.863560 0.407565 0.935401
Si Si3 0.604047 0.395954 0.416667
Si Si4 0.887559 0.775118 0.750000
Si Si5 0.155530 0.145528 0.857460
Si Si6 0.348121 0.348121 0.166667
O O1 0.707850 0.231378 0.084291
O O2 0.870165 0.156675 0.035408
O O3 0.613079 0.963415 0.079558
O O4 0.819949 0.101025 0.145617
O O5 0.707956 0.292045 0.916667
O O6 0.928959 0.542740 0.890865
O O7 0.868396 0.432261 0.012962
O O8 0.795430 0.676902 0.694663
O O9 0.830757 0.880022 0.757957
O O10 0.000000 0.049389 0.833334
#
# Coordination Sequence:
#
# PCOD9583039 Si02
#       6
#    12  12   6   6  12   6
#     4  12  25  46  77 118 157 202 272 331 405 484
#     4  12  28  52  80 112 160 217 278 337 407 495
#     4  12  28  49  74 122 161 218 260 338 420 485
#     4  12  24  47  74 120 153 208 254 328 420 475
#     4  12  21  42  84 116 149 196 266 347 394 465
#     4  12  28  48  80 110 168 208 266 330 412 498
#
# _framework density 23.384763
#
# number of rings (size 3 to 8) (size 9 to 14) (size 15 to 20)
#    0.000    0.000    5.556    4.000    1.556    3.556 
#    6.000    0.000    0.000    0.000    0.000    0.000 
#    0.000    0.000    0.000    0.000    0.000    0.000 
#
# Total GULP energy -300800.215381 kJ/mol
# GULP energy per Si atom -5570.374359 kJ/mol
# Density = 2.333154 g / cm^3
# Si number density = 23.384763 Si / 1000 Ang^3
#
#
#
# Elastic Constant Matrix: (Units=GPa)
#
#
# Indices 1 2 3 4 5 6 
#
# 1 79.4812 38.8852 44.3688 0.0000 0.0000 0.0000
# 2 38.8852 79.4812 44.3688 0.0000 0.0000 0.0000
# 3 44.3688 44.3688 132.9644 0.0000 0.0000 0.0000
# 4 0.0000 0.0000 0.0000 40.2046 0.0000 0.0000
# 5 0.0000 0.0000 0.0000 0.0000 40.2046 0.0000
# 6 0.0000 0.0000 0.0000 0.0000 0.0000 20.2980
#
#
#
# Elastic Compliance Matrix: (Units=1/GPa)
#
#
# Indices 1 2 3 4 5 6 
#
# 1 0.017950 -0.006683 -0.003760 0.000000 0.000000 0.000000
# 2 -0.006683 0.017950 -0.003760 0.000000 0.000000 0.000000
# 3 -0.003760 -0.003760 0.010030 0.000000 0.000000 0.000000
# 4 0.000000 0.000000 0.000000 0.024873 0.000000 0.000000
# 5 0.000000 0.000000 0.000000 0.000000 0.024873 0.000000
# 6 0.000000 0.000000 0.000000 0.000000 0.000000 0.049266
#
#
# Mechanical properties :
#
#
# Convention : Reuss Voigt Hill
#
# Bulk Modulus (GPa) = 57.06089 60.79694 58.92892
# Shear Modulus (GPa) = 27.90371 31.09503 29.49937
#
# Velocity S-wave (km/s) = 3.45808 3.65048 3.55558
# Velocity P-wave (km/s) = 6.35597 6.61989 6.48927
#
# Compressibility (1/GPa) = 0.01752514
#
# Stress axis : x y z
#
# Youngs Moduli (GPa) = 55.71052 55.71052 99.70169
#
# Poissons Ratio (x) = 0.37231 0.37484
# Poissons Ratio (y) = 0.37231 0.37484
# Poissons Ratio (z) = 0.20945 0.20945
#
# Static dielectric constant tensor:
#      x y z
#    x 1.875000 0.000000 0.000000 
#    y 0.000000 1.875000 0.000000 
#    z 0.000000 0.000000 2.021110 
# 
# From -- ./inp_files/7474.got.cif
#   From: 2010.05.17/outbox.cif.g08.bks.cpg/sg178_4_cif.got.tgz:7474.got - 2010.05.20 11:30:59.
