data_PCOD9583114
_publ_section_title
;
Structure prediction by ZEFSAII (Michael W. Deem and Ramdas Pophale) SiO2 
 PCOD9583114
Probable space group: P 65 2 2
;
_chemical_formula_sum "Si O2"
_cell_formula_units_Z 48
_cell_length_a 17.528839
_cell_length_b 17.528839
_cell_length_c 8.907537
_cell_angle_alpha 90.000000
_cell_angle_beta 90.000000
_cell_angle_gamma 120.000000
_cell_volume 2370.252269
_symmetry_space_group_name_H-M "P 65 2 2"
_symmetry_group_IT_number 179
_symmetry_cell_setting 'hexagonal'
loop_
_space_group_symop_operation_xyz
x,y,z
x-y,x,5/6+z
-y,x-y,2/3+z
-x,-y,1/2+z
-x+y,-x,1/3+z
y,-x+y,1/6+z
x-y,-y,-z
-x,-x+y,1/3-z
y,x,2/3-z
-y,-x,1/6-z
-x+y,y,1/2-z
x,x-y,5/6-z
loop_
_atom_site_type_symbol
_atom_site_label
_atom_site_fract_x
_atom_site_fract_y
_atom_site_fract_z
Si Si1 0.671977 0.671977 0.333334
Si Si2 0.920828 0.672886 0.468046
Si Si3 0.000000 0.843550 0.666667
Si Si4 0.578441 0.578441 0.833334
Si Si5 0.563245 0.436756 0.583334
Si Si6 0.809725 0.277996 0.722394
O O1 0.708312 0.726108 0.486391
O O2 0.667112 0.578667 0.338906
O O3 0.817743 0.613113 0.431568
O O4 0.943186 0.757920 0.563663
O O5 0.945502 0.608704 0.559344
O O6 0.930364 0.860727 0.750000
O O7 0.564598 0.500715 0.718045
O O8 0.662196 0.472394 0.523028
O O9 0.743338 0.256663 0.583334
#
# Coordination Sequence:
#
# PCOD9583114 Si02
#       6
#     6  12   6   6   6  12
#     4  10  17  40  62 106 129 170 224 287 346 406
#     4  10  22  41  70 100 131 180 233 290 344 423
#     4  11  24  42  66  99 142 184 232 293 352 410
#     4  11  25  38  74  95 135 174 242 284 346 402
#     4  12  24  42  66 106 134 180 226 292 344 412
#     4  10  22  39  69  98 138 173 231 286 349 415
#
# _framework density 20.251009
#
# number of rings (size 3 to 8) (size 9 to 14) (size 15 to 20)
#    0.000    1.500    2.500    2.250    7.000    0.000 
#    0.000    6.250   11.000    0.000    0.000    0.000 
#    0.000    0.000    0.000    0.000    0.000    0.000 
#
# Total GULP energy -267655.262388 kJ/mol
# GULP energy per Si atom -5576.151300 kJ/mol
# Density = 2.020492 g / cm^3
# Si number density = 20.251009 Si / 1000 Ang^3
#
#
#
# Elastic Constant Matrix: (Units=GPa)
#
#
# Indices 1 2 3 4 5 6 
#
# 1 96.7087 47.7149 61.8189 0.0000 0.0000 0.0000
# 2 47.7149 96.7087 61.8189 0.0000 0.0000 0.0000
# 3 61.8189 61.8189 140.5615 0.0000 0.0000 0.0000
# 4 0.0000 0.0000 0.0000 24.9988 0.0000 0.0000
# 5 0.0000 0.0000 0.0000 0.0000 24.9988 0.0000
# 6 0.0000 0.0000 0.0000 0.0000 0.0000 24.4969
#
#
#
# Elastic Compliance Matrix: (Units=1/GPa)
#
#
# Indices 1 2 3 4 5 6 
#
# 1 0.015758 -0.004653 -0.004884 0.000000 0.000000 0.000000
# 2 -0.004653 0.015758 -0.004884 0.000000 0.000000 0.000000
# 3 -0.004884 -0.004884 0.011410 0.000000 0.000000 0.000000
# 4 0.000000 0.000000 0.000000 0.040002 0.000000 0.000000
# 5 0.000000 0.000000 0.000000 0.000000 0.040002 0.000000
# 6 0.000000 0.000000 0.000000 0.000000 0.000000 0.040822
#
#
# Mechanical properties :
#
#
# Convention : Reuss Voigt Hill
#
# Bulk Modulus (GPa) = 71.00000 75.18712 73.09356
# Shear Modulus (GPa) = 25.34360 25.74063 25.54211
#
# Velocity S-wave (km/s) = 3.54145 3.56909 3.55530
# Velocity P-wave (km/s) = 7.20129 7.36157 7.28187
#
# Compressibility (1/GPa) = 0.01408451
#
# Stress axis : x y z
#
# Youngs Moduli (GPa) = 63.45985 63.45985 87.63969
#
# Poissons Ratio (x) = 0.29526 0.42804
# Poissons Ratio (y) = 0.29526 0.42804
# Poissons Ratio (z) = 0.30994 0.30994
#
# Static dielectric constant tensor:
#      x y z
#    x 1.721480 0.000000 0.000000 
#    y 0.000000 1.721480 0.000000 
#    z 0.000000 0.000000 1.762470 
# 
# From -- ./inp_files/2811.got.cif
#   From: 2010.05.17/outbox.cif.g08.bks.cpg/sg179_2_cif.got.tgz:2811.got - 2010.05.20 11:37:33.
