data_PCOD9583059
_publ_section_title
;
Structure prediction by ZEFSAII (Michael W. Deem and Ramdas Pophale) SiO2 
 PCOD9583059
Probable space group: P 61 2 2
;
_chemical_formula_sum "Si O2"
_cell_formula_units_Z 54
_cell_length_a 10.990358
_cell_length_b 10.990358
_cell_length_c 21.485884
_cell_angle_alpha 90.000000
_cell_angle_beta 90.000000
_cell_angle_gamma 120.000000
_cell_volume 2247.540556
_symmetry_space_group_name_H-M "P 61 2 2"
_symmetry_group_IT_number 178
_symmetry_cell_setting 'hexagonal'
loop_
_space_group_symop_operation_xyz
x,y,z
x-y,x,1/6+z
-y,x-y,1/3+z
-x,-y,1/2+z
-x+y,-x,2/3+z
y,-x+y,5/6+z
x-y,-y,-z
-x,-x+y,2/3-z
y,x,1/3-z
-y,-x,5/6-z
-x+y,y,1/2-z
x,x-y,1/6-z
loop_
_atom_site_type_symbol
_atom_site_label
_atom_site_fract_x
_atom_site_fract_y
_atom_site_fract_z
Si Si1 0.462496 0.231248 0.583334
Si Si2 0.964785 0.408593 0.702185
Si Si3 0.618483 0.722250 0.837880
Si Si4 0.728025 0.874856 0.459115
Si Si5 0.195500 0.559085 0.307326
O O1 0.369803 0.286508 0.550350
O O2 0.565369 0.231619 0.529887
O O3 0.824302 0.271136 0.678920
O O4 0.936802 0.457569 0.769075
O O5 0.040383 0.553665 0.662670
O O6 0.743242 0.750886 0.885234
O O7 0.697815 0.769249 0.771563
O O8 0.584327 0.820582 0.499160
O O9 0.846385 0.000000 0.500000
O O10 0.304135 0.608270 0.250000
#
# Coordination Sequence:
#
# PCOD9583059 Si02
#       5
#     6  12  12  12  12
#     4  12  26  46  76 112 164 208 270 342 418 502
#     4  12  27  49  75 117 162 212 261 348 417 501
#     4  12  28  47  79 116 160 208 277 333 417 504
#     4  12  23  49  75 111 148 213 270 332 400 500
#     4  12  23  46  77 109 157 212 269 329 421 497
#
# _framework density 24.026261000000002
#
# number of rings (size 3 to 8) (size 9 to 14) (size 15 to 20)
#    0.000    0.000    6.667    2.667    3.111    0.889 
#    4.000    0.000    0.000    0.000    0.000    0.000 
#    0.000    0.000    0.000    0.000    0.000    0.000 
#
# Total GULP energy -301892.888460 kJ/mol
# GULP energy per Si atom -5590.609046 kJ/mol
# Density = 2.397158 g / cm^3
# Si number density = 24.026261 Si / 1000 Ang^3
#
#
#
# Elastic Constant Matrix: (Units=GPa)
#
#
# Indices 1 2 3 4 5 6 
#
# 1 111.5463 33.4813 0.7268 0.0000 0.0000 0.0000
# 2 33.4813 111.5463 0.7268 0.0000 0.0000 0.0000
# 3 0.7268 0.7268 64.8567 0.0000 0.0000 0.0000
# 4 0.0000 0.0000 0.0000 38.4985 0.0000 0.0000
# 5 0.0000 0.0000 0.0000 0.0000 38.4985 0.0000
# 6 0.0000 0.0000 0.0000 0.0000 0.0000 39.0325
#
#
#
# Elastic Compliance Matrix: (Units=1/GPa)
#
#
# Indices 1 2 3 4 5 6 
#
# 1 0.009853 -0.002957 -0.000077 0.000000 0.000000 0.000000
# 2 -0.002957 0.009853 -0.000077 0.000000 0.000000 0.000000
# 3 -0.000077 -0.000077 0.015420 0.000000 0.000000 0.000000
# 4 0.000000 0.000000 0.000000 0.025975 0.000000 0.000000
# 5 0.000000 0.000000 0.000000 0.000000 0.025975 0.000000
# 6 0.000000 0.000000 0.000000 0.000000 0.000000 0.025620
#
#
# Mechanical properties :
#
#
# Convention : Reuss Voigt Hill
#
# Bulk Modulus (GPa) = 34.59822 39.75771 37.17796
# Shear Modulus (GPa) = 38.89437 40.07352 39.48394
#
# Velocity S-wave (km/s) = 4.02783 4.08843 4.05824
# Velocity P-wave (km/s) = 6.00522 6.23462 6.12100
#
# Compressibility (1/GPa) = 0.02890322
#
# Stress axis : x y z
#
# Youngs Moduli (GPa) = 101.49263 101.49263 64.84946
#
# Poissons Ratio (x) = 0.30011 0.00501
# Poissons Ratio (y) = 0.30011 0.00501
# Poissons Ratio (z) = 0.00784 0.00784
#
# Static dielectric constant tensor:
#      x y z
#    x 2.038950 0.000000 0.000000 
#    y 0.000000 2.038950 0.000000 
#    z 0.000000 0.000000 1.910030 
# 
# From -- ./inp_files/7418.got.cif
#   From: 2010.05.17/outbox.cif.g08.bks.cpg/sg178_4_cif.got.tgz:7418.got - 2010.05.20 11:30:59.
