data_PCOD9583037
_publ_section_title
;
Structure prediction by ZEFSAII (Michael W. Deem and Ramdas Pophale) SiO2 
 PCOD9583037
Probable space group: P 61 2 2
;
_chemical_formula_sum "Si O2"
_cell_formula_units_Z 60
_cell_length_a 14.666774
_cell_length_b 14.666774
_cell_length_c 13.116168
_cell_angle_alpha 90.000000
_cell_angle_beta 90.000000
_cell_angle_gamma 120.000000
_cell_volume 2443.468825
_symmetry_space_group_name_H-M "P 61 2 2"
_symmetry_group_IT_number 178
_symmetry_cell_setting 'hexagonal'
loop_
_space_group_symop_operation_xyz
x,y,z
x-y,x,1/6+z
-y,x-y,1/3+z
-x,-y,1/2+z
-x+y,-x,2/3+z
y,-x+y,5/6+z
x-y,-y,-z
-x,-x+y,2/3-z
y,x,1/3-z
-y,-x,5/6-z
-x+y,y,1/2-z
x,x-y,1/6-z
loop_
_atom_site_type_symbol
_atom_site_label
_atom_site_fract_x
_atom_site_fract_y
_atom_site_fract_z
Si Si1 0.923600 0.461800 0.083334
Si Si2 0.152452 0.006391 0.753687
Si Si3 0.463845 0.109878 0.475532
Si Si4 0.439595 0.766331 0.436844
Si Si5 0.153669 0.307338 0.750000
Si Si6 0.290248 0.388979 0.418546
O O1 0.842662 0.398195 0.176738
O O2 0.007879 0.587598 0.071831
O O3 0.216839 0.947778 0.779979
O O4 0.055171 0.928622 0.683227
O O5 0.232023 0.101449 0.679181
O O6 0.585212 0.195164 0.475448
O O7 0.389094 0.113173 0.563920
O O8 0.410350 0.118799 0.373304
O O9 0.457151 0.000000 0.500000
O O10 0.352557 0.647444 0.416667
O O11 0.543481 0.760278 0.458357
#
# Coordination Sequence:
#
# PCOD9583037 Si02
#       6
#     6  12  12  12   6  12
#     4  12  24  43  70 108 149 188 240 312 380 448
#     4  12  24  42  73 114 154 198 260 336 390 458
#     4  12  22  41  70 104 147 185 240 312 377 448
#     4  12  25  42  67 104 143 194 242 301 374 461
#     4  12  20  41  72 116 141 180 250 330 386 438
#     4  12  25  45  68 111 149 196 248 310 387 459
#
# _framework density 24.555257000000001
#
# number of rings (size 3 to 8) (size 9 to 14) (size 15 to 20)
#    0.000    0.000    8.000    3.000    0.000    0.000 
#    0.000    0.000    0.000    4.800   10.400    0.000 
#    0.000    0.000    0.000    0.000    0.000    0.000 
#
# Total GULP energy -335558.329124 kJ/mol
# GULP energy per Si atom -5592.638819 kJ/mol
# Density = 2.449937 g / cm^3
# Si number density = 24.555257 Si / 1000 Ang^3
#
#
#
# Elastic Constant Matrix: (Units=GPa)
#
#
# Indices 1 2 3 4 5 6 
#
# 1 168.9400 74.9915 38.6936 0.0000 0.0000 0.0000
# 2 74.9915 168.9400 38.6936 0.0000 0.0000 0.0000
# 3 38.6936 38.6936 55.0394 0.0000 0.0000 0.0000
# 4 0.0000 0.0000 0.0000 11.5115 0.0000 0.0000
# 5 0.0000 0.0000 0.0000 0.0000 11.5115 0.0000
# 6 0.0000 0.0000 0.0000 0.0000 0.0000 46.9742
#
#
#
# Elastic Compliance Matrix: (Units=1/GPa)
#
#
# Indices 1 2 3 4 5 6 
#
# 1 0.007960 -0.002684 -0.003709 0.000000 0.000000 0.000000
# 2 -0.002684 0.007960 -0.003709 0.000000 0.000000 0.000000
# 3 -0.003709 -0.003709 0.023384 0.000000 0.000000 0.000000
# 4 0.000000 0.000000 0.000000 0.086870 0.000000 0.000000
# 5 0.000000 0.000000 0.000000 0.000000 0.086870 0.000000
# 6 0.000000 0.000000 0.000000 0.000000 0.000000 0.021288
#
#
# Mechanical properties :
#
#
# Convention : Reuss Voigt Hill
#
# Bulk Modulus (GPa) = 52.35731 77.51964 64.93848
# Shear Modulus (GPa) = 19.16416 30.03550 24.59983
#
# Velocity S-wave (km/s) = 2.79668 3.50119 3.16858
# Velocity P-wave (km/s) = 5.63889 6.92694 6.31584
#
# Compressibility (1/GPa) = 0.01909953
#
# Stress axis : x y z
#
# Youngs Moduli (GPa) = 125.62482 125.62482 42.76390
#
# Poissons Ratio (x) = 0.33717 0.15862
# Poissons Ratio (y) = 0.33717 0.15862
# Poissons Ratio (z) = 0.46598 0.46598
#
# Static dielectric constant tensor:
#      x y z
#    x 1.986170 0.000000 0.000000 
#    y 0.000000 1.986170 0.000000 
#    z 0.000000 0.000000 2.108700 
# 
# From -- ./inp_files/5772.got.cif
#   From: 2010.05.17/outbox.cif.g08.bks.cpg/sg178_3_cif.got.tgz:5772.got - 2010.05.20 11:30:59.
