data_PCOD9583796
_publ_section_title
;
Structure prediction by ZEFSAII (Michael W. Deem and Ramdas Pophale) SiO2 
 PCOD9583796
Probable space group: P 62 2 2
;
_chemical_formula_sum "Si O2"
_cell_formula_units_Z 39
_cell_length_a 7.831397
_cell_length_b 7.831397
_cell_length_c 30.222012
_cell_angle_alpha 90.000000
_cell_angle_beta 90.000000
_cell_angle_gamma 120.000000
_cell_volume 1605.212327
_symmetry_space_group_name_H-M "P 62 2 2"
_symmetry_group_IT_number 180
_symmetry_cell_setting 'hexagonal'
loop_
_space_group_symop_operation_xyz
x,y,z
x-y,x,1/3+z
-y,x-y,2/3+z
-x,-y,z
-x+y,-x,1/3+z
y,-x+y,2/3+z
x-y,-y,-z
-x,-x+y,1/3-z
y,x,2/3-z
-y,-x,2/3-z
-x+y,y,-z
x,x-y,1/3-z
loop_
_atom_site_type_symbol
_atom_site_label
_atom_site_fract_x
_atom_site_fract_y
_atom_site_fract_z
Si Si1 0.272913 0.183414 0.758002
Si Si2 0.877857 0.263847 0.967880
Si Si3 0.736567 0.267935 0.599160
Si Si4 0.000000 0.000000 0.166667
O O1 0.193789 0.337452 0.762773
O O2 0.507417 0.322578 0.749266
O O3 0.201317 0.029561 0.717082
O O4 0.187065 0.054294 0.801729
O O5 0.682127 0.183256 0.938093
O O6 0.000000 0.500000 0.962879
O O7 0.807197 0.240654 0.018491
#
# Coordination Sequence:
#
# PCOD9583796 Si02
#       4
#    12  12  12   3
#     4  10  20  37  58  88 131 173 216 271 336 420
#     4   9  15  31  62  99 120 142 214 300 347 388
#     4   9  17  32  66  95 115 156 224 284 347 398
#     4  12  28  42  50  80 148 192 220 250 344 438
#
# _framework density 24.295850000000002
#
# number of rings (size 3 to 8) (size 9 to 14) (size 15 to 20)
#    0.000    2.462    3.077    0.923    0.000    2.462 
#    0.000   13.846    0.000    3.692    0.000    0.000 
#    0.000    0.000    0.000    0.000    0.000    0.000 
#
# Total GULP energy -217166.466143 kJ/mol
# GULP energy per Si atom -5568.370927 kJ/mol
# Density = 2.424055 g / cm^3
# Si number density = 24.295850 Si / 1000 Ang^3
#
#
#
# Elastic Constant Matrix: (Units=GPa)
#
#
# Indices 1 2 3 4 5 6 
#
# 1 101.1699 31.4973 26.1200 0.0000 0.0000 0.0000
# 2 31.4973 101.1699 26.1200 0.0000 0.0000 0.0000
# 3 26.1200 26.1200 105.2975 0.0000 0.0000 0.0000
# 4 0.0000 0.0000 0.0000 14.8355 0.0000 0.0000
# 5 0.0000 0.0000 0.0000 0.0000 14.8355 0.0000
# 6 0.0000 0.0000 0.0000 0.0000 0.0000 34.8363
#
#
#
# Elastic Compliance Matrix: (Units=1/GPa)
#
#
# Indices 1 2 3 4 5 6 
#
# 1 0.011353 -0.003000 -0.002072 0.000000 0.000000 0.000000
# 2 -0.003000 0.011353 -0.002072 0.000000 0.000000 0.000000
# 3 -0.002072 -0.002072 0.010525 0.000000 0.000000 0.000000
# 4 0.000000 0.000000 0.000000 0.067406 0.000000 0.000000
# 5 0.000000 0.000000 0.000000 0.000000 0.067406 0.000000
# 6 0.000000 0.000000 0.000000 0.000000 0.000000 0.028706
#
#
# Mechanical properties :
#
#
# Convention : Reuss Voigt Hill
#
# Bulk Modulus (GPa) = 52.78875 52.79020 52.78948
# Shear Modulus (GPa) = 23.00419 27.82811 25.41615
#
# Velocity S-wave (km/s) = 3.08041 3.38803 3.23787
# Velocity P-wave (km/s) = 5.86741 6.08935 5.97941
#
# Compressibility (1/GPa) = 0.01894343
#
# Stress axis : x y z
#
# Youngs Moduli (GPa) = 88.08064 88.08064 95.01229
#
# Poissons Ratio (x) = 0.26421 0.19688
# Poissons Ratio (y) = 0.26421 0.19688
# Poissons Ratio (z) = 0.18252 0.18252
#
# Static dielectric constant tensor:
#      x y z
#    x 2.034270 0.000000 0.000000 
#    y 0.000000 2.034270 0.000000 
#    z 0.000000 0.000000 1.975770 
# 
# From -- ./inp_files/11868.got.cif
#   From: 2010.05.17/outbox.cif.g08.bks.cpg/sg180_6_cif.got.tgz:11868.got - 2010.05.20 11:43:55.
