data_PCOD9583250
_publ_section_title
;
Structure prediction by ZEFSAII (Michael W. Deem and Ramdas Pophale) SiO2 
 PCOD9583250
Probable space group: P 65 2 2
;
_chemical_formula_sum "Si O2"
_cell_formula_units_Z 54
_cell_length_a 20.784639
_cell_length_b 20.784639
_cell_length_c 7.469607
_cell_angle_alpha 90.000000
_cell_angle_beta 90.000000
_cell_angle_gamma 120.000000
_cell_volume 2794.559470
_symmetry_space_group_name_H-M "P 65 2 2"
_symmetry_group_IT_number 179
_symmetry_cell_setting 'hexagonal'
loop_
_space_group_symop_operation_xyz
x,y,z
x-y,x,5/6+z
-y,x-y,2/3+z
-x,-y,1/2+z
-x+y,-x,1/3+z
y,-x+y,1/6+z
x-y,-y,-z
-x,-x+y,1/3-z
y,x,2/3-z
-y,-x,1/6-z
-x+y,y,1/2-z
x,x-y,5/6-z
loop_
_atom_site_type_symbol
_atom_site_label
_atom_site_fract_x
_atom_site_fract_y
_atom_site_fract_z
Si Si1 0.562005 0.857544 0.968953
Si Si2 0.716259 0.000000 0.000000
Si Si3 0.911428 0.453915 0.633270
Si Si4 0.436600 0.293583 0.936125
Si Si5 0.790450 0.061208 0.627170
O O1 0.639643 0.931681 0.918298
O O2 0.493218 0.871621 0.931348
O O3 0.562345 0.863120 0.183695
O O4 0.558411 0.779206 0.916667
O O5 0.737184 0.964381 0.166541
O O6 0.902384 0.451192 0.416667
O O7 0.875008 0.366617 0.672336
O O8 0.000000 0.500150 0.666667
O O9 0.452235 0.226118 0.916667
O O10 0.352644 0.269972 0.889575
O O11 0.865622 0.134379 0.583334
O O12 0.788498 0.000000 0.500000
#
# Coordination Sequence:
#
# PCOD9583250 Si02
#       5
#    12   6  12  12  12
#     4  10  21  36  57  84 117 154 203 253 310 373
#     4  10  22  36  62  88 124 162 198 258 316 376
#     4  10  20  36  55  83 115 153 205 254 307 369
#     4   9  20  36  54  81 116 159 198 259 310 361
#     4  10  22  37  59  93 123 160 205 257 317 374
#
# _framework density 19.323260999999999
#
# number of rings (size 3 to 8) (size 9 to 14) (size 15 to 20)
#    0.000    2.222    1.111    0.667    9.333    1.778 
#    0.000    3.333    0.000    0.000    2.889    0.000 
#    0.000    0.000    0.000    0.000    0.000    0.000 
#
# Total GULP energy -300612.889053 kJ/mol
# GULP energy per Si atom -5566.905353 kJ/mol
# Density = 1.927928 g / cm^3
# Si number density = 19.323261 Si / 1000 Ang^3
#
#
#
# Elastic Constant Matrix: (Units=GPa)
#
#
# Indices 1 2 3 4 5 6 
#
# 1 52.6590 135.3660 27.4267 0.0000 0.0000 0.0000
# 2 135.3660 52.6590 27.4267 0.0000 0.0000 0.0000
# 3 27.4267 27.4267 79.4954 0.0000 0.0000 0.0000
# 4 0.0000 0.0000 0.0000 26.8220 0.0000 0.0000
# 5 0.0000 0.0000 0.0000 0.0000 26.8220 0.0000
# 6 0.0000 0.0000 0.0000 0.0000 0.0000 -41.3535
#
#
#
# Elastic Compliance Matrix: (Units=1/GPa)
#
#
# Indices 1 2 3 4 5 6 
#
# 1 -0.003089 0.009002 -0.002040 0.000000 0.000000 0.000000
# 2 0.009002 -0.003089 -0.002040 0.000000 0.000000 0.000000
# 3 -0.002040 -0.002040 0.013987 0.000000 0.000000 0.000000
# 4 0.000000 0.000000 0.000000 0.037283 0.000000 0.000000
# 5 0.000000 0.000000 0.000000 0.000000 0.037283 0.000000
# 6 0.000000 0.000000 0.000000 0.000000 0.000000 -0.024182
#
#
# Mechanical properties :
#
#
# Convention : Reuss Voigt Hill
#
# Bulk Modulus (GPa) = 56.64630 62.80579 59.72604
# Shear Modulus (GPa) = 92.19165 2.09770 47.14468
#
# Velocity S-wave (km/s) = 6.91475 1.04304 4.94478
# Velocity P-wave (km/s) = 9.65041 5.83300 7.97353
#
# Compressibility (1/GPa) = 0.01765341
#
# Stress axis : x y z
#
# Youngs Moduli (GPa) = -323.77053 -323.77053 71.49407
#
# Poissons Ratio (x) = 2.91467 0.14587
# Poissons Ratio (y) = 2.91467 0.14587
# Poissons Ratio (z) = -0.66058 -0.66058
#
# Static dielectric constant tensor:
#      x y z
#    x 1.644300 0.000000 0.000000 
#    y 0.000000 1.644300 0.000000 
#    z 0.000000 0.000000 1.799190 
# 
# From -- ./inp_files/3108.got.cif
#   From: 2010.05.17/outbox.cif.g08.bks.cpg/sg179_2_cif.got.tgz:3108.got - 2010.05.20 11:37:33.
