data_PCOD9583688
_publ_section_title
;
Structure prediction by ZEFSAII (Michael W. Deem and Ramdas Pophale) SiO2 
 PCOD9583688
Probable space group: P 62 2 2
;
_chemical_formula_sum "Si O2"
_cell_formula_units_Z 78
_cell_length_a 19.682222
_cell_length_b 19.682222
_cell_length_c 16.024430
_cell_angle_alpha 90.000000
_cell_angle_beta 90.000000
_cell_angle_gamma 120.000000
_cell_volume 5376.027406
_symmetry_space_group_name_H-M "P 62 2 2"
_symmetry_group_IT_number 180
_symmetry_cell_setting 'hexagonal'
loop_
_space_group_symop_operation_xyz
x,y,z
x-y,x,1/3+z
-y,x-y,2/3+z
-x,-y,z
-x+y,-x,1/3+z
y,-x+y,2/3+z
x-y,-y,-z
-x,-x+y,1/3-z
y,x,2/3-z
-y,-x,2/3-z
-x+y,y,-z
x,x-y,1/3-z
loop_
_atom_site_type_symbol
_atom_site_label
_atom_site_fract_x
_atom_site_fract_y
_atom_site_fract_z
Si Si1 0.493008 0.128798 0.978437
Si Si2 0.500000 0.500000 0.051293
Si Si3 0.269082 0.802354 0.247719
Si Si4 0.832490 0.392164 0.964780
Si Si5 0.612114 0.961930 0.829022
Si Si6 0.569980 0.861284 0.157265
Si Si7 0.280441 0.707501 0.114507
O O1 0.464349 0.146620 0.064465
O O2 0.545331 0.090662 0.000000
O O3 0.421543 0.071084 0.920202
O O4 0.550861 0.208559 0.926536
O O5 0.479388 0.557623 0.001695
O O6 0.572488 0.550091 0.112523
O O7 0.223414 0.776586 0.333334
O O8 0.354945 0.810914 0.263533
O O9 0.281221 0.885314 0.216511
O O10 0.234073 0.733989 0.178292
O O11 0.837692 0.338696 0.890849
O O12 0.772329 0.343327 0.037319
O O13 0.686687 0.048467 0.830594
O O14 0.598969 0.799485 0.166667
O O15 0.307452 0.653726 0.166667
#
# Coordination Sequence:
#
# PCOD9583688 Si02
#       7
#    12   6  12  12  12  12  12
#     4  11  21  30  47  67  91 120 154 191 245 283
#     4   8  16  32  50  58  86 116 148 192 235 273
#     4  10  19  31  46  61  87 120 153 193 239 274
#     4  10  19  33  45  63  86 115 151 195 237 277
#     4   9  19  32  47  66  86 116 152 190 232 291
#     4  11  20  33  49  67  91 115 148 197 245 288
#     4  11  21  29  42  64  90 115 155 204 237 277
#
# _framework density 14.508853999999999
#
# number of rings (size 3 to 8) (size 9 to 14) (size 15 to 20)
#    0.000    1.846    3.077    4.154    2.154    1.846 
#    0.000    0.385    0.000    0.000    0.000    0.000 
#    0.000    0.000    0.000    0.000    0.000    9.231 
#
# Total GULP energy -434495.796356 kJ/mol
# GULP energy per Si atom -5570.458928 kJ/mol
# Density = 1.447583 g / cm^3
# Si number density = 14.508854 Si / 1000 Ang^3
#
#
#
# Elastic Constant Matrix: (Units=GPa)
#
#
# Indices 1 2 3 4 5 6 
#
# 1 61.8881 36.4580 27.8764 0.0000 0.0000 0.0000
# 2 36.4580 61.8881 27.8764 0.0000 0.0000 0.0000
# 3 27.8764 27.8764 77.6685 0.0000 0.0000 0.0000
# 4 0.0000 0.0000 0.0000 11.1398 0.0000 0.0000
# 5 0.0000 0.0000 0.0000 0.0000 11.1398 0.0000
# 6 0.0000 0.0000 0.0000 0.0000 0.0000 12.7150
#
#
#
# Elastic Compliance Matrix: (Units=1/GPa)
#
#
# Indices 1 2 3 4 5 6 
#
# 1 0.026045 -0.013279 -0.004582 0.000000 0.000000 0.000000
# 2 -0.013279 0.026045 -0.004582 0.000000 0.000000 0.000000
# 3 -0.004582 -0.004582 0.016164 0.000000 0.000000 0.000000
# 4 0.000000 0.000000 0.000000 0.089768 0.000000 0.000000
# 5 0.000000 0.000000 0.000000 0.000000 0.089768 0.000000
# 6 0.000000 0.000000 0.000000 0.000000 0.000000 0.078647
#
#
# Mechanical properties :
#
#
# Convention : Reuss Voigt Hill
#
# Bulk Modulus (GPa) = 42.79302 42.87402 42.83352
# Shear Modulus (GPa) = 13.18875 14.28118 13.73497
#
# Velocity S-wave (km/s) = 3.01826 3.14077 3.08012
# Velocity P-wave (km/s) = 6.45794 6.53965 6.49892
#
# Compressibility (1/GPa) = 0.02336830
#
# Stress axis : x y z
#
# Youngs Moduli (GPa) = 38.39571 38.39571 61.86519
#
# Poissons Ratio (x) = 0.50986 0.28345
# Poissons Ratio (y) = 0.50986 0.28345
# Poissons Ratio (z) = 0.17592 0.17592
#
# Static dielectric constant tensor:
#      x y z
#    x 1.497850 0.000000 0.000000 
#    y 0.000000 1.497850 0.000000 
#    z 0.000000 0.000000 1.528650 
# 
# From -- ./inp_files/6532.got.cif
#   From: 2010.05.17/outbox.cif.g08.bks.cpg/sg180_4_cif.got.tgz:6532.got - 2010.05.20 11:43:55.
