data_PCOD9583350
_publ_section_title
;
Structure prediction by ZEFSAII (Michael W. Deem and Ramdas Pophale) SiO2 
 PCOD9583350
Probable space group: P 65 2 2
;
_chemical_formula_sum "Si O2"
_cell_formula_units_Z 54
_cell_length_a 9.388512
_cell_length_b 9.388512
_cell_length_c 25.572036
_cell_angle_alpha 90.000000
_cell_angle_beta 90.000000
_cell_angle_gamma 120.000000
_cell_volume 1952.043405
_symmetry_space_group_name_H-M "P 65 2 2"
_symmetry_group_IT_number 179
_symmetry_cell_setting 'hexagonal'
loop_
_space_group_symop_operation_xyz
x,y,z
x-y,x,5/6+z
-y,x-y,2/3+z
-x,-y,1/2+z
-x+y,-x,1/3+z
y,-x+y,1/6+z
x-y,-y,-z
-x,-x+y,1/3-z
y,x,2/3-z
-y,-x,1/6-z
-x+y,y,1/2-z
x,x-y,5/6-z
loop_
_atom_site_type_symbol
_atom_site_label
_atom_site_fract_x
_atom_site_fract_y
_atom_site_fract_z
Si Si1 0.927139 0.000000 0.500000
Si Si2 0.300247 0.781581 0.456813
Si Si3 0.883505 0.710247 0.065312
Si Si4 0.432908 0.982662 0.629947
Si Si5 0.762340 0.319259 0.465254
O O1 0.842662 0.025293 0.449713
O O2 0.092014 0.164922 0.518362
O O3 0.269202 0.634601 0.416667
O O4 0.344495 0.401350 0.410194
O O5 0.158124 0.705587 0.500559
O O6 0.456595 0.809837 0.492031
O O7 0.952344 0.588525 0.048411
O O8 0.713992 0.598900 0.097640
O O9 0.516787 0.140518 0.668413
O O10 0.655670 0.327835 0.416667
#
# Coordination Sequence:
#
# PCOD9583350 Si02
#       5
#     6  12  12  12  12
#     4  10  22  34  60  98 152 206 242 322 370 464
#     4  10  23  40  65 105 155 211 249 326 407 476
#     4  11  20  37  61 103 153 196 262 311 384 467
#     4  11  22  40  65 104 158 202 263 323 396 489
#     4  11  21  38  65 104 150 203 254 328 398 465
#
# _framework density 27.663319999999999
#
# number of rings (size 3 to 8) (size 9 to 14) (size 15 to 20)
#    0.000    1.333    4.444    2.000    6.222    0.000 
#    0.000    0.000    0.000    0.000    0.000   57.556 
#    0.000    0.000    2.667    0.000    0.000    0.000 
#
# Total GULP energy -300786.282956 kJ/mol
# GULP energy per Si atom -5570.116351 kJ/mol
# Density = 2.760036 g / cm^3
# Si number density = 27.663320 Si / 1000 Ang^3
#
#
#
# Elastic Constant Matrix: (Units=GPa)
#
#
# Indices 1 2 3 4 5 6 
#
# 1 108.3416 40.3841 71.9350 0.0000 0.0000 0.0000
# 2 40.3841 108.3416 71.9350 0.0000 0.0000 0.0000
# 3 71.9350 71.9350 205.0795 0.0000 0.0000 0.0000
# 4 0.0000 0.0000 0.0000 62.3590 0.0000 0.0000
# 5 0.0000 0.0000 0.0000 0.0000 62.3590 0.0000
# 6 0.0000 0.0000 0.0000 0.0000 0.0000 33.9787
#
#
#
# Elastic Compliance Matrix: (Units=1/GPa)
#
#
# Indices 1 2 3 4 5 6 
#
# 1 0.012446 -0.002269 -0.003570 0.000000 0.000000 0.000000
# 2 -0.002269 0.012446 -0.003570 0.000000 0.000000 0.000000
# 3 -0.003570 -0.003570 0.007380 0.000000 0.000000 0.000000
# 4 0.000000 0.000000 0.000000 0.016036 0.000000 0.000000
# 5 0.000000 0.000000 0.000000 0.000000 0.016036 0.000000
# 6 0.000000 0.000000 0.000000 0.000000 0.000000 0.029430
#
#
# Mechanical properties :
#
#
# Convention : Reuss Voigt Hill
#
# Bulk Modulus (GPa) = 74.31940 87.80788 81.06364
# Shear Modulus (GPa) = 42.70685 47.57327 45.14006
#
# Velocity S-wave (km/s) = 3.93339 4.15145 4.04389
# Velocity P-wave (km/s) = 6.89585 7.40202 7.15342
#
# Compressibility (1/GPa) = 0.01345544
#
# Stress axis : x y z
#
# Youngs Moduli (GPa) = 80.34690 80.34690 135.49314
#
# Poissons Ratio (x) = 0.18231 0.48368
# Poissons Ratio (y) = 0.18231 0.48368
# Poissons Ratio (z) = 0.28682 0.28682
#
# Static dielectric constant tensor:
#      x y z
#    x 2.460070 0.000000 0.000000 
#    y 0.000000 2.460070 0.000000 
#    z 0.000000 0.000000 2.188090 
# 
# From -- ./inp_files/8742.got.cif
#   From: 2010.05.17/outbox.cif.g08.bks.cpg/sg179_5_cif.got.tgz:8742.got - 2010.05.20 11:37:33.
