data_PCOD9583748
_publ_section_title
;
Structure prediction by ZEFSAII (Michael W. Deem and Ramdas Pophale) SiO2 
 PCOD9583748
Probable space group: P 62 2 2
;
_chemical_formula_sum "Si O2"
_cell_formula_units_Z 36
_cell_length_a 8.232598
_cell_length_b 8.232598
_cell_length_c 25.165283
_cell_angle_alpha 90.000000
_cell_angle_beta 90.000000
_cell_angle_gamma 120.000000
_cell_volume 1477.087656
_symmetry_space_group_name_H-M "P 62 2 2"
_symmetry_group_IT_number 180
_symmetry_cell_setting 'hexagonal'
loop_
_space_group_symop_operation_xyz
x,y,z
x-y,x,1/3+z
-y,x-y,2/3+z
-x,-y,z
-x+y,-x,1/3+z
y,-x+y,2/3+z
x-y,-y,-z
-x,-x+y,1/3-z
y,x,2/3-z
-y,-x,2/3-z
-x+y,y,-z
x,x-y,1/3-z
loop_
_atom_site_type_symbol
_atom_site_label
_atom_site_fract_x
_atom_site_fract_y
_atom_site_fract_z
Si Si1 0.278089 0.034497 0.063715
Si Si2 0.717989 0.410562 0.774695
Si Si3 0.111157 0.380232 0.943407
O O1 0.500756 0.164032 0.074931
O O2 0.207524 0.177243 0.080302
O O3 0.214163 0.846384 0.097793
O O4 0.250289 0.000000 0.000000
O O5 0.678709 0.321292 0.833334
O O6 0.510418 0.306281 0.752023
O O7 0.000000 0.500000 0.946195
O O8 0.173227 0.346454 0.000000
#
# Coordination Sequence:
#
# PCOD9583748 Si02
#       3
#    12  12  12
#     4  10  21  36  59  92 139 181 234 295 348 435
#     4  10  20  33  61  99 137 175 234 298 353 432
#     4  10  21  38  64  95 134 182 242 297 357 432
#
# _framework density 24.372281999999998
#
# number of rings (size 3 to 8) (size 9 to 14) (size 15 to 20)
#    0.000    2.000    0.000    6.000   14.000    0.667 
#    0.000    0.000    0.000    9.000    8.667    0.000 
#    0.000    0.000    0.000    0.000    0.000    0.000 
#
# Total GULP energy -200769.448489 kJ/mol
# GULP energy per Si atom -5576.929125 kJ/mol
# Density = 2.431681 g / cm^3
# Si number density = 24.372282 Si / 1000 Ang^3
#
#
#
# Elastic Constant Matrix: (Units=GPa)
#
#
# Indices 1 2 3 4 5 6 
#
# 1 145.0611 71.5673 20.9725 0.0000 0.0000 0.0000
# 2 71.5673 145.0611 20.9725 0.0000 0.0000 0.0000
# 3 20.9725 20.9725 42.9036 0.0000 0.0000 0.0000
# 4 0.0000 0.0000 0.0000 57.3637 0.0000 0.0000
# 5 0.0000 0.0000 0.0000 0.0000 57.3637 0.0000
# 6 0.0000 0.0000 0.0000 0.0000 0.0000 36.7469
#
#
#
# Elastic Compliance Matrix: (Units=1/GPa)
#
#
# Indices 1 2 3 4 5 6 
#
# 1 0.009353 -0.004254 -0.002492 0.000000 0.000000 0.000000
# 2 -0.004254 0.009353 -0.002492 0.000000 0.000000 0.000000
# 3 -0.002492 -0.002492 0.025745 0.000000 0.000000 0.000000
# 4 0.000000 0.000000 0.000000 0.017433 0.000000 0.000000
# 5 0.000000 0.000000 0.000000 0.000000 0.017433 0.000000
# 6 0.000000 0.000000 0.000000 0.000000 0.000000 0.027213
#
#
# Mechanical properties :
#
#
# Convention : Reuss Voigt Hill
#
# Bulk Modulus (GPa) = 38.50199 62.22780 50.36490
# Shear Modulus (GPa) = 37.40730 44.92910 41.16820
#
# Velocity S-wave (km/s) = 3.92194 4.29820 4.11437
# Velocity P-wave (km/s) = 6.02831 7.08663 6.57879
#
# Compressibility (1/GPa) = 0.02597268
#
# Stress axis : x y z
#
# Youngs Moduli (GPa) = 106.92101 106.92101 38.84276
#
# Poissons Ratio (x) = 0.45483 0.09681
# Poissons Ratio (y) = 0.45483 0.09681
# Poissons Ratio (z) = 0.26649 0.26649
#
# Static dielectric constant tensor:
#      x y z
#    x 1.973490 0.000000 0.000000 
#    y 0.000000 1.973490 0.000000 
#    z 0.000000 0.000000 2.123910 
# 
# From -- ./inp_files/11662.got.cif
#   From: 2010.05.17/outbox.cif.g08.bks.cpg/sg180_6_cif.got.tgz:11662.got - 2010.05.20 11:43:55.
