data_PCOD9583411
_publ_section_title
;
Structure prediction by ZEFSAII (Michael W. Deem and Ramdas Pophale) SiO2 
 PCOD9583411
Probable space group: P 65 2 2
;
_chemical_formula_sum "Si O2"
_cell_formula_units_Z 72
_cell_length_a 14.160472
_cell_length_b 14.160472
_cell_length_c 17.300674
_cell_angle_alpha 90.000000
_cell_angle_beta 90.000000
_cell_angle_gamma 120.000000
_cell_volume 3004.340232
_symmetry_space_group_name_H-M "P 65 2 2"
_symmetry_group_IT_number 179
_symmetry_cell_setting 'hexagonal'
loop_
_space_group_symop_operation_xyz
x,y,z
x-y,x,5/6+z
-y,x-y,2/3+z
-x,-y,1/2+z
-x+y,-x,1/3+z
y,-x+y,1/6+z
x-y,-y,-z
-x,-x+y,1/3-z
y,x,2/3-z
-y,-x,1/6-z
-x+y,y,1/2-z
x,x-y,5/6-z
loop_
_atom_site_type_symbol
_atom_site_label
_atom_site_fract_x
_atom_site_fract_y
_atom_site_fract_z
Si Si1 0.775024 0.387512 0.916667
Si Si2 0.983641 0.016360 0.083334
Si Si3 0.364339 0.518361 0.243824
Si Si4 0.054752 0.724153 0.083196
Si Si5 0.563613 0.421506 0.251703
Si Si6 0.696282 0.018094 0.871322
Si Si7 0.943987 0.764509 0.945823
O O1 0.850437 0.437534 0.840960
O O2 0.686807 0.259547 0.907404
O O3 0.000000 0.077963 0.166667
O O4 0.105734 0.102576 0.051666
O O5 0.282318 0.564636 0.250000
O O6 0.433380 0.555874 0.321912
O O7 0.293862 0.386866 0.247721
O O8 0.151054 0.848947 0.083334
O O9 0.113068 0.654559 0.058586
O O10 0.000000 0.688086 0.166667
O O11 0.964599 0.717402 0.023863
O O12 0.450928 0.382757 0.208504
O O13 0.815964 0.098612 0.903494
O O14 0.723740 0.991113 0.788098
#
# Coordination Sequence:
#
# PCOD9583411 Si02
#       7
#     6   6  12  12  12  12  12
#     4  10  22  48  77 112 150 197 260 318 396 464
#     4  12  28  50  81 110 156 213 272 320 394 468
#     4  10  23  43  76 108 153 197 251 320 383 472
#     4  12  28  51  80 110 156 209 272 329 398 478
#     4  11  25  48  77 114 153 204 259 325 399 471
#     4  12  26  46  72 112 156 199 260 317 398 458
#     4  12  28  47  73 117 158 211 262 330 390 478
#
# _framework density 23.965328
#
# number of rings (size 3 to 8) (size 9 to 14) (size 15 to 20)
#    0.000    0.667    2.500    4.500    2.333    8.667 
#    3.000    0.000    0.000    0.000    0.000    0.000 
#    0.000    0.000    0.000    0.000    0.000    0.000 
#
# Total GULP energy -401416.507308 kJ/mol
# GULP energy per Si atom -5575.229268 kJ/mol
# Density = 2.391078 g / cm^3
# Si number density = 23.965328 Si / 1000 Ang^3
#
#
#
# Elastic Constant Matrix: (Units=GPa)
#
#
# Indices 1 2 3 4 5 6 
#
# 1 147.8074 -21.2811 42.1194 0.0000 0.0000 0.0000
# 2 -21.2811 147.8074 42.1194 0.0000 0.0000 0.0000
# 3 42.1194 42.1194 105.9109 0.0000 0.0000 0.0000
# 4 0.0000 0.0000 0.0000 43.2553 0.0000 0.0000
# 5 0.0000 0.0000 0.0000 0.0000 43.2553 0.0000
# 6 0.0000 0.0000 0.0000 0.0000 0.0000 84.5443
#
#
#
# Elastic Compliance Matrix: (Units=1/GPa)
#
#
# Indices 1 2 3 4 5 6 
#
# 1 0.008332 0.002418 -0.004275 0.000000 0.000000 0.000000
# 2 0.002418 0.008332 -0.004275 0.000000 0.000000 0.000000
# 3 -0.004275 -0.004275 0.012842 0.000000 0.000000 0.000000
# 4 0.000000 0.000000 0.000000 0.023119 0.000000 0.000000
# 5 0.000000 0.000000 0.000000 0.000000 0.023119 0.000000
# 6 0.000000 0.000000 0.000000 0.000000 0.000000 0.011828
#
#
# Mechanical properties :
#
#
# Convention : Reuss Voigt Hill
#
# Bulk Modulus (GPa) = 57.99961 58.60455 58.30208
# Shear Modulus (GPa) = 47.35624 56.78219 52.06921
#
# Velocity S-wave (km/s) = 4.45008 4.87287 4.66627
# Velocity P-wave (km/s) = 7.11746 7.49446 7.30839
#
# Compressibility (1/GPa) = 0.01724149
#
# Stress axis : x y z
#
# Youngs Moduli (GPa) = 120.02078 120.02078 77.86869
#
# Poissons Ratio (x) = -0.29019 0.33289
# Poissons Ratio (y) = -0.29019 0.33289
# Poissons Ratio (z) = 0.51309 0.51309
#
# Static dielectric constant tensor:
#      x y z
#    x 1.786930 0.000000 0.000000 
#    y 0.000000 1.786930 0.000000 
#    z 0.000000 0.000000 1.953640 
# 
# From -- ./inp_files/6857.got.cif
#   From: 2010.05.17/outbox.cif.g08.bks.cpg/sg179_4_cif.got.tgz:6857.got - 2010.05.20 11:37:33.
