data_PCOD9583358
_publ_section_title
;
Structure prediction by ZEFSAII (Michael W. Deem and Ramdas Pophale) SiO2 
 PCOD9583358
Probable space group: P 65 2 2
;
_chemical_formula_sum "Si O2"
_cell_formula_units_Z 78
_cell_length_a 18.637558
_cell_length_b 18.637558
_cell_length_c 14.088477
_cell_angle_alpha 90.000000
_cell_angle_beta 90.000000
_cell_angle_gamma 120.000000
_cell_volume 4238.114590
_symmetry_space_group_name_H-M "P 65 2 2"
_symmetry_group_IT_number 179
_symmetry_cell_setting 'hexagonal'
loop_
_space_group_symop_operation_xyz
x,y,z
x-y,x,5/6+z
-y,x-y,2/3+z
-x,-y,1/2+z
-x+y,-x,1/3+z
y,-x+y,1/6+z
x-y,-y,-z
-x,-x+y,1/3-z
y,x,2/3-z
-y,-x,1/6-z
-x+y,y,1/2-z
x,x-y,5/6-z
loop_
_atom_site_type_symbol
_atom_site_label
_atom_site_fract_x
_atom_site_fract_y
_atom_site_fract_z
Si Si1 0.053232 0.304214 0.570063
Si Si2 0.116594 0.786148 0.989297
Si Si3 0.522826 0.832913 0.693370
Si Si4 0.373935 0.849285 0.603639
Si Si5 0.247439 0.662459 0.756017
Si Si6 0.000000 0.500690 0.166667
Si Si7 0.611018 0.504234 0.163177
O O1 0.134083 0.295683 0.587880
O O2 0.099098 0.395354 0.524488
O O3 0.000000 0.291825 0.666667
O O4 0.978804 0.239592 0.504374
O O5 0.174538 0.825463 0.083334
O O6 0.112851 0.698076 0.969918
O O7 0.449424 0.842061 0.647920
O O8 0.525526 0.844974 0.806896
O O9 0.490474 0.734757 0.684415
O O10 0.338492 0.785803 0.516127
O O11 0.418068 0.937901 0.555034
O O12 0.341588 0.683175 0.750000
O O13 0.194430 0.573091 0.803470
O O14 0.950747 0.523180 0.243781
O O15 0.538294 0.461707 0.083334
#
# Coordination Sequence:
#
# PCOD9583358 Si02
#       7
#    12  12  12  12  12   6  12
#     4  10  23  39  61  89 121 154 194 244 313 385
#     4  10  22  38  60  88 120 155 194 248 313 375
#     4  11  22  36  57  77 113 158 204 255 307 347
#     4  10  23  37  53  75 108 156 202 259 302 343
#     4  11  23  36  55  79 113 152 211 259 299 341
#     4  10  24  38  50  76 110 150 206 256 294 350
#     4  11  24  35  57  81 115 159 207 247 294 350
#
# _framework density 18.404409999999999
#
# number of rings (size 3 to 8) (size 9 to 14) (size 15 to 20)
#    0.000    1.538    1.538    2.769   21.538    0.000 
#    0.000    0.000    0.000    0.000    0.000    0.000 
#    0.000   27.077    0.000    0.000    0.000    0.000 
#
# Total GULP energy -434807.674306 kJ/mol
# GULP energy per Si atom -5574.457363 kJ/mol
# Density = 1.836252 g / cm^3
# Si number density = 18.404410 Si / 1000 Ang^3
#
#
#
# Elastic Constant Matrix: (Units=GPa)
#
#
# Indices 1 2 3 4 5 6 
#
# 1 100.7513 68.2377 36.1974 0.0000 0.0000 0.0000
# 2 68.2377 100.7513 36.1974 0.0000 0.0000 0.0000
# 3 36.1974 36.1974 64.8486 0.0000 0.0000 0.0000
# 4 0.0000 0.0000 0.0000 22.6605 0.0000 0.0000
# 5 0.0000 0.0000 0.0000 0.0000 22.6605 0.0000
# 6 0.0000 0.0000 0.0000 0.0000 0.0000 16.2568
#
#
#
# Elastic Compliance Matrix: (Units=1/GPa)
#
#
# Indices 1 2 3 4 5 6 
#
# 1 0.019267 -0.011490 -0.004341 0.000000 0.000000 0.000000
# 2 -0.011490 0.019267 -0.004341 0.000000 0.000000 0.000000
# 3 -0.004341 -0.004341 0.020267 0.000000 0.000000 0.000000
# 4 0.000000 0.000000 0.000000 0.044130 0.000000 0.000000
# 5 0.000000 0.000000 0.000000 0.000000 0.044130 0.000000
# 6 0.000000 0.000000 0.000000 0.000000 0.000000 0.061513
#
#
# Mechanical properties :
#
#
# Convention : Reuss Voigt Hill
#
# Bulk Modulus (GPa) = 54.18054 60.84626 57.51340
# Shear Modulus (GPa) = 19.60257 20.69681 20.14969
#
# Velocity S-wave (km/s) = 3.26713 3.35708 3.31241
# Velocity P-wave (km/s) = 6.61324 6.93968 6.77843
#
# Compressibility (1/GPa) = 0.01845681
#
# Stress axis : x y z
#
# Youngs Moduli (GPa) = 51.90262 51.90262 49.34169
#
# Poissons Ratio (x) = 0.59634 0.21420
# Poissons Ratio (y) = 0.59634 0.21420
# Poissons Ratio (z) = 0.22532 0.22532
#
# Static dielectric constant tensor:
#      x y z
#    x 1.665570 0.000000 0.000000 
#    y 0.000000 1.665570 0.000000 
#    z 0.000000 0.000000 1.721250 
# 
# From -- ./inp_files/6078.got.cif
#   From: 2010.05.17/outbox.cif.g08.bks.cpg/sg179_4_cif.got.tgz:6078.got - 2010.05.20 11:37:33.
