data_PCOD9583486
_publ_section_title
;
Structure prediction by ZEFSAII (Michael W. Deem and Ramdas Pophale) SiO2 
 PCOD9583486
Probable space group: P 65 2 2
;
_chemical_formula_sum "Si O2"
_cell_formula_units_Z 60
_cell_length_a 12.553671
_cell_length_b 12.553671
_cell_length_c 21.689182
_cell_angle_alpha 90.000000
_cell_angle_beta 90.000000
_cell_angle_gamma 120.000000
_cell_volume 2960.160711
_symmetry_space_group_name_H-M "P 65 2 2"
_symmetry_group_IT_number 179
_symmetry_cell_setting 'hexagonal'
loop_
_space_group_symop_operation_xyz
x,y,z
x-y,x,5/6+z
-y,x-y,2/3+z
-x,-y,1/2+z
-x+y,-x,1/3+z
y,-x+y,1/6+z
x-y,-y,-z
-x,-x+y,1/3-z
y,x,2/3-z
-y,-x,1/6-z
-x+y,y,1/2-z
x,x-y,5/6-z
loop_
_atom_site_type_symbol
_atom_site_label
_atom_site_fract_x
_atom_site_fract_y
_atom_site_fract_z
Si Si1 0.397128 0.575961 0.656524
Si Si2 0.229825 0.003925 0.572718
Si Si3 0.083673 0.485934 0.304449
Si Si4 0.861173 0.393372 0.676778
Si Si5 0.536561 0.770897 0.077295
O O1 0.412065 0.587936 0.583334
O O2 0.470308 0.510052 0.681081
O O3 0.252810 0.512694 0.671580
O O4 0.465159 0.706855 0.692686
O O5 0.316622 0.147873 0.588770
O O6 0.246150 0.000000 0.500000
O O7 0.299247 0.945793 0.610387
O O8 0.083974 0.916027 0.583334
O O9 0.152163 0.576670 0.247837
O O10 0.149533 0.493809 0.368495
O O11 0.844731 0.488871 0.633111
O O12 0.000000 0.422609 0.666667
#
# Coordination Sequence:
#
# PCOD9583486 Si02
#       5
#    12  12  12  12  12
#     4  11  26  39  55  92 131 176 232 263 337 400
#     4  11  17  30  56  94 131 164 216 265 338 409
#     4  11  21  37  63  88 130 175 218 281 338 402
#     4  12  21  38  61  91 128 174 212 267 335 415
#     4  11  21  38  62  89 130 176 211 277 336 399
#
# _framework density 20.269169000000002
#
# number of rings (size 3 to 8) (size 9 to 14) (size 15 to 20)
#    0.000    0.800    8.000    2.400    0.000    3.200 
#    0.000    0.000    0.000    0.000    0.000    1.400 
#    0.000    0.000    0.000    0.000    0.000    0.000 
#
# Total GULP energy -334732.625422 kJ/mol
# GULP energy per Si atom -5578.877090 kJ/mol
# Density = 2.022304 g / cm^3
# Si number density = 20.269169 Si / 1000 Ang^3
#
#
#
# Elastic Constant Matrix: (Units=GPa)
#
#
# Indices 1 2 3 4 5 6 
#
# 1 95.6350 30.2880 27.7394 0.0000 0.0000 0.0000
# 2 30.2880 95.6350 27.7394 0.0000 0.0000 0.0000
# 3 27.7394 27.7394 150.4880 0.0000 0.0000 0.0000
# 4 0.0000 0.0000 0.0000 28.1311 0.0000 0.0000
# 5 0.0000 0.0000 0.0000 0.0000 28.1311 0.0000
# 6 0.0000 0.0000 0.0000 0.0000 0.0000 32.6735
#
#
#
# Elastic Compliance Matrix: (Units=1/GPa)
#
#
# Indices 1 2 3 4 5 6 
#
# 1 0.011973 -0.003330 -0.001593 0.000000 0.000000 0.000000
# 2 -0.003330 0.011973 -0.001593 0.000000 0.000000 0.000000
# 3 -0.001593 -0.001593 0.007232 0.000000 0.000000 0.000000
# 4 0.000000 0.000000 0.000000 0.035548 0.000000 0.000000
# 5 0.000000 0.000000 0.000000 0.000000 0.035548 0.000000
# 6 0.000000 0.000000 0.000000 0.000000 0.000000 0.030606
#
#
# Mechanical properties :
#
#
# Convention : Reuss Voigt Hill
#
# Bulk Modulus (GPa) = 55.10818 57.03242 56.07030
# Shear Modulus (GPa) = 32.90311 34.85322 33.87816
#
# Velocity S-wave (km/s) = 4.03340 4.15121 4.09273
# Velocity P-wave (km/s) = 6.99559 7.15369 7.07508
#
# Compressibility (1/GPa) = 0.01814613
#
# Stress axis : x y z
#
# Youngs Moduli (GPa) = 83.52046 83.52046 138.26667
#
# Poissons Ratio (x) = 0.27811 0.22029
# Poissons Ratio (y) = 0.27811 0.22029
# Poissons Ratio (z) = 0.13307 0.13307
#
# Static dielectric constant tensor:
#      x y z
#    x 1.795190 0.000000 0.000000 
#    y 0.000000 1.795190 0.000000 
#    z 0.000000 0.000000 1.742790 
# 
# From -- ./inp_files/9429.got.cif
#   From: 2010.05.17/outbox.cif.g08.bks.cpg/sg179_5_cif.got.tgz:9429.got - 2010.05.20 11:37:33.
