data_PCOD9583768
_publ_section_title
;
Structure prediction by ZEFSAII (Michael W. Deem and Ramdas Pophale) SiO2 
 PCOD9583768
Probable space group: P 62 2 2
;
_chemical_formula_sum "Si O2"
_cell_formula_units_Z 48
_cell_length_a 11.079073
_cell_length_b 11.079073
_cell_length_c 24.121339
_cell_angle_alpha 90.000000
_cell_angle_beta 90.000000
_cell_angle_gamma 120.000000
_cell_volume 2564.123222
_symmetry_space_group_name_H-M "P 62 2 2"
_symmetry_group_IT_number 180
_symmetry_cell_setting 'hexagonal'
loop_
_space_group_symop_operation_xyz
x,y,z
x-y,x,1/3+z
-y,x-y,2/3+z
-x,-y,z
-x+y,-x,1/3+z
y,-x+y,2/3+z
x-y,-y,-z
-x,-x+y,1/3-z
y,x,2/3-z
-y,-x,2/3-z
-x+y,y,-z
x,x-y,1/3-z
loop_
_atom_site_type_symbol
_atom_site_label
_atom_site_fract_x
_atom_site_fract_y
_atom_site_fract_z
Si Si1 0.302346 0.805666 0.201574
Si Si2 0.364653 0.848051 0.574413
Si Si3 0.727036 0.162486 0.993776
Si Si4 0.384755 0.108254 0.213033
O O1 0.251651 0.683534 0.246575
O O2 0.207875 0.731506 0.147523
O O3 0.463261 0.854659 0.189205
O O4 0.300694 0.942430 0.220902
O O5 0.264048 0.827932 0.625103
O O6 0.500000 0.000000 0.569130
O O7 0.804151 0.216811 0.935400
O O8 0.584143 0.168285 0.000000
O O9 0.679526 0.000000 0.000000
O O10 0.316724 0.158362 0.166667
#
# Coordination Sequence:
#
# PCOD9583768 Si02
#       4
#    12  12  12  12
#     4  10  20  36  55  87 114 154 204 247 320 368
#     4  11  22  38  62  86 125 158 208 261 312 380
#     4  11  22  37  59  91 126 161 204 258 323 376
#     4  11  20  35  59  82 122 155 199 261 308 382
#
# _framework density 18.719850000000001
#
# number of rings (size 3 to 8) (size 9 to 14) (size 15 to 20)
#    0.000    1.250    5.000    3.000    3.500    4.000 
#    0.000    0.000    0.000   12.000    0.000    0.000 
#    0.000    0.000    0.000    0.000    0.000    0.000 
#
# Total GULP energy -267685.383215 kJ/mol
# GULP energy per Si atom -5576.778817 kJ/mol
# Density = 1.867724 g / cm^3
# Si number density = 18.719850 Si / 1000 Ang^3
#
#
#
# Elastic Constant Matrix: (Units=GPa)
#
#
# Indices 1 2 3 4 5 6 
#
# 1 108.0695 49.2757 48.0992 0.0000 0.0000 0.0000
# 2 49.2757 108.0695 48.0992 0.0000 0.0000 0.0000
# 3 48.0992 48.0992 135.2997 0.0000 0.0000 0.0000
# 4 0.0000 0.0000 0.0000 15.7771 0.0000 0.0000
# 5 0.0000 0.0000 0.0000 0.0000 15.7771 0.0000
# 6 0.0000 0.0000 0.0000 0.0000 0.0000 29.3969
#
#
#
# Elastic Compliance Matrix: (Units=1/GPa)
#
#
# Indices 1 2 3 4 5 6 
#
# 1 0.012565 -0.004444 -0.002887 0.000000 0.000000 0.000000
# 2 -0.004444 0.012565 -0.002887 0.000000 0.000000 0.000000
# 3 -0.002887 -0.002887 0.009444 0.000000 0.000000 0.000000
# 4 0.000000 0.000000 0.000000 0.063383 0.000000 0.000000
# 5 0.000000 0.000000 0.000000 0.000000 0.063383 0.000000
# 6 0.000000 0.000000 0.000000 0.000000 0.000000 0.034017
#
#
# Mechanical properties :
#
#
# Convention : Reuss Voigt Hill
#
# Bulk Modulus (GPa) = 70.73592 71.37632 71.05612
# Shear Modulus (GPa) = 22.67537 25.92119 24.29828
#
# Velocity S-wave (km/s) = 3.48415 3.72518 3.60668
# Velocity P-wave (km/s) = 7.35217 7.53087 7.44206
#
# Compressibility (1/GPa) = 0.01413709
#
# Stress axis : x y z
#
# Youngs Moduli (GPa) = 79.58927 79.58927 105.89266
#
# Poissons Ratio (x) = 0.35370 0.30569
# Poissons Ratio (y) = 0.35370 0.30569
# Poissons Ratio (z) = 0.22976 0.22976
#
# Static dielectric constant tensor:
#      x y z
#    x 1.673630 0.000000 0.000000 
#    y 0.000000 1.673630 0.000000 
#    z 0.000000 0.000000 1.663400 
# 
# From -- ./inp_files/8698.got.cif
#   From: 2010.05.17/outbox.cif.g08.bks.cpg/sg180_5_cif.got.tgz:8698.got - 2010.05.20 11:43:55.
