data_PCOD9583307
_publ_section_title
;
Structure prediction by ZEFSAII (Michael W. Deem and Ramdas Pophale) SiO2 
 PCOD9583307
Probable space group: P 65 2 2
;
_chemical_formula_sum "Si O2"
_cell_formula_units_Z 54
_cell_length_a 16.290558
_cell_length_b 16.290558
_cell_length_c 12.990541
_cell_angle_alpha 90.000000
_cell_angle_beta 90.000000
_cell_angle_gamma 120.000000
_cell_volume 2985.587409
_symmetry_space_group_name_H-M "P 65 2 2"
_symmetry_group_IT_number 179
_symmetry_cell_setting 'hexagonal'
loop_
_space_group_symop_operation_xyz
x,y,z
x-y,x,5/6+z
-y,x-y,2/3+z
-x,-y,1/2+z
-x+y,-x,1/3+z
y,-x+y,1/6+z
x-y,-y,-z
-x,-x+y,1/3-z
y,x,2/3-z
-y,-x,1/6-z
-x+y,y,1/2-z
x,x-y,5/6-z
loop_
_atom_site_type_symbol
_atom_site_label
_atom_site_fract_x
_atom_site_fract_y
_atom_site_fract_z
Si Si1 0.077217 0.154434 0.750000
Si Si2 0.223844 0.834368 0.833803
Si Si3 0.745253 0.311255 0.201119
Si Si4 0.306803 0.046110 0.798971
Si Si5 0.532673 0.638133 0.365051
O O1 0.091433 0.091433 0.833334
O O2 0.179629 0.224727 0.701676
O O3 0.229392 0.756864 0.764743
O O4 0.115838 0.791590 0.871097
O O5 0.270476 0.936167 0.777674
O O6 0.285511 0.855344 0.938871
O O7 0.650967 0.301934 0.250000
O O8 0.825694 0.421310 0.211226
O O9 0.722447 0.277554 0.083334
O O10 0.403131 0.091107 0.867521
O O11 0.557763 0.557763 0.333334
#
# Coordination Sequence:
#
# PCOD9583307 Si02
#       5
#     6  12  12  12  12
#     4  12  20  36  70 100 130 164 210 274 324 376
#     4  11  22  39  61  94 125 163 210 263 323 372
#     4  12  25  41  61  87 129 171 213 262 313 382
#     4  11  20  37  66  98 125 157 210 270 319 378
#     4  10  21  37  61  92 125 160 210 258 314 379
#
# _framework density 18.086894000000001
#
# number of rings (size 3 to 8) (size 9 to 14) (size 15 to 20)
#    0.000    0.889    6.667    2.000    0.000    1.778 
#    0.000    0.000    2.444    0.000    0.000    0.000 
#    0.000    0.000    0.000    0.000    0.000    0.000 
#
# Total GULP energy -301684.334644 kJ/mol
# GULP energy per Si atom -5586.746938 kJ/mol
# Density = 1.804573 g / cm^3
# Si number density = 18.086894 Si / 1000 Ang^3
#
#
#
# Elastic Constant Matrix: (Units=GPa)
#
#
# Indices 1 2 3 4 5 6 
#
# 1 111.7477 63.9215 38.1130 0.0000 0.0000 0.0000
# 2 63.9215 111.7477 38.1130 0.0000 0.0000 0.0000
# 3 38.1130 38.1130 57.7876 0.0000 0.0000 0.0000
# 4 0.0000 0.0000 0.0000 19.4129 0.0000 0.0000
# 5 0.0000 0.0000 0.0000 0.0000 19.4129 0.0000
# 6 0.0000 0.0000 0.0000 0.0000 0.0000 23.9131
#
#
#
# Elastic Compliance Matrix: (Units=1/GPa)
#
#
# Indices 1 2 3 4 5 6 
#
# 1 0.014442 -0.006467 -0.005260 0.000000 0.000000 0.000000
# 2 -0.006467 0.014442 -0.005260 0.000000 0.000000 0.000000
# 3 -0.005260 -0.005260 0.024243 0.000000 0.000000 0.000000
# 4 0.000000 0.000000 0.000000 0.051512 0.000000 0.000000
# 5 0.000000 0.000000 0.000000 0.000000 0.051512 0.000000
# 6 0.000000 0.000000 0.000000 0.000000 0.000000 0.041818
#
#
# Mechanical properties :
#
#
# Convention : Reuss Voigt Hill
#
# Bulk Modulus (GPa) = 52.20964 62.39757 57.30360
# Shear Modulus (GPa) = 20.97968 21.95684 21.46826
#
# Velocity S-wave (km/s) = 3.40948 3.48798 3.44895
# Velocity P-wave (km/s) = 6.66544 7.12706 6.90011
#
# Compressibility (1/GPa) = 0.01915355
#
# Stress axis : x y z
#
# Youngs Moduli (GPa) = 69.24299 69.24299 41.24968
#
# Poissons Ratio (x) = 0.44780 0.21696
# Poissons Ratio (y) = 0.44780 0.21696
# Poissons Ratio (z) = 0.36419 0.36419
#
# Static dielectric constant tensor:
#      x y z
#    x 1.619660 0.000000 0.000000 
#    y 0.000000 1.619660 0.000000 
#    z 0.000000 0.000000 1.618490 
# 
# From -- ./inp_files/5655.got.cif
#   From: 2010.05.17/outbox.cif.g08.bks.cpg/sg179_3_cif.got.tgz:5655.got - 2010.05.20 11:37:33.
