data_PCOD9583556
_publ_section_title
;
Structure prediction by ZEFSAII (Michael W. Deem and Ramdas Pophale) SiO2 
 PCOD9583556
Probable space group: P 65 2 2
;
_chemical_formula_sum "Si O2"
_cell_formula_units_Z 60
_cell_length_a 10.997037
_cell_length_b 10.997037
_cell_length_c 25.471272
_cell_angle_alpha 90.000000
_cell_angle_beta 90.000000
_cell_angle_gamma 120.000000
_cell_volume 2667.673274
_symmetry_space_group_name_H-M "P 65 2 2"
_symmetry_group_IT_number 179
_symmetry_cell_setting 'hexagonal'
loop_
_space_group_symop_operation_xyz
x,y,z
x-y,x,5/6+z
-y,x-y,2/3+z
-x,-y,1/2+z
-x+y,-x,1/3+z
y,-x+y,1/6+z
x-y,-y,-z
-x,-x+y,1/3-z
y,x,2/3-z
-y,-x,1/6-z
-x+y,y,1/2-z
x,x-y,5/6-z
loop_
_atom_site_type_symbol
_atom_site_label
_atom_site_fract_x
_atom_site_fract_y
_atom_site_fract_z
Si Si1 0.983373 0.016628 0.083334
Si Si2 0.082117 0.423335 0.119376
Si Si3 0.296570 0.171801 0.709852
Si Si4 0.276741 0.553482 0.750000
Si Si5 0.057847 0.762944 0.522470
Si Si6 0.830866 0.666742 0.343578
O O1 0.972827 0.113297 0.038849
O O2 0.143036 0.078705 0.099378
O O3 0.195714 0.556212 0.087333
O O4 0.167524 0.361595 0.151824
O O5 0.000000 0.449690 0.166667
O O6 0.964217 0.317162 0.077933
O O7 0.266985 0.270337 0.671144
O O8 0.383397 0.223524 0.763808
O O9 0.342577 0.076336 0.678470
O O10 0.237167 0.454597 0.800722
O O11 0.782696 0.782696 0.333334
#
# Coordination Sequence:
#
# PCOD9583556 Si02
#       6
#     6  12  12   6  12  12
#     4  12  17  30  62 106 133 156 206 290 364 392
#     4  12  25  48  73  96 135 187 235 283 340 410
#     4  12  20  33  66 108 137 156 214 301 368 405
#     4  12  29  46  62  96 141 194 234 262 320 438
#     4  12  22  42  70 104 133 175 226 290 351 402
#     4  12  20  38  63  98 137 177 218 282 358 407
#
# _framework density 22.491510999999999
#
# number of rings (size 3 to 8) (size 9 to 14) (size 15 to 20)
#    0.000    0.000   10.000    1.200    0.000    0.000 
#    7.200    2.000    0.000    0.000    0.000    0.000 
#    0.000    0.000    0.000    0.000    0.000    0.000 
#
# Total GULP energy -334522.371107 kJ/mol
# GULP energy per Si atom -5575.372852 kJ/mol
# Density = 2.244032 g / cm^3
# Si number density = 22.491511 Si / 1000 Ang^3
#
#
#
# Elastic Constant Matrix: (Units=GPa)
#
#
# Indices 1 2 3 4 5 6 
#
# 1 54.3330 21.8388 19.8430 0.0000 0.0000 0.0000
# 2 21.8388 54.3330 19.8430 0.0000 0.0000 0.0000
# 3 19.8430 19.8430 133.7193 0.0000 0.0000 0.0000
# 4 0.0000 0.0000 0.0000 11.0209 0.0000 0.0000
# 5 0.0000 0.0000 0.0000 0.0000 11.0209 0.0000
# 6 0.0000 0.0000 0.0000 0.0000 0.0000 16.2471
#
#
#
# Elastic Compliance Matrix: (Units=1/GPa)
#
#
# Indices 1 2 3 4 5 6 
#
# 1 0.022502 -0.008273 -0.002111 0.000000 0.000000 0.000000
# 2 -0.008273 0.022502 -0.002111 0.000000 0.000000 0.000000
# 3 -0.002111 -0.002111 0.008105 0.000000 0.000000 0.000000
# 4 0.000000 0.000000 0.000000 0.090737 0.000000 0.000000
# 5 0.000000 0.000000 0.000000 0.000000 0.090737 0.000000
# 6 0.000000 0.000000 0.000000 0.000000 0.000000 0.061549
#
#
# Mechanical properties :
#
#
# Convention : Reuss Voigt Hill
#
# Bulk Modulus (GPa) = 35.56693 40.60387 38.08540
# Shear Modulus (GPa) = 15.12880 19.71512 17.42196
#
# Velocity S-wave (km/s) = 2.59635 2.96388 2.78619
# Velocity P-wave (km/s) = 4.98356 5.45939 5.22690
#
# Compressibility (1/GPa) = 0.02811601
#
# Stress axis : x y z
#
# Youngs Moduli (GPa) = 44.44148 44.44148 123.38090
#
# Poissons Ratio (x) = 0.36767 0.26050
# Poissons Ratio (y) = 0.36767 0.26050
# Poissons Ratio (z) = 0.09383 0.09383
#
# Static dielectric constant tensor:
#      x y z
#    x 1.886320 0.000000 0.000000 
#    y 0.000000 1.886320 0.000000 
#    z 0.000000 0.000000 1.987950 
# 
# From -- ./inp_files/8901.got.cif
#   From: 2010.05.17/outbox.cif.g08.bks.cpg/sg179_5_cif.got.tgz:8901.got - 2010.05.20 11:37:33.
