data_PCOD9583283
_publ_section_title
;
Structure prediction by ZEFSAII (Michael W. Deem and Ramdas Pophale) SiO2 
 PCOD9583283
Probable space group: P 65 2 2
;
_chemical_formula_sum "Si O2"
_cell_formula_units_Z 72
_cell_length_a 11.543757
_cell_length_b 11.543757
_cell_length_c 32.587458
_cell_angle_alpha 90.000000
_cell_angle_beta 90.000000
_cell_angle_gamma 120.000000
_cell_volume 3760.758696
_symmetry_space_group_name_H-M "P 65 2 2"
_symmetry_group_IT_number 179
_symmetry_cell_setting 'hexagonal'
loop_
_space_group_symop_operation_xyz
x,y,z
x-y,x,5/6+z
-y,x-y,2/3+z
-x,-y,1/2+z
-x+y,-x,1/3+z
y,-x+y,1/6+z
x-y,-y,-z
-x,-x+y,1/3-z
y,x,2/3-z
-y,-x,1/6-z
-x+y,y,1/2-z
x,x-y,5/6-z
loop_
_atom_site_type_symbol
_atom_site_label
_atom_site_fract_x
_atom_site_fract_y
_atom_site_fract_z
Si Si1 0.513472 0.979891 0.128377
Si Si2 0.258933 0.465998 0.076974
Si Si3 0.931622 0.372475 0.454683
Si Si4 0.017110 0.000000 0.500000
Si Si5 0.029512 0.287843 0.349555
Si Si6 0.628848 0.761453 0.235563
Si Si7 0.852359 0.926180 0.416667
O O1 0.515699 0.865289 0.101118
O O2 0.416882 0.910830 0.167689
O O3 0.658828 0.054517 0.148743
O O4 0.474549 0.083636 0.109004
O O5 0.387527 0.612474 0.083334
O O6 0.312835 0.395406 0.044681
O O7 0.228752 0.367425 0.115427
O O8 0.932672 0.466336 0.416667
O O9 0.818226 0.224939 0.442514
O O10 0.162628 0.128639 0.498747
O O11 0.949514 0.009759 0.542189
O O12 0.879617 0.223119 0.369456
O O13 0.769753 0.768322 0.241537
#
# Coordination Sequence:
#
# PCOD9583283 Si02
#       7
#    12  12  12   6  12  12   6
#     4  12  22  37  69  89 128 174 206 271 333 385
#     4  10  21  39  61  90 123 162 217 264 317 395
#     4  10  20  39  61  91 121 161 221 267 311 398
#     4  10  24  42  68  98 134 172 222 278 332 394
#     4  10  22  41  67  93 123 168 221 269 320 395
#     4  10  23  39  61  99 123 166 220 269 328 388
#     4  10  24  42  66  98 130 178 216 278 332 394
#
# _framework density 19.145073
#
# number of rings (size 3 to 8) (size 9 to 14) (size 15 to 20)
#    0.000    1.667    5.000    1.000   12.833    0.000 
#    0.000    3.333    0.000    0.000    0.000    0.000 
#    0.000    0.000    0.000    0.000    0.000    0.000 
#
# Total GULP energy -401406.035897 kJ/mol
# GULP energy per Si atom -5575.083832 kJ/mol
# Density = 1.910150 g / cm^3
# Si number density = 19.145073 Si / 1000 Ang^3
#
#
#
# Elastic Constant Matrix: (Units=GPa)
#
#
# Indices 1 2 3 4 5 6 
#
# 1 68.2638 51.3154 16.0434 0.0000 0.0000 0.0000
# 2 51.3154 68.2638 16.0434 0.0000 0.0000 0.0000
# 3 16.0434 16.0434 47.7224 0.0000 0.0000 0.0000
# 4 0.0000 0.0000 0.0000 24.9647 0.0000 0.0000
# 5 0.0000 0.0000 0.0000 0.0000 24.9647 0.0000
# 6 0.0000 0.0000 0.0000 0.0000 0.0000 8.4742
#
#
#
# Elastic Compliance Matrix: (Units=1/GPa)
#
#
# Indices 1 2 3 4 5 6 
#
# 1 0.034097 -0.024905 -0.003090 0.000000 0.000000 0.000000
# 2 -0.024905 0.034097 -0.003090 0.000000 0.000000 0.000000
# 3 -0.003090 -0.003090 0.023032 0.000000 0.000000 0.000000
# 4 0.000000 0.000000 0.000000 0.040057 0.000000 0.000000
# 5 0.000000 0.000000 0.000000 0.000000 0.040057 0.000000
# 6 0.000000 0.000000 0.000000 0.000000 0.000000 0.118005
#
#
# Mechanical properties :
#
#
# Convention : Reuss Voigt Hill
#
# Bulk Modulus (GPa) = 34.41701 39.00601 36.71151
# Shear Modulus (GPa) = 13.84268 18.40391 16.12329
#
# Velocity S-wave (km/s) = 2.69186 3.10383 2.90515
# Velocity P-wave (km/s) = 5.26094 5.76742 5.51999
#
# Compressibility (1/GPa) = 0.02905540
#
# Stress axis : x y z
#
# Youngs Moduli (GPa) = 29.32786 29.32786 43.41743
#
# Poissons Ratio (x) = 0.73042 0.13417
# Poissons Ratio (y) = 0.73042 0.13417
# Poissons Ratio (z) = 0.09063 0.09063
#
# Static dielectric constant tensor:
#      x y z
#    x 1.668940 0.000000 0.000000 
#    y 0.000000 1.668940 0.000000 
#    z 0.000000 0.000000 1.710330 
# 
# From -- ./inp_files/9581.got.cif
#   From: 2010.05.17/outbox.cif.g08.bks.cpg/sg179_5_cif.got.tgz:9581.got - 2010.05.20 11:37:33.
