data_PCOD9583887
_publ_section_title
;
Structure prediction by ZEFSAII (Michael W. Deem and Ramdas Pophale) SiO2 
 PCOD9583887
Probable space group: P 62 2 2
;
_chemical_formula_sum "Si O2"
_cell_formula_units_Z 72
_cell_length_a 14.334777
_cell_length_b 14.334777
_cell_length_c 19.055747
_cell_angle_alpha 90.000000
_cell_angle_beta 90.000000
_cell_angle_gamma 120.000000
_cell_volume 3391.083566
_symmetry_space_group_name_H-M "P 62 2 2"
_symmetry_group_IT_number 180
_symmetry_cell_setting 'hexagonal'
loop_
_space_group_symop_operation_xyz
x,y,z
x-y,x,1/3+z
-y,x-y,2/3+z
-x,-y,z
-x+y,-x,1/3+z
y,-x+y,2/3+z
x-y,-y,-z
-x,-x+y,1/3-z
y,x,2/3-z
-y,-x,2/3-z
-x+y,y,-z
x,x-y,1/3-z
loop_
_atom_site_type_symbol
_atom_site_label
_atom_site_fract_x
_atom_site_fract_y
_atom_site_fract_z
Si Si1 0.674764 0.823151 0.744876
Si Si2 0.883074 0.826182 0.696178
Si Si3 0.085682 0.339260 0.782261
Si Si4 0.527813 0.261607 0.980895
Si Si5 0.111630 0.594287 0.244616
Si Si6 0.807536 0.153017 0.914927
O O1 0.631038 0.815519 0.666667
O O2 0.799183 0.856807 0.730301
O O3 0.656687 0.896792 0.800614
O O4 0.598530 0.699918 0.767022
O O5 0.898919 0.759655 0.757911
O O6 0.839377 0.743140 0.630318
O O7 0.000000 0.911651 0.666667
O O8 0.180409 0.444674 0.744550
O O9 0.966709 0.299747 0.751003
O O10 0.590633 0.385301 0.955401
O O11 0.613328 0.226656 0.000000
O O12 0.456152 0.241160 0.050366
O O13 0.125213 0.562607 0.166667
O O14 0.000000 0.500000 0.275178
O O15 0.833996 0.166005 0.833334
#
# Coordination Sequence:
#
# PCOD9583887 Si02
#       6
#    12  12  12  12  12  12
#     4  12  23  38  63  96 134 169 217 284 346 406
#     4   9  20  38  64  94 131 177 222 261 331 412
#     4  10  21  39  64  92 126 176 224 270 336 419
#     4  11  23  42  66  89 129 169 221 281 342 412
#     4  11  23  40  66  94 127 171 222 273 345 419
#     4  10  21  40  62  91 126 170 220 275 334 405
#
# _framework density 21.232153
#
# number of rings (size 3 to 8) (size 9 to 14) (size 15 to 20)
#    0.000    1.500    1.667    5.500    2.333    2.333 
#    3.000    0.000    3.667    3.000    0.000    0.000 
#    0.000    0.000    0.000    0.000    0.000    0.000 
#
# Total GULP energy -401207.212468 kJ/mol
# GULP energy per Si atom -5572.322395 kJ/mol
# Density = 2.118383 g / cm^3
# Si number density = 21.232153 Si / 1000 Ang^3
#
#
#
# Elastic Constant Matrix: (Units=GPa)
#
#
# Indices 1 2 3 4 5 6 
#
# 1 45.0057 38.7525 -4.2664 0.0000 0.0000 0.0000
# 2 38.7525 45.0057 -4.2664 0.0000 0.0000 0.0000
# 3 -4.2664 -4.2664 107.1029 0.0000 0.0000 0.0000
# 4 0.0000 0.0000 0.0000 6.4075 0.0000 0.0000
# 5 0.0000 0.0000 0.0000 0.0000 6.4075 0.0000
# 6 0.0000 0.0000 0.0000 0.0000 0.0000 3.1266
#
#
#
# Elastic Compliance Matrix: (Units=1/GPa)
#
#
# Indices 1 2 3 4 5 6 
#
# 1 0.085953 -0.073966 0.000478 0.000000 0.000000 0.000000
# 2 -0.073966 0.085953 0.000478 0.000000 0.000000 0.000000
# 3 0.000478 0.000478 0.009375 0.000000 0.000000 0.000000
# 4 0.000000 0.000000 0.000000 0.156066 0.000000 0.000000
# 5 0.000000 0.000000 0.000000 0.000000 0.156066 0.000000
# 6 0.000000 0.000000 0.000000 0.000000 0.000000 0.319838
#
#
# Mechanical properties :
#
#
# Convention : Reuss Voigt Hill
#
# Bulk Modulus (GPa) = 28.36030 28.61706 28.48868
# Shear Modulus (GPa) = 5.14919 14.31463 9.73191
#
# Velocity S-wave (km/s) = 1.55899 2.59935 2.14325
# Velocity P-wave (km/s) = 4.07760 4.74513 4.42397
#
# Compressibility (1/GPa) = 0.03526055
#
# Stress axis : x y z
#
# Youngs Moduli (GPa) = 11.63421 11.63421 106.66827
#
# Poissons Ratio (x) = 0.86053 -0.05094
# Poissons Ratio (y) = 0.86053 -0.05094
# Poissons Ratio (z) = -0.00556 -0.00556
#
# Static dielectric constant tensor:
#      x y z
#    x 1.825270 0.000000 0.000000 
#    y 0.000000 1.825270 0.000000 
#    z 0.000000 0.000000 2.540760 
# 
# From -- ./inp_files/7788.got.cif
#   From: 2010.05.17/outbox.cif.g08.bks.cpg/sg180_4_cif.got.tgz:7788.got - 2010.05.20 11:43:55.
