data_PCOD9583604
_publ_section_title
;
Structure prediction by ZEFSAII (Michael W. Deem and Ramdas Pophale) SiO2 
 PCOD9583604
Probable space group: P 65 2 2
;
_chemical_formula_sum "Si O2"
_cell_formula_units_Z 72
_cell_length_a 15.000000
_cell_length_b 15.000000
_cell_length_c 18.000000
_cell_angle_alpha 90.000000
_cell_angle_beta 90.000000
_cell_angle_gamma 120.000000
_cell_volume 3507.402885
_symmetry_space_group_name_H-M "P 65 2 2"
_symmetry_group_IT_number 179
_symmetry_cell_setting 'hexagonal'
loop_
_space_group_symop_operation_xyz
x,y,z
x-y,x,5/6+z
-y,x-y,2/3+z
-x,-y,1/2+z
-x+y,-x,1/3+z
y,-x+y,1/6+z
x-y,-y,-z
-x,-x+y,1/3-z
y,x,2/3-z
-y,-x,1/6-z
-x+y,y,1/2-z
x,x-y,5/6-z
loop_
_atom_site_type_symbol
_atom_site_label
_atom_site_fract_x
_atom_site_fract_y
_atom_site_fract_z
Si Si1 0.829080 0.829080 0.833334
Si Si2 0.281691 0.640846 0.416667
Si Si3 0.998264 0.764890 0.825998
Si Si4 0.472164 0.151342 0.362622
Si Si5 0.890057 0.385562 0.696181
Si Si6 0.413899 0.841312 0.138302
Si Si7 0.731792 0.152340 0.753211
O O1 0.938032 0.830115 0.831687
O O2 0.779299 0.756266 0.904891
O O3 0.208245 0.673433 0.456161
O O4 0.355680 0.637805 0.479589
O O5 0.921073 0.643423 0.830820
O O6 0.088467 0.786408 0.884897
O O7 0.472541 0.236271 0.416667
O O8 0.530566 0.101510 0.408867
O O9 0.854390 0.411424 0.616982
O O10 0.816241 0.271851 0.732219
O O11 0.000000 0.403212 0.666667
O O12 0.344936 0.880025 0.181247
O O13 0.519917 0.871206 0.180042
#
# Coordination Sequence:
#
# PCOD9583604 Si02
#       7
#     6   6  12  12  12  12  12
#     4  10  24  48  66 102 126 170 224 314 352 388
#     4  12  22  38  64  94 144 188 222 262 328 442
#     4  11  26  43  74  96 132 167 236 291 358 405
#     4  12  23  39  66 102 130 185 228 275 347 416
#     4  12  25  39  64 100 143 181 228 279 346 424
#     4  11  22  41  62  92 145 184 222 268 337 432
#     4  11  24  42  64  97 135 191 227 280 349 422
#
# _framework density 20.528009999999998
#
# number of rings (size 3 to 8) (size 9 to 14) (size 15 to 20)
#    0.000    0.667    6.667    1.000    5.833    4.000 
#    0.000    0.000    7.333    0.000    0.000    0.000 
#    0.000    0.000    0.000    0.000    0.000    0.000 
#
# Total GULP energy -400971.859994 kJ/mol
# GULP energy per Si atom -5569.053611 kJ/mol
# Density = 2.048129 g / cm^3
# Si number density = 20.528010 Si / 1000 Ang^3
#
#
#
# Elastic Constant Matrix: (Units=GPa)
#
#
# Indices 1 2 3 4 5 6 
#
# 1 91.6097 34.3382 29.9791 0.0000 0.0000 0.0000
# 2 34.3382 91.6097 29.9791 0.0000 0.0000 0.0000
# 3 29.9791 29.9791 88.6902 0.0000 0.0000 0.0000
# 4 0.0000 0.0000 0.0000 30.9356 0.0000 0.0000
# 5 0.0000 0.0000 0.0000 0.0000 30.9356 0.0000
# 6 0.0000 0.0000 0.0000 0.0000 0.0000 28.6358
#
#
#
# Elastic Compliance Matrix: (Units=1/GPa)
#
#
# Indices 1 2 3 4 5 6 
#
# 1 0.013462 -0.003999 -0.003198 0.000000 0.000000 0.000000
# 2 -0.003999 0.013462 -0.003198 0.000000 0.000000 0.000000
# 3 -0.003198 -0.003198 0.013438 0.000000 0.000000 0.000000
# 4 0.000000 0.000000 0.000000 0.032325 0.000000 0.000000
# 5 0.000000 0.000000 0.000000 0.000000 0.032325 0.000000
# 6 0.000000 0.000000 0.000000 0.000000 0.000000 0.034921
#
#
# Mechanical properties :
#
#
# Convention : Reuss Voigt Hill
#
# Bulk Modulus (GPa) = 51.10275 51.16694 51.13484
# Shear Modulus (GPa) = 29.89580 29.94226 29.91903
#
# Velocity S-wave (km/s) = 3.82034 3.82331 3.82183
# Velocity P-wave (km/s) = 6.66395 6.66857 6.66626
#
# Compressibility (1/GPa) = 0.01956842
#
# Stress axis : x y z
#
# Youngs Moduli (GPa) = 74.28556 74.28556 74.41852
#
# Poissons Ratio (x) = 0.29708 0.23803
# Poissons Ratio (y) = 0.29708 0.23803
# Poissons Ratio (z) = 0.23760 0.23760
#
# Static dielectric constant tensor:
#      x y z
#    x 1.823080 0.000000 0.000000 
#    y 0.000000 1.823080 0.000000 
#    z 0.000000 0.000000 1.767830 
# 
# From -- ./inp_files/6860.got.cif
#   From: 2010.05.17/outbox.ucp.g08.bks.cvg/sg179_4_cif.got.tgz:6860.got - 2010.06.11 15:19:48.
