data_PCOD9583703
_publ_section_title
;
Structure prediction by ZEFSAII (Michael W. Deem and Ramdas Pophale) SiO2 
 PCOD9583703
Probable space group: P 62 2 2
;
_chemical_formula_sum "Si O2"
_cell_formula_units_Z 60
_cell_length_a 20.758594
_cell_length_b 20.758594
_cell_length_c 8.374306
_cell_angle_alpha 90.000000
_cell_angle_beta 90.000000
_cell_angle_gamma 120.000000
_cell_volume 3125.182097
_symmetry_space_group_name_H-M "P 62 2 2"
_symmetry_group_IT_number 180
_symmetry_cell_setting 'hexagonal'
loop_
_space_group_symop_operation_xyz
x,y,z
x-y,x,1/3+z
-y,x-y,2/3+z
-x,-y,z
-x+y,-x,1/3+z
y,-x+y,2/3+z
x-y,-y,-z
-x,-x+y,1/3-z
y,x,2/3-z
-y,-x,2/3-z
-x+y,y,-z
x,x-y,1/3-z
loop_
_atom_site_type_symbol
_atom_site_label
_atom_site_fract_x
_atom_site_fract_y
_atom_site_fract_z
Si Si1 0.903076 0.291562 0.046541
Si Si2 0.345559 0.557602 0.682577
Si Si3 0.371165 0.304090 0.594367
Si Si4 0.145666 0.291331 0.500000
Si Si5 0.790298 0.314460 0.480343
Si Si6 0.757617 0.757617 0.333334
O O1 0.858320 0.335180 0.033305
O O2 0.902155 0.267933 0.231370
O O3 0.869742 0.215768 0.945063
O O4 0.984489 0.351266 0.981062
O O5 0.389966 0.610035 0.833334
O O6 0.401105 0.607803 0.546164
O O7 0.260461 0.537851 0.698042
O O8 0.451143 0.322753 0.524737
O O9 0.308781 0.262372 0.460409
O O10 0.172281 0.238558 0.419212
O O11 0.742715 0.257286 0.333334
#
# Coordination Sequence:
#
# PCOD9583703 Si02
#       6
#    12  12  12   6  12   6
#     4  10  20  37  58  88 112 156 196 255 308 364
#     4  10  19  34  52  78 105 154 202 249 302 361
#     4  10  20  36  60  83 116 150 199 252 309 355
#     4  10  22  38  58  92 124 155 200 236 309 346
#     4  10  19  34  52  78 109 147 200 253 296 361
#     4  10  22  36  62  89 124 157 190 252 292 372
#
# _framework density 19.198879999999999
#
# number of rings (size 3 to 8) (size 9 to 14) (size 15 to 20)
#    0.000    2.000    4.000    1.200    0.000    0.800 
#    9.000    0.000    0.000    4.800    0.000    0.000 
#    0.000   65.600    0.000    0.000    0.000    0.000 
#
# Total GULP energy -334095.812518 kJ/mol
# GULP energy per Si atom -5568.263542 kJ/mol
# Density = 1.915518 g / cm^3
# Si number density = 19.198880 Si / 1000 Ang^3
#
#
#
# Elastic Constant Matrix: (Units=GPa)
#
#
# Indices 1 2 3 4 5 6 
#
# 1 75.4861 104.7545 50.5110 0.0000 0.0000 0.0000
# 2 104.7545 75.4861 50.5110 0.0000 0.0000 0.0000
# 3 50.5110 50.5110 59.7764 0.0000 0.0000 0.0000
# 4 0.0000 0.0000 0.0000 353.6055 0.0000 0.0000
# 5 0.0000 0.0000 0.0000 0.0000 353.6055 0.0000
# 6 0.0000 0.0000 0.0000 0.0000 0.0000 -14.6342
#
#
#
# Elastic Compliance Matrix: (Units=1/GPa)
#
#
# Indices 1 2 3 4 5 6 
#
# 1 -0.011813 0.022353 -0.008906 0.000000 0.000000 0.000000
# 2 0.022353 -0.011813 -0.008906 0.000000 0.000000 0.000000
# 3 -0.008906 -0.008906 0.031780 0.000000 0.000000 0.000000
# 4 0.000000 0.000000 0.000000 0.002828 0.000000 0.000000
# 5 0.000000 0.000000 0.000000 0.000000 0.002828 0.000000
# 6 0.000000 0.000000 0.000000 0.000000 0.000000 -0.068333
#
#
# Mechanical properties :
#
#
# Convention : Reuss Voigt Hill
#
# Bulk Modulus (GPa) = 58.01992 69.14461 63.58227
# Shear Modulus (GPa) = -86.41613 138.84683 26.21535
#
# Velocity S-wave (km/s) = -6.71630 8.51336 3.69923
# Velocity P-wave (km/s) = 5.46433 11.52083 7.17184
#
# Compressibility (1/GPa) = 0.01723546
#
# Stress axis : x y z
#
# Youngs Moduli (GPa) = -84.65039 -84.65039 31.46587
#
# Poissons Ratio (x) = 1.89221 0.28024
# Poissons Ratio (y) = 1.89221 0.28024
# Poissons Ratio (z) = -0.75391 -0.75391
#
# Static dielectric constant tensor:
#      x y z
#    x 0.970610 0.000000 0.000000 
#    y 0.000000 0.970610 0.000000 
#    z 0.000000 0.000000 1.805540 
# 
# From -- ./inp_files/3158.got.cif
#   From: 2010.05.17/outbox.cif.g08.bks.cpg/sg180_2_cif.got.tgz:3158.got - 2010.05.20 11:43:55.
