data_PCOD9583047
_publ_section_title
;
Structure prediction by ZEFSAII (Michael W. Deem and Ramdas Pophale) SiO2 
 PCOD9583047
Probable space group: P 61 2 2
;
_chemical_formula_sum "Si O2"
_cell_formula_units_Z 42
_cell_length_a 14.345785
_cell_length_b 14.345785
_cell_length_c 10.500509
_cell_angle_alpha 90.000000
_cell_angle_beta 90.000000
_cell_angle_gamma 120.000000
_cell_volume 1871.499083
_symmetry_space_group_name_H-M "P 61 2 2"
_symmetry_group_IT_number 178
_symmetry_cell_setting 'hexagonal'
loop_
_space_group_symop_operation_xyz
x,y,z
x-y,x,1/6+z
-y,x-y,1/3+z
-x,-y,1/2+z
-x+y,-x,2/3+z
y,-x+y,5/6+z
x-y,-y,-z
-x,-x+y,2/3-z
y,x,1/3-z
-y,-x,5/6-z
-x+y,y,1/2-z
x,x-y,1/6-z
loop_
_atom_site_type_symbol
_atom_site_label
_atom_site_fract_x
_atom_site_fract_y
_atom_site_fract_z
Si Si1 0.000000 0.719629 0.333334
Si Si2 0.876190 0.438095 0.083334
Si Si3 0.000000 0.572945 0.833334
Si Si4 0.612359 0.806180 0.583334
Si Si5 0.939448 0.137456 0.596304
Si Si6 0.458202 0.229101 0.583334
O O1 0.997131 0.781581 0.208714
O O2 0.114197 0.725032 0.343550
O O3 0.952395 0.449465 0.203762
O O4 0.798821 0.479775 0.141618
O O5 0.110744 0.679837 0.885360
O O6 0.687436 0.859191 0.705405
O O7 0.021522 0.147889 0.489609
#
# Coordination Sequence:
#
# PCOD9583047 Si02
#       6
#     6   6   6   6  12   6
#     4  12  23  46  77 110 154 200 269 330 414 485
#     4  12  30  53  83 120 166 215 285 352 430 500
#     4  12  27  52  83 122 162 222 277 356 418 509
#     4  12  24  47  75 104 157 208 263 324 412 484
#     4  12  22  41  61 108 161 213 260 323 394 491
#     4  12  26  52  82 118 159 217 276 350 420 508
#
# _framework density 22.441904000000001
#
# number of rings (size 3 to 8) (size 9 to 14) (size 15 to 20)
#    0.000    0.000    5.714    4.286    0.000    3.429 
#   15.429    1.429    0.000    0.000    0.000    0.000 
#    0.000    0.000    0.000    0.000    0.000    0.000 
#
# Total GULP energy -234257.366619 kJ/mol
# GULP energy per Si atom -5577.556348 kJ/mol
# Density = 2.239083 g / cm^3
# Si number density = 22.441904 Si / 1000 Ang^3
#
#
#
# Elastic Constant Matrix: (Units=GPa)
#
#
# Indices 1 2 3 4 5 6 
#
# 1 130.2929 50.3856 65.0145 0.0000 0.0000 0.0000
# 2 50.3856 130.2929 65.0145 0.0000 0.0000 0.0000
# 3 65.0145 65.0145 165.7078 0.0000 0.0000 0.0000
# 4 0.0000 0.0000 0.0000 33.1574 0.0000 0.0000
# 5 0.0000 0.0000 0.0000 0.0000 33.1574 0.0000
# 6 0.0000 0.0000 0.0000 0.0000 0.0000 39.9536
#
#
#
# Elastic Compliance Matrix: (Units=1/GPa)
#
#
# Indices 1 2 3 4 5 6 
#
# 1 0.010113 -0.002401 -0.003026 0.000000 0.000000 0.000000
# 2 -0.002401 0.010113 -0.003026 0.000000 0.000000 0.000000
# 3 -0.003026 -0.003026 0.008409 0.000000 0.000000 0.000000
# 4 0.000000 0.000000 0.000000 0.030159 0.000000 0.000000
# 5 0.000000 0.000000 0.000000 0.000000 0.030159 0.000000
# 6 0.000000 0.000000 0.000000 0.000000 0.000000 0.025029
#
#
# Mechanical properties :
#
#
# Convention : Reuss Voigt Hill
#
# Bulk Modulus (GPa) = 85.24995 87.45809 86.35402
# Shear Modulus (GPa) = 37.09221 37.64560 37.36890
#
# Velocity S-wave (km/s) = 4.06989 4.10013 4.08504
# Velocity P-wave (km/s) = 7.75595 7.84030 7.79824
#
# Compressibility (1/GPa) = 0.01173021
#
# Stress axis : x y z
#
# Youngs Moduli (GPa) = 98.87847 98.87847 118.91884
#
# Poissons Ratio (x) = 0.23742 0.35984
# Poissons Ratio (y) = 0.23742 0.35984
# Poissons Ratio (z) = 0.29920 0.29920
#
# Static dielectric constant tensor:
#      x y z
#    x 1.881550 0.000000 0.000000 
#    y 0.000000 1.881550 0.000000 
#    z 0.000000 0.000000 1.797240 
# 
# From -- ./inp_files/4064.got.cif
#   From: 2010.05.17/outbox.cif.g08.bks.cpg/sg178_3_cif.got.tgz:4064.got - 2010.05.20 11:30:59.
