data_PCOD9583316
_publ_section_title
;
Structure prediction by ZEFSAII (Michael W. Deem and Ramdas Pophale) SiO2 
 PCOD9583316
Probable space group: P 65 2 2
;
_chemical_formula_sum "Si O2"
_cell_formula_units_Z 78
_cell_length_a 22.606752
_cell_length_b 22.606752
_cell_length_c 8.424752
_cell_angle_alpha 90.000000
_cell_angle_beta 90.000000
_cell_angle_gamma 120.000000
_cell_volume 3728.757133
_symmetry_space_group_name_H-M "P 65 2 2"
_symmetry_group_IT_number 179
_symmetry_cell_setting 'hexagonal'
loop_
_space_group_symop_operation_xyz
x,y,z
x-y,x,5/6+z
-y,x-y,2/3+z
-x,-y,1/2+z
-x+y,-x,1/3+z
y,-x+y,1/6+z
x-y,-y,-z
-x,-x+y,1/3-z
y,x,2/3-z
-y,-x,1/6-z
-x+y,y,1/2-z
x,x-y,5/6-z
loop_
_atom_site_type_symbol
_atom_site_label
_atom_site_fract_x
_atom_site_fract_y
_atom_site_fract_z
Si Si1 0.743680 0.871840 0.416667
Si Si2 0.248471 0.155720 0.572382
Si Si3 0.000000 0.607690 0.166667
Si Si4 0.466416 0.233208 0.916667
Si Si5 0.622927 0.146863 0.459093
Si Si6 0.479519 0.674198 0.932929
Si Si7 0.967379 0.697080 0.390456
Si Si8 0.612353 0.771527 0.735836
O O1 0.778845 0.880511 0.244353
O O2 0.702561 0.789497 0.438075
O O3 0.217838 0.108919 0.416667
O O4 0.248003 0.225835 0.569457
O O5 0.328835 0.178209 0.569384
O O6 0.931406 0.534539 0.153822
O O7 0.995840 0.651933 0.312638
O O8 0.509704 0.314077 0.902177
O O9 0.423438 0.200999 0.757220
O O10 0.653381 0.170220 0.280678
O O11 0.562295 0.163209 0.483488
O O12 0.445787 0.722894 0.916667
O O13 0.553429 0.722337 0.855908
O O14 0.921431 0.656720 0.538186
#
# Coordination Sequence:
#
# PCOD9583316 Si02
#       8
#     6  12   6   6  12  12  12  12
#     4  10  21  38  62  94 138 186 234 268 350 426
#     4  11  23  38  61  97 140 181 229 286 342 420
#     4  12  22  44  66  92 140 178 220 294 354 428
#     4  12  21  42  66  96 122 168 230 276 350 428
#     4  11  27  45  70  96 134 180 226 299 364 423
#     4  11  25  50  68  96 132 172 235 299 355 434
#     4  11  22  39  66  99 137 185 230 288 348 428
#     4  11  23  40  68  96 129 175 225 274 355 424
#
# _framework density 20.918496999999999
#
# number of rings (size 3 to 8) (size 9 to 14) (size 15 to 20)
#    0.000    0.923    4.615    3.231    2.154    4.308 
#    5.538    0.000    0.000    0.000    0.000    0.000 
#    0.000    0.000  316.462    0.000    0.000    0.000 
#
# Total GULP energy -435202.448651 kJ/mol
# GULP energy per Si atom -5579.518572 kJ/mol
# Density = 2.087089 g / cm^3
# Si number density = 20.918497 Si / 1000 Ang^3
#
#
#
# Elastic Constant Matrix: (Units=GPa)
#
#
# Indices 1 2 3 4 5 6 
#
# 1 126.4912 46.3182 15.2351 0.0000 0.0000 0.0000
# 2 46.3182 126.4912 15.2351 0.0000 0.0000 0.0000
# 3 15.2351 15.2351 79.0239 0.0000 0.0000 0.0000
# 4 0.0000 0.0000 0.0000 22.8794 0.0000 0.0000
# 5 0.0000 0.0000 0.0000 0.0000 22.8794 0.0000
# 6 0.0000 0.0000 0.0000 0.0000 0.0000 40.0865
#
#
#
# Elastic Compliance Matrix: (Units=1/GPa)
#
#
# Indices 1 2 3 4 5 6 
#
# 1 0.009232 -0.003241 -0.001155 0.000000 0.000000 0.000000
# 2 -0.003241 0.009232 -0.001155 0.000000 0.000000 0.000000
# 3 -0.001155 -0.001155 0.013100 0.000000 0.000000 0.000000
# 4 0.000000 0.000000 0.000000 0.043708 0.000000 0.000000
# 5 0.000000 0.000000 0.000000 0.000000 0.043708 0.000000
# 6 0.000000 0.000000 0.000000 0.000000 0.000000 0.024946
#
#
# Mechanical properties :
#
#
# Convention : Reuss Voigt Hill
#
# Bulk Modulus (GPa) = 48.87381 53.95369 51.41375
# Shear Modulus (GPa) = 30.89344 34.18357 32.53851
#
# Velocity S-wave (km/s) = 3.84715 4.04682 3.94825
# Velocity P-wave (km/s) = 6.56877 6.90536 6.73917
#
# Compressibility (1/GPa) = 0.02046086
#
# Stress axis : x y z
#
# Youngs Moduli (GPa) = 108.32252 108.32252 76.33763
#
# Poissons Ratio (x) = 0.35111 0.08816
# Poissons Ratio (y) = 0.35111 0.08816
# Poissons Ratio (z) = 0.12510 0.12510
#
# Static dielectric constant tensor:
#      x y z
#    x 1.750400 0.000000 0.000000 
#    y 0.000000 1.750400 0.000000 
#    z 0.000000 0.000000 2.092910 
# 
# From -- ./inp_files/3707.got.cif
#   From: 2010.05.17/outbox.cif.g08.bks.cpg/sg179_2_cif.got.tgz:3707.got - 2010.05.20 11:37:33.
