data_PCOD9583931
_publ_section_title
;
Structure prediction by ZEFSAII (Michael W. Deem and Ramdas Pophale) SiO2 
 PCOD9583931
Probable space group: P 62 2 2
;
_chemical_formula_sum "Si O2"
_cell_formula_units_Z 57
_cell_length_a 14.070371
_cell_length_b 14.070371
_cell_length_c 16.987539
_cell_angle_alpha 90.000000
_cell_angle_beta 90.000000
_cell_angle_gamma 120.000000
_cell_volume 2912.541996
_symmetry_space_group_name_H-M "P 62 2 2"
_symmetry_group_IT_number 180
_symmetry_cell_setting 'hexagonal'
loop_
_space_group_symop_operation_xyz
x,y,z
x-y,x,1/3+z
-y,x-y,2/3+z
-x,-y,z
-x+y,-x,1/3+z
y,-x+y,2/3+z
x-y,-y,-z
-x,-x+y,1/3-z
y,x,2/3-z
-y,-x,2/3-z
-x+y,y,-z
x,x-y,1/3-z
loop_
_atom_site_type_symbol
_atom_site_label
_atom_site_fract_x
_atom_site_fract_y
_atom_site_fract_z
Si Si1 0.276783 0.888703 0.046082
Si Si2 0.103871 0.494344 0.877276
Si Si3 0.000000 0.000000 0.666667
Si Si4 0.375228 0.687614 0.166667
Si Si5 0.027122 0.807724 0.075601
Si Si6 0.191557 0.383113 0.000000
Si Si7 0.629445 0.370556 0.333334
O O1 0.339682 0.915719 0.130504
O O2 0.146515 0.823910 0.058853
O O3 0.316630 0.818154 0.995258
O O4 0.312040 0.000000 0.000000
O O5 0.184927 0.619222 0.850168
O O6 0.164693 0.453339 0.937567
O O7 0.000000 0.500000 0.909309
O O8 0.917216 0.891158 0.714847
O O9 0.318822 0.641781 0.251712
O O10 0.000000 0.792675 0.166667
O O11 0.927930 0.700410 0.036009
#
# Coordination Sequence:
#
# PCOD9583931 Si02
#       7
#    12  12   3   6  12   6   6
#     4  11  21  41  66  97 132 172 223 289 344 396
#     4  11  24  44  68  98 133 175 226 286 344 412
#     4  10  22  40  62  92 124 182 224 272 336 402
#     4  10  22  42  66  93 132 171 216 280 340 408
#     4  11  22  41  63  93 136 177 222 280 341 412
#     4  11  25  43  64  97 138 176 231 275 338 440
#     4  10  22  38  65  97 131 169 230 274 342 416
#
# _framework density 19.570533000000001
#
# number of rings (size 3 to 8) (size 9 to 14) (size 15 to 20)
#    0.000    1.263    3.158    3.789    2.947    0.000 
#    0.000    0.000    0.000    0.000    0.000    0.000 
#    0.000    0.000    0.000    0.000    0.000    0.000 
#
# Total GULP energy -317482.518353 kJ/mol
# GULP energy per Si atom -5569.868743 kJ/mol
# Density = 1.952599 g / cm^3
# Si number density = 19.570533 Si / 1000 Ang^3
#
#
#
# Elastic Constant Matrix: (Units=GPa)
#
#
# Indices 1 2 3 4 5 6 
#
# 1 126.1645 64.4339 40.5715 0.0000 0.0000 0.0000
# 2 64.4339 126.1645 40.5715 0.0000 0.0000 0.0000
# 3 40.5715 40.5715 118.6377 0.0000 0.0000 0.0000
# 4 0.0000 0.0000 0.0000 22.9512 0.0000 0.0000
# 5 0.0000 0.0000 0.0000 0.0000 22.9512 0.0000
# 6 0.0000 0.0000 0.0000 0.0000 0.0000 30.8653
#
#
#
# Elastic Compliance Matrix: (Units=1/GPa)
#
#
# Indices 1 2 3 4 5 6 
#
# 1 0.011170 -0.005029 -0.002100 0.000000 0.000000 0.000000
# 2 -0.005029 0.011170 -0.002100 0.000000 0.000000 0.000000
# 3 -0.002100 -0.002100 0.009865 0.000000 0.000000 0.000000
# 4 0.000000 0.000000 0.000000 0.043571 0.000000 0.000000
# 5 0.000000 0.000000 0.000000 0.000000 0.043571 0.000000
# 6 0.000000 0.000000 0.000000 0.000000 0.000000 0.032399
#
#
# Mechanical properties :
#
#
# Convention : Reuss Voigt Hill
#
# Bulk Modulus (GPa) = 72.74456 73.56896 73.15676
# Shear Modulus (GPa) = 28.60633 30.37953 29.49293
#
# Velocity S-wave (km/s) = 3.82737 3.94421 3.88623
# Velocity P-wave (km/s) = 7.53544 7.64302 7.58942
#
# Compressibility (1/GPa) = 0.01374673
#
# Stress axis : x y z
#
# Youngs Moduli (GPa) = 89.52526 89.52526 101.36525
#
# Poissons Ratio (x) = 0.45026 0.21286
# Poissons Ratio (y) = 0.45026 0.21286
# Poissons Ratio (z) = 0.18800 0.18800
#
# Static dielectric constant tensor:
#      x y z
#    x 1.680230 0.000000 0.000000 
#    y 0.000000 1.680230 0.000000 
#    z 0.000000 0.000000 1.752430 
# 
# From -- ./inp_files/7651.got.cif
#   From: 2010.05.17/outbox.cif.g08.bks.cpg/sg180_4_cif.got.tgz:7651.got - 2010.05.20 11:43:55.
