data_PCOD9583203
_publ_section_title
;
Structure prediction by ZEFSAII (Michael W. Deem and Ramdas Pophale) SiO2 
 PCOD9583203
Probable space group: P 65 2 2
;
_chemical_formula_sum "Si O2"
_cell_formula_units_Z 90
_cell_length_a 17.127136
_cell_length_b 17.127136
_cell_length_c 18.971338
_cell_angle_alpha 90.000000
_cell_angle_beta 90.000000
_cell_angle_gamma 120.000000
_cell_volume 4819.456736
_symmetry_space_group_name_H-M "P 65 2 2"
_symmetry_group_IT_number 179
_symmetry_cell_setting 'hexagonal'
loop_
_space_group_symop_operation_xyz
x,y,z
x-y,x,5/6+z
-y,x-y,2/3+z
-x,-y,1/2+z
-x+y,-x,1/3+z
y,-x+y,1/6+z
x-y,-y,-z
-x,-x+y,1/3-z
y,x,2/3-z
-y,-x,1/6-z
-x+y,y,1/2-z
x,x-y,5/6-z
loop_
_atom_site_type_symbol
_atom_site_label
_atom_site_fract_x
_atom_site_fract_y
_atom_site_fract_z
Si Si1 0.174210 0.834803 0.923842
Si Si2 0.593366 0.909804 0.455041
Si Si3 0.528853 0.873573 0.767808
Si Si4 0.918816 0.430389 0.238491
Si Si5 0.326204 0.652407 0.250000
Si Si6 0.879890 0.498700 0.741681
Si Si7 0.708602 0.002954 0.321438
Si Si8 0.510669 0.290281 0.170779
O O1 0.211974 0.920597 0.870535
O O2 0.202811 0.767459 0.887278
O O3 0.227315 0.859881 0.998252
O O4 0.067963 0.788558 0.940089
O O5 0.487028 0.869719 0.447043
O O6 0.626870 0.000000 0.500000
O O7 0.634843 0.939151 0.378307
O O8 0.443376 0.886751 0.750000
O O9 0.544280 0.875864 0.851942
O O10 0.617350 0.946046 0.726960
O O11 0.503896 0.777189 0.734911
O O12 0.899021 0.363469 0.171748
O O13 0.875470 0.370581 0.305858
O O14 0.024893 0.500028 0.250776
O O15 0.218850 0.589142 0.239197
O O16 0.330683 0.718024 0.311685
#
# Coordination Sequence:
#
# PCOD9583203 Si02
#       8
#    12  12  12  12   6  12  12  12
#     4  10  22  40  57  87 117 163 195 250 312 377
#     4  10  19  36  56  80 114 160 192 245 307 358
#     4  11  21  38  58  80 115 166 198 259 307 354
#     4  11  23  38  56  82 113 161 206 261 305 371
#     4  12  24  40  56  86 116 156 214 264 302 370
#     4  11  22  38  58  76 115 155 202 256 322 348
#     4  10  22  37  61  82 120 157 198 241 312 378
#     4  11  25  38  55  85 117 156 218 257 307 373
#
# _framework density 18.674305
#
# number of rings (size 3 to 8) (size 9 to 14) (size 15 to 20)
#    0.000    1.333    2.667    3.600    5.600    0.000 
#    3.600    0.000    0.000    0.000    0.000    0.000 
#    0.000    0.000  602.933    0.000    0.000    0.000 
#
# Total GULP energy -501219.837637 kJ/mol
# GULP energy per Si atom -5569.109307 kJ/mol
# Density = 1.863180 g / cm^3
# Si number density = 18.674305 Si / 1000 Ang^3
#
#
#
# Elastic Constant Matrix: (Units=GPa)
#
#
# Indices 1 2 3 4 5 6 
#
# 1 81.3895 50.6079 36.2993 0.0000 0.0000 0.0000
# 2 50.6079 81.3895 36.2993 0.0000 0.0000 0.0000
# 3 36.2993 36.2993 82.7493 0.0000 0.0000 0.0000
# 4 0.0000 0.0000 0.0000 26.6836 0.0000 0.0000
# 5 0.0000 0.0000 0.0000 0.0000 26.6836 0.0000
# 6 0.0000 0.0000 0.0000 0.0000 0.0000 15.3908
#
#
#
# Elastic Compliance Matrix: (Units=1/GPa)
#
#
# Indices 1 2 3 4 5 6 
#
# 1 0.021236 -0.011251 -0.004380 0.000000 0.000000 0.000000
# 2 -0.011251 0.021236 -0.004380 0.000000 0.000000 0.000000
# 3 -0.004380 -0.004380 0.015927 0.000000 0.000000 0.000000
# 4 0.000000 0.000000 0.000000 0.037476 0.000000 0.000000
# 5 0.000000 0.000000 0.000000 0.000000 0.037476 0.000000
# 6 0.000000 0.000000 0.000000 0.000000 0.000000 0.064974
#
#
# Mechanical properties :
#
#
# Convention : Reuss Voigt Hill
#
# Bulk Modulus (GPa) = 54.41548 54.66014 54.53781
# Shear Modulus (GPa) = 20.45212 21.90638 21.17925
#
# Velocity S-wave (km/s) = 3.31297 3.42874 3.37135
# Velocity P-wave (km/s) = 6.62094 6.70886 6.66504
#
# Compressibility (1/GPa) = 0.01837712
#
# Stress axis : x y z
#
# Youngs Moduli (GPa) = 47.09003 47.09003 62.78475
#
# Poissons Ratio (x) = 0.52981 0.27500
# Poissons Ratio (y) = 0.52981 0.27500
# Poissons Ratio (z) = 0.20626 0.20626
#
# Static dielectric constant tensor:
#      x y z
#    x 1.659270 0.000000 0.000000 
#    y 0.000000 1.659270 0.000000 
#    z 0.000000 0.000000 1.697010 
# 
# From -- ./inp_files/7035.got.cif
#   From: 2010.05.17/outbox.cif.g08.bks.cpg/sg179_4_cif.got.tgz:7035.got - 2010.05.20 11:37:33.
