data_PCOD9583858
_publ_section_title
;
Structure prediction by ZEFSAII (Michael W. Deem and Ramdas Pophale) SiO2 
 PCOD9583858
Probable space group: P 62 2 2
;
_chemical_formula_sum "Si O2"
_cell_formula_units_Z 72
_cell_length_a 15.759674
_cell_length_b 15.759674
_cell_length_c 18.037876
_cell_angle_alpha 90.000000
_cell_angle_beta 90.000000
_cell_angle_gamma 120.000000
_cell_volume 3879.810266
_symmetry_space_group_name_H-M "P 62 2 2"
_symmetry_group_IT_number 180
_symmetry_cell_setting 'hexagonal'
loop_
_space_group_symop_operation_xyz
x,y,z
x-y,x,1/3+z
-y,x-y,2/3+z
-x,-y,z
-x+y,-x,1/3+z
y,-x+y,2/3+z
x-y,-y,-z
-x,-x+y,1/3-z
y,x,2/3-z
-y,-x,2/3-z
-x+y,y,-z
x,x-y,1/3-z
loop_
_atom_site_type_symbol
_atom_site_label
_atom_site_fract_x
_atom_site_fract_y
_atom_site_fract_z
Si Si1 0.406854 0.620307 0.474446
Si Si2 0.248995 0.889604 0.502716
Si Si3 0.215995 0.494871 0.302709
Si Si4 0.398513 0.296559 0.573515
Si Si5 0.873656 0.287094 0.869887
Si Si6 0.100434 0.603017 0.277925
O O1 0.321925 0.643850 0.500000
O O2 0.454480 0.674467 0.397147
O O3 0.497513 0.661125 0.531284
O O4 0.355461 0.503491 0.481914
O O5 0.246729 0.847480 0.584296
O O6 0.156703 0.815048 0.453881
O O7 0.344123 0.892766 0.465348
O O8 0.271434 0.000000 0.500000
O O9 0.184658 0.461842 0.386850
O O10 0.184029 0.575833 0.288492
O O11 0.339146 0.350768 0.551100
O O12 0.427980 0.322626 0.658927
O O13 0.820225 0.179776 0.833334
O O14 0.000000 0.500000 0.285709
#
# Coordination Sequence:
#
# PCOD9583858 Si02
#       6
#    12  12  12  12  12  12
#     4  10  21  35  54  84 117 155 196 243 292 363
#     4  11  22  33  54  88 121 159 199 251 304 368
#     4  11  21  35  53  86 121 153 199 246 297 369
#     4  11  21  39  57  83 121 166 202 245 307 371
#     4  11  23  40  60  78 109 164 214 258 299 356
#     4  12  19  33  59  86 129 158 189 237 316 377
#
# _framework density 18.55761
#
# number of rings (size 3 to 8) (size 9 to 14) (size 15 to 20)
#    0.000    1.000    5.000    3.500    0.000    2.667 
#    0.000    3.333    0.000    8.500    0.000    0.000 
#    0.000    8.000    0.000    0.000    0.000    0.333 
#
# Total GULP energy -402003.055217 kJ/mol
# GULP energy per Si atom -5583.375767 kJ/mol
# Density = 1.851537 g / cm^3
# Si number density = 18.557610 Si / 1000 Ang^3
#
#
#
# Elastic Constant Matrix: (Units=GPa)
#
#
# Indices 1 2 3 4 5 6 
#
# 1 73.0292 22.2956 39.2146 0.0000 0.0000 0.0000
# 2 22.2956 73.0292 39.2146 0.0000 0.0000 0.0000
# 3 39.2146 39.2146 63.6069 0.0000 0.0000 0.0000
# 4 0.0000 0.0000 0.0000 20.6641 0.0000 0.0000
# 5 0.0000 0.0000 0.0000 0.0000 20.6641 0.0000
# 6 0.0000 0.0000 0.0000 0.0000 0.0000 25.3668
#
#
#
# Elastic Compliance Matrix: (Units=1/GPa)
#
#
# Indices 1 2 3 4 5 6 
#
# 1 0.020500 0.000789 -0.013125 0.000000 0.000000 0.000000
# 2 0.000789 0.020500 -0.013125 0.000000 0.000000 0.000000
# 3 -0.013125 -0.013125 0.031905 0.000000 0.000000 0.000000
# 4 0.000000 0.000000 0.000000 0.048393 0.000000 0.000000
# 5 0.000000 0.000000 0.000000 0.000000 0.048393 0.000000
# 6 0.000000 0.000000 0.000000 0.000000 0.000000 0.039422
#
#
# Mechanical properties :
#
#
# Convention : Reuss Voigt Hill
#
# Bulk Modulus (GPa) = 45.48930 45.67946 45.58438
# Shear Modulus (GPa) = 18.70114 20.60168 19.65141
#
# Velocity S-wave (km/s) = 3.17793 3.33550 3.25767
# Velocity P-wave (km/s) = 6.16695 6.28510 6.22631
#
# Compressibility (1/GPa) = 0.02198319
#
# Stress axis : x y z
#
# Youngs Moduli (GPa) = 48.78037 48.78037 31.34275
#
# Poissons Ratio (x) = -0.03850 0.41138
# Poissons Ratio (y) = -0.03850 0.41138
# Poissons Ratio (z) = 0.64025 0.64025
#
# Static dielectric constant tensor:
#      x y z
#    x 1.661220 0.000000 0.000000 
#    y 0.000000 1.661220 0.000000 
#    z 0.000000 0.000000 1.679740 
# 
# From -- ./inp_files/7778.got.cif
#   From: 2010.05.17/outbox.cif.g08.bks.cpg/sg180_4_cif.got.tgz:7778.got - 2010.05.20 11:43:55.
