data_PCOD9583940
_publ_section_title
;
Structure prediction by ZEFSAII (Michael W. Deem and Ramdas Pophale) SiO2 
 PCOD9583940
Probable space group: P 62 2 2
;
_chemical_formula_sum "Si O2"
_cell_formula_units_Z 48
_cell_length_a 21.462877
_cell_length_b 21.462877
_cell_length_c 5.667470
_cell_angle_alpha 90.000000
_cell_angle_beta 90.000000
_cell_angle_gamma 120.000000
_cell_volume 2260.974868
_symmetry_space_group_name_H-M "P 62 2 2"
_symmetry_group_IT_number 180
_symmetry_cell_setting 'hexagonal'
loop_
_space_group_symop_operation_xyz
x,y,z
x-y,x,1/3+z
-y,x-y,2/3+z
-x,-y,z
-x+y,-x,1/3+z
y,-x+y,2/3+z
x-y,-y,-z
-x,-x+y,1/3-z
y,x,2/3-z
-y,-x,2/3-z
-x+y,y,-z
x,x-y,1/3-z
loop_
_atom_site_type_symbol
_atom_site_label
_atom_site_fract_x
_atom_site_fract_y
_atom_site_fract_z
Si Si1 0.231850 0.115925 0.166667
Si Si2 0.343975 0.343975 0.833334
Si Si3 0.546614 0.273307 0.666667
Si Si4 0.196433 0.598217 0.666667
Si Si5 0.000000 0.729673 0.666667
Si Si6 0.000000 0.112501 0.166667
Si Si7 0.502103 0.636910 0.943771
O O1 0.267926 0.193439 0.295848
O O2 0.181466 0.055981 0.355101
O O3 0.310693 0.302096 0.584985
O O4 0.422115 0.353473 0.878852
O O5 0.593818 0.346511 0.527309
O O6 0.502405 0.295191 0.842939
O O7 0.148131 0.520038 0.551812
O O8 0.953250 0.046751 0.333334
O O9 0.437483 0.562518 0.833334
#
# Coordination Sequence:
#
# PCOD9583940 Si02
#       7
#     6   6   6   6   6   6  12
#     4  12  26  47  74 108 142 196 244 322 384 442
#     4  12  30  52  75 109 145 215 250 304 364 452
#     4  10  22  39  70 114 147 198 235 321 372 449
#     4  10  22  41  73 108 155 188 242 312 388 441
#     4  12  30  50  78 104 152 192 256 304 382 452
#     4  12  23  41  73 107 144 179 245 318 400 458
#     4  10  24  45  73 107 145 192 251 315 368 447
#
# _framework density 21.229780999999999
#
# number of rings (size 3 to 8) (size 9 to 14) (size 15 to 20)
#    0.000    1.000    2.500    1.875    7.000   14.500 
#    0.000    0.000    0.000    0.000    0.000    0.000 
#    0.000    0.000    0.000    0.000    0.000    0.000 
#
# Total GULP energy -268027.433035 kJ/mol
# GULP energy per Si atom -5583.904855 kJ/mol
# Density = 2.118146 g / cm^3
# Si number density = 21.229781 Si / 1000 Ang^3
#
#
#
# Elastic Constant Matrix: (Units=GPa)
#
#
# Indices 1 2 3 4 5 6 
#
# 1 129.2929 57.8305 63.1334 0.0000 0.0000 0.0000
# 2 57.8305 129.2929 63.1334 0.0000 0.0000 0.0000
# 3 63.1334 63.1334 144.4669 0.0000 0.0000 0.0000
# 4 0.0000 0.0000 0.0000 21.3477 0.0000 0.0000
# 5 0.0000 0.0000 0.0000 0.0000 21.3477 0.0000
# 6 0.0000 0.0000 0.0000 0.0000 0.0000 35.7312
#
#
#
# Elastic Compliance Matrix: (Units=1/GPa)
#
#
# Indices 1 2 3 4 5 6 
#
# 1 0.010786 -0.003207 -0.003312 0.000000 0.000000 0.000000
# 2 -0.003207 0.010786 -0.003312 0.000000 0.000000 0.000000
# 3 -0.003312 -0.003312 0.009817 0.000000 0.000000 0.000000
# 4 0.000000 0.000000 0.000000 0.046844 0.000000 0.000000
# 5 0.000000 0.000000 0.000000 0.000000 0.046844 0.000000
# 6 0.000000 0.000000 0.000000 0.000000 0.000000 0.027987
#
#
# Mechanical properties :
#
#
# Convention : Reuss Voigt Hill
#
# Bulk Modulus (GPa) = 85.27726 85.69413 85.48570
# Shear Modulus (GPa) = 28.30703 30.28233 29.29468
#
# Velocity S-wave (km/s) = 3.65549 3.78088 3.71871
# Velocity P-wave (km/s) = 7.62054 7.71445 7.66764
#
# Compressibility (1/GPa) = 0.01172646
#
# Stress axis : x y z
#
# Youngs Moduli (GPa) = 92.71117 92.71117 101.86586
#
# Poissons Ratio (x) = 0.29734 0.33739
# Poissons Ratio (y) = 0.29734 0.33739
# Poissons Ratio (z) = 0.30707 0.30707
#
# Static dielectric constant tensor:
#      x y z
#    x 1.778770 0.000000 0.000000 
#    y 0.000000 1.778770 0.000000 
#    z 0.000000 0.000000 1.873830 
# 
# From -- ./inp_files/1190.got.cif
#   From: 2010.05.17/outbox.cif.g08.bks.cpg/sg180_1_cif.got.tgz:1190.got - 2010.05.20 11:43:55.
