data_PCOD9583418
_publ_section_title
;
Structure prediction by ZEFSAII (Michael W. Deem and Ramdas Pophale) SiO2 
 PCOD9583418
Probable space group: P 65 2 2
;
_chemical_formula_sum "Si O2"
_cell_formula_units_Z 42
_cell_length_a 22.018457
_cell_length_b 22.018457
_cell_length_c 5.249009
_cell_angle_alpha 90.000000
_cell_angle_beta 90.000000
_cell_angle_gamma 120.000000
_cell_volume 2203.848376
_symmetry_space_group_name_H-M "P 65 2 2"
_symmetry_group_IT_number 179
_symmetry_cell_setting 'hexagonal'
loop_
_space_group_symop_operation_xyz
x,y,z
x-y,x,5/6+z
-y,x-y,2/3+z
-x,-y,1/2+z
-x+y,-x,1/3+z
y,-x+y,1/6+z
x-y,-y,-z
-x,-x+y,1/3-z
y,x,2/3-z
-y,-x,1/6-z
-x+y,y,1/2-z
x,x-y,5/6-z
loop_
_atom_site_type_symbol
_atom_site_label
_atom_site_fract_x
_atom_site_fract_y
_atom_site_fract_z
Si Si1 0.718994 0.959796 0.245300
Si Si2 0.567256 0.212590 0.497163
Si Si3 0.000000 0.860767 0.666667
Si Si4 0.573586 0.824599 0.173135
O O1 0.649540 0.885824 0.254263
O O2 0.724968 0.000000 0.500000
O O3 0.713435 0.000000 0.000000
O O4 0.794679 0.965200 0.198561
O O5 0.595267 0.190534 0.250000
O O6 0.569016 0.284508 0.416667
O O7 0.487339 0.159612 0.586069
O O8 0.613046 0.226091 0.750000
O O9 0.935017 0.870035 0.750000
O O10 0.545347 0.772674 0.416667
O O11 0.586465 0.793233 0.916667
#
# Coordination Sequence:
#
# PCOD9583418 Si02
#       4
#    12  12   6  12
#     4  10  23  39  64  88 121 160 213 263 318 362
#     4  11  21  34  55  88 127 162 197 248 313 378
#     4  10  24  44  62  96 130 166 208 254 330 396
#     4  11  22  37  61  90 122 166 216 262 310 376
#
# _framework density 19.057573000000001
#
# number of rings (size 3 to 8) (size 9 to 14) (size 15 to 20)
#    0.857    0.571    0.000    7.714    4.000    0.000 
#    2.571    0.000    0.000    3.429    0.000    0.000 
#    0.000    0.000    0.000    0.000    0.000    0.000 
#
# Total GULP energy -233941.740724 kJ/mol
# GULP energy per Si atom -5570.041446 kJ/mol
# Density = 1.901420 g / cm^3
# Si number density = 19.057573 Si / 1000 Ang^3
#
#
#
# Elastic Constant Matrix: (Units=GPa)
#
#
# Indices 1 2 3 4 5 6 
#
# 1 79.5897 74.8765 46.7700 0.0000 0.0000 0.0000
# 2 74.8765 79.5897 46.7700 0.0000 0.0000 0.0000
# 3 46.7700 46.7700 161.2053 0.0000 0.0000 0.0000
# 4 0.0000 0.0000 0.0000 16.7929 0.0000 0.0000
# 5 0.0000 0.0000 0.0000 0.0000 16.7929 0.0000
# 6 0.0000 0.0000 0.0000 0.0000 0.0000 2.3566
#
#
#
# Elastic Compliance Matrix: (Units=1/GPa)
#
#
# Indices 1 2 3 4 5 6 
#
# 1 0.110012 -0.102158 -0.002279 0.000000 0.000000 0.000000
# 2 -0.102158 0.110012 -0.002279 0.000000 0.000000 0.000000
# 3 -0.002279 -0.002279 0.007525 0.000000 0.000000 0.000000
# 4 0.000000 0.000000 0.000000 0.059549 0.000000 0.000000
# 5 0.000000 0.000000 0.000000 0.000000 0.059549 0.000000
# 6 0.000000 0.000000 0.000000 0.000000 0.000000 0.424341
#
#
# Mechanical properties :
#
#
# Convention : Reuss Voigt Hill
#
# Bulk Modulus (GPa) = 70.82862 73.02419 71.92640
# Shear Modulus (GPa) = 5.05496 17.31969 11.18733
#
# Velocity S-wave (km/s) = 1.63041 3.01792 2.42549
# Velocity P-wave (km/s) = 6.38675 7.10947 6.75778
#
# Compressibility (1/GPa) = 0.01411859
#
# Stress axis : x y z
#
# Youngs Moduli (GPa) = 9.08990 9.08990 132.88285
#
# Poissons Ratio (x) = 0.92861 0.30278
# Poissons Ratio (y) = 0.92861 0.30278
# Poissons Ratio (z) = 0.02071 0.02071
#
# Static dielectric constant tensor:
#      x y z
#    x 1.720460 0.000000 0.000000 
#    y 0.000000 1.720460 0.000000 
#    z 0.000000 0.000000 1.592570 
# 
# From -- ./inp_files/757.got.cif
#   From: 2010.05.17/outbox.cif.g08.bks.cpg/sg179_1_cif.got.tgz:757.got - 2010.05.20 11:37:33.
