data_PCOD9583514
_publ_section_title
;
Structure prediction by ZEFSAII (Michael W. Deem and Ramdas Pophale) SiO2 
 PCOD9583514
Probable space group: P 65 2 2
;
_chemical_formula_sum "Si O2"
_cell_formula_units_Z 72
_cell_length_a 14.882730
_cell_length_b 14.882730
_cell_length_c 18.342767
_cell_angle_alpha 90.000000
_cell_angle_beta 90.000000
_cell_angle_gamma 120.000000
_cell_volume 3518.525372
_symmetry_space_group_name_H-M "P 65 2 2"
_symmetry_group_IT_number 179
_symmetry_cell_setting 'hexagonal'
loop_
_space_group_symop_operation_xyz
x,y,z
x-y,x,5/6+z
-y,x-y,2/3+z
-x,-y,1/2+z
-x+y,-x,1/3+z
y,-x+y,1/6+z
x-y,-y,-z
-x,-x+y,1/3-z
y,x,2/3-z
-y,-x,1/6-z
-x+y,y,1/2-z
x,x-y,5/6-z
loop_
_atom_site_type_symbol
_atom_site_label
_atom_site_fract_x
_atom_site_fract_y
_atom_site_fract_z
Si Si1 0.468803 0.558091 0.284230
Si Si2 0.073280 0.615082 0.473092
Si Si3 0.555741 0.245792 0.565489
Si Si4 0.985284 0.803938 0.085766
Si Si5 0.764944 0.278475 0.395732
Si Si6 0.051120 0.747805 0.940662
O O1 0.556592 0.556592 0.333334
O O2 0.429194 0.471882 0.220870
O O3 0.379183 0.538536 0.341455
O O4 0.495127 0.663393 0.243188
O O5 0.038975 0.519488 0.416667
O O6 0.197798 0.680444 0.469614
O O7 0.030898 0.688404 0.444376
O O8 0.677917 0.322084 0.583334
O O9 0.500193 0.207778 0.643416
O O10 0.865092 0.771755 0.078947
O O11 0.000000 0.772079 0.166667
O O12 0.073020 0.926981 0.083334
O O13 0.009990 0.747515 0.021274
O O14 0.748062 0.374031 0.416667
O O15 0.854519 0.275635 0.441534
#
# Coordination Sequence:
#
# PCOD9583514 Si02
#       6
#    12  12  12  12  12  12
#     4  12  25  41  64  97 134 174 228 278 332 409
#     4  11  22  42  66  94 135 180 225 279 342 413
#     4  11  21  43  68  90 134 184 215 275 347 403
#     4   9  21  44  66  96 139 179 222 300 360 406
#     4  12  23  43  61  95 138 177 221 275 343 412
#     4  11  23  40  67  97 130 182 233 277 352 425
#
# _framework density 20.463118999999999
#
# number of rings (size 3 to 8) (size 9 to 14) (size 15 to 20)
#    0.000    1.000    5.000    3.000    0.000    2.000 
#   12.000    0.000    0.000   19.000    0.000    0.000 
#    0.000    0.000    0.000    0.000    0.000    0.000 
#
# Total GULP energy -402412.516965 kJ/mol
# GULP energy per Si atom -5589.062736 kJ/mol
# Density = 2.041654 g / cm^3
# Si number density = 20.463119 Si / 1000 Ang^3
#
#
#
# Elastic Constant Matrix: (Units=GPa)
#
#
# Indices 1 2 3 4 5 6 
#
# 1 84.4239 36.9923 43.3312 0.0000 0.0000 0.0000
# 2 36.9923 84.4239 43.3312 0.0000 0.0000 0.0000
# 3 43.3312 43.3312 156.0206 0.0000 0.0000 0.0000
# 4 0.0000 0.0000 0.0000 23.1560 0.0000 0.0000
# 5 0.0000 0.0000 0.0000 0.0000 23.1560 0.0000
# 6 0.0000 0.0000 0.0000 0.0000 0.0000 23.7158
#
#
#
# Elastic Compliance Matrix: (Units=1/GPa)
#
#
# Indices 1 2 3 4 5 6 
#
# 1 0.015678 -0.005405 -0.002853 0.000000 0.000000 0.000000
# 2 -0.005405 0.015678 -0.002853 0.000000 0.000000 0.000000
# 3 -0.002853 -0.002853 0.007994 0.000000 0.000000 0.000000
# 4 0.000000 0.000000 0.000000 0.043185 0.000000 0.000000
# 5 0.000000 0.000000 0.000000 0.000000 0.043185 0.000000
# 6 0.000000 0.000000 0.000000 0.000000 0.000000 0.042166
#
#
# Mechanical properties :
#
#
# Convention : Reuss Voigt Hill
#
# Bulk Modulus (GPa) = 58.38653 63.57529 60.98091
# Shear Modulus (GPa) = 25.53393 27.41978 26.47685
#
# Velocity S-wave (km/s) = 3.53626 3.66452 3.60096
# Velocity P-wave (km/s) = 6.72815 7.00290 6.86690
#
# Compressibility (1/GPa) = 0.01712724
#
# Stress axis : x y z
#
# Youngs Moduli (GPa) = 63.78469 63.78469 125.09242
#
# Poissons Ratio (x) = 0.34477 0.35688
# Poissons Ratio (y) = 0.34477 0.35688
# Poissons Ratio (z) = 0.18197 0.18197
#
# Static dielectric constant tensor:
#      x y z
#    x 1.753260 0.000000 0.000000 
#    y 0.000000 1.753260 0.000000 
#    z 0.000000 0.000000 1.745900 
# 
# From -- ./inp_files/6853.got.cif
#   From: 2010.05.17/outbox.cif.g08.bks.cpg/sg179_4_cif.got.tgz:6853.got - 2010.05.20 11:37:33.
