data_PCOD9583987
_publ_section_title
;
Structure prediction by ZEFSAII (Michael W. Deem and Ramdas Pophale) SiO2 
 PCOD9583987
Probable space group: P 62 2 2
;
_chemical_formula_sum "Si O2"
_cell_formula_units_Z 45
_cell_length_a 14.099117
_cell_length_b 14.099117
_cell_length_c 14.308522
_cell_angle_alpha 90.000000
_cell_angle_beta 90.000000
_cell_angle_gamma 120.000000
_cell_volume 2463.254224
_symmetry_space_group_name_H-M "P 62 2 2"
_symmetry_group_IT_number 180
_symmetry_cell_setting 'hexagonal'
loop_
_space_group_symop_operation_xyz
x,y,z
x-y,x,1/3+z
-y,x-y,2/3+z
-x,-y,z
-x+y,-x,1/3+z
y,-x+y,2/3+z
x-y,-y,-z
-x,-x+y,1/3-z
y,x,2/3-z
-y,-x,2/3-z
-x+y,y,-z
x,x-y,1/3-z
loop_
_atom_site_type_symbol
_atom_site_label
_atom_site_fract_x
_atom_site_fract_y
_atom_site_fract_z
Si Si1 0.000000 0.500000 0.972976
Si Si2 0.946422 0.174733 0.919502
Si Si3 0.621179 0.718418 0.907557
Si Si4 0.000000 0.000000 0.333334
Si Si5 0.150080 0.415563 0.903611
O O1 0.914938 0.518750 0.912440
O O2 0.936176 0.394018 0.038938
O O3 0.863045 0.136956 0.833334
O O4 0.057428 0.287389 0.897267
O O5 0.900131 0.199060 0.013861
O O6 0.972968 0.079042 0.939832
O O7 0.690929 0.690929 0.833334
O O8 0.560337 0.768862 0.849029
O O9 0.215355 0.430710 0.000000
#
# Coordination Sequence:
#
# PCOD9583987 Si02
#       5
#     6  12  12   3  12
#     4  10  23  38  68  97 124 158 217 272 323 356
#     4  11  22  34  55  89 128 163 201 246 311 378
#     4  11  20  39  65  89 119 164 210 265 317 372
#     4  12  18  32  52  90 122 162 202 236 298 366
#     4  11  21  38  63  92 122 155 211 268 312 375
#
# _framework density 18.268515000000001
#
# number of rings (size 3 to 8) (size 9 to 14) (size 15 to 20)
#    0.000    1.067    6.667    2.400    0.000    0.000 
#    0.000    0.000   23.467    6.400    0.000    0.000 
#    0.000    0.000    0.000    0.000    0.000    0.000 
#
# Total GULP energy -251404.843691 kJ/mol
# GULP energy per Si atom -5586.774304 kJ/mol
# Density = 1.822693 g / cm^3
# Si number density = 18.268515 Si / 1000 Ang^3
#
#
#
# Elastic Constant Matrix: (Units=GPa)
#
#
# Indices 1 2 3 4 5 6 
#
# 1 94.4583 45.7239 53.5668 0.0000 0.0000 0.0000
# 2 45.7239 94.4583 53.5668 0.0000 0.0000 0.0000
# 3 53.5668 53.5668 109.3888 0.0000 0.0000 0.0000
# 4 0.0000 0.0000 0.0000 12.8015 0.0000 0.0000
# 5 0.0000 0.0000 0.0000 0.0000 12.8015 0.0000
# 6 0.0000 0.0000 0.0000 0.0000 0.0000 24.3672
#
#
#
# Elastic Compliance Matrix: (Units=1/GPa)
#
#
# Indices 1 2 3 4 5 6 
#
# 1 0.015960 -0.004560 -0.005582 0.000000 0.000000 0.000000
# 2 -0.004560 0.015960 -0.005582 0.000000 0.000000 0.000000
# 3 -0.005582 -0.005582 0.014609 0.000000 0.000000 0.000000
# 4 0.000000 0.000000 0.000000 0.078116 0.000000 0.000000
# 5 0.000000 0.000000 0.000000 0.000000 0.078116 0.000000
# 6 0.000000 0.000000 0.000000 0.000000 0.000000 0.041039
#
#
# Mechanical properties :
#
#
# Convention : Reuss Voigt Hill
#
# Bulk Modulus (GPa) = 66.31686 67.11337 66.71512
# Shear Modulus (GPa) = 17.83963 19.69056 18.76510
#
# Velocity S-wave (km/s) = 3.12833 3.28661 3.20845
# Velocity P-wave (km/s) = 7.03054 7.15677 7.09394
#
# Compressibility (1/GPa) = 0.01507912
#
# Stress axis : x y z
#
# Youngs Moduli (GPa) = 62.65802 62.65802 68.45065
#
# Poissons Ratio (x) = 0.28570 0.38212
# Poissons Ratio (y) = 0.28570 0.38212
# Poissons Ratio (z) = 0.34979 0.34979
#
# Static dielectric constant tensor:
#      x y z
#    x 1.632890 0.000000 0.000000 
#    y 0.000000 1.632890 0.000000 
#    z 0.000000 0.000000 1.635810 
# 
# From -- ./inp_files/4471.got.cif
#   From: 2010.05.17/outbox.cif.g08.bks.cpg/sg180_3_cif.got.tgz:4471.got - 2010.05.20 11:43:55.
