data_PCOD9583536
_publ_section_title
;
Structure prediction by ZEFSAII (Michael W. Deem and Ramdas Pophale) SiO2 
 PCOD9583536
Probable space group: P 65 2 2
;
_chemical_formula_sum "Si O2"
_cell_formula_units_Z 60
_cell_length_a 14.453233
_cell_length_b 14.453233
_cell_length_c 15.432237
_cell_angle_alpha 90.000000
_cell_angle_beta 90.000000
_cell_angle_gamma 120.000000
_cell_volume 2791.833563
_symmetry_space_group_name_H-M "P 65 2 2"
_symmetry_group_IT_number 179
_symmetry_cell_setting 'hexagonal'
loop_
_space_group_symop_operation_xyz
x,y,z
x-y,x,5/6+z
-y,x-y,2/3+z
-x,-y,1/2+z
-x+y,-x,1/3+z
y,-x+y,1/6+z
x-y,-y,-z
-x,-x+y,1/3-z
y,x,2/3-z
-y,-x,1/6-z
-x+y,y,1/2-z
x,x-y,5/6-z
loop_
_atom_site_type_symbol
_atom_site_label
_atom_site_fract_x
_atom_site_fract_y
_atom_site_fract_z
Si Si1 0.329259 0.116847 0.507293
Si Si2 0.933346 0.324357 0.895086
Si Si3 0.917786 0.401045 0.292535
Si Si4 0.589893 0.317210 0.675162
Si Si5 0.614811 0.918221 0.421521
O O1 0.355635 0.177818 0.416667
O O2 0.332495 0.203619 0.572185
O O3 0.418496 0.094512 0.547124
O O4 0.225150 0.000000 0.500000
O O5 0.850577 0.346047 0.838100
O O6 0.025662 0.332804 0.834897
O O7 0.985322 0.404844 0.977034
O O8 0.810383 0.336239 0.348788
O O9 0.915971 0.502102 0.252711
O O10 0.650023 0.349978 0.583334
O O11 0.680355 0.360710 0.750000
O O12 0.601183 0.800592 0.416667
O O13 0.680745 0.000000 0.500000
#
# Coordination Sequence:
#
# PCOD9583536 Si02
#       5
#    12  12  12  12  12
#     4  11  23  44  78 113 148 198 251 319 388 467
#     4  11  26  47  72 106 152 197 247 323 381 457
#     4  11  24  45  71 108 154 189 248 307 394 464
#     4  11  25  42  72 107 153 195 252 309 384 482
#     4  12  29  46  73 103 147 207 251 309 383 468
#
# _framework density 21.491250999999998
#
# number of rings (size 3 to 8) (size 9 to 14) (size 15 to 20)
#    0.000    0.800    2.000    4.200   11.200    3.200 
#    0.000    2.000    0.000    4.800    0.000    0.000 
#    0.000    0.000    0.000    0.000    0.000    0.000 
#
# Total GULP energy -334958.552897 kJ/mol
# GULP energy per Si atom -5582.642548 kJ/mol
# Density = 2.144234 g / cm^3
# Si number density = 21.491251 Si / 1000 Ang^3
#
#
#
# Elastic Constant Matrix: (Units=GPa)
#
#
# Indices 1 2 3 4 5 6 
#
# 1 117.9871 92.9359 59.5294 0.0000 0.0000 0.0000
# 2 92.9359 117.9871 59.5294 0.0000 0.0000 0.0000
# 3 59.5294 59.5294 127.8871 0.0000 0.0000 0.0000
# 4 0.0000 0.0000 0.0000 37.9548 0.0000 0.0000
# 5 0.0000 0.0000 0.0000 0.0000 37.9548 0.0000
# 6 0.0000 0.0000 0.0000 0.0000 0.0000 12.5256
#
#
#
# Elastic Compliance Matrix: (Units=1/GPa)
#
#
# Indices 1 2 3 4 5 6 
#
# 1 0.023175 -0.016744 -0.002993 0.000000 0.000000 0.000000
# 2 -0.016744 0.023175 -0.002993 0.000000 0.000000 0.000000
# 3 -0.002993 -0.002993 0.010606 0.000000 0.000000 0.000000
# 4 0.000000 0.000000 0.000000 0.026347 0.000000 0.000000
# 5 0.000000 0.000000 0.000000 0.000000 0.026347 0.000000
# 6 0.000000 0.000000 0.000000 0.000000 0.000000 0.079837
#
#
# Mechanical properties :
#
#
# Convention : Reuss Voigt Hill
#
# Bulk Modulus (GPa) = 87.00176 87.53895 87.27035
# Shear Modulus (GPa) = 20.93992 27.81149 24.37571
#
# Velocity S-wave (km/s) = 3.12484 3.60124 3.37146
# Velocity P-wave (km/s) = 7.32050 7.62317 7.47337
#
# Compressibility (1/GPa) = 0.01149402
#
# Stress axis : x y z
#
# Youngs Moduli (GPa) = 43.15088 43.15088 94.28478
#
# Poissons Ratio (x) = 0.72251 0.28223
# Poissons Ratio (y) = 0.72251 0.28223
# Poissons Ratio (z) = 0.12917 0.12917
#
# Static dielectric constant tensor:
#      x y z
#    x 1.837800 0.000000 0.000000 
#    y 0.000000 1.837800 0.000000 
#    z 0.000000 0.000000 1.907210 
# 
# From -- ./inp_files/5782.got.cif
#   From: 2010.05.17/outbox.cif.g08.bks.cpg/sg179_3_cif.got.tgz:5782.got - 2010.05.20 11:37:33.
