data_PCOD9583492
_publ_section_title
;
Structure prediction by ZEFSAII (Michael W. Deem and Ramdas Pophale) SiO2 
 PCOD9583492
Probable space group: P 65 2 2
;
_chemical_formula_sum "Si O2"
_cell_formula_units_Z 96
_cell_length_a 21.575290
_cell_length_b 21.575290
_cell_length_c 18.548221
_cell_angle_alpha 90.000000
_cell_angle_beta 90.000000
_cell_angle_gamma 120.000000
_cell_volume 7477.323619
_symmetry_space_group_name_H-M "P 65 2 2"
_symmetry_group_IT_number 179
_symmetry_cell_setting 'hexagonal'
loop_
_space_group_symop_operation_xyz
x,y,z
x-y,x,5/6+z
-y,x-y,2/3+z
-x,-y,1/2+z
-x+y,-x,1/3+z
y,-x+y,1/6+z
x-y,-y,-z
-x,-x+y,1/3-z
y,x,2/3-z
-y,-x,1/6-z
-x+y,y,1/2-z
x,x-y,5/6-z
loop_
_atom_site_type_symbol
_atom_site_label
_atom_site_fract_x
_atom_site_fract_y
_atom_site_fract_z
Si Si1 0.742260 0.250963 0.894440
Si Si2 0.474954 0.444255 0.756024
Si Si3 0.600439 0.618246 0.915845
Si Si4 0.497640 0.606621 0.489316
Si Si5 0.348017 0.887245 0.311064
Si Si6 0.432917 0.808446 0.613277
Si Si7 0.404962 0.768752 0.451843
Si Si8 0.531412 0.706209 0.968004
O O1 0.717957 0.181793 0.845676
O O2 0.767373 0.319210 0.842785
O O3 0.669618 0.232274 0.938274
O O4 0.804305 0.266401 0.950646
O O5 0.438989 0.438989 0.833334
O O6 0.548007 0.521301 0.756554
O O7 0.422834 0.450370 0.699818
O O8 0.500669 0.389029 0.734219
O O9 0.630056 0.630056 0.833334
O O10 0.586356 0.680823 0.942872
O O11 0.640765 0.597036 0.976594
O O12 0.535843 0.656605 0.557840
O O13 0.421720 0.536175 0.508847
O O14 0.471210 0.635692 0.422465
O O15 0.418255 0.769600 0.536465
O O16 0.363416 0.815193 0.630697
O O17 0.395931 0.697966 0.416667
O O18 0.535292 0.767646 0.916667
#
# Coordination Sequence:
#
# PCOD9583492 Si02
#       8
#    12  12  12  12  12  12  12  12
#     4  11  22  31  42  60  80 103 130 166 206 252
#     4   9  16  29  45  58  74  94 129 165 202 239
#     4   9  18  29  46  59  74 101 130 160 201 248
#     4   9  17  29  44  58  72 100 128 162 194 242
#     4   9  18  31  43  57  77  99 132 160 197 243
#     4  11  21  30  42  60  78 102 129 164 208 253
#     4  11  20  30  42  55  79 104 128 155 206 260
#     4  11  20  31  44  60  81 101 127 165 212 254
#
# _framework density 12.838818
#
# number of rings (size 3 to 8) (size 9 to 14) (size 15 to 20)
#    0.000    2.000    2.500    2.625    5.250    1.000 
#    0.000    0.000    0.000    0.000    0.000    0.000 
#    0.000    0.000    0.000    0.000    0.000    0.000 
#
# Total GULP energy -534555.035351 kJ/mol
# GULP energy per Si atom -5568.281618 kJ/mol
# Density = 1.280960 g / cm^3
# Si number density = 12.838818 Si / 1000 Ang^3
#
#
#
# Elastic Constant Matrix: (Units=GPa)
#
#
# Indices 1 2 3 4 5 6 
#
# 1 29.3023 20.9189 14.0485 0.0000 0.0000 0.0000
# 2 20.9189 29.3023 14.0485 0.0000 0.0000 0.0000
# 3 14.0485 14.0485 72.0456 0.0000 0.0000 0.0000
# 4 0.0000 0.0000 0.0000 12.0213 0.0000 0.0000
# 5 0.0000 0.0000 0.0000 0.0000 12.0213 0.0000
# 6 0.0000 0.0000 0.0000 0.0000 0.0000 4.1917
#
#
#
# Elastic Compliance Matrix: (Units=1/GPa)
#
#
# Indices 1 2 3 4 5 6 
#
# 1 0.070817 -0.048467 -0.004358 0.000000 0.000000 0.000000
# 2 -0.048467 0.070817 -0.004358 0.000000 0.000000 0.000000
# 3 -0.004358 -0.004358 0.015580 0.000000 0.000000 0.000000
# 4 0.000000 0.000000 0.000000 0.083186 0.000000 0.000000
# 5 0.000000 0.000000 0.000000 0.000000 0.083186 0.000000
# 6 0.000000 0.000000 0.000000 0.000000 0.000000 0.238568
#
#
# Mechanical properties :
#
#
# Convention : Reuss Voigt Hill
#
# Bulk Modulus (GPa) = 23.33864 25.40912 24.37388
# Shear Modulus (GPa) = 7.23796 11.08913 9.16355
#
# Velocity S-wave (km/s) = 2.37693 2.94210 2.67449
# Velocity P-wave (km/s) = 5.07452 5.60135 5.34443
#
# Compressibility (1/GPa) = 0.04284739
#
# Stress axis : x y z
#
# Youngs Moduli (GPa) = 14.12089 14.12089 64.18595
#
# Poissons Ratio (x) = 0.68440 0.27973
# Poissons Ratio (y) = 0.68440 0.27973
# Poissons Ratio (z) = 0.06154 0.06154
#
# Static dielectric constant tensor:
#      x y z
#    x 1.409740 0.000000 0.000000 
#    y 0.000000 1.409740 0.000000 
#    z 0.000000 0.000000 1.472290 
# 
# From -- ./inp_files/7048.got.cif
#   From: 2010.05.17/outbox.cif.g08.bks.cpg/sg179_4_cif.got.tgz:7048.got - 2010.05.20 11:37:33.
