data_PCOD9583773
_publ_section_title
;
Structure prediction by ZEFSAII (Michael W. Deem and Ramdas Pophale) SiO2 
 PCOD9583773
Probable space group: P 62 2 2
;
_chemical_formula_sum "Si O2"
_cell_formula_units_Z 60
_cell_length_a 18.276841
_cell_length_b 18.276841
_cell_length_c 12.302724
_cell_angle_alpha 90.000000
_cell_angle_beta 90.000000
_cell_angle_gamma 120.000000
_cell_volume 3559.050745
_symmetry_space_group_name_H-M "P 62 2 2"
_symmetry_group_IT_number 180
_symmetry_cell_setting 'hexagonal'
loop_
_space_group_symop_operation_xyz
x,y,z
x-y,x,1/3+z
-y,x-y,2/3+z
-x,-y,z
-x+y,-x,1/3+z
y,-x+y,2/3+z
x-y,-y,-z
-x,-x+y,1/3-z
y,x,2/3-z
-y,-x,2/3-z
-x+y,y,-z
x,x-y,1/3-z
loop_
_atom_site_type_symbol
_atom_site_label
_atom_site_fract_x
_atom_site_fract_y
_atom_site_fract_z
Si Si1 0.810190 0.056186 0.250623
Si Si2 0.879085 0.758170 0.500000
Si Si3 0.349048 0.195998 0.373167
Si Si4 0.500000 0.000000 0.263438
Si Si5 0.909904 0.388118 0.603757
Si Si6 0.667062 0.032525 0.623161
O O1 0.882913 0.117088 0.333334
O O2 0.820314 0.106426 0.139729
O O3 0.810227 0.970058 0.222659
O O4 0.718070 0.026092 0.304090
O O5 0.885322 0.699054 0.592875
O O6 0.427797 0.288549 0.389698
O O7 0.375414 0.124736 0.371930
O O8 0.428884 0.931972 0.182184
O O9 0.551668 0.966993 0.332967
O O10 0.866590 0.433295 0.666667
O O11 0.000000 0.420943 0.666667
O O12 0.652491 0.000000 0.500000
#
# Coordination Sequence:
#
# PCOD9583773 Si02
#       6
#    12   6  12   6  12  12
#     4  11  21  39  60  86 122 158 199 246 304 348
#     4  10  24  32  62  91 116 154 202 254 285 358
#     4  11  21  37  60  87 123 150 199 243 300 351
#     4  10  20  36  58  86 116 148 196 238 296 336
#     4   9  19  33  56  84 119 152 184 241 294 348
#     4  11  22  36  60  90 112 157 193 250 287 354
#
# _framework density 16.858426999999999
#
# number of rings (size 3 to 8) (size 9 to 14) (size 15 to 20)
#    0.000    1.800    4.000    2.100    8.400    0.000 
#    0.000    0.000    0.000   31.200    0.000    0.000 
#    0.000    0.000    0.000    0.000    0.000    0.000 
#
# Total GULP energy -334744.132220 kJ/mol
# GULP energy per Si atom -5579.068870 kJ/mol
# Density = 1.682006 g / cm^3
# Si number density = 16.858427 Si / 1000 Ang^3
#
#
#
# Elastic Constant Matrix: (Units=GPa)
#
#
# Indices 1 2 3 4 5 6 
#
# 1 100.0956 55.1266 35.2239 0.0000 0.0000 0.0000
# 2 55.1266 100.0956 35.2239 0.0000 0.0000 0.0000
# 3 35.2239 35.2239 104.1095 0.0000 0.0000 0.0000
# 4 0.0000 0.0000 0.0000 17.6438 0.0000 0.0000
# 5 0.0000 0.0000 0.0000 0.0000 17.6438 0.0000
# 6 0.0000 0.0000 0.0000 0.0000 0.0000 22.4845
#
#
#
# Elastic Compliance Matrix: (Units=1/GPa)
#
#
# Indices 1 2 3 4 5 6 
#
# 1 0.014924 -0.007313 -0.002575 0.000000 0.000000 0.000000
# 2 -0.007313 0.014924 -0.002575 0.000000 0.000000 0.000000
# 3 -0.002575 -0.002575 0.011348 0.000000 0.000000 0.000000
# 4 0.000000 0.000000 0.000000 0.056677 0.000000 0.000000
# 5 0.000000 0.000000 0.000000 0.000000 0.056677 0.000000
# 6 0.000000 0.000000 0.000000 0.000000 0.000000 0.044475
#
#
# Mechanical properties :
#
#
# Convention : Reuss Voigt Hill
#
# Bulk Modulus (GPa) = 61.46453 61.71662 61.59057
# Shear Modulus (GPa) = 21.79828 23.46951 22.63389
#
# Velocity S-wave (km/s) = 3.59976 3.73520 3.66811
# Velocity P-wave (km/s) = 7.33594 7.43576 7.38602
#
# Compressibility (1/GPa) = 0.01626955
#
# Stress axis : x y z
#
# Youngs Moduli (GPa) = 67.00474 67.00474 88.12315
#
# Poissons Ratio (x) = 0.49002 0.22693
# Poissons Ratio (y) = 0.49002 0.22693
# Poissons Ratio (z) = 0.17254 0.17254
#
# Static dielectric constant tensor:
#      x y z
#    x 1.557350 0.000000 0.000000 
#    y 0.000000 1.557350 0.000000 
#    z 0.000000 0.000000 1.592900 
# 
# From -- ./inp_files/4853.got.cif
#   From: 2010.05.17/outbox.cif.g08.bks.cpg/sg180_3_cif.got.tgz:4853.got - 2010.05.20 11:43:55.
