data_PCOD9583027
_publ_section_title
;
Structure prediction by ZEFSAII (Michael W. Deem and Ramdas Pophale) SiO2 
 PCOD9583027
Probable space group: P 61 2 2
;
_chemical_formula_sum "Si O2"
_cell_formula_units_Z 36
_cell_length_a 8.032206
_cell_length_b 8.032206
_cell_length_c 27.495204
_cell_angle_alpha 90.000000
_cell_angle_beta 90.000000
_cell_angle_gamma 120.000000
_cell_volume 1536.233581
_symmetry_space_group_name_H-M "P 61 2 2"
_symmetry_group_IT_number 178
_symmetry_cell_setting 'hexagonal'
loop_
_space_group_symop_operation_xyz
x,y,z
x-y,x,1/6+z
-y,x-y,1/3+z
-x,-y,1/2+z
-x+y,-x,2/3+z
y,-x+y,5/6+z
x-y,-y,-z
-x,-x+y,2/3-z
y,x,1/3-z
-y,-x,5/6-z
-x+y,y,1/2-z
x,x-y,1/6-z
loop_
_atom_site_type_symbol
_atom_site_label
_atom_site_fract_x
_atom_site_fract_y
_atom_site_fract_z
Si Si1 0.419273 0.611974 0.207979
Si Si2 0.836240 0.924438 0.213360
Si Si3 0.195765 0.445841 0.392944
O O1 0.347106 0.694211 0.250000
O O2 0.622196 0.791274 0.192426
O O3 0.455706 0.452971 0.233238
O O4 0.266924 0.495675 0.165184
O O5 0.975826 0.975826 0.166667
O O6 0.908814 0.817628 0.250000
O O7 0.839321 0.091899 0.246489
O O8 0.380627 0.619374 0.416667
#
# Coordination Sequence:
#
# PCOD9583027 Si02
#       3
#    12  12  12
#     4  11  26  47  76 111 150 197 260 309 381 465
#     4  12  28  48  76 110 152 202 252 316 385 458
#     4  11  26  47  76 110 151 198 256 314 381 454
#
# _framework density 23.433935000000002
#
# number of rings (size 3 to 8) (size 9 to 14) (size 15 to 20)
#    0.000    0.667    3.333    3.000   14.000    0.000 
#    0.000    0.000    0.000    0.000    0.000    0.000 
#    0.000    0.000    0.000    0.000    0.000    0.000 
#
# Total GULP energy -200673.550241 kJ/mol
# GULP energy per Si atom -5574.265284 kJ/mol
# Density = 2.338060 g / cm^3
# Si number density = 23.433935 Si / 1000 Ang^3
#
#
#
# Elastic Constant Matrix: (Units=GPa)
#
#
# Indices 1 2 3 4 5 6 
#
# 1 84.0163 32.7807 55.5026 0.0000 0.0000 0.0000
# 2 32.7807 84.0163 55.5026 0.0000 0.0000 0.0000
# 3 55.5026 55.5026 129.3694 0.0000 0.0000 0.0000
# 4 0.0000 0.0000 0.0000 34.1607 0.0000 0.0000
# 5 0.0000 0.0000 0.0000 0.0000 34.1607 0.0000
# 6 0.0000 0.0000 0.0000 0.0000 0.0000 25.6178
#
#
#
# Elastic Compliance Matrix: (Units=1/GPa)
#
#
# Indices 1 2 3 4 5 6 
#
# 1 0.016987 -0.002531 -0.006202 0.000000 0.000000 0.000000
# 2 -0.002531 0.016987 -0.006202 0.000000 0.000000 0.000000
# 3 -0.006202 -0.006202 0.013052 0.000000 0.000000 0.000000
# 4 0.000000 0.000000 0.000000 0.029273 0.000000 0.000000
# 5 0.000000 0.000000 0.000000 0.000000 0.029273 0.000000
# 6 0.000000 0.000000 0.000000 0.000000 0.000000 0.039035
#
#
# Mechanical properties :
#
#
# Convention : Reuss Voigt Hill
#
# Bulk Modulus (GPa) = 58.28925 64.99707 61.64316
# Shear Modulus (GPa) = 27.74748 29.02889 28.38818
#
# Velocity S-wave (km/s) = 3.44477 3.52341 3.48431
# Velocity P-wave (km/s) = 6.38355 6.65951 6.52299
#
# Compressibility (1/GPa) = 0.01715582
#
# Stress axis : x y z
#
# Youngs Moduli (GPa) = 58.86824 58.86824 76.61914
#
# Poissons Ratio (x) = 0.14897 0.47521
# Poissons Ratio (y) = 0.14897 0.47521
# Poissons Ratio (z) = 0.36511 0.36511
#
# Static dielectric constant tensor:
#      x y z
#    x 1.919050 0.000000 0.000000 
#    y 0.000000 1.919050 0.000000 
#    z 0.000000 0.000000 1.981280 
# 
# From -- ./inp_files/8505.got.cif
#   From: 2010.05.17/outbox.cif.g08.bks.cpg/sg178_5_cif.got.tgz:8505.got - 2010.05.20 11:30:59.
