data_PCOD9583795
_publ_section_title
;
Structure prediction by ZEFSAII (Michael W. Deem and Ramdas Pophale) SiO2 
 PCOD9583795
Probable space group: P 62 2 2
;
_chemical_formula_sum "Si O2"
_cell_formula_units_Z 60
_cell_length_a 15.033152
_cell_length_b 15.033152
_cell_length_c 12.663927
_cell_angle_alpha 90.000000
_cell_angle_beta 90.000000
_cell_angle_gamma 120.000000
_cell_volume 2478.558235
_symmetry_space_group_name_H-M "P 62 2 2"
_symmetry_group_IT_number 180
_symmetry_cell_setting 'hexagonal'
loop_
_space_group_symop_operation_xyz
x,y,z
x-y,x,1/3+z
-y,x-y,2/3+z
-x,-y,z
-x+y,-x,1/3+z
y,-x+y,2/3+z
x-y,-y,-z
-x,-x+y,1/3-z
y,x,2/3-z
-y,-x,2/3-z
-x+y,y,-z
x,x-y,1/3-z
loop_
_atom_site_type_symbol
_atom_site_label
_atom_site_fract_x
_atom_site_fract_y
_atom_site_fract_z
Si Si1 0.489798 0.844386 0.137146
Si Si2 0.750513 0.945414 0.891182
Si Si3 0.202635 0.724436 0.576395
Si Si4 0.995616 0.214386 0.332507
Si Si5 0.617447 0.059184 0.650499
O O1 0.518422 0.759211 0.166667
O O2 0.367103 0.795922 0.152897
O O3 0.546391 0.932855 0.221840
O O4 0.520562 0.858571 0.015212
O O5 0.633130 0.864749 0.860014
O O6 0.798307 0.019397 0.791316
O O7 0.800048 0.876285 0.928207
O O8 0.752061 0.000000 0.000000
O O9 0.312391 0.823562 0.606942
O O10 0.883632 0.116369 0.333334
O O11 0.003008 0.320278 0.295824
O O12 0.500000 0.000000 0.614106
#
# Coordination Sequence:
#
# PCOD9583795 Si02
#       5
#    12  12  12  12  12
#     4   9  17  33  56  85 120 160 207 266 322 381
#     4  11  22  40  65  91 120 164 208 263 325 381
#     4   9  19  34  56  88 122 155 211 268 321 380
#     4  11  24  42  63  91 130 164 210 265 318 386
#     4  10  20  37  58  87 123 168 214 258 322 394
#
# _framework density 24.207623000000002
#
# number of rings (size 3 to 8) (size 9 to 14) (size 15 to 20)
#    0.000    2.000    0.000    3.600    0.000    3.600 
#   10.800    4.000    0.000    0.000    0.000    0.000 
#    0.000    0.000    0.000    0.000    0.000    0.000 
#
# Total GULP energy -335078.325379 kJ/mol
# GULP energy per Si atom -5584.638756 kJ/mol
# Density = 2.415253 g / cm^3
# Si number density = 24.207623 Si / 1000 Ang^3
#
#
#
# Elastic Constant Matrix: (Units=GPa)
#
#
# Indices 1 2 3 4 5 6 
#
# 1 116.2467 53.1379 2.7972 0.0000 0.0000 0.0000
# 2 53.1379 116.2467 2.7972 0.0000 0.0000 0.0000
# 3 2.7972 2.7972 75.7128 0.0000 0.0000 0.0000
# 4 0.0000 0.0000 0.0000 7.0175 0.0000 0.0000
# 5 0.0000 0.0000 0.0000 0.0000 7.0175 0.0000
# 6 0.0000 0.0000 0.0000 0.0000 0.0000 31.5544
#
#
#
# Elastic Compliance Matrix: (Units=1/GPa)
#
#
# Indices 1 2 3 4 5 6 
#
# 1 0.010878 -0.004967 -0.000218 0.000000 0.000000 0.000000
# 2 -0.004967 0.010878 -0.000218 0.000000 0.000000 0.000000
# 3 -0.000218 -0.000218 0.013224 0.000000 0.000000 0.000000
# 4 0.000000 0.000000 0.000000 0.142501 0.000000 0.000000
# 5 0.000000 0.000000 0.000000 0.000000 0.142501 0.000000
# 6 0.000000 0.000000 0.000000 0.000000 0.000000 0.031691
#
#
# Mechanical properties :
#
#
# Convention : Reuss Voigt Hill
#
# Bulk Modulus (GPa) = 41.36965 47.29674 44.33320
# Shear Modulus (GPa) = 13.49383 25.74947 19.62165
#
# Velocity S-wave (km/s) = 2.36354 3.26497 2.85012
# Velocity P-wave (km/s) = 4.95732 5.81324 5.40226
#
# Compressibility (1/GPa) = 0.02417231
#
# Stress axis : x y z
#
# Youngs Moduli (GPa) = 91.92619 91.92619 75.62038
#
# Poissons Ratio (x) = 0.45663 0.01651
# Poissons Ratio (y) = 0.45663 0.01651
# Poissons Ratio (z) = 0.02007 0.02007
#
# Static dielectric constant tensor:
#      x y z
#    x 1.927650 0.000000 0.000000 
#    y 0.000000 1.927650 0.000000 
#    z 0.000000 0.000000 2.078910 
# 
# From -- ./inp_files/6072.got.cif
#   From: 2010.05.17/outbox.cif.g08.bks.cpg/sg180_4_cif.got.tgz:6072.got - 2010.05.20 11:43:55.
