data_PCOD9583499
_publ_section_title
;
Structure prediction by ZEFSAII (Michael W. Deem and Ramdas Pophale) SiO2 
 PCOD9583499
Probable space group: P 65 2 2
;
_chemical_formula_sum "Si O2"
_cell_formula_units_Z 54
_cell_length_a 23.032588
_cell_length_b 23.032588
_cell_length_c 5.914803
_cell_angle_alpha 90.000000
_cell_angle_beta 90.000000
_cell_angle_gamma 120.000000
_cell_volume 2717.417666
_symmetry_space_group_name_H-M "P 65 2 2"
_symmetry_group_IT_number 179
_symmetry_cell_setting 'hexagonal'
loop_
_space_group_symop_operation_xyz
x,y,z
x-y,x,5/6+z
-y,x-y,2/3+z
-x,-y,1/2+z
-x+y,-x,1/3+z
y,-x+y,1/6+z
x-y,-y,-z
-x,-x+y,1/3-z
y,x,2/3-z
-y,-x,1/6-z
-x+y,y,1/2-z
x,x-y,5/6-z
loop_
_atom_site_type_symbol
_atom_site_label
_atom_site_fract_x
_atom_site_fract_y
_atom_site_fract_z
Si Si1 0.463808 0.731904 0.416667
Si Si2 0.732739 0.036536 0.749715
Si Si3 0.166922 0.745595 0.392066
Si Si4 0.631854 0.556351 0.876593
Si Si5 0.155190 0.844811 0.083334
Si Si6 0.823511 0.411756 0.416667
O O1 0.513323 0.769119 0.625097
O O2 0.423973 0.771759 0.396053
O O3 0.683393 0.067889 0.789144
O O4 0.812742 0.089828 0.737101
O O5 0.715396 0.000000 0.500000
O O6 0.720763 0.000000 0.000000
O O7 0.198975 0.801026 0.583334
O O8 0.109807 0.675139 0.484992
O O9 0.139484 0.778486 0.220352
O O10 0.572026 0.572026 0.833334
O O11 0.609213 0.482409 0.964850
#
# Coordination Sequence:
#
# PCOD9583499 Si02
#       6
#     6  12  12  12   6   6
#     4  11  26  42  62  83 116 158 222 264 330 424
#     4  11  24  39  62  96 133 173 222 277 335 415
#     4  11  20  42  65  85 114 167 205 255 332 423
#     4  11  24  41  64  95 128 155 211 280 352 412
#     4  11  20  36  66  88 124 169 218 258 332 405
#     4  12  26  42  60  91 116 167 214 280 354 409
#
# _framework density 19.871808999999999
#
# number of rings (size 3 to 8) (size 9 to 14) (size 15 to 20)
#    0.000    0.889    4.444    4.000    0.000    5.333 
#    0.000    0.000    0.000    0.000    0.000    0.000 
#    0.000    0.000    0.000    2.000    0.000    7.556 
#
# Total GULP energy -300643.860969 kJ/mol
# GULP energy per Si atom -5567.478907 kJ/mol
# Density = 1.982658 g / cm^3
# Si number density = 19.871809 Si / 1000 Ang^3
#
#
#
# Elastic Constant Matrix: (Units=GPa)
#
#
# Indices 1 2 3 4 5 6 
#
# 1 167.5222 -7.3492 37.6550 0.0000 0.0000 0.0000
# 2 -7.3492 167.5222 37.6550 0.0000 0.0000 0.0000
# 3 37.6550 37.6550 92.3811 0.0000 0.0000 0.0000
# 4 0.0000 0.0000 0.0000 22.5553 0.0000 0.0000
# 5 0.0000 0.0000 0.0000 0.0000 22.5553 0.0000
# 6 0.0000 0.0000 0.0000 0.0000 0.0000 87.4357
#
#
#
# Elastic Compliance Matrix: (Units=1/GPa)
#
#
# Indices 1 2 3 4 5 6 
#
# 1 0.006721 0.001002 -0.003148 0.000000 0.000000 0.000000
# 2 0.001002 0.006721 -0.003148 0.000000 0.000000 0.000000
# 3 -0.003148 -0.003148 0.013391 0.000000 0.000000 0.000000
# 4 0.000000 0.000000 0.000000 0.044335 0.000000 0.000000
# 5 0.000000 0.000000 0.000000 0.000000 0.044335 0.000000
# 6 0.000000 0.000000 0.000000 0.000000 0.000000 0.011437
#
#
# Mechanical properties :
#
#
# Convention : Reuss Voigt Hill
#
# Bulk Modulus (GPa) = 61.55544 62.59411 62.07477
# Shear Modulus (GPa) = 34.97885 50.47357 42.72621
#
# Velocity S-wave (km/s) = 4.20005 5.04527 4.64194
# Velocity P-wave (km/s) = 7.38675 8.09364 7.74826
#
# Compressibility (1/GPa) = 0.01624552
#
# Stress axis : x y z
#
# Youngs Moduli (GPa) = 148.78837 148.78837 74.67651
#
# Poissons Ratio (x) = -0.14916 0.23509
# Poissons Ratio (y) = -0.14916 0.23509
# Poissons Ratio (z) = 0.46840 0.46840
#
# Static dielectric constant tensor:
#      x y z
#    x 1.755210 0.000000 0.000000 
#    y 0.000000 1.755210 0.000000 
#    z 0.000000 0.000000 1.931180 
# 
# From -- ./inp_files/1232.got.cif
#   From: 2010.05.17/outbox.cif.g08.bks.cpg/sg179_1_cif.got.tgz:1232.got - 2010.05.20 11:37:33.
