data_PCOD9583266
_publ_section_title
;
Structure prediction by ZEFSAII (Michael W. Deem and Ramdas Pophale) SiO2 
 PCOD9583266
Probable space group: P 65 2 2
;
_chemical_formula_sum "Si O2"
_cell_formula_units_Z 66
_cell_length_a 14.286713
_cell_length_b 14.286713
_cell_length_c 17.499245
_cell_angle_alpha 90.000000
_cell_angle_beta 90.000000
_cell_angle_gamma 120.000000
_cell_volume 3093.246884
_symmetry_space_group_name_H-M "P 65 2 2"
_symmetry_group_IT_number 179
_symmetry_cell_setting 'hexagonal'
loop_
_space_group_symop_operation_xyz
x,y,z
x-y,x,5/6+z
-y,x-y,2/3+z
-x,-y,1/2+z
-x+y,-x,1/3+z
y,-x+y,1/6+z
x-y,-y,-z
-x,-x+y,1/3-z
y,x,2/3-z
-y,-x,1/6-z
-x+y,y,1/2-z
x,x-y,5/6-z
loop_
_atom_site_type_symbol
_atom_site_label
_atom_site_fract_x
_atom_site_fract_y
_atom_site_fract_z
Si Si1 0.778785 0.059882 0.833025
Si Si2 0.212818 0.006429 0.083996
Si Si3 0.769637 0.498207 0.007212
Si Si4 0.221526 0.532556 0.827776
Si Si5 0.373684 0.381450 0.037260
Si Si6 0.058161 0.941840 0.583334
O O1 0.877344 0.105015 0.771263
O O2 0.772644 0.165964 0.858263
O O3 0.667787 0.992742 0.786594
O O4 0.812201 0.997817 0.893911
O O5 0.287406 0.993596 0.145531
O O6 0.088989 0.911012 0.083334
O O7 0.252049 0.000000 0.000000
O O8 0.767694 0.502622 0.099473
O O9 0.660850 0.389510 0.988004
O O10 0.881725 0.511850 0.980670
O O11 0.245123 0.490246 0.750000
O O12 0.096986 0.485685 0.850167
O O13 0.000000 0.941656 0.666667
#
# Coordination Sequence:
#
# PCOD9583266 Si02
#       6
#    12  12  12  12  12   6
#     4  10  22  39  57  81 121 175 211 252 321 398
#     4  11  20  30  50  85 122 154 199 256 315 379
#     4   9  21  41  59  89 125 158 211 259 333 406
#     4  10  21  38  66  93 121 159 207 274 333 401
#     4  10  20  37  64  88 120 163 204 265 334 392
#     4  12  26  38  60  86 130 184 226 276 322 396
#
# _framework density 21.336801999999999
#
# number of rings (size 3 to 8) (size 9 to 14) (size 15 to 20)
#    0.000    1.818    1.818    2.727    6.364    0.000 
#    6.545    0.000   12.000    0.000    0.000    0.000 
#    0.000    0.000    0.000    0.000    0.000    0.000 
#
# Total GULP energy -368000.583669 kJ/mol
# GULP energy per Si atom -5575.766419 kJ/mol
# Density = 2.128824 g / cm^3
# Si number density = 21.336802 Si / 1000 Ang^3
#
#
#
# Elastic Constant Matrix: (Units=GPa)
#
#
# Indices 1 2 3 4 5 6 
#
# 1 70.9719 22.8101 30.5274 0.0000 0.0000 0.0000
# 2 22.8101 70.9719 30.5274 0.0000 0.0000 0.0000
# 3 30.5274 30.5274 99.9576 0.0000 0.0000 0.0000
# 4 0.0000 0.0000 0.0000 24.8031 0.0000 0.0000
# 5 0.0000 0.0000 0.0000 0.0000 24.8031 0.0000
# 6 0.0000 0.0000 0.0000 0.0000 0.0000 24.0809
#
#
#
# Elastic Compliance Matrix: (Units=1/GPa)
#
#
# Indices 1 2 3 4 5 6 
#
# 1 0.017036 -0.003727 -0.004065 0.000000 0.000000 0.000000
# 2 -0.003727 0.017036 -0.004065 0.000000 0.000000 0.000000
# 3 -0.004065 -0.004065 0.012487 0.000000 0.000000 0.000000
# 4 0.000000 0.000000 0.000000 0.040318 0.000000 0.000000
# 5 0.000000 0.000000 0.000000 0.000000 0.040318 0.000000
# 6 0.000000 0.000000 0.000000 0.000000 0.000000 0.041527
#
#
# Mechanical properties :
#
#
# Convention : Reuss Voigt Hill
#
# Bulk Modulus (GPa) = 43.76995 45.51459 44.64227
# Shear Modulus (GPa) = 24.99379 25.27320 25.13350
#
# Velocity S-wave (km/s) = 3.42628 3.44537 3.43584
# Velocity P-wave (km/s) = 6.01755 6.09961 6.05872
#
# Compressibility (1/GPa) = 0.02284672
#
# Stress axis : x y z
#
# Youngs Moduli (GPa) = 58.69822 58.69822 80.08337
#
# Poissons Ratio (x) = 0.21877 0.32551
# Poissons Ratio (y) = 0.21877 0.32551
# Poissons Ratio (z) = 0.23859 0.23859
#
# Static dielectric constant tensor:
#      x y z
#    x 1.815090 0.000000 0.000000 
#    y 0.000000 1.815090 0.000000 
#    z 0.000000 0.000000 1.795020 
# 
# From -- ./inp_files/6751.got.cif
#   From: 2010.05.17/outbox.cif.g08.bks.cpg/sg179_4_cif.got.tgz:6751.got - 2010.05.20 11:37:33.
