data_PCOD9583949
_publ_section_title
;
Structure prediction by ZEFSAII (Michael W. Deem and Ramdas Pophale) SiO2 
 PCOD9583949
Probable space group: P 62 2 2
;
_chemical_formula_sum "Si O2"
_cell_formula_units_Z 48
_cell_length_a 14.391139
_cell_length_b 14.391139
_cell_length_c 13.031886
_cell_angle_alpha 90.000000
_cell_angle_beta 90.000000
_cell_angle_gamma 120.000000
_cell_volume 2337.374167
_symmetry_space_group_name_H-M "P 62 2 2"
_symmetry_group_IT_number 180
_symmetry_cell_setting 'hexagonal'
loop_
_space_group_symop_operation_xyz
x,y,z
x-y,x,1/3+z
-y,x-y,2/3+z
-x,-y,z
-x+y,-x,1/3+z
y,-x+y,2/3+z
x-y,-y,-z
-x,-x+y,1/3-z
y,x,2/3-z
-y,-x,2/3-z
-x+y,y,-z
x,x-y,1/3-z
loop_
_atom_site_type_symbol
_atom_site_label
_atom_site_fract_x
_atom_site_fract_y
_atom_site_fract_z
Si Si1 0.114296 0.959448 0.214794
Si Si2 0.421947 0.050294 0.394290
Si Si3 0.743050 0.304485 0.571154
Si Si4 0.615802 0.884006 0.756113
O O1 0.077264 0.922737 0.333334
O O2 0.185244 0.906986 0.183830
O O3 0.000000 0.896269 0.166667
O O4 0.159479 0.079740 0.166667
O O5 0.489631 0.178625 0.396460
O O6 0.500000 0.000000 0.388125
O O7 0.357361 0.000000 0.500000
O O8 0.342567 0.996158 0.300492
O O9 0.655766 0.311532 0.500000
O O10 0.767545 0.383773 0.666667
O O11 0.842329 0.326682 0.498237
O O12 0.588781 0.794391 0.666667
#
# Coordination Sequence:
#
# PCOD9583949 Si02
#       4
#    12  12  12  12
#     4  10  22  40  67  97 138 173 219 274 339 404
#     4  11  20  39  68  99 128 173 233 286 328 406
#     4  12  24  42  71 102 143 182 231 295 354 405
#     4  11  23  38  70 105 136 171 238 284 342 416
#
# _framework density 20.535864
#
# number of rings (size 3 to 8) (size 9 to 14) (size 15 to 20)
#    0.000    1.000    5.000    3.750    7.000    0.000 
#    0.000    3.750    0.000    3.000    0.000    0.000 
#    0.000    0.000    0.000    0.000    0.000    0.000 
#
# Total GULP energy -267676.041475 kJ/mol
# GULP energy per Si atom -5576.584197 kJ/mol
# Density = 2.048912 g / cm^3
# Si number density = 20.535864 Si / 1000 Ang^3
#
#
#
# Elastic Constant Matrix: (Units=GPa)
#
#
# Indices 1 2 3 4 5 6 
#
# 1 50.3675 26.9761 31.9652 0.0000 0.0000 0.0000
# 2 26.9761 50.3675 31.9652 0.0000 0.0000 0.0000
# 3 31.9652 31.9652 64.0884 0.0000 0.0000 0.0000
# 4 0.0000 0.0000 0.0000 94.6797 0.0000 0.0000
# 5 0.0000 0.0000 0.0000 0.0000 94.6797 0.0000
# 6 0.0000 0.0000 0.0000 0.0000 0.0000 11.6957
#
#
#
# Elastic Compliance Matrix: (Units=1/GPa)
#
#
# Indices 1 2 3 4 5 6 
#
# 1 0.032375 -0.010376 -0.010972 0.000000 0.000000 0.000000
# 2 -0.010376 0.032375 -0.010972 0.000000 0.000000 0.000000
# 3 -0.010972 -0.010972 0.026549 0.000000 0.000000 0.000000
# 4 0.000000 0.000000 0.000000 0.010562 0.000000 0.000000
# 5 0.000000 0.000000 0.000000 0.000000 0.010562 0.000000
# 6 0.000000 0.000000 0.000000 0.000000 0.000000 0.085502
#
#
# Mechanical properties :
#
#
# Convention : Reuss Voigt Hill
#
# Bulk Modulus (GPa) = 37.51342 38.51512 38.01427
# Shear Modulus (GPa) = 18.41957 45.13881 31.77919
#
# Velocity S-wave (km/s) = 2.99816 4.69342 3.93809
# Velocity P-wave (km/s) = 5.50383 6.94022 6.26334
#
# Compressibility (1/GPa) = 0.02665712
#
# Stress axis : x y z
#
# Youngs Moduli (GPa) = 30.88825 30.88825 37.66675
#
# Poissons Ratio (x) = 0.32050 0.41329
# Poissons Ratio (y) = 0.32050 0.41329
# Poissons Ratio (z) = 0.33891 0.33891
#
# Static dielectric constant tensor:
#      x y z
#    x -5.437540 0.000000 0.000000 
#    y 0.000000 -5.437540 0.000000 
#    z 0.000000 0.000000 1.722960 
# 
# From -- ./inp_files/4362.got.cif
#   From: 2010.05.17/outbox.cif.g08.bks.cpg/sg180_3_cif.got.tgz:4362.got - 2010.05.20 11:43:55.
