data_PCOD9583172
_publ_section_title
;
Structure prediction by ZEFSAII (Michael W. Deem and Ramdas Pophale) SiO2 
 PCOD9583172
Probable space group: P 65 2 2
;
_chemical_formula_sum "Si O2"
_cell_formula_units_Z 42
_cell_length_a 21.989955
_cell_length_b 21.989955
_cell_length_c 5.427648
_cell_angle_alpha 90.000000
_cell_angle_beta 90.000000
_cell_angle_gamma 120.000000
_cell_volume 2272.955784
_symmetry_space_group_name_H-M "P 65 2 2"
_symmetry_group_IT_number 179
_symmetry_cell_setting 'hexagonal'
loop_
_space_group_symop_operation_xyz
x,y,z
x-y,x,5/6+z
-y,x-y,2/3+z
-x,-y,1/2+z
-x+y,-x,1/3+z
y,-x+y,1/6+z
x-y,-y,-z
-x,-x+y,1/3-z
y,x,2/3-z
-y,-x,1/6-z
-x+y,y,1/2-z
x,x-y,5/6-z
loop_
_atom_site_type_symbol
_atom_site_label
_atom_site_fract_x
_atom_site_fract_y
_atom_site_fract_z
Si Si1 0.920497 0.079504 0.583334
Si Si2 0.522079 0.044157 0.750000
Si Si3 0.120882 0.241765 0.250000
Si Si4 0.082435 0.405907 0.899554
Si Si5 0.275542 0.920417 0.730508
O O1 0.916978 0.118212 0.334691
O O2 0.000000 0.112707 0.666667
O O3 0.604740 0.083333 0.698388
O O4 0.488198 0.000000 0.500000
O O5 0.086195 0.287801 0.335955
O O6 0.112344 0.387423 0.660753
O O7 0.000885 0.340881 0.917502
O O8 0.114039 0.405109 0.162922
#
# Coordination Sequence:
#
# PCOD9583172 Si02
#       5
#     6   6   6  12  12
#     4  12  30  49  68  82  98 132 184 277 322 397
#     4  12  16  30  48  84 104 160 171 205 242 301
#     4  12  26  41  66  86 108 142 193 228 314 386
#     4  10  19  31  54  76 119 138 187 213 253 314
#     4  10  20  33  50  79 108 144 169 231 257 335
#
# _framework density 18.478141000000001
#
# number of rings (size 3 to 8) (size 9 to 14) (size 15 to 20)
#    0.000    1.143    5.714    2.571   12.000    1.143 
#    0.000    0.000    0.000    0.000    0.000    0.000 
#    0.000    0.000    0.000   25.714    0.000    0.000 
#
# Total GULP energy -234160.873462 kJ/mol
# GULP energy per Si atom -5575.258892 kJ/mol
# Density = 1.843608 g / cm^3
# Si number density = 18.478141 Si / 1000 Ang^3
#
#
#
# Elastic Constant Matrix: (Units=GPa)
#
#
# Indices 1 2 3 4 5 6 
#
# 1 73.4066 43.1414 40.7987 0.0000 0.0000 0.0000
# 2 43.1414 73.4066 40.7987 0.0000 0.0000 0.0000
# 3 40.7987 40.7987 210.7474 0.0000 0.0000 0.0000
# 4 0.0000 0.0000 0.0000 28.1363 0.0000 0.0000
# 5 0.0000 0.0000 0.0000 0.0000 28.1363 0.0000
# 6 0.0000 0.0000 0.0000 0.0000 0.0000 15.1326
#
#
#
# Elastic Compliance Matrix: (Units=1/GPa)
#
#
# Indices 1 2 3 4 5 6 
#
# 1 0.021483 -0.011558 -0.001921 0.000000 0.000000 0.000000
# 2 -0.011558 0.021483 -0.001921 0.000000 0.000000 0.000000
# 3 -0.001921 -0.001921 0.005489 0.000000 0.000000 0.000000
# 4 0.000000 0.000000 0.000000 0.035541 0.000000 0.000000
# 5 0.000000 0.000000 0.000000 0.000000 0.035541 0.000000
# 6 0.000000 0.000000 0.000000 0.000000 0.000000 0.066082
#
#
# Mechanical properties :
#
#
# Convention : Reuss Voigt Hill
#
# Bulk Modulus (GPa) = 56.64459 67.44868 62.04663
# Shear Modulus (GPa) = 22.49143 29.80251 26.14697
#
# Velocity S-wave (km/s) = 3.49261 4.02039 3.76576
# Velocity P-wave (km/s) = 6.85463 7.62447 7.24977
#
# Compressibility (1/GPa) = 0.01765394
#
# Stress axis : x y z
#
# Youngs Moduli (GPa) = 46.54773 46.54773 182.18351
#
# Poissons Ratio (x) = 0.53799 0.35006
# Poissons Ratio (y) = 0.53799 0.35006
# Poissons Ratio (z) = 0.08944 0.08944
#
# Static dielectric constant tensor:
#      x y z
#    x 1.685240 0.000000 0.000000 
#    y 0.000000 1.685240 0.000000 
#    z 0.000000 0.000000 1.752190 
# 
# From -- ./inp_files/849.got.cif
#   From: 2010.05.17/outbox.cif.g08.bks.cpg/sg179_1_cif.got.tgz:849.got - 2010.05.20 11:37:33.
