data_PCOD9583608
_publ_section_title
;
Structure prediction by ZEFSAII (Michael W. Deem and Ramdas Pophale) SiO2 
 PCOD9583608
Probable space group: P 62 2 2
;
_chemical_formula_sum "Si O2"
_cell_formula_units_Z 75
_cell_length_a 31.770694
_cell_length_b 31.770694
_cell_length_c 5.533158
_cell_angle_alpha 90.000000
_cell_angle_beta 90.000000
_cell_angle_gamma 120.000000
_cell_volume 4836.788606
_symmetry_space_group_name_H-M "P 62 2 2"
_symmetry_group_IT_number 180
_symmetry_cell_setting 'hexagonal'
loop_
_space_group_symop_operation_xyz
x,y,z
x-y,x,1/3+z
-y,x-y,2/3+z
-x,-y,z
-x+y,-x,1/3+z
y,-x+y,2/3+z
x-y,-y,-z
-x,-x+y,1/3-z
y,x,2/3-z
-y,-x,2/3-z
-x+y,y,-z
x,x-y,1/3-z
loop_
_atom_site_type_symbol
_atom_site_label
_atom_site_fract_x
_atom_site_fract_y
_atom_site_fract_z
Si Si1 0.390420 0.182962 0.419103
Si Si2 0.000000 0.500000 0.166667
Si Si3 0.916914 0.612768 0.255826
Si Si4 0.228930 0.500122 0.752427
Si Si5 0.502002 0.630918 0.456544
Si Si6 0.947664 0.617216 0.748344
Si Si7 0.490569 0.402717 0.964081
O O1 0.364135 0.182068 0.666667
O O2 0.401456 0.138948 0.434513
O O3 0.441625 0.233952 0.417665
O O4 0.365999 0.183000 0.166667
O O5 0.036377 0.488155 0.311300
O O6 0.933810 0.638352 0.516260
O O7 0.920405 0.563964 0.285480
O O8 0.946293 0.638064 0.011900
O O9 0.258738 0.517476 0.500000
O O10 0.183691 0.508776 0.774832
O O11 0.259313 0.518625 0.000000
O O12 0.560728 0.653653 0.446187
O O13 0.486976 0.601649 0.708643
O O14 0.484902 0.602414 0.205115
O O15 0.000000 0.625652 0.666667
#
# Coordination Sequence:
#
# PCOD9583608 Si02
#       7
#    12   3  12  12  12  12  12
#     4  10  16  25  42  60  80  96 114 144 197 255
#     4  12  28  38  52  62  76 126 172 238 208 234
#     4  10  19  30  42  60  78  98 126 172 207 245
#     4  10  16  26  45  68  88 102 120 147 202 264
#     4  10  20  32  48  63  84 106 129 182 216 257
#     4  10  18  26  40  54  73 101 130 154 200 219
#     4  10  22  34  46  58  80 100 156 190 234 220
#
# _framework density 15.506157999999999
#
# number of rings (size 3 to 8) (size 9 to 14) (size 15 to 20)
#    0.000    1.920    0.000   10.080    8.960    1.280 
#    0.000    0.000    0.000    0.000    0.000    0.000 
#    0.000    0.000    0.000    0.000    0.000    0.000 
#
# Total GULP energy -417727.836935 kJ/mol
# GULP energy per Si atom -5569.704492 kJ/mol
# Density = 1.547087 g / cm^3
# Si number density = 15.506158 Si / 1000 Ang^3
#
#
#
# Elastic Constant Matrix: (Units=GPa)
#
#
# Indices 1 2 3 4 5 6 
#
# 1 63.1256 22.2331 31.8992 0.0000 0.0000 0.0000
# 2 22.2331 63.1256 31.8992 0.0000 0.0000 0.0000
# 3 31.8992 31.8992 194.6539 0.0000 0.0000 0.0000
# 4 0.0000 0.0000 0.0000 17.6451 0.0000 0.0000
# 5 0.0000 0.0000 0.0000 0.0000 17.6451 0.0000
# 6 0.0000 0.0000 0.0000 0.0000 0.0000 20.4462
#
#
#
# Elastic Compliance Matrix: (Units=1/GPa)
#
#
# Indices 1 2 3 4 5 6 
#
# 1 0.018902 -0.005552 -0.002188 0.000000 0.000000 0.000000
# 2 -0.005552 0.018902 -0.002188 0.000000 0.000000 0.000000
# 3 -0.002188 -0.002188 0.005854 0.000000 0.000000 0.000000
# 4 0.000000 0.000000 0.000000 0.056673 0.000000 0.000000
# 5 0.000000 0.000000 0.000000 0.000000 0.056673 0.000000
# 6 0.000000 0.000000 0.000000 0.000000 0.000000 0.048909
#
#
# Mechanical properties :
#
#
# Convention : Reuss Voigt Hill
#
# Bulk Modulus (GPa) = 42.00970 54.77425 48.39197
# Shear Modulus (GPa) = 21.39457 26.80551 24.10004
#
# Velocity S-wave (km/s) = 3.71852 4.16228 3.94664
# Velocity P-wave (km/s) = 6.75186 7.64855 7.21415
#
# Compressibility (1/GPa) = 0.02380402
#
# Stress axis : x y z
#
# Youngs Moduli (GPa) = 52.90326 52.90326 170.81195
#
# Poissons Ratio (x) = 0.29372 0.37371
# Poissons Ratio (y) = 0.29372 0.37371
# Poissons Ratio (z) = 0.11574 0.11574
#
# Static dielectric constant tensor:
#      x y z
#    x 1.511480 0.000000 0.000000 
#    y 0.000000 1.511480 0.000000 
#    z 0.000000 0.000000 1.669510 
# 
# From -- ./inp_files/1687.got.cif
#   From: 2010.05.17/outbox.cif.g08.bks.cpg/sg180_1_cif.got.tgz:1687.got - 2010.05.20 11:43:55.
