data_PCOD9583476
_publ_section_title
;
Structure prediction by ZEFSAII (Michael W. Deem and Ramdas Pophale) SiO2 
 PCOD9583476
Probable space group: P 65 2 2
;
_chemical_formula_sum "Si O2"
_cell_formula_units_Z 42
_cell_length_a 11.098324
_cell_length_b 11.098324
_cell_length_c 17.763025
_cell_angle_alpha 90.000000
_cell_angle_beta 90.000000
_cell_angle_gamma 120.000000
_cell_volume 1894.795555
_symmetry_space_group_name_H-M "P 65 2 2"
_symmetry_group_IT_number 179
_symmetry_cell_setting 'hexagonal'
loop_
_space_group_symop_operation_xyz
x,y,z
x-y,x,5/6+z
-y,x-y,2/3+z
-x,-y,1/2+z
-x+y,-x,1/3+z
y,-x+y,1/6+z
x-y,-y,-z
-x,-x+y,1/3-z
y,x,2/3-z
-y,-x,1/6-z
-x+y,y,1/2-z
x,x-y,5/6-z
loop_
_atom_site_type_symbol
_atom_site_label
_atom_site_fract_x
_atom_site_fract_y
_atom_site_fract_z
Si Si1 0.255773 0.487320 0.397206
Si Si2 0.290192 0.021625 0.872763
Si Si3 0.052668 0.731808 0.870314
Si Si4 0.532509 0.532509 0.333334
O O1 0.238759 0.619380 0.416667
O O2 0.293573 0.434976 0.474557
O O3 0.385249 0.522535 0.344866
O O4 0.112925 0.364305 0.361102
O O5 0.295842 0.147921 0.916667
O O6 0.361904 0.066795 0.791650
O O7 0.129962 0.899881 0.864227
O O8 0.372132 0.972728 0.926851
#
# Coordination Sequence:
#
# PCOD9583476 Si02
#       4
#    12  12  12   6
#     4  11  28  48  73 108 149 203 245 315 376 465
#     4  11  21  44  78 109 140 190 249 310 371 468
#     4  10  25  46  69 109 145 188 245 302 384 433
#     4  12  26  44  68 110 140 192 256 302 384 452
#
# _framework density 22.165980999999999
#
# number of rings (size 3 to 8) (size 9 to 14) (size 15 to 20)
#    0.000    1.143    2.857    0.857    8.000    1.143 
#   15.429    0.000    0.000    0.000    0.000    0.000 
#    0.000    0.000    0.000    0.000    0.000    0.000 
#
# Total GULP energy -234625.376467 kJ/mol
# GULP energy per Si atom -5586.318487 kJ/mol
# Density = 2.211553 g / cm^3
# Si number density = 22.165981 Si / 1000 Ang^3
#
#
#
# Elastic Constant Matrix: (Units=GPa)
#
#
# Indices 1 2 3 4 5 6 
#
# 1 127.4708 81.4098 48.3457 0.0000 0.0000 0.0000
# 2 81.4098 127.4708 48.3457 0.0000 0.0000 0.0000
# 3 48.3457 48.3457 107.7524 0.0000 0.0000 0.0000
# 4 0.0000 0.0000 0.0000 33.1345 0.0000 0.0000
# 5 0.0000 0.0000 0.0000 0.0000 33.1345 0.0000
# 6 0.0000 0.0000 0.0000 0.0000 0.0000 23.0305
#
#
#
# Elastic Compliance Matrix: (Units=1/GPa)
#
#
# Indices 1 2 3 4 5 6 
#
# 1 0.013876 -0.007834 -0.002711 0.000000 0.000000 0.000000
# 2 -0.007834 0.013876 -0.002711 0.000000 0.000000 0.000000
# 3 -0.002711 -0.002711 0.011713 0.000000 0.000000 0.000000
# 4 0.000000 0.000000 0.000000 0.030180 0.000000 0.000000
# 5 0.000000 0.000000 0.000000 0.000000 0.030180 0.000000
# 6 0.000000 0.000000 0.000000 0.000000 0.000000 0.043421
#
#
# Mechanical properties :
#
#
# Convention : Reuss Voigt Hill
#
# Bulk Modulus (GPa) = 77.19727 79.87736 78.53731
# Shear Modulus (GPa) = 28.72295 30.16610 29.44452
#
# Velocity S-wave (km/s) = 3.60364 3.69307 3.64863
# Velocity P-wave (km/s) = 7.22617 7.36880 7.29783
#
# Compressibility (1/GPa) = 0.01295383
#
# Stress axis : x y z
#
# Youngs Moduli (GPa) = 72.06498 72.06498 85.37303
#
# Poissons Ratio (x) = 0.56456 0.23145
# Poissons Ratio (y) = 0.56456 0.23145
# Poissons Ratio (z) = 0.19537 0.19537
#
# Static dielectric constant tensor:
#      x y z
#    x 1.823300 0.000000 0.000000 
#    y 0.000000 1.823300 0.000000 
#    z 0.000000 0.000000 1.837430 
# 
# From -- ./inp_files/6526.got.cif
#   From: 2010.05.17/outbox.cif.g08.bks.cpg/sg179_4_cif.got.tgz:6526.got - 2010.05.20 11:37:33.
