data_PCOD9583756
_publ_section_title
;
Structure prediction by ZEFSAII (Michael W. Deem and Ramdas Pophale) SiO2 
 PCOD9583756
Probable space group: P 62 2 2
;
_chemical_formula_sum "Si O2"
_cell_formula_units_Z 60
_cell_length_a 19.517634
_cell_length_b 19.517634
_cell_length_c 10.045506
_cell_angle_alpha 90.000000
_cell_angle_beta 90.000000
_cell_angle_gamma 120.000000
_cell_volume 3314.032694
_symmetry_space_group_name_H-M "P 62 2 2"
_symmetry_group_IT_number 180
_symmetry_cell_setting 'hexagonal'
loop_
_space_group_symop_operation_xyz
x,y,z
x-y,x,1/3+z
-y,x-y,2/3+z
-x,-y,z
-x+y,-x,1/3+z
y,-x+y,2/3+z
x-y,-y,-z
-x,-x+y,1/3-z
y,x,2/3-z
-y,-x,2/3-z
-x+y,y,-z
x,x-y,1/3-z
loop_
_atom_site_type_symbol
_atom_site_label
_atom_site_fract_x
_atom_site_fract_y
_atom_site_fract_z
Si Si1 0.170641 0.717665 0.950805
Si Si2 0.098638 0.270964 0.858498
Si Si3 0.450708 0.544370 0.172669
Si Si4 0.080465 0.272409 0.385306
Si Si5 0.811898 0.264707 0.473988
O O1 0.225630 0.774371 0.833334
O O2 0.134352 0.628819 0.900075
O O3 0.100871 0.738541 0.977622
O O4 0.226679 0.743768 0.080483
O O5 0.136675 0.241090 0.745983
O O6 0.127030 0.361568 0.819584
O O7 0.005829 0.223893 0.887101
O O8 0.136652 0.273304 0.000000
O O9 0.500000 0.500000 0.141919
O O10 0.449384 0.550617 0.333334
O O11 0.358881 0.498017 0.132460
O O12 0.139491 0.278981 0.500000
O O13 0.772883 0.227118 0.333334
#
# Coordination Sequence:
#
# PCOD9583756 Si02
#       5
#    12  12  12  12  12
#     4  10  20  38  57  85 118 149 198 244 293 352
#     4  10  20  36  58  82 114 148 187 237 287 344
#     4  11  22  38  62  88 118 159 207 254 303 357
#     4  10  20  34  58  85 112 145 188 238 285 343
#     4  10  22  40  58  86 119 154 200 244 301 356
#
# _framework density 18.104831000000001
#
# number of rings (size 3 to 8) (size 9 to 14) (size 15 to 20)
#    0.000    1.800    2.000    2.400    0.000    0.800 
#    3.600    4.000    0.000    6.000    0.000    0.000 
#    0.000    0.000    0.000    0.000    0.000    0.000 
#
# Total GULP energy -334643.692457 kJ/mol
# GULP energy per Si atom -5577.394874 kJ/mol
# Density = 1.806362 g / cm^3
# Si number density = 18.104831 Si / 1000 Ang^3
#
#
#
# Elastic Constant Matrix: (Units=GPa)
#
#
# Indices 1 2 3 4 5 6 
#
# 1 184.6853 9.3060 35.3117 0.0000 0.0000 0.0000
# 2 9.3060 184.6853 35.3117 0.0000 0.0000 0.0000
# 3 35.3117 35.3117 105.9566 0.0000 0.0000 0.0000
# 4 0.0000 0.0000 0.0000 53.4447 0.0000 0.0000
# 5 0.0000 0.0000 0.0000 0.0000 53.4447 0.0000
# 6 0.0000 0.0000 0.0000 0.0000 0.0000 87.6896
#
#
#
# Elastic Compliance Matrix: (Units=1/GPa)
#
#
# Indices 1 2 3 4 5 6 
#
# 1 0.005784 0.000082 -0.001955 0.000000 0.000000 0.000000
# 2 0.000082 0.005784 -0.001955 0.000000 0.000000 0.000000
# 3 -0.001955 -0.001955 0.010741 0.000000 0.000000 0.000000
# 4 0.000000 0.000000 0.000000 0.018711 0.000000 0.000000
# 5 0.000000 0.000000 0.000000 0.000000 0.018711 0.000000
# 6 0.000000 0.000000 0.000000 0.000000 0.000000 0.011404
#
#
# Mechanical properties :
#
#
# Convention : Reuss Voigt Hill
#
# Bulk Modulus (GPa) = 68.24220 70.57622 69.40921
# Shear Modulus (GPa) = 59.75450 65.27568 62.51509
#
# Velocity S-wave (km/s) = 5.75121 6.01104 5.88256
# Velocity P-wave (km/s) = 9.04856 9.34042 9.19565
#
# Compressibility (1/GPa) = 0.01465369
#
# Stress axis : x y z
#
# Youngs Moduli (GPa) = 172.88211 172.88211 93.10123
#
# Poissons Ratio (x) = -0.01424 0.18203
# Poissons Ratio (y) = -0.01424 0.18203
# Poissons Ratio (z) = 0.33801 0.33801
#
# Static dielectric constant tensor:
#      x y z
#    x 1.482070 0.000000 0.000000 
#    y 0.000000 1.482070 0.000000 
#    z 0.000000 0.000000 1.615900 
# 
# From -- ./inp_files/4807.got.cif
#   From: 2010.05.17/outbox.cif.g08.bks.cpg/sg180_3_cif.got.tgz:4807.got - 2010.05.20 11:43:55.
