data_PCOD9583147
_publ_section_title
;
Structure prediction by ZEFSAII (Michael W. Deem and Ramdas Pophale) SiO2 
 PCOD9583147
Probable space group: P 65 2 2
;
_chemical_formula_sum "Si O2"
_cell_formula_units_Z 60
_cell_length_a 14.552481
_cell_length_b 14.552481
_cell_length_c 16.066289
_cell_angle_alpha 90.000000
_cell_angle_beta 90.000000
_cell_angle_gamma 120.000000
_cell_volume 2946.593920
_symmetry_space_group_name_H-M "P 65 2 2"
_symmetry_group_IT_number 179
_symmetry_cell_setting 'hexagonal'
loop_
_space_group_symop_operation_xyz
x,y,z
x-y,x,5/6+z
-y,x-y,2/3+z
-x,-y,1/2+z
-x+y,-x,1/3+z
y,-x+y,1/6+z
x-y,-y,-z
-x,-x+y,1/3-z
y,x,2/3-z
-y,-x,1/6-z
-x+y,y,1/2-z
x,x-y,5/6-z
loop_
_atom_site_type_symbol
_atom_site_label
_atom_site_fract_x
_atom_site_fract_y
_atom_site_fract_z
Si Si1 0.402907 0.887280 0.452871
Si Si2 0.878723 0.269784 0.647769
Si Si3 0.233519 0.837847 0.311143
Si Si4 0.089671 0.089671 0.333334
Si Si5 0.220777 0.296313 0.126043
Si Si6 0.231540 0.768461 0.583334
O O1 0.509083 0.882260 0.441461
O O2 0.337115 0.865316 0.367040
O O3 0.324146 0.797703 0.517759
O O4 0.438200 0.000000 0.500000
O O5 0.825649 0.174352 0.583334
O O6 0.804725 0.235927 0.730139
O O7 0.000000 0.304504 0.666667
O O8 0.136423 0.785804 0.375547
O O9 0.249819 0.951563 0.285283
O O10 0.021894 0.043787 0.250000
O O11 0.203469 0.100417 0.316636
O O12 0.258435 0.385131 0.197351
#
# Coordination Sequence:
#
# PCOD9583147 Si02
#       6
#    12  12  12   6  12   6
#     4  10  22  40  66  99 132 169 225 285 338 404
#     4  11  26  49  69  96 138 183 224 282 352 434
#     4  11  22  39  66  96 128 181 223 279 350 409
#     4  12  22  36  56 100 144 180 232 284 344 408
#     4  11  19  34  62  96 134 176 220 278 338 405
#     4  10  18  34  64 100 128 156 218 290 338 382
#
# _framework density 20.362492
#
# number of rings (size 3 to 8) (size 9 to 14) (size 15 to 20)
#    0.000    1.200    5.000    1.200    2.800    2.400 
#    1.800    3.000    0.000    0.000    0.000    0.000 
#    0.000    0.000    0.000    0.000    0.000    0.000 
#
# Total GULP energy -335085.206572 kJ/mol
# GULP energy per Si atom -5584.753443 kJ/mol
# Density = 2.031615 g / cm^3
# Si number density = 20.362492 Si / 1000 Ang^3
#
#
#
# Elastic Constant Matrix: (Units=GPa)
#
#
# Indices 1 2 3 4 5 6 
#
# 1 66.1543 35.0358 32.5442 0.0000 0.0000 0.0000
# 2 35.0358 66.1543 32.5442 0.0000 0.0000 0.0000
# 3 32.5442 32.5442 118.5883 0.0000 0.0000 0.0000
# 4 0.0000 0.0000 0.0000 12.8102 0.0000 0.0000
# 5 0.0000 0.0000 0.0000 0.0000 12.8102 0.0000
# 6 0.0000 0.0000 0.0000 0.0000 0.0000 15.5592
#
#
#
# Elastic Compliance Matrix: (Units=1/GPa)
#
#
# Indices 1 2 3 4 5 6 
#
# 1 0.022068 -0.010067 -0.003293 0.000000 0.000000 0.000000
# 2 -0.010067 0.022068 -0.003293 0.000000 0.000000 0.000000
# 3 -0.003293 -0.003293 0.010240 0.000000 0.000000 0.000000
# 4 0.000000 0.000000 0.000000 0.078063 0.000000 0.000000
# 5 0.000000 0.000000 0.000000 0.000000 0.078063 0.000000
# 6 0.000000 0.000000 0.000000 0.000000 0.000000 0.064270
#
#
# Mechanical properties :
#
#
# Convention : Reuss Voigt Hill
#
# Bulk Modulus (GPa) = 47.46492 50.12727 48.79610
# Shear Modulus (GPa) = 15.86782 18.28743 17.07762
#
# Velocity S-wave (km/s) = 2.79456 3.00007 2.89914
# Velocity P-wave (km/s) = 5.81149 6.05570 5.93485
#
# Compressibility (1/GPa) = 0.02106819
#
# Stress axis : x y z
#
# Youngs Moduli (GPa) = 45.31447 45.31447 97.65489
#
# Poissons Ratio (x) = 0.45619 0.32161
# Poissons Ratio (y) = 0.45619 0.32161
# Poissons Ratio (z) = 0.14924 0.14924
#
# Static dielectric constant tensor:
#      x y z
#    x 1.708260 0.000000 0.000000 
#    y 0.000000 1.708260 0.000000 
#    z 0.000000 0.000000 1.722060 
# 
# From -- ./inp_files/5869.got.cif
#   From: 2010.05.17/outbox.cif.g08.bks.cpg/sg179_3_cif.got.tgz:5869.got - 2010.05.20 11:37:33.
