data_PCOD9583660
_publ_section_title
;
Structure prediction by ZEFSAII (Michael W. Deem and Ramdas Pophale) SiO2 
 PCOD9583660
Probable space group: P 62 2 2
;
_chemical_formula_sum "Si O2"
_cell_formula_units_Z 72
_cell_length_a 15.351070
_cell_length_b 15.351070
_cell_length_c 16.591135
_cell_angle_alpha 90.000000
_cell_angle_beta 90.000000
_cell_angle_gamma 120.000000
_cell_volume 3385.977228
_symmetry_space_group_name_H-M "P 62 2 2"
_symmetry_group_IT_number 180
_symmetry_cell_setting 'hexagonal'
loop_
_space_group_symop_operation_xyz
x,y,z
x-y,x,1/3+z
-y,x-y,2/3+z
-x,-y,z
-x+y,-x,1/3+z
y,-x+y,2/3+z
x-y,-y,-z
-x,-x+y,1/3-z
y,x,2/3-z
-y,-x,2/3-z
-x+y,y,-z
x,x-y,1/3-z
loop_
_atom_site_type_symbol
_atom_site_label
_atom_site_fract_x
_atom_site_fract_y
_atom_site_fract_z
Si Si1 0.370942 0.285055 0.173251
Si Si2 0.611933 0.199053 0.340653
Si Si3 0.603871 0.403071 0.176478
Si Si4 0.619301 0.868098 0.900806
Si Si5 0.620409 0.708109 0.987715
Si Si6 0.873074 0.628190 0.076186
O O1 0.335836 0.167918 0.166667
O O2 0.487213 0.342317 0.201843
O O3 0.305706 0.318811 0.224297
O O4 0.370693 0.317100 0.080016
O O5 0.679255 0.320746 0.333334
O O6 0.607782 0.164370 0.247987
O O7 0.497615 0.144137 0.368972
O O8 0.676432 0.166542 0.395158
O O9 0.637027 0.318514 0.166667
O O10 0.670621 0.500168 0.229873
O O11 0.646574 0.822602 0.976941
O O12 0.640686 0.816107 0.823789
O O13 0.689519 0.682116 0.932822
O O14 0.830083 0.660166 0.000000
#
# Coordination Sequence:
#
# PCOD9583660 Si02
#       6
#    12  12  12  12  12  12
#     4  10  23  42  60  82 116 162 204 257 311 363
#     4  10  18  34  54  82 128 168 196 232 294 372
#     4  10  19  34  57  86 123 161 199 239 300 367
#     4  12  22  36  62  89 121 158 203 254 303 371
#     4  11  23  36  60  91 117 159 205 251 309 368
#     4  11  20  36  57  86 125 160 194 244 304 370
#
# _framework density 21.264171000000001
#
# number of rings (size 3 to 8) (size 9 to 14) (size 15 to 20)
#    0.000    1.333    5.000    2.500    0.000    3.333 
#    0.000    1.667    0.000    8.000    0.000    0.000 
#    0.000    0.000    0.000    0.000    0.000    0.000 
#
# Total GULP energy -402412.420885 kJ/mol
# GULP energy per Si atom -5589.061401 kJ/mol
# Density = 2.121577 g / cm^3
# Si number density = 21.264171 Si / 1000 Ang^3
#
#
#
# Elastic Constant Matrix: (Units=GPa)
#
#
# Indices 1 2 3 4 5 6 
#
# 1 117.2954 66.4732 1.7143 0.0000 0.0000 0.0000
# 2 66.4732 117.2954 1.7143 0.0000 0.0000 0.0000
# 3 1.7143 1.7143 37.8100 0.0000 0.0000 0.0000
# 4 0.0000 0.0000 0.0000 26.5687 0.0000 0.0000
# 5 0.0000 0.0000 0.0000 0.0000 26.5687 0.0000
# 6 0.0000 0.0000 0.0000 0.0000 0.0000 25.4111
#
#
#
# Elastic Compliance Matrix: (Units=1/GPa)
#
#
# Indices 1 2 3 4 5 6 
#
# 1 0.012561 -0.007115 -0.000247 0.000000 0.000000 0.000000
# 2 -0.007115 0.012561 -0.000247 0.000000 0.000000 0.000000
# 3 -0.000247 -0.000247 0.026470 0.000000 0.000000 0.000000
# 4 0.000000 0.000000 0.000000 0.037638 0.000000 0.000000
# 5 0.000000 0.000000 0.000000 0.000000 0.037638 0.000000
# 6 0.000000 0.000000 0.000000 0.000000 0.000000 0.039353
#
#
# Mechanical properties :
#
#
# Convention : Reuss Voigt Hill
#
# Bulk Modulus (GPa) = 27.49131 45.80050 36.64590
# Shear Modulus (GPa) = 25.83106 29.20964 27.52035
#
# Velocity S-wave (km/s) = 3.48914 3.71031 3.60142
# Velocity P-wave (km/s) = 5.40265 6.31987 5.87917
#
# Compressibility (1/GPa) = 0.03637513
#
# Stress axis : x y z
#
# Youngs Moduli (GPa) = 79.60937 79.60937 37.77805
#
# Poissons Ratio (x) = 0.56643 0.00933
# Poissons Ratio (y) = 0.56643 0.00933
# Poissons Ratio (z) = 0.01966 0.01966
#
# Static dielectric constant tensor:
#      x y z
#    x 1.768500 0.000000 0.000000 
#    y 0.000000 1.768500 0.000000 
#    z 0.000000 0.000000 1.852430 
# 
# From -- ./inp_files/7785.got.cif
#   From: 2010.05.17/outbox.cif.g08.bks.cpg/sg180_4_cif.got.tgz:7785.got - 2010.05.20 11:43:55.
