data_PCOD9583697
_publ_section_title
;
Structure prediction by ZEFSAII (Michael W. Deem and Ramdas Pophale) SiO2 
 PCOD9583697
Probable space group: P 62 2 2
;
_chemical_formula_sum "Si O2"
_cell_formula_units_Z 63
_cell_length_a 14.830048
_cell_length_b 14.830048
_cell_length_c 20.154956
_cell_angle_alpha 90.000000
_cell_angle_beta 90.000000
_cell_angle_gamma 120.000000
_cell_volume 3838.818680
_symmetry_space_group_name_H-M "P 62 2 2"
_symmetry_group_IT_number 180
_symmetry_cell_setting 'hexagonal'
loop_
_space_group_symop_operation_xyz
x,y,z
x-y,x,1/3+z
-y,x-y,2/3+z
-x,-y,z
-x+y,-x,1/3+z
y,-x+y,2/3+z
x-y,-y,-z
-x,-x+y,1/3-z
y,x,2/3-z
-y,-x,2/3-z
-x+y,y,-z
x,x-y,1/3-z
loop_
_atom_site_type_symbol
_atom_site_label
_atom_site_fract_x
_atom_site_fract_y
_atom_site_fract_z
Si Si1 0.763928 0.686803 0.891434
Si Si2 0.986444 0.332762 0.967168
Si Si3 0.992617 0.151879 0.893375
Si Si4 0.762907 0.447905 0.106410
Si Si5 0.155399 0.574256 0.963938
Si Si6 0.000000 0.000000 0.333334
O O1 0.695926 0.695926 0.833334
O O2 0.752030 0.572950 0.885774
O O3 0.882165 0.780233 0.881708
O O4 0.717269 0.691723 0.963257
O O5 0.969827 0.242268 0.917034
O O6 0.885519 0.345124 0.969254
O O7 0.071390 0.452620 0.949896
O O8 0.920075 0.079926 0.833334
O O9 0.976495 0.073286 0.953137
O O10 0.785211 0.392606 0.166667
O O11 0.640998 0.399585 0.091920
O O12 0.805791 0.429886 0.037590
#
# Coordination Sequence:
#
# PCOD9583697 Si02
#       6
#    12  12  12  12  12   3
#     4  11  20  35  56  80 113 148 186 234 287 334
#     4  10  19  37  57  77 111 148 188 234 281 338
#     4  12  24  37  55  83 110 150 188 228 277 343
#     4  10  19  33  54  86 113 136 181 239 288 341
#     4   9  19  34  57  82 107 146 186 228 291 346
#     4  12  22  40  56  78 112 146 186 232 272 328
#
# _framework density 16.411297999999999
#
# number of rings (size 3 to 8) (size 9 to 14) (size 15 to 20)
#    0.000    1.524    3.810    2.571    0.000    2.667 
#    0.000    0.000    0.000    0.000    0.000    0.000 
#    0.000    0.000    0.000    0.000    0.000    0.000 
#
# Total GULP energy -350860.868997 kJ/mol
# GULP energy per Si atom -5569.220143 kJ/mol
# Density = 1.637395 g / cm^3
# Si number density = 16.411298 Si / 1000 Ang^3
#
#
#
# Elastic Constant Matrix: (Units=GPa)
#
#
# Indices 1 2 3 4 5 6 
#
# 1 96.9163 44.4851 43.9120 0.0000 0.0000 0.0000
# 2 44.4851 96.9163 43.9120 0.0000 0.0000 0.0000
# 3 43.9120 43.9120 81.7014 0.0000 0.0000 0.0000
# 4 0.0000 0.0000 0.0000 21.6856 0.0000 0.0000
# 5 0.0000 0.0000 0.0000 0.0000 21.6856 0.0000
# 6 0.0000 0.0000 0.0000 0.0000 0.0000 26.2156
#
#
#
# Elastic Compliance Matrix: (Units=1/GPa)
#
#
# Indices 1 2 3 4 5 6 
#
# 1 0.014844 -0.004228 -0.005706 0.000000 0.000000 0.000000
# 2 -0.004228 0.014844 -0.005706 0.000000 0.000000 0.000000
# 3 -0.005706 -0.005706 0.018373 0.000000 0.000000 0.000000
# 4 0.000000 0.000000 0.000000 0.046114 0.000000 0.000000
# 5 0.000000 0.000000 0.000000 0.000000 0.046114 0.000000
# 6 0.000000 0.000000 0.000000 0.000000 0.000000 0.038145
#
#
# Mechanical properties :
#
#
# Convention : Reuss Voigt Hill
#
# Bulk Modulus (GPa) = 59.58805 60.01692 59.80249
# Shear Modulus (GPa) = 23.22262 23.46569 23.34415
#
# Velocity S-wave (km/s) = 3.76578 3.78544 3.77562
# Velocity P-wave (km/s) = 7.43614 7.46699 7.45158
#
# Compressibility (1/GPa) = 0.01678189
#
# Stress axis : x y z
#
# Youngs Moduli (GPa) = 67.36627 67.36627 54.42781
#
# Poissons Ratio (x) = 0.28485 0.31055
# Poissons Ratio (y) = 0.28485 0.31055
# Poissons Ratio (z) = 0.38437 0.38437
#
# Static dielectric constant tensor:
#      x y z
#    x 1.578760 0.000000 0.000000 
#    y 0.000000 1.578760 0.000000 
#    z 0.000000 0.000000 1.534130 
# 
# From -- ./inp_files/7670.got.cif
#   From: 2010.05.17/outbox.cif.g08.bks.cpg/sg180_4_cif.got.tgz:7670.got - 2010.05.20 11:43:55.
