data_PCOD9583210
_publ_section_title
;
Structure prediction by ZEFSAII (Michael W. Deem and Ramdas Pophale) SiO2 
 PCOD9583210
Probable space group: P 65 2 2
;
_chemical_formula_sum "Si O2"
_cell_formula_units_Z 54
_cell_length_a 20.725031
_cell_length_b 20.725031
_cell_length_c 7.662207
_cell_angle_alpha 90.000000
_cell_angle_beta 90.000000
_cell_angle_gamma 120.000000
_cell_volume 2850.197074
_symmetry_space_group_name_H-M "P 65 2 2"
_symmetry_group_IT_number 179
_symmetry_cell_setting 'hexagonal'
loop_
_space_group_symop_operation_xyz
x,y,z
x-y,x,5/6+z
-y,x-y,2/3+z
-x,-y,1/2+z
-x+y,-x,1/3+z
y,-x+y,1/6+z
x-y,-y,-z
-x,-x+y,1/3-z
y,x,2/3-z
-y,-x,1/6-z
-x+y,y,1/2-z
x,x-y,5/6-z
loop_
_atom_site_type_symbol
_atom_site_label
_atom_site_fract_x
_atom_site_fract_y
_atom_site_fract_z
Si Si1 0.590780 0.540034 0.002465
Si Si2 0.740539 0.651464 0.869832
Si Si3 0.889530 0.205456 0.820712
Si Si4 0.152163 0.109058 0.603745
Si Si5 0.356673 0.356673 0.833334
O O1 0.541640 0.458361 0.083334
O O2 0.602817 0.596805 0.160536
O O3 0.549636 0.549636 0.833334
O O4 0.674823 0.572543 0.936679
O O5 0.706760 0.706760 0.833334
O O6 0.762421 0.645466 0.673255
O O7 0.809210 0.680695 0.006806
O O8 0.948939 0.177329 0.831873
O O9 0.926079 0.275153 0.689735
O O10 0.087143 0.126355 0.562966
O O11 0.170490 0.085245 0.416667
#
# Coordination Sequence:
#
# PCOD9583210 Si02
#       5
#    12  12  12  12   6
#     4  11  22  40  63  91 128 157 192 249 320 394
#     4  10  19  37  60  85 125 165 210 263 321 380
#     4  11  21  35  61  88 123 168 217 273 342 391
#     4  10  20  35  55  71 108 174 238 298 351 386
#     4  12  24  36  62 100 126 160 210 266 326 398
#
# _framework density 18.946059000000002
#
# number of rings (size 3 to 8) (size 9 to 14) (size 15 to 20)
#    0.000    1.333    7.778    1.333    0.000    0.889 
#    0.000    6.667    0.000    0.000    0.000    0.000 
#   33.333    0.000    0.000    0.000    0.000    0.000 
#
# Total GULP energy -300864.783769 kJ/mol
# GULP energy per Si atom -5571.570070 kJ/mol
# Density = 1.890294 g / cm^3
# Si number density = 18.946059 Si / 1000 Ang^3
#
#
#
# Elastic Constant Matrix: (Units=GPa)
#
#
# Indices 1 2 3 4 5 6 
#
# 1 84.6107 41.1912 32.6923 0.0000 0.0000 0.0000
# 2 41.1912 84.6107 32.6923 0.0000 0.0000 0.0000
# 3 32.6923 32.6923 95.2811 0.0000 0.0000 0.0000
# 4 0.0000 0.0000 0.0000 24.9968 0.0000 0.0000
# 5 0.0000 0.0000 0.0000 0.0000 24.9968 0.0000
# 6 0.0000 0.0000 0.0000 0.0000 0.0000 21.7097
#
#
#
# Elastic Compliance Matrix: (Units=1/GPa)
#
#
# Indices 1 2 3 4 5 6 
#
# 1 0.016353 -0.006678 -0.003319 0.000000 0.000000 0.000000
# 2 -0.006678 0.016353 -0.003319 0.000000 0.000000 0.000000
# 3 -0.003319 -0.003319 0.012773 0.000000 0.000000 0.000000
# 4 0.000000 0.000000 0.000000 0.040005 0.000000 0.000000
# 5 0.000000 0.000000 0.000000 0.000000 0.040005 0.000000
# 6 0.000000 0.000000 0.000000 0.000000 0.000000 0.046062
#
#
# Mechanical properties :
#
#
# Convention : Reuss Voigt Hill
#
# Bulk Modulus (GPa) = 53.06702 53.07266 53.06984
# Shear Modulus (GPa) = 24.45384 24.86909 24.66146
#
# Velocity S-wave (km/s) = 3.59654 3.62695 3.61178
# Velocity P-wave (km/s) = 6.73180 6.75374 6.74278
#
# Compressibility (1/GPa) = 0.01884410
#
# Stress axis : x y z
#
# Youngs Moduli (GPa) = 61.15205 61.15205 78.28950
#
# Poissons Ratio (x) = 0.40840 0.25987
# Poissons Ratio (y) = 0.40840 0.25987
# Poissons Ratio (z) = 0.20299 0.20299
#
# Static dielectric constant tensor:
#      x y z
#    x 1.697480 0.000000 0.000000 
#    y 0.000000 1.697480 0.000000 
#    z 0.000000 0.000000 1.752740 
# 
# From -- ./inp_files/3124.got.cif
#   From: 2010.05.17/outbox.cif.g08.bks.cpg/sg179_2_cif.got.tgz:3124.got - 2010.05.20 11:37:33.
