data_PCOD9583800
_publ_section_title
;
Structure prediction by ZEFSAII (Michael W. Deem and Ramdas Pophale) SiO2 
 PCOD9583800
Probable space group: P 62 2 2
;
_chemical_formula_sum "Si O2"
_cell_formula_units_Z 36
_cell_length_a 8.870963
_cell_length_b 8.870963
_cell_length_c 25.639560
_cell_angle_alpha 90.000000
_cell_angle_beta 90.000000
_cell_angle_gamma 120.000000
_cell_volume 1747.361391
_symmetry_space_group_name_H-M "P 62 2 2"
_symmetry_group_IT_number 180
_symmetry_cell_setting 'hexagonal'
loop_
_space_group_symop_operation_xyz
x,y,z
x-y,x,1/3+z
-y,x-y,2/3+z
-x,-y,z
-x+y,-x,1/3+z
y,-x+y,2/3+z
x-y,-y,-z
-x,-x+y,1/3-z
y,x,2/3-z
-y,-x,2/3-z
-x+y,y,-z
x,x-y,1/3-z
loop_
_atom_site_type_symbol
_atom_site_label
_atom_site_fract_x
_atom_site_fract_y
_atom_site_fract_z
Si Si1 0.011284 0.186653 0.265495
Si Si2 0.952841 0.303705 0.954945
Si Si3 0.649380 0.953853 0.123273
O O1 0.053479 0.288514 0.319802
O O2 0.163654 0.286523 0.223737
O O3 0.000000 0.000000 0.272625
O O4 0.807360 0.113169 0.256189
O O5 0.771675 0.170811 0.927552
O O6 0.000000 0.500000 0.957079
O O7 0.669451 0.834726 0.166667
O O8 0.500000 0.000000 0.135313
#
# Coordination Sequence:
#
# PCOD9583800 Si02
#       3
#    12  12  12
#     4   9  20  39  61  85 117 163 201 231 299 377
#     4  10  20  37  62  92 122 151 197 252 299 362
#     4  11  23  39  58  84 117 158 205 250 304 366
#
# _framework density 20.602495000000001
#
# number of rings (size 3 to 8) (size 9 to 14) (size 15 to 20)
#    0.000    2.000    0.000    8.000    0.000   14.000 
#    0.000    0.000    0.000    2.000    0.000    0.000 
#    0.000    0.000    0.000    0.000    0.000    0.000 
#
# Total GULP energy -200646.731248 kJ/mol
# GULP energy per Si atom -5573.520312 kJ/mol
# Density = 2.055560 g / cm^3
# Si number density = 20.602495 Si / 1000 Ang^3
#
#
#
# Elastic Constant Matrix: (Units=GPa)
#
#
# Indices 1 2 3 4 5 6 
#
# 1 100.0610 51.5875 38.9931 0.0000 0.0000 0.0000
# 2 51.5875 100.0610 38.9931 0.0000 0.0000 0.0000
# 3 38.9931 38.9931 63.1046 0.0000 0.0000 0.0000
# 4 0.0000 0.0000 0.0000 14.8574 0.0000 0.0000
# 5 0.0000 0.0000 0.0000 0.0000 14.8574 0.0000
# 6 0.0000 0.0000 0.0000 0.0000 0.0000 24.2367
#
#
#
# Elastic Compliance Matrix: (Units=1/GPa)
#
#
# Indices 1 2 3 4 5 6 
#
# 1 0.015148 -0.005482 -0.005972 0.000000 0.000000 0.000000
# 2 -0.005482 0.015148 -0.005972 0.000000 0.000000 0.000000
# 3 -0.005972 -0.005972 0.023228 0.000000 0.000000 0.000000
# 4 0.000000 0.000000 0.000000 0.067306 0.000000 0.000000
# 5 0.000000 0.000000 0.000000 0.000000 0.067306 0.000000
# 6 0.000000 0.000000 0.000000 0.000000 0.000000 0.041260
#
#
# Mechanical properties :
#
#
# Convention : Reuss Voigt Hill
#
# Bulk Modulus (GPa) = 53.56508 58.04156 55.80332
# Shear Modulus (GPa) = 18.48614 19.70050 19.09332
#
# Velocity S-wave (km/s) = 2.99871 3.09563 3.04756
# Velocity P-wave (km/s) = 6.16810 6.40395 6.28713
#
# Compressibility (1/GPa) = 0.01866888
#
# Stress axis : x y z
#
# Youngs Moduli (GPa) = 66.01656 66.01656 43.05214
#
# Poissons Ratio (x) = 0.36191 0.25713
# Poissons Ratio (y) = 0.36191 0.25713
# Poissons Ratio (z) = 0.39428 0.39428
#
# Static dielectric constant tensor:
#      x y z
#    x 1.785690 0.000000 0.000000 
#    y 0.000000 1.785690 0.000000 
#    z 0.000000 0.000000 1.789020 
# 
# From -- ./inp_files/10717.got.cif
#   From: 2010.05.17/outbox.cif.g08.bks.cpg/sg180_6_cif.got.tgz:10717.got - 2010.05.20 11:43:55.
