data_PCOD9583946
_publ_section_title
;
Structure prediction by ZEFSAII (Michael W. Deem and Ramdas Pophale) SiO2 
 PCOD9583946
Probable space group: P 62 2 2
;
_chemical_formula_sum "Si O2"
_cell_formula_units_Z 42
_cell_length_a 9.215452
_cell_length_b 9.215452
_cell_length_c 28.614678
_cell_angle_alpha 90.000000
_cell_angle_beta 90.000000
_cell_angle_gamma 120.000000
_cell_volume 2104.518644
_symmetry_space_group_name_H-M "P 62 2 2"
_symmetry_group_IT_number 180
_symmetry_cell_setting 'hexagonal'
loop_
_space_group_symop_operation_xyz
x,y,z
x-y,x,1/3+z
-y,x-y,2/3+z
-x,-y,z
-x+y,-x,1/3+z
y,-x+y,2/3+z
x-y,-y,-z
-x,-x+y,1/3-z
y,x,2/3-z
-y,-x,2/3-z
-x+y,y,-z
x,x-y,1/3-z
loop_
_atom_site_type_symbol
_atom_site_label
_atom_site_fract_x
_atom_site_fract_y
_atom_site_fract_z
Si Si1 0.245278 0.912308 0.786956
Si Si2 0.000000 0.500000 0.291399
Si Si3 0.079900 0.253999 0.348950
Si Si4 0.442579 0.718190 0.786357
O O1 0.135967 0.864034 0.833334
O O2 0.168775 0.916996 0.737907
O O3 0.301167 0.771809 0.779562
O O4 0.396969 0.099872 0.794373
O O5 0.066243 0.404593 0.325042
O O6 0.152107 0.625727 0.257064
O O7 0.237593 0.237593 0.333334
O O8 0.910957 0.089043 0.333334
O O9 0.392673 0.607328 0.833334
#
# Coordination Sequence:
#
# PCOD9583946 Si02
#       4
#    12   6  12  12
#     4  10  22  43  67  90 135 175 211 270 332 392
#     4  12  23  42  70  96 138 172 221 286 324 392
#     4  11  25  44  66  99 132 175 225 270 336 402
#     4  10  22  40  67 100 129 173 220 264 332 396
#
# _framework density 19.957058
#
# number of rings (size 3 to 8) (size 9 to 14) (size 15 to 20)
#    0.000    1.429    2.857    2.143    4.000    0.000 
#    0.000    4.286    0.000    0.000    0.000    0.000 
#    0.000    0.000    0.000    0.000    0.000    0.000 
#
# Total GULP energy -234356.655134 kJ/mol
# GULP energy per Si atom -5579.920360 kJ/mol
# Density = 1.991164 g / cm^3
# Si number density = 19.957058 Si / 1000 Ang^3
#
#
#
# Elastic Constant Matrix: (Units=GPa)
#
#
# Indices 1 2 3 4 5 6 
#
# 1 78.1111 26.9813 51.7471 0.0000 0.0000 0.0000
# 2 26.9813 78.1111 51.7471 0.0000 0.0000 0.0000
# 3 51.7471 51.7471 192.5217 0.0000 0.0000 0.0000
# 4 0.0000 0.0000 0.0000 32.1646 0.0000 0.0000
# 5 0.0000 0.0000 0.0000 0.0000 32.1646 0.0000
# 6 0.0000 0.0000 0.0000 0.0000 0.0000 25.5649
#
#
#
# Elastic Compliance Matrix: (Units=1/GPa)
#
#
# Indices 1 2 3 4 5 6 
#
# 1 0.016249 -0.003309 -0.003478 0.000000 0.000000 0.000000
# 2 -0.003309 0.016249 -0.003478 0.000000 0.000000 0.000000
# 3 -0.003478 -0.003478 0.007064 0.000000 0.000000 0.000000
# 4 0.000000 0.000000 0.000000 0.031090 0.000000 0.000000
# 5 0.000000 0.000000 0.000000 0.000000 0.031090 0.000000
# 6 0.000000 0.000000 0.000000 0.000000 0.000000 0.039116
#
#
# Mechanical properties :
#
#
# Convention : Reuss Voigt Hill
#
# Bulk Modulus (GPa) = 52.54169 67.74388 60.14279
# Shear Modulus (GPa) = 29.80908 32.53001 31.16955
#
# Velocity S-wave (km/s) = 3.86898 4.04171 3.95629
# Velocity P-wave (km/s) = 6.80759 7.46988 7.14641
#
# Compressibility (1/GPa) = 0.01903251
#
# Stress axis : x y z
#
# Youngs Moduli (GPa) = 61.54044 61.54044 141.56152
#
# Poissons Ratio (x) = 0.20361 0.49240
# Poissons Ratio (y) = 0.20361 0.49240
# Poissons Ratio (z) = 0.21406 0.21406
#
# Static dielectric constant tensor:
#      x y z
#    x 1.727330 0.000000 0.000000 
#    y 0.000000 1.727330 0.000000 
#    z 0.000000 0.000000 1.694200 
# 
# From -- ./inp_files/11998.got.cif
#   From: 2010.05.17/outbox.cif.g08.bks.cpg/sg180_6_cif.got.tgz:11998.got - 2010.05.20 11:43:55.
