data_PCOD9583834
_publ_section_title
;
Structure prediction by ZEFSAII (Michael W. Deem and Ramdas Pophale) SiO2 
 PCOD9583834
Probable space group: P 62 2 2
;
_chemical_formula_sum "Si O2"
_cell_formula_units_Z 57
_cell_length_a 14.649350
_cell_length_b 14.649350
_cell_length_c 13.535825
_cell_angle_alpha 90.000000
_cell_angle_beta 90.000000
_cell_angle_gamma 120.000000
_cell_volume 2515.660745
_symmetry_space_group_name_H-M "P 62 2 2"
_symmetry_group_IT_number 180
_symmetry_cell_setting 'hexagonal'
loop_
_space_group_symop_operation_xyz
x,y,z
x-y,x,1/3+z
-y,x-y,2/3+z
-x,-y,z
-x+y,-x,1/3+z
y,-x+y,2/3+z
x-y,-y,-z
-x,-x+y,1/3-z
y,x,2/3-z
-y,-x,2/3-z
-x+y,y,-z
x,x-y,1/3-z
loop_
_atom_site_type_symbol
_atom_site_label
_atom_site_fract_x
_atom_site_fract_y
_atom_site_fract_z
Si Si1 0.841172 0.682344 0.500000
Si Si2 0.000000 0.000000 0.333334
Si Si3 0.636727 0.649051 0.443988
Si Si4 0.105396 0.872559 0.048890
Si Si5 0.000000 0.664769 0.166667
Si Si6 0.635410 0.182731 0.400791
Si Si7 0.500000 0.500000 0.063527
O O1 0.718524 0.614533 0.482015
O O2 0.867226 0.751442 0.597855
O O3 0.107254 0.036005 0.394915
O O4 0.605466 0.605466 0.333334
O O5 0.704071 0.776876 0.430681
O O6 0.550713 0.600582 0.528961
O O7 0.046403 0.755038 0.085340
O O8 0.094549 0.658380 0.218946
O O9 0.727962 0.272038 0.333334
O O10 0.616039 0.232077 0.500000
O O11 0.528920 0.102210 0.338687
#
# Coordination Sequence:
#
# PCOD9583834 Si02
#       7
#     6   3  12  12   6  12   6
#     4  10  20  41  58  88 148 182 238 307 362 448
#     4  12  24  42  60 104 160 198 240 298 364 454
#     4  10  22  42  63 105 142 197 253 315 380 461
#     4  11  25  38  66 103 150 202 258 302 377 469
#     4  12  25  45  76 108 146 202 256 317 391 472
#     4  12  27  53  79 116 151 196 263 330 401 475
#     4  12  22  48  82  98 152 194 248 332 392 458
#
# _framework density 22.658064
#
# number of rings (size 3 to 8) (size 9 to 14) (size 15 to 20)
#    0.000    0.842    5.263    2.842    4.421    0.842 
#    1.895    0.000    0.000    0.000    0.000    0.000 
#    0.000    0.000    0.000    0.000    0.000    0.000 
#
# Total GULP energy -317817.354407 kJ/mol
# GULP energy per Si atom -5575.743060 kJ/mol
# Density = 2.260649 g / cm^3
# Si number density = 22.658064 Si / 1000 Ang^3
#
#
#
# Elastic Constant Matrix: (Units=GPa)
#
#
# Indices 1 2 3 4 5 6 
#
# 1 99.8636 38.5166 56.1866 0.0000 0.0000 0.0000
# 2 38.5166 99.8636 56.1866 0.0000 0.0000 0.0000
# 3 56.1866 56.1866 144.6007 0.0000 0.0000 0.0000
# 4 0.0000 0.0000 0.0000 28.5266 0.0000 0.0000
# 5 0.0000 0.0000 0.0000 0.0000 28.5266 0.0000
# 6 0.0000 0.0000 0.0000 0.0000 0.0000 30.6735
#
#
#
# Elastic Compliance Matrix: (Units=1/GPa)
#
#
# Indices 1 2 3 4 5 6 
#
# 1 0.013429 -0.002871 -0.004102 0.000000 0.000000 0.000000
# 2 -0.002871 0.013429 -0.004102 0.000000 0.000000 0.000000
# 3 -0.004102 -0.004102 0.010104 0.000000 0.000000 0.000000
# 4 0.000000 0.000000 0.000000 0.035055 0.000000 0.000000
# 5 0.000000 0.000000 0.000000 0.000000 0.035055 0.000000
# 6 0.000000 0.000000 0.000000 0.000000 0.000000 0.032601
#
#
# Mechanical properties :
#
#
# Convention : Reuss Voigt Hill
#
# Bulk Modulus (GPa) = 67.52283 71.78972 69.65628
# Shear Modulus (GPa) = 29.98272 30.44123 30.21198
#
# Velocity S-wave (km/s) = 3.64162 3.66936 3.65552
# Velocity P-wave (km/s) = 6.89546 7.05018 6.97325
#
# Compressibility (1/GPa) = 0.01480981
#
# Stress axis : x y z
#
# Youngs Moduli (GPa) = 74.46409 74.46409 98.97379
#
# Poissons Ratio (x) = 0.21382 0.40603
# Poissons Ratio (y) = 0.21382 0.40603
# Poissons Ratio (z) = 0.30548 0.30548
#
# Static dielectric constant tensor:
#      x y z
#    x 1.889010 0.000000 0.000000 
#    y 0.000000 1.889010 0.000000 
#    z 0.000000 0.000000 1.710120 
# 
# From -- ./inp_files/6209.got.cif
#   From: 2010.05.17/outbox.cif.g08.bks.cpg/sg180_4_cif.got.tgz:6209.got - 2010.05.20 11:43:55.
