data_PCOD9583909
_publ_section_title
;
Structure prediction by ZEFSAII (Michael W. Deem and Ramdas Pophale) SiO2 
 PCOD9583909
Probable space group: P 62 2 2
;
_chemical_formula_sum "Si O2"
_cell_formula_units_Z 30
_cell_length_a 14.713523
_cell_length_b 14.713523
_cell_length_c 7.338634
_cell_angle_alpha 90.000000
_cell_angle_beta 90.000000
_cell_angle_gamma 120.000000
_cell_volume 1375.875715
_symmetry_space_group_name_H-M "P 62 2 2"
_symmetry_group_IT_number 180
_symmetry_cell_setting 'hexagonal'
loop_
_space_group_symop_operation_xyz
x,y,z
x-y,x,1/3+z
-y,x-y,2/3+z
-x,-y,z
-x+y,-x,1/3+z
y,-x+y,2/3+z
x-y,-y,-z
-x,-x+y,1/3-z
y,x,2/3-z
-y,-x,2/3-z
-x+y,y,-z
x,x-y,1/3-z
loop_
_atom_site_type_symbol
_atom_site_label
_atom_site_fract_x
_atom_site_fract_y
_atom_site_fract_z
Si Si1 0.234518 0.041554 0.302398
Si Si2 0.157303 0.398248 0.811496
Si Si3 0.381268 0.618733 0.333334
O O1 0.187592 0.093796 0.166667
O O2 0.348649 0.136107 0.357412
O O3 0.178607 0.000000 0.500000
O O4 0.248020 0.952369 0.201442
O O5 0.163072 0.497068 0.716973
O O6 0.219058 0.438116 0.000000
O O7 0.312785 0.625569 0.500000
#
# Coordination Sequence:
#
# PCOD9583909 Si02
#       3
#    12  12   6
#     4  10  21  41  71  99 141 191 246 293 364 428
#     4  10  22  43  72 102 142 195 234 303 357 431
#     4  12  24  44  73 104 152 184 245 294 360 436
#
# _framework density 21.804295
#
# number of rings (size 3 to 8) (size 9 to 14) (size 15 to 20)
#    0.000    1.600    2.000    2.400    0.000    0.000 
#    0.000   16.000    0.000  102.000    0.000    0.000 
#    0.000    0.000    0.000    0.000    0.000    0.000 
#
# Total GULP energy -167576.487021 kJ/mol
# GULP energy per Si atom -5585.882901 kJ/mol
# Density = 2.175467 g / cm^3
# Si number density = 21.804295 Si / 1000 Ang^3
#
#
#
# Elastic Constant Matrix: (Units=GPa)
#
#
# Indices 1 2 3 4 5 6 
#
# 1 133.5710 73.9366 59.1769 0.0000 0.0000 0.0000
# 2 73.9366 133.5710 59.1769 0.0000 0.0000 0.0000
# 3 59.1769 59.1769 154.0704 0.0000 0.0000 0.0000
# 4 0.0000 0.0000 0.0000 31.6096 0.0000 0.0000
# 5 0.0000 0.0000 0.0000 0.0000 31.6096 0.0000
# 6 0.0000 0.0000 0.0000 0.0000 0.0000 29.8172
#
#
#
# Elastic Compliance Matrix: (Units=1/GPa)
#
#
# Indices 1 2 3 4 5 6 
#
# 1 0.011470 -0.005299 -0.002370 0.000000 0.000000 0.000000
# 2 -0.005299 0.011470 -0.002370 0.000000 0.000000 0.000000
# 3 -0.002370 -0.002370 0.008311 0.000000 0.000000 0.000000
# 4 0.000000 0.000000 0.000000 0.031636 0.000000 0.000000
# 5 0.000000 0.000000 0.000000 0.000000 0.031636 0.000000
# 6 0.000000 0.000000 0.000000 0.000000 0.000000 0.033538
#
#
# Mechanical properties :
#
#
# Convention : Reuss Voigt Hill
#
# Bulk Modulus (GPa) = 89.50631 89.53256 89.51943
# Shear Modulus (GPa) = 32.92432 33.86877 33.39655
#
# Velocity S-wave (km/s) = 3.89008 3.94548 3.91788
# Velocity P-wave (km/s) = 7.83045 7.86808 7.84929
#
# Compressibility (1/GPa) = 0.01117240
#
# Stress axis : x y z
#
# Youngs Moduli (GPa) = 87.18467 87.18467 120.31842
#
# Poissons Ratio (x) = 0.46199 0.28518
# Poissons Ratio (y) = 0.46199 0.28518
# Poissons Ratio (z) = 0.20665 0.20665
#
# Static dielectric constant tensor:
#      x y z
#    x 1.778460 0.000000 0.000000 
#    y 0.000000 1.778460 0.000000 
#    z 0.000000 0.000000 1.915130 
# 
# From -- ./inp_files/2226.got.cif
#   From: 2010.05.17/outbox.cif.g08.bks.cpg/sg180_2_cif.got.tgz:2226.got - 2010.05.20 11:43:55.
