data_PCOD9583041
_publ_section_title
;
Structure prediction by ZEFSAII (Michael W. Deem and Ramdas Pophale) SiO2 
 PCOD9583041
Probable space group: P 61 2 2
;
_chemical_formula_sum "Si O2"
_cell_formula_units_Z 66
_cell_length_a 17.729930
_cell_length_b 17.729930
_cell_length_c 14.216990
_cell_angle_alpha 90.000000
_cell_angle_beta 90.000000
_cell_angle_gamma 120.000000
_cell_volume 3870.368635
_symmetry_space_group_name_H-M "P 61 2 2"
_symmetry_group_IT_number 178
_symmetry_cell_setting 'hexagonal'
loop_
_space_group_symop_operation_xyz
x,y,z
x-y,x,1/6+z
-y,x-y,1/3+z
-x,-y,1/2+z
-x+y,-x,2/3+z
y,-x+y,5/6+z
x-y,-y,-z
-x,-x+y,2/3-z
y,x,1/3-z
-y,-x,5/6-z
-x+y,y,1/2-z
x,x-y,1/6-z
loop_
_atom_site_type_symbol
_atom_site_label
_atom_site_fract_x
_atom_site_fract_y
_atom_site_fract_z
Si Si1 0.461636 0.383599 0.022443
Si Si2 0.777539 0.270291 0.016063
Si Si3 0.909861 0.681347 0.812588
Si Si4 0.222152 0.639727 0.849745
Si Si5 0.218962 0.455648 0.054976
Si Si6 0.539829 0.460172 0.416667
O O1 0.381023 0.314310 0.084466
O O2 0.541899 0.411244 0.095065
O O3 0.468442 0.326257 0.935418
O O4 0.450483 0.462728 0.986077
O O5 0.685024 0.267489 0.013719
O O6 0.769888 0.216856 0.110237
O O7 0.858162 0.368070 0.030955
O O8 0.774960 0.225041 0.916667
O O9 0.853051 0.706102 0.750000
O O10 0.846415 0.624813 0.896549
O O11 0.000000 0.764287 0.833334
O O12 0.277299 0.722702 0.916667
O O13 0.224912 0.687011 0.752392
#
# Coordination Sequence:
#
# PCOD9583041 Si02
#       6
#    12  12  12  12  12   6
#     4   9  19  35  56  74  94 131 174 224 271 307
#     4  12  23  32  43  68  99 135 173 217 260 302
#     4   9  17  32  55  81 104 129 161 203 262 315
#     4   9  18  33  52  70  90 126 171 218 267 316
#     4   9  19  36  54  71  97 135 178 217 262 313
#     4  12  22  34  50  74 102 134 176 226 268 304
#
# _framework density 17.05264
#
# number of rings (size 3 to 8) (size 9 to 14) (size 15 to 20)
#    0.000    2.182    0.909    5.455    0.000    2.909 
#    0.000    6.364    0.000    0.000    0.000    0.000 
#    0.000   13.091    0.000    0.000    0.000    0.000 
#
# Total GULP energy -367964.111847 kJ/mol
# GULP energy per Si atom -5575.213816 kJ/mol
# Density = 1.701383 g / cm^3
# Si number density = 17.052640 Si / 1000 Ang^3
#
#
#
# Elastic Constant Matrix: (Units=GPa)
#
#
# Indices 1 2 3 4 5 6 
#
# 1 68.5778 45.7649 31.5074 0.0000 0.0000 0.0000
# 2 45.7649 68.5778 31.5074 0.0000 0.0000 0.0000
# 3 31.5074 31.5074 122.5232 0.0000 0.0000 0.0000
# 4 0.0000 0.0000 0.0000 7.6268 0.0000 0.0000
# 5 0.0000 0.0000 0.0000 0.0000 7.6268 0.0000
# 6 0.0000 0.0000 0.0000 0.0000 0.0000 11.4065
#
#
#
# Elastic Compliance Matrix: (Units=1/GPa)
#
#
# Indices 1 2 3 4 5 6 
#
# 1 0.027012 -0.016823 -0.002620 0.000000 0.000000 0.000000
# 2 -0.016823 0.027012 -0.002620 0.000000 0.000000 0.000000
# 3 -0.002620 -0.002620 0.009509 0.000000 0.000000 0.000000
# 4 0.000000 0.000000 0.000000 0.131117 0.000000 0.000000
# 5 0.000000 0.000000 0.000000 0.000000 0.131117 0.000000
# 6 0.000000 0.000000 0.000000 0.000000 0.000000 0.087670
#
#
# Mechanical properties :
#
#
# Convention : Reuss Voigt Hill
#
# Bulk Modulus (GPa) = 51.52649 53.02645 52.27647
# Shear Modulus (GPa) = 10.77510 15.39195 13.08352
#
# Velocity S-wave (km/s) = 2.51643 3.00761 2.77292
# Velocity P-wave (km/s) = 6.22294 6.57451 6.40114
#
# Compressibility (1/GPa) = 0.01940749
#
# Stress axis : x y z
#
# Youngs Moduli (GPa) = 37.02021 37.02021 105.15933
#
# Poissons Ratio (x) = 0.62277 0.27555
# Poissons Ratio (y) = 0.62277 0.27555
# Poissons Ratio (z) = 0.09701 0.09701
#
# Static dielectric constant tensor:
#      x y z
#    x 1.604980 0.000000 0.000000 
#    y 0.000000 1.604980 0.000000 
#    z 0.000000 0.000000 1.695360 
# 
# From -- ./inp_files/5912.got.cif
#   From: 2010.05.17/outbox.cif.g08.bks.cpg/sg178_3_cif.got.tgz:5912.got - 2010.05.20 11:30:59.
