data_PCOD9583932
_publ_section_title
;
Structure prediction by ZEFSAII (Michael W. Deem and Ramdas Pophale) SiO2 
 PCOD9583932
Probable space group: P 62 2 2
;
_chemical_formula_sum "Si O2"
_cell_formula_units_Z 39
_cell_length_a 8.042724
_cell_length_b 8.042724
_cell_length_c 29.352087
_cell_angle_alpha 90.000000
_cell_angle_beta 90.000000
_cell_angle_gamma 120.000000
_cell_volume 1644.280659
_symmetry_space_group_name_H-M "P 62 2 2"
_symmetry_group_IT_number 180
_symmetry_cell_setting 'hexagonal'
loop_
_space_group_symop_operation_xyz
x,y,z
x-y,x,1/3+z
-y,x-y,2/3+z
-x,-y,z
-x+y,-x,1/3+z
y,-x+y,2/3+z
x-y,-y,-z
-x,-x+y,1/3-z
y,x,2/3-z
-y,-x,2/3-z
-x+y,y,-z
x,x-y,1/3-z
loop_
_atom_site_type_symbol
_atom_site_label
_atom_site_fract_x
_atom_site_fract_y
_atom_site_fract_z
Si Si1 0.774708 0.688375 0.756728
Si Si2 0.000000 0.500000 0.166667
Si Si3 0.409414 0.267811 0.218690
Si Si4 0.560159 0.272468 0.614148
O O1 0.683396 0.560923 0.802420
O O2 0.634221 0.772242 0.747475
O O3 0.704426 0.519969 0.719557
O O4 0.999624 0.806591 0.763449
O O5 0.500000 0.500000 0.220250
O O6 0.411399 0.205700 0.166667
O O7 0.528427 0.213143 0.253957
O O8 0.505322 0.252661 0.666667
#
# Coordination Sequence:
#
# PCOD9583932 Si02
#       4
#    12   3  12  12
#     4   9  20  35  63  93 130 179 231 288 355 424
#     4   8  16  36  62  76 128 180 208 268 380 400
#     4  10  22  38  66 102 131 177 242 292 358 442
#     4   9  19  38  64  92 131 190 233 279 368 441
#
# _framework density 23.718578999999998
#
# number of rings (size 3 to 8) (size 9 to 14) (size 15 to 20)
#    0.000    3.077    0.000    0.000   19.385    5.538 
#    5.538    0.769    0.000    3.692    0.000    0.000 
#    0.000    0.000    0.000    0.000    0.000    0.000 
#
# Total GULP energy -217446.388817 kJ/mol
# GULP energy per Si atom -5575.548431 kJ/mol
# Density = 2.366459 g / cm^3
# Si number density = 23.718579 Si / 1000 Ang^3
#
#
#
# Elastic Constant Matrix: (Units=GPa)
#
#
# Indices 1 2 3 4 5 6 
#
# 1 140.6351 55.0389 43.5671 0.0000 0.0000 0.0000
# 2 55.0389 140.6351 43.5671 0.0000 0.0000 0.0000
# 3 43.5671 43.5671 127.1862 0.0000 0.0000 0.0000
# 4 0.0000 0.0000 0.0000 3.7078 0.0000 0.0000
# 5 0.0000 0.0000 0.0000 0.0000 3.7078 0.0000
# 6 0.0000 0.0000 0.0000 0.0000 0.0000 42.7981
#
#
#
# Elastic Compliance Matrix: (Units=1/GPa)
#
#
# Indices 1 2 3 4 5 6 
#
# 1 0.008857 -0.002826 -0.002066 0.000000 0.000000 0.000000
# 2 -0.002826 0.008857 -0.002066 0.000000 0.000000 0.000000
# 3 -0.002066 -0.002066 0.009278 0.000000 0.000000 0.000000
# 4 0.000000 0.000000 0.000000 0.269705 0.000000 0.000000
# 5 0.000000 0.000000 0.000000 0.000000 0.269705 0.000000
# 6 0.000000 0.000000 0.000000 0.000000 0.000000 0.023366
#
#
# Mechanical properties :
#
#
# Convention : Reuss Voigt Hill
#
# Bulk Modulus (GPa) = 76.47765 76.97808 76.72786
# Shear Modulus (GPa) = 8.22315 27.79495 18.00905
#
# Velocity S-wave (km/s) = 1.86400 3.42696 2.75849
# Velocity P-wave (km/s) = 6.07836 6.94147 6.52420
#
# Compressibility (1/GPa) = 0.01307572
#
# Stress axis : x y z
#
# Youngs Moduli (GPa) = 112.91044 112.91044 107.78566
#
# Poissons Ratio (x) = 0.31910 0.22265
# Poissons Ratio (y) = 0.31910 0.22265
# Poissons Ratio (z) = 0.23324 0.23324
#
# Static dielectric constant tensor:
#      x y z
#    x 2.883360 0.000000 0.000000 
#    y 0.000000 2.883360 0.000000 
#    z 0.000000 0.000000 1.955890 
# 
# From -- ./inp_files/11840.got.cif
#   From: 2010.05.17/outbox.cif.g08.bks.cpg/sg180_6_cif.got.tgz:11840.got - 2010.05.20 11:43:55.
