data_PCOD9583317
_publ_section_title
;
Structure prediction by ZEFSAII (Michael W. Deem and Ramdas Pophale) SiO2 
 PCOD9583317
Probable space group: P 65 2 2
;
_chemical_formula_sum "Si O2"
_cell_formula_units_Z 54
_cell_length_a 20.069415
_cell_length_b 20.069415
_cell_length_c 8.339566
_cell_angle_alpha 90.000000
_cell_angle_beta 90.000000
_cell_angle_gamma 120.000000
_cell_volume 2908.998577
_symmetry_space_group_name_H-M "P 65 2 2"
_symmetry_group_IT_number 179
_symmetry_cell_setting 'hexagonal'
loop_
_space_group_symop_operation_xyz
x,y,z
x-y,x,5/6+z
-y,x-y,2/3+z
-x,-y,1/2+z
-x+y,-x,1/3+z
y,-x+y,1/6+z
x-y,-y,-z
-x,-x+y,1/3-z
y,x,2/3-z
-y,-x,1/6-z
-x+y,y,1/2-z
x,x-y,5/6-z
loop_
_atom_site_type_symbol
_atom_site_label
_atom_site_fract_x
_atom_site_fract_y
_atom_site_fract_z
Si Si1 0.562730 0.840428 0.032115
Si Si2 0.856887 0.143114 0.083334
Si Si3 0.914491 0.459779 0.727995
Si Si4 0.528410 0.332086 0.990936
Si Si5 0.036545 0.157254 0.499550
O O1 0.539708 0.820480 0.218154
O O2 0.530130 0.765065 0.916667
O O3 0.653792 0.880033 0.995546
O O4 0.520110 0.887054 0.987216
O O5 0.853379 0.085274 0.221493
O O6 0.864537 0.376105 0.648590
O O7 0.000000 0.493590 0.666667
O O8 0.910078 0.455039 0.916667
O O9 0.557323 0.278662 0.916667
O O10 0.597818 0.402183 0.083334
O O11 0.093710 0.127412 0.560039
O O12 0.000000 0.166962 0.666667
#
# Coordination Sequence:
#
# PCOD9583317 Si02
#       5
#    12   6  12  12  12
#     4   9  21  40  59  85 121 166 202 252 316 376
#     4  10  22  40  62  88 126 166 202 260 318 384
#     4  11  22  39  62  90 123 160 208 258 315 385
#     4  10  21  38  63  92 122 159 206 261 315 377
#     4  10  22  40  63  94 125 164 216 265 321 381
#
# _framework density 18.563088
#
# number of rings (size 3 to 8) (size 9 to 14) (size 15 to 20)
#    0.667    1.333    0.000    4.000    0.000   11.556 
#    4.000    1.111    0.000    0.000    0.000    0.000 
#    0.000    0.000    0.000    0.000    0.000    0.000 
#
# Total GULP energy -300815.496188 kJ/mol
# GULP energy per Si atom -5570.657337 kJ/mol
# Density = 1.852084 g / cm^3
# Si number density = 18.563088 Si / 1000 Ang^3
#
#
#
# Elastic Constant Matrix: (Units=GPa)
#
#
# Indices 1 2 3 4 5 6 
#
# 1 86.6153 20.2933 42.1624 0.0000 0.0000 0.0000
# 2 20.2933 86.6153 42.1624 0.0000 0.0000 0.0000
# 3 42.1624 42.1624 136.5626 0.0000 0.0000 0.0000
# 4 0.0000 0.0000 0.0000 20.7366 0.0000 0.0000
# 5 0.0000 0.0000 0.0000 0.0000 20.7366 0.0000
# 6 0.0000 0.0000 0.0000 0.0000 0.0000 33.1610
#
#
#
# Elastic Compliance Matrix: (Units=1/GPa)
#
#
# Indices 1 2 3 4 5 6 
#
# 1 0.013721 -0.001357 -0.003818 0.000000 0.000000 0.000000
# 2 -0.001357 0.013721 -0.003818 0.000000 0.000000 0.000000
# 3 -0.003818 -0.003818 0.009680 0.000000 0.000000 0.000000
# 4 0.000000 0.000000 0.000000 0.048224 0.000000 0.000000
# 5 0.000000 0.000000 0.000000 0.000000 0.048224 0.000000
# 6 0.000000 0.000000 0.000000 0.000000 0.000000 0.030156
#
#
# Mechanical properties :
#
#
# Convention : Reuss Voigt Hill
#
# Bulk Modulus (GPa) = 52.24791 57.66995 54.95893
# Shear Modulus (GPa) = 26.58306 28.60516 27.59411
#
# Velocity S-wave (km/s) = 3.78833 3.92978 3.85970
# Velocity P-wave (km/s) = 6.88059 7.19203 7.03803
#
# Compressibility (1/GPa) = 0.01913952
#
# Stress axis : x y z
#
# Youngs Moduli (GPa) = 72.87870 72.87870 103.30667
#
# Poissons Ratio (x) = 0.09886 0.39438
# Poissons Ratio (y) = 0.09886 0.39438
# Poissons Ratio (z) = 0.27822 0.27822
#
# Static dielectric constant tensor:
#      x y z
#    x 1.628170 0.000000 0.000000 
#    y 0.000000 1.628170 0.000000 
#    z 0.000000 0.000000 1.637560 
# 
# From -- ./inp_files/3107.got.cif
#   From: 2010.05.17/outbox.cif.g08.bks.cpg/sg179_2_cif.got.tgz:3107.got - 2010.05.20 11:37:33.
