data_PCOD9583899
_publ_section_title
;
Structure prediction by ZEFSAII (Michael W. Deem and Ramdas Pophale) SiO2 
 PCOD9583899
Probable space group: P 62 2 2
;
_chemical_formula_sum "Si O2"
_cell_formula_units_Z 66
_cell_length_a 20.702599
_cell_length_b 20.702599
_cell_length_c 8.333758
_cell_angle_alpha 90.000000
_cell_angle_beta 90.000000
_cell_angle_gamma 120.000000
_cell_volume 3093.294412
_symmetry_space_group_name_H-M "P 62 2 2"
_symmetry_group_IT_number 180
_symmetry_cell_setting 'hexagonal'
loop_
_space_group_symop_operation_xyz
x,y,z
x-y,x,1/3+z
-y,x-y,2/3+z
-x,-y,z
-x+y,-x,1/3+z
y,-x+y,2/3+z
x-y,-y,-z
-x,-x+y,1/3-z
y,x,2/3-z
-y,-x,2/3-z
-x+y,y,-z
x,x-y,1/3-z
loop_
_atom_site_type_symbol
_atom_site_label
_atom_site_fract_x
_atom_site_fract_y
_atom_site_fract_z
Si Si1 0.439748 0.863690 0.675594
Si Si2 0.621593 0.310797 0.666667
Si Si3 0.270572 0.230906 0.581816
Si Si4 0.111296 0.293813 0.266028
Si Si5 0.582920 0.644185 0.442199
Si Si6 0.443143 0.155103 0.193556
O O1 0.448113 0.896226 0.500000
O O2 0.423991 0.778833 0.663422
O O3 0.514458 0.905676 0.774627
O O4 0.369120 0.866370 0.745586
O O5 0.666609 0.333218 0.500000
O O6 0.295098 0.214323 0.754503
O O7 0.268599 0.172186 0.448294
O O8 0.197573 0.237581 0.623479
O O9 0.337381 0.311565 0.528885
O O10 0.138623 0.373451 0.355904
O O11 0.580433 0.580433 0.333334
O O12 0.581433 0.701624 0.315717
O O13 0.486607 0.243304 0.166667
#
# Coordination Sequence:
#
# PCOD9583899 Si02
#       6
#    12   6  12  12  12  12
#     4  11  27  44  63  93 129 177 230 289 353 420
#     4  10  24  42  68  96 129 168 228 288 347 412
#     4  10  21  40  66  96 137 182 230 279 348 426
#     4  10  21  40  65  98 135 184 226 281 351 420
#     4  12  25  43  66  93 129 175 231 291 352 421
#     4  12  24  40  65  93 126 172 229 287 351 410
#
# _framework density 21.336475
#
# number of rings (size 3 to 8) (size 9 to 14) (size 15 to 20)
#    0.000    1.091    3.636    2.182    7.636    2.909 
#    0.000    0.909    0.000    0.000    0.000    0.000 
#    0.000    0.000    0.000  520.364    0.000    0.727 
#
# Total GULP energy -368253.369682 kJ/mol
# GULP energy per Si atom -5579.596510 kJ/mol
# Density = 2.128791 g / cm^3
# Si number density = 21.336475 Si / 1000 Ang^3
#
#
#
# Elastic Constant Matrix: (Units=GPa)
#
#
# Indices 1 2 3 4 5 6 
#
# 1 79.0917 92.6560 59.3979 0.0000 0.0000 0.0000
# 2 92.6560 79.0917 59.3979 0.0000 0.0000 0.0000
# 3 59.3979 59.3979 132.3436 0.0000 0.0000 0.0000
# 4 0.0000 0.0000 0.0000 25.9863 0.0000 0.0000
# 5 0.0000 0.0000 0.0000 0.0000 25.9863 0.0000
# 6 0.0000 0.0000 0.0000 0.0000 0.0000 -6.7822
#
#
#
# Elastic Compliance Matrix: (Units=1/GPa)
#
#
# Indices 1 2 3 4 5 6 
#
# 1 -0.032640 0.041083 -0.003790 0.000000 0.000000 0.000000
# 2 0.041083 -0.032640 -0.003790 0.000000 0.000000 0.000000
# 3 -0.003790 -0.003790 0.010958 0.000000 0.000000 0.000000
# 4 0.000000 0.000000 0.000000 0.038482 0.000000 0.000000
# 5 0.000000 0.000000 0.000000 0.000000 0.038482 0.000000
# 6 0.000000 0.000000 0.000000 0.000000 0.000000 -0.147446
#
#
# Mechanical properties :
#
#
# Convention : Reuss Voigt Hill
#
# Bulk Modulus (GPa) = 78.82331 79.27005 79.04668
# Shear Modulus (GPa) = -26.65494 14.30978 -6.17258
#
# Velocity S-wave (km/s) = -3.53833 2.59254 -1.70272
# Velocity P-wave (km/s) = 4.50890 6.79667 5.76736
#
# Compressibility (1/GPa) = 0.01268660
#
# Stress axis : x y z
#
# Youngs Moduli (GPa) = -30.63768 -30.63768 91.25881
#
# Poissons Ratio (x) = 1.25870 0.34584
# Poissons Ratio (y) = 1.25870 0.34584
# Poissons Ratio (z) = -0.11611 -0.11611
#
# Static dielectric constant tensor:
#      x y z
#    x 1.815900 0.000000 0.000000 
#    y 0.000000 1.815900 0.000000 
#    z 0.000000 0.000000 1.526890 
# 
# From -- ./inp_files/3203.got.cif
#   From: 2010.05.17/outbox.cif.g08.bks.cpg/sg180_2_cif.got.tgz:3203.got - 2010.05.20 11:43:55.
