data_PCOD9583983
_publ_section_title
;
Structure prediction by ZEFSAII (Michael W. Deem and Ramdas Pophale) SiO2 
 PCOD9583983
Probable space group: P 62 2 2
;
_chemical_formula_sum "Si O2"
_cell_formula_units_Z 60
_cell_length_a 14.032550
_cell_length_b 14.032550
_cell_length_c 16.723730
_cell_angle_alpha 90.000000
_cell_angle_beta 90.000000
_cell_angle_gamma 120.000000
_cell_volume 2851.917616
_symmetry_space_group_name_H-M "P 62 2 2"
_symmetry_group_IT_number 180
_symmetry_cell_setting 'hexagonal'
loop_
_space_group_symop_operation_xyz
x,y,z
x-y,x,1/3+z
-y,x-y,2/3+z
-x,-y,z
-x+y,-x,1/3+z
y,-x+y,2/3+z
x-y,-y,-z
-x,-x+y,1/3-z
y,x,2/3-z
-y,-x,2/3-z
-x+y,y,-z
x,x-y,1/3-z
loop_
_atom_site_type_symbol
_atom_site_label
_atom_site_fract_x
_atom_site_fract_y
_atom_site_fract_z
Si Si1 0.633469 0.570862 0.907086
Si Si2 0.488043 0.852492 0.147118
Si Si3 0.246459 0.437826 0.185059
Si Si4 0.682222 0.997729 0.258067
Si Si5 0.213724 0.876204 0.980729
O O1 0.500000 0.500000 0.915131
O O2 0.653269 0.653269 0.833334
O O3 0.699766 0.513899 0.870660
O O4 0.679149 0.628083 0.991232
O O5 0.458116 0.729058 0.166667
O O6 0.374956 0.850168 0.135567
O O7 0.559875 0.930070 0.219777
O O8 0.570287 0.884521 0.072086
O O9 0.243027 0.337858 0.135448
O O10 0.200559 0.396132 0.273452
O O11 0.711091 0.901524 0.268373
O O12 0.247246 0.000000 0.000000
#
# Coordination Sequence:
#
# PCOD9583983 Si02
#       5
#    12  12  12  12  12
#     4  11  24  41  63  91 132 172 221 272 340 401
#     4  10  23  38  61  99 136 174 225 269 335 405
#     4  12  23  40  68  93 134 180 220 280 338 409
#     4  11  23  42  63  97 128 176 232 275 334 404
#     4  11  23  41  65  96 134 175 224 282 334 406
#
# _framework density 21.038477
#
# number of rings (size 3 to 8) (size 9 to 14) (size 15 to 20)
#    0.000    1.000    4.000    3.000    2.800    0.800 
#    0.000    2.000    0.000    2.400    0.000    0.000 
#    0.000    0.000    0.000    0.000    0.000    0.000 
#
# Total GULP energy -334949.692743 kJ/mol
# GULP energy per Si atom -5582.494879 kJ/mol
# Density = 2.099059 g / cm^3
# Si number density = 21.038477 Si / 1000 Ang^3
#
#
#
# Elastic Constant Matrix: (Units=GPa)
#
#
# Indices 1 2 3 4 5 6 
#
# 1 80.0336 32.2247 16.6599 0.0000 0.0000 0.0000
# 2 32.2247 80.0336 16.6599 0.0000 0.0000 0.0000
# 3 16.6599 16.6599 118.3260 0.0000 0.0000 0.0000
# 4 0.0000 0.0000 0.0000 22.7326 0.0000 0.0000
# 5 0.0000 0.0000 0.0000 0.0000 22.7326 0.0000
# 6 0.0000 0.0000 0.0000 0.0000 0.0000 23.9045
#
#
#
# Elastic Compliance Matrix: (Units=1/GPa)
#
#
# Indices 1 2 3 4 5 6 
#
# 1 0.015107 -0.005810 -0.001309 0.000000 0.000000 0.000000
# 2 -0.005810 0.015107 -0.001309 0.000000 0.000000 0.000000
# 3 -0.001309 -0.001309 0.008820 0.000000 0.000000 0.000000
# 4 0.000000 0.000000 0.000000 0.043990 0.000000 0.000000
# 5 0.000000 0.000000 0.000000 0.000000 0.043990 0.000000
# 6 0.000000 0.000000 0.000000 0.000000 0.000000 0.041833
#
#
# Mechanical properties :
#
#
# Convention : Reuss Voigt Hill
#
# Bulk Modulus (GPa) = 45.09137 45.49803 45.29470
# Shear Modulus (GPa) = 25.89418 28.06385 26.97902
#
# Velocity S-wave (km/s) = 3.51208 3.65626 3.58490
# Velocity P-wave (km/s) = 6.15838 6.28470 6.22186
#
# Compressibility (1/GPa) = 0.02217719
#
# Stress axis : x y z
#
# Youngs Moduli (GPa) = 66.19644 66.19644 113.38104
#
# Poissons Ratio (x) = 0.38460 0.14841
# Poissons Ratio (y) = 0.38460 0.14841
# Poissons Ratio (z) = 0.08665 0.08665
#
# Static dielectric constant tensor:
#      x y z
#    x 1.810470 0.000000 0.000000 
#    y 0.000000 1.810470 0.000000 
#    z 0.000000 0.000000 1.781350 
# 
# From -- ./inp_files/6114.got.cif
#   From: 2010.05.17/outbox.cif.g08.bks.cpg/sg180_4_cif.got.tgz:6114.got - 2010.05.20 11:43:55.
