data_PCOD9583287
_publ_section_title
;
Structure prediction by ZEFSAII (Michael W. Deem and Ramdas Pophale) SiO2 
 PCOD9583287
Probable space group: P 65 2 2
;
_chemical_formula_sum "Si O2"
_cell_formula_units_Z 78
_cell_length_a 17.464304
_cell_length_b 17.464304
_cell_length_c 13.183836
_cell_angle_alpha 90.000000
_cell_angle_beta 90.000000
_cell_angle_gamma 120.000000
_cell_volume 3482.370609
_symmetry_space_group_name_H-M "P 65 2 2"
_symmetry_group_IT_number 179
_symmetry_cell_setting 'hexagonal'
loop_
_space_group_symop_operation_xyz
x,y,z
x-y,x,5/6+z
-y,x-y,2/3+z
-x,-y,1/2+z
-x+y,-x,1/3+z
y,-x+y,1/6+z
x-y,-y,-z
-x,-x+y,1/3-z
y,x,2/3-z
-y,-x,1/6-z
-x+y,y,1/2-z
x,x-y,5/6-z
loop_
_atom_site_type_symbol
_atom_site_label
_atom_site_fract_x
_atom_site_fract_y
_atom_site_fract_z
Si Si1 0.452877 0.252523 0.532009
Si Si2 0.420521 0.415447 0.545278
Si Si3 0.439406 0.617887 0.699399
Si Si4 0.874433 0.000000 0.000000
Si Si5 0.798501 0.056999 0.632256
Si Si6 0.920931 0.350242 0.593572
Si Si7 0.132359 0.855517 0.817696
O O1 0.456825 0.228413 0.416667
O O2 0.427971 0.330463 0.519927
O O3 0.535073 0.248672 0.588458
O O4 0.371306 0.183265 0.599104
O O5 0.518487 0.481514 0.583334
O O6 0.392931 0.471805 0.470772
O O7 0.367235 0.407388 0.647017
O O8 0.401407 0.598594 0.583334
O O9 0.370278 0.529685 0.762299
O O10 0.789855 0.931003 0.064854
O O11 0.949025 0.050976 0.083334
O O12 0.895872 0.104129 0.583334
O O13 0.802655 0.081326 0.750137
O O14 0.747099 0.092983 0.560648
O O15 0.753549 0.952415 0.638942
O O16 0.000000 0.415382 0.666667
#
# Coordination Sequence:
#
# PCOD9583287 Si02
#       7
#    12  12  12   6  12  12  12
#     4  12  26  39  71 110 139 180 237 291 352 432
#     4   9  21  43  66  95 140 181 221 282 344 422
#     4   9  22  43  69  96 140 188 231 282 360 430
#     4  12  26  46  64  94 136 194 232 290 372 426
#     4  12  25  43  68 101 131 184 246 303 351 421
#     4  10  20  40  67  94 125 176 229 287 352 414
#     4  12  25  44  66  96 145 178 240 299 360 422
#
# _framework density 22.398534000000001
#
# number of rings (size 3 to 8) (size 9 to 14) (size 15 to 20)
#    0.000    1.538    3.077    3.692    4.308    0.615 
#    0.000    1.538    0.000    0.000    0.000    0.000 
#    0.000    0.000    0.000    0.000    0.000    0.000 
#
# Total GULP energy -434671.621325 kJ/mol
# GULP energy per Si atom -5572.713094 kJ/mol
# Density = 2.234755 g / cm^3
# Si number density = 22.398534 Si / 1000 Ang^3
#
#
#
# Elastic Constant Matrix: (Units=GPa)
#
#
# Indices 1 2 3 4 5 6 
#
# 1 145.5683 -65.8683 15.8974 0.0000 0.0000 0.0000
# 2 -65.8683 145.5683 15.8974 0.0000 0.0000 0.0000
# 3 15.8974 15.8974 91.6910 0.0000 0.0000 0.0000
# 4 0.0000 0.0000 0.0000 26.7535 0.0000 0.0000
# 5 0.0000 0.0000 0.0000 0.0000 26.7535 0.0000
# 6 0.0000 0.0000 0.0000 0.0000 0.0000 105.7183
#
#
#
# Elastic Compliance Matrix: (Units=1/GPa)
#
#
# Indices 1 2 3 4 5 6 
#
# 1 0.009104 0.004375 -0.002337 0.000000 0.000000 0.000000
# 2 0.004375 0.009104 -0.002337 0.000000 0.000000 0.000000
# 3 -0.002337 -0.002337 0.011717 0.000000 0.000000 0.000000
# 4 0.000000 0.000000 0.000000 0.037378 0.000000 0.000000
# 5 0.000000 0.000000 0.000000 0.000000 0.037378 0.000000
# 6 0.000000 0.000000 0.000000 0.000000 0.000000 0.009459
#
#
# Mechanical properties :
#
#
# Convention : Reuss Voigt Hill
#
# Bulk Modulus (GPa) = 34.09813 34.96451 34.53132
# Shear Modulus (GPa) = 40.15567 59.63845 49.89706
#
# Velocity S-wave (km/s) = 4.23872 5.16564 4.72496
# Velocity P-wave (km/s) = 6.26195 7.15699 6.72438
#
# Compressibility (1/GPa) = 0.02932712
#
# Stress axis : x y z
#
# Youngs Moduli (GPa) = 109.83616 109.83616 85.34899
#
# Poissons Ratio (x) = -0.48052 0.19947
# Poissons Ratio (y) = -0.48052 0.19947
# Poissons Ratio (z) = 0.25669 0.25669
#
# Static dielectric constant tensor:
#      x y z
#    x 1.795960 0.000000 0.000000 
#    y 0.000000 1.795960 0.000000 
#    z 0.000000 0.000000 1.763330 
# 
# From -- ./inp_files/6063.got.cif
#   From: 2010.05.17/outbox.cif.g08.bks.cpg/sg179_4_cif.got.tgz:6063.got - 2010.05.20 11:37:33.
