data_PCOD9583974
_publ_section_title
;
Structure prediction by ZEFSAII (Michael W. Deem and Ramdas Pophale) SiO2 
 PCOD9583974
Probable space group: P 62 2 2
;
_chemical_formula_sum "Si O2"
_cell_formula_units_Z 69
_cell_length_a 14.949635
_cell_length_b 14.949635
_cell_length_c 16.554296
_cell_angle_alpha 90.000000
_cell_angle_beta 90.000000
_cell_angle_gamma 120.000000
_cell_volume 3204.073918
_symmetry_space_group_name_H-M "P 62 2 2"
_symmetry_group_IT_number 180
_symmetry_cell_setting 'hexagonal'
loop_
_space_group_symop_operation_xyz
x,y,z
x-y,x,1/3+z
-y,x-y,2/3+z
-x,-y,z
-x+y,-x,1/3+z
y,-x+y,2/3+z
x-y,-y,-z
-x,-x+y,1/3-z
y,x,2/3-z
-y,-x,2/3-z
-x+y,y,-z
x,x-y,1/3-z
loop_
_atom_site_type_symbol
_atom_site_label
_atom_site_fract_x
_atom_site_fract_y
_atom_site_fract_z
Si Si1 0.000000 0.735072 0.666667
Si Si2 0.750895 0.553186 0.412057
Si Si3 0.132176 0.728102 0.406649
Si Si4 0.500000 0.500000 0.833334
Si Si5 0.761581 0.868497 0.866771
Si Si6 0.330098 0.394947 0.701771
Si Si7 0.336338 0.628600 0.093611
O O1 0.088830 0.715912 0.704094
O O2 0.043194 0.821679 0.596848
O O3 0.799381 0.598762 0.500000
O O4 0.832693 0.551480 0.350657
O O5 0.682119 0.431340 0.428685
O O6 0.201631 0.798370 0.333334
O O7 0.125817 0.809221 0.467886
O O8 0.186175 0.666235 0.442804
O O9 0.026170 0.647180 0.363763
O O10 0.406918 0.465768 0.770604
O O11 0.858251 0.858251 0.833334
O O12 0.699369 0.762651 0.917647
O O13 0.267792 0.633896 0.166667
O O14 0.308339 0.616678 0.000000
#
# Coordination Sequence:
#
# PCOD9583974 Si02
#       7
#     6  12  12   3  12  12  12
#     4  10  24  40  73  97 130 192 236 302 358 422
#     4  10  22  44  64  93 133 181 237 291 351 424
#     4  11  21  40  64  98 137 184 220 296 379 432
#     4  12  20  36  60 112 132 172 220 300 376 464
#     4  11  22  42  67 100 136 185 239 299 362 442
#     4  11  22  37  65  98 138 173 232 296 361 448
#     4  10  24  41  64  98 140 185 229 296 359 450
#
# _framework density 21.535083
#
# number of rings (size 3 to 8) (size 9 to 14) (size 15 to 20)
#    0.000    1.391    2.609    2.087    4.870    1.391 
#    6.261    0.435    0.000   26.609    0.000    0.000 
#    0.000    0.000    0.000    0.000    0.000    0.000 
#
# Total GULP energy -384172.914417 kJ/mol
# GULP energy per Si atom -5567.723397 kJ/mol
# Density = 2.148607 g / cm^3
# Si number density = 21.535083 Si / 1000 Ang^3
#
#
#
# Elastic Constant Matrix: (Units=GPa)
#
#
# Indices 1 2 3 4 5 6 
#
# 1 94.9022 54.4892 50.4128 0.0000 0.0000 0.0000
# 2 54.4892 94.9022 50.4128 0.0000 0.0000 0.0000
# 3 50.4128 50.4128 153.1323 0.0000 0.0000 0.0000
# 4 0.0000 0.0000 0.0000 22.4788 0.0000 0.0000
# 5 0.0000 0.0000 0.0000 0.0000 22.4788 0.0000
# 6 0.0000 0.0000 0.0000 0.0000 0.0000 20.2065
#
#
#
# Elastic Compliance Matrix: (Units=1/GPa)
#
#
# Indices 1 2 3 4 5 6 
#
# 1 0.016675 -0.008069 -0.002833 0.000000 0.000000 0.000000
# 2 -0.008069 0.016675 -0.002833 0.000000 0.000000 0.000000
# 3 -0.002833 -0.002833 0.008396 0.000000 0.000000 0.000000
# 4 0.000000 0.000000 0.000000 0.044486 0.000000 0.000000
# 5 0.000000 0.000000 0.000000 0.000000 0.044486 0.000000
# 6 0.000000 0.000000 0.000000 0.000000 0.000000 0.049489
#
#
# Mechanical properties :
#
#
# Convention : Reuss Voigt Hill
#
# Bulk Modulus (GPa) = 70.05281 72.61850 71.33566
# Shear Modulus (GPa) = 23.53634 25.54096 24.53865
#
# Velocity S-wave (km/s) = 3.30954 3.44759 3.37927
# Velocity P-wave (km/s) = 6.87054 7.04572 6.95868
#
# Compressibility (1/GPa) = 0.01427494
#
# Stress axis : x y z
#
# Youngs Moduli (GPa) = 59.96912 59.96912 119.10823
#
# Poissons Ratio (x) = 0.48391 0.33745
# Poissons Ratio (y) = 0.48391 0.33745
# Poissons Ratio (z) = 0.16990 0.16990
#
# Static dielectric constant tensor:
#      x y z
#    x 2.896930 0.000000 0.000000 
#    y 0.000000 2.896930 0.000000 
#    z 0.000000 0.000000 1.821640 
# 
# From -- ./inp_files/7845.got.cif
#   From: 2010.05.17/outbox.cif.g08.bks.cpg/sg180_4_cif.got.tgz:7845.got - 2010.05.20 11:43:55.
