data_PCOD9583364
_publ_section_title
;
Structure prediction by ZEFSAII (Michael W. Deem and Ramdas Pophale) SiO2 
 PCOD9583364
Probable space group: P 65 2 2
;
_chemical_formula_sum "Si O2"
_cell_formula_units_Z 72
_cell_length_a 15.944590
_cell_length_b 15.944590
_cell_length_c 17.857099
_cell_angle_alpha 90.000000
_cell_angle_beta 90.000000
_cell_angle_gamma 120.000000
_cell_volume 3931.590261
_symmetry_space_group_name_H-M "P 65 2 2"
_symmetry_group_IT_number 179
_symmetry_cell_setting 'hexagonal'
loop_
_space_group_symop_operation_xyz
x,y,z
x-y,x,5/6+z
-y,x-y,2/3+z
-x,-y,1/2+z
-x+y,-x,1/3+z
y,-x+y,1/6+z
x-y,-y,-z
-x,-x+y,1/3-z
y,x,2/3-z
-y,-x,1/6-z
-x+y,y,1/2-z
x,x-y,5/6-z
loop_
_atom_site_type_symbol
_atom_site_label
_atom_site_fract_x
_atom_site_fract_y
_atom_site_fract_z
Si Si1 0.623688 0.155956 0.640388
Si Si2 0.229583 0.313060 0.686012
Si Si3 0.804114 0.142348 0.382029
Si Si4 0.336021 0.539076 0.867303
Si Si5 0.682051 0.129965 0.063493
Si Si6 0.082810 0.409087 0.053746
O O1 0.679239 0.099582 0.663748
O O2 0.685421 0.261123 0.678914
O O3 0.636676 0.158843 0.549947
O O4 0.510948 0.113315 0.653811
O O5 0.159753 0.319505 0.750000
O O6 0.274732 0.245646 0.700275
O O7 0.166949 0.282480 0.611556
O O8 0.723229 0.163115 0.419853
O O9 0.857636 0.220354 0.316164
O O10 0.436610 0.610158 0.907672
O O11 0.788426 0.211575 0.083334
O O12 0.651389 0.033563 0.111130
O O13 0.679135 0.109009 0.974899
#
# Coordination Sequence:
#
# PCOD9583364 Si02
#       6
#    12  12  12  12  12  12
#     4   9  17  36  57  84 126 153 193 229 304 360
#     4  11  21  37  62  91 118 156 188 251 319 373
#     4  11  23  36  62  90 123 149 198 253 307 354
#     4   9  18  34  59  87 116 159 188 239 291 362
#     4  10  22  39  60  78 117 166 208 234 292 357
#     4  10  23  38  57  85 117 161 205 248 284 364
#
# _framework density 18.313200999999999
#
# number of rings (size 3 to 8) (size 9 to 14) (size 15 to 20)
#    0.000    2.000    3.333    1.500    4.667    3.333 
#    0.000    0.000    0.000    3.000    0.000    0.000 
#    0.000    0.000    0.000    0.000    0.000    0.000 
#
# Total GULP energy -401331.802740 kJ/mol
# GULP energy per Si atom -5574.052816 kJ/mol
# Density = 1.827152 g / cm^3
# Si number density = 18.313201 Si / 1000 Ang^3
#
#
#
# Elastic Constant Matrix: (Units=GPa)
#
#
# Indices 1 2 3 4 5 6 
#
# 1 113.5794 76.4088 26.6116 0.0000 0.0000 0.0000
# 2 76.4088 113.5794 26.6116 0.0000 0.0000 0.0000
# 3 26.6116 26.6116 39.5413 0.0000 0.0000 0.0000
# 4 0.0000 0.0000 0.0000 22.7869 0.0000 0.0000
# 5 0.0000 0.0000 0.0000 0.0000 22.7869 0.0000
# 6 0.0000 0.0000 0.0000 0.0000 0.0000 18.5853
#
#
#
# Elastic Compliance Matrix: (Units=1/GPa)
#
#
# Indices 1 2 3 4 5 6 
#
# 1 0.016695 -0.010208 -0.004365 0.000000 0.000000 0.000000
# 2 -0.010208 0.016695 -0.004365 0.000000 0.000000 0.000000
# 3 -0.004365 -0.004365 0.031166 0.000000 0.000000 0.000000
# 4 0.000000 0.000000 0.000000 0.043885 0.000000 0.000000
# 5 0.000000 0.000000 0.000000 0.000000 0.043885 0.000000
# 6 0.000000 0.000000 0.000000 0.000000 0.000000 0.053806
#
#
# Mechanical properties :
#
#
# Convention : Reuss Voigt Hill
#
# Bulk Modulus (GPa) = 37.48531 58.44048 47.96289
# Shear Modulus (GPa) = 19.77053 21.96968 20.87011
#
# Velocity S-wave (km/s) = 3.28926 3.46737 3.37949
# Velocity P-wave (km/s) = 5.91093 6.92901 6.44012
#
# Compressibility (1/GPa) = 0.02667712
#
# Stress axis : x y z
#
# Youngs Moduli (GPa) = 59.89928 59.89928 32.08632
#
# Poissons Ratio (x) = 0.61147 0.14007
# Poissons Ratio (y) = 0.61147 0.14007
# Poissons Ratio (z) = 0.26148 0.26148
#
# Static dielectric constant tensor:
#      x y z
#    x 1.645820 0.000000 0.000000 
#    y 0.000000 1.645820 0.000000 
#    z 0.000000 0.000000 1.672350 
# 
# From -- ./inp_files/6818.got.cif
#   From: 2010.05.17/outbox.cif.g08.bks.cpg/sg179_4_cif.got.tgz:6818.got - 2010.05.20 11:37:33.
