data_PCOD9583006
_publ_section_title
;
Structure prediction by ZEFSAII (Michael W. Deem and Ramdas Pophale) SiO2 
 PCOD9583006
Probable space group: P 61 2 2
;
_chemical_formula_sum "Si O2"
_cell_formula_units_Z 36
_cell_length_a 11.134185
_cell_length_b 11.134185
_cell_length_c 13.730866
_cell_angle_alpha 90.000000
_cell_angle_beta 90.000000
_cell_angle_gamma 120.000000
_cell_volume 1474.162729
_symmetry_space_group_name_H-M "P 61 2 2"
_symmetry_group_IT_number 178
_symmetry_cell_setting 'hexagonal'
loop_
_space_group_symop_operation_xyz
x,y,z
x-y,x,1/6+z
-y,x-y,1/3+z
-x,-y,1/2+z
-x+y,-x,2/3+z
y,-x+y,5/6+z
x-y,-y,-z
-x,-x+y,2/3-z
y,x,1/3-z
-y,-x,5/6-z
-x+y,y,1/2-z
x,x-y,1/6-z
loop_
_atom_site_type_symbol
_atom_site_label
_atom_site_fract_x
_atom_site_fract_y
_atom_site_fract_z
Si Si1 0.709375 0.080825 0.687713
Si Si2 0.978745 0.295868 0.937832
Si Si3 0.729405 0.504687 0.854293
O O1 0.875620 0.182779 0.699288
O O2 0.679673 0.146186 0.592974
O O3 0.660311 0.075346 0.800233
O O4 0.645280 0.919004 0.664782
O O5 0.000000 0.370191 0.833334
O O6 0.861913 0.138088 0.916667
O O7 0.595086 0.404915 0.916667
O O8 0.718308 0.436615 0.750000
#
# Coordination Sequence:
#
# PCOD9583006 Si02
#       3
#    12  12  12
#     4   9  19  38  61  89 123 156 196 253 309 363
#     4   8  14  30  58  94 128 155 191 237 298 370
#     4  11  24  44  64  87 120 161 213 264 320 381
#
# _framework density 24.420643999999999
#
# number of rings (size 3 to 8) (size 9 to 14) (size 15 to 20)
#    0.000    2.667    0.000    1.000    0.000    1.333 
#    0.000   73.333    0.000    0.000    0.000    0.000 
#    0.000    0.000    0.000    0.000    0.000    0.000 
#
# Total GULP energy -200570.184598 kJ/mol
# GULP energy per Si atom -5571.394017 kJ/mol
# Density = 2.436506 g / cm^3
# Si number density = 24.420644 Si / 1000 Ang^3
#
#
#
# Elastic Constant Matrix: (Units=GPa)
#
#
# Indices 1 2 3 4 5 6 
#
# 1 74.7367 37.6865 60.7335 0.0000 0.0000 0.0000
# 2 37.6865 74.7367 60.7335 0.0000 0.0000 0.0000
# 3 60.7335 60.7335 239.4530 0.0000 0.0000 0.0000
# 4 0.0000 0.0000 0.0000 40.4920 0.0000 0.0000
# 5 0.0000 0.0000 0.0000 0.0000 40.4920 0.0000
# 6 0.0000 0.0000 0.0000 0.0000 0.0000 18.5251
#
#
#
# Elastic Compliance Matrix: (Units=1/GPa)
#
#
# Indices 1 2 3 4 5 6 
#
# 1 0.019622 -0.007369 -0.003108 0.000000 0.000000 0.000000
# 2 -0.007369 0.019622 -0.003108 0.000000 0.000000 0.000000
# 3 -0.003108 -0.003108 0.005753 0.000000 0.000000 0.000000
# 4 0.000000 0.000000 0.000000 0.024696 0.000000 0.000000
# 5 0.000000 0.000000 0.000000 0.000000 0.024696 0.000000
# 6 0.000000 0.000000 0.000000 0.000000 0.000000 0.053981
#
#
# Mechanical properties :
#
#
# Convention : Reuss Voigt Hill
#
# Bulk Modulus (GPa) = 56.09420 78.58150 67.33785
# Shear Modulus (GPa) = 27.55127 35.22001 31.38564
#
# Velocity S-wave (km/s) = 3.36251 3.80178 3.58887
# Velocity P-wave (km/s) = 6.17212 7.17771 6.69383
#
# Compressibility (1/GPa) = 0.01782716
#
# Stress axis : x y z
#
# Youngs Moduli (GPa) = 50.96442 50.96442 173.83371
#
# Poissons Ratio (x) = 0.37555 0.54022
# Poissons Ratio (y) = 0.37555 0.54022
# Poissons Ratio (z) = 0.15838 0.15838
#
# Static dielectric constant tensor:
#      x y z
#    x 1.927410 0.000000 0.000000 
#    y 0.000000 1.927410 0.000000 
#    z 0.000000 0.000000 2.060180 
# 
# From -- ./inp_files/5096.got.cif
#   From: 2010.05.17/outbox.cif.g08.bks.cpg/sg178_3_cif.got.tgz:5096.got - 2010.05.20 11:30:59.
