data_PCOD9583784
_publ_section_title
;
Structure prediction by ZEFSAII (Michael W. Deem and Ramdas Pophale) SiO2 
 PCOD9583784
Probable space group: P 62 2 2
;
_chemical_formula_sum "Si O2"
_cell_formula_units_Z 96
_cell_length_a 14.135502
_cell_length_b 14.135502
_cell_length_c 29.124245
_cell_angle_alpha 90.000000
_cell_angle_beta 90.000000
_cell_angle_gamma 120.000000
_cell_volume 5039.735921
_symmetry_space_group_name_H-M "P 62 2 2"
_symmetry_group_IT_number 180
_symmetry_cell_setting 'hexagonal'
loop_
_space_group_symop_operation_xyz
x,y,z
x-y,x,1/3+z
-y,x-y,2/3+z
-x,-y,z
-x+y,-x,1/3+z
y,-x+y,2/3+z
x-y,-y,-z
-x,-x+y,1/3-z
y,x,2/3-z
-y,-x,2/3-z
-x+y,y,-z
x,x-y,1/3-z
loop_
_atom_site_type_symbol
_atom_site_label
_atom_site_fract_x
_atom_site_fract_y
_atom_site_fract_z
Si Si1 0.590855 0.617015 0.777333
Si Si2 0.383584 0.495968 0.465899
Si Si3 0.331550 0.544115 0.568392
Si Si4 0.230228 0.977403 0.849293
Si Si5 0.961834 0.872827 0.949950
Si Si6 0.693571 0.715839 0.080683
Si Si7 0.248737 0.464561 0.054421
Si Si8 0.816661 0.049550 0.551012
O O1 0.500000 0.500000 0.759737
O O2 0.599337 0.599337 0.833334
O O3 0.563927 0.707442 0.754781
O O4 0.715071 0.657995 0.762895
O O5 0.500000 0.500000 0.458656
O O6 0.375281 0.534332 0.517586
O O7 0.332467 0.555469 0.435687
O O8 0.287202 0.370257 0.460649
O O9 0.305533 0.428326 0.590714
O O10 0.426116 0.648825 0.592846
O O11 0.107482 0.892519 0.833334
O O12 0.293176 0.012619 0.800853
O O13 0.236451 0.073385 0.879383
O O14 0.865831 0.825568 0.913470
O O15 0.047670 0.834942 0.936702
O O16 0.914847 0.829693 0.000000
O O17 0.000000 0.000000 0.949711
O O18 0.718839 0.629657 0.056953
O O19 0.239056 0.478112 0.000000
O O20 0.789161 0.000000 0.500000
#
# Coordination Sequence:
#
# PCOD9583784 Si02
#       8
#    12  12  12  12  12  12  12  12
#     4  10  23  42  61  89 124 163 213 271 333 396
#     4  10  20  36  63  97 127 159 205 269 333 381
#     4  10  22  39  64  95 126 168 213 270 328 386
#     4  11  19  34  58  96 128 154 206 260 312 394
#     4  11  23  36  55  87 128 166 202 253 323 392
#     4  11  19  39  62  88 124 163 211 268 319 381
#     4  12  25  42  64  91 126 172 226 275 325 402
#     4  11  21  34  58  89 117 162 198 251 325 371
#
# _framework density 19.048618999999999
#
# number of rings (size 3 to 8) (size 9 to 14) (size 15 to 20)
#    0.000    1.250    5.000    3.750    0.000    4.000 
#    0.000    0.000    0.000    0.375    0.000    0.000 
#    0.000    0.000    0.000    0.000    0.000    0.000 
#
# Total GULP energy -534443.364927 kJ/mol
# GULP energy per Si atom -5567.118385 kJ/mol
# Density = 1.900526 g / cm^3
# Si number density = 19.048619 Si / 1000 Ang^3
#
#
#
# Elastic Constant Matrix: (Units=GPa)
#
#
# Indices 1 2 3 4 5 6 
#
# 1 123.9411 51.2260 36.4236 0.0000 0.0000 0.0000
# 2 51.2260 123.9411 36.4236 0.0000 0.0000 0.0000
# 3 36.4236 36.4236 69.9859 0.0000 0.0000 0.0000
# 4 0.0000 0.0000 0.0000 47.5089 0.0000 0.0000
# 5 0.0000 0.0000 0.0000 0.0000 47.5089 0.0000
# 6 0.0000 0.0000 0.0000 0.0000 0.0000 36.3576
#
#
#
# Elastic Compliance Matrix: (Units=1/GPa)
#
#
# Indices 1 2 3 4 5 6 
#
# 1 0.010519 -0.003233 -0.003792 0.000000 0.000000 0.000000
# 2 -0.003233 0.010519 -0.003792 0.000000 0.000000 0.000000
# 3 -0.003792 -0.003792 0.018235 0.000000 0.000000 0.000000
# 4 0.000000 0.000000 0.000000 0.021049 0.000000 0.000000
# 5 0.000000 0.000000 0.000000 0.000000 0.021049 0.000000
# 6 0.000000 0.000000 0.000000 0.000000 0.000000 0.027505
#
#
# Mechanical properties :
#
#
# Convention : Reuss Voigt Hill
#
# Bulk Modulus (GPa) = 56.69039 62.89052 59.79046
# Shear Modulus (GPa) = 36.65980 39.19471 37.92726
#
# Velocity S-wave (km/s) = 4.39172 4.54101 4.46699
# Velocity P-wave (km/s) = 7.45263 7.78344 7.61983
#
# Compressibility (1/GPa) = 0.01763967
#
# Stress axis : x y z
#
# Youngs Moduli (GPa) = 95.06584 95.06584 54.83832
#
# Poissons Ratio (x) = 0.30737 0.20794
# Poissons Ratio (y) = 0.30737 0.20794
# Poissons Ratio (z) = 0.36047 0.36047
#
# Static dielectric constant tensor:
#      x y z
#    x 1.738150 0.000000 0.000000 
#    y 0.000000 1.738150 0.000000 
#    z 0.000000 0.000000 1.685770 
# 
# From -- ./inp_files/11475.got.cif
#   From: 2010.05.17/outbox.cif.g08.bks.cpg/sg180_6_cif.got.tgz:11475.got - 2010.05.20 11:43:55.
