data_PCOD9583484
_publ_section_title
;
Structure prediction by ZEFSAII (Michael W. Deem and Ramdas Pophale) SiO2 
 PCOD9583484
Probable space group: P 65 2 2
;
_chemical_formula_sum "Si O2"
_cell_formula_units_Z 42
_cell_length_a 13.940554
_cell_length_b 13.940554
_cell_length_c 12.263944
_cell_angle_alpha 90.000000
_cell_angle_beta 90.000000
_cell_angle_gamma 120.000000
_cell_volume 2064.053056
_symmetry_space_group_name_H-M "P 65 2 2"
_symmetry_group_IT_number 179
_symmetry_cell_setting 'hexagonal'
loop_
_space_group_symop_operation_xyz
x,y,z
x-y,x,5/6+z
-y,x-y,2/3+z
-x,-y,1/2+z
-x+y,-x,1/3+z
y,-x+y,1/6+z
x-y,-y,-z
-x,-x+y,1/3-z
y,x,2/3-z
-y,-x,1/6-z
-x+y,y,1/2-z
x,x-y,5/6-z
loop_
_atom_site_type_symbol
_atom_site_label
_atom_site_fract_x
_atom_site_fract_y
_atom_site_fract_z
Si Si1 0.700572 0.401144 0.750000
Si Si2 0.987564 0.290004 0.409157
Si Si3 0.094351 0.905650 0.583334
Si Si4 0.903746 0.096255 0.583334
Si Si5 0.751241 0.527946 0.525832
O O1 0.752461 0.475264 0.642636
O O2 0.749888 0.321457 0.776832
O O3 0.050041 0.256288 0.318769
O O4 0.090226 0.402386 0.455996
O O5 0.942256 0.204487 0.509836
O O6 0.876579 0.274961 0.352263
O O7 0.000000 0.884586 0.666667
O O8 0.000000 0.120747 0.666667
#
# Coordination Sequence:
#
# PCOD9583484 Si02
#       5
#     6  12   6   6  12
#     4  10  27  50  77  98 141 186 271 296 362 404
#     4  12  25  43  75 107 150 184 242 284 378 430
#     4  12  23  39  64 112 156 190 223 283 342 464
#     4  12  24  43  61 112 159 190 228 283 352 464
#     4  11  25  51  73 109 139 193 235 314 353 447
#
# _framework density 20.348314999999999
#
# number of rings (size 3 to 8) (size 9 to 14) (size 15 to 20)
#    0.000    0.571    5.714    0.857    0.000   10.286 
#    0.000    8.571    0.000    0.000    0.000    0.000 
#    0.000    0.000    0.000    0.000    0.000    0.000 
#
# Total GULP energy -234806.846856 kJ/mol
# GULP energy per Si atom -5590.639211 kJ/mol
# Density = 2.030200 g / cm^3
# Si number density = 20.348315 Si / 1000 Ang^3
#
#
#
# Elastic Constant Matrix: (Units=GPa)
#
#
# Indices 1 2 3 4 5 6 
#
# 1 -601.9804 834.2297 72.6914 0.0000 0.0000 0.0000
# 2 834.2297 -601.9804 72.6914 0.0000 0.0000 0.0000
# 3 72.6914 72.6914 124.1582 0.0000 0.0000 0.0000
# 4 0.0000 0.0000 0.0000 43.7362 0.0000 0.0000
# 5 0.0000 0.0000 0.0000 0.0000 43.7362 0.0000
# 6 0.0000 0.0000 0.0000 0.0000 0.0000 -718.1050
#
#
#
# Elastic Compliance Matrix: (Units=1/GPa)
#
#
# Indices 1 2 3 4 5 6 
#
# 1 0.003050 0.003746 -0.003979 0.000000 0.000000 0.000000
# 2 0.003746 0.003050 -0.003979 0.000000 0.000000 0.000000
# 3 -0.003979 -0.003979 0.012714 0.000000 0.000000 0.000000
# 4 0.000000 0.000000 0.000000 0.022864 0.000000 0.000000
# 5 0.000000 0.000000 0.000000 0.000000 0.022864 0.000000
# 6 0.000000 0.000000 0.000000 0.000000 0.000000 -0.001393
#
#
# Mechanical properties :
#
#
# Convention : Reuss Voigt Hill
#
# Bulk Modulus (GPa) = 96.24641 97.71361 96.98001
# Shear Modulus (GPa) = 66.63316 -263.42085 -98.39385
#
# Velocity S-wave (km/s) = 5.72864 -11.39021 -6.96130
# Velocity P-wave (km/s) = 9.54770 11.17398 4.10482
#
# Compressibility (1/GPa) = 0.01039000
#
# Stress axis : x y z
#
# Youngs Moduli (GPa) = 327.84888 327.84888 78.65497
#
# Poissons Ratio (x) = -1.22827 0.31299
# Poissons Ratio (y) = -1.22827 0.31299
# Poissons Ratio (z) = 1.30460 1.30460
#
# Static dielectric constant tensor:
#      x y z
#    x 1.715260 0.000000 0.000000 
#    y 0.000000 1.715260 0.000000 
#    z 0.000000 0.000000 1.700420 
# 
# From -- ./inp_files/4158.got.cif
#   From: 2010.05.17/outbox.cif.g08.bks.cpg/sg179_3_cif.got.tgz:4158.got - 2010.05.20 11:37:33.
