data_PCOD9583414
_publ_section_title
;
Structure prediction by ZEFSAII (Michael W. Deem and Ramdas Pophale) SiO2 
 PCOD9583414
Probable space group: P 65 2 2
;
_chemical_formula_sum "Si O2"
_cell_formula_units_Z 42
_cell_length_a 16.455487
_cell_length_b 16.455487
_cell_length_c 9.065065
_cell_angle_alpha 90.000000
_cell_angle_beta 90.000000
_cell_angle_gamma 120.000000
_cell_volume 2125.803089
_symmetry_space_group_name_H-M "P 65 2 2"
_symmetry_group_IT_number 179
_symmetry_cell_setting 'hexagonal'
loop_
_space_group_symop_operation_xyz
x,y,z
x-y,x,5/6+z
-y,x-y,2/3+z
-x,-y,1/2+z
-x+y,-x,1/3+z
y,-x+y,1/6+z
x-y,-y,-z
-x,-x+y,1/3-z
y,x,2/3-z
-y,-x,1/6-z
-x+y,y,1/2-z
x,x-y,5/6-z
loop_
_atom_site_type_symbol
_atom_site_label
_atom_site_fract_x
_atom_site_fract_y
_atom_site_fract_z
Si Si1 0.459085 0.459085 0.833334
Si Si2 0.169190 0.499755 0.171145
Si Si3 0.350559 0.307760 0.582567
Si Si4 0.622064 0.786332 0.583604
O O1 0.459164 0.557815 0.821724
O O2 0.412658 0.398631 0.686189
O O3 0.272370 0.544739 0.250000
O O4 0.101429 0.408963 0.273837
O O5 0.186481 0.469522 0.011447
O O6 0.332354 0.219579 0.677111
O O7 0.257433 0.311679 0.559327
O O8 0.600814 0.800407 0.416667
#
# Coordination Sequence:
#
# PCOD9583414 Si02
#       4
#     6  12  12  12
#     4  12  20  38  68  86 128 174 220 270 348 406
#     4  10  23  37  59  89 122 163 220 269 330 395
#     4  11  22  37  64  89 125 166 224 266 335 410
#     4  11  20  38  57  92 117 159 212 271 316 409
#
# _framework density 19.757239999999999
#
# number of rings (size 3 to 8) (size 9 to 14) (size 15 to 20)
#    0.000    1.143    5.714    0.857    0.000    0.000 
#    0.000    0.000   25.143    0.000    0.000   34.000 
#    0.000    0.000    0.000    0.000    0.000    0.000 
#
# Total GULP energy -234157.010271 kJ/mol
# GULP energy per Si atom -5575.166911 kJ/mol
# Density = 1.971227 g / cm^3
# Si number density = 19.757240 Si / 1000 Ang^3
#
#
#
# Elastic Constant Matrix: (Units=GPa)
#
#
# Indices 1 2 3 4 5 6 
#
# 1 107.5737 7.7197 2.7443 0.0000 0.0000 0.0000
# 2 7.7197 107.5737 2.7443 0.0000 0.0000 0.0000
# 3 2.7443 2.7443 85.2110 0.0000 0.0000 0.0000
# 4 0.0000 0.0000 0.0000 20.8968 0.0000 0.0000
# 5 0.0000 0.0000 0.0000 0.0000 20.8968 0.0000
# 6 0.0000 0.0000 0.0000 0.0000 0.0000 49.9270
#
#
#
# Elastic Compliance Matrix: (Units=1/GPa)
#
#
# Indices 1 2 3 4 5 6 
#
# 1 0.009351 -0.000664 -0.000280 0.000000 0.000000 0.000000
# 2 -0.000664 0.009351 -0.000280 0.000000 0.000000 0.000000
# 3 -0.000280 -0.000280 0.011754 0.000000 0.000000 0.000000
# 4 0.000000 0.000000 0.000000 0.047854 0.000000 0.000000
# 5 0.000000 0.000000 0.000000 0.000000 0.047854 0.000000
# 6 0.000000 0.000000 0.000000 0.000000 0.000000 0.020029
#
#
# Mechanical properties :
#
#
# Convention : Reuss Voigt Hill
#
# Bulk Modulus (GPa) = 35.70381 36.30832 36.00606
# Shear Modulus (GPa) = 31.65041 37.48745 34.56893
#
# Velocity S-wave (km/s) = 4.00680 4.36064 4.18746
# Velocity P-wave (km/s) = 6.28621 6.61595 6.45318
#
# Compressibility (1/GPa) = 0.02800822
#
# Stress axis : x y z
#
# Youngs Moduli (GPa) = 106.94352 106.94352 85.08032
#
# Poissons Ratio (x) = 0.07100 0.02380
# Poissons Ratio (y) = 0.07100 0.02380
# Poissons Ratio (z) = 0.02992 0.02992
#
# Static dielectric constant tensor:
#      x y z
#    x 1.714880 0.000000 0.000000 
#    y 0.000000 1.714880 0.000000 
#    z 0.000000 0.000000 1.769590 
# 
# From -- ./inp_files/2417.got.cif
#   From: 2010.05.17/outbox.cif.g08.bks.cpg/sg179_2_cif.got.tgz:2417.got - 2010.05.20 11:37:33.
