data_PCOD9583920
_publ_section_title
;
Structure prediction by ZEFSAII (Michael W. Deem and Ramdas Pophale) SiO2 
 PCOD9583920
Probable space group: P 62 2 2
;
_chemical_formula_sum "Si O2"
_cell_formula_units_Z 78
_cell_length_a 17.205863
_cell_length_b 17.205863
_cell_length_c 19.295431
_cell_angle_alpha 90.000000
_cell_angle_beta 90.000000
_cell_angle_gamma 120.000000
_cell_volume 4946.955875
_symmetry_space_group_name_H-M "P 62 2 2"
_symmetry_group_IT_number 180
_symmetry_cell_setting 'hexagonal'
loop_
_space_group_symop_operation_xyz
x,y,z
x-y,x,1/3+z
-y,x-y,2/3+z
-x,-y,z
-x+y,-x,1/3+z
y,-x+y,2/3+z
x-y,-y,-z
-x,-x+y,1/3-z
y,x,2/3-z
-y,-x,2/3-z
-x+y,y,-z
x,x-y,1/3-z
loop_
_atom_site_type_symbol
_atom_site_label
_atom_site_fract_x
_atom_site_fract_y
_atom_site_fract_z
Si Si1 0.855795 0.321675 0.846486
Si Si2 0.603199 0.581485 0.756084
Si Si3 0.304254 0.695746 0.333334
Si Si4 0.459587 0.098473 0.023873
Si Si5 0.529926 0.330295 0.534835
Si Si6 0.017692 0.602337 0.393064
Si Si7 0.267490 0.769241 0.611462
O O1 0.779141 0.220860 0.833334
O O2 0.902377 0.359427 0.773024
O O3 0.811070 0.382169 0.864122
O O4 0.928565 0.337211 0.904499
O O5 0.500000 0.500000 0.759550
O O6 0.623409 0.623409 0.833334
O O7 0.604673 0.635043 0.686489
O O8 0.671955 0.546381 0.737708
O O9 0.282780 0.733618 0.264920
O O10 0.261261 0.590351 0.319407
O O11 0.557415 0.114829 0.000000
O O12 0.447335 0.177515 0.990925
O O13 0.386953 0.000000 0.000000
O O14 0.447792 0.344083 0.558066
O O15 0.517799 0.281353 0.462327
O O16 0.000000 0.500000 0.391056
#
# Coordination Sequence:
#
# PCOD9583920 Si02
#       7
#    12  12   6  12  12  12  12
#     4  11  19  33  49  69  94 127 164 213 271 314
#     4  10  22  35  51  64  96 135 177 223 268 315
#     4  12  22  30  47  68  98 124 174 226 269 300
#     4  11  21  33  51  74 103 133 166 222 281 323
#     4  11  22  30  48  66  94 123 167 220 262 305
#     4   9  19  34  46  65  91 126 161 208 263 317
#     4  12  21  35  49  74  97 130 183 225 271 320
#
# _framework density 15.767272999999999
#
# number of rings (size 3 to 8) (size 9 to 14) (size 15 to 20)
#    0.000    1.231    2.308    6.923   10.769    0.000 
#    0.000    0.000    0.000    0.000    0.000    0.000 
#    0.000    0.000    0.000    0.000    0.000   50.769 
#
# Total GULP energy -435257.274959 kJ/mol
# GULP energy per Si atom -5580.221474 kJ/mol
# Density = 1.573139 g / cm^3
# Si number density = 15.767273 Si / 1000 Ang^3
#
#
#
# Elastic Constant Matrix: (Units=GPa)
#
#
# Indices 1 2 3 4 5 6 
#
# 1 46.0255 22.1527 9.8631 0.0000 0.0000 0.0000
# 2 22.1527 46.0255 9.8631 0.0000 0.0000 0.0000
# 3 9.8631 9.8631 119.4764 0.0000 0.0000 0.0000
# 4 0.0000 0.0000 0.0000 24.7090 0.0000 0.0000
# 5 0.0000 0.0000 0.0000 0.0000 24.7090 0.0000
# 6 0.0000 0.0000 0.0000 0.0000 0.0000 11.9364
#
#
#
# Elastic Compliance Matrix: (Units=1/GPa)
#
#
# Indices 1 2 3 4 5 6 
#
# 1 0.028458 -0.013431 -0.001240 0.000000 0.000000 0.000000
# 2 -0.013431 0.028458 -0.001240 0.000000 0.000000 0.000000
# 3 -0.001240 -0.001240 0.008575 0.000000 0.000000 0.000000
# 4 0.000000 0.000000 0.000000 0.040471 0.000000 0.000000
# 5 0.000000 0.000000 0.000000 0.000000 0.040471 0.000000
# 6 0.000000 0.000000 0.000000 0.000000 0.000000 0.083777
#
#
# Mechanical properties :
#
#
# Convention : Reuss Voigt Hill
#
# Bulk Modulus (GPa) = 29.70400 32.80946 31.25673
# Shear Modulus (GPa) = 18.29790 23.58077 20.93933
#
# Velocity S-wave (km/s) = 3.41030 3.87143 3.64816
# Velocity P-wave (km/s) = 5.86403 6.39044 6.13289
#
# Compressibility (1/GPa) = 0.03366550
#
# Stress axis : x y z
#
# Youngs Moduli (GPa) = 35.14007 35.14007 116.62265
#
# Poissons Ratio (x) = 0.47197 0.14467
# Poissons Ratio (y) = 0.47197 0.14467
# Poissons Ratio (z) = 0.04359 0.04359
#
# Static dielectric constant tensor:
#      x y z
#    x 1.530480 0.000000 0.000000 
#    y 0.000000 1.530480 0.000000 
#    z 0.000000 0.000000 1.581600 
# 
# From -- ./inp_files/7978.got.cif
#   From: 2010.05.17/outbox.cif.g08.bks.cpg/sg180_4_cif.got.tgz:7978.got - 2010.05.20 11:43:55.
