data_PCOD9583152
_publ_section_title
;
Structure prediction by ZEFSAII (Michael W. Deem and Ramdas Pophale) SiO2 
 PCOD9583152
Probable space group: P 65 2 2
;
_chemical_formula_sum "Si O2"
_cell_formula_units_Z 72
_cell_length_a 14.468874
_cell_length_b 14.468874
_cell_length_c 16.583288
_cell_angle_alpha 90.000000
_cell_angle_beta 90.000000
_cell_angle_gamma 120.000000
_cell_volume 3006.566016
_symmetry_space_group_name_H-M "P 65 2 2"
_symmetry_group_IT_number 179
_symmetry_cell_setting 'hexagonal'
loop_
_space_group_symop_operation_xyz
x,y,z
x-y,x,5/6+z
-y,x-y,2/3+z
-x,-y,1/2+z
-x+y,-x,1/3+z
y,-x+y,1/6+z
x-y,-y,-z
-x,-x+y,1/3-z
y,x,2/3-z
-y,-x,1/6-z
-x+y,y,1/2-z
x,x-y,5/6-z
loop_
_atom_site_type_symbol
_atom_site_label
_atom_site_fract_x
_atom_site_fract_y
_atom_site_fract_z
Si Si1 0.597452 0.000000 0.000000
Si Si2 0.169080 0.626395 0.238258
Si Si3 0.443338 0.886676 0.750000
Si Si4 0.248348 0.496696 0.750000
Si Si5 0.990789 0.295471 0.582449
Si Si6 0.034177 0.068353 0.250000
Si Si7 0.286974 0.091070 0.599236
Si Si8 0.307100 0.009923 0.257208
O O1 0.487839 0.900860 0.970668
O O2 0.683785 0.035427 0.930682
O O3 0.182284 0.602809 0.333157
O O4 0.256286 0.700919 0.169677
O O5 0.087110 0.670773 0.245812
O O6 0.571914 0.965251 0.754198
O O7 0.295286 0.416337 0.741193
O O8 0.000000 0.246771 0.666667
O O9 0.000275 0.253570 0.496651
O O10 0.005164 0.005164 0.333334
O O11 0.161475 0.142160 0.246404
O O12 0.321746 0.197997 0.549624
O O13 0.312901 0.091158 0.693554
#
# Coordination Sequence:
#
# PCOD9583152 Si02
#       8
#     6  12   6   6  12   6  12  12
#     4  12  20  42  66  96 128 182 240 282 350 438
#     4  10  20  38  63 101 134 181 240 295 351 432
#     4  10  22  42  65  96 143 177 236 302 339 434
#     4  10  18  36  66  98 134 188 226 299 361 414
#     4   9  20  36  60  93 138 182 231 287 348 425
#     4  12  24  48  71 104 139 183 230 309 370 452
#     4  12  24  41  72  97 133 184 239 297 373 434
#     4  11  24  40  65 101 135 186 241 297 361 439
#
# _framework density 23.947586000000001
#
# number of rings (size 3 to 8) (size 9 to 14) (size 15 to 20)
#    0.000    1.333    6.667    0.000    7.000    0.000 
#    0.000    2.500    0.000    2.000    0.000    0.000 
#    0.000    0.000    0.000    0.000    0.000    0.000 
#
# Total GULP energy -401248.673810 kJ/mol
# GULP energy per Si atom -5572.898247 kJ/mol
# Density = 2.389308 g / cm^3
# Si number density = 23.947586 Si / 1000 Ang^3
#
#
#
# Elastic Constant Matrix: (Units=GPa)
#
#
# Indices 1 2 3 4 5 6 
#
# 1 100.1978 8.0572 21.9604 0.0000 0.0000 0.0000
# 2 8.0572 100.1978 21.9604 0.0000 0.0000 0.0000
# 3 21.9604 21.9604 176.3528 0.0000 0.0000 0.0000
# 4 0.0000 0.0000 0.0000 14.0341 0.0000 0.0000
# 5 0.0000 0.0000 0.0000 0.0000 14.0341 0.0000
# 6 0.0000 0.0000 0.0000 0.0000 0.0000 46.0703
#
#
#
# Elastic Compliance Matrix: (Units=1/GPa)
#
#
# Indices 1 2 3 4 5 6 
#
# 1 0.010291 -0.000562 -0.001212 0.000000 0.000000 0.000000
# 2 -0.000562 0.010291 -0.001212 0.000000 0.000000 0.000000
# 3 -0.001212 -0.001212 0.005972 0.000000 0.000000 0.000000
# 4 0.000000 0.000000 0.000000 0.071255 0.000000 0.000000
# 5 0.000000 0.000000 0.000000 0.000000 0.071255 0.000000
# 6 0.000000 0.000000 0.000000 0.000000 0.000000 0.021706
#
#
# Mechanical properties :
#
#
# Convention : Reuss Voigt Hill
#
# Bulk Modulus (GPa) = 48.58119 53.41163 50.99641
# Shear Modulus (GPa) = 24.55782 36.47908 30.51845
#
# Velocity S-wave (km/s) = 3.20579 3.90717 3.57373
# Velocity P-wave (km/s) = 5.83381 6.53503 6.19435
#
# Compressibility (1/GPa) = 0.02058410
#
# Stress axis : x y z
#
# Youngs Moduli (GPa) = 97.17251 97.17251 167.44312
#
# Poissons Ratio (x) = 0.05461 0.20286
# Poissons Ratio (y) = 0.05461 0.20286
# Poissons Ratio (z) = 0.11773 0.11773
#
# Static dielectric constant tensor:
#      x y z
#    x 1.906130 0.000000 0.000000 
#    y 0.000000 1.906130 0.000000 
#    z 0.000000 0.000000 2.215850 
# 
# From -- ./inp_files/6907.got.cif
#   From: 2010.05.17/outbox.cif.g08.bks.cpg/sg179_4_cif.got.tgz:6907.got - 2010.05.20 11:37:33.
