data_PCOD9583469
_publ_section_title
;
Structure prediction by ZEFSAII (Michael W. Deem and Ramdas Pophale) SiO2 
 PCOD9583469
Probable space group: P 65 2 2
;
_chemical_formula_sum "Si O2"
_cell_formula_units_Z 54
_cell_length_a 11.773274
_cell_length_b 11.773274
_cell_length_c 19.701434
_cell_angle_alpha 90.000000
_cell_angle_beta 90.000000
_cell_angle_gamma 120.000000
_cell_volume 2364.955497
_symmetry_space_group_name_H-M "P 65 2 2"
_symmetry_group_IT_number 179
_symmetry_cell_setting 'hexagonal'
loop_
_space_group_symop_operation_xyz
x,y,z
x-y,x,5/6+z
-y,x-y,2/3+z
-x,-y,1/2+z
-x+y,-x,1/3+z
y,-x+y,1/6+z
x-y,-y,-z
-x,-x+y,1/3-z
y,x,2/3-z
-y,-x,1/6-z
-x+y,y,1/2-z
x,x-y,5/6-z
loop_
_atom_site_type_symbol
_atom_site_label
_atom_site_fract_x
_atom_site_fract_y
_atom_site_fract_z
Si Si1 0.189104 0.555097 0.612308
Si Si2 0.625143 0.000000 0.000000
Si Si3 0.169427 0.379532 0.423749
Si Si4 0.006647 0.993354 0.083334
Si Si5 0.677485 0.322516 0.583334
Si Si6 0.188018 0.298794 0.563127
O O1 0.315053 0.684948 0.583334
O O2 0.061722 0.572368 0.609478
O O3 0.225233 0.558901 0.691433
O O4 0.172117 0.421564 0.583164
O O5 0.638741 0.878300 0.025026
O O6 0.256459 0.531179 0.442572
O O7 0.184355 0.294594 0.482051
O O8 0.015619 0.325278 0.417295
O O9 0.000000 0.038394 0.166667
O O10 0.927605 0.837072 0.091510
#
# Coordination Sequence:
#
# PCOD9583469 Si02
#       6
#    12   6  12   6   6  12
#     4  11  25  48  71 106 142 191 251 309 380 465
#     4  10  28  44  72 102 154 196 248 310 404 464
#     4  11  26  43  72 106 143 200 245 323 376 471
#     4  12  28  51  72 116 155 210 268 318 396 472
#     4  10  24  47  68 106 141 190 252 310 392 448
#     4  12  27  44  76 105 152 197 255 319 382 465
#
# _framework density 22.833409
#
# number of rings (size 3 to 8) (size 9 to 14) (size 15 to 20)
#    0.000    0.889    4.444    0.000   10.889    4.444 
#    0.000    0.000    0.000    0.000    0.000    0.000 
#    0.000    0.000    0.000    0.000    0.000    0.000 
#
# Total GULP energy -300891.315997 kJ/mol
# GULP energy per Si atom -5572.061407 kJ/mol
# Density = 2.278144 g / cm^3
# Si number density = 22.833409 Si / 1000 Ang^3
#
#
#
# Elastic Constant Matrix: (Units=GPa)
#
#
# Indices 1 2 3 4 5 6 
#
# 1 92.5671 21.4321 1.7034 0.0000 0.0000 0.0000
# 2 21.4321 92.5671 1.7034 0.0000 0.0000 0.0000
# 3 1.7034 1.7034 72.7956 0.0000 0.0000 0.0000
# 4 0.0000 0.0000 0.0000 25.8814 0.0000 0.0000
# 5 0.0000 0.0000 0.0000 0.0000 25.8814 0.0000
# 6 0.0000 0.0000 0.0000 0.0000 0.0000 35.5675
#
#
#
# Elastic Compliance Matrix: (Units=1/GPa)
#
#
# Indices 1 2 3 4 5 6 
#
# 1 0.011418 -0.002640 -0.000205 0.000000 0.000000 0.000000
# 2 -0.002640 0.011418 -0.000205 0.000000 0.000000 0.000000
# 3 -0.000205 -0.000205 0.013747 0.000000 0.000000 0.000000
# 4 0.000000 0.000000 0.000000 0.038638 0.000000 0.000000
# 5 0.000000 0.000000 0.000000 0.000000 0.038638 0.000000
# 6 0.000000 0.000000 0.000000 0.000000 0.000000 0.028116
#
#
# Mechanical properties :
#
#
# Convention : Reuss Voigt Hill
#
# Bulk Modulus (GPa) = 32.80696 34.17863 33.49279
# Shear Modulus (GPa) = 31.59848 33.00545 32.30196
#
# Velocity S-wave (km/s) = 3.72408 3.80608 3.76530
# Velocity P-wave (km/s) = 5.73505 5.85801 5.79685
#
# Compressibility (1/GPa) = 0.03048134
#
# Stress axis : x y z
#
# Youngs Moduli (GPa) = 87.58137 87.58137 72.74471
#
# Poissons Ratio (x) = 0.23120 0.01494
# Poissons Ratio (y) = 0.23120 0.01494
# Poissons Ratio (z) = 0.01799 0.01799
#
# Static dielectric constant tensor:
#      x y z
#    x 1.844980 0.000000 0.000000 
#    y 0.000000 1.844980 0.000000 
#    z 0.000000 0.000000 2.015570 
# 
# From -- ./inp_files/7461.got.cif
#   From: 2010.05.17/outbox.cif.g08.bks.cpg/sg179_4_cif.got.tgz:7461.got - 2010.05.20 11:37:33.
