data_PCOD9583680
_publ_section_title
;
Structure prediction by ZEFSAII (Michael W. Deem and Ramdas Pophale) SiO2 
 PCOD9583680
Probable space group: P 62 2 2
;
_chemical_formula_sum "Si O2"
_cell_formula_units_Z 33
_cell_length_a 16.534195
_cell_length_b 16.534195
_cell_length_c 6.151486
_cell_angle_alpha 90.000000
_cell_angle_beta 90.000000
_cell_angle_gamma 120.000000
_cell_volume 1456.386961
_symmetry_space_group_name_H-M "P 62 2 2"
_symmetry_group_IT_number 180
_symmetry_cell_setting 'hexagonal'
loop_
_space_group_symop_operation_xyz
x,y,z
x-y,x,1/3+z
-y,x-y,2/3+z
-x,-y,z
-x+y,-x,1/3+z
y,-x+y,2/3+z
x-y,-y,-z
-x,-x+y,1/3-z
y,x,2/3-z
-y,-x,2/3-z
-x+y,y,-z
x,x-y,1/3-z
loop_
_atom_site_type_symbol
_atom_site_label
_atom_site_fract_x
_atom_site_fract_y
_atom_site_fract_z
Si Si1 0.500000 0.500000 0.833334
Si Si2 0.083762 0.419891 0.843233
Si Si3 0.617970 0.382031 0.333334
Si Si4 0.083429 0.916572 0.833334
Si Si5 0.000000 0.251889 0.166667
O O1 0.521037 0.582991 0.678605
O O2 0.172962 0.506766 0.729959
O O3 0.000000 0.369308 0.666667
O O4 0.070990 0.337623 0.009252
O O5 0.616360 0.308180 0.166667
O O6 0.000000 0.893221 0.666667
O O7 0.169990 0.942819 0.673430
#
# Coordination Sequence:
#
# PCOD9583680 Si02
#       5
#     3  12   6   6   6
#     4  10  18  40  84  98 136 204 262 334 392 454
#     4  11  23  51  78 108 156 211 273 329 407 471
#     4  12  29  50  70 118 162 216 267 340 400 462
#     4  12  28  57  80 129 162 205 254 326 415 496
#     4  11  28  50  88 117 158 214 266 335 401 503
#
# _framework density 22.658812999999999
#
# number of rings (size 3 to 8) (size 9 to 14) (size 15 to 20)
#    0.000    0.727    3.636    2.182    2.545    3.636 
#   32.727    0.000    0.000    0.000    0.000    0.000 
#    0.000    0.000    0.000    0.000    0.000    0.000 
#
# Total GULP energy -183852.753247 kJ/mol
# GULP energy per Si atom -5571.295553 kJ/mol
# Density = 2.260724 g / cm^3
# Si number density = 22.658813 Si / 1000 Ang^3
#
#
#
# Elastic Constant Matrix: (Units=GPa)
#
#
# Indices 1 2 3 4 5 6 
#
# 1 140.0500 94.5493 100.5580 0.0000 0.0000 0.0000
# 2 94.5493 140.0500 100.5580 0.0000 0.0000 0.0000
# 3 100.5580 100.5580 207.2023 0.0000 0.0000 0.0000
# 4 0.0000 0.0000 0.0000 590.8628 0.0000 0.0000
# 5 0.0000 0.0000 0.0000 0.0000 590.8628 0.0000
# 6 0.0000 0.0000 0.0000 0.0000 0.0000 22.7504
#
#
#
# Elastic Compliance Matrix: (Units=1/GPa)
#
#
# Indices 1 2 3 4 5 6 
#
# 1 0.014639 -0.007339 -0.003543 0.000000 0.000000 0.000000
# 2 -0.007339 0.014639 -0.003543 0.000000 0.000000 0.000000
# 3 -0.003543 -0.003543 0.008265 0.000000 0.000000 0.000000
# 4 0.000000 0.000000 0.000000 0.001692 0.000000 0.000000
# 5 0.000000 0.000000 0.000000 0.000000 0.001692 0.000000
# 6 0.000000 0.000000 0.000000 0.000000 0.000000 0.043955
#
#
# Mechanical properties :
#
#
# Convention : Reuss Voigt Hill
#
# Bulk Modulus (GPa) = 115.02803 119.84807 117.43805
# Shear Modulus (GPa) = 42.87122 253.67100 148.27111
#
# Velocity S-wave (km/s) = 4.35447 10.59224 8.09805
# Velocity P-wave (km/s) = 8.72682 14.23381 11.80590
#
# Compressibility (1/GPa) = 0.00869353
#
# Stress axis : x y z
#
# Youngs Moduli (GPa) = 68.31253 68.31253 120.99655
#
# Poissons Ratio (x) = 0.50135 0.42864
# Poissons Ratio (y) = 0.50135 0.42864
# Poissons Ratio (z) = 0.24200 0.24200
#
# Static dielectric constant tensor:
#      x y z
#    x 0.502730 0.000000 0.000000 
#    y 0.000000 0.502730 0.000000 
#    z 0.000000 0.000000 1.566190 
# 
# From -- ./inp_files/462.got.cif
#   From: 2010.05.17/outbox.cif.g08.bks.cpg/sg180_1_cif.got.tgz:462.got - 2010.05.20 11:43:55.
