data_PCOD9583232
_publ_section_title
;
Structure prediction by ZEFSAII (Michael W. Deem and Ramdas Pophale) SiO2 
 PCOD9583232
Probable space group: P 65 2 2
;
_chemical_formula_sum "Si O2"
_cell_formula_units_Z 72
_cell_length_a 14.739816
_cell_length_b 14.739816
_cell_length_c 19.582751
_cell_angle_alpha 90.000000
_cell_angle_beta 90.000000
_cell_angle_gamma 120.000000
_cell_volume 3684.583966
_symmetry_space_group_name_H-M "P 65 2 2"
_symmetry_group_IT_number 179
_symmetry_cell_setting 'hexagonal'
loop_
_space_group_symop_operation_xyz
x,y,z
x-y,x,5/6+z
-y,x-y,2/3+z
-x,-y,1/2+z
-x+y,-x,1/3+z
y,-x+y,1/6+z
x-y,-y,-z
-x,-x+y,1/3-z
y,x,2/3-z
-y,-x,1/6-z
-x+y,y,1/2-z
x,x-y,5/6-z
loop_
_atom_site_type_symbol
_atom_site_label
_atom_site_fract_x
_atom_site_fract_y
_atom_site_fract_z
Si Si1 0.672741 0.653029 0.413826
Si Si2 0.635829 0.317915 0.416667
Si Si3 0.552636 0.753034 0.567095
Si Si4 0.261147 0.531772 0.107863
Si Si5 0.197748 0.802253 0.083334
Si Si6 0.414777 0.034845 0.277872
Si Si7 0.972039 0.437866 0.246114
O O1 0.670393 0.670393 0.333334
O O2 0.764546 0.631467 0.430448
O O3 0.677496 0.756415 0.440332
O O4 0.557926 0.555020 0.428121
O O5 0.717981 0.439999 0.431813
O O6 0.559091 0.299429 0.354090
O O7 0.537430 0.774462 0.486333
O O8 0.597365 0.675037 0.581227
O O9 0.361791 0.638210 0.083334
O O10 0.284632 0.436491 0.095010
O O11 0.151757 0.511393 0.077672
O O12 0.519395 0.038789 0.250000
O O13 0.409647 0.026686 0.360237
O O14 0.000000 0.433298 0.166667
#
# Coordination Sequence:
#
# PCOD9583232 Si02
#       7
#    12   6  12  12   6  12  12
#     4   9  19  33  52  79 105 144 195 234 288 363
#     4  12  22  34  54  79 114 157 202 238 288 362
#     4  11  22  35  55  83 114 153 194 245 298 359
#     4  11  24  37  57  84 118 160 200 247 303 359
#     4  10  20  34  56  71 110 145 186 238 302 356
#     4  11  23  38  54  86 121 150 200 249 296 363
#     4  11  22  38  58  79 116 159 201 246 302 366
#
# _framework density 19.540877999999999
#
# number of rings (size 3 to 8) (size 9 to 14) (size 15 to 20)
#    0.000    1.333    0.833    7.000    4.667    4.000 
#    0.000    0.000    0.000    0.000    0.000    5.833 
#    0.000    1.333    0.000    0.000    0.000    0.000 
#
# Total GULP energy -401271.227136 kJ/mol
# GULP energy per Si atom -5573.211488 kJ/mol
# Density = 1.949640 g / cm^3
# Si number density = 19.540878 Si / 1000 Ang^3
#
#
#
# Elastic Constant Matrix: (Units=GPa)
#
#
# Indices 1 2 3 4 5 6 
#
# 1 80.5755 23.5801 -4.0375 0.0000 0.0000 0.0000
# 2 23.5801 80.5755 -4.0375 0.0000 0.0000 0.0000
# 3 -4.0375 -4.0375 82.9869 0.0000 0.0000 0.0000
# 4 0.0000 0.0000 0.0000 14.1502 0.0000 0.0000
# 5 0.0000 0.0000 0.0000 0.0000 14.1502 0.0000
# 6 0.0000 0.0000 0.0000 0.0000 0.0000 28.4977
#
#
#
# Elastic Compliance Matrix: (Units=1/GPa)
#
#
# Indices 1 2 3 4 5 6 
#
# 1 0.013591 -0.003954 0.000469 0.000000 0.000000 0.000000
# 2 -0.003954 0.013591 0.000469 0.000000 0.000000 0.000000
# 3 0.000469 0.000469 0.012096 0.000000 0.000000 0.000000
# 4 0.000000 0.000000 0.000000 0.070670 0.000000 0.000000
# 5 0.000000 0.000000 0.000000 0.000000 0.070670 0.000000
# 6 0.000000 0.000000 0.000000 0.000000 0.000000 0.035091
#
#
# Mechanical properties :
#
#
# Convention : Reuss Voigt Hill
#
# Bulk Modulus (GPa) = 30.07884 30.57202 30.32543
# Shear Modulus (GPa) = 21.47545 26.60182 24.03864
#
# Velocity S-wave (km/s) = 3.31872 3.69364 3.51119
# Velocity P-wave (km/s) = 5.48738 5.81977 5.65602
#
# Compressibility (1/GPa) = 0.03324597
#
# Stress axis : x y z
#
# Youngs Moduli (GPa) = 73.57642 73.57642 82.67393
#
# Poissons Ratio (x) = 0.29092 -0.03876
# Poissons Ratio (y) = 0.29092 -0.03876
# Poissons Ratio (z) = -0.03450 -0.03450
#
# Static dielectric constant tensor:
#      x y z
#    x 1.747290 0.000000 0.000000 
#    y 0.000000 1.747290 0.000000 
#    z 0.000000 0.000000 1.875100 
# 
# From -- ./inp_files/7719.got.cif
#   From: 2010.05.17/outbox.cif.g08.bks.cpg/sg179_4_cif.got.tgz:7719.got - 2010.05.20 11:37:33.
