data_PCOD9583723
_publ_section_title
;
Structure prediction by ZEFSAII (Michael W. Deem and Ramdas Pophale) SiO2 
 PCOD9583723
Probable space group: P 62 2 2
;
_chemical_formula_sum "Si O2"
_cell_formula_units_Z 78
_cell_length_a 17.712187
_cell_length_b 17.712187
_cell_length_c 15.378763
_cell_angle_alpha 90.000000
_cell_angle_beta 90.000000
_cell_angle_gamma 120.000000
_cell_volume 4178.269159
_symmetry_space_group_name_H-M "P 62 2 2"
_symmetry_group_IT_number 180
_symmetry_cell_setting 'hexagonal'
loop_
_space_group_symop_operation_xyz
x,y,z
x-y,x,1/3+z
-y,x-y,2/3+z
-x,-y,z
-x+y,-x,1/3+z
y,-x+y,2/3+z
x-y,-y,-z
-x,-x+y,1/3-z
y,x,2/3-z
-y,-x,2/3-z
-x+y,y,-z
x,x-y,1/3-z
loop_
_atom_site_type_symbol
_atom_site_label
_atom_site_fract_x
_atom_site_fract_y
_atom_site_fract_z
Si Si1 0.606069 0.395160 0.506160
Si Si2 0.565319 0.752707 0.412648
Si Si3 0.711995 0.580446 0.451464
Si Si4 0.321248 0.280347 0.544593
Si Si5 0.847413 0.152588 0.333334
Si Si6 0.592375 0.088280 0.319765
Si Si7 0.594840 0.695004 0.809330
O O1 0.693121 0.386241 0.500000
O O2 0.527627 0.320337 0.450724
O O3 0.625278 0.488299 0.468161
O O4 0.570316 0.396949 0.602942
O O5 0.582208 0.733984 0.315835
O O6 0.641577 0.751807 0.467465
O O7 0.570835 0.843917 0.436009
O O8 0.785518 0.571036 0.500000
O O9 0.711940 0.661418 0.497276
O O10 0.262650 0.199415 0.609867
O O11 0.405847 0.343829 0.602392
O O12 0.776008 0.137295 0.407580
O O13 0.623166 0.108277 0.419461
O O14 0.500000 0.000000 0.315799
O O15 0.658638 0.658638 0.833334
#
# Coordination Sequence:
#
# PCOD9583723 Si02
#       7
#    12  12  12  12   6  12  12
#     4  10  22  40  56  79 115 165 214 266 325 371
#     4  10  22  39  55  83 114 159 205 260 314 379
#     4  11  22  35  56  84 116 156 204 264 309 370
#     4   9  18  36  59  83 110 155 196 251 312 369
#     4   8  18  36  62  84 122 151 184 244 307 370
#     4  10  19  37  59  79 110 151 210 261 316 379
#     4  10  22  38  61  87 118 159 202 261 322 381
#
# _framework density 18.668016999999999
#
# number of rings (size 3 to 8) (size 9 to 14) (size 15 to 20)
#    0.000    2.154    1.538    1.846    4.308    0.308 
#   13.846    1.538    0.000    0.000    0.000    0.000 
#    0.000   14.769    0.000    0.000    0.000    0.000 
#
# Total GULP energy -434222.807839 kJ/mol
# GULP energy per Si atom -5566.959075 kJ/mol
# Density = 1.862553 g / cm^3
# Si number density = 18.668017 Si / 1000 Ang^3
#
#
#
# Elastic Constant Matrix: (Units=GPa)
#
#
# Indices 1 2 3 4 5 6 
#
# 1 62.3875 35.6792 23.7862 0.0000 0.0000 0.0000
# 2 35.6792 62.3875 23.7862 0.0000 0.0000 0.0000
# 3 23.7862 23.7862 74.1662 0.0000 0.0000 0.0000
# 4 0.0000 0.0000 0.0000 9.8556 0.0000 0.0000
# 5 0.0000 0.0000 0.0000 0.0000 9.8556 0.0000
# 6 0.0000 0.0000 0.0000 0.0000 0.0000 13.3542
#
#
#
# Elastic Compliance Matrix: (Units=1/GPa)
#
#
# Indices 1 2 3 4 5 6 
#
# 1 0.024759 -0.012683 -0.003873 0.000000 0.000000 0.000000
# 2 -0.012683 0.024759 -0.003873 0.000000 0.000000 0.000000
# 3 -0.003873 -0.003873 0.015967 0.000000 0.000000 0.000000
# 4 0.000000 0.000000 0.000000 0.101465 0.000000 0.000000
# 5 0.000000 0.000000 0.000000 0.000000 0.101465 0.000000
# 6 0.000000 0.000000 0.000000 0.000000 0.000000 0.074883
#
#
# Mechanical properties :
#
#
# Convention : Reuss Voigt Hill
#
# Bulk Modulus (GPa) = 40.60492 40.60494 40.60493
# Shear Modulus (GPa) = 12.74325 14.32572 13.53449
#
# Velocity S-wave (km/s) = 2.61554 2.77319 2.69552
# Velocity P-wave (km/s) = 5.56055 5.66149 5.61124
#
# Compressibility (1/GPa) = 0.02462756
#
# Stress axis : x y z
#
# Youngs Moduli (GPa) = 40.38983 40.38983 62.62746
#
# Poissons Ratio (x) = 0.51226 0.24255
# Poissons Ratio (y) = 0.51226 0.24255
# Poissons Ratio (z) = 0.15643 0.15643
#
# Static dielectric constant tensor:
#      x y z
#    x 1.707050 0.000000 0.000000 
#    y 0.000000 1.707050 0.000000 
#    z 0.000000 0.000000 2.249060 
# 
# From -- ./inp_files/6437.got.cif
#   From: 2010.05.17/outbox.cif.g08.bks.cpg/sg180_4_cif.got.tgz:6437.got - 2010.05.20 11:43:55.
