data_PCOD9583853
_publ_section_title
;
Structure prediction by ZEFSAII (Michael W. Deem and Ramdas Pophale) SiO2 
 PCOD9583853
Probable space group: P 62 2 2
;
_chemical_formula_sum "Si O2"
_cell_formula_units_Z 90
_cell_length_a 17.757643
_cell_length_b 17.757643
_cell_length_c 18.296477
_cell_angle_alpha 90.000000
_cell_angle_beta 90.000000
_cell_angle_gamma 120.000000
_cell_volume 4996.532851
_symmetry_space_group_name_H-M "P 62 2 2"
_symmetry_group_IT_number 180
_symmetry_cell_setting 'hexagonal'
loop_
_space_group_symop_operation_xyz
x,y,z
x-y,x,1/3+z
-y,x-y,2/3+z
-x,-y,z
-x+y,-x,1/3+z
y,-x+y,2/3+z
x-y,-y,-z
-x,-x+y,1/3-z
y,x,2/3-z
-y,-x,2/3-z
-x+y,y,-z
x,x-y,1/3-z
loop_
_atom_site_type_symbol
_atom_site_label
_atom_site_fract_x
_atom_site_fract_y
_atom_site_fract_z
Si Si1 0.573909 0.485228 0.453717
Si Si2 0.383111 0.114679 0.210281
Si Si3 0.657074 0.489193 0.087291
Si Si4 0.479093 0.668212 0.990827
Si Si5 0.775232 0.387616 0.666667
Si Si6 0.697661 0.772149 0.773721
Si Si7 0.937474 0.243543 0.396330
Si Si8 0.828950 0.505043 0.162038
O O1 0.500000 0.500000 0.420097
O O2 0.648644 0.570803 0.490606
O O3 0.529864 0.412209 0.515852
O O4 0.615241 0.449975 0.396392
O O5 0.371708 0.185854 0.166667
O O6 0.450963 0.159989 0.277342
O O7 0.295158 0.032202 0.236055
O O8 0.699530 0.588584 0.063042
O O9 0.734517 0.476941 0.123927
O O10 0.598349 0.424757 0.021664
O O11 0.426568 0.717453 0.973015
O O12 0.529965 0.683256 0.914939
O O13 0.751259 0.751259 0.833334
O O14 0.710890 0.869583 0.775670
O O15 0.719874 0.769086 0.688853
O O16 0.594915 0.702117 0.787115
O O17 0.840395 0.420198 0.166667
#
# Coordination Sequence:
#
# PCOD9583853 Si02
#       8
#    12  12  12  12   6  12  12  12
#     4  11  21  36  52  77 114 158 199 242 295 353
#     4  11  22  38  59  86 114 153 201 246 296 355
#     4  10  21  34  54  77 113 161 202 242 301 345
#     4  11  22  32  53  80 118 160 208 249 284 338
#     4  12  21  34  50  78 118 166 202 250 290 329
#     4  10  22  40  63  89 114 151 193 238 311 371
#     4  10  21  41  64  85 119 151 192 249 300 366
#     4  11  21  35  53  81 117 155 201 253 290 349
#
# _framework density 18.012491000000001
#
# number of rings (size 3 to 8) (size 9 to 14) (size 15 to 20)
#    0.000    1.333    4.000    2.600    0.000    2.400 
#    0.000    2.667    0.000    0.400    0.000    1.867 
#    0.000    0.000    0.000    0.000    0.000    0.000 
#
# Total GULP energy -501549.014959 kJ/mol
# GULP energy per Si atom -5572.766833 kJ/mol
# Density = 1.797149 g / cm^3
# Si number density = 18.012491 Si / 1000 Ang^3
#
#
#
# Elastic Constant Matrix: (Units=GPa)
#
#
# Indices 1 2 3 4 5 6 
#
# 1 76.4122 35.9498 25.5446 0.0000 0.0000 0.0000
# 2 35.9498 76.4122 25.5446 0.0000 0.0000 0.0000
# 3 25.5446 25.5446 73.0150 0.0000 0.0000 0.0000
# 4 0.0000 0.0000 0.0000 21.6928 0.0000 0.0000
# 5 0.0000 0.0000 0.0000 0.0000 21.6928 0.0000
# 6 0.0000 0.0000 0.0000 0.0000 0.0000 20.2312
#
#
#
# Elastic Compliance Matrix: (Units=1/GPa)
#
#
# Indices 1 2 3 4 5 6 
#
# 1 0.017649 -0.007065 -0.003703 0.000000 0.000000 0.000000
# 2 -0.007065 0.017649 -0.003703 0.000000 0.000000 0.000000
# 3 -0.003703 -0.003703 0.016287 0.000000 0.000000 0.000000
# 4 0.000000 0.000000 0.000000 0.046098 0.000000 0.000000
# 5 0.000000 0.000000 0.000000 0.000000 0.046098 0.000000
# 6 0.000000 0.000000 0.000000 0.000000 0.000000 0.049429
#
#
# Mechanical properties :
#
#
# Convention : Reuss Voigt Hill
#
# Bulk Modulus (GPa) = 44.16426 44.43527 44.29977
# Shear Modulus (GPa) = 21.76770 21.97674 21.87222
#
# Velocity S-wave (km/s) = 3.48009 3.49676 3.48843
# Velocity P-wave (km/s) = 6.38122 6.40514 6.39319
#
# Compressibility (1/GPa) = 0.02264274
#
# Stress axis : x y z
#
# Youngs Moduli (GPa) = 56.66104 56.66104 61.40032
#
# Poissons Ratio (x) = 0.40034 0.22734
# Poissons Ratio (y) = 0.40034 0.22734
# Poissons Ratio (z) = 0.20979 0.20979
#
# Static dielectric constant tensor:
#      x y z
#    x 1.622620 0.000000 0.000000 
#    y 0.000000 1.622620 0.000000 
#    z 0.000000 0.000000 1.655010 
# 
# From -- ./inp_files/7998.got.cif
#   From: 2010.05.17/outbox.cif.g08.bks.cpg/sg180_4_cif.got.tgz:7998.got - 2010.05.20 11:43:55.
