data_PCOD9583276
_publ_section_title
;
Structure prediction by ZEFSAII (Michael W. Deem and Ramdas Pophale) SiO2 
 PCOD9583276
Probable space group: P 65 2 2
;
_chemical_formula_sum "Si O2"
_cell_formula_units_Z 84
_cell_length_a 14.635902
_cell_length_b 14.635902
_cell_length_c 24.087261
_cell_angle_alpha 90.000000
_cell_angle_beta 90.000000
_cell_angle_gamma 120.000000
_cell_volume 4468.451370
_symmetry_space_group_name_H-M "P 65 2 2"
_symmetry_group_IT_number 179
_symmetry_cell_setting 'hexagonal'
loop_
_space_group_symop_operation_xyz
x,y,z
x-y,x,5/6+z
-y,x-y,2/3+z
-x,-y,1/2+z
-x+y,-x,1/3+z
y,-x+y,1/6+z
x-y,-y,-z
-x,-x+y,1/3-z
y,x,2/3-z
-y,-x,1/6-z
-x+y,y,1/2-z
x,x-y,5/6-z
loop_
_atom_site_type_symbol
_atom_site_label
_atom_site_fract_x
_atom_site_fract_y
_atom_site_fract_z
Si Si1 0.734958 0.627576 0.147567
Si Si2 0.909284 0.155557 0.849171
Si Si3 0.729642 0.539117 0.025057
Si Si4 0.481892 0.675447 0.368554
Si Si5 0.889581 0.962006 0.783073
Si Si6 0.411690 0.804263 0.913239
Si Si7 0.515857 0.040351 0.876048
O O1 0.780734 0.751000 0.154039
O O2 0.727117 0.589588 0.084386
O O3 0.799017 0.584527 0.183382
O O4 0.616097 0.570546 0.170570
O O5 0.831003 0.199772 0.839025
O O6 0.896972 0.104678 0.909368
O O7 0.888591 0.064032 0.805930
O O8 0.747166 0.441767 0.041495
O O9 0.626694 0.510731 0.988331
O O10 0.429986 0.714993 0.416667
O O11 0.429222 0.628036 0.309568
O O12 0.494388 0.586558 0.400166
O O13 0.892854 0.892854 0.833334
O O14 0.998016 0.996032 0.750000
O O15 0.465346 0.732673 0.916667
O O16 0.485093 0.921232 0.889585
#
# Coordination Sequence:
#
# PCOD9583276 Si02
#       7
#    12  12  12  12  12  12  12
#     4  10  20  38  63  92 120 156 202 258 316 375
#     4  11  19  37  60  90 118 157 211 246 313 373
#     4  11  22  40  64  88 125 164 207 263 305 381
#     4   9  20  38  62  88 121 156 200 259 325 368
#     4   9  20  36  56  84 124 158 192 254 308 371
#     4  11  22  41  62  88 128 167 207 260 315 374
#     4  11  22  40  61  93 126 162 209 256 319 380
#
# _framework density 18.798459999999999
#
# number of rings (size 3 to 8) (size 9 to 14) (size 15 to 20)
#    0.000    1.714    2.857    3.429    0.000    1.714 
#    2.571    5.000    0.000    0.000    0.000    0.000 
#    0.000    0.000    0.000    0.000    0.000    0.000 
#
# Total GULP energy -468230.381945 kJ/mol
# GULP energy per Si atom -5574.171214 kJ/mol
# Density = 1.875567 g / cm^3
# Si number density = 18.798460 Si / 1000 Ang^3
#
#
#
# Elastic Constant Matrix: (Units=GPa)
#
#
# Indices 1 2 3 4 5 6 
#
# 1 79.9125 34.9379 40.7640 0.0000 0.0000 0.0000
# 2 34.9379 79.9125 40.7640 0.0000 0.0000 0.0000
# 3 40.7640 40.7640 99.4447 0.0000 0.0000 0.0000
# 4 0.0000 0.0000 0.0000 11.6989 0.0000 0.0000
# 5 0.0000 0.0000 0.0000 0.0000 11.6989 0.0000
# 6 0.0000 0.0000 0.0000 0.0000 0.0000 22.4873
#
#
#
# Elastic Compliance Matrix: (Units=1/GPa)
#
#
# Indices 1 2 3 4 5 6 
#
# 1 0.017258 -0.004977 -0.005034 0.000000 0.000000 0.000000
# 2 -0.004977 0.017258 -0.005034 0.000000 0.000000 0.000000
# 3 -0.005034 -0.005034 0.014183 0.000000 0.000000 0.000000
# 4 0.000000 0.000000 0.000000 0.085478 0.000000 0.000000
# 5 0.000000 0.000000 0.000000 0.000000 0.085478 0.000000
# 6 0.000000 0.000000 0.000000 0.000000 0.000000 0.044469
#
#
# Mechanical properties :
#
#
# Convention : Reuss Voigt Hill
#
# Bulk Modulus (GPa) = 53.74072 54.68905 54.21488
# Shear Modulus (GPa) = 16.64355 18.69728 17.67042
#
# Velocity S-wave (km/s) = 2.97874 3.15718 3.06926
# Velocity P-wave (km/s) = 6.36242 6.51505 6.43919
#
# Compressibility (1/GPa) = 0.01860786
#
# Stress axis : x y z
#
# Youngs Moduli (GPa) = 57.94565 57.94565 70.50797
#
# Poissons Ratio (x) = 0.28841 0.35493
# Poissons Ratio (y) = 0.28841 0.35493
# Poissons Ratio (z) = 0.29169 0.29169
#
# Static dielectric constant tensor:
#      x y z
#    x 1.653760 0.000000 0.000000 
#    y 0.000000 1.653760 0.000000 
#    z 0.000000 0.000000 1.663960 
# 
# From -- ./inp_files/8366.got.cif
#   From: 2010.05.17/outbox.cif.g08.bks.cpg/sg179_5_cif.got.tgz:8366.got - 2010.05.20 11:37:33.
