data_PCOD9583148
_publ_section_title
;
Structure prediction by ZEFSAII (Michael W. Deem and Ramdas Pophale) SiO2 
 PCOD9583148
Probable space group: P 65 2 2
;
_chemical_formula_sum "Si O2"
_cell_formula_units_Z 72
_cell_length_a 14.675573
_cell_length_b 14.675573
_cell_length_c 17.905142
_cell_angle_alpha 90.000000
_cell_angle_beta 90.000000
_cell_angle_gamma 120.000000
_cell_volume 3339.631397
_symmetry_space_group_name_H-M "P 65 2 2"
_symmetry_group_IT_number 179
_symmetry_cell_setting 'hexagonal'
loop_
_space_group_symop_operation_xyz
x,y,z
x-y,x,5/6+z
-y,x-y,2/3+z
-x,-y,1/2+z
-x+y,-x,1/3+z
y,-x+y,1/6+z
x-y,-y,-z
-x,-x+y,1/3-z
y,x,2/3-z
-y,-x,1/6-z
-x+y,y,1/2-z
x,x-y,5/6-z
loop_
_atom_site_type_symbol
_atom_site_label
_atom_site_fract_x
_atom_site_fract_y
_atom_site_fract_z
Si Si1 0.064489 0.455928 0.980521
Si Si2 0.744628 0.069530 0.429570
Si Si3 0.751663 0.773579 0.561151
Si Si4 0.160515 0.275671 0.329763
Si Si5 0.226912 0.706348 0.327456
Si Si6 0.513920 0.675132 0.006585
O O1 0.065140 0.532570 0.916667
O O2 0.049018 0.346403 0.948548
O O3 0.182748 0.513644 0.012287
O O4 0.954369 0.410901 0.024566
O O5 0.868979 0.118573 0.445570
O O6 0.721666 0.163219 0.406706
O O7 0.680358 0.000000 0.500000
O O8 0.726675 0.005642 0.353187
O O9 0.850147 0.773264 0.602051
O O10 0.260345 0.260345 0.333334
O O11 0.111797 0.223594 0.250000
O O12 0.189110 0.396051 0.324979
O O13 0.240429 0.605376 0.317036
O O14 0.156595 0.674267 0.402632
#
# Coordination Sequence:
#
# PCOD9583148 Si02
#       6
#    12  12  12  12  12  12
#     4  10  18  34  67  88 116 166 221 257 327 397
#     4  11  20  36  62  91 123 165 218 280 338 394
#     4  10  21  38  59  88 127 166 216 269 330 398
#     4  11  23  38  63  91 130 176 227 268 326 405
#     4  10  20  37  66  92 122 169 219 270 330 415
#     4  10  20  40  64  90 132 179 215 266 351 410
#
# _framework density 21.559266999999998
#
# number of rings (size 3 to 8) (size 9 to 14) (size 15 to 20)
#    0.000    1.667    5.000    1.500    4.667    0.667 
#    0.000    5.833   33.000    0.000    0.000    0.000 
#    0.000    0.000    0.000    0.000    0.000    0.000 
#
# Total GULP energy -401069.607557 kJ/mol
# GULP energy per Si atom -5570.411216 kJ/mol
# Density = 2.151020 g / cm^3
# Si number density = 21.559267 Si / 1000 Ang^3
#
#
#
# Elastic Constant Matrix: (Units=GPa)
#
#
# Indices 1 2 3 4 5 6 
#
# 1 97.9263 45.4804 3.0843 0.0000 0.0000 0.0000
# 2 45.4804 97.9263 3.0843 0.0000 0.0000 0.0000
# 3 3.0843 3.0843 77.9186 0.0000 0.0000 0.0000
# 4 0.0000 0.0000 0.0000 23.7813 0.0000 0.0000
# 5 0.0000 0.0000 0.0000 0.0000 23.7813 0.0000
# 6 0.0000 0.0000 0.0000 0.0000 0.0000 26.2230
#
#
#
# Elastic Compliance Matrix: (Units=1/GPa)
#
#
# Indices 1 2 3 4 5 6 
#
# 1 0.013026 -0.006041 -0.000276 0.000000 0.000000 0.000000
# 2 -0.006041 0.013026 -0.000276 0.000000 0.000000 0.000000
# 3 -0.000276 -0.000276 0.012856 0.000000 0.000000 0.000000
# 4 0.000000 0.000000 0.000000 0.042050 0.000000 0.000000
# 5 0.000000 0.000000 0.000000 0.000000 0.042050 0.000000
# 6 0.000000 0.000000 0.000000 0.000000 0.000000 0.038134
#
#
# Mechanical properties :
#
#
# Convention : Reuss Voigt Hill
#
# Bulk Modulus (GPa) = 38.88032 41.89658 40.38845
# Shear Modulus (GPa) = 27.33678 29.56527 28.45103
#
# Velocity S-wave (km/s) = 3.56474 3.70719 3.63666
# Velocity P-wave (km/s) = 5.91747 6.14815 6.03391
#
# Compressibility (1/GPa) = 0.02571995
#
# Stress axis : x y z
#
# Youngs Moduli (GPa) = 76.76864 76.76864 77.78595
#
# Poissons Ratio (x) = 0.46377 0.02151
# Poissons Ratio (y) = 0.46377 0.02151
# Poissons Ratio (z) = 0.02123 0.02123
#
# Static dielectric constant tensor:
#      x y z
#    x 1.864960 0.000000 0.000000 
#    y 0.000000 1.864960 0.000000 
#    z 0.000000 0.000000 1.861710 
# 
# From -- ./inp_files/6836.got.cif
#   From: 2010.05.17/outbox.cif.g08.bks.cpg/sg179_4_cif.got.tgz:6836.got - 2010.05.20 11:37:33.
