data_PCOD9583369
_publ_section_title
;
Structure prediction by ZEFSAII (Michael W. Deem and Ramdas Pophale) SiO2 
 PCOD9583369
Probable space group: P 65 2 2
;
_chemical_formula_sum "Si O2"
_cell_formula_units_Z 30
_cell_length_a 17.280948
_cell_length_b 17.280948
_cell_length_c 5.085594
_cell_angle_alpha 90.000000
_cell_angle_beta 90.000000
_cell_angle_gamma 120.000000
_cell_volume 1315.247377
_symmetry_space_group_name_H-M "P 65 2 2"
_symmetry_group_IT_number 179
_symmetry_cell_setting 'hexagonal'
loop_
_space_group_symop_operation_xyz
x,y,z
x-y,x,5/6+z
-y,x-y,2/3+z
-x,-y,1/2+z
-x+y,-x,1/3+z
y,-x+y,1/6+z
x-y,-y,-z
-x,-x+y,1/3-z
y,x,2/3-z
-y,-x,1/6-z
-x+y,y,1/2-z
x,x-y,5/6-z
loop_
_atom_site_type_symbol
_atom_site_label
_atom_site_fract_x
_atom_site_fract_y
_atom_site_fract_z
Si Si1 0.175918 0.175918 0.333334
Si Si2 0.876342 0.645061 0.493753
Si Si3 0.640849 0.462877 0.831090
O O1 0.080797 0.161594 0.250000
O O2 0.256689 0.217350 0.120384
O O3 0.828219 0.656438 0.750000
O O4 0.890689 0.563349 0.571166
O O5 0.809346 0.618691 0.250000
O O6 0.574498 0.425503 0.583334
O O7 0.731080 0.462159 0.750000
O O8 0.599012 0.400989 0.083334
#
# Coordination Sequence:
#
# PCOD9583369 Si02
#       3
#     6  12  12
#     4  10  24  44  70  98 124 164 224 290 354 428
#     4  10  22  40  61  91 133 171 208 271 350 401
#     4  11  20  33  57  91 129 173 222 264 307 376
#
# _framework density 22.809394999999999
#
# number of rings (size 3 to 8) (size 9 to 14) (size 15 to 20)
#    0.000    1.600    0.000    7.200    0.000    8.000 
#    0.000    2.000    0.000    0.000    0.000    0.000 
#    0.000    0.000    0.000    3.600    0.000    0.000 
#
# Total GULP energy -167509.985834 kJ/mol
# GULP energy per Si atom -5583.666194 kJ/mol
# Density = 2.275748 g / cm^3
# Si number density = 22.809395 Si / 1000 Ang^3
#
#
#
# Elastic Constant Matrix: (Units=GPa)
#
#
# Indices 1 2 3 4 5 6 
#
# 1 103.2543 112.8876 42.6652 0.0000 0.0000 0.0000
# 2 112.8876 103.2543 42.6652 0.0000 0.0000 0.0000
# 3 42.6652 42.6652 153.2201 0.0000 0.0000 0.0000
# 4 0.0000 0.0000 0.0000 9.1745 0.0000 0.0000
# 5 0.0000 0.0000 0.0000 0.0000 9.1745 0.0000
# 6 0.0000 0.0000 0.0000 0.0000 0.0000 -4.8167
#
#
#
# Elastic Compliance Matrix: (Units=1/GPa)
#
#
# Indices 1 2 3 4 5 6 
#
# 1 -0.049304 0.054502 -0.001447 0.000000 0.000000 0.000000
# 2 0.054502 -0.049304 -0.001447 0.000000 0.000000 0.000000
# 3 -0.001447 -0.001447 0.007333 0.000000 0.000000 0.000000
# 4 0.000000 0.000000 0.000000 0.108997 0.000000 0.000000
# 5 0.000000 0.000000 0.000000 0.000000 0.108997 0.000000
# 6 0.000000 0.000000 0.000000 0.000000 0.000000 -0.207612
#
#
# Mechanical properties :
#
#
# Convention : Reuss Voigt Hill
#
# Bulk Modulus (GPa) = 83.75919 84.01830 83.88874
# Shear Modulus (GPa) = -27.75820 13.47385 -7.14217
#
# Velocity S-wave (km/s) = -3.49228 2.43310 -1.77145
# Velocity P-wave (km/s) = 4.53207 6.69389 5.71611
#
# Compressibility (1/GPa) = 0.01193899
#
# Stress axis : x y z
#
# Youngs Moduli (GPa) = -20.28234 -20.28234 136.37637
#
# Poissons Ratio (x) = 1.10543 0.19739
# Poissons Ratio (y) = 1.10543 0.19739
# Poissons Ratio (z) = -0.02936 -0.02936
#
# Static dielectric constant tensor:
#      x y z
#    x 2.023560 0.000000 0.000000 
#    y 0.000000 2.023560 0.000000 
#    z 0.000000 0.000000 1.860620 
# 
# From -- ./inp_files/335.got.cif
#   From: 2010.05.17/outbox.cif.g08.bks.cpg/sg179_1_cif.got.tgz:335.got - 2010.05.20 11:37:33.
