data_PCOD9583086
_publ_section_title
;
Structure prediction by ZEFSAII (Michael W. Deem and Ramdas Pophale) SiO2 
 PCOD9583086
Probable space group: P 61 2 2
;
_chemical_formula_sum "Si O2"
_cell_formula_units_Z 84
_cell_length_a 15.000000
_cell_length_b 15.000000
_cell_length_c 24.000000
_cell_angle_alpha 90.000000
_cell_angle_beta 90.000000
_cell_angle_gamma 120.000000
_cell_volume 4676.537180
_symmetry_space_group_name_H-M "P 61 2 2"
_symmetry_group_IT_number 178
_symmetry_cell_setting 'hexagonal'
loop_
_space_group_symop_operation_xyz
x,y,z
x-y,x,1/6+z
-y,x-y,1/3+z
-x,-y,1/2+z
-x+y,-x,2/3+z
y,-x+y,5/6+z
x-y,-y,-z
-x,-x+y,2/3-z
y,x,1/3-z
-y,-x,5/6-z
-x+y,y,1/2-z
x,x-y,1/6-z
loop_
_atom_site_type_symbol
_atom_site_label
_atom_site_fract_x
_atom_site_fract_y
_atom_site_fract_z
Si Si1 0.247552 0.908722 0.233426
Si Si2 0.059162 0.572025 0.686661
Si Si3 0.714537 0.087313 0.545279
Si Si4 0.688952 0.230095 0.799155
Si Si5 0.439855 0.739078 0.519759
Si Si6 0.863897 0.475654 0.524650
Si Si7 0.307589 0.191141 0.869516
O O1 0.348834 0.942407 0.193508
O O2 0.251208 0.824016 0.273426
O O3 0.150978 0.865379 0.190547
O O4 0.258279 0.001375 0.272445
O O5 0.058330 0.622215 0.744854
O O6 0.156193 0.555350 0.676117
O O7 0.959015 0.460699 0.680905
O O8 0.729933 0.188694 0.514267
O O9 0.813006 0.112692 0.582648
O O10 0.686356 0.000000 0.500000
O O11 0.619240 0.238480 0.750000
O O12 0.764310 0.347469 0.817404
O O13 0.469207 0.734604 0.583334
O O14 0.387706 0.624108 0.496192
O O15 0.891900 0.445950 0.583334
O O16 0.846907 0.571267 0.530446
#
# Coordination Sequence:
#
# PCOD9583086 Si02
#       7
#    12  12  12  12  12  12  12
#     4  10  19  34  53  80 106 143 190 238 285 331
#     4  10  18  31  51  73 106 146 190 231 264 314
#     4  11  23  34  47  75 115 150 183 229 283 340
#     4   9  17  31  50  75 104 140 188 228 257 316
#     4  11  21  32  48  74 109 153 191 219 266 333
#     4  12  18  32  55  77 105 151 194 222 269 328
#     4  11  21  35  55  78 110 150 193 238 281 341
#
# _framework density 17.962008000000001
#
# number of rings (size 3 to 8) (size 9 to 14) (size 15 to 20)
#    0.000    1.429    4.286    4.714    0.000    1.143 
#    0.000    0.000    0.000    0.000    0.000    0.000 
#    0.000   12.571    0.000    0.000    0.000    0.000 
#
# Total GULP energy -468522.319782 kJ/mol
# GULP energy per Si atom -5577.646664 kJ/mol
# Density = 1.792113 g / cm^3
# Si number density = 17.962008 Si / 1000 Ang^3
#
#
#
# Elastic Constant Matrix: (Units=GPa)
#
#
# Indices 1 2 3 4 5 6 
#
# 1 22.6691 -11.5719 -2.9596 0.0000 0.0000 0.0000
# 2 -11.5719 22.6691 -2.9596 0.0000 0.0000 0.0000
# 3 -2.9596 -2.9596 22.4512 0.0000 0.0000 0.0000
# 4 0.0000 0.0000 0.0000 3.7401 0.0000 0.0000
# 5 0.0000 0.0000 0.0000 0.0000 3.7401 0.0000
# 6 0.0000 0.0000 0.0000 0.0000 0.0000 17.1205
#
#
#
# Elastic Compliance Matrix: (Units=1/GPa)
#
#
# Indices 1 2 3 4 5 6 
#
# 1 0.063066 0.033862 0.012777 0.000000 0.000000 0.000000
# 2 0.033862 0.063066 0.012777 0.000000 0.000000 0.000000
# 3 0.012777 0.012777 0.047910 0.000000 0.000000 0.000000
# 4 0.000000 0.000000 0.000000 0.267370 0.000000 0.000000
# 5 0.000000 0.000000 0.000000 0.000000 0.267370 0.000000
# 6 0.000000 0.000000 0.000000 0.000000 0.000000 0.058409
#
#
# Mechanical properties :
#
#
# Convention : Reuss Voigt Hill
#
# Bulk Modulus (GPa) = 3.41443 3.64526 3.52984
# Shear Modulus (GPa) = 6.70256 10.60552 8.65404
#
# Velocity S-wave (km/s) = 1.93381 2.43254 2.19737
# Velocity P-wave (km/s) = 2.62511 3.15016 2.89954
#
# Compressibility (1/GPa) = 0.29287473
#
# Stress axis : x y z
#
# Youngs Moduli (GPa) = 15.85632 15.85632 20.87256
#
# Poissons Ratio (x) = -0.53692 -0.26669
# Poissons Ratio (y) = -0.53692 -0.26669
# Poissons Ratio (z) = -0.20260 -0.20260
#
# Static dielectric constant tensor:
#      x y z
#    x 1.790120 0.000000 0.000000 
#    y 0.000000 1.790120 0.000000 
#    z 0.000000 0.000000 1.672810 
# 
# From -- ./inp_files/8326.got.cif
#   From: 2010.05.17/outbox.ucp.g08.bks.cvg/sg178_5_cif.got.tgz:8326.got - 2010.06.11 15:19:19.
