data_PCOD9583174
_publ_section_title
;
Structure prediction by ZEFSAII (Michael W. Deem and Ramdas Pophale) SiO2 
 PCOD9583174
Probable space group: P 65 2 2
;
_chemical_formula_sum "Si O2"
_cell_formula_units_Z 84
_cell_length_a 19.429183
_cell_length_b 19.429183
_cell_length_c 13.125722
_cell_angle_alpha 90.000000
_cell_angle_beta 90.000000
_cell_angle_gamma 120.000000
_cell_volume 4291.043440
_symmetry_space_group_name_H-M "P 65 2 2"
_symmetry_group_IT_number 179
_symmetry_cell_setting 'hexagonal'
loop_
_space_group_symop_operation_xyz
x,y,z
x-y,x,5/6+z
-y,x-y,2/3+z
-x,-y,1/2+z
-x+y,-x,1/3+z
y,-x+y,1/6+z
x-y,-y,-z
-x,-x+y,1/3-z
y,x,2/3-z
-y,-x,1/6-z
-x+y,y,1/2-z
x,x-y,5/6-z
loop_
_atom_site_type_symbol
_atom_site_label
_atom_site_fract_x
_atom_site_fract_y
_atom_site_fract_z
Si Si1 0.868686 0.959639 0.678477
Si Si2 0.257390 0.084345 0.517521
Si Si3 0.733868 0.935565 0.359868
Si Si4 0.230912 0.678526 0.846429
Si Si5 0.593454 0.915023 0.508554
Si Si6 0.581544 0.353529 0.837922
Si Si7 0.192589 0.820964 0.314674
O O1 0.901623 0.933255 0.582237
O O2 0.819946 0.881845 0.746920
O O3 0.801976 0.984385 0.650736
O O4 0.249252 0.124626 0.416667
O O5 0.335849 0.150712 0.574364
O O6 0.252595 0.000000 0.500000
O O7 0.760920 0.880460 0.416667
O O8 0.661473 0.928077 0.426818
O O9 0.692143 0.892580 0.255759
O O10 0.198321 0.599161 0.916667
O O11 0.224068 0.652933 0.728038
O O12 0.320854 0.734059 0.892723
O O13 0.188649 0.730106 0.864381
O O14 0.502604 0.851460 0.488804
O O15 0.617634 0.880451 0.606751
O O16 0.600654 0.000000 0.500000
O O17 0.572373 0.286187 0.916667
#
# Coordination Sequence:
#
# PCOD9583174 Si02
#       7
#    12  12  12  12  12  12  12
#     4  12  25  44  58  81 112 160 214 280 337 366
#     4  12  23  41  59  75 106 158 216 257 302 368
#     4  10  20  35  54  81 113 147 197 252 311 375
#     4   9  17  33  61  92 124 153 187 235 294 371
#     4  10  19  31  58  88 122 153 192 247 303 364
#     4   9  17  33  55  93 122 158 193 231 300 370
#     4  10  20  38  60  83 116 159 198 242 305 376
#
# _framework density 19.575657
#
# number of rings (size 3 to 8) (size 9 to 14) (size 15 to 20)
#    0.000    1.714    2.857    3.857    2.000    0.000 
#    5.143    4.286    0.000    0.000    0.000   80.000 
#    0.000    0.000    0.000    0.000    0.000    0.000 
#
# Total GULP energy -467942.048932 kJ/mol
# GULP energy per Si atom -5570.738678 kJ/mol
# Density = 1.953110 g / cm^3
# Si number density = 19.575657 Si / 1000 Ang^3
#
#
#
# Elastic Constant Matrix: (Units=GPa)
#
#
# Indices 1 2 3 4 5 6 
#
# 1 77.9900 31.0496 23.9990 0.0000 0.0000 0.0000
# 2 31.0496 77.9900 23.9990 0.0000 0.0000 0.0000
# 3 23.9990 23.9990 77.5083 0.0000 0.0000 0.0000
# 4 0.0000 0.0000 0.0000 24.3153 0.0000 0.0000
# 5 0.0000 0.0000 0.0000 0.0000 24.3153 0.0000
# 6 0.0000 0.0000 0.0000 0.0000 0.0000 23.4702
#
#
#
# Elastic Compliance Matrix: (Units=1/GPa)
#
#
# Indices 1 2 3 4 5 6 
#
# 1 0.015961 -0.005343 -0.003288 0.000000 0.000000 0.000000
# 2 -0.005343 0.015961 -0.003288 0.000000 0.000000 0.000000
# 3 -0.003288 -0.003288 0.014938 0.000000 0.000000 0.000000
# 4 0.000000 0.000000 0.000000 0.041126 0.000000 0.000000
# 5 0.000000 0.000000 0.000000 0.000000 0.041126 0.000000
# 6 0.000000 0.000000 0.000000 0.000000 0.000000 0.042607
#
#
# Mechanical properties :
#
#
# Convention : Reuss Voigt Hill
#
# Bulk Modulus (GPa) = 43.43424 43.50926 43.47175
# Shear Modulus (GPa) = 24.60263 24.71621 24.65942
#
# Velocity S-wave (km/s) = 3.54898 3.55716 3.55307
# Velocity P-wave (km/s) = 6.24738 6.25665 6.25202
#
# Compressibility (1/GPa) = 0.02302331
#
# Stress axis : x y z
#
# Youngs Moduli (GPa) = 62.65312 62.65312 66.94422
#
# Poissons Ratio (x) = 0.33474 0.22009
# Poissons Ratio (y) = 0.33474 0.22009
# Poissons Ratio (z) = 0.20599 0.20599
#
# Static dielectric constant tensor:
#      x y z
#    x 1.756970 0.000000 0.000000 
#    y 0.000000 1.756970 0.000000 
#    z 0.000000 0.000000 1.810520 
# 
# From -- ./inp_files/4938.got.cif
#   From: 2010.05.17/outbox.cif.g08.bks.cpg/sg179_3_cif.got.tgz:4938.got - 2010.05.20 11:37:33.
