data_PCOD9583624
_publ_section_title
;
Structure prediction by ZEFSAII (Michael W. Deem and Ramdas Pophale) SiO2 
 PCOD9583624
Probable space group: P 62 2 2
;
_chemical_formula_sum "Si O2"
_cell_formula_units_Z 60
_cell_length_a 21.335814
_cell_length_b 21.335814
_cell_length_c 12.860387
_cell_angle_alpha 90.000000
_cell_angle_beta 90.000000
_cell_angle_gamma 120.000000
_cell_volume 5069.943304
_symmetry_space_group_name_H-M "P 62 2 2"
_symmetry_group_IT_number 180
_symmetry_cell_setting 'hexagonal'
loop_
_space_group_symop_operation_xyz
x,y,z
x-y,x,1/3+z
-y,x-y,2/3+z
-x,-y,z
-x+y,-x,1/3+z
y,-x+y,2/3+z
x-y,-y,-z
-x,-x+y,1/3-z
y,x,2/3-z
-y,-x,2/3-z
-x+y,y,-z
x,x-y,1/3-z
loop_
_atom_site_type_symbol
_atom_site_label
_atom_site_fract_x
_atom_site_fract_y
_atom_site_fract_z
Si Si1 0.330448 0.809253 0.378023
Si Si2 0.335544 0.822667 0.001162
Si Si3 0.806902 0.327521 0.044962
Si Si4 0.081152 0.465268 0.867608
Si Si5 0.916348 0.534779 0.466324
O O1 0.260377 0.739624 0.333334
O O2 0.399210 0.796861 0.366652
O O3 0.321757 0.819364 0.499686
O O4 0.347047 0.877860 0.307271
O O5 0.264645 0.744527 0.008260
O O6 0.341543 0.869929 0.102330
O O7 0.406901 0.813801 0.000000
O O8 0.339474 0.867455 0.898568
O O9 0.874205 0.343015 0.972019
O O10 0.078987 0.540162 0.864724
O O11 0.999031 0.400346 0.861244
#
# Coordination Sequence:
#
# PCOD9583624 Si02
#       5
#    12  12  12  12  12
#     4  10  18  29  40  54  75  95 121 151 191 235
#     4  10  17  27  41  56  74  96 119 152 190 232
#     4  10  19  27  40  57  74  95 118 155 194 228
#     4   9  17  29  41  52  71  97 121 148 184 231
#     4   9  18  28  39  56  72  92 122 150 185 228
#
# _framework density 11.834452000000001
#
# number of rings (size 3 to 8) (size 9 to 14) (size 15 to 20)
#    0.000    2.400    2.000    1.800    0.000    3.200 
#    0.000    4.000    0.000    0.000    0.000    0.000 
#    0.000    0.000    0.000    0.000    0.000    0.000 
#
# Total GULP energy -334231.783412 kJ/mol
# GULP energy per Si atom -5570.529724 kJ/mol
# Density = 1.180752 g / cm^3
# Si number density = 11.834452 Si / 1000 Ang^3
#
#
#
# Elastic Constant Matrix: (Units=GPa)
#
#
# Indices 1 2 3 4 5 6 
#
# 1 46.4919 23.8901 35.1077 0.0000 0.0000 0.0000
# 2 23.8901 46.4919 35.1077 0.0000 0.0000 0.0000
# 3 35.1077 35.1077 97.5537 0.0000 0.0000 0.0000
# 4 0.0000 0.0000 0.0000 12.7031 0.0000 0.0000
# 5 0.0000 0.0000 0.0000 0.0000 12.7031 0.0000
# 6 0.0000 0.0000 0.0000 0.0000 0.0000 11.3009
#
#
#
# Elastic Compliance Matrix: (Units=1/GPa)
#
#
# Indices 1 2 3 4 5 6 
#
# 1 0.033205 -0.011039 -0.007977 0.000000 0.000000 0.000000
# 2 -0.011039 0.033205 -0.007977 0.000000 0.000000 0.000000
# 3 -0.007977 -0.007977 0.015993 0.000000 0.000000 0.000000
# 4 0.000000 0.000000 0.000000 0.078721 0.000000 0.000000
# 5 0.000000 0.000000 0.000000 0.000000 0.078721 0.000000
# 6 0.000000 0.000000 0.000000 0.000000 0.000000 0.088489
#
#
# Mechanical properties :
#
#
# Convention : Reuss Voigt Hill
#
# Bulk Modulus (GPa) = 35.19087 42.08316 38.63702
# Shear Modulus (GPa) = 12.76183 13.77021 13.26602
#
# Velocity S-wave (km/s) = 3.28741 3.41481 3.35172
# Velocity P-wave (km/s) = 6.64905 7.15437 6.90633
#
# Compressibility (1/GPa) = 0.02841646
#
# Stress axis : x y z
#
# Youngs Moduli (GPa) = 30.11553 30.11553 62.52912
#
# Poissons Ratio (x) = 0.33244 0.49882
# Poissons Ratio (y) = 0.33244 0.49882
# Poissons Ratio (z) = 0.24024 0.24024
#
# Static dielectric constant tensor:
#      x y z
#    x 1.362540 0.000000 0.000000 
#    y 0.000000 1.362540 0.000000 
#    z 0.000000 0.000000 1.404470 
# 
# From -- ./inp_files/6277.got.cif
#   From: 2010.05.17/outbox.cif.g08.bks.cpg/sg180_4_cif.got.tgz:6277.got - 2010.05.20 11:43:55.
