data_PCOD9583589
_publ_section_title
;
Structure prediction by ZEFSAII (Michael W. Deem and Ramdas Pophale) SiO2 
 PCOD9583589
Probable space group: P 65 2 2
;
_chemical_formula_sum "Si O2"
_cell_formula_units_Z 24
_cell_length_a 14.319510
_cell_length_b 14.319510
_cell_length_c 5.120717
_cell_angle_alpha 90.000000
_cell_angle_beta 90.000000
_cell_angle_gamma 120.000000
_cell_volume 909.322047
_symmetry_space_group_name_H-M "P 65 2 2"
_symmetry_group_IT_number 179
_symmetry_cell_setting 'hexagonal'
loop_
_space_group_symop_operation_xyz
x,y,z
x-y,x,5/6+z
-y,x-y,2/3+z
-x,-y,1/2+z
-x+y,-x,1/3+z
y,-x+y,1/6+z
x-y,-y,-z
-x,-x+y,1/3-z
y,x,2/3-z
-y,-x,1/6-z
-x+y,y,1/2-z
x,x-y,5/6-z
loop_
_atom_site_type_symbol
_atom_site_label
_atom_site_fract_x
_atom_site_fract_y
_atom_site_fract_z
Si Si1 0.907566 0.204875 0.817249
Si Si2 0.406252 0.406252 0.333334
Si Si3 0.793693 0.396847 0.416667
O O1 0.823082 0.176919 0.583334
O O2 0.000000 0.194447 0.666667
O O3 0.861252 0.138749 0.083334
O O4 0.967753 0.326044 0.923378
O O5 0.512389 0.396919 0.275123
O O6 0.709307 0.418614 0.250000
#
# Coordination Sequence:
#
# PCOD9583589 Si02
#       3
#    12   6   6
#     4  12  26  48  87 136 180 244 320 396 491 591
#     4  12  32  54  96 136 196 252 332 398 522 580
#     4  12  36  60  90 140 200 258 328 416 484 614
#
# _framework density 26.393291000000001
#
# number of rings (size 3 to 8) (size 9 to 14) (size 15 to 20)
#    0.000    0.000    5.000    0.000   17.500    0.000 
#    0.000    0.000    0.000    3.000    6.500    0.000 
#    0.000    0.000    0.000    0.000    0.000    0.000 
#
# Total GULP energy -133812.824999 kJ/mol
# GULP energy per Si atom -5575.534375 kJ/mol
# Density = 2.633322 g / cm^3
# Si number density = 26.393291 Si / 1000 Ang^3
#
#
#
# Elastic Constant Matrix: (Units=GPa)
#
#
# Indices 1 2 3 4 5 6 
#
# 1 211.3092 98.1452 103.4971 0.0000 0.0000 0.0000
# 2 98.1452 211.3092 103.4971 0.0000 0.0000 0.0000
# 3 103.4971 103.4971 278.4233 0.0000 0.0000 0.0000
# 4 0.0000 0.0000 0.0000 49.1509 0.0000 0.0000
# 5 0.0000 0.0000 0.0000 0.0000 49.1509 0.0000
# 6 0.0000 0.0000 0.0000 0.0000 0.0000 56.5820
#
#
#
# Elastic Compliance Matrix: (Units=1/GPa)
#
#
# Indices 1 2 3 4 5 6 
#
# 1 0.006569 -0.002268 -0.001599 0.000000 0.000000 0.000000
# 2 -0.002268 0.006569 -0.001599 0.000000 0.000000 0.000000
# 3 -0.001599 -0.001599 0.004780 0.000000 0.000000 0.000000
# 4 0.000000 0.000000 0.000000 0.020345 0.000000 0.000000
# 5 0.000000 0.000000 0.000000 0.000000 0.020345 0.000000
# 6 0.000000 0.000000 0.000000 0.000000 0.000000 0.017673
#
#
# Mechanical properties :
#
#
# Convention : Reuss Voigt Hill
#
# Bulk Modulus (GPa) = 143.12230 145.70228 144.41229
# Shear Modulus (GPa) = 55.83957 57.37024 56.60491
#
# Velocity S-wave (km/s) = 4.60463 4.66732 4.63608
# Velocity P-wave (km/s) = 9.08926 9.18528 9.13740
#
# Compressibility (1/GPa) = 0.00698703
#
# Stress axis : x y z
#
# Youngs Moduli (GPa) = 152.23432 152.23432 209.19395
#
# Poissons Ratio (x) = 0.34525 0.33445
# Poissons Ratio (y) = 0.34525 0.33445
# Poissons Ratio (z) = 0.24339 0.24339
#
# Static dielectric constant tensor:
#      x y z
#    x 2.299680 0.000000 0.000000 
#    y 0.000000 2.299680 0.000000 
#    z 0.000000 0.000000 2.454710 
# 
# From -- ./inp_files/175.got.cif
#   From: 2010.05.17/outbox.cif.g08.bks.cpg/sg179_1_cif.got.tgz:175.got - 2010.05.20 11:37:33.
