data_PCOD9583937
_publ_section_title
;
Structure prediction by ZEFSAII (Michael W. Deem and Ramdas Pophale) SiO2 
 PCOD9583937
Probable space group: P 62 2 2
;
_chemical_formula_sum "Si O2"
_cell_formula_units_Z 60
_cell_length_a 17.081508
_cell_length_b 17.081508
_cell_length_c 11.064191
_cell_angle_alpha 90.000000
_cell_angle_beta 90.000000
_cell_angle_gamma 120.000000
_cell_volume 2795.778195
_symmetry_space_group_name_H-M "P 62 2 2"
_symmetry_group_IT_number 180
_symmetry_cell_setting 'hexagonal'
loop_
_space_group_symop_operation_xyz
x,y,z
x-y,x,1/3+z
-y,x-y,2/3+z
-x,-y,z
-x+y,-x,1/3+z
y,-x+y,2/3+z
x-y,-y,-z
-x,-x+y,1/3-z
y,x,2/3-z
-y,-x,2/3-z
-x+y,y,-z
x,x-y,1/3-z
loop_
_atom_site_type_symbol
_atom_site_label
_atom_site_fract_x
_atom_site_fract_y
_atom_site_fract_z
Si Si1 0.190767 0.347511 0.187596
Si Si2 0.739418 0.369709 0.166667
Si Si3 0.756271 0.243730 0.333334
Si Si4 0.033778 0.798923 0.894318
Si Si5 0.244235 0.244235 0.833334
Si Si6 0.604249 0.208498 0.000000
Si Si7 0.404350 0.092200 0.075211
O O1 0.185260 0.251943 0.162622
O O2 0.225433 0.375191 0.322200
O O3 0.094048 0.336278 0.156902
O O4 0.256235 0.423636 0.095367
O O5 0.786110 0.338130 0.265226
O O6 0.678675 0.276889 0.093706
O O7 0.106062 0.893939 0.833334
O O8 0.067325 0.727068 0.858879
O O9 0.017505 0.805386 0.036604
O O10 0.512223 0.147717 0.074926
O O11 0.371919 0.000000 0.000000
#
# Coordination Sequence:
#
# PCOD9583937 Si02
#       7
#    12   6   6  12   6   6  12
#     4  11  22  41  66  89 136 176 227 291 348 420
#     4  10  24  34  64  89 124 170 232 281 342 454
#     4  11  20  44  61  94 128 184 227 284 374 421
#     4  11  23  39  64  99 128 175 234 283 348 429
#     4  12  22  38  65  99 126 184 224 282 360 415
#     4  11  21  38  57  92 120 168 217 286 357 411
#     4  10  22  39  62  91 125 171 223 287 342 432
#
# _framework density 21.460930000000001
#
# number of rings (size 3 to 8) (size 9 to 14) (size 15 to 20)
#    0.000    1.200    6.000    0.300    1.400    0.000 
#    0.000    0.500    0.000    5.400    0.000    0.000 
#    0.000    0.000    0.000    0.000    0.000    0.000 
#
# Total GULP energy -334271.735827 kJ/mol
# GULP energy per Si atom -5571.195597 kJ/mol
# Density = 2.141208 g / cm^3
# Si number density = 21.460930 Si / 1000 Ang^3
#
#
#
# Elastic Constant Matrix: (Units=GPa)
#
#
# Indices 1 2 3 4 5 6 
#
# 1 79.1829 37.2796 12.9508 0.0000 0.0000 0.0000
# 2 37.2796 79.1829 12.9508 0.0000 0.0000 0.0000
# 3 12.9508 12.9508 81.3474 0.0000 0.0000 0.0000
# 4 0.0000 0.0000 0.0000 35.6669 0.0000 0.0000
# 5 0.0000 0.0000 0.0000 0.0000 35.6669 0.0000
# 6 0.0000 0.0000 0.0000 0.0000 0.0000 20.9516
#
#
#
# Elastic Compliance Matrix: (Units=1/GPa)
#
#
# Indices 1 2 3 4 5 6 
#
# 1 0.016383 -0.007481 -0.001417 0.000000 0.000000 0.000000
# 2 -0.007481 0.016383 -0.001417 0.000000 0.000000 0.000000
# 3 -0.001417 -0.001417 0.012744 0.000000 0.000000 0.000000
# 4 0.000000 0.000000 0.000000 0.028037 0.000000 0.000000
# 5 0.000000 0.000000 0.000000 0.000000 0.028037 0.000000
# 6 0.000000 0.000000 0.000000 0.000000 0.000000 0.047729
#
#
# Mechanical properties :
#
#
# Convention : Reuss Voigt Hill
#
# Bulk Modulus (GPa) = 40.19488 40.67505 40.43496
# Shear Modulus (GPa) = 28.05235 30.22588 29.13911
#
# Velocity S-wave (km/s) = 3.61936 3.75696 3.68880
# Velocity P-wave (km/s) = 6.01966 6.14930 6.08482
#
# Compressibility (1/GPa) = 0.02487879
#
# Stress axis : x y z
#
# Youngs Moduli (GPa) = 61.03861 61.03861 78.46715
#
# Poissons Ratio (x) = 0.45666 0.11120
# Poissons Ratio (y) = 0.45666 0.11120
# Poissons Ratio (z) = 0.08650 0.08650
#
# Static dielectric constant tensor:
#      x y z
#    x 1.817780 0.000000 0.000000 
#    y 0.000000 1.817780 0.000000 
#    z 0.000000 0.000000 1.869220 
# 
# From -- ./inp_files/4912.got.cif
#   From: 2010.05.17/outbox.cif.g08.bks.cpg/sg180_3_cif.got.tgz:4912.got - 2010.05.20 11:43:55.
