data_PCOD9583295
_publ_section_title
;
Structure prediction by ZEFSAII (Michael W. Deem and Ramdas Pophale) SiO2 
 PCOD9583295
Probable space group: P 65 2 2
;
_chemical_formula_sum "Si O2"
_cell_formula_units_Z 78
_cell_length_a 24.401180
_cell_length_b 24.401180
_cell_length_c 8.261147
_cell_angle_alpha 90.000000
_cell_angle_beta 90.000000
_cell_angle_gamma 120.000000
_cell_volume 4259.833642
_symmetry_space_group_name_H-M "P 65 2 2"
_symmetry_group_IT_number 179
_symmetry_cell_setting 'hexagonal'
loop_
_space_group_symop_operation_xyz
x,y,z
x-y,x,5/6+z
-y,x-y,2/3+z
-x,-y,1/2+z
-x+y,-x,1/3+z
y,-x+y,1/6+z
x-y,-y,-z
-x,-x+y,1/3-z
y,x,2/3-z
-y,-x,1/6-z
-x+y,y,1/2-z
x,x-y,5/6-z
loop_
_atom_site_type_symbol
_atom_site_label
_atom_site_fract_x
_atom_site_fract_y
_atom_site_fract_z
Si Si1 0.344345 0.000000 0.500000
Si Si2 0.658666 0.478426 0.260009
Si Si3 0.141122 0.453313 0.087672
Si Si4 0.589831 0.814352 0.591948
Si Si5 0.226459 0.644012 0.585068
Si Si6 0.430739 0.485269 0.944474
Si Si7 0.310912 0.960825 0.838984
O O1 0.408973 0.066978 0.538373
O O2 0.317737 0.012401 0.333278
O O3 0.719958 0.518614 0.374669
O O4 0.629143 0.403956 0.277788
O O5 0.605918 0.490198 0.337535
O O6 0.668243 0.509319 0.083969
O O7 0.174577 0.509041 0.218027
O O8 0.177285 0.413410 0.055813
O O9 0.616151 0.808076 0.416667
O O10 0.627172 0.886956 0.645553
O O11 0.293116 0.706885 0.583334
O O12 0.215709 0.607855 0.416667
O O13 0.481653 0.481653 0.833334
O O14 0.379785 0.414515 0.000681
O O15 0.466725 0.533276 0.083334
O O16 0.314153 0.000000 0.000000
#
# Coordination Sequence:
#
# PCOD9583295 Si02
#       7
#     6  12  12  12  12  12  12
#     4  12  26  38  64  92 124 158 196 254 314 374
#     4  10  22  43  60  84 110 144 190 243 307 378
#     4  11  25  43  63  88 117 153 200 247 308 381
#     4   9  19  40  68  85 116 157 196 245 311 374
#     4  12  28  44  62  84 112 145 192 247 309 387
#     4  10  21  33  53  77 110 142 179 224 293 363
#     4  10  22  40  58  88 121 150 193 246 304 368
#
# _framework density 18.310575
#
# number of rings (size 3 to 8) (size 9 to 14) (size 15 to 20)
#    0.000    1.538    0.000    5.538    9.692    4.308 
#    0.000    0.000    0.000    0.000    0.000    0.000 
#    0.000    0.000    0.000    0.000    0.000    0.000 
#
# Total GULP energy -435905.702763 kJ/mol
# GULP energy per Si atom -5588.534651 kJ/mol
# Density = 1.826890 g / cm^3
# Si number density = 18.310575 Si / 1000 Ang^3
#
#
#
# Elastic Constant Matrix: (Units=GPa)
#
#
# Indices 1 2 3 4 5 6 
#
# 1 58.3630 81.5661 41.6822 0.0000 0.0000 0.0000
# 2 81.5661 58.3630 41.6822 0.0000 0.0000 0.0000
# 3 41.6822 41.6822 117.9005 0.0000 0.0000 0.0000
# 4 0.0000 0.0000 0.0000 27.4197 0.0000 0.0000
# 5 0.0000 0.0000 0.0000 0.0000 27.4197 0.0000
# 6 0.0000 0.0000 0.0000 0.0000 0.0000 -11.6015
#
#
#
# Elastic Compliance Matrix: (Units=1/GPa)
#
#
# Indices 1 2 3 4 5 6 
#
# 1 -0.017022 0.026076 -0.003201 0.000000 0.000000 0.000000
# 2 0.026076 -0.017022 -0.003201 0.000000 0.000000 0.000000
# 3 -0.003201 -0.003201 0.010745 0.000000 0.000000 0.000000
# 4 0.000000 0.000000 0.000000 0.036470 0.000000 0.000000
# 5 0.000000 0.000000 0.000000 0.000000 0.036470 0.000000
# 6 0.000000 0.000000 0.000000 0.000000 0.000000 -0.086195
#
#
# Mechanical properties :
#
#
# Convention : Reuss Voigt Hill
#
# Bulk Modulus (GPa) = 62.31013 62.72083 62.51548
# Shear Modulus (GPa) = -70.86826 13.29397 -28.78714
#
# Velocity S-wave (km/s) = -6.22796 2.69741 -3.96935
# Velocity P-wave (km/s) = 4.19681 6.63548 3.63431
#
# Compressibility (1/GPa) = 0.01604876
#
# Stress axis : x y z
#
# Youngs Moduli (GPa) = -58.74681 -58.74681 93.06780
#
# Poissons Ratio (x) = 1.53185 0.29788
# Poissons Ratio (y) = 1.53185 0.29788
# Poissons Ratio (z) = -0.18803 -0.18803
#
# Static dielectric constant tensor:
#      x y z
#    x 1.644090 0.000000 0.000000 
#    y 0.000000 1.644090 0.000000 
#    z 0.000000 0.000000 1.708080 
# 
# From -- ./inp_files/3665.got.cif
#   From: 2010.05.17/outbox.cif.g08.bks.cpg/sg179_2_cif.got.tgz:3665.got - 2010.05.20 11:37:33.
