data_PCOD9583236
_publ_section_title
;
Structure prediction by ZEFSAII (Michael W. Deem and Ramdas Pophale) SiO2 
 PCOD9583236
Probable space group: P 65 2 2
;
_chemical_formula_sum "Si O2"
_cell_formula_units_Z 42
_cell_length_a 22.663425
_cell_length_b 22.663425
_cell_length_c 4.921922
_cell_angle_alpha 90.000000
_cell_angle_beta 90.000000
_cell_angle_gamma 120.000000
_cell_volume 2189.356298
_symmetry_space_group_name_H-M "P 65 2 2"
_symmetry_group_IT_number 179
_symmetry_cell_setting 'hexagonal'
loop_
_space_group_symop_operation_xyz
x,y,z
x-y,x,5/6+z
-y,x-y,2/3+z
-x,-y,1/2+z
-x+y,-x,1/3+z
y,-x+y,1/6+z
x-y,-y,-z
-x,-x+y,1/3-z
y,x,2/3-z
-y,-x,1/6-z
-x+y,y,1/2-z
x,x-y,5/6-z
loop_
_atom_site_type_symbol
_atom_site_label
_atom_site_fract_x
_atom_site_fract_y
_atom_site_fract_z
Si Si1 0.919115 0.341994 0.195140
Si Si2 0.523641 0.476360 0.583334
Si Si3 0.122874 0.747091 0.201519
Si Si4 0.864011 0.000000 0.000000
Si Si5 0.778082 0.778082 0.333334
O O1 0.899368 0.317427 0.501879
O O2 0.000000 0.368717 0.166667
O O3 0.912729 0.404344 0.070017
O O4 0.875833 0.277375 0.004076
O O5 0.524044 0.524044 0.333334
O O6 0.064775 0.768168 0.203622
O O7 0.191330 0.808671 0.083334
O O8 0.812954 0.984572 0.248808
O O9 0.935859 0.064142 0.083334
#
# Coordination Sequence:
#
# PCOD9583236 Si02
#       5
#    12   6  12   6   6
#     4  11  20  38  57  85 120 155 189 234 286 349
#     4  10  20  34  60  88 120 154 188 228 290 356
#     4  12  23  37  58  84 121 161 198 244 296 359
#     4  12  26  43  62  80 103 140 206 276 328 376
#     4  12  24  43  58  82 115 158 200 242 316 392
#
# _framework density 19.183720000000001
#
# number of rings (size 3 to 8) (size 9 to 14) (size 15 to 20)
#    0.000    0.571    2.857    8.571    0.000    1.143 
#    0.000    0.000    0.000    0.000    0.000    0.000 
#   21.429    0.000    0.000    0.000    0.000    0.000 
#
# Total GULP energy -234728.056534 kJ/mol
# GULP energy per Si atom -5588.763251 kJ/mol
# Density = 1.914006 g / cm^3
# Si number density = 19.183720 Si / 1000 Ang^3
#
#
#
# Elastic Constant Matrix: (Units=GPa)
#
#
# Indices 1 2 3 4 5 6 
#
# 1 70.3037 41.6290 8.5961 0.0000 0.0000 0.0000
# 2 41.6290 70.3037 8.5961 0.0000 0.0000 0.0000
# 3 8.5961 8.5961 96.8470 0.0000 0.0000 0.0000
# 4 0.0000 0.0000 0.0000 33.0116 0.0000 0.0000
# 5 0.0000 0.0000 0.0000 0.0000 33.0116 0.0000
# 6 0.0000 0.0000 0.0000 0.0000 0.0000 14.3374
#
#
#
# Elastic Compliance Matrix: (Units=1/GPa)
#
#
# Indices 1 2 3 4 5 6 
#
# 1 0.021966 -0.012908 -0.000804 0.000000 0.000000 0.000000
# 2 -0.012908 0.021966 -0.000804 0.000000 0.000000 0.000000
# 3 -0.000804 -0.000804 0.010468 0.000000 0.000000 0.000000
# 4 0.000000 0.000000 0.000000 0.030292 0.000000 0.000000
# 5 0.000000 0.000000 0.000000 0.000000 0.030292 0.000000
# 6 0.000000 0.000000 0.000000 0.000000 0.000000 0.069748
#
#
# Mechanical properties :
#
#
# Convention : Reuss Voigt Hill
#
# Bulk Modulus (GPa) = 39.42067 39.45518 39.43792
# Shear Modulus (GPa) = 22.50023 27.98101 25.24062
#
# Velocity S-wave (km/s) = 3.42845 3.82328 3.63124
# Velocity P-wave (km/s) = 6.02213 6.33258 6.17931
#
# Compressibility (1/GPa) = 0.02536740
#
# Stress axis : x y z
#
# Youngs Moduli (GPa) = 45.52565 45.52565 95.52669
#
# Poissons Ratio (x) = 0.58766 0.07680
# Poissons Ratio (y) = 0.58766 0.07680
# Poissons Ratio (z) = 0.03660 0.03660
#
# Static dielectric constant tensor:
#      x y z
#    x 1.668700 0.000000 0.000000 
#    y 0.000000 1.668700 0.000000 
#    z 0.000000 0.000000 1.664570 
# 
# From -- ./inp_files/790.got.cif
#   From: 2010.05.17/outbox.cif.g08.bks.cpg/sg179_1_cif.got.tgz:790.got - 2010.05.20 11:37:33.
