data_PCOD9583337
_publ_section_title
;
Structure prediction by ZEFSAII (Michael W. Deem and Ramdas Pophale) SiO2 
 PCOD9583337
Probable space group: P 65 2 2
;
_chemical_formula_sum "Si O2"
_cell_formula_units_Z 60
_cell_length_a 14.975482
_cell_length_b 14.975482
_cell_length_c 13.393932
_cell_angle_alpha 90.000000
_cell_angle_beta 90.000000
_cell_angle_gamma 120.000000
_cell_volume 2601.359295
_symmetry_space_group_name_H-M "P 65 2 2"
_symmetry_group_IT_number 179
_symmetry_cell_setting 'hexagonal'
loop_
_space_group_symop_operation_xyz
x,y,z
x-y,x,5/6+z
-y,x-y,2/3+z
-x,-y,1/2+z
-x+y,-x,1/3+z
y,-x+y,1/6+z
x-y,-y,-z
-x,-x+y,1/3-z
y,x,2/3-z
-y,-x,1/6-z
-x+y,y,1/2-z
x,x-y,5/6-z
loop_
_atom_site_type_symbol
_atom_site_label
_atom_site_fract_x
_atom_site_fract_y
_atom_site_fract_z
Si Si1 0.349899 0.376615 0.653442
Si Si2 0.582060 0.253246 0.147935
Si Si3 0.112714 0.140829 0.476829
Si Si4 0.645255 0.818621 0.207404
Si Si5 0.531183 0.563384 0.941402
O O1 0.331467 0.274651 0.711045
O O2 0.240346 0.368007 0.638290
O O3 0.398803 0.383479 0.540588
O O4 0.439635 0.476693 0.707268
O O5 0.646336 0.353665 0.083334
O O6 0.639486 0.278971 0.250000
O O7 0.468151 0.230351 0.170551
O O8 0.581237 0.149347 0.108691
O O9 0.105215 0.100221 0.588479
O O10 0.172090 0.263032 0.478012
O O11 0.160379 0.080190 0.416667
O O12 0.585556 0.585556 0.833334
#
# Coordination Sequence:
#
# PCOD9583337 Si02
#       5
#    12  12  12  12  12
#     4  10  22  41  67 101 146 181 239 310 359 448
#     4  11  25  44  68 104 151 192 249 302 378 452
#     4  10  21  41  70 100 137 180 236 299 372 437
#     4  11  21  42  69  99 142 187 236 304 364 436
#     4  10  22  43  68 101 143 190 246 305 370 434
#
# _framework density 23.064864
#
# number of rings (size 3 to 8) (size 9 to 14) (size 15 to 20)
#    0.000    1.600    6.000    0.000    5.600    0.000 
#    3.600    7.000   35.200    0.000    0.000    0.000 
#    0.000    0.000    0.000    0.000    0.000    0.000 
#
# Total GULP energy -334625.287555 kJ/mol
# GULP energy per Si atom -5577.088126 kJ/mol
# Density = 2.301237 g / cm^3
# Si number density = 23.064864 Si / 1000 Ang^3
#
#
#
# Elastic Constant Matrix: (Units=GPa)
#
#
# Indices 1 2 3 4 5 6 
#
# 1 95.4205 40.9656 28.2511 0.0000 0.0000 0.0000
# 2 40.9656 95.4205 28.2511 0.0000 0.0000 0.0000
# 3 28.2511 28.2511 77.3065 0.0000 0.0000 0.0000
# 4 0.0000 0.0000 0.0000 3.3712 0.0000 0.0000
# 5 0.0000 0.0000 0.0000 0.0000 3.3712 0.0000
# 6 0.0000 0.0000 0.0000 0.0000 0.0000 27.2274
#
#
#
# Elastic Compliance Matrix: (Units=1/GPa)
#
#
# Indices 1 2 3 4 5 6 
#
# 1 0.013502 -0.004862 -0.003158 0.000000 0.000000 0.000000
# 2 -0.004862 0.013502 -0.003158 0.000000 0.000000 0.000000
# 3 -0.003158 -0.003158 0.015243 0.000000 0.000000 0.000000
# 4 0.000000 0.000000 0.000000 0.296630 0.000000 0.000000
# 5 0.000000 0.000000 0.000000 0.000000 0.296630 0.000000
# 6 0.000000 0.000000 0.000000 0.000000 0.000000 0.036728
#
#
# Mechanical properties :
#
#
# Convention : Reuss Voigt Hill
#
# Bulk Modulus (GPa) = 50.26714 51.45368 50.86041
# Shear Modulus (GPa) = 7.13043 18.17262 12.65152
#
# Velocity S-wave (km/s) = 1.76017 2.80999 2.34459
# Velocity P-wave (km/s) = 5.09628 5.73452 5.42479
#
# Compressibility (1/GPa) = 0.01989371
#
# Stress axis : x y z
#
# Youngs Moduli (GPa) = 74.06296 74.06296 65.60264
#
# Poissons Ratio (x) = 0.36008 0.20714
# Poissons Ratio (y) = 0.36008 0.20714
# Poissons Ratio (z) = 0.23385 0.23385
#
# Static dielectric constant tensor:
#      x y z
#    x 1.919330 0.000000 0.000000 
#    y 0.000000 1.919330 0.000000 
#    z 0.000000 0.000000 1.876340 
# 
# From -- ./inp_files/5793.got.cif
#   From: 2010.05.17/outbox.cif.g08.bks.cpg/sg179_3_cif.got.tgz:5793.got - 2010.05.20 11:37:33.
