data_PCOD9583454
_publ_section_title
;
Structure prediction by ZEFSAII (Michael W. Deem and Ramdas Pophale) SiO2 
 PCOD9583454
Probable space group: P 65 2 2
;
_chemical_formula_sum "Si O2"
_cell_formula_units_Z 48
_cell_length_a 12.598246
_cell_length_b 12.598246
_cell_length_c 15.949074
_cell_angle_alpha 90.000000
_cell_angle_beta 90.000000
_cell_angle_gamma 120.000000
_cell_volume 2192.230792
_symmetry_space_group_name_H-M "P 65 2 2"
_symmetry_group_IT_number 179
_symmetry_cell_setting 'hexagonal'
loop_
_space_group_symop_operation_xyz
x,y,z
x-y,x,5/6+z
-y,x-y,2/3+z
-x,-y,1/2+z
-x+y,-x,1/3+z
y,-x+y,1/6+z
x-y,-y,-z
-x,-x+y,1/3-z
y,x,2/3-z
-y,-x,1/6-z
-x+y,y,1/2-z
x,x-y,5/6-z
loop_
_atom_site_type_symbol
_atom_site_label
_atom_site_fract_x
_atom_site_fract_y
_atom_site_fract_z
Si Si1 0.300970 0.890928 0.852267
Si Si2 0.551640 0.074954 0.923711
Si Si3 0.853240 0.926620 0.916667
Si Si4 0.644386 0.355614 0.583334
Si Si5 0.035907 0.312188 0.973509
O O1 0.347532 0.797358 0.822371
O O2 0.168900 0.822652 0.895899
O O3 0.408266 0.004718 0.900969
O O4 0.273134 0.937492 0.765673
O O5 0.620723 0.217252 0.946847
O O6 0.619666 0.059687 0.844404
O O7 0.563164 0.000000 0.000000
O O8 0.926434 0.926434 0.833334
O O9 0.774446 0.985212 0.880012
#
# Coordination Sequence:
#
# PCOD9583454 Si02
#       5
#    12  12   6   6  12
#     4  11  23  44  66  98 137 179 223 289 353 411
#     4  11  25  41  67  99 134 183 226 283 346 420
#     4  12  24  44  71 103 136 178 236 294 350 416
#     4  10  24  44  63  99 134 178 230 280 352 424
#     4  11  23  42  69  98 135 175 229 287 341 414
#
# _framework density 21.895503999999999
#
# number of rings (size 3 to 8) (size 9 to 14) (size 15 to 20)
#    0.000    1.000    5.000    0.750    7.000    1.000 
#    0.000    2.500    0.000    0.000    0.000    0.000 
#    0.000    0.000    0.000    0.000    0.000    0.000 
#
# Total GULP energy -268073.235953 kJ/mol
# GULP energy per Si atom -5584.859082 kJ/mol
# Density = 2.184567 g / cm^3
# Si number density = 21.895504 Si / 1000 Ang^3
#
#
#
# Elastic Constant Matrix: (Units=GPa)
#
#
# Indices 1 2 3 4 5 6 
#
# 1 105.0782 55.1117 17.1401 0.0000 0.0000 0.0000
# 2 55.1117 105.0782 17.1401 0.0000 0.0000 0.0000
# 3 17.1401 17.1401 61.7496 0.0000 0.0000 0.0000
# 4 0.0000 0.0000 0.0000 14.8071 0.0000 0.0000
# 5 0.0000 0.0000 0.0000 0.0000 14.8071 0.0000
# 6 0.0000 0.0000 0.0000 0.0000 0.0000 24.9833
#
#
#
# Elastic Compliance Matrix: (Units=1/GPa)
#
#
# Indices 1 2 3 4 5 6 
#
# 1 0.013325 -0.006688 -0.001842 0.000000 0.000000 0.000000
# 2 -0.006688 0.013325 -0.001842 0.000000 0.000000 0.000000
# 3 -0.001842 -0.001842 0.017217 0.000000 0.000000 0.000000
# 4 0.000000 0.000000 0.000000 0.067535 0.000000 0.000000
# 5 0.000000 0.000000 0.000000 0.000000 0.067535 0.000000
# 6 0.000000 0.000000 0.000000 0.000000 0.000000 0.040027
#
#
# Mechanical properties :
#
#
# Convention : Reuss Voigt Hill
#
# Bulk Modulus (GPa) = 43.24900 50.07666 46.66283
# Shear Modulus (GPa) = 20.20881 23.08712 21.64797
#
# Velocity S-wave (km/s) = 3.04133 3.25071 3.14776
# Velocity P-wave (km/s) = 5.66818 6.08358 5.87955
#
# Compressibility (1/GPa) = 0.02312192
#
# Stress axis : x y z
#
# Youngs Moduli (GPa) = 75.04627 75.04627 58.08171
#
# Poissons Ratio (x) = 0.50193 0.10700
# Poissons Ratio (y) = 0.50193 0.10700
# Poissons Ratio (z) = 0.13825 0.13825
#
# Static dielectric constant tensor:
#      x y z
#    x 1.828690 0.000000 0.000000 
#    y 0.000000 1.828690 0.000000 
#    z 0.000000 0.000000 1.916930 
# 
# From -- ./inp_files/7336.got.cif
#   From: 2010.05.17/outbox.cif.g08.bks.cpg/sg179_4_cif.got.tgz:7336.got - 2010.05.20 11:37:33.
