data_PCOD9583011
_publ_section_title
;
Structure prediction by ZEFSAII (Michael W. Deem and Ramdas Pophale) SiO2 
 PCOD9583011
Probable space group: P 61 2 2
;
_chemical_formula_sum "Si O2"
_cell_formula_units_Z 42
_cell_length_a 20.121469
_cell_length_b 20.121469
_cell_length_c 4.853693
_cell_angle_alpha 90.000000
_cell_angle_beta 90.000000
_cell_angle_gamma 120.000000
_cell_volume 1701.854012
_symmetry_space_group_name_H-M "P 61 2 2"
_symmetry_group_IT_number 178
_symmetry_cell_setting 'hexagonal'
loop_
_space_group_symop_operation_xyz
x,y,z
x-y,x,1/6+z
-y,x-y,1/3+z
-x,-y,1/2+z
-x+y,-x,2/3+z
y,-x+y,5/6+z
x-y,-y,-z
-x,-x+y,2/3-z
y,x,1/3-z
-y,-x,5/6-z
-x+y,y,1/2-z
x,x-y,1/6-z
loop_
_atom_site_type_symbol
_atom_site_label
_atom_site_fract_x
_atom_site_fract_y
_atom_site_fract_z
Si Si1 0.394482 0.083403 0.855499
Si Si2 0.685071 0.225926 0.652215
Si Si3 0.815890 0.053099 0.758354
Si Si4 0.550219 0.550219 0.166667
O O1 0.466447 0.155587 0.985721
O O2 0.325568 0.101665 0.828578
O O3 0.432693 0.067419 0.588267
O O4 0.354408 0.000000 0.000000
O O5 0.710682 0.289318 0.416667
O O6 0.600224 0.200448 0.750000
O O7 0.740404 0.259597 0.916667
O O8 0.811447 0.000000 0.500000
O O9 0.895886 0.104115 0.916667
O O10 0.761108 0.000000 0.000000
O O11 0.491085 0.508915 0.416667
#
# Coordination Sequence:
#
# PCOD9583011 Si02
#       4
#    12  12  12   6
#     4  11  26  44  72 106 141 180 241 306 381 439
#     4  12  28  48  71  94 134 188 243 297 354 427
#     4  11  24  45  73 108 152 194 242 299 370 449
#     4  12  24  40  64  98 146 180 232 296 370 442
#
# _framework density 24.678965000000002
#
# number of rings (size 3 to 8) (size 9 to 14) (size 15 to 20)
#    0.000    0.571    2.857    4.286    4.000    4.571 
#    0.000    0.000    0.000    1.714    0.000    0.000 
#    0.000    0.000    0.000    0.000    0.000    0.000 
#
# Total GULP energy -234847.766525 kJ/mol
# GULP energy per Si atom -5591.613489 kJ/mol
# Density = 2.462279 g / cm^3
# Si number density = 24.678965 Si / 1000 Ang^3
#
#
#
# Elastic Constant Matrix: (Units=GPa)
#
#
# Indices 1 2 3 4 5 6 
#
# 1 83.5841 42.1592 36.8091 0.0000 0.0000 0.0000
# 2 42.1592 83.5841 36.8091 0.0000 0.0000 0.0000
# 3 36.8091 36.8091 139.3245 0.0000 0.0000 0.0000
# 4 0.0000 0.0000 0.0000 33.8876 0.0000 0.0000
# 5 0.0000 0.0000 0.0000 0.0000 33.8876 0.0000
# 6 0.0000 0.0000 0.0000 0.0000 0.0000 20.7124
#
#
#
# Elastic Compliance Matrix: (Units=1/GPa)
#
#
# Indices 1 2 3 4 5 6 
#
# 1 0.016774 -0.007366 -0.002486 0.000000 0.000000 0.000000
# 2 -0.007366 0.016774 -0.002486 0.000000 0.000000 0.000000
# 3 -0.002486 -0.002486 0.008491 0.000000 0.000000 0.000000
# 4 0.000000 0.000000 0.000000 0.029509 0.000000 0.000000
# 5 0.000000 0.000000 0.000000 0.000000 0.029509 0.000000
# 6 0.000000 0.000000 0.000000 0.000000 0.000000 0.048280
#
#
# Mechanical properties :
#
#
# Convention : Reuss Voigt Hill
#
# Bulk Modulus (GPa) = 57.58882 59.78305 58.68593
# Shear Modulus (GPa) = 27.80867 30.41189 29.11028
#
# Velocity S-wave (km/s) = 3.36045 3.51422 3.43820
# Velocity P-wave (km/s) = 6.20022 6.38304 6.29229
#
# Compressibility (1/GPa) = 0.01736448
#
# Stress axis : x y z
#
# Youngs Moduli (GPa) = 59.61611 59.61611 117.77407
#
# Poissons Ratio (x) = 0.43914 0.29273
# Poissons Ratio (y) = 0.43914 0.29273
# Poissons Ratio (z) = 0.14818 0.14818
#
# Static dielectric constant tensor:
#      x y z
#    x 1.982380 0.000000 0.000000 
#    y 0.000000 1.982380 0.000000 
#    z 0.000000 0.000000 2.027880 
# 
# From -- ./inp_files/760.got.cif
#   From: 2010.05.17/outbox.cif.g08.bks.cpg/sg178_1_cif.got.tgz:760.got - 2010.05.20 11:30:59.
