data_PCOD9583659
_publ_section_title
;
Structure prediction by ZEFSAII (Michael W. Deem and Ramdas Pophale) SiO2 
 PCOD9583659
Probable space group: P 62 2 2
;
_chemical_formula_sum "Si O2"
_cell_formula_units_Z 30
_cell_length_a 7.627643
_cell_length_b 7.627643
_cell_length_c 27.108742
_cell_angle_alpha 90.000000
_cell_angle_beta 90.000000
_cell_angle_gamma 120.000000
_cell_volume 1365.905685
_symmetry_space_group_name_H-M "P 62 2 2"
_symmetry_group_IT_number 180
_symmetry_cell_setting 'hexagonal'
loop_
_space_group_symop_operation_xyz
x,y,z
x-y,x,1/3+z
-y,x-y,2/3+z
-x,-y,z
-x+y,-x,1/3+z
y,-x+y,2/3+z
x-y,-y,-z
-x,-x+y,1/3-z
y,x,2/3-z
-y,-x,2/3-z
-x+y,y,-z
x,x-y,1/3-z
loop_
_atom_site_type_symbol
_atom_site_label
_atom_site_fract_x
_atom_site_fract_y
_atom_site_fract_z
Si Si1 0.500000 0.500000 0.095637
Si Si2 0.675406 0.904040 0.844642
Si Si3 0.818523 0.054437 0.944464
O O1 0.655910 0.506213 0.136825
O O2 0.616390 0.706029 0.065026
O O3 0.750587 0.750587 0.833334
O O4 0.652143 0.924725 0.902752
O O5 0.871245 0.128756 0.833334
O O6 0.000000 0.000000 0.938035
O O7 0.742089 0.000000 0.000000
#
# Coordination Sequence:
#
# PCOD9583659 Si02
#       3
#     6  12  12
#     4  10  18  32  67  98 133 186 246 294 360 448
#     4   9  15  32  58  92 128 183 237 288 356 429
#     4  10  19  35  65 100 140 191 245 310 378 438
#
# _framework density 21.963448
#
# number of rings (size 3 to 8) (size 9 to 14) (size 15 to 20)
#    0.000    2.400    8.000    0.000    0.000    0.000 
#    0.000    1.000   52.800   10.800    0.000    0.000 
#    0.000    0.000    0.000    0.000    0.000    0.000 
#
# Total GULP energy -167116.309439 kJ/mol
# GULP energy per Si atom -5570.543648 kJ/mol
# Density = 2.191346 g / cm^3
# Si number density = 21.963448 Si / 1000 Ang^3
#
#
#
# Elastic Constant Matrix: (Units=GPa)
#
#
# Indices 1 2 3 4 5 6 
#
# 1 110.6731 42.3519 54.9971 0.0000 0.0000 0.0000
# 2 42.3519 110.6731 54.9971 0.0000 0.0000 0.0000
# 3 54.9971 54.9971 239.3278 0.0000 0.0000 0.0000
# 4 0.0000 0.0000 0.0000 9.9495 0.0000 0.0000
# 5 0.0000 0.0000 0.0000 0.0000 9.9495 0.0000
# 6 0.0000 0.0000 0.0000 0.0000 0.0000 34.1606
#
#
#
# Elastic Compliance Matrix: (Units=1/GPa)
#
#
# Indices 1 2 3 4 5 6 
#
# 1 0.011232 -0.003404 -0.001799 0.000000 0.000000 0.000000
# 2 -0.003404 0.011232 -0.001799 0.000000 0.000000 0.000000
# 3 -0.001799 -0.001799 0.005005 0.000000 0.000000 0.000000
# 4 0.000000 0.000000 0.000000 0.100507 0.000000 0.000000
# 5 0.000000 0.000000 0.000000 0.000000 0.100507 0.000000
# 6 0.000000 0.000000 0.000000 0.000000 0.000000 0.029273
#
#
# Mechanical properties :
#
#
# Convention : Reuss Voigt Hill
#
# Bulk Modulus (GPa) = 74.26369 85.04070 79.65219
# Shear Modulus (GPa) = 18.09950 31.36712 24.73331
#
# Velocity S-wave (km/s) = 2.87378 3.78319 3.35940
# Velocity P-wave (km/s) = 6.70055 7.60832 7.16882
#
# Compressibility (1/GPa) = 0.01346553
#
# Stress axis : x y z
#
# Youngs Moduli (GPa) = 89.02889 89.02889 199.79590
#
# Poissons Ratio (x) = 0.30309 0.35940
# Poissons Ratio (y) = 0.30309 0.35940
# Poissons Ratio (z) = 0.16015 0.16015
#
# Static dielectric constant tensor:
#      x y z
#    x 1.737860 0.000000 0.000000 
#    y 0.000000 1.737860 0.000000 
#    z 0.000000 0.000000 1.867850 
# 
# From -- ./inp_files/10643.got.cif
#   From: 2010.05.17/outbox.cif.g08.bks.cpg/sg180_6_cif.got.tgz:10643.got - 2010.05.20 11:43:55.
