data_PCOD9583740
_publ_section_title
;
Structure prediction by ZEFSAII (Michael W. Deem and Ramdas Pophale) SiO2 
 PCOD9583740
Probable space group: P 62 2 2
;
_chemical_formula_sum "Si O2"
_cell_formula_units_Z 30
_cell_length_a 11.044519
_cell_length_b 11.044519
_cell_length_c 12.236983
_cell_angle_alpha 90.000000
_cell_angle_beta 90.000000
_cell_angle_gamma 120.000000
_cell_volume 1292.702539
_symmetry_space_group_name_H-M "P 62 2 2"
_symmetry_group_IT_number 180
_symmetry_cell_setting 'hexagonal'
loop_
_space_group_symop_operation_xyz
x,y,z
x-y,x,1/3+z
-y,x-y,2/3+z
-x,-y,z
-x+y,-x,1/3+z
y,-x+y,2/3+z
x-y,-y,-z
-x,-x+y,1/3-z
y,x,2/3-z
-y,-x,2/3-z
-x+y,y,-z
x,x-y,1/3-z
loop_
_atom_site_type_symbol
_atom_site_label
_atom_site_fract_x
_atom_site_fract_y
_atom_site_fract_z
Si Si1 0.300399 0.600797 0.500000
Si Si2 0.394451 0.052241 0.316455
Si Si3 0.379178 0.115189 0.901239
O O1 0.304976 0.501004 0.590607
O O2 0.225026 0.681771 0.545172
O O3 0.317999 0.102444 0.400427
O O4 0.500000 0.000000 0.358961
O O5 0.297016 0.959501 0.216887
O O6 0.341429 0.000000 0.000000
#
# Coordination Sequence:
#
# PCOD9583740 Si02
#       3
#     6  12  12
#     4  10  20  28  55  86 136 190 231 280 342 450
#     4  10  21  31  55  89 136 195 235 292 356 441
#     4  11  20  36  56  93 139 200 235 292 364 446
#
# _framework density 23.207194000000001
#
# number of rings (size 3 to 8) (size 9 to 14) (size 15 to 20)
#    0.000    1.600    4.000    1.200   11.200    0.000 
#    0.000    1.000    0.000    0.000    0.000    0.000 
#    0.000  121.600   16.800    0.000    0.000    0.000 
#
# Total GULP energy -167203.719979 kJ/mol
# GULP energy per Si atom -5573.457333 kJ/mol
# Density = 2.315437 g / cm^3
# Si number density = 23.207194 Si / 1000 Ang^3
#
#
#
# Elastic Constant Matrix: (Units=GPa)
#
#
# Indices 1 2 3 4 5 6 
#
# 1 100.7860 72.1686 69.2062 0.0000 0.0000 0.0000
# 2 72.1686 100.7860 69.2062 0.0000 0.0000 0.0000
# 3 69.2062 69.2062 115.3938 0.0000 0.0000 0.0000
# 4 0.0000 0.0000 0.0000 66.9607 0.0000 0.0000
# 5 0.0000 0.0000 0.0000 0.0000 66.9607 0.0000
# 6 0.0000 0.0000 0.0000 0.0000 0.0000 14.3087
#
#
#
# Elastic Compliance Matrix: (Units=1/GPa)
#
#
# Indices 1 2 3 4 5 6 
#
# 1 0.023031 -0.011913 -0.006668 0.000000 0.000000 0.000000
# 2 -0.011913 0.023031 -0.006668 0.000000 0.000000 0.000000
# 3 -0.006668 -0.006668 0.016664 0.000000 0.000000 0.000000
# 4 0.000000 0.000000 0.000000 0.014934 0.000000 0.000000
# 5 0.000000 0.000000 0.000000 0.000000 0.014934 0.000000
# 6 0.000000 0.000000 0.000000 0.000000 0.000000 0.069888
#
#
# Mechanical properties :
#
#
# Convention : Reuss Voigt Hill
#
# Bulk Modulus (GPa) = 81.77677 82.01422 81.89549
# Shear Modulus (GPa) = 23.03557 36.73835 29.88696
#
# Velocity S-wave (km/s) = 3.15398 3.98308 3.59253
# Velocity P-wave (km/s) = 6.96977 7.52130 7.25078
#
# Compressibility (1/GPa) = 0.01222841
#
# Stress axis : x y z
#
# Youngs Moduli (GPa) = 43.41979 43.41979 60.00932
#
# Poissons Ratio (x) = 0.51725 0.40014
# Poissons Ratio (y) = 0.51725 0.40014
# Poissons Ratio (z) = 0.28952 0.28952
#
# Static dielectric constant tensor:
#      x y z
#    x 1.997960 0.000000 0.000000 
#    y 0.000000 1.997960 0.000000 
#    z 0.000000 0.000000 2.265940 
# 
# From -- ./inp_files/5299.got.cif
#   From: 2010.05.17/outbox.cif.g08.bks.cpg/sg180_3_cif.got.tgz:5299.got - 2010.05.20 11:43:55.
