data_PCOD9583472
_publ_section_title
;
Structure prediction by ZEFSAII (Michael W. Deem and Ramdas Pophale) SiO2 
 PCOD9583472
Probable space group: P 65 2 2
;
_chemical_formula_sum "Si O2"
_cell_formula_units_Z 60
_cell_length_a 16.910197
_cell_length_b 16.910197
_cell_length_c 10.984087
_cell_angle_alpha 90.000000
_cell_angle_beta 90.000000
_cell_angle_gamma 120.000000
_cell_volume 2720.144216
_symmetry_space_group_name_H-M "P 65 2 2"
_symmetry_group_IT_number 179
_symmetry_cell_setting 'hexagonal'
loop_
_space_group_symop_operation_xyz
x,y,z
x-y,x,5/6+z
-y,x-y,2/3+z
-x,-y,1/2+z
-x+y,-x,1/3+z
y,-x+y,1/6+z
x-y,-y,-z
-x,-x+y,1/3-z
y,x,2/3-z
-y,-x,1/6-z
-x+y,y,1/2-z
x,x-y,5/6-z
loop_
_atom_site_type_symbol
_atom_site_label
_atom_site_fract_x
_atom_site_fract_y
_atom_site_fract_z
Si Si1 0.526815 0.633543 0.811595
Si Si2 0.444894 0.067507 0.889036
Si Si3 0.353101 0.470778 0.082473
Si Si4 0.617468 0.830653 0.223420
Si Si5 0.927194 0.832797 0.059543
O O1 0.573066 0.573066 0.833334
O O2 0.428790 0.552975 0.758530
O O3 0.581194 0.711576 0.715978
O O4 0.540700 0.678894 0.944818
O O5 0.408542 0.133589 0.844451
O O6 0.414481 0.990218 0.782685
O O7 0.390947 0.000000 0.000000
O O8 0.421571 0.578430 0.083334
O O9 0.275604 0.435474 0.980284
O O10 0.725684 0.870030 0.216445
O O11 0.875420 0.885802 0.106524
O O12 0.000000 0.849403 0.166667
#
# Coordination Sequence:
#
# PCOD9583472 Si02
#       5
#    12  12  12  12  12
#     4  11  22  45  72  98 144 189 246 301 371 436
#     4  11  23  43  75 102 146 198 245 302 380 437
#     4  12  23  44  67 105 146 194 231 306 375 441
#     4  12  25  41  75 112 141 188 260 308 366 470
#     4  10  24  48  72 103 148 194 246 320 387 454
#
# _framework density 22.057653999999999
#
# number of rings (size 3 to 8) (size 9 to 14) (size 15 to 20)
#    0.000    0.800    6.000    2.400    0.000    7.200 
#    0.000    9.000    0.000    0.000    0.000    0.000 
#    0.000    0.000    0.000    0.000    0.000    0.000 
#
# Total GULP energy -334613.605020 kJ/mol
# GULP energy per Si atom -5576.893417 kJ/mol
# Density = 2.200745 g / cm^3
# Si number density = 22.057654 Si / 1000 Ang^3
#
#
#
# Elastic Constant Matrix: (Units=GPa)
#
#
# Indices 1 2 3 4 5 6 
#
# 1 128.3917 93.6667 54.5992 0.0000 0.0000 0.0000
# 2 93.6667 128.3917 54.5992 0.0000 0.0000 0.0000
# 3 54.5992 54.5992 110.9616 0.0000 0.0000 0.0000
# 4 0.0000 0.0000 0.0000 42.2567 0.0000 0.0000
# 5 0.0000 0.0000 0.0000 0.0000 42.2567 0.0000
# 6 0.0000 0.0000 0.0000 0.0000 0.0000 17.3625
#
#
#
# Elastic Compliance Matrix: (Units=1/GPa)
#
#
# Indices 1 2 3 4 5 6 
#
# 1 0.017369 -0.011428 -0.002923 0.000000 0.000000 0.000000
# 2 -0.011428 0.017369 -0.002923 0.000000 0.000000 0.000000
# 3 -0.002923 -0.002923 0.011889 0.000000 0.000000 0.000000
# 4 0.000000 0.000000 0.000000 0.023665 0.000000 0.000000
# 5 0.000000 0.000000 0.000000 0.000000 0.023665 0.000000
# 6 0.000000 0.000000 0.000000 0.000000 0.000000 0.057595
#
#
# Mechanical properties :
#
#
# Convention : Reuss Voigt Hill
#
# Bulk Modulus (GPa) = 82.79729 85.94170 84.36950
# Shear Modulus (GPa) = 26.29804 31.36718 28.83261
#
# Velocity S-wave (km/s) = 3.45663 3.77510 3.61937
# Velocity P-wave (km/s) = 7.31774 7.61897 7.46988
#
# Compressibility (1/GPa) = 0.01207769
#
# Stress axis : x y z
#
# Youngs Moduli (GPa) = 57.57294 57.57294 84.11210
#
# Poissons Ratio (x) = 0.65797 0.24588
# Poissons Ratio (y) = 0.65797 0.24588
# Poissons Ratio (z) = 0.16830 0.16830
#
# Static dielectric constant tensor:
#      x y z
#    x 1.866240 0.000000 0.000000 
#    y 0.000000 1.866240 0.000000 
#    z 0.000000 0.000000 2.037960 
# 
# From -- ./inp_files/4671.got.cif
#   From: 2010.05.17/outbox.cif.g08.bks.cpg/sg179_3_cif.got.tgz:4671.got - 2010.05.20 11:37:33.
