data_PCOD9583196
_publ_section_title
;
Structure prediction by ZEFSAII (Michael W. Deem and Ramdas Pophale) SiO2 
 PCOD9583196
Probable space group: P 65 2 2
;
_chemical_formula_sum "Si O2"
_cell_formula_units_Z 84
_cell_length_a 17.646273
_cell_length_b 17.646273
_cell_length_c 15.261729
_cell_angle_alpha 90.000000
_cell_angle_beta 90.000000
_cell_angle_gamma 120.000000
_cell_volume 4115.668215
_symmetry_space_group_name_H-M "P 65 2 2"
_symmetry_group_IT_number 179
_symmetry_cell_setting 'hexagonal'
loop_
_space_group_symop_operation_xyz
x,y,z
x-y,x,5/6+z
-y,x-y,2/3+z
-x,-y,1/2+z
-x+y,-x,1/3+z
y,-x+y,1/6+z
x-y,-y,-z
-x,-x+y,1/3-z
y,x,2/3-z
-y,-x,1/6-z
-x+y,y,1/2-z
x,x-y,5/6-z
loop_
_atom_site_type_symbol
_atom_site_label
_atom_site_fract_x
_atom_site_fract_y
_atom_site_fract_z
Si Si1 0.878710 0.524759 0.893340
Si Si2 0.719467 0.538789 0.941411
Si Si3 0.192619 0.932096 0.423453
Si Si4 0.728841 0.754106 0.088344
Si Si5 0.903203 0.492270 0.698842
Si Si6 0.860714 0.599268 0.363785
Si Si7 0.675947 0.096980 0.511840
O O1 0.906831 0.453416 0.916667
O O2 0.785701 0.501744 0.934447
O O3 0.937153 0.624319 0.925824
O O4 0.877248 0.522230 0.787336
O O5 0.761676 0.634548 0.893439
O O6 0.637493 0.478289 0.882377
O O7 0.701993 0.557389 0.040664
O O8 0.096671 0.854525 0.393414
O O9 0.204975 0.000000 0.500000
O O10 0.242120 0.995545 0.343743
O O11 0.766448 0.701450 0.140186
O O12 0.903238 0.401807 0.709581
O O13 0.000000 0.563107 0.666667
O O14 0.882425 0.556502 0.281728
O O15 0.768153 0.594123 0.353381
O O16 0.660587 0.000000 0.500000
#
# Coordination Sequence:
#
# PCOD9583196 Si02
#       7
#    12  12  12  12  12  12  12
#     4  11  23  38  62  91 127 172 213 260 315 383
#     4  10  21  38  62  89 128 162 212 259 321 394
#     4  10  19  35  58  94 124 158 196 259 323 391
#     4  10  22  35  64  89 123 161 210 256 316 384
#     4  11  22  38  59  94 124 162 212 263 322 373
#     4  10  22  42  60  92 119 165 216 265 319 382
#     4  10  24  40  66  87 124 164 216 272 315 380
#
# _framework density 20.40981
#
# number of rings (size 3 to 8) (size 9 to 14) (size 15 to 20)
#    0.000    1.714    0.000    4.714   10.000    2.857 
#    2.571    0.000    0.000    2.571    0.000    0.000 
#    0.000    0.000    0.000    0.000    0.000    0.000 
#
# Total GULP energy -468403.389923 kJ/mol
# GULP energy per Si atom -5576.230832 kJ/mol
# Density = 2.036336 g / cm^3
# Si number density = 20.409810 Si / 1000 Ang^3
#
#
#
# Elastic Constant Matrix: (Units=GPa)
#
#
# Indices 1 2 3 4 5 6 
#
# 1 38.3853 4.3346 5.9948 0.0000 0.0000 0.0000
# 2 4.3346 38.3853 5.9948 0.0000 0.0000 0.0000
# 3 5.9948 5.9948 73.3425 0.0000 0.0000 0.0000
# 4 0.0000 0.0000 0.0000 23.5665 0.0000 0.0000
# 5 0.0000 0.0000 0.0000 0.0000 23.5665 0.0000
# 6 0.0000 0.0000 0.0000 0.0000 0.0000 17.0254
#
#
#
# Elastic Compliance Matrix: (Units=1/GPa)
#
#
# Indices 1 2 3 4 5 6 
#
# 1 0.026663 -0.002705 -0.001958 0.000000 0.000000 0.000000
# 2 -0.002705 0.026663 -0.001958 0.000000 0.000000 0.000000
# 3 -0.001958 -0.001958 0.013955 0.000000 0.000000 0.000000
# 4 0.000000 0.000000 0.000000 0.042433 0.000000 0.000000
# 5 0.000000 0.000000 0.000000 0.000000 0.042433 0.000000
# 6 0.000000 0.000000 0.000000 0.000000 0.000000 0.058736
#
#
# Mechanical properties :
#
#
# Convention : Reuss Voigt Hill
#
# Bulk Modulus (GPa) = 18.50564 20.30683 19.40624
# Shear Modulus (GPa) = 20.64935 21.75093 21.20014
#
# Velocity S-wave (km/s) = 3.18423 3.26806 3.22642
# Velocity P-wave (km/s) = 4.75456 4.92051 4.83825
#
# Compressibility (1/GPa) = 0.05403757
#
# Stress axis : x y z
#
# Youngs Moduli (GPa) = 37.50528 37.50528 71.66002
#
# Poissons Ratio (x) = 0.10145 0.14033
# Poissons Ratio (y) = 0.10145 0.14033
# Poissons Ratio (z) = 0.07344 0.07344
#
# Static dielectric constant tensor:
#      x y z
#    x 1.757660 0.000000 0.000000 
#    y 0.000000 1.757660 0.000000 
#    z 0.000000 0.000000 1.772800 
# 
# From -- ./inp_files/6114.got.cif
#   From: 2010.05.17/outbox.cif.g08.bks.cpg/sg179_4_cif.got.tgz:6114.got - 2010.05.20 11:37:33.
