data_PCOD9583844
_publ_section_title
;
Structure prediction by ZEFSAII (Michael W. Deem and Ramdas Pophale) SiO2 
 PCOD9583844
Probable space group: P 62 2 2
;
_chemical_formula_sum "Si O2"
_cell_formula_units_Z 51
_cell_length_a 12.193143
_cell_length_b 12.193143
_cell_length_c 20.856898
_cell_angle_alpha 90.000000
_cell_angle_beta 90.000000
_cell_angle_gamma 120.000000
_cell_volume 2685.416687
_symmetry_space_group_name_H-M "P 62 2 2"
_symmetry_group_IT_number 180
_symmetry_cell_setting 'hexagonal'
loop_
_space_group_symop_operation_xyz
x,y,z
x-y,x,1/3+z
-y,x-y,2/3+z
-x,-y,z
-x+y,-x,1/3+z
y,-x+y,2/3+z
x-y,-y,-z
-x,-x+y,1/3-z
y,x,2/3-z
-y,-x,2/3-z
-x+y,y,-z
x,x-y,1/3-z
loop_
_atom_site_type_symbol
_atom_site_label
_atom_site_fract_x
_atom_site_fract_y
_atom_site_fract_z
Si Si1 0.965762 0.109474 0.591868
Si Si2 0.838424 0.161577 0.833334
Si Si3 0.503179 0.631711 0.065308
Si Si4 0.028627 0.681319 0.061102
Si Si5 0.500000 0.500000 0.833334
Si Si6 0.750096 0.249905 0.333334
O O1 0.000000 0.146457 0.666667
O O2 0.045522 0.228759 0.545832
O O3 0.816078 0.050463 0.584588
O O4 0.000000 0.000000 0.578183
O O5 0.722559 0.139474 0.788795
O O6 0.500000 0.500000 0.074510
O O7 0.357882 0.588696 0.050570
O O8 0.581010 0.693678 0.000286
O O9 0.883151 0.589239 0.037074
O O10 0.066158 0.616650 0.117569
#
# Coordination Sequence:
#
# PCOD9583844 Si02
#       6
#    12   6  12  12   3   6
#     4  11  24  42  70 103 140 177 217 288 362 412
#     4  12  25  45  66 104 142 180 226 272 366 422
#     4  10  23  45  65  94 131 181 224 282 330 403
#     4  11  23  42  67  99 136 170 230 286 333 412
#     4  12  24  38  66 100 130 176 234 278 342 388
#     4  10  20  44  69  91 134 176 230 278 338 390
#
# _framework density 18.991467
#
# number of rings (size 3 to 8) (size 9 to 14) (size 15 to 20)
#    0.000    1.176    5.882    1.765    6.588    0.941 
#    4.235    0.000    0.000    0.000    0.000    0.000 
#    0.000    0.000    0.000    0.000    0.000    0.000 
#
# Total GULP energy -284621.112142 kJ/mol
# GULP energy per Si atom -5580.806120 kJ/mol
# Density = 1.894824 g / cm^3
# Si number density = 18.991467 Si / 1000 Ang^3
#
#
#
# Elastic Constant Matrix: (Units=GPa)
#
#
# Indices 1 2 3 4 5 6 
#
# 1 111.1253 51.8285 44.3084 0.0000 0.0000 0.0000
# 2 51.8285 111.1253 44.3084 0.0000 0.0000 0.0000
# 3 44.3084 44.3084 124.7402 0.0000 0.0000 0.0000
# 4 0.0000 0.0000 0.0000 16.4874 0.0000 0.0000
# 5 0.0000 0.0000 0.0000 0.0000 16.4874 0.0000
# 6 0.0000 0.0000 0.0000 0.0000 0.0000 29.6484
#
#
#
# Elastic Compliance Matrix: (Units=1/GPa)
#
#
# Indices 1 2 3 4 5 6 
#
# 1 0.012235 -0.004629 -0.002702 0.000000 0.000000 0.000000
# 2 -0.004629 0.012235 -0.002702 0.000000 0.000000 0.000000
# 3 -0.002702 -0.002702 0.009936 0.000000 0.000000 0.000000
# 4 0.000000 0.000000 0.000000 0.060653 0.000000 0.000000
# 5 0.000000 0.000000 0.000000 0.000000 0.060653 0.000000
# 6 0.000000 0.000000 0.000000 0.000000 0.000000 0.033729
#
#
# Mechanical properties :
#
#
# Convention : Reuss Voigt Hill
#
# Bulk Modulus (GPa) = 69.72951 69.76461 69.74706
# Shear Modulus (GPa) = 23.33338 26.29432 24.81385
#
# Velocity S-wave (km/s) = 3.50898 3.72497 3.61858
# Velocity P-wave (km/s) = 7.29474 7.43740 7.36642
#
# Compressibility (1/GPa) = 0.01434113
#
# Stress axis : x y z
#
# Youngs Moduli (GPa) = 81.73194 81.73194 100.64456
#
# Poissons Ratio (x) = 0.37835 0.27191
# Poissons Ratio (y) = 0.37835 0.27191
# Poissons Ratio (z) = 0.22081 0.22081
#
# Static dielectric constant tensor:
#      x y z
#    x 1.704950 0.000000 0.000000 
#    y 0.000000 1.704950 0.000000 
#    z 0.000000 0.000000 1.711300 
# 
# From -- ./inp_files/8798.got.cif
#   From: 2010.05.17/outbox.cif.g08.bks.cpg/sg180_5_cif.got.tgz:8798.got - 2010.05.20 11:43:55.
