data_PCOD9583048
_publ_section_title
;
Structure prediction by ZEFSAII (Michael W. Deem and Ramdas Pophale) SiO2 
 PCOD9583048
Probable space group: P 61 2 2
;
_chemical_formula_sum "Si O2"
_cell_formula_units_Z 54
_cell_length_a 11.273752
_cell_length_b 11.273752
_cell_length_c 21.678243
_cell_angle_alpha 90.000000
_cell_angle_beta 90.000000
_cell_angle_gamma 120.000000
_cell_volume 2386.116620
_symmetry_space_group_name_H-M "P 61 2 2"
_symmetry_group_IT_number 178
_symmetry_cell_setting 'hexagonal'
loop_
_space_group_symop_operation_xyz
x,y,z
x-y,x,1/6+z
-y,x-y,1/3+z
-x,-y,1/2+z
-x+y,-x,2/3+z
y,-x+y,5/6+z
x-y,-y,-z
-x,-x+y,2/3-z
y,x,1/3-z
-y,-x,5/6-z
-x+y,y,1/2-z
x,x-y,1/6-z
loop_
_atom_site_type_symbol
_atom_site_label
_atom_site_fract_x
_atom_site_fract_y
_atom_site_fract_z
Si Si1 0.537564 0.670134 0.539287
Si Si2 0.506517 0.753259 0.083334
Si Si3 0.701625 0.148607 0.572053
Si Si4 0.274269 0.877773 0.653425
Si Si5 0.127444 0.278622 0.642166
O O1 0.468519 0.734260 0.583334
O O2 0.585664 0.766308 0.478558
O O3 0.649105 0.660127 0.582880
O O4 0.431640 0.514504 0.519814
O O5 0.420286 0.820619 0.057297
O O6 0.606310 0.834292 0.139301
O O7 0.740199 0.211133 0.640713
O O8 0.207957 0.864181 0.586991
O O9 0.228681 0.967883 0.694950
O O10 0.170308 0.170308 0.666667
#
# Coordination Sequence:
#
# PCOD9583048 Si02
#       5
#    12   6  12  12  12
#     4  12  25  45  71 102 149 197 249 320 389 464
#     4  12  22  42  72 102 150 182 246 308 386 464
#     4  12  25  45  66 109 144 193 251 308 386 459
#     4  12  25  41  72 100 143 192 244 312 375 455
#     4  12  23  44  67 106 140 191 241 302 376 456
#
# _framework density 22.630913
#
# number of rings (size 3 to 8) (size 9 to 14) (size 15 to 20)
#    0.000    0.000    6.667    3.333    0.000    0.000 
#    0.000    4.444    0.000    0.000    0.000    0.000 
#    0.000    0.000    0.000    0.000    0.000    0.000 
#
# Total GULP energy -301392.564989 kJ/mol
# GULP energy per Si atom -5581.343796 kJ/mol
# Density = 2.257940 g / cm^3
# Si number density = 22.630913 Si / 1000 Ang^3
#
#
#
# Elastic Constant Matrix: (Units=GPa)
#
#
# Indices 1 2 3 4 5 6 
#
# 1 81.0887 21.6077 23.1405 0.0000 0.0000 0.0000
# 2 21.6077 81.0887 23.1405 0.0000 0.0000 0.0000
# 3 23.1405 23.1405 89.5958 0.0000 0.0000 0.0000
# 4 0.0000 0.0000 0.0000 38.4877 0.0000 0.0000
# 5 0.0000 0.0000 0.0000 0.0000 38.4877 0.0000
# 6 0.0000 0.0000 0.0000 0.0000 0.0000 29.7405
#
#
#
# Elastic Compliance Matrix: (Units=1/GPa)
#
#
# Indices 1 2 3 4 5 6 
#
# 1 0.013916 -0.002896 -0.002846 0.000000 0.000000 0.000000
# 2 -0.002896 0.013916 -0.002846 0.000000 0.000000 0.000000
# 3 -0.002846 -0.002846 0.012631 0.000000 0.000000 0.000000
# 4 0.000000 0.000000 0.000000 0.025982 0.000000 0.000000
# 5 0.000000 0.000000 0.000000 0.000000 0.025982 0.000000
# 6 0.000000 0.000000 0.000000 0.000000 0.000000 0.033624
#
#
# Mechanical properties :
#
#
# Convention : Reuss Voigt Hill
#
# Bulk Modulus (GPa) = 42.94288 43.06120 43.00204
# Shear Modulus (GPa) = 33.11438 33.60213 33.35825
#
# Velocity S-wave (km/s) = 3.82938 3.85748 3.84345
# Velocity P-wave (km/s) = 6.21037 6.23771 6.22406
#
# Compressibility (1/GPa) = 0.02328675
#
# Stress axis : x y z
#
# Youngs Moduli (GPa) = 71.85912 71.85912 79.16733
#
# Poissons Ratio (x) = 0.20810 0.22533
# Poissons Ratio (y) = 0.20810 0.22533
# Poissons Ratio (z) = 0.20453 0.20453
#
# Static dielectric constant tensor:
#      x y z
#    x 1.899870 0.000000 0.000000 
#    y 0.000000 1.899870 0.000000 
#    z 0.000000 0.000000 1.803830 
# 
# From -- ./inp_files/7417.got.cif
#   From: 2010.05.17/outbox.cif.g08.bks.cpg/sg178_4_cif.got.tgz:7417.got - 2010.05.20 11:30:59.
