data_PCOD9583270
_publ_section_title
;
Structure prediction by ZEFSAII (Michael W. Deem and Ramdas Pophale) SiO2 
 PCOD9583270
Probable space group: P 65 2 2
;
_chemical_formula_sum "Si O2"
_cell_formula_units_Z 72
_cell_length_a 20.405303
_cell_length_b 20.405303
_cell_length_c 13.499798
_cell_angle_alpha 90.000000
_cell_angle_beta 90.000000
_cell_angle_gamma 120.000000
_cell_volume 4867.926339
_symmetry_space_group_name_H-M "P 65 2 2"
_symmetry_group_IT_number 179
_symmetry_cell_setting 'hexagonal'
loop_
_space_group_symop_operation_xyz
x,y,z
x-y,x,5/6+z
-y,x-y,2/3+z
-x,-y,1/2+z
-x+y,-x,1/3+z
y,-x+y,1/6+z
x-y,-y,-z
-x,-x+y,1/3-z
y,x,2/3-z
-y,-x,1/6-z
-x+y,y,1/2-z
x,x-y,5/6-z
loop_
_atom_site_type_symbol
_atom_site_label
_atom_site_fract_x
_atom_site_fract_y
_atom_site_fract_z
Si Si1 0.384976 0.615024 0.083334
Si Si2 0.751508 0.446544 0.448220
Si Si3 0.406973 0.440106 0.108627
Si Si4 0.770853 0.229148 0.583334
Si Si5 0.319388 0.831866 0.606385
Si Si6 0.937074 0.576132 0.251079
Si Si7 0.897796 0.493755 0.573449
O O1 0.435102 0.701108 0.121891
O O2 0.376454 0.571661 0.185931
O O3 0.721320 0.360660 0.416667
O O4 0.749204 0.492014 0.352061
O O5 0.836627 0.478688 0.487752
O O6 0.473635 0.526366 0.083334
O O7 0.330879 0.438348 0.142007
O O8 0.441931 0.419770 0.201273
O O9 0.400505 0.385728 0.019393
O O10 0.722696 0.137129 0.581849
O O11 0.236950 0.763051 0.583334
O O12 0.354805 0.873432 0.504412
O O13 0.903958 0.485229 0.242049
O O14 0.000000 0.619204 0.166667
#
# Coordination Sequence:
#
# PCOD9583270 Si02
#       7
#     6  12  12   6  12  12  12
#     4  12  25  34  48  72 104 128 168 224 284 308
#     4  12  22  35  49  71 102 133 172 225 274 315
#     4  10  20  38  53  70  95 131 173 213 262 316
#     4  12  23  38  58  76 100 136 184 218 270 318
#     4  12  23  35  51  74  97 130 169 218 272 314
#     4  11  23  36  56  74  98 135 174 214 258 314
#     4  11  20  37  52  71  98 136 173 214 264 315
#
# _framework density 14.790692
#
# number of rings (size 3 to 8) (size 9 to 14) (size 15 to 20)
#    0.000    0.667    5.833    5.000    2.333    0.000 
#    0.000    0.000    0.000    0.000    0.000    0.000 
#    0.000    0.000    0.000    0.000    3.167    0.000 
#
# Total GULP energy -401135.885701 kJ/mol
# GULP energy per Si atom -5571.331746 kJ/mol
# Density = 1.475703 g / cm^3
# Si number density = 14.790692 Si / 1000 Ang^3
#
#
#
# Elastic Constant Matrix: (Units=GPa)
#
#
# Indices 1 2 3 4 5 6 
#
# 1 71.6672 43.7610 37.1047 0.0000 0.0000 0.0000
# 2 43.7610 71.6672 37.1047 0.0000 0.0000 0.0000
# 3 37.1047 37.1047 88.8277 0.0000 0.0000 0.0000
# 4 0.0000 0.0000 0.0000 22.7299 0.0000 0.0000
# 5 0.0000 0.0000 0.0000 0.0000 22.7299 0.0000
# 6 0.0000 0.0000 0.0000 0.0000 0.0000 13.9531
#
#
#
# Elastic Compliance Matrix: (Units=1/GPa)
#
#
# Indices 1 2 3 4 5 6 
#
# 1 0.023839 -0.011995 -0.004947 0.000000 0.000000 0.000000
# 2 -0.011995 0.023839 -0.004947 0.000000 0.000000 0.000000
# 3 -0.004947 -0.004947 0.015391 0.000000 0.000000 0.000000
# 4 0.000000 0.000000 0.000000 0.043995 0.000000 0.000000
# 5 0.000000 0.000000 0.000000 0.000000 0.043995 0.000000
# 6 0.000000 0.000000 0.000000 0.000000 0.000000 0.071669
#
#
# Mechanical properties :
#
#
# Convention : Reuss Voigt Hill
#
# Bulk Modulus (GPa) = 51.84193 52.01142 51.92668
# Shear Modulus (GPa) = 18.31918 19.49537 18.90728
#
# Velocity S-wave (km/s) = 3.52314 3.63448 3.57924
# Velocity P-wave (km/s) = 7.18863 7.27007 7.22947
#
# Compressibility (1/GPa) = 0.01928941
#
# Stress axis : x y z
#
# Youngs Moduli (GPa) = 41.94760 41.94760 64.97294
#
# Poissons Ratio (x) = 0.50317 0.32145
# Poissons Ratio (y) = 0.50317 0.32145
# Poissons Ratio (z) = 0.20754 0.20754
#
# Static dielectric constant tensor:
#      x y z
#    x 1.523280 0.000000 0.000000 
#    y 0.000000 1.523280 0.000000 
#    z 0.000000 0.000000 1.668930 
# 
# From -- ./inp_files/4867.got.cif
#   From: 2010.05.17/outbox.cif.g08.bks.cpg/sg179_3_cif.got.tgz:4867.got - 2010.05.20 11:37:33.
