data_PCOD9583507
_publ_section_title
;
Structure prediction by ZEFSAII (Michael W. Deem and Ramdas Pophale) SiO2 
 PCOD9583507
Probable space group: P 65 2 2
;
_chemical_formula_sum "Si O2"
_cell_formula_units_Z 66
_cell_length_a 14.190230
_cell_length_b 14.190230
_cell_length_c 17.507565
_cell_angle_alpha 90.000000
_cell_angle_beta 90.000000
_cell_angle_gamma 120.000000
_cell_volume 3053.059362
_symmetry_space_group_name_H-M "P 65 2 2"
_symmetry_group_IT_number 179
_symmetry_cell_setting 'hexagonal'
loop_
_space_group_symop_operation_xyz
x,y,z
x-y,x,5/6+z
-y,x-y,2/3+z
-x,-y,1/2+z
-x+y,-x,1/3+z
y,-x+y,1/6+z
x-y,-y,-z
-x,-x+y,1/3-z
y,x,2/3-z
-y,-x,1/6-z
-x+y,y,1/2-z
x,x-y,5/6-z
loop_
_atom_site_type_symbol
_atom_site_label
_atom_site_fract_x
_atom_site_fract_y
_atom_site_fract_z
Si Si1 0.390171 0.836004 0.835409
Si Si2 0.665244 0.823139 0.645585
Si Si3 0.751689 0.806325 0.482790
Si Si4 0.627382 0.254764 0.750000
Si Si5 0.857799 0.516135 0.286559
Si Si6 0.607745 0.018858 0.913870
O O1 0.431864 0.863727 0.750000
O O2 0.280269 0.842559 0.846127
O O3 0.336858 0.709351 0.854629
O O4 0.498223 0.910378 0.884947
O O5 0.702381 0.831276 0.557479
O O6 0.640299 0.712456 0.690281
O O7 0.766826 0.933764 0.678262
O O8 0.794717 0.897359 0.416667
O O9 0.643946 0.704256 0.444825
O O10 0.655899 0.172079 0.708247
O O11 0.748131 0.496262 0.250000
O O12 0.897502 0.438451 0.251945
O O13 0.634349 0.000000 0.000000
#
# Coordination Sequence:
#
# PCOD9583507 Si02
#       6
#    12  12  12   6  12  12
#     4  12  26  40  66 101 145 191 240 296 370 456
#     4  12  25  47  70 108 149 193 247 314 382 457
#     4  11  24  43  77 106 141 183 255 329 383 436
#     4  12  22  40  64  96 144 188 236 294 356 430
#     4  11  21  36  63 100 138 184 239 294 354 428
#     4  12  27  43  66 103 154 202 241 294 380 467
#
# _framework density 21.617659
#
# number of rings (size 3 to 8) (size 9 to 14) (size 15 to 20)
#    0.000    0.364    5.455    3.273    6.364    0.000 
#    0.000    0.000    0.000    4.364    0.000    0.000 
#    0.000    0.000    0.000    0.000    0.000    0.000 
#
# Total GULP energy -368019.645194 kJ/mol
# GULP energy per Si atom -5576.055230 kJ/mol
# Density = 2.156846 g / cm^3
# Si number density = 21.617659 Si / 1000 Ang^3
#
#
#
# Elastic Constant Matrix: (Units=GPa)
#
#
# Indices 1 2 3 4 5 6 
#
# 1 83.1279 4.8995 6.5549 0.0000 0.0000 0.0000
# 2 4.8995 83.1279 6.5549 0.0000 0.0000 0.0000
# 3 6.5549 6.5549 96.8877 0.0000 0.0000 0.0000
# 4 0.0000 0.0000 0.0000 24.8770 0.0000 0.0000
# 5 0.0000 0.0000 0.0000 0.0000 24.8770 0.0000
# 6 0.0000 0.0000 0.0000 0.0000 0.0000 39.1142
#
#
#
# Elastic Compliance Matrix: (Units=1/GPa)
#
#
# Indices 1 2 3 4 5 6 
#
# 1 0.012129 -0.000654 -0.000776 0.000000 0.000000 0.000000
# 2 -0.000654 0.012129 -0.000776 0.000000 0.000000 0.000000
# 3 -0.000776 -0.000776 0.010426 0.000000 0.000000 0.000000
# 4 0.000000 0.000000 0.000000 0.040198 0.000000 0.000000
# 5 0.000000 0.000000 0.000000 0.000000 0.040198 0.000000
# 6 0.000000 0.000000 0.000000 0.000000 0.000000 0.025566
#
#
# Mechanical properties :
#
#
# Convention : Reuss Voigt Hill
#
# Bulk Modulus (GPa) = 33.03361 33.24023 33.13692
# Shear Modulus (GPa) = 32.22678 34.11592 33.17135
#
# Velocity S-wave (km/s) = 3.86523 3.97690 3.92146
# Velocity P-wave (km/s) = 5.93582 6.04132 5.98880
#
# Compressibility (1/GPa) = 0.03027219
#
# Stress axis : x y z
#
# Youngs Moduli (GPa) = 82.44429 82.44429 95.91152
#
# Poissons Ratio (x) = 0.05389 0.07446
# Poissons Ratio (y) = 0.05389 0.07446
# Poissons Ratio (z) = 0.06401 0.06401
#
# Static dielectric constant tensor:
#      x y z
#    x 1.862340 0.000000 0.000000 
#    y 0.000000 1.862340 0.000000 
#    z 0.000000 0.000000 1.755660 
# 
# From -- ./inp_files/6718.got.cif
#   From: 2010.05.17/outbox.cif.g08.bks.cpg/sg179_4_cif.got.tgz:6718.got - 2010.05.20 11:37:33.
