data_PCOD9583314
_publ_section_title
;
Structure prediction by ZEFSAII (Michael W. Deem and Ramdas Pophale) SiO2 
 PCOD9583314
Probable space group: P 65 2 2
;
_chemical_formula_sum "Si O2"
_cell_formula_units_Z 48
_cell_length_a 17.904109
_cell_length_b 17.904109
_cell_length_c 7.962679
_cell_angle_alpha 90.000000
_cell_angle_beta 90.000000
_cell_angle_gamma 120.000000
_cell_volume 2210.524162
_symmetry_space_group_name_H-M "P 65 2 2"
_symmetry_group_IT_number 179
_symmetry_cell_setting 'hexagonal'
loop_
_space_group_symop_operation_xyz
x,y,z
x-y,x,5/6+z
-y,x-y,2/3+z
-x,-y,1/2+z
-x+y,-x,1/3+z
y,-x+y,1/6+z
x-y,-y,-z
-x,-x+y,1/3-z
y,x,2/3-z
-y,-x,1/6-z
-x+y,y,1/2-z
x,x-y,5/6-z
loop_
_atom_site_type_symbol
_atom_site_label
_atom_site_fract_x
_atom_site_fract_y
_atom_site_fract_z
Si Si1 0.928165 0.464083 0.916667
Si Si2 0.381985 0.000000 0.500000
Si Si3 0.630839 0.771912 0.640753
Si Si4 0.896997 0.575537 0.139468
Si Si5 0.868538 0.827674 0.017996
O O1 0.879904 0.394294 0.771528
O O2 0.982334 0.555010 0.823392
O O3 0.376561 0.085534 0.541367
O O4 0.571491 0.712386 0.490012
O O5 0.611793 0.850677 0.651776
O O6 0.730466 0.816495 0.586101
O O7 0.000000 0.637194 0.166667
O O8 0.832011 0.832011 0.833334
O O9 0.966911 0.857533 0.976384
#
# Coordination Sequence:
#
# PCOD9583314 Si02
#       5
#     6   6  12  12  12
#     4  12  24  42  70 100 142 172 224 280 366 420
#     4  12  22  42  72 104 136 178 230 292 346 426
#     4  11  23  40  72 101 137 181 242 289 342 411
#     4  11  23  43  65 104 135 178 226 286 347 415
#     4  10  21  38  59  92 142 191 245 293 344 398
#
# _framework density 21.714307999999999
#
# number of rings (size 3 to 8) (size 9 to 14) (size 15 to 20)
#    0.000    1.000    5.000    1.500    0.000    1.000 
#    0.000   21.250    0.000   15.000    0.000    0.000 
#    0.000    0.000    0.000    0.000    0.000    0.000 
#
# Total GULP energy -268028.834089 kJ/mol
# GULP energy per Si atom -5583.934044 kJ/mol
# Density = 2.166488 g / cm^3
# Si number density = 21.714308 Si / 1000 Ang^3
#
#
#
# Elastic Constant Matrix: (Units=GPa)
#
#
# Indices 1 2 3 4 5 6 
#
# 1 102.6642 58.8906 35.0669 0.0000 0.0000 0.0000
# 2 58.8906 102.6642 35.0669 0.0000 0.0000 0.0000
# 3 35.0669 35.0669 102.4220 0.0000 0.0000 0.0000
# 4 0.0000 0.0000 0.0000 23.9063 0.0000 0.0000
# 5 0.0000 0.0000 0.0000 0.0000 23.9063 0.0000
# 6 0.0000 0.0000 0.0000 0.0000 0.0000 21.8868
#
#
#
# Elastic Compliance Matrix: (Units=1/GPa)
#
#
# Indices 1 2 3 4 5 6 
#
# 1 0.015058 -0.007787 -0.002489 0.000000 0.000000 0.000000
# 2 -0.007787 0.015058 -0.002489 0.000000 0.000000 0.000000
# 3 -0.002489 -0.002489 0.011468 0.000000 0.000000 0.000000
# 4 0.000000 0.000000 0.000000 0.041830 0.000000 0.000000
# 5 0.000000 0.000000 0.000000 0.000000 0.041830 0.000000
# 6 0.000000 0.000000 0.000000 0.000000 0.000000 0.045690
#
#
# Mechanical properties :
#
#
# Convention : Reuss Voigt Hill
#
# Bulk Modulus (GPa) = 62.29741 62.86656 62.58198
# Shear Modulus (GPa) = 24.77518 25.85495 25.31506
#
# Velocity S-wave (km/s) = 3.38148 3.45438 3.41812
# Velocity P-wave (km/s) = 6.63308 6.70260 6.66793
#
# Compressibility (1/GPa) = 0.01605203
#
# Stress axis : x y z
#
# Youngs Moduli (GPa) = 66.41144 66.41144 87.19885
#
# Poissons Ratio (x) = 0.51716 0.21706
# Poissons Ratio (y) = 0.51716 0.21706
# Poissons Ratio (z) = 0.16531 0.16531
#
# Static dielectric constant tensor:
#      x y z
#    x 1.799640 0.000000 0.000000 
#    y 0.000000 1.799640 0.000000 
#    z 0.000000 0.000000 3.118730 
# 
# From -- ./inp_files/2686.got.cif
#   From: 2010.05.17/outbox.cif.g08.bks.cpg/sg179_2_cif.got.tgz:2686.got - 2010.05.20 11:37:33.
