data_PCOD9583170
_publ_section_title
;
Structure prediction by ZEFSAII (Michael W. Deem and Ramdas Pophale) SiO2 
 PCOD9583170
Probable space group: P 65 2 2
;
_chemical_formula_sum "Si O2"
_cell_formula_units_Z 96
_cell_length_a 14.662578
_cell_length_b 14.662578
_cell_length_c 27.293710
_cell_angle_alpha 90.000000
_cell_angle_beta 90.000000
_cell_angle_gamma 120.000000
_cell_volume 5081.756781
_symmetry_space_group_name_H-M "P 65 2 2"
_symmetry_group_IT_number 179
_symmetry_cell_setting 'hexagonal'
loop_
_space_group_symop_operation_xyz
x,y,z
x-y,x,5/6+z
-y,x-y,2/3+z
-x,-y,1/2+z
-x+y,-x,1/3+z
y,-x+y,1/6+z
x-y,-y,-z
-x,-x+y,1/3-z
y,x,2/3-z
-y,-x,1/6-z
-x+y,y,1/2-z
x,x-y,5/6-z
loop_
_atom_site_type_symbol
_atom_site_label
_atom_site_fract_x
_atom_site_fract_y
_atom_site_fract_z
Si Si1 0.485002 0.312591 0.836189
Si Si2 0.623056 0.529909 0.161797
Si Si3 0.160915 0.270633 0.969299
Si Si4 0.643468 0.009636 0.419953
Si Si5 0.735824 0.991579 0.732517
Si Si6 0.820634 0.511084 0.904659
Si Si7 0.782433 0.491432 0.495920
Si Si8 0.718918 0.290535 0.029061
O O1 0.481076 0.203250 0.846772
O O2 0.428223 0.315251 0.786237
O O3 0.427192 0.338434 0.878897
O O4 0.605266 0.397490 0.826093
O O5 0.580845 0.575088 0.204615
O O6 0.680989 0.623754 0.122308
O O7 0.534805 0.409698 0.150486
O O8 0.249982 0.270318 0.934796
O O9 0.055514 0.229410 0.938415
O O10 0.174180 0.225182 0.020527
O O11 0.193271 0.392674 0.981189
O O12 0.633977 0.893623 0.754904
O O13 0.867504 0.433752 0.916667
O O14 0.727784 0.476724 0.945992
O O15 0.794316 0.494544 0.847744
O O16 0.680197 0.402569 0.467601
O O17 0.737349 0.262652 0.083334
#
# Coordination Sequence:
#
# PCOD9583170 Si02
#       8
#    12  12  12  12  12  12  12  12
#     4  10  19  32  49  72 108 151 183 223 280 334
#     4  10  19  31  51  75 106 154 185 218 278 337
#     4  10  20  36  51  80 111 149 189 234 285 341
#     4  10  19  31  48  73 108 145 185 227 270 337
#     4  10  21  34  54  78 113 145 190 236 287 343
#     4   9  19  34  48  77 106 145 193 237 268 317
#     4   9  19  32  52  74 110 152 194 220 272 332
#     4  10  19  32  53  72 110 149 194 230 264 327
#
# _framework density 18.891105
#
# number of rings (size 3 to 8) (size 9 to 14) (size 15 to 20)
#    0.000    2.250    1.250    1.875    3.500    3.000 
#    0.000    0.000    0.000    0.000    0.000    0.000 
#    0.000   14.000    0.000    0.000    0.000    0.000 
#
# Total GULP energy -534895.632780 kJ/mol
# GULP energy per Si atom -5571.829508 kJ/mol
# Density = 1.884811 g / cm^3
# Si number density = 18.891105 Si / 1000 Ang^3
#
#
#
# Elastic Constant Matrix: (Units=GPa)
#
#
# Indices 1 2 3 4 5 6 
#
# 1 48.5501 8.3287 34.1176 0.0000 0.0000 0.0000
# 2 8.3287 48.5501 34.1176 0.0000 0.0000 0.0000
# 3 34.1176 34.1176 108.1695 0.0000 0.0000 0.0000
# 4 0.0000 0.0000 0.0000 19.2034 0.0000 0.0000
# 5 0.0000 0.0000 0.0000 0.0000 19.2034 0.0000
# 6 0.0000 0.0000 0.0000 0.0000 0.0000 20.1107
#
#
#
# Elastic Compliance Matrix: (Units=1/GPa)
#
#
# Indices 1 2 3 4 5 6 
#
# 1 0.026573 0.001710 -0.008921 0.000000 0.000000 0.000000
# 2 0.001710 0.026573 -0.008921 0.000000 0.000000 0.000000
# 3 -0.008921 -0.008921 0.014872 0.000000 0.000000 0.000000
# 4 0.000000 0.000000 0.000000 0.052074 0.000000 0.000000
# 5 0.000000 0.000000 0.000000 0.000000 0.052074 0.000000
# 6 0.000000 0.000000 0.000000 0.000000 0.000000 0.049725
#
#
# Mechanical properties :
#
#
# Convention : Reuss Voigt Hill
#
# Bulk Modulus (GPa) = 27.96784 39.82195 33.89490
# Shear Modulus (GPa) = 18.79196 20.28389 19.53793
#
# Velocity S-wave (km/s) = 3.15739 3.28033 3.21945
# Velocity P-wave (km/s) = 5.30368 5.95592 5.63924
#
# Compressibility (1/GPa) = 0.03575536
#
# Stress axis : x y z
#
# Youngs Moduli (GPa) = 37.63258 37.63258 67.23995
#
# Poissons Ratio (x) = -0.06437 0.59983
# Poissons Ratio (y) = -0.06437 0.59983
# Poissons Ratio (z) = 0.33571 0.33571
#
# Static dielectric constant tensor:
#      x y z
#    x 1.678170 0.000000 0.000000 
#    y 0.000000 1.678170 0.000000 
#    z 0.000000 0.000000 1.727960 
# 
# From -- ./inp_files/9046.got.cif
#   From: 2010.05.17/outbox.cif.g08.bks.cpg/sg179_5_cif.got.tgz:9046.got - 2010.05.20 11:37:33.
