data_PCOD9583111
_publ_section_title
;
Structure prediction by ZEFSAII (Michael W. Deem and Ramdas Pophale) SiO2 
 PCOD9583111
Probable space group: P 65 2 2
;
_chemical_formula_sum "Si O2"
_cell_formula_units_Z 54
_cell_length_a 13.819987
_cell_length_b 13.819987
_cell_length_c 14.213624
_cell_angle_alpha 90.000000
_cell_angle_beta 90.000000
_cell_angle_gamma 120.000000
_cell_volume 2350.989683
_symmetry_space_group_name_H-M "P 65 2 2"
_symmetry_group_IT_number 179
_symmetry_cell_setting 'hexagonal'
loop_
_space_group_symop_operation_xyz
x,y,z
x-y,x,5/6+z
-y,x-y,2/3+z
-x,-y,1/2+z
-x+y,-x,1/3+z
y,-x+y,1/6+z
x-y,-y,-z
-x,-x+y,1/3-z
y,x,2/3-z
-y,-x,1/6-z
-x+y,y,1/2-z
x,x-y,5/6-z
loop_
_atom_site_type_symbol
_atom_site_label
_atom_site_fract_x
_atom_site_fract_y
_atom_site_fract_z
Si Si1 0.000000 0.095067 0.166667
Si Si2 0.350231 0.649770 0.083334
Si Si3 0.774208 0.485985 0.094479
Si Si4 0.425508 0.359125 0.173139
Si Si5 0.849569 0.196269 0.980315
Si Si6 0.448413 0.448413 0.833334
O O1 0.016650 0.033300 0.250000
O O2 0.109492 0.214508 0.154039
O O3 0.445678 0.666425 0.155632
O O4 0.267342 0.653623 0.161951
O O5 0.897579 0.566723 0.131828
O O6 0.681500 0.523878 0.078938
O O7 0.384936 0.252828 0.242915
O O8 0.319878 0.366172 0.134664
O O9 0.498547 0.464451 0.243664
O O10 0.801413 0.198587 0.083334
#
# Coordination Sequence:
#
# PCOD9583111 Si02
#       6
#     6   6  12  12  12   6
#     4  10  17  34  59  90 140 180 218 289 366 457
#     4  10  24  50  72  98 148 202 240 308 380 464
#     4  11  26  46  73 105 149 198 251 314 390 459
#     4  12  24  41  74 108 148 186 254 321 376 467
#     4  11  19  36  66 106 141 179 237 313 374 440
#     4  12  25  46  75 112 146 200 264 319 388 481
#
# _framework density 22.969051
#
# number of rings (size 3 to 8) (size 9 to 14) (size 15 to 20)
#    0.000    0.889    8.889    0.000    3.111    1.778 
#    0.000    1.111    2.444    0.000    0.000    0.000 
#    0.000    0.000    0.000    0.000    0.000    0.000 
#
# Total GULP energy -300670.639488 kJ/mol
# GULP energy per Si atom -5567.974805 kJ/mol
# Density = 2.291677 g / cm^3
# Si number density = 22.969051 Si / 1000 Ang^3
#
#
#
# Elastic Constant Matrix: (Units=GPa)
#
#
# Indices 1 2 3 4 5 6 
#
# 1 80.5716 42.1278 32.4645 0.0000 0.0000 0.0000
# 2 42.1278 80.5716 32.4645 0.0000 0.0000 0.0000
# 3 32.4645 32.4645 107.5035 0.0000 0.0000 0.0000
# 4 0.0000 0.0000 0.0000 37.3142 0.0000 0.0000
# 5 0.0000 0.0000 0.0000 0.0000 37.3142 0.0000
# 6 0.0000 0.0000 0.0000 0.0000 0.0000 19.2219
#
#
#
# Elastic Compliance Matrix: (Units=1/GPa)
#
#
# Indices 1 2 3 4 5 6 
#
# 1 0.017856 -0.008156 -0.002929 0.000000 0.000000 0.000000
# 2 -0.008156 0.017856 -0.002929 0.000000 0.000000 0.000000
# 3 -0.002929 -0.002929 0.011071 0.000000 0.000000 0.000000
# 4 0.000000 0.000000 0.000000 0.026799 0.000000 0.000000
# 5 0.000000 0.000000 0.000000 0.000000 0.026799 0.000000
# 6 0.000000 0.000000 0.000000 0.000000 0.000000 0.052024
#
#
# Mechanical properties :
#
#
# Convention : Reuss Voigt Hill
#
# Bulk Modulus (GPa) = 53.32123 53.64006 53.48065
# Shear Modulus (GPa) = 26.78283 29.54270 28.16277
#
# Velocity S-wave (km/s) = 3.41844 3.59025 3.50540
# Velocity P-wave (km/s) = 6.23263 6.37106 6.30223
#
# Compressibility (1/GPa) = 0.01875426
#
# Stress axis : x y z
#
# Youngs Moduli (GPa) = 56.00344 56.00344 90.32417
#
# Poissons Ratio (x) = 0.45676 0.26459
# Poissons Ratio (y) = 0.45676 0.26459
# Poissons Ratio (z) = 0.16405 0.16405
#
# Static dielectric constant tensor:
#      x y z
#    x 1.949800 0.000000 0.000000 
#    y 0.000000 1.949800 0.000000 
#    z 0.000000 0.000000 1.936190 
# 
# From -- ./inp_files/5735.got.cif
#   From: 2010.05.17/outbox.cif.g08.bks.cpg/sg179_3_cif.got.tgz:5735.got - 2010.05.20 11:37:33.
