data_PCOD9583280
_publ_section_title
;
Structure prediction by ZEFSAII (Michael W. Deem and Ramdas Pophale) SiO2 
 PCOD9583280
Probable space group: P 65 2 2
;
_chemical_formula_sum "Si O2"
_cell_formula_units_Z 84
_cell_length_a 29.078540
_cell_length_b 29.078540
_cell_length_c 5.817380
_cell_angle_alpha 90.000000
_cell_angle_beta 90.000000
_cell_angle_gamma 120.000000
_cell_volume 4259.937818
_symmetry_space_group_name_H-M "P 65 2 2"
_symmetry_group_IT_number 179
_symmetry_cell_setting 'hexagonal'
loop_
_space_group_symop_operation_xyz
x,y,z
x-y,x,5/6+z
-y,x-y,2/3+z
-x,-y,1/2+z
-x+y,-x,1/3+z
y,-x+y,1/6+z
x-y,-y,-z
-x,-x+y,1/3-z
y,x,2/3-z
-y,-x,1/6-z
-x+y,y,1/2-z
x,x-y,5/6-z
loop_
_atom_site_type_symbol
_atom_site_label
_atom_site_fract_x
_atom_site_fract_y
_atom_site_fract_z
Si Si1 0.456262 0.115538 0.385609
Si Si2 0.423232 0.171849 0.051998
Si Si3 0.429584 0.839009 0.014168
Si Si4 0.056423 0.581398 0.171409
Si Si5 0.683099 0.065101 0.738789
Si Si6 0.743863 0.729664 0.575716
Si Si7 0.824517 0.688867 0.506956
O O1 0.458819 0.160305 0.219826
O O2 0.508827 0.144289 0.534931
O O3 0.399748 0.086947 0.506446
O O4 0.459976 0.069778 0.250635
O O5 0.374453 0.174446 0.167335
O O6 0.453470 0.226735 0.916667
O O7 0.394783 0.117693 0.902296
O O8 0.409888 0.819775 0.750000
O O9 0.403687 0.807374 0.250000
O O10 0.425751 0.893009 0.032020
O O11 0.000000 0.528381 0.166667
O O12 0.051239 0.624368 0.011013
O O13 0.698200 0.019207 0.729556
O O14 0.762092 0.762092 0.333334
O O15 0.774626 0.697527 0.544271
O O16 0.754946 0.754946 0.833334
O O17 0.855329 0.710658 0.750000
O O18 0.853386 0.706771 0.250000
#
# Coordination Sequence:
#
# PCOD9583280 Si02
#       7
#    12  12  12  12  12  12  12
#     4  10  22  37  53  76 104 147 191 245 300 361
#     4  10  23  37  55  77 109 148 193 244 313 362
#     4  10  20  39  53  71 103 143 187 233 286 355
#     4  10  22  35  48  73 107 142 187 238 297 346
#     4  11  22  36  55  80 111 141 194 252 304 350
#     4  12  24  38  58  85 110 140 194 256 312 355
#     4  11  24  42  57  77 111 151 189 242 316 378
#
# _framework density 19.718599000000001
#
# number of rings (size 3 to 8) (size 9 to 14) (size 15 to 20)
#    0.000    1.429    2.857    2.143   12.000    1.714 
#    0.000    0.000    0.000    0.000    0.000    0.000 
#    0.000    0.000    0.000    0.000    0.000  564.286 
#
# Total GULP energy -467611.676007 kJ/mol
# GULP energy per Si atom -5566.805667 kJ/mol
# Density = 1.967372 g / cm^3
# Si number density = 19.718599 Si / 1000 Ang^3
#
#
#
# Elastic Constant Matrix: (Units=GPa)
#
#
# Indices 1 2 3 4 5 6 
#
# 1 49.5266 31.2115 25.0889 0.0000 0.0000 0.0000
# 2 31.2115 49.5266 25.0889 0.0000 0.0000 0.0000
# 3 25.0889 25.0889 152.0932 0.0000 0.0000 0.0000
# 4 0.0000 0.0000 0.0000 3.3399 0.0000 0.0000
# 5 0.0000 0.0000 0.0000 0.0000 3.3399 0.0000
# 6 0.0000 0.0000 0.0000 0.0000 0.0000 9.1576
#
#
#
# Elastic Compliance Matrix: (Units=1/GPa)
#
#
# Indices 1 2 3 4 5 6 
#
# 1 0.034200 -0.020400 -0.002277 0.000000 0.000000 0.000000
# 2 -0.020400 0.034200 -0.002277 0.000000 0.000000 0.000000
# 3 -0.002277 -0.002277 0.007326 0.000000 0.000000 0.000000
# 4 0.000000 0.000000 0.000000 0.299412 0.000000 0.000000
# 5 0.000000 0.000000 0.000000 0.000000 0.299412 0.000000
# 6 0.000000 0.000000 0.000000 0.000000 0.000000 0.109199
#
#
# Mechanical properties :
#
#
# Convention : Reuss Voigt Hill
#
# Bulk Modulus (GPa) = 38.72808 45.99166 42.35987
# Shear Modulus (GPa) = 5.93640 14.48460 10.21050
#
# Velocity S-wave (km/s) = 1.73698 2.71323 2.27801
# Velocity P-wave (km/s) = 4.86886 5.76109 5.33366
#
# Compressibility (1/GPa) = 0.02582106
#
# Stress axis : x y z
#
# Youngs Moduli (GPa) = 29.23964 29.23964 136.50076
#
# Poissons Ratio (x) = 0.59648 0.31074
# Poissons Ratio (y) = 0.59648 0.31074
# Poissons Ratio (z) = 0.06656 0.06656
#
# Static dielectric constant tensor:
#      x y z
#    x 1.722420 0.000000 0.000000 
#    y 0.000000 1.722420 0.000000 
#    z 0.000000 0.000000 1.940740 
# 
# From -- ./inp_files/1735.got.cif
#   From: 2010.05.17/outbox.cif.g08.bks.cpg/sg179_1_cif.got.tgz:1735.got - 2010.05.20 11:37:33.
