data_PCOD9583716
_publ_section_title
;
Structure prediction by ZEFSAII (Michael W. Deem and Ramdas Pophale) SiO2 
 PCOD9583716
Probable space group: P 62 2 2
;
_chemical_formula_sum "Si O2"
_cell_formula_units_Z 96
_cell_length_a 14.035713
_cell_length_b 14.035713
_cell_length_c 27.171566
_cell_angle_alpha 90.000000
_cell_angle_beta 90.000000
_cell_angle_gamma 120.000000
_cell_volume 4635.688649
_symmetry_space_group_name_H-M "P 62 2 2"
_symmetry_group_IT_number 180
_symmetry_cell_setting 'hexagonal'
loop_
_space_group_symop_operation_xyz
x,y,z
x-y,x,1/3+z
-y,x-y,2/3+z
-x,-y,z
-x+y,-x,1/3+z
y,-x+y,2/3+z
x-y,-y,-z
-x,-x+y,1/3-z
y,x,2/3-z
-y,-x,2/3-z
-x+y,y,-z
x,x-y,1/3-z
loop_
_atom_site_type_symbol
_atom_site_label
_atom_site_fract_x
_atom_site_fract_y
_atom_site_fract_z
Si Si1 0.118633 0.604660 0.060342
Si Si2 0.531242 0.126081 0.282249
Si Si3 0.778897 0.775690 0.171158
Si Si4 0.736748 0.755857 0.955222
Si Si5 0.234003 0.895300 0.474550
Si Si6 0.046067 0.756712 0.936747
Si Si7 0.214500 0.996467 0.054356
Si Si8 0.289402 0.580265 0.125273
O O1 0.101414 0.709174 0.057091
O O2 0.206646 0.610519 0.097910
O O3 0.000000 0.500000 0.071839
O O4 0.150531 0.585858 0.005742
O O5 0.419431 0.130539 0.275210
O O6 0.624190 0.205067 0.245625
O O7 0.500000 0.000000 0.273656
O O8 0.879850 0.753543 0.168989
O O9 0.722178 0.722705 0.118551
O O10 0.730398 0.729860 0.225810
O O11 0.799976 0.899988 0.166667
O O12 0.774967 0.698385 0.915414
O O13 0.793762 0.887535 0.948479
O O14 0.739886 0.719688 0.011585
O O15 0.245178 0.788111 0.478690
O O16 0.335918 0.000000 0.500000
O O17 0.104384 0.888378 0.941469
O O18 0.265543 0.000000 0.000000
O O19 0.345832 0.672916 0.166667
#
# Coordination Sequence:
#
# PCOD9583716 Si02
#       8
#    12  12  12  12  12  12  12  12
#     4  10  20  39  64  90 128 171 206 258 321 393
#     4  10  22  43  65  89 123 167 217 264 322 377
#     4  10  21  37  57  87 120 165 213 256 309 368
#     4  10  19  36  59  88 124 168 206 255 319 388
#     4  12  23  37  58  88 131 166 208 257 318 393
#     4   9  20  38  61  87 118 161 216 266 316 368
#     4   9  18  35  59  84 114 158 208 250 306 374
#     4  12  26  38  62  97 131 165 211 265 327 390
#
# _framework density 20.708898999999999
#
# number of rings (size 3 to 8) (size 9 to 14) (size 15 to 20)
#    0.000    1.750    2.500    1.875    0.000    2.250 
#    2.250    0.000    0.000    2.250    0.000    4.375 
#    0.000    0.000    0.000    0.000    0.000    0.000 
#
# Total GULP energy -534781.566426 kJ/mol
# GULP energy per Si atom -5570.641317 kJ/mol
# Density = 2.066176 g / cm^3
# Si number density = 20.708899 Si / 1000 Ang^3
#
#
#
# Elastic Constant Matrix: (Units=GPa)
#
#
# Indices 1 2 3 4 5 6 
#
# 1 41.2605 16.5118 10.5336 0.0000 0.0000 0.0000
# 2 16.5118 41.2605 10.5336 0.0000 0.0000 0.0000
# 3 10.5336 10.5336 161.5430 0.0000 0.0000 0.0000
# 4 0.0000 0.0000 0.0000 31.0188 0.0000 0.0000
# 5 0.0000 0.0000 0.0000 0.0000 31.0188 0.0000
# 6 0.0000 0.0000 0.0000 0.0000 0.0000 12.3744
#
#
#
# Elastic Compliance Matrix: (Units=1/GPa)
#
#
# Indices 1 2 3 4 5 6 
#
# 1 0.029069 -0.011338 -0.001156 0.000000 0.000000 0.000000
# 2 -0.011338 0.029069 -0.001156 0.000000 0.000000 0.000000
# 3 -0.001156 -0.001156 0.006341 0.000000 0.000000 0.000000
# 4 0.000000 0.000000 0.000000 0.032238 0.000000 0.000000
# 5 0.000000 0.000000 0.000000 0.000000 0.032238 0.000000
# 6 0.000000 0.000000 0.000000 0.000000 0.000000 0.080812
#
#
# Mechanical properties :
#
#
# Convention : Reuss Voigt Hill
#
# Bulk Modulus (GPa) = 26.89741 35.46911 31.18326
# Shear Modulus (GPa) = 20.04331 28.64808 24.34570
#
# Velocity S-wave (km/s) = 3.11442 3.72340 3.43244
# Velocity P-wave (km/s) = 5.09405 5.97073 5.54973
#
# Compressibility (1/GPa) = 0.03717830
#
# Stress axis : x y z
#
# Youngs Moduli (GPa) = 34.40148 34.40148 157.70181
#
# Poissons Ratio (x) = 0.39003 0.18233
# Poissons Ratio (y) = 0.39003 0.18233
# Poissons Ratio (z) = 0.03977 0.03977
#
# Static dielectric constant tensor:
#      x y z
#    x 1.747130 0.000000 0.000000 
#    y 0.000000 1.747130 0.000000 
#    z 0.000000 0.000000 1.834070 
# 
# From -- ./inp_files/11453.got.cif
#   From: 2010.05.17/outbox.cif.g08.bks.cpg/sg180_6_cif.got.tgz:11453.got - 2010.05.20 11:43:55.
