data_PCOD9583776
_publ_section_title
;
Structure prediction by ZEFSAII (Michael W. Deem and Ramdas Pophale) SiO2 
 PCOD9583776
Probable space group: P 62 2 2
;
_chemical_formula_sum "Si O2"
_cell_formula_units_Z 66
_cell_length_a 18.339546
_cell_length_b 18.339546
_cell_length_c 11.543710
_cell_angle_alpha 90.000000
_cell_angle_beta 90.000000
_cell_angle_gamma 120.000000
_cell_volume 3362.429602
_symmetry_space_group_name_H-M "P 62 2 2"
_symmetry_group_IT_number 180
_symmetry_cell_setting 'hexagonal'
loop_
_space_group_symop_operation_xyz
x,y,z
x-y,x,1/3+z
-y,x-y,2/3+z
-x,-y,z
-x+y,-x,1/3+z
y,-x+y,2/3+z
x-y,-y,-z
-x,-x+y,1/3-z
y,x,2/3-z
-y,-x,2/3-z
-x+y,y,-z
x,x-y,1/3-z
loop_
_atom_site_type_symbol
_atom_site_label
_atom_site_fract_x
_atom_site_fract_y
_atom_site_fract_z
Si Si1 0.894399 0.373912 0.929740
Si Si2 0.142187 0.236341 0.866930
Si Si3 0.413188 0.315010 0.826691
Si Si4 0.760671 0.672344 0.280081
Si Si5 0.195654 0.804347 0.833334
Si Si6 0.454527 0.358421 0.573250
O O1 0.845805 0.294273 0.849522
O O2 0.879733 0.449266 0.891557
O O3 0.993845 0.404934 0.917486
O O4 0.866141 0.339047 0.061405
O O5 0.165115 0.165115 0.833334
O O6 0.226746 0.325737 0.838139
O O7 0.073968 0.246403 0.792517
O O8 0.115976 0.231951 0.000000
O O9 0.386280 0.386280 0.833334
O O10 0.449923 0.319290 0.699815
O O11 0.691627 0.691627 0.333334
O O12 0.811949 0.660065 0.384121
O O13 0.711486 0.593002 0.192342
#
# Coordination Sequence:
#
# PCOD9583776 Si02
#       6
#    12  12  12  12   6  12
#     4  10  20  36  59  91 130 161 206 264 318 389
#     4  11  23  40  68  97 130 164 216 282 343 404
#     4   9  17  33  60  91 121 151 198 257 315 374
#     4  12  25  40  64  93 128 170 220 271 333 404
#     4  12  24  38  56  90 133 170 217 272 326 390
#     4  10  20  37  60  92 121 166 211 258 322 385
#
# _framework density 19.628665000000002
#
# number of rings (size 3 to 8) (size 9 to 14) (size 15 to 20)
#    0.000    1.455    5.455    0.545    2.545    2.909 
#    0.000    0.000    0.000    6.000    0.000    0.000 
#    0.000    0.000    0.000    0.000    0.000    0.000 
#
# Total GULP energy -367939.771162 kJ/mol
# GULP energy per Si atom -5574.845018 kJ/mol
# Density = 1.958399 g / cm^3
# Si number density = 19.628665 Si / 1000 Ang^3
#
#
#
# Elastic Constant Matrix: (Units=GPa)
#
#
# Indices 1 2 3 4 5 6 
#
# 1 47.3993 6.5307 28.9964 0.0000 0.0000 0.0000
# 2 6.5307 47.3993 28.9964 0.0000 0.0000 0.0000
# 3 28.9964 28.9964 136.6817 0.0000 0.0000 0.0000
# 4 0.0000 0.0000 0.0000 23.0800 0.0000 0.0000
# 5 0.0000 0.0000 0.0000 0.0000 23.0800 0.0000
# 6 0.0000 0.0000 0.0000 0.0000 0.0000 20.4343
#
#
#
# Elastic Compliance Matrix: (Units=1/GPa)
#
#
# Indices 1 2 3 4 5 6 
#
# 1 0.024246 -0.000223 -0.005096 0.000000 0.000000 0.000000
# 2 -0.000223 0.024246 -0.005096 0.000000 0.000000 0.000000
# 3 -0.005096 -0.005096 0.009479 0.000000 0.000000 0.000000
# 4 0.000000 0.000000 0.000000 0.043327 0.000000 0.000000
# 5 0.000000 0.000000 0.000000 0.000000 0.043327 0.000000
# 6 0.000000 0.000000 0.000000 0.000000 0.000000 0.048937
#
#
# Mechanical properties :
#
#
# Convention : Reuss Voigt Hill
#
# Bulk Modulus (GPa) = 26.92591 40.05856 33.49223
# Shear Modulus (GPa) = 22.04847 24.44934 23.24891
#
# Velocity S-wave (km/s) = 3.35517 3.53313 3.44530
# Velocity P-wave (km/s) = 5.36255 6.09069 5.73818
#
# Compressibility (1/GPa) = 0.03713896
#
# Stress axis : x y z
#
# Youngs Moduli (GPa) = 41.24435 41.24435 105.50090
#
# Poissons Ratio (x) = 0.00919 0.53767
# Poissons Ratio (y) = 0.00919 0.53767
# Poissons Ratio (z) = 0.21019 0.21019
#
# Static dielectric constant tensor:
#      x y z
#    x 1.708790 0.000000 0.000000 
#    y 0.000000 1.708790 0.000000 
#    z 0.000000 0.000000 1.748840 
# 
# From -- ./inp_files/3233.got.cif
#   From: 2010.05.17/outbox.cif.g08.bks.cpg/sg180_2_cif.got.tgz:3233.got - 2010.05.20 11:43:55.
