data_PCOD9583073
_publ_section_title
;
Structure prediction by ZEFSAII (Michael W. Deem and Ramdas Pophale) SiO2 
 PCOD9583073
Probable space group: P 61 2 2
;
_chemical_formula_sum "Si O2"
_cell_formula_units_Z 36
_cell_length_a 8.717700
_cell_length_b 8.717700
_cell_length_c 19.634165
_cell_angle_alpha 90.000000
_cell_angle_beta 90.000000
_cell_angle_gamma 120.000000
_cell_volume 1292.251091
_symmetry_space_group_name_H-M "P 61 2 2"
_symmetry_group_IT_number 178
_symmetry_cell_setting 'hexagonal'
loop_
_space_group_symop_operation_xyz
x,y,z
x-y,x,1/6+z
-y,x-y,1/3+z
-x,-y,1/2+z
-x+y,-x,2/3+z
y,-x+y,5/6+z
x-y,-y,-z
-x,-x+y,2/3-z
y,x,1/3-z
-y,-x,5/6-z
-x+y,y,1/2-z
x,x-y,1/6-z
loop_
_atom_site_type_symbol
_atom_site_label
_atom_site_fract_x
_atom_site_fract_y
_atom_site_fract_z
Si Si1 0.966996 0.850217 0.467848
Si Si2 0.020371 0.545756 0.412584
Si Si3 0.865316 0.311554 0.531732
O O1 0.711333 0.676401 0.287689
O O2 0.051188 0.930915 0.547469
O O3 0.761085 0.778552 0.483376
O O4 0.177542 0.497493 0.402734
O O5 0.000000 0.575469 0.333334
O O6 0.865820 0.391996 0.457950
O O7 0.955954 0.477977 0.583334
#
# Coordination Sequence:
#
# PCOD9583073 Si02
#       3
#    12  12  12
#     4  12  26  48  76 113 162 217 276 343 426 513
#     4  12  27  49  83 123 166 218 279 348 425 512
#     4  12  27  51  81 120 168 217 280 351 428 521
#
# _framework density 27.858360999999999
#
# number of rings (size 3 to 8) (size 9 to 14) (size 15 to 20)
#    0.000    0.000    0.000   10.000    0.000    5.333 
#    0.000    3.333    0.000    4.000    0.000    0.000 
#    0.000    0.000    0.000    0.000    0.000    0.000 
#
# Total GULP energy -200614.421077 kJ/mol
# GULP energy per Si atom -5572.622808 kJ/mol
# Density = 2.779495 g / cm^3
# Si number density = 27.858361 Si / 1000 Ang^3
#
#
#
# Elastic Constant Matrix: (Units=GPa)
#
#
# Indices 1 2 3 4 5 6 
#
# 1 155.4983 105.4944 76.8468 0.0000 0.0000 0.0000
# 2 105.4944 155.4983 76.8468 0.0000 0.0000 0.0000
# 3 76.8468 76.8468 251.2706 0.0000 0.0000 0.0000
# 4 0.0000 0.0000 0.0000 68.1865 0.0000 0.0000
# 5 0.0000 0.0000 0.0000 0.0000 68.1865 0.0000
# 6 0.0000 0.0000 0.0000 0.0000 0.0000 25.0020
#
#
#
# Elastic Compliance Matrix: (Units=1/GPa)
#
#
# Indices 1 2 3 4 5 6 
#
# 1 0.012336 -0.007663 -0.001429 0.000000 0.000000 0.000000
# 2 -0.007663 0.012336 -0.001429 0.000000 0.000000 0.000000
# 3 -0.001429 -0.001429 0.004854 0.000000 0.000000 0.000000
# 4 0.000000 0.000000 0.000000 0.014666 0.000000 0.000000
# 5 0.000000 0.000000 0.000000 0.000000 0.014666 0.000000
# 6 0.000000 0.000000 0.000000 0.000000 0.000000 0.039997
#
#
# Mechanical properties :
#
#
# Convention : Reuss Voigt Hill
#
# Bulk Modulus (GPa) = 117.87639 120.07147 118.97393
# Shear Modulus (GPa) = 40.74194 52.48027 46.61110
#
# Velocity S-wave (km/s) = 3.82837 4.34501 4.09485
# Velocity P-wave (km/s) = 7.87061 8.26840 8.07196
#
# Compressibility (1/GPa) = 0.00848346
#
# Stress axis : x y z
#
# Youngs Moduli (GPa) = 81.06490 81.06490 206.01700
#
# Poissons Ratio (x) = 0.62117 0.29444
# Poissons Ratio (y) = 0.62117 0.29444
# Poissons Ratio (z) = 0.11586 0.11586
#
# Static dielectric constant tensor:
#      x y z
#    x 2.216040 0.000000 0.000000 
#    y 0.000000 2.216040 0.000000 
#    z 0.000000 0.000000 2.247380 
# 
# From -- ./inp_files/6272.got.cif
#   From: 2010.05.17/outbox.cif.g08.bks.cpg/sg178_4_cif.got.tgz:6272.got - 2010.05.20 11:30:59.
