data_PCOD9583744
_publ_section_title
;
Structure prediction by ZEFSAII (Michael W. Deem and Ramdas Pophale) SiO2 
 PCOD9583744
Probable space group: P 62 2 2
;
_chemical_formula_sum "Si O2"
_cell_formula_units_Z 54
_cell_length_a 20.122964
_cell_length_b 20.122964
_cell_length_c 7.882425
_cell_angle_alpha 90.000000
_cell_angle_beta 90.000000
_cell_angle_gamma 120.000000
_cell_volume 2764.231294
_symmetry_space_group_name_H-M "P 62 2 2"
_symmetry_group_IT_number 180
_symmetry_cell_setting 'hexagonal'
loop_
_space_group_symop_operation_xyz
x,y,z
x-y,x,1/3+z
-y,x-y,2/3+z
-x,-y,z
-x+y,-x,1/3+z
y,-x+y,2/3+z
x-y,-y,-z
-x,-x+y,1/3-z
y,x,2/3-z
-y,-x,2/3-z
-x+y,y,-z
x,x-y,1/3-z
loop_
_atom_site_type_symbol
_atom_site_label
_atom_site_fract_x
_atom_site_fract_y
_atom_site_fract_z
Si Si1 0.835723 0.566844 0.843489
Si Si2 0.949649 0.838111 0.331113
Si Si3 0.499658 0.749829 0.166667
Si Si4 0.214062 0.589974 0.977460
Si Si5 0.070718 0.805369 0.461078
O O1 0.790523 0.549513 0.666078
O O2 0.839267 0.490841 0.887145
O O3 0.912109 0.649692 0.835858
O O4 0.784572 0.569143 0.000000
O O5 0.939231 0.878462 0.500000
O O6 0.862910 0.778380 0.281138
O O7 0.991866 0.790342 0.379413
O O8 0.000000 0.887422 0.166667
O O9 0.441418 0.780767 0.208139
O O10 0.299649 0.599297 0.000000
O O11 0.187644 0.593822 0.166667
O O12 0.136719 0.863282 0.333334
#
# Coordination Sequence:
#
# PCOD9583744 Si02
#       5
#    12  12   6  12  12
#     4  10  20  31  47  80 121 150 209 254 299 362
#     4  10  20  38  65  90 124 156 197 247 316 369
#     4  12  18  28  50  74 118 166 206 248 322 356
#     4  11  17  28  46  72 118 162 201 254 312 354
#     4   9  20  37  58  87 120 153 194 254 302 367
#
# _framework density 19.535267999999999
#
# number of rings (size 3 to 8) (size 9 to 14) (size 15 to 20)
#    0.000    1.778    5.556    1.333    1.556    0.000 
#    0.000    0.000    0.000   56.667    0.000    1.556 
#   10.000    0.000    0.000    0.000    0.000    0.000 
#
# Total GULP energy -300757.821174 kJ/mol
# GULP energy per Si atom -5569.589281 kJ/mol
# Density = 1.949080 g / cm^3
# Si number density = 19.535268 Si / 1000 Ang^3
#
#
#
# Elastic Constant Matrix: (Units=GPa)
#
#
# Indices 1 2 3 4 5 6 
#
# 1 62.5580 32.6012 35.5447 0.0000 0.0000 0.0000
# 2 32.6012 62.5580 35.5447 0.0000 0.0000 0.0000
# 3 35.5447 35.5447 148.7829 0.0000 0.0000 0.0000
# 4 0.0000 0.0000 0.0000 -13.8558 0.0000 0.0000
# 5 0.0000 0.0000 0.0000 0.0000 -13.8558 0.0000
# 6 0.0000 0.0000 0.0000 0.0000 0.0000 14.9784
#
#
#
# Elastic Compliance Matrix: (Units=1/GPa)
#
#
# Indices 1 2 3 4 5 6 
#
# 1 0.023087 -0.010295 -0.003056 0.000000 0.000000 0.000000
# 2 -0.010295 0.023087 -0.003056 0.000000 0.000000 0.000000
# 3 -0.003056 -0.003056 0.008181 0.000000 0.000000 0.000000
# 4 0.000000 0.000000 0.000000 -0.072172 0.000000 0.000000
# 5 0.000000 0.000000 0.000000 0.000000 -0.072172 0.000000
# 6 0.000000 0.000000 0.000000 0.000000 0.000000 0.066763
#
#
# Mechanical properties :
#
#
# Convention : Reuss Voigt Hill
#
# Bulk Modulus (GPa) = 46.42340 53.47555 49.94948
# Shear Modulus (GPa) = 298.19701 8.80058 153.49879
#
# Velocity S-wave (km/s) = 12.36838 2.12479 8.87388
# Velocity P-wave (km/s) = 15.09254 5.78385 11.42886
#
# Compressibility (1/GPa) = 0.02154086
#
# Stress axis : x y z
#
# Youngs Moduli (GPa) = 43.31531 43.31531 122.22896
#
# Poissons Ratio (x) = 0.44592 0.37353
# Poissons Ratio (y) = 0.44592 0.37353
# Poissons Ratio (z) = 0.13237 0.13237
#
# Static dielectric constant tensor:
#      x y z
#    x 1.702740 0.000000 0.000000 
#    y 0.000000 1.702740 0.000000 
#    z 0.000000 0.000000 1.567610 
# 
# From -- ./inp_files/3079.got.cif
#   From: 2010.05.17/outbox.cif.g08.bks.cpg/sg180_2_cif.got.tgz:3079.got - 2010.05.20 11:43:55.
