data_PCOD9583642
_publ_section_title
;
Structure prediction by ZEFSAII (Michael W. Deem and Ramdas Pophale) SiO2 
 PCOD9583642
Probable space group: P 62 2 2
;
_chemical_formula_sum "Si O2"
_cell_formula_units_Z 63
_cell_length_a 16.526796
_cell_length_b 16.526796
_cell_length_c 15.195503
_cell_angle_alpha 90.000000
_cell_angle_beta 90.000000
_cell_angle_gamma 120.000000
_cell_volume 3594.372187
_symmetry_space_group_name_H-M "P 62 2 2"
_symmetry_group_IT_number 180
_symmetry_cell_setting 'hexagonal'
loop_
_space_group_symop_operation_xyz
x,y,z
x-y,x,1/3+z
-y,x-y,2/3+z
-x,-y,z
-x+y,-x,1/3+z
y,-x+y,2/3+z
x-y,-y,-z
-x,-x+y,1/3-z
y,x,2/3-z
-y,-x,2/3-z
-x+y,y,-z
x,x-y,1/3-z
loop_
_atom_site_type_symbol
_atom_site_label
_atom_site_fract_x
_atom_site_fract_y
_atom_site_fract_z
Si Si1 0.902686 0.676886 0.126800
Si Si2 0.718253 0.072689 0.256778
Si Si3 0.155326 0.526857 0.796372
Si Si4 0.475680 0.084249 0.251171
Si Si5 0.669130 0.186057 0.564926
Si Si6 0.500000 0.000000 0.000000
O O1 0.821343 0.703465 0.118050
O O2 0.866924 0.585707 0.187779
O O3 0.000000 0.755189 0.166667
O O4 0.915835 0.647491 0.028357
O O5 0.680420 0.136194 0.211062
O O6 0.635847 0.967625 0.239193
O O7 0.149291 0.612976 0.837798
O O8 0.252648 0.547242 0.756957
O O9 0.069381 0.481899 0.727665
O O10 0.508753 0.138752 0.341849
O O11 0.500000 0.000000 0.253873
O O12 0.588949 0.177897 0.500000
#
# Coordination Sequence:
#
# PCOD9583642 Si02
#       6
#    12  12  12  12  12   3
#     4  10  18  28  50  80 108 143 186 228 286 343
#     4   9  17  32  47  73 105 136 180 234 278 332
#     4  10  22  35  51  70  92 142 190 240 283 342
#     4  10  18  34  54  69 108 148 182 233 297 334
#     4  11  22  31  51  79 110 139 190 236 292 349
#     4  12  20  40  60  60  90 148 206 220 308 340
#
# _framework density 17.527401000000001
#
# number of rings (size 3 to 8) (size 9 to 14) (size 15 to 20)
#    0.000    1.905    4.762    2.286    0.000    3.810 
#    0.000    0.000    0.000    0.000    0.000    0.000 
#    0.000    0.000    0.000   20.571    1.524    0.000 
#
# Total GULP energy -350848.500087 kJ/mol
# GULP energy per Si atom -5569.023811 kJ/mol
# Density = 1.748751 g / cm^3
# Si number density = 17.527401 Si / 1000 Ang^3
#
#
#
# Elastic Constant Matrix: (Units=GPa)
#
#
# Indices 1 2 3 4 5 6 
#
# 1 79.1936 32.2962 24.4983 0.0000 0.0000 0.0000
# 2 32.2962 79.1936 24.4983 0.0000 0.0000 0.0000
# 3 24.4983 24.4983 71.0033 0.0000 0.0000 0.0000
# 4 0.0000 0.0000 0.0000 10.2805 0.0000 0.0000
# 5 0.0000 0.0000 0.0000 0.0000 10.2805 0.0000
# 6 0.0000 0.0000 0.0000 0.0000 0.0000 23.4487
#
#
#
# Elastic Compliance Matrix: (Units=1/GPa)
#
#
# Indices 1 2 3 4 5 6 
#
# 1 0.015948 -0.005375 -0.003648 0.000000 0.000000 0.000000
# 2 -0.005375 0.015948 -0.003648 0.000000 0.000000 0.000000
# 3 -0.003648 -0.003648 0.016601 0.000000 0.000000 0.000000
# 4 0.000000 0.000000 0.000000 0.097271 0.000000 0.000000
# 5 0.000000 0.000000 0.000000 0.000000 0.097271 0.000000
# 6 0.000000 0.000000 0.000000 0.000000 0.000000 0.042646
#
#
# Mechanical properties :
#
#
# Convention : Reuss Voigt Hill
#
# Bulk Modulus (GPa) = 43.18761 43.55291 43.37026
# Shear Modulus (GPa) = 15.68647 18.67512 17.18080
#
# Velocity S-wave (km/s) = 2.99485 3.26771 3.13425
# Velocity P-wave (km/s) = 6.05412 6.25617 6.15597
#
# Compressibility (1/GPa) = 0.02315479
#
# Stress axis : x y z
#
# Youngs Moduli (GPa) = 62.70436 62.70436 60.23692
#
# Poissons Ratio (x) = 0.33705 0.21974
# Poissons Ratio (y) = 0.33705 0.21974
# Poissons Ratio (z) = 0.22874 0.22874
#
# Static dielectric constant tensor:
#      x y z
#    x 1.634070 0.000000 0.000000 
#    y 0.000000 1.634070 0.000000 
#    z 0.000000 0.000000 1.610520 
# 
# From -- ./inp_files/7666.got.cif
#   From: 2010.05.17/outbox.cif.g08.bks.cpg/sg180_4_cif.got.tgz:7666.got - 2010.05.20 11:43:55.
