data_PCOD9583138
_publ_section_title
;
Structure prediction by ZEFSAII (Michael W. Deem and Ramdas Pophale) SiO2 
 PCOD9583138
Probable space group: P 65 2 2
;
_chemical_formula_sum "Si O2"
_cell_formula_units_Z 84
_cell_length_a 14.277414
_cell_length_b 14.277414
_cell_length_c 25.548809
_cell_angle_alpha 90.000000
_cell_angle_beta 90.000000
_cell_angle_gamma 120.000000
_cell_volume 4510.247734
_symmetry_space_group_name_H-M "P 65 2 2"
_symmetry_group_IT_number 179
_symmetry_cell_setting 'hexagonal'
loop_
_space_group_symop_operation_xyz
x,y,z
x-y,x,5/6+z
-y,x-y,2/3+z
-x,-y,1/2+z
-x+y,-x,1/3+z
y,-x+y,1/6+z
x-y,-y,-z
-x,-x+y,1/3-z
y,x,2/3-z
-y,-x,1/6-z
-x+y,y,1/2-z
x,x-y,5/6-z
loop_
_atom_site_type_symbol
_atom_site_label
_atom_site_fract_x
_atom_site_fract_y
_atom_site_fract_z
Si Si1 0.304587 0.407473 0.632542
Si Si2 0.878619 0.556111 0.604708
Si Si3 0.728537 0.889408 0.471831
Si Si4 0.562367 0.876825 0.939311
Si Si5 0.141697 0.475444 0.447902
Si Si6 0.635061 0.087490 0.583056
Si Si7 0.331666 0.499708 0.927015
O O1 0.205858 0.295596 0.655164
O O2 0.391491 0.379225 0.608042
O O3 0.353521 0.466435 0.688146
O O4 0.251816 0.465552 0.598066
O O5 0.879803 0.579774 0.665651
O O6 0.785508 0.565465 0.575130
O O7 0.863975 0.436723 0.603823
O O8 0.001339 0.628065 0.583820
O O9 0.781364 0.890682 0.416667
O O10 0.612159 0.872800 0.453519
O O11 0.794989 0.000000 0.500000
O O12 0.604550 0.802275 0.916667
O O13 0.434345 0.823405 0.926326
O O14 0.166448 0.583224 0.416667
O O15 0.169001 0.498355 0.509729
O O16 0.583866 0.957450 0.578713
#
# Coordination Sequence:
#
# PCOD9583138 Si02
#       7
#    12  12  12  12  12  12  12
#     4  10  21  35  57  87 118 156 192 235 296 352
#     4  10  22  39  58  79 114 154 191 240 289 340
#     4  10  18  32  60  90 123 153 191 246 300 365
#     4  10  21  37  61  86 106 143 199 243 286 339
#     4  11  25  40  54  82 122 157 194 232 294 361
#     4   9  19  34  56  89 118 149 191 239 295 356
#     4  10  20  36  59  84 119 150 189 237 296 354
#
# _framework density 18.624255000000002
#
# number of rings (size 3 to 8) (size 9 to 14) (size 15 to 20)
#    0.000    2.000    1.429    1.714    2.000    9.143 
#    0.000    0.000    0.000    0.857    0.000    0.000 
#    0.000    0.000    0.000    0.000    0.000    0.000 
#
# Total GULP energy -467906.727954 kJ/mol
# GULP energy per Si atom -5570.318190 kJ/mol
# Density = 1.858187 g / cm^3
# Si number density = 18.624255 Si / 1000 Ang^3
#
#
#
# Elastic Constant Matrix: (Units=GPa)
#
#
# Indices 1 2 3 4 5 6 
#
# 1 -275.1207 386.2794 35.0196 0.0000 0.0000 0.0000
# 2 386.2794 -275.1207 35.0196 0.0000 0.0000 0.0000
# 3 35.0196 35.0196 74.8352 0.0000 0.0000 0.0000
# 4 0.0000 0.0000 0.0000 92.1257 0.0000 0.0000
# 5 0.0000 0.0000 0.0000 0.0000 92.1257 0.0000
# 6 0.0000 0.0000 0.0000 0.0000 0.0000 -330.7001
#
#
#
# Elastic Compliance Matrix: (Units=1/GPa)
#
#
# Indices 1 2 3 4 5 6 
#
# 1 0.005623 0.007135 -0.005970 0.000000 0.000000 0.000000
# 2 0.007135 0.005623 -0.005970 0.000000 0.000000 0.000000
# 3 -0.005970 -0.005970 0.018950 0.000000 0.000000 0.000000
# 4 0.000000 0.000000 0.000000 0.010855 0.000000 0.000000
# 5 0.000000 0.000000 0.000000 0.000000 0.010855 0.000000
# 6 0.000000 0.000000 0.000000 0.000000 0.000000 -0.003024
#
#
# Mechanical properties :
#
#
# Convention : Reuss Voigt Hill
#
# Bulk Modulus (GPa) = 48.57808 48.58121 48.57964
# Shear Modulus (GPa) = 76.50638 -91.40472 -7.44917
#
# Velocity S-wave (km/s) = 6.41624 -7.01319 -2.00210
# Velocity P-wave (km/s) = 9.00170 6.27999 4.56028
#
# Compressibility (1/GPa) = 0.02058542
#
# Stress axis : x y z
#
# Youngs Moduli (GPa) = 177.84340 177.84340 52.76995
#
# Poissons Ratio (x) = -1.26889 0.31504
# Poissons Ratio (y) = -1.26889 0.31504
# Poissons Ratio (z) = 1.06174 1.06174
#
# Static dielectric constant tensor:
#      x y z
#    x 1.605190 0.000000 0.000000 
#    y 0.000000 1.605190 0.000000 
#    z 0.000000 0.000000 1.648270 
# 
# From -- ./inp_files/8381.got.cif
#   From: 2010.05.17/outbox.cif.g08.bks.cpg/sg179_5_cif.got.tgz:8381.got - 2010.05.20 11:37:33.
