data_PCOD9583856
_publ_section_title
;
Structure prediction by ZEFSAII (Michael W. Deem and Ramdas Pophale) SiO2 
 PCOD9583856
Probable space group: P 62 2 2
;
_chemical_formula_sum "Si O2"
_cell_formula_units_Z 42
_cell_length_a 9.870398
_cell_length_b 9.870398
_cell_length_c 27.172279
_cell_angle_alpha 90.000000
_cell_angle_beta 90.000000
_cell_angle_gamma 120.000000
_cell_volume 2292.588062
_symmetry_space_group_name_H-M "P 62 2 2"
_symmetry_group_IT_number 180
_symmetry_cell_setting 'hexagonal'
loop_
_space_group_symop_operation_xyz
x,y,z
x-y,x,1/3+z
-y,x-y,2/3+z
-x,-y,z
-x+y,-x,1/3+z
y,-x+y,2/3+z
x-y,-y,-z
-x,-x+y,1/3-z
y,x,2/3-z
-y,-x,2/3-z
-x+y,y,-z
x,x-y,1/3-z
loop_
_atom_site_type_symbol
_atom_site_label
_atom_site_fract_x
_atom_site_fract_y
_atom_site_fract_z
Si Si1 0.374891 0.197427 0.817431
Si Si2 0.478627 0.652488 0.713510
Si Si3 0.835024 0.164976 0.833334
Si Si4 0.405639 0.586055 0.432116
O O1 0.311129 0.311129 0.833334
O O2 0.436049 0.249205 0.762421
O O3 0.505685 0.206924 0.855014
O O4 0.241858 0.017487 0.822533
O O5 0.500000 0.500000 0.708654
O O6 0.533057 0.766529 0.666667
O O7 0.298565 0.602442 0.724253
O O8 0.797657 0.243979 0.786985
O O9 0.500000 0.500000 0.416598
#
# Coordination Sequence:
#
# PCOD9583856 Si02
#       4
#    12  12   6  12
#     4  11  21  40  65  91 122 165 218 257 313 376
#     4  12  26  40  63  92 130 168 207 267 323 381
#     4  10  21  34  65  94 120 152 206 278 299 368
#     4  10  21  38  64  92 120 164 212 258 307 376
#
# _framework density 18.319907000000001
#
# number of rings (size 3 to 8) (size 9 to 14) (size 15 to 20)
#    0.000    1.143    5.714    0.429    4.000    0.571 
#    0.000    0.000    0.000    3.429    0.000    0.000 
#    0.000    0.000    0.000    0.000    0.000    0.000 
#
# Total GULP energy -234418.530407 kJ/mol
# GULP energy per Si atom -5581.393581 kJ/mol
# Density = 1.827821 g / cm^3
# Si number density = 18.319907 Si / 1000 Ang^3
#
#
#
# Elastic Constant Matrix: (Units=GPa)
#
#
# Indices 1 2 3 4 5 6 
#
# 1 81.9270 30.6084 42.3496 0.0000 0.0000 0.0000
# 2 30.6084 81.9270 42.3496 0.0000 0.0000 0.0000
# 3 42.3496 42.3496 103.5266 0.0000 0.0000 0.0000
# 4 0.0000 0.0000 0.0000 12.6451 0.0000 0.0000
# 5 0.0000 0.0000 0.0000 0.0000 12.6451 0.0000
# 6 0.0000 0.0000 0.0000 0.0000 0.0000 25.6593
#
#
#
# Elastic Compliance Matrix: (Units=1/GPa)
#
#
# Indices 1 2 3 4 5 6 
#
# 1 0.016163 -0.003324 -0.005252 0.000000 0.000000 0.000000
# 2 -0.003324 0.016163 -0.005252 0.000000 0.000000 0.000000
# 3 -0.005252 -0.005252 0.013956 0.000000 0.000000 0.000000
# 4 0.000000 0.000000 0.000000 0.079082 0.000000 0.000000
# 5 0.000000 0.000000 0.000000 0.000000 0.079082 0.000000
# 6 0.000000 0.000000 0.000000 0.000000 0.000000 0.038972
#
#
# Mechanical properties :
#
#
# Convention : Reuss Voigt Hill
#
# Bulk Modulus (GPa) = 53.68815 55.33290 54.51052
# Shear Modulus (GPa) = 18.03221 20.32810 19.18015
#
# Velocity S-wave (km/s) = 3.14075 3.33471 3.23918
# Velocity P-wave (km/s) = 6.52089 6.71538 6.61885
#
# Compressibility (1/GPa) = 0.01862608
#
# Stress axis : x y z
#
# Youngs Moduli (GPa) = 61.87134 61.87134 71.65233
#
# Poissons Ratio (x) = 0.20563 0.37632
# Poissons Ratio (y) = 0.20563 0.37632
# Poissons Ratio (z) = 0.32495 0.32495
#
# Static dielectric constant tensor:
#      x y z
#    x 1.647590 0.000000 0.000000 
#    y 0.000000 1.647590 0.000000 
#    z 0.000000 0.000000 1.612520 
# 
# From -- ./inp_files/12008.got.cif
#   From: 2010.05.17/outbox.cif.g08.bks.cpg/sg180_7_cif.got.tgz:12008.got - 2010.05.20 11:43:55.
