data_PCOD9583224
_publ_section_title
;
Structure prediction by ZEFSAII (Michael W. Deem and Ramdas Pophale) SiO2 
 PCOD9583224
Probable space group: P 65 2 2
;
_chemical_formula_sum "Si O2"
_cell_formula_units_Z 66
_cell_length_a 15.240508
_cell_length_b 15.240508
_cell_length_c 19.152105
_cell_angle_alpha 90.000000
_cell_angle_beta 90.000000
_cell_angle_gamma 120.000000
_cell_volume 3852.530026
_symmetry_space_group_name_H-M "P 65 2 2"
_symmetry_group_IT_number 179
_symmetry_cell_setting 'hexagonal'
loop_
_space_group_symop_operation_xyz
x,y,z
x-y,x,5/6+z
-y,x-y,2/3+z
-x,-y,1/2+z
-x+y,-x,1/3+z
y,-x+y,1/6+z
x-y,-y,-z
-x,-x+y,1/3-z
y,x,2/3-z
-y,-x,1/6-z
-x+y,y,1/2-z
x,x-y,5/6-z
loop_
_atom_site_type_symbol
_atom_site_label
_atom_site_fract_x
_atom_site_fract_y
_atom_site_fract_z
Si Si1 0.340031 0.109423 0.849902
Si Si2 0.889605 0.454340 0.332201
Si Si3 0.709084 0.418168 0.750000
Si Si4 0.260935 0.558116 0.467659
Si Si5 0.113236 0.739213 0.270227
Si Si6 0.476149 0.933165 0.934604
O O1 0.321193 0.160597 0.916667
O O2 0.454764 0.131226 0.850472
O O3 0.331457 0.162288 0.779055
O O4 0.274357 0.988410 0.861207
O O5 0.882449 0.441225 0.416667
O O6 0.811266 0.358157 0.285801
O O7 0.000491 0.486012 0.302683
O O8 0.651840 0.342269 0.687584
O O9 0.648550 0.477598 0.761598
O O10 0.212084 0.606042 0.416667
O O11 0.183226 0.453098 0.503705
O O12 0.090462 0.640261 0.223813
O O13 0.537869 0.000000 0.000000
#
# Coordination Sequence:
#
# PCOD9583224 Si02
#       6
#    12  12   6  12  12  12
#     4  11  20  34  54  79 114 151 183 236 284 340
#     4  11  19  33  55  78 111 145 187 228 272 326
#     4  10  20  34  48  74 110 136 188 210 262 328
#     4  11  20  35  54  77 111 151 183 224 272 330
#     4  10  21  34  52  81 113 145 190 226 284 335
#     4  10  20  33  51  75 105 147 180 217 265 328
#
# _framework density 17.131599999999999
#
# number of rings (size 3 to 8) (size 9 to 14) (size 15 to 20)
#    0.000    1.455    2.727    5.455    0.000    6.545 
#    0.000    0.000    0.000    0.000    0.000    0.000 
#    8.182    0.000    0.000    0.000    0.000    0.000 
#
# Total GULP energy -367502.412483 kJ/mol
# GULP energy per Si atom -5568.218371 kJ/mol
# Density = 1.709261 g / cm^3
# Si number density = 17.131600 Si / 1000 Ang^3
#
#
#
# Elastic Constant Matrix: (Units=GPa)
#
#
# Indices 1 2 3 4 5 6 
#
# 1 98.3996 62.0086 33.8597 0.0000 0.0000 0.0000
# 2 62.0086 98.3996 33.8597 0.0000 0.0000 0.0000
# 3 33.8597 33.8597 59.4673 0.0000 0.0000 0.0000
# 4 0.0000 0.0000 0.0000 20.6328 0.0000 0.0000
# 5 0.0000 0.0000 0.0000 0.0000 20.6328 0.0000
# 6 0.0000 0.0000 0.0000 0.0000 0.0000 18.1955
#
#
#
# Elastic Compliance Matrix: (Units=1/GPa)
#
#
# Indices 1 2 3 4 5 6 
#
# 1 0.017843 -0.009636 -0.004673 0.000000 0.000000 0.000000
# 2 -0.009636 0.017843 -0.004673 0.000000 0.000000 0.000000
# 3 -0.004673 -0.004673 0.022137 0.000000 0.000000 0.000000
# 4 0.000000 0.000000 0.000000 0.048467 0.000000 0.000000
# 5 0.000000 0.000000 0.000000 0.000000 0.048467 0.000000
# 6 0.000000 0.000000 0.000000 0.000000 0.000000 0.054959
#
#
# Mechanical properties :
#
#
# Convention : Reuss Voigt Hill
#
# Bulk Modulus (GPa) = 50.35360 57.30252 53.82806
# Shear Modulus (GPa) = 19.66191 20.32811 19.99501
#
# Velocity S-wave (km/s) = 3.39144 3.44842 3.42005
# Velocity P-wave (km/s) = 6.69268 7.02684 6.86179
#
# Compressibility (1/GPa) = 0.01985955
#
# Stress axis : x y z
#
# Youngs Moduli (GPa) = 56.04415 56.04415 45.17273
#
# Poissons Ratio (x) = 0.54006 0.21108
# Poissons Ratio (y) = 0.54006 0.21108
# Poissons Ratio (z) = 0.26189 0.26189
#
# Static dielectric constant tensor:
#      x y z
#    x 1.610500 0.000000 0.000000 
#    y 0.000000 1.610500 0.000000 
#    z 0.000000 0.000000 1.573200 
# 
# From -- ./inp_files/6729.got.cif
#   From: 2010.05.17/outbox.cif.g08.bks.cpg/sg179_4_cif.got.tgz:6729.got - 2010.05.20 11:37:33.
