data_PCOD9583490
_publ_section_title
;
Structure prediction by ZEFSAII (Michael W. Deem and Ramdas Pophale) SiO2 
 PCOD9583490
Probable space group: P 65 2 2
;
_chemical_formula_sum "Si O2"
_cell_formula_units_Z 54
_cell_length_a 14.777356
_cell_length_b 14.777356
_cell_length_c 15.243549
_cell_angle_alpha 90.000000
_cell_angle_beta 90.000000
_cell_angle_gamma 120.000000
_cell_volume 2882.771334
_symmetry_space_group_name_H-M "P 65 2 2"
_symmetry_group_IT_number 179
_symmetry_cell_setting 'hexagonal'
loop_
_space_group_symop_operation_xyz
x,y,z
x-y,x,5/6+z
-y,x-y,2/3+z
-x,-y,1/2+z
-x+y,-x,1/3+z
y,-x+y,1/6+z
x-y,-y,-z
-x,-x+y,1/3-z
y,x,2/3-z
-y,-x,1/6-z
-x+y,y,1/2-z
x,x-y,5/6-z
loop_
_atom_site_type_symbol
_atom_site_label
_atom_site_fract_x
_atom_site_fract_y
_atom_site_fract_z
Si Si1 0.359687 0.881273 0.522494
Si Si2 0.691695 0.522738 0.610089
Si Si3 0.725316 0.684186 0.459171
Si Si4 0.692702 0.142864 0.525773
Si Si5 0.861101 0.930551 0.416667
O O1 0.279736 0.798964 0.451739
O O2 0.322029 0.866369 0.622315
O O3 0.457019 0.861756 0.520887
O O4 0.398378 0.000000 0.500000
O O5 0.587825 0.412176 0.583334
O O6 0.712103 0.618528 0.546452
O O7 0.611179 0.657610 0.425311
O O8 0.762440 0.634164 0.381762
O O9 0.793721 0.809982 0.451696
O O10 0.755394 0.244607 0.583334
O O11 0.925105 0.925105 0.333334
#
# Coordination Sequence:
#
# PCOD9583490 Si02
#       5
#    12  12  12  12   6
#     4  11  23  40  59  93 134 169 214 264 322 407
#     4  11  23  42  64  90 131 175 212 268 333 396
#     4  11  21  40  67  92 124 164 222 274 337 384
#     4  11  19  37  65  93 123 159 219 278 318 378
#     4  12  24  44  68 102 130 168 222 292 340 404
#
# _framework density 18.731974000000001
#
# number of rings (size 3 to 8) (size 9 to 14) (size 15 to 20)
#    0.000    0.889    7.778    0.667    0.000    3.556 
#    0.000    5.556    0.000    0.000    0.000    0.000 
#    0.000    0.000    0.000    0.000    0.000    0.000 
#
# Total GULP energy -300878.819526 kJ/mol
# GULP energy per Si atom -5571.829991 kJ/mol
# Density = 1.868934 g / cm^3
# Si number density = 18.731974 Si / 1000 Ang^3
#
#
#
# Elastic Constant Matrix: (Units=GPa)
#
#
# Indices 1 2 3 4 5 6 
#
# 1 85.7452 47.2318 54.6897 0.0000 0.0000 0.0000
# 2 47.2318 85.7452 54.6897 0.0000 0.0000 0.0000
# 3 54.6897 54.6897 119.8422 0.0000 0.0000 0.0000
# 4 0.0000 0.0000 0.0000 12.3533 0.0000 0.0000
# 5 0.0000 0.0000 0.0000 0.0000 12.3533 0.0000
# 6 0.0000 0.0000 0.0000 0.0000 0.0000 19.2567
#
#
#
# Elastic Compliance Matrix: (Units=1/GPa)
#
#
# Indices 1 2 3 4 5 6 
#
# 1 0.019002 -0.006963 -0.005494 0.000000 0.000000 0.000000
# 2 -0.006963 0.019002 -0.005494 0.000000 0.000000 0.000000
# 3 -0.005494 -0.005494 0.013359 0.000000 0.000000 0.000000
# 4 0.000000 0.000000 0.000000 0.080950 0.000000 0.000000
# 5 0.000000 0.000000 0.000000 0.000000 0.080950 0.000000
# 6 0.000000 0.000000 0.000000 0.000000 0.000000 0.051930
#
#
# Mechanical properties :
#
#
# Convention : Reuss Voigt Hill
#
# Bulk Modulus (GPa) = 64.67944 67.17281 65.92613
# Shear Modulus (GPa) = 16.32657 17.77406 17.05032
#
# Velocity S-wave (km/s) = 2.95547 3.08370 3.02027
# Velocity P-wave (km/s) = 6.80075 6.97257 6.88720
#
# Compressibility (1/GPa) = 0.01546086
#
# Stress axis : x y z
#
# Youngs Moduli (GPa) = 52.62573 52.62573 74.85752
#
# Poissons Ratio (x) = 0.36643 0.41127
# Poissons Ratio (y) = 0.36643 0.41127
# Poissons Ratio (z) = 0.28913 0.28913
#
# Static dielectric constant tensor:
#      x y z
#    x 1.697140 0.000000 0.000000 
#    y 0.000000 1.697140 0.000000 
#    z 0.000000 0.000000 1.647900 
# 
# From -- ./inp_files/5656.got.cif
#   From: 2010.05.17/outbox.cif.g08.bks.cpg/sg179_3_cif.got.tgz:5656.got - 2010.05.20 11:37:33.
