data_PCOD9583742
_publ_section_title
;
Structure prediction by ZEFSAII (Michael W. Deem and Ramdas Pophale) SiO2 
 PCOD9583742
Probable space group: P 62 2 2
;
_chemical_formula_sum "Si O2"
_cell_formula_units_Z 75
_cell_length_a 18.193477
_cell_length_b 18.193477
_cell_length_c 13.460338
_cell_angle_alpha 90.000000
_cell_angle_beta 90.000000
_cell_angle_gamma 120.000000
_cell_volume 3858.495600
_symmetry_space_group_name_H-M "P 62 2 2"
_symmetry_group_IT_number 180
_symmetry_cell_setting 'hexagonal'
loop_
_space_group_symop_operation_xyz
x,y,z
x-y,x,1/3+z
-y,x-y,2/3+z
-x,-y,z
-x+y,-x,1/3+z
y,-x+y,2/3+z
x-y,-y,-z
-x,-x+y,1/3-z
y,x,2/3-z
-y,-x,2/3-z
-x+y,y,-z
x,x-y,1/3-z
loop_
_atom_site_type_symbol
_atom_site_label
_atom_site_fract_x
_atom_site_fract_y
_atom_site_fract_z
Si Si1 0.318150 0.280416 0.087944
Si Si2 0.007171 0.171273 0.549222
Si Si3 0.877366 0.534309 0.951897
Si Si4 0.000000 0.500000 0.166667
Si Si5 0.505899 0.623385 0.997993
Si Si6 0.467751 0.200006 0.501622
Si Si7 0.187284 0.272794 0.778114
O O1 0.268935 0.232842 0.187155
O O2 0.318265 0.368737 0.069598
O O3 0.417027 0.313559 0.067866
O O4 0.268373 0.208294 0.004060
O O5 0.074157 0.148313 0.500000
O O6 0.000000 0.157303 0.666667
O O7 0.907946 0.117252 0.517698
O O8 0.799904 0.510484 0.878686
O O9 0.896037 0.457673 0.941837
O O10 0.849496 0.527968 0.067340
O O11 0.048997 0.469933 0.241816
O O12 0.479141 0.677905 0.926925
O O13 0.369675 0.154162 0.467525
O O14 0.250769 0.250769 0.833334
#
# Coordination Sequence:
#
# PCOD9583742 Si02
#       7
#    12  12  12   3  12  12  12
#     4  11  21  37  62  90 124 162 210 262 319 379
#     4  12  26  46  63  89 124 175 224 275 322 384
#     4  11  18  32  56  91 123 156 202 244 316 381
#     4  12  16  28  52  92 134 140 190 244 328 364
#     4  11  20  32  54  93 127 157 197 258 319 378
#     4  10  20  30  54  92 127 160 188 252 316 385
#     4  11  22  37  62  93 128 157 209 259 324 388
#
# _framework density 19.437626999999999
#
# number of rings (size 3 to 8) (size 9 to 14) (size 15 to 20)
#    0.000    0.960    8.000    0.000    2.240    0.960 
#    0.000    0.800    0.000    5.760    0.000    0.000 
#    0.000    0.000    0.000    0.000    0.000    0.000 
#
# Total GULP energy -417713.550868 kJ/mol
# GULP energy per Si atom -5569.514012 kJ/mol
# Density = 1.939339 g / cm^3
# Si number density = 19.437627 Si / 1000 Ang^3
#
#
#
# Elastic Constant Matrix: (Units=GPa)
#
#
# Indices 1 2 3 4 5 6 
#
# 1 76.0581 25.3649 20.0291 0.0000 0.0000 0.0000
# 2 25.3649 76.0581 20.0291 0.0000 0.0000 0.0000
# 3 20.0291 20.0291 61.2149 0.0000 0.0000 0.0000
# 4 0.0000 0.0000 0.0000 15.8388 0.0000 0.0000
# 5 0.0000 0.0000 0.0000 0.0000 15.8388 0.0000
# 6 0.0000 0.0000 0.0000 0.0000 0.0000 25.3466
#
#
#
# Elastic Compliance Matrix: (Units=1/GPa)
#
#
# Indices 1 2 3 4 5 6 
#
# 1 0.015525 -0.004202 -0.003705 0.000000 0.000000 0.000000
# 2 -0.004202 0.015525 -0.003705 0.000000 0.000000 0.000000
# 3 -0.003705 -0.003705 0.018760 0.000000 0.000000 0.000000
# 4 0.000000 0.000000 0.000000 0.063136 0.000000 0.000000
# 5 0.000000 0.000000 0.000000 0.000000 0.063136 0.000000
# 6 0.000000 0.000000 0.000000 0.000000 0.000000 0.039453
#
#
# Mechanical properties :
#
#
# Convention : Reuss Voigt Hill
#
# Bulk Modulus (GPa) = 37.61236 38.24190 37.92713
# Shear Modulus (GPa) = 20.19225 21.26539 20.72882
#
# Velocity S-wave (km/s) = 3.22657 3.31120 3.26916
# Velocity P-wave (km/s) = 5.76830 5.85966 5.81416
#
# Compressibility (1/GPa) = 0.02658700
#
# Stress axis : x y z
#
# Youngs Moduli (GPa) = 64.41339 64.41339 53.30422
#
# Poissons Ratio (x) = 0.27065 0.19748
# Poissons Ratio (y) = 0.27065 0.19748
# Poissons Ratio (z) = 0.23864 0.23864
#
# Static dielectric constant tensor:
#      x y z
#    x 1.738370 0.000000 0.000000 
#    y 0.000000 1.738370 0.000000 
#    z 0.000000 0.000000 1.711370 
# 
# From -- ./inp_files/6449.got.cif
#   From: 2010.05.17/outbox.cif.g08.bks.cpg/sg180_4_cif.got.tgz:6449.got - 2010.05.20 11:43:55.
