data_PCOD9583849
_publ_section_title
;
Structure prediction by ZEFSAII (Michael W. Deem and Ramdas Pophale) SiO2 
 PCOD9583849
Probable space group: P 62 2 2
;
_chemical_formula_sum "Si O2"
_cell_formula_units_Z 60
_cell_length_a 18.851921
_cell_length_b 18.851921
_cell_length_c 12.452219
_cell_angle_alpha 90.000000
_cell_angle_beta 90.000000
_cell_angle_gamma 120.000000
_cell_volume 3832.556836
_symmetry_space_group_name_H-M "P 62 2 2"
_symmetry_group_IT_number 180
_symmetry_cell_setting 'hexagonal'
loop_
_space_group_symop_operation_xyz
x,y,z
x-y,x,1/3+z
-y,x-y,2/3+z
-x,-y,z
-x+y,-x,1/3+z
y,-x+y,2/3+z
x-y,-y,-z
-x,-x+y,1/3-z
y,x,2/3-z
-y,-x,2/3-z
-x+y,y,-z
x,x-y,1/3-z
loop_
_atom_site_type_symbol
_atom_site_label
_atom_site_fract_x
_atom_site_fract_y
_atom_site_fract_z
Si Si1 0.717851 0.588048 0.515168
Si Si2 0.315944 0.776288 0.632209
Si Si3 0.433054 0.030867 0.752254
Si Si4 0.178158 0.498379 0.063362
Si Si5 0.493016 0.136322 0.961537
O O1 0.816342 0.632683 0.500000
O O2 0.695392 0.508259 0.589658
O O3 0.660220 0.617801 0.570485
O O4 0.685924 0.567030 0.393768
O O5 0.312548 0.822789 0.525044
O O6 0.404242 0.783529 0.628903
O O7 0.234689 0.688727 0.615651
O O8 0.451962 0.086747 0.648246
O O9 0.452006 0.091845 0.852323
O O10 0.500000 0.000000 0.755822
O O11 0.236204 0.472409 0.000000
O O12 0.552040 0.104079 0.000000
#
# Coordination Sequence:
#
# PCOD9583849 Si02
#       5
#    12  12  12  12  12
#     4  10  22  35  48  71  94 124 167 218 269 303
#     4  10  21  34  48  70 100 133 163 217 267 314
#     4  12  21  35  53  73  96 133 179 220 265 320
#     4  11  21  35  50  71  99 133 176 217 264 311
#     4  11  19  31  52  71  97 124 168 218 267 309
#
# _framework density 15.655343999999999
#
# number of rings (size 3 to 8) (size 9 to 14) (size 15 to 20)
#    0.000    1.200    6.000    1.200    0.000    0.800 
#    0.000    0.000    0.000    0.000    0.000    0.000 
#    0.000    0.000    0.000    0.000    0.000   46.000 
#
# Total GULP energy -334269.256986 kJ/mol
# GULP energy per Si atom -5571.154283 kJ/mol
# Density = 1.561971 g / cm^3
# Si number density = 15.655344 Si / 1000 Ang^3
#
#
#
# Elastic Constant Matrix: (Units=GPa)
#
#
# Indices 1 2 3 4 5 6 
#
# 1 50.6021 33.6085 7.2037 0.0000 0.0000 0.0000
# 2 33.6085 50.6021 7.2037 0.0000 0.0000 0.0000
# 3 7.2037 7.2037 77.0935 0.0000 0.0000 0.0000
# 4 0.0000 0.0000 0.0000 3.3373 0.0000 0.0000
# 5 0.0000 0.0000 0.0000 0.0000 3.3373 0.0000
# 6 0.0000 0.0000 0.0000 0.0000 0.0000 8.4968
#
#
#
# Elastic Compliance Matrix: (Units=1/GPa)
#
#
# Indices 1 2 3 4 5 6 
#
# 1 0.035457 -0.023389 -0.001128 0.000000 0.000000 0.000000
# 2 -0.023389 0.035457 -0.001128 0.000000 0.000000 0.000000
# 3 -0.001128 -0.001128 0.013182 0.000000 0.000000 0.000000
# 4 0.000000 0.000000 0.000000 0.299644 0.000000 0.000000
# 5 0.000000 0.000000 0.000000 0.000000 0.299644 0.000000
# 6 0.000000 0.000000 0.000000 0.000000 0.000000 0.117691
#
#
# Mechanical properties :
#
#
# Convention : Reuss Voigt Hill
#
# Bulk Modulus (GPa) = 30.48103 30.48104 30.48103
# Shear Modulus (GPa) = 5.79174 11.71973 8.75574
#
# Velocity S-wave (km/s) = 1.92550 2.73904 2.36748
# Velocity P-wave (km/s) = 4.94527 5.43281 5.19477
#
# Compressibility (1/GPa) = 0.03280729
#
# Stress axis : x y z
#
# Youngs Moduli (GPa) = 28.20331 28.20331 75.86106
#
# Poissons Ratio (x) = 0.65964 0.08554
# Poissons Ratio (y) = 0.65964 0.08554
# Poissons Ratio (z) = 0.03180 0.03180
#
# Static dielectric constant tensor:
#      x y z
#    x 1.544590 0.000000 0.000000 
#    y 0.000000 1.544590 0.000000 
#    z 0.000000 0.000000 1.643880 
# 
# From -- ./inp_files/4805.got.cif
#   From: 2010.05.17/outbox.cif.g08.bks.cpg/sg180_3_cif.got.tgz:4805.got - 2010.05.20 11:43:55.
