data_PCOD9583361
_publ_section_title
;
Structure prediction by ZEFSAII (Michael W. Deem and Ramdas Pophale) SiO2 
 PCOD9583361
Probable space group: P 65 2 2
;
_chemical_formula_sum "Si O2"
_cell_formula_units_Z 66
_cell_length_a 26.054411
_cell_length_b 26.054411
_cell_length_c 5.460564
_cell_angle_alpha 90.000000
_cell_angle_beta 90.000000
_cell_angle_gamma 120.000000
_cell_volume 3210.189373
_symmetry_space_group_name_H-M "P 65 2 2"
_symmetry_group_IT_number 179
_symmetry_cell_setting 'hexagonal'
loop_
_space_group_symop_operation_xyz
x,y,z
x-y,x,5/6+z
-y,x-y,2/3+z
-x,-y,1/2+z
-x+y,-x,1/3+z
y,-x+y,1/6+z
x-y,-y,-z
-x,-x+y,1/3-z
y,x,2/3-z
-y,-x,1/6-z
-x+y,y,1/2-z
x,x-y,5/6-z
loop_
_atom_site_type_symbol
_atom_site_label
_atom_site_fract_x
_atom_site_fract_y
_atom_site_fract_z
Si Si1 0.351171 0.817815 0.760141
Si Si2 0.126668 0.433803 0.055451
Si Si3 0.315685 0.219252 0.428659
Si Si4 0.933572 0.517015 0.258103
Si Si5 0.938174 0.754240 0.255001
Si Si6 0.235580 0.764421 0.083334
O O1 0.396686 0.793372 0.750000
O O2 0.332086 0.833037 0.504187
O O3 0.387464 0.882230 0.889499
O O4 0.290575 0.778127 0.907143
O O5 0.102283 0.379623 0.238732
O O6 0.074225 0.435815 0.917049
O O7 0.173426 0.428975 0.881143
O O8 0.323419 0.161710 0.416667
O O9 0.289804 0.218086 0.695544
O O10 0.274720 0.211394 0.188231
O O11 0.920344 0.460172 0.416667
O O12 0.000000 0.545470 0.166667
O O13 0.882964 0.765927 0.250000
O O14 0.000000 0.810362 0.166667
#
# Coordination Sequence:
#
# PCOD9583361 Si02
#       6
#    12  12  12  12  12   6
#     4  11  22  42  65  87 120 158 203 255 323 390
#     4  11  24  41  64  89 118 163 206 262 320 394
#     4  10  22  38  64  91 132 167 215 265 323 382
#     4  11  24  41  62  89 122 161 203 255 319 390
#     4  10  22  41  63  96 133 179 218 268 319 380
#     4  10  24  38  68  88 114 156 210 256 324 392
#
# _framework density 20.559533999999999
#
# number of rings (size 3 to 8) (size 9 to 14) (size 15 to 20)
#    0.000    1.455    1.818    2.727    8.909    0.727 
#    3.273    0.000   10.000    0.000    0.000    3.818 
#    0.000    0.000    0.000    0.000    0.000    0.000 
#
# Total GULP energy -368670.067052 kJ/mol
# GULP energy per Si atom -5585.910107 kJ/mol
# Density = 2.051274 g / cm^3
# Si number density = 20.559534 Si / 1000 Ang^3
#
#
#
# Elastic Constant Matrix: (Units=GPa)
#
#
# Indices 1 2 3 4 5 6 
#
# 1 63.4552 25.7276 15.9780 0.0000 0.0000 0.0000
# 2 25.7276 63.4552 15.9780 0.0000 0.0000 0.0000
# 3 15.9780 15.9780 75.1224 0.0000 0.0000 0.0000
# 4 0.0000 0.0000 0.0000 31.3841 0.0000 0.0000
# 5 0.0000 0.0000 0.0000 0.0000 31.3841 0.0000
# 6 0.0000 0.0000 0.0000 0.0000 0.0000 18.8638
#
#
#
# Elastic Compliance Matrix: (Units=1/GPa)
#
#
# Indices 1 2 3 4 5 6 
#
# 1 0.019322 -0.007184 -0.002582 0.000000 0.000000 0.000000
# 2 -0.007184 0.019322 -0.002582 0.000000 0.000000 0.000000
# 3 -0.002582 -0.002582 0.014410 0.000000 0.000000 0.000000
# 4 0.000000 0.000000 0.000000 0.031863 0.000000 0.000000
# 5 0.000000 0.000000 0.000000 0.000000 0.031863 0.000000
# 6 0.000000 0.000000 0.000000 0.000000 0.000000 0.053012
#
#
# Mechanical properties :
#
#
# Convention : Reuss Voigt Hill
#
# Bulk Modulus (GPa) = 35.26201 35.26667 35.26434
# Shear Modulus (GPa) = 24.51712 25.94969 25.23341
#
# Velocity S-wave (km/s) = 3.45700 3.55656 3.50713
# Velocity P-wave (km/s) = 5.75525 5.83577 5.79565
#
# Compressibility (1/GPa) = 0.02835913
#
# Stress axis : x y z
#
# Youngs Moduli (GPa) = 51.75478 51.75478 69.39710
#
# Poissons Ratio (x) = 0.37180 0.17916
# Poissons Ratio (y) = 0.37180 0.17916
# Poissons Ratio (z) = 0.13361 0.13361
#
# Static dielectric constant tensor:
#      x y z
#    x 1.732440 0.000000 0.000000 
#    y 0.000000 1.732440 0.000000 
#    z 0.000000 0.000000 1.825880 
# 
# From -- ./inp_files/1577.got.cif
#   From: 2010.05.17/outbox.cif.g08.bks.cpg/sg179_1_cif.got.tgz:1577.got - 2010.05.20 11:37:33.
