data_PCOD9583024
_publ_section_title
;
Structure prediction by ZEFSAII (Michael W. Deem and Ramdas Pophale) SiO2 
 PCOD9583024
Probable space group: P 61 2 2
;
_chemical_formula_sum "Si O2"
_cell_formula_units_Z 42
_cell_length_a 11.851338
_cell_length_b 11.851338
_cell_length_c 15.210261
_cell_angle_alpha 90.000000
_cell_angle_beta 90.000000
_cell_angle_gamma 120.000000
_cell_volume 1850.129240
_symmetry_space_group_name_H-M "P 61 2 2"
_symmetry_group_IT_number 178
_symmetry_cell_setting 'hexagonal'
loop_
_space_group_symop_operation_xyz
x,y,z
x-y,x,1/6+z
-y,x-y,1/3+z
-x,-y,1/2+z
-x+y,-x,2/3+z
y,-x+y,5/6+z
x-y,-y,-z
-x,-x+y,2/3-z
y,x,1/3-z
-y,-x,5/6-z
-x+y,y,1/2-z
x,x-y,1/6-z
loop_
_atom_site_type_symbol
_atom_site_label
_atom_site_fract_x
_atom_site_fract_y
_atom_site_fract_z
Si Si1 0.102343 0.102343 0.666667
Si Si2 0.258773 0.880039 0.065324
Si Si3 0.528471 0.897987 0.074656
Si Si4 0.282118 0.969019 0.260100
O O1 0.034857 0.017429 0.583334
O O2 0.084100 0.227725 0.646708
O O3 0.382282 0.860946 0.050247
O O4 0.254973 0.887602 0.171835
O O5 0.111925 0.768508 0.050888
O O6 0.288616 0.000000 0.000000
O O7 0.531367 0.765684 0.083334
O O8 0.583362 0.963978 0.169459
O O9 0.619379 0.000000 0.000000
#
# Coordination Sequence:
#
# PCOD9583024 Si02
#       4
#     6  12  12  12
#     4  12  26  40  70 112 148 184 222 306 374 430
#     4  11  26  45  67 100 143 186 235 291 361 443
#     4  11  26  46  70 102 141 188 246 305 364 438
#     4  12  24  43  72 104 141 182 238 293 369 431
#
# _framework density 22.701115999999999
#
# number of rings (size 3 to 8) (size 9 to 14) (size 15 to 20)
#    0.000    0.571    2.857    4.286    6.000    2.286 
#    0.000    5.714    0.000    0.000    0.000    0.000 
#    0.000    0.000    0.000    0.000    0.000    0.000 
#
# Total GULP energy -234073.822544 kJ/mol
# GULP energy per Si atom -5573.186251 kJ/mol
# Density = 2.264945 g / cm^3
# Si number density = 22.701116 Si / 1000 Ang^3
#
#
#
# Elastic Constant Matrix: (Units=GPa)
#
#
# Indices 1 2 3 4 5 6 
#
# 1 87.7292 27.5718 -18.3192 0.0000 0.0000 0.0000
# 2 27.5718 87.7292 -18.3192 0.0000 0.0000 0.0000
# 3 -18.3192 -18.3192 98.2865 0.0000 0.0000 0.0000
# 4 0.0000 0.0000 0.0000 -21.1862 0.0000 0.0000
# 5 0.0000 0.0000 0.0000 0.0000 -21.1862 0.0000
# 6 0.0000 0.0000 0.0000 0.0000 0.0000 30.0787
#
#
#
# Elastic Compliance Matrix: (Units=1/GPa)
#
#
# Indices 1 2 3 4 5 6 
#
# 1 0.012921 -0.003702 0.001718 0.000000 0.000000 0.000000
# 2 -0.003702 0.012921 0.001718 0.000000 0.000000 0.000000
# 3 0.001718 0.001718 0.010815 0.000000 0.000000 0.000000
# 4 0.000000 0.000000 0.000000 -0.047200 0.000000 0.000000
# 5 0.000000 0.000000 0.000000 0.000000 -0.047200 0.000000
# 6 0.000000 0.000000 0.000000 0.000000 0.000000 0.033246
#
#
# Mechanical properties :
#
#
# Convention : Reuss Voigt Hill
#
# Bulk Modulus (GPa) = 27.68099 28.40132 28.04115
# Shear Modulus (GPa) = -419.28292 16.39536 -201.44378
#
# Velocity S-wave (km/s) = -13.60507 2.69034 -9.43027
# Velocity P-wave (km/s) = 15.31591 4.71049 10.30506
#
# Compressibility (1/GPa) = 0.03612588
#
# Stress axis : x y z
#
# Youngs Moduli (GPa) = 77.39342 77.39342 92.46536
#
# Poissons Ratio (x) = 0.28651 -0.15888
# Poissons Ratio (y) = 0.28651 -0.15888
# Poissons Ratio (z) = -0.13298 -0.13298
#
# Static dielectric constant tensor:
#      x y z
#    x 1.974400 0.000000 0.000000 
#    y 0.000000 1.974400 0.000000 
#    z 0.000000 0.000000 1.842130 
# 
# From -- ./inp_files/6489.got.cif
#   From: 2010.05.17/outbox.cif.g08.bks.cpg/sg178_4_cif.got.tgz:6489.got - 2010.05.20 11:30:59.
