data_PCOD9583690
_publ_section_title
;
Structure prediction by ZEFSAII (Michael W. Deem and Ramdas Pophale) SiO2 
 PCOD9583690
Probable space group: P 62 2 2
;
_chemical_formula_sum "Si O2"
_cell_formula_units_Z 84
_cell_length_a 15.987452
_cell_length_b 15.987452
_cell_length_c 16.099985
_cell_angle_alpha 90.000000
_cell_angle_beta 90.000000
_cell_angle_gamma 120.000000
_cell_volume 3563.810559
_symmetry_space_group_name_H-M "P 62 2 2"
_symmetry_group_IT_number 180
_symmetry_cell_setting 'hexagonal'
loop_
_space_group_symop_operation_xyz
x,y,z
x-y,x,1/3+z
-y,x-y,2/3+z
-x,-y,z
-x+y,-x,1/3+z
y,-x+y,2/3+z
x-y,-y,-z
-x,-x+y,1/3-z
y,x,2/3-z
-y,-x,2/3-z
-x+y,y,-z
x,x-y,1/3-z
loop_
_atom_site_type_symbol
_atom_site_label
_atom_site_fract_x
_atom_site_fract_y
_atom_site_fract_z
Si Si1 0.285838 0.205472 0.401136
Si Si2 0.286081 0.852514 0.651309
Si Si3 0.432775 0.362400 0.632096
Si Si4 0.435439 0.329703 0.805875
Si Si5 0.602282 0.088905 0.116024
Si Si6 0.729417 0.852305 0.578793
Si Si7 0.720070 0.321824 0.741404
O O1 0.224606 0.224606 0.333334
O O2 0.331017 0.143752 0.361062
O O3 0.382718 0.308644 0.422887
O O4 0.232350 0.161039 0.489392
O O5 0.306061 0.831675 0.555852
O O6 0.267923 0.769348 0.716430
O O7 0.372738 0.955890 0.681117
O O8 0.485703 0.360869 0.716633
O O9 0.495019 0.398631 0.549522
O O10 0.352295 0.254327 0.607192
O O11 0.409716 0.409716 0.833334
O O12 0.333364 0.234734 0.782534
O O13 0.607650 0.182705 0.078474
O O14 0.500000 0.000000 0.092151
O O15 0.785983 0.892992 0.666667
O O16 0.684442 0.315559 0.833334
O O17 0.658441 0.329220 0.666667
#
# Coordination Sequence:
#
# PCOD9583690 Si02
#       7
#    12  12  12  12  12  12  12
#     4  10  19  31  53  84 115 156 204 253 316 375
#     4  10  19  36  59  84 119 154 196 265 317 364
#     4   9  18  34  58  89 114 149 199 254 313 372
#     4   8  15  30  57  86 119 150 188 240 305 364
#     4  11  22  37  59  84 114 159 208 255 315 391
#     4   8  15  29  48  79 114 145 188 235 295 370
#     4  12  26  45  59  82 114 157 211 256 317 382
#
# _framework density 23.570274999999999
#
# number of rings (size 3 to 8) (size 9 to 14) (size 15 to 20)
#    0.000    2.286    1.429    1.714    0.000    1.143 
#    2.571    0.714    0.000    3.000    0.000    0.000 
#    0.000   39.429    0.000    0.286    0.000    0.714 
#
# Total GULP energy -468824.782551 kJ/mol
# GULP energy per Si atom -5581.247411 kJ/mol
# Density = 2.351663 g / cm^3
# Si number density = 23.570275 Si / 1000 Ang^3
#
#
#
# Elastic Constant Matrix: (Units=GPa)
#
#
# Indices 1 2 3 4 5 6 
#
# 1 38.8958 23.0995 43.1751 0.0000 0.0000 0.0000
# 2 23.0995 38.8958 43.1751 0.0000 0.0000 0.0000
# 3 43.1751 43.1751 244.8536 0.0000 0.0000 0.0000
# 4 0.0000 0.0000 0.0000 23.5393 0.0000 0.0000
# 5 0.0000 0.0000 0.0000 0.0000 23.5393 0.0000
# 6 0.0000 0.0000 0.0000 0.0000 0.0000 7.8981
#
#
#
# Elastic Compliance Matrix: (Units=1/GPa)
#
#
# Indices 1 2 3 4 5 6 
#
# 1 0.042344 -0.020962 -0.003770 0.000000 0.000000 0.000000
# 2 -0.020962 0.042344 -0.003770 0.000000 0.000000 0.000000
# 3 -0.003770 -0.003770 0.005414 0.000000 0.000000 0.000000
# 4 0.000000 0.000000 0.000000 0.042482 0.000000 0.000000
# 5 0.000000 0.000000 0.000000 0.000000 0.042482 0.000000
# 6 0.000000 0.000000 0.000000 0.000000 0.000000 0.126612
#
#
# Mechanical properties :
#
#
# Convention : Reuss Voigt Hill
#
# Bulk Modulus (GPa) = 30.21509 60.17164 45.19336
# Shear Modulus (GPa) = 13.52391 25.20836 19.36614
#
# Velocity S-wave (km/s) = 2.39795 3.27387 2.86953
# Velocity P-wave (km/s) = 4.52922 6.31466 5.49494
#
# Compressibility (1/GPa) = 0.03309605
#
# Stress axis : x y z
#
# Youngs Moduli (GPa) = 23.61616 23.61616 184.71700
#
# Poissons Ratio (x) = 0.49505 0.69643
# Poissons Ratio (y) = 0.49505 0.69643
# Poissons Ratio (z) = 0.08904 0.08904
#
# Static dielectric constant tensor:
#      x y z
#    x 1.929830 0.000000 0.000000 
#    y 0.000000 1.929830 0.000000 
#    z 0.000000 0.000000 1.091700 
# 
# From -- ./inp_files/6494.got.cif
#   From: 2010.05.17/outbox.cif.g08.bks.cpg/sg180_4_cif.got.tgz:6494.got - 2010.05.20 11:43:55.
