data_PCOD9583055
_publ_section_title
;
Structure prediction by ZEFSAII (Michael W. Deem and Ramdas Pophale) SiO2 
 PCOD9583055
Probable space group: P 61 2 2
;
_chemical_formula_sum "Si O2"
_cell_formula_units_Z 48
_cell_length_a 15.550480
_cell_length_b 15.550480
_cell_length_c 9.278533
_cell_angle_alpha 90.000000
_cell_angle_beta 90.000000
_cell_angle_gamma 120.000000
_cell_volume 1943.110714
_symmetry_space_group_name_H-M "P 61 2 2"
_symmetry_group_IT_number 178
_symmetry_cell_setting 'hexagonal'
loop_
_space_group_symop_operation_xyz
x,y,z
x-y,x,1/6+z
-y,x-y,1/3+z
-x,-y,1/2+z
-x+y,-x,2/3+z
y,-x+y,5/6+z
x-y,-y,-z
-x,-x+y,2/3-z
y,x,1/3-z
-y,-x,5/6-z
-x+y,y,1/2-z
x,x-y,1/6-z
loop_
_atom_site_type_symbol
_atom_site_label
_atom_site_fract_x
_atom_site_fract_y
_atom_site_fract_z
Si Si1 0.588220 0.214369 0.414305
Si Si2 0.537000 0.620619 0.809542
Si Si3 0.065993 0.747690 0.967304
Si Si4 0.840622 0.636399 0.404060
O O1 0.665820 0.334181 0.416667
O O2 0.593796 0.187592 0.250000
O O3 0.625635 0.164453 0.530096
O O4 0.471941 0.169875 0.451523
O O5 0.602826 0.630987 0.540515
O O6 0.602202 0.731444 0.870189
O O7 0.463595 0.536406 0.916667
O O8 0.177910 0.822091 0.916667
O O9 0.000000 0.757063 0.833334
O O10 0.077404 0.775035 0.138955
O O11 0.842252 0.684504 0.250000
#
# Coordination Sequence:
#
# PCOD9583055 Si02
#       4
#    12  12  12  12
#     4  12  23  39  72 113 168 228 277 337 413 512
#     4  12  26  48  73 115 165 218 277 342 423 513
#     4  12  28  53  76 107 154 212 279 350 423 511
#     4  12  25  47  72 116 164 213 279 346 425 508
#
# _framework density 24.702658
#
# number of rings (size 3 to 8) (size 9 to 14) (size 15 to 20)
#    0.000    0.000    7.500    3.000    0.000    4.000 
#    0.000    0.000    0.000    0.000    0.000    1.750 
#    0.000    0.000    0.000    0.000    0.000    0.000 
#
# Total GULP energy -267254.994302 kJ/mol
# GULP energy per Si atom -5567.812381 kJ/mol
# Density = 2.464643 g / cm^3
# Si number density = 24.702658 Si / 1000 Ang^3
#
#
#
# Elastic Constant Matrix: (Units=GPa)
#
#
# Indices 1 2 3 4 5 6 
#
# 1 95.6619 35.0460 43.0489 0.0000 0.0000 0.0000
# 2 35.0460 95.6619 43.0489 0.0000 0.0000 0.0000
# 3 43.0489 43.0489 191.1308 0.0000 0.0000 0.0000
# 4 0.0000 0.0000 0.0000 32.1874 0.0000 0.0000
# 5 0.0000 0.0000 0.0000 0.0000 32.1874 0.0000
# 6 0.0000 0.0000 0.0000 0.0000 0.0000 30.3080
#
#
#
# Elastic Compliance Matrix: (Units=1/GPa)
#
#
# Indices 1 2 3 4 5 6 
#
# 1 0.012740 -0.003757 -0.002023 0.000000 0.000000 0.000000
# 2 -0.003757 0.012740 -0.002023 0.000000 0.000000 0.000000
# 3 -0.002023 -0.002023 0.006143 0.000000 0.000000 0.000000
# 4 0.000000 0.000000 0.000000 0.031068 0.000000 0.000000
# 5 0.000000 0.000000 0.000000 0.000000 0.031068 0.000000
# 6 0.000000 0.000000 0.000000 0.000000 0.000000 0.032995
#
#
# Mechanical properties :
#
#
# Convention : Reuss Voigt Hill
#
# Bulk Modulus (GPa) = 62.43403 69.41579 65.92491
# Shear Modulus (GPa) = 33.85212 36.35728 35.10470
#
# Velocity S-wave (km/s) = 3.70589 3.84056 3.77382
# Velocity P-wave (km/s) = 6.60610 6.91579 6.76271
#
# Compressibility (1/GPa) = 0.01601691
#
# Stress axis : x y z
#
# Youngs Moduli (GPa) = 78.49064 78.49064 162.77440
#
# Poissons Ratio (x) = 0.29488 0.32935
# Poissons Ratio (y) = 0.29488 0.32935
# Poissons Ratio (z) = 0.15882 0.15882
#
# Static dielectric constant tensor:
#      x y z
#    x 2.142080 0.000000 0.000000 
#    y 0.000000 2.142080 0.000000 
#    z 0.000000 0.000000 2.708110 
# 
# From -- ./inp_files/2512.got.cif
#   From: 2010.05.17/outbox.cif.g08.bks.cpg/sg178_2_cif.got.tgz:2512.got - 2010.05.20 11:30:59.
