data_PCOD9583898
_publ_section_title
;
Structure prediction by ZEFSAII (Michael W. Deem and Ramdas Pophale) SiO2 
 PCOD9583898
Probable space group: P 62 2 2
;
_chemical_formula_sum "Si O2"
_cell_formula_units_Z 36
_cell_length_a 8.974601
_cell_length_b 8.974601
_cell_length_c 22.098084
_cell_angle_alpha 90.000000
_cell_angle_beta 90.000000
_cell_angle_gamma 120.000000
_cell_volume 1541.400696
_symmetry_space_group_name_H-M "P 62 2 2"
_symmetry_group_IT_number 180
_symmetry_cell_setting 'hexagonal'
loop_
_space_group_symop_operation_xyz
x,y,z
x-y,x,1/3+z
-y,x-y,2/3+z
-x,-y,z
-x+y,-x,1/3+z
y,-x+y,2/3+z
x-y,-y,-z
-x,-x+y,1/3-z
y,x,2/3-z
-y,-x,2/3-z
-x+y,y,-z
x,x-y,1/3-z
loop_
_atom_site_type_symbol
_atom_site_label
_atom_site_fract_x
_atom_site_fract_y
_atom_site_fract_z
Si Si1 0.826638 0.348148 0.734753
Si Si2 0.174892 0.152607 0.099362
Si Si3 0.687721 0.518270 0.932605
O O1 0.826707 0.413354 0.666667
O O2 0.820230 0.166370 0.733006
O O3 0.653633 0.327899 0.762036
O O4 0.000000 0.500000 0.764295
O O5 0.191292 0.095646 0.166667
O O6 0.150686 0.316992 0.101519
O O7 0.000000 0.000000 0.071736
O O8 0.500000 0.500000 0.935125
O O9 0.768410 0.536819 0.000000
#
# Coordination Sequence:
#
# PCOD9583898 Si02
#       3
#    12  12  12
#     4  10  21  40  65  98 131 169 220 272 330 396
#     4  11  25  44  64  95 137 182 226 276 337 401
#     4  11  22  41  70 103 134 172 224 282 337 402
#
# _framework density 23.355381999999999
#
# number of rings (size 3 to 8) (size 9 to 14) (size 15 to 20)
#    0.000    1.333    0.000    7.000    0.000    6.000 
#    0.000   10.000    0.000    0.000    0.000    0.000 
#    0.000    0.000    0.000    0.000    0.000    0.000 
#
# Total GULP energy -201428.805908 kJ/mol
# GULP energy per Si atom -5595.244609 kJ/mol
# Density = 2.330222 g / cm^3
# Si number density = 23.355382 Si / 1000 Ang^3
#
#
#
# Elastic Constant Matrix: (Units=GPa)
#
#
# Indices 1 2 3 4 5 6 
#
# 1 247.7042 125.0019 27.0542 0.0000 0.0000 0.0000
# 2 125.0019 247.7042 27.0542 0.0000 0.0000 0.0000
# 3 27.0542 27.0542 89.0309 0.0000 0.0000 0.0000
# 4 0.0000 0.0000 0.0000 36.4713 0.0000 0.0000
# 5 0.0000 0.0000 0.0000 0.0000 36.4713 0.0000
# 6 0.0000 0.0000 0.0000 0.0000 0.0000 61.3512
#
#
#
# Elastic Compliance Matrix: (Units=1/GPa)
#
#
# Indices 1 2 3 4 5 6 
#
# 1 0.005478 -0.002671 -0.000853 0.000000 0.000000 0.000000
# 2 -0.002671 0.005478 -0.000853 0.000000 0.000000 0.000000
# 3 -0.000853 -0.000853 0.011750 0.000000 0.000000 0.000000
# 4 0.000000 0.000000 0.000000 0.027419 0.000000 0.000000
# 5 0.000000 0.000000 0.000000 0.000000 0.027419 0.000000
# 6 0.000000 0.000000 0.000000 0.000000 0.000000 0.016300
#
#
# Mechanical properties :
#
#
# Convention : Reuss Voigt Hill
#
# Bulk Modulus (GPa) = 71.67195 104.73997 88.20596
# Shear Modulus (GPa) = 46.62010 53.88070 50.25040
#
# Velocity S-wave (km/s) = 4.47264 4.80833 4.64352
# Velocity P-wave (km/s) = 7.57805 8.70461 8.16079
#
# Compressibility (1/GPa) = 0.01395246
#
# Stress axis : x y z
#
# Youngs Moduli (GPa) = 182.53653 182.53653 85.10327
#
# Poissons Ratio (x) = 0.48764 0.07259
# Poissons Ratio (y) = 0.48764 0.07259
# Poissons Ratio (z) = 0.15569 0.15569
#
# Static dielectric constant tensor:
#      x y z
#    x 2.080600 0.000000 0.000000 
#    y 0.000000 2.080600 0.000000 
#    z 0.000000 0.000000 1.935070 
# 
# From -- ./inp_files/10731.got.cif
#   From: 2010.05.17/outbox.cif.g08.bks.cpg/sg180_6_cif.got.tgz:10731.got - 2010.05.20 11:43:55.
