data_PCOD9583046
_publ_section_title
;
Structure prediction by ZEFSAII (Michael W. Deem and Ramdas Pophale) SiO2 
 PCOD9583046
Probable space group: P 61 2 2
;
_chemical_formula_sum "Si O2"
_cell_formula_units_Z 42
_cell_length_a 18.176824
_cell_length_b 18.176824
_cell_length_c 5.653725
_cell_angle_alpha 90.000000
_cell_angle_beta 90.000000
_cell_angle_gamma 120.000000
_cell_volume 1617.712407
_symmetry_space_group_name_H-M "P 61 2 2"
_symmetry_group_IT_number 178
_symmetry_cell_setting 'hexagonal'
loop_
_space_group_symop_operation_xyz
x,y,z
x-y,x,1/6+z
-y,x-y,1/3+z
-x,-y,1/2+z
-x+y,-x,2/3+z
y,-x+y,5/6+z
x-y,-y,-z
-x,-x+y,2/3-z
y,x,1/3-z
-y,-x,5/6-z
-x+y,y,1/2-z
x,x-y,1/6-z
loop_
_atom_site_type_symbol
_atom_site_label
_atom_site_fract_x
_atom_site_fract_y
_atom_site_fract_z
Si Si1 0.906092 0.264575 0.099693
Si Si2 0.255941 0.511881 0.750000
Si Si3 0.000000 0.572483 0.833334
Si Si4 0.579287 0.420714 0.916667
Si Si5 0.115374 0.884627 0.916667
Si Si6 0.199653 0.199653 0.666667
O O1 0.910015 0.206847 0.307675
O O2 0.977805 0.362079 0.119373
O O3 0.819223 0.265147 0.086940
O O4 0.925424 0.220613 0.883787
O O5 0.339189 0.559037 0.582038
O O6 0.912243 0.489274 0.765828
O O7 0.134911 0.957580 0.719401
#
# Coordination Sequence:
#
# PCOD9583046 Si02
#       6
#    12   6   6   6   6   6
#     4  12  23  44  76 109 155 209 280 354 444 520
#     4  12  26  50  77 110 154 230 289 379 444 544
#     4  12  24  49  76 116 148 222 293 376 450 531
#     4  12  28  50  81 112 167 218 308 360 465 540
#     4  12  22  40  70 120 163 214 267 347 441 546
#     4  12  22  41  70 118 162 218 263 352 452 531
#
# _framework density 25.962589000000001
#
# number of rings (size 3 to 8) (size 9 to 14) (size 15 to 20)
#    0.000    0.000    5.714    5.143    0.000    0.000 
#    0.000    7.143    0.000    0.000    0.000    0.000 
#    0.000    0.000  641.143   21.143    0.000    0.000 
#
# Total GULP energy -234257.236347 kJ/mol
# GULP energy per Si atom -5577.553246 kJ/mol
# Density = 2.590350 g / cm^3
# Si number density = 25.962589 Si / 1000 Ang^3
#
#
#
# Elastic Constant Matrix: (Units=GPa)
#
#
# Indices 1 2 3 4 5 6 
#
# 1 175.7101 95.9981 67.3569 0.0000 0.0000 0.0000
# 2 95.9981 175.7101 67.3569 0.0000 0.0000 0.0000
# 3 67.3569 67.3569 132.9447 0.0000 0.0000 0.0000
# 4 0.0000 0.0000 0.0000 46.5759 0.0000 0.0000
# 5 0.0000 0.0000 0.0000 0.0000 46.5759 0.0000
# 6 0.0000 0.0000 0.0000 0.0000 0.0000 39.8560
#
#
#
# Elastic Compliance Matrix: (Units=1/GPa)
#
#
# Indices 1 2 3 4 5 6 
#
# 1 0.008730 -0.003815 -0.002490 0.000000 0.000000 0.000000
# 2 -0.003815 0.008730 -0.002490 0.000000 0.000000 0.000000
# 3 -0.002490 -0.002490 0.010045 0.000000 0.000000 0.000000
# 4 0.000000 0.000000 0.000000 0.021470 0.000000 0.000000
# 5 0.000000 0.000000 0.000000 0.000000 0.021470 0.000000
# 6 0.000000 0.000000 0.000000 0.000000 0.000000 0.025090
#
#
# Mechanical properties :
#
#
# Convention : Reuss Voigt Hill
#
# Bulk Modulus (GPa) = 100.86237 105.08763 102.97500
# Shear Modulus (GPa) = 42.94334 43.51175 43.22754
#
# Velocity S-wave (km/s) = 4.07141 4.09827 4.08486
# Velocity P-wave (km/s) = 7.81251 7.93466 7.87382
#
# Compressibility (1/GPa) = 0.00991450
#
# Stress axis : x y z
#
# Youngs Moduli (GPa) = 114.54578 114.54578 99.54889
#
# Poissons Ratio (x) = 0.43700 0.24790
# Poissons Ratio (y) = 0.43700 0.24790
# Poissons Ratio (z) = 0.28525 0.28525
#
# Static dielectric constant tensor:
#      x y z
#    x 2.065740 0.000000 0.000000 
#    y 0.000000 2.065740 0.000000 
#    z 0.000000 0.000000 2.357040 
# 
# From -- ./inp_files/878.got.cif
#   From: 2010.05.17/outbox.cif.g08.bks.cpg/sg178_1_cif.got.tgz:878.got - 2010.05.20 11:30:59.
