data_PCOD9583888
_publ_section_title
;
Structure prediction by ZEFSAII (Michael W. Deem and Ramdas Pophale) SiO2 
 PCOD9583888
Probable space group: P 62 2 2
;
_chemical_formula_sum "Si O2"
_cell_formula_units_Z 60
_cell_length_a 11.953718
_cell_length_b 11.953718
_cell_length_c 22.712967
_cell_angle_alpha 90.000000
_cell_angle_beta 90.000000
_cell_angle_gamma 120.000000
_cell_volume 2810.674244
_symmetry_space_group_name_H-M "P 62 2 2"
_symmetry_group_IT_number 180
_symmetry_cell_setting 'hexagonal'
loop_
_space_group_symop_operation_xyz
x,y,z
x-y,x,1/3+z
-y,x-y,2/3+z
-x,-y,z
-x+y,-x,1/3+z
y,-x+y,2/3+z
x-y,-y,-z
-x,-x+y,1/3-z
y,x,2/3-z
-y,-x,2/3-z
-x+y,y,-z
x,x-y,1/3-z
loop_
_atom_site_type_symbol
_atom_site_label
_atom_site_fract_x
_atom_site_fract_y
_atom_site_fract_z
Si Si1 0.608841 0.458374 0.398268
Si Si2 0.265584 0.771146 0.511706
Si Si3 0.795605 0.650857 0.061213
Si Si4 0.280452 0.142218 0.095320
Si Si5 0.141563 0.207686 0.771650
O O1 0.500000 0.500000 0.402550
O O2 0.598854 0.401147 0.333334
O O3 0.580214 0.356164 0.449843
O O4 0.743017 0.588246 0.405964
O O5 0.418081 0.836162 0.500000
O O6 0.198138 0.749661 0.448381
O O7 0.211799 0.852365 0.546147
O O8 0.729462 0.737999 0.070350
O O9 0.947003 0.759971 0.066141
O O10 0.791853 0.583706 0.000000
O O11 0.283207 0.141604 0.166667
O O12 0.158446 0.001108 0.080249
O O13 0.136177 0.136177 0.833334
#
# Coordination Sequence:
#
# PCOD9583888 Si02
#       5
#    12  12  12  12  12
#     4  11  24  41  67 100 138 183 237 289 354 427
#     4  11  24  45  69  91 137 191 234 285 352 421
#     4  11  26  41  70 107 139 181 234 293 359 435
#     4  12  21  41  71 103 140 182 229 296 362 425
#     4  10  21  39  66  99 139 176 228 283 367 426
#
# _framework density 21.347193000000001
#
# number of rings (size 3 to 8) (size 9 to 14) (size 15 to 20)
#    0.000    1.000    6.000    1.200    2.800    6.000 
#    0.000    0.000   13.200    0.000    0.000    0.000 
#    0.000    0.000    0.000    0.000    0.000    0.000 
#
# Total GULP energy -335450.675582 kJ/mol
# GULP energy per Si atom -5590.844593 kJ/mol
# Density = 2.129861 g / cm^3
# Si number density = 21.347193 Si / 1000 Ang^3
#
#
#
# Elastic Constant Matrix: (Units=GPa)
#
#
# Indices 1 2 3 4 5 6 
#
# 1 78.6590 72.1471 32.8392 0.0000 0.0000 0.0000
# 2 72.1471 78.6590 32.8392 0.0000 0.0000 0.0000
# 3 32.8392 32.8392 107.7787 0.0000 0.0000 0.0000
# 4 0.0000 0.0000 0.0000 9.0375 0.0000 0.0000
# 5 0.0000 0.0000 0.0000 0.0000 9.0375 0.0000
# 6 0.0000 0.0000 0.0000 0.0000 0.0000 3.2559
#
#
#
# Elastic Compliance Matrix: (Units=1/GPa)
#
#
# Indices 1 2 3 4 5 6 
#
# 1 0.080606 -0.072960 -0.002330 0.000000 0.000000 0.000000
# 2 -0.072960 0.080606 -0.002330 0.000000 0.000000 0.000000
# 3 -0.002330 -0.002330 0.010698 0.000000 0.000000 0.000000
# 4 0.000000 0.000000 0.000000 0.110650 0.000000 0.000000
# 5 0.000000 0.000000 0.000000 0.000000 0.110650 0.000000
# 6 0.000000 0.000000 0.000000 0.000000 0.000000 0.307132
#
#
# Mechanical properties :
#
#
# Convention : Reuss Voigt Hill
#
# Bulk Modulus (GPa) = 59.98492 60.08307 60.03399
# Shear Modulus (GPa) = 5.80627 12.75092 9.27859
#
# Velocity S-wave (km/s) = 1.65101 2.44665 2.08709
# Velocity P-wave (km/s) = 5.63872 6.01566 5.83024
#
# Compressibility (1/GPa) = 0.01667086
#
# Stress axis : x y z
#
# Youngs Moduli (GPa) = 12.40605 12.40605 93.47671
#
# Poissons Ratio (x) = 0.90515 0.21776
# Poissons Ratio (y) = 0.90515 0.21776
# Poissons Ratio (z) = 0.02890 0.02890
#
# Static dielectric constant tensor:
#      x y z
#    x 1.770870 0.000000 0.000000 
#    y 0.000000 1.770870 0.000000 
#    z 0.000000 0.000000 1.928790 
# 
# From -- ./inp_files/11223.got.cif
#   From: 2010.05.17/outbox.cif.g08.bks.cpg/sg180_6_cif.got.tgz:11223.got - 2010.05.20 11:43:55.
