data_PCOD9583647
_publ_section_title
;
Structure prediction by ZEFSAII (Michael W. Deem and Ramdas Pophale) SiO2 
 PCOD9583647
Probable space group: P 62 2 2
;
_chemical_formula_sum "Si O2"
_cell_formula_units_Z 96
_cell_length_a 13.980426
_cell_length_b 13.980426
_cell_length_c 33.189680
_cell_angle_alpha 90.000000
_cell_angle_beta 90.000000
_cell_angle_gamma 120.000000
_cell_volume 5617.906502
_symmetry_space_group_name_H-M "P 62 2 2"
_symmetry_group_IT_number 180
_symmetry_cell_setting 'hexagonal'
loop_
_space_group_symop_operation_xyz
x,y,z
x-y,x,1/3+z
-y,x-y,2/3+z
-x,-y,z
-x+y,-x,1/3+z
y,-x+y,2/3+z
x-y,-y,-z
-x,-x+y,1/3-z
y,x,2/3-z
-y,-x,2/3-z
-x+y,y,-z
x,x-y,1/3-z
loop_
_atom_site_type_symbol
_atom_site_label
_atom_site_fract_x
_atom_site_fract_y
_atom_site_fract_z
Si Si1 0.694780 0.117685 0.022211
Si Si2 0.368542 0.180521 0.058705
Si Si3 0.129993 0.552364 0.579832
Si Si4 0.043939 0.228672 0.751833
Si Si5 0.059655 0.752570 0.490008
Si Si6 0.623496 0.090683 0.781650
Si Si7 0.444991 0.763659 0.831687
Si Si8 0.096133 0.967667 0.455949
O O1 0.621514 0.159724 0.045031
O O2 0.760040 0.097351 0.057997
O O3 0.782146 0.185577 0.987624
O O4 0.616008 0.000000 0.000000
O O5 0.449381 0.148273 0.082523
O O6 0.406991 0.298349 0.077414
O O7 0.243721 0.081537 0.067563
O O8 0.190817 0.629248 0.542228
O O9 0.000000 0.500000 0.573962
O O10 0.038983 0.257031 0.798527
O O11 0.119611 0.171078 0.754258
O O12 0.174463 0.749900 0.487992
O O13 0.056716 0.838184 0.457585
O O14 0.962578 0.628388 0.481827
O O15 0.614174 0.191940 0.800472
O O16 0.500000 0.000000 0.771230
O O17 0.368820 0.631181 0.833334
O O18 0.154389 0.000000 0.500000
O O19 0.000000 0.000000 0.457625
#
# Coordination Sequence:
#
# PCOD9583647 Si02
#       8
#    12  12  12  12  12  12  12  12
#     4  10  20  30  48  78 109 139 167 212 272 336
#     4  11  20  30  50  75 109 142 171 213 262 336
#     4  12  18  30  48  78 114 137 165 213 280 344
#     4  10  18  30  51  76 102 129 171 218 274 321
#     4  10  19  33  51  74 108 139 168 227 281 319
#     4  10  21  33  48  75 106 142 179 214 269 327
#     4  11  20  31  49  79 110 142 171 215 281 341
#     4   9  18  31  49  74  98 131 174 215 265 320
#
# _framework density 17.088215000000002
#
# number of rings (size 3 to 8) (size 9 to 14) (size 15 to 20)
#    0.000    1.625    5.000    3.000    0.000    1.000 
#    0.000    0.000    0.000   13.500    0.000    0.000 
#    0.000    0.000    0.000    0.000    0.000    0.000 
#
# Total GULP energy -534547.968557 kJ/mol
# GULP energy per Si atom -5568.208006 kJ/mol
# Density = 1.704932 g / cm^3
# Si number density = 17.088215 Si / 1000 Ang^3
#
#
#
# Elastic Constant Matrix: (Units=GPa)
#
#
# Indices 1 2 3 4 5 6 
#
# 1 52.8100 16.5960 11.7868 0.0000 0.0000 0.0000
# 2 16.5960 52.8100 11.7868 0.0000 0.0000 0.0000
# 3 11.7868 11.7868 63.7999 0.0000 0.0000 0.0000
# 4 0.0000 0.0000 0.0000 19.0798 0.0000 0.0000
# 5 0.0000 0.0000 0.0000 0.0000 19.0798 0.0000
# 6 0.0000 0.0000 0.0000 0.0000 0.0000 18.1070
#
#
#
# Elastic Compliance Matrix: (Units=1/GPa)
#
#
# Indices 1 2 3 4 5 6 
#
# 1 0.021493 -0.006121 -0.002840 0.000000 0.000000 0.000000
# 2 -0.006121 0.021493 -0.002840 0.000000 0.000000 0.000000
# 3 -0.002840 -0.002840 0.016723 0.000000 0.000000 0.000000
# 4 0.000000 0.000000 0.000000 0.052411 0.000000 0.000000
# 5 0.000000 0.000000 0.000000 0.000000 0.052411 0.000000
# 6 0.000000 0.000000 0.000000 0.000000 0.000000 0.055227
#
#
# Mechanical properties :
#
#
# Convention : Reuss Voigt Hill
#
# Bulk Modulus (GPa) = 27.69437 27.75102 27.72270
# Shear Modulus (GPa) = 19.57736 19.87001 19.72368
#
# Velocity S-wave (km/s) = 3.38844 3.41367 3.40108
# Velocity P-wave (km/s) = 5.61699 5.64027 5.62864
#
# Compressibility (1/GPa) = 0.03610842
#
# Stress axis : x y z
#
# Youngs Moduli (GPa) = 46.52648 46.52648 59.79656
#
# Poissons Ratio (x) = 0.28477 0.16982
# Poissons Ratio (y) = 0.28477 0.16982
# Poissons Ratio (z) = 0.13214 0.13214
#
# Static dielectric constant tensor:
#      x y z
#    x 1.644440 0.000000 0.000000 
#    y 0.000000 1.644440 0.000000 
#    z 0.000000 0.000000 1.592720 
# 
# From -- ./inp_files/12461.got.cif
#   From: 2010.05.17/outbox.cif.g08.bks.cpg/sg180_7_cif.got.tgz:12461.got - 2010.05.20 11:43:55.
