data_PCOD9583230
_publ_section_title
;
Structure prediction by ZEFSAII (Michael W. Deem and Ramdas Pophale) SiO2 
 PCOD9583230
Probable space group: P 65 2 2
;
_chemical_formula_sum "Si O2"
_cell_formula_units_Z 66
_cell_length_a 14.893696
_cell_length_b 14.893696
_cell_length_c 18.890989
_cell_angle_alpha 90.000000
_cell_angle_beta 90.000000
_cell_angle_gamma 120.000000
_cell_volume 3629.027816
_symmetry_space_group_name_H-M "P 65 2 2"
_symmetry_group_IT_number 179
_symmetry_cell_setting 'hexagonal'
loop_
_space_group_symop_operation_xyz
x,y,z
x-y,x,5/6+z
-y,x-y,2/3+z
-x,-y,1/2+z
-x+y,-x,1/3+z
y,-x+y,1/6+z
x-y,-y,-z
-x,-x+y,1/3-z
y,x,2/3-z
-y,-x,1/6-z
-x+y,y,1/2-z
x,x-y,5/6-z
loop_
_atom_site_type_symbol
_atom_site_label
_atom_site_fract_x
_atom_site_fract_y
_atom_site_fract_z
Si Si1 0.028205 0.310365 0.978154
Si Si2 0.881174 0.354392 0.467156
Si Si3 0.648316 0.491572 0.839124
Si Si4 0.820560 0.712382 0.871683
Si Si5 0.538345 0.028806 0.116741
Si Si6 0.705829 0.411657 0.250000
O O1 0.971301 0.375504 0.999197
O O2 0.087380 0.307252 0.047942
O O3 0.939979 0.194036 0.962450
O O4 0.102559 0.377552 0.914197
O O5 0.859008 0.429504 0.416667
O O6 0.791538 0.307129 0.525718
O O7 0.989692 0.433225 0.506609
O O8 0.751710 0.601912 0.832070
O O9 0.576432 0.512065 0.894129
O O10 0.587974 0.457449 0.764677
O O11 0.658381 0.401016 0.875482
O O12 0.790698 0.790698 0.833334
#
# Coordination Sequence:
#
# PCOD9583230 Si02
#       6
#    12  12  12  12  12   6
#     4  10  20  34  55  80 106 136 182 235 275 332
#     4   9  19  36  53  79 115 151 189 230 273 328
#     4   9  16  31  51  75 109 144 179 216 255 328
#     4  11  20  35  57  80 109 138 182 230 287 333
#     4   8  15  32  52  70 107 144 175 215 263 306
#     4  10  20  34  54  80 118 162 184 220 276 338
#
# _framework density 18.186689999999999
#
# number of rings (size 3 to 8) (size 9 to 14) (size 15 to 20)
#    0.000    2.545    3.636    1.636    0.000    1.455 
#    8.182    0.000    0.000    0.000    9.455    0.000 
#    0.000    0.000    0.000    0.000    0.000    0.000 
#
# Total GULP energy -367802.122901 kJ/mol
# GULP energy per Si atom -5572.759438 kJ/mol
# Density = 1.814530 g / cm^3
# Si number density = 18.186690 Si / 1000 Ang^3
#
#
#
# Elastic Constant Matrix: (Units=GPa)
#
#
# Indices 1 2 3 4 5 6 
#
# 1 50.1428 21.1624 23.0275 0.0000 0.0000 0.0000
# 2 21.1624 50.1428 23.0275 0.0000 0.0000 0.0000
# 3 23.0275 23.0275 90.5117 0.0000 0.0000 0.0000
# 4 0.0000 0.0000 0.0000 23.4905 0.0000 0.0000
# 5 0.0000 0.0000 0.0000 0.0000 23.4905 0.0000
# 6 0.0000 0.0000 0.0000 0.0000 0.0000 14.4902
#
#
#
# Elastic Compliance Matrix: (Units=1/GPa)
#
#
# Indices 1 2 3 4 5 6 
#
# 1 0.025644 -0.008862 -0.004270 0.000000 0.000000 0.000000
# 2 -0.008862 0.025644 -0.004270 0.000000 0.000000 0.000000
# 3 -0.004270 -0.004270 0.013221 0.000000 0.000000 0.000000
# 4 0.000000 0.000000 0.000000 0.042570 0.000000 0.000000
# 5 0.000000 0.000000 0.000000 0.000000 0.042570 0.000000
# 6 0.000000 0.000000 0.000000 0.000000 0.000000 0.069012
#
#
# Mechanical properties :
#
#
# Convention : Reuss Voigt Hill
#
# Bulk Modulus (GPa) = 33.66295 36.13694 34.89995
# Shear Modulus (GPa) = 18.98497 20.53290 19.75894
#
# Velocity S-wave (km/s) = 3.23444 3.36372 3.29971
# Velocity P-wave (km/s) = 5.70076 5.91602 5.80938
#
# Compressibility (1/GPa) = 0.02970625
#
# Stress axis : x y z
#
# Youngs Moduli (GPa) = 38.99553 38.99553 75.63859
#
# Poissons Ratio (x) = 0.34558 0.32294
# Poissons Ratio (y) = 0.34558 0.32294
# Poissons Ratio (z) = 0.16649 0.16649
#
# Static dielectric constant tensor:
#      x y z
#    x 1.631170 0.000000 0.000000 
#    y 0.000000 1.631170 0.000000 
#    z 0.000000 0.000000 1.675490 
# 
# From -- ./inp_files/7644.got.cif
#   From: 2010.05.17/outbox.cif.g08.bks.cpg/sg179_4_cif.got.tgz:7644.got - 2010.05.20 11:37:33.
