data_PCOD9583929
_publ_section_title
;
Structure prediction by ZEFSAII (Michael W. Deem and Ramdas Pophale) SiO2 
 PCOD9583929
Probable space group: P 62 2 2
;
_chemical_formula_sum "Si O2"
_cell_formula_units_Z 60
_cell_length_a 16.491680
_cell_length_b 16.491680
_cell_length_c 11.543618
_cell_angle_alpha 90.000000
_cell_angle_beta 90.000000
_cell_angle_gamma 120.000000
_cell_volume 2718.957236
_symmetry_space_group_name_H-M "P 62 2 2"
_symmetry_group_IT_number 180
_symmetry_cell_setting 'hexagonal'
loop_
_space_group_symop_operation_xyz
x,y,z
x-y,x,1/3+z
-y,x-y,2/3+z
-x,-y,z
-x+y,-x,1/3+z
y,-x+y,2/3+z
x-y,-y,-z
-x,-x+y,1/3-z
y,x,2/3-z
-y,-x,2/3-z
-x+y,y,-z
x,x-y,1/3-z
loop_
_atom_site_type_symbol
_atom_site_label
_atom_site_fract_x
_atom_site_fract_y
_atom_site_fract_z
Si Si1 0.791450 0.094317 0.434801
Si Si2 0.248126 0.664759 0.454130
Si Si3 0.100696 0.487732 0.559773
Si Si4 0.428190 0.206409 0.373055
Si Si5 0.591008 0.994428 0.316802
O O1 0.866917 0.133084 0.333334
O O2 0.828145 0.175752 0.531025
O O3 0.770077 0.000000 0.500000
O O4 0.689389 0.069350 0.377613
O O5 0.283143 0.716858 0.333334
O O6 0.313367 0.626733 0.500000
O O7 0.150583 0.569919 0.462388
O O8 0.258739 0.737249 0.551781
O O9 0.094475 0.547238 0.666667
O O10 0.158266 0.438804 0.608162
O O11 0.008941 0.411814 0.491224
O O12 0.415900 0.106224 0.339671
O O13 0.500000 0.000000 0.360232
#
# Coordination Sequence:
#
# PCOD9583929 Si02
#       5
#    12  12  12  12  12
#     4  10  24  44  66  94 128 175 218 278 336 416
#     4  11  20  30  52  78 113 167 223 270 320 364
#     4  10  22  40  57  87 125 173 226 281 329 393
#     4  10  22  38  57  80 126 172 219 278 330 393
#     4  11  24  38  59  93 131 172 229 282 334 383
#
# _framework density 22.067284000000001
#
# number of rings (size 3 to 8) (size 9 to 14) (size 15 to 20)
#    0.000    1.600    0.000    5.400   11.200    3.200 
#    0.000    0.000    0.000    0.000    0.000    0.000 
#    0.000   49.600    0.000    0.000    0.000    0.000 
#
# Total GULP energy -334658.832725 kJ/mol
# GULP energy per Si atom -5577.647212 kJ/mol
# Density = 2.201706 g / cm^3
# Si number density = 22.067284 Si / 1000 Ang^3
#
#
#
# Elastic Constant Matrix: (Units=GPa)
#
#
# Indices 1 2 3 4 5 6 
#
# 1 82.6783 39.9312 34.9017 0.0000 0.0000 0.0000
# 2 39.9312 82.6783 34.9017 0.0000 0.0000 0.0000
# 3 34.9017 34.9017 125.3029 0.0000 0.0000 0.0000
# 4 0.0000 0.0000 0.0000 165.0262 0.0000 0.0000
# 5 0.0000 0.0000 0.0000 0.0000 165.0262 0.0000
# 6 0.0000 0.0000 0.0000 0.0000 0.0000 21.3736
#
#
#
# Elastic Compliance Matrix: (Units=1/GPa)
#
#
# Indices 1 2 3 4 5 6 
#
# 1 0.016543 -0.006850 -0.002700 0.000000 0.000000 0.000000
# 2 -0.006850 0.016543 -0.002700 0.000000 0.000000 0.000000
# 3 -0.002700 -0.002700 0.009485 0.000000 0.000000 0.000000
# 4 0.000000 0.000000 0.000000 0.006060 0.000000 0.000000
# 5 0.000000 0.000000 0.000000 0.000000 0.006060 0.000000
# 6 0.000000 0.000000 0.000000 0.000000 0.000000 0.046787
#
#
# Mechanical properties :
#
#
# Convention : Reuss Voigt Hill
#
# Bulk Modulus (GPa) = 55.33645 56.68095 56.00870
# Shear Modulus (GPa) = 37.87854 82.34687 60.11270
#
# Velocity S-wave (km/s) = 4.14756 6.11533 5.22492
# Velocity P-wave (km/s) = 6.93304 8.69507 7.86357
#
# Compressibility (1/GPa) = 0.01807127
#
# Stress axis : x y z
#
# Youngs Moduli (GPa) = 60.44770 60.44770 105.43286
#
# Poissons Ratio (x) = 0.41408 0.28466
# Poissons Ratio (y) = 0.41408 0.28466
# Poissons Ratio (z) = 0.16320 0.16320
#
# Static dielectric constant tensor:
#      x y z
#    x 1.620930 0.000000 0.000000 
#    y 0.000000 1.620930 0.000000 
#    z 0.000000 0.000000 1.986990 
# 
# From -- ./inp_files/4817.got.cif
#   From: 2010.05.17/outbox.cif.g08.bks.cpg/sg180_3_cif.got.tgz:4817.got - 2010.05.20 11:43:55.
