data_PCOD9583158
_publ_section_title
;
Structure prediction by ZEFSAII (Michael W. Deem and Ramdas Pophale) SiO2 
 PCOD9583158
Probable space group: P 65 2 2
;
_chemical_formula_sum "Si O2"
_cell_formula_units_Z 48
_cell_length_a 15.443589
_cell_length_b 15.443589
_cell_length_c 11.642699
_cell_angle_alpha 90.000000
_cell_angle_beta 90.000000
_cell_angle_gamma 120.000000
_cell_volume 2404.810015
_symmetry_space_group_name_H-M "P 65 2 2"
_symmetry_group_IT_number 179
_symmetry_cell_setting 'hexagonal'
loop_
_space_group_symop_operation_xyz
x,y,z
x-y,x,5/6+z
-y,x-y,2/3+z
-x,-y,1/2+z
-x+y,-x,1/3+z
y,-x+y,1/6+z
x-y,-y,-z
-x,-x+y,1/3-z
y,x,2/3-z
-y,-x,1/6-z
-x+y,y,1/2-z
x,x-y,5/6-z
loop_
_atom_site_type_symbol
_atom_site_label
_atom_site_fract_x
_atom_site_fract_y
_atom_site_fract_z
Si Si1 0.851079 0.861694 0.165110
Si Si2 0.339931 0.445737 0.295930
Si Si3 0.660972 0.243035 0.378115
Si Si4 0.375797 0.145379 0.225814
O O1 0.871327 0.967480 0.211639
O O2 0.913685 0.827370 0.250000
O O3 0.731925 0.796559 0.155078
O O4 0.427991 0.427991 0.333334
O O5 0.376343 0.562934 0.291445
O O6 0.305138 0.404340 0.167351
O O7 0.245521 0.386129 0.381183
O O8 0.618718 0.237436 0.250000
O O9 0.716853 0.358427 0.416667
O O10 0.723729 0.186786 0.369390
#
# Coordination Sequence:
#
# PCOD9583158 Si02
#       4
#    12  12  12  12
#     4  10  22  44  61  88 130 164 217 270 331 392
#     4  10  19  35  60  94 117 159 224 265 318 381
#     4  10  18  38  63  90 130 168 208 266 323 395
#     4  10  20  38  64  88 126 163 213 269 318 398
#
# _framework density 19.959997000000001
#
# number of rings (size 3 to 8) (size 9 to 14) (size 15 to 20)
#    0.000    2.000    5.000    1.500    0.000    0.000 
#   36.000   10.000    0.000    0.000    0.000    0.000 
#    0.000    0.000    0.000    0.000    0.000    0.000 
#
# Total GULP energy -267454.395591 kJ/mol
# GULP energy per Si atom -5571.966575 kJ/mol
# Density = 1.991457 g / cm^3
# Si number density = 19.959997 Si / 1000 Ang^3
#
#
#
# Elastic Constant Matrix: (Units=GPa)
#
#
# Indices 1 2 3 4 5 6 
#
# 1 131.6269 53.5372 36.5292 0.0000 0.0000 0.0000
# 2 53.5372 131.6269 36.5292 0.0000 0.0000 0.0000
# 3 36.5292 36.5292 22.8572 0.0000 0.0000 0.0000
# 4 0.0000 0.0000 0.0000 25.6067 0.0000 0.0000
# 5 0.0000 0.0000 0.0000 0.0000 25.6067 0.0000
# 6 0.0000 0.0000 0.0000 0.0000 0.0000 39.0449
#
#
#
# Elastic Compliance Matrix: (Units=1/GPa)
#
#
# Indices 1 2 3 4 5 6 
#
# 1 0.013712 0.000906 -0.023363 0.000000 0.000000 0.000000
# 2 0.000906 0.013712 -0.023363 0.000000 0.000000 0.000000
# 3 -0.023363 -0.023363 0.118424 0.000000 0.000000 0.000000
# 4 0.000000 0.000000 0.000000 0.039052 0.000000 0.000000
# 5 0.000000 0.000000 0.000000 0.000000 0.039052 0.000000
# 6 0.000000 0.000000 0.000000 0.000000 0.000000 0.025612
#
#
# Mechanical properties :
#
#
# Convention : Reuss Voigt Hill
#
# Bulk Modulus (GPa) = 18.44664 59.92250 39.18457
# Shear Modulus (GPa) = 13.91699 28.68600 21.30149
#
# Velocity S-wave (km/s) = 2.64340 3.79512 3.27036
# Velocity P-wave (km/s) = 4.31029 7.02071 5.82533
#
# Compressibility (1/GPa) = 0.05421041
#
# Stress axis : x y z
#
# Youngs Moduli (GPa) = 72.92770 72.92770 8.44422
#
# Poissons Ratio (x) = -0.06610 0.19728
# Poissons Ratio (y) = -0.06610 0.19728
# Poissons Ratio (z) = 1.70379 1.70379
#
# Static dielectric constant tensor:
#      x y z
#    x 1.725900 0.000000 0.000000 
#    y 0.000000 1.725900 0.000000 
#    z 0.000000 0.000000 1.747540 
# 
# From -- ./inp_files/4224.got.cif
#   From: 2010.05.17/outbox.cif.g08.bks.cpg/sg179_3_cif.got.tgz:4224.got - 2010.05.20 11:37:33.
