data_PCOD9583247
_publ_section_title
;
Structure prediction by ZEFSAII (Michael W. Deem and Ramdas Pophale) SiO2 
 PCOD9583247
Probable space group: P 65 2 2
;
_chemical_formula_sum "Si O2"
_cell_formula_units_Z 84
_cell_length_a 23.376666
_cell_length_b 23.376666
_cell_length_c 11.342723
_cell_angle_alpha 90.000000
_cell_angle_beta 90.000000
_cell_angle_gamma 120.000000
_cell_volume 5368.007348
_symmetry_space_group_name_H-M "P 65 2 2"
_symmetry_group_IT_number 179
_symmetry_cell_setting 'hexagonal'
loop_
_space_group_symop_operation_xyz
x,y,z
x-y,x,5/6+z
-y,x-y,2/3+z
-x,-y,1/2+z
-x+y,-x,1/3+z
y,-x+y,1/6+z
x-y,-y,-z
-x,-x+y,1/3-z
y,x,2/3-z
-y,-x,1/6-z
-x+y,y,1/2-z
x,x-y,5/6-z
loop_
_atom_site_type_symbol
_atom_site_label
_atom_site_fract_x
_atom_site_fract_y
_atom_site_fract_z
Si Si1 0.579422 0.490202 0.753119
Si Si2 0.200317 0.687942 0.421392
Si Si3 0.521162 0.171895 0.988196
Si Si4 0.798724 0.201277 0.083334
Si Si5 0.622331 0.696913 0.797559
Si Si6 0.534450 0.665601 0.586196
Si Si7 0.343167 0.597215 0.465381
Si Si8 0.026216 0.513108 0.916667
O O1 0.623770 0.476913 0.658598
O O2 0.537161 0.424466 0.828125
O O3 0.634662 0.553379 0.822472
O O4 0.527870 0.505082 0.688832
O O5 0.184258 0.683527 0.282598
O O6 0.200830 0.750096 0.481947
O O7 0.274022 0.700103 0.429685
O O8 0.471923 0.159324 0.879705
O O9 0.593472 0.229890 0.950113
O O10 0.872078 0.237120 0.135673
O O11 0.676514 0.676514 0.833334
O O12 0.601690 0.701430 0.662308
O O13 0.472491 0.662366 0.658069
O O14 0.517978 0.590794 0.568751
O O15 0.359900 0.640101 0.583334
#
# Coordination Sequence:
#
# PCOD9583247 Si02
#       8
#    12  12  12   6  12  12  12   6
#     4  11  21  31  47  71  94 124 154 200 258 299
#     4  11  21  37  49  62  93 123 158 201 260 306
#     4  11  21  35  49  71  91 121 157 204 258 297
#     4  10  22  38  56  68  99 124 154 206 236 310
#     4  11  20  35  57  75  93 128 159 195 252 298
#     4  11  20  32  52  71  94 115 152 206 247 295
#     4  10  20  36  48  63  85 119 157 201 244 300
#     4  12  18  32  48  74  97 114 156 206 254 298
#
# _framework density 15.648263999999999
#
# number of rings (size 3 to 8) (size 9 to 14) (size 15 to 20)
#    0.000    1.143    7.857    0.857    0.000    2.286 
#    5.143    0.000    0.000    0.000    0.000    0.000 
#    0.000    0.000    0.000    0.000    0.000    0.000 
#
# Total GULP energy -469132.486815 kJ/mol
# GULP energy per Si atom -5584.910557 kJ/mol
# Density = 1.561265 g / cm^3
# Si number density = 15.648264 Si / 1000 Ang^3
#
#
#
# Elastic Constant Matrix: (Units=GPa)
#
#
# Indices 1 2 3 4 5 6 
#
# 1 62.3724 30.5730 27.9916 0.0000 0.0000 0.0000
# 2 30.5730 62.3724 27.9916 0.0000 0.0000 0.0000
# 3 27.9916 27.9916 99.4224 0.0000 0.0000 0.0000
# 4 0.0000 0.0000 0.0000 16.7518 0.0000 0.0000
# 5 0.0000 0.0000 0.0000 0.0000 16.7518 0.0000
# 6 0.0000 0.0000 0.0000 0.0000 0.0000 15.8997
#
#
#
# Elastic Compliance Matrix: (Units=1/GPa)
#
#
# Indices 1 2 3 4 5 6 
#
# 1 0.022202 -0.009246 -0.003648 0.000000 0.000000 0.000000
# 2 -0.009246 0.022202 -0.003648 0.000000 0.000000 0.000000
# 3 -0.003648 -0.003648 0.012112 0.000000 0.000000 0.000000
# 4 0.000000 0.000000 0.000000 0.059695 0.000000 0.000000
# 5 0.000000 0.000000 0.000000 0.000000 0.059695 0.000000
# 6 0.000000 0.000000 0.000000 0.000000 0.000000 0.062894
#
#
# Mechanical properties :
#
#
# Convention : Reuss Voigt Hill
#
# Bulk Modulus (GPa) = 42.67398 44.14217 43.40808
# Shear Modulus (GPa) = 17.87679 19.05475 18.46577
#
# Velocity S-wave (km/s) = 3.38363 3.49333 3.43892
# Velocity P-wave (km/s) = 6.52650 6.67393 6.60063
#
# Compressibility (1/GPa) = 0.02343348
#
# Stress axis : x y z
#
# Youngs Moduli (GPa) = 45.04180 45.04180 82.56243
#
# Poissons Ratio (x) = 0.41644 0.30116
# Poissons Ratio (y) = 0.41644 0.30116
# Poissons Ratio (z) = 0.16430 0.16430
#
# Static dielectric constant tensor:
#      x y z
#    x 1.536390 0.000000 0.000000 
#    y 0.000000 1.536390 0.000000 
#    z 0.000000 0.000000 1.630090 
# 
# From -- ./inp_files/5055.got.cif
#   From: 2010.05.17/outbox.cif.g08.bks.cpg/sg179_3_cif.got.tgz:5055.got - 2010.05.20 11:37:33.
