data_PCOD9583735
_publ_section_title
;
Structure prediction by ZEFSAII (Michael W. Deem and Ramdas Pophale) SiO2 
 PCOD9583735
Probable space group: P 62 2 2
;
_chemical_formula_sum "Si O2"
_cell_formula_units_Z 36
_cell_length_a 8.224072
_cell_length_b 8.224072
_cell_length_c 26.470745
_cell_angle_alpha 90.000000
_cell_angle_beta 90.000000
_cell_angle_gamma 120.000000
_cell_volume 1550.495834
_symmetry_space_group_name_H-M "P 62 2 2"
_symmetry_group_IT_number 180
_symmetry_cell_setting 'hexagonal'
loop_
_space_group_symop_operation_xyz
x,y,z
x-y,x,1/3+z
-y,x-y,2/3+z
-x,-y,z
-x+y,-x,1/3+z
y,-x+y,2/3+z
x-y,-y,-z
-x,-x+y,1/3-z
y,x,2/3-z
-y,-x,2/3-z
-x+y,y,-z
x,x-y,1/3-z
loop_
_atom_site_type_symbol
_atom_site_label
_atom_site_fract_x
_atom_site_fract_y
_atom_site_fract_z
Si Si1 0.214628 0.780238 0.393965
Si Si2 0.781456 0.859619 0.390643
Si Si3 0.763769 0.215146 0.773445
O O1 0.225679 0.774322 0.333334
O O2 0.297056 0.657723 0.417297
O O3 0.000014 0.669135 0.417041
O O4 0.300575 0.002940 0.400943
O O5 0.796438 0.796438 0.333334
O O6 0.695948 0.673151 0.422625
O O7 0.000000 0.000000 0.404341
O O8 0.769928 0.230073 0.833334
#
# Coordination Sequence:
#
# PCOD9583735 Si02
#       3
#    12  12  12
#     4  10  19  38  68  97 144 198 260 319 391 507
#     4   9  15  33  63  96 129 188 257 302 389 488
#     4  10  21  36  64 103 150 182 250 353 391 456
#
# _framework density 23.218378000000001
#
# number of rings (size 3 to 8) (size 9 to 14) (size 15 to 20)
#    0.000    2.333    6.667    0.000    0.000    6.000 
#    0.000    6.667   14.667    0.000    0.000    0.000 
#    0.000    0.000    0.000    0.000    0.000    0.000 
#
# Total GULP energy -200552.700194 kJ/mol
# GULP energy per Si atom -5570.908339 kJ/mol
# Density = 2.316553 g / cm^3
# Si number density = 23.218378 Si / 1000 Ang^3
#
#
#
# Elastic Constant Matrix: (Units=GPa)
#
#
# Indices 1 2 3 4 5 6 
#
# 1 119.2447 171.1413 67.5505 0.0000 0.0000 0.0000
# 2 171.1413 119.2447 67.5505 0.0000 0.0000 0.0000
# 3 67.5505 67.5505 159.6292 0.0000 0.0000 0.0000
# 4 0.0000 0.0000 0.0000 47.0826 0.0000 0.0000
# 5 0.0000 0.0000 0.0000 0.0000 47.0826 0.0000
# 6 0.0000 0.0000 0.0000 0.0000 0.0000 -25.9483
#
#
#
# Elastic Compliance Matrix: (Units=1/GPa)
#
#
# Indices 1 2 3 4 5 6 
#
# 1 -0.007491 0.011778 -0.001815 0.000000 0.000000 0.000000
# 2 0.011778 -0.007491 -0.001815 0.000000 0.000000 0.000000
# 3 -0.001815 -0.001815 0.007800 0.000000 0.000000 0.000000
# 4 0.000000 0.000000 0.000000 0.021239 0.000000 0.000000
# 5 0.000000 0.000000 0.000000 0.000000 0.021239 0.000000
# 6 0.000000 0.000000 0.000000 0.000000 0.000000 -0.038538
#
#
# Mechanical properties :
#
#
# Convention : Reuss Voigt Hill
#
# Bulk Modulus (GPa) = 109.67379 112.28921 110.98150
# Shear Modulus (GPa) = -303.02578 19.76847 -141.62865
#
# Velocity S-wave (km/s) = -11.43654 2.92107 -7.81863
# Velocity P-wave (km/s) = 11.27184 7.73589 5.79700
#
# Compressibility (1/GPa) = 0.00911795
#
# Stress axis : x y z
#
# Youngs Moduli (GPa) = -133.50064 -133.50064 128.20161
#
# Poissons Ratio (x) = 1.57244 0.23262
# Poissons Ratio (y) = 1.57244 0.23262
# Poissons Ratio (z) = -0.24224 -0.24224
#
# Static dielectric constant tensor:
#      x y z
#    x 1.869040 0.000000 0.000000 
#    y 0.000000 1.869040 0.000000 
#    z 0.000000 0.000000 1.427650 
# 
# From -- ./inp_files/10797.got.cif
#   From: 2010.05.17/outbox.cif.g08.bks.cpg/sg180_6_cif.got.tgz:10797.got - 2010.05.20 11:43:55.
