data_PCOD9583684
_publ_section_title
;
Structure prediction by ZEFSAII (Michael W. Deem and Ramdas Pophale) SiO2 
 PCOD9583684
Probable space group: P 62 2 2
;
_chemical_formula_sum "Si O2"
_cell_formula_units_Z 48
_cell_length_a 25.833514
_cell_length_b 25.833514
_cell_length_c 5.183454
_cell_angle_alpha 90.000000
_cell_angle_beta 90.000000
_cell_angle_gamma 120.000000
_cell_volume 2995.827828
_symmetry_space_group_name_H-M "P 62 2 2"
_symmetry_group_IT_number 180
_symmetry_cell_setting 'hexagonal'
loop_
_space_group_symop_operation_xyz
x,y,z
x-y,x,1/3+z
-y,x-y,2/3+z
-x,-y,z
-x+y,-x,1/3+z
y,-x+y,2/3+z
x-y,-y,-z
-x,-x+y,1/3-z
y,x,2/3-z
-y,-x,2/3-z
-x+y,y,-z
x,x-y,1/3-z
loop_
_atom_site_type_symbol
_atom_site_label
_atom_site_fract_x
_atom_site_fract_y
_atom_site_fract_z
Si Si1 0.660828 0.588568 0.341797
Si Si2 0.522866 0.595279 0.823296
Si Si3 0.960779 0.806042 0.914093
Si Si4 0.329102 0.129821 0.910764
O O1 0.632094 0.632094 0.333334
O O2 0.640365 0.550969 0.605131
O O3 0.731369 0.627576 0.302609
O O4 0.631054 0.542441 0.108184
O O5 0.556360 0.556360 0.833334
O O6 0.452757 0.547244 0.833334
O O7 0.923724 0.736738 0.830275
O O8 0.000000 0.841578 0.666667
O O9 0.912023 0.824046 0.000000
O O10 0.000000 0.814041 0.166667
O O11 0.349306 0.174653 0.666667
O O12 0.323746 0.161873 0.166667
#
# Coordination Sequence:
#
# PCOD9583684 Si02
#       4
#    12  12  12  12
#     4  10  19  30  48  69  95 132 166 196 231 278
#     4   9  17  29  45  68  96 127 162 194 223 259
#     4  11  22  37  56  76  97 124 161 207 257 313
#     4  11  22  35  50  73 102 132 166 204 247 294
#
# _framework density 16.022282000000001
#
# number of rings (size 3 to 8) (size 9 to 14) (size 15 to 20)
#    0.000    1.750    0.000    6.750    0.000    6.000 
#    0.000    0.000    0.000    3.750    0.000    0.000 
#    0.000    0.000    0.000   94.500    0.000    0.000 
#
# Total GULP energy -267926.083646 kJ/mol
# GULP energy per Si atom -5581.793409 kJ/mol
# Density = 1.598581 g / cm^3
# Si number density = 16.022282 Si / 1000 Ang^3
#
#
#
# Elastic Constant Matrix: (Units=GPa)
#
#
# Indices 1 2 3 4 5 6 
#
# 1 86.7449 60.4467 55.6065 0.0000 0.0000 0.0000
# 2 60.4467 86.7449 55.6065 0.0000 0.0000 0.0000
# 3 55.6065 55.6065 146.0588 0.0000 0.0000 0.0000
# 4 0.0000 0.0000 0.0000 22.5508 0.0000 0.0000
# 5 0.0000 0.0000 0.0000 0.0000 22.5508 0.0000
# 6 0.0000 0.0000 0.0000 0.0000 0.0000 13.1491
#
#
#
# Elastic Compliance Matrix: (Units=1/GPa)
#
#
# Indices 1 2 3 4 5 6 
#
# 1 0.023781 -0.014244 -0.003631 0.000000 0.000000 0.000000
# 2 -0.014244 0.023781 -0.003631 0.000000 0.000000 0.000000
# 3 -0.003631 -0.003631 0.009611 0.000000 0.000000 0.000000
# 4 0.000000 0.000000 0.000000 0.044344 0.000000 0.000000
# 5 0.000000 0.000000 0.000000 0.000000 0.044344 0.000000
# 6 0.000000 0.000000 0.000000 0.000000 0.000000 0.076051
#
#
# Mechanical properties :
#
#
# Convention : Reuss Voigt Hill
#
# Bulk Modulus (GPa) = 70.61155 73.65200 72.13178
# Shear Modulus (GPa) = 18.54281 21.50938 20.02609
#
# Velocity S-wave (km/s) = 3.40562 3.66794 3.53921
# Velocity P-wave (km/s) = 7.72210 8.00042 7.86249
#
# Compressibility (1/GPa) = 0.01416199
#
# Stress axis : x y z
#
# Youngs Moduli (GPa) = 42.04972 42.04972 104.04427
#
# Poissons Ratio (x) = 0.59896 0.37778
# Poissons Ratio (y) = 0.59896 0.37778
# Poissons Ratio (z) = 0.15268 0.15268
#
# Static dielectric constant tensor:
#      x y z
#    x 1.529820 0.000000 0.000000 
#    y 0.000000 1.529820 0.000000 
#    z 0.000000 0.000000 1.545930 
# 
# From -- ./inp_files/1103.got.cif
#   From: 2010.05.17/outbox.cif.g08.bks.cpg/sg180_1_cif.got.tgz:1103.got - 2010.05.20 11:43:55.
