data_PCOD9583284
_publ_section_title
;
Structure prediction by ZEFSAII (Michael W. Deem and Ramdas Pophale) SiO2 
 PCOD9583284
Probable space group: P 65 2 2
;
_chemical_formula_sum "Si O2"
_cell_formula_units_Z 36
_cell_length_a 8.730259
_cell_length_b 8.730259
_cell_length_c 22.351920
_cell_angle_alpha 90.000000
_cell_angle_beta 90.000000
_cell_angle_gamma 120.000000
_cell_volume 1475.365835
_symmetry_space_group_name_H-M "P 65 2 2"
_symmetry_group_IT_number 179
_symmetry_cell_setting 'hexagonal'
loop_
_space_group_symop_operation_xyz
x,y,z
x-y,x,5/6+z
-y,x-y,2/3+z
-x,-y,1/2+z
-x+y,-x,1/3+z
y,-x+y,1/6+z
x-y,-y,-z
-x,-x+y,1/3-z
y,x,2/3-z
-y,-x,1/6-z
-x+y,y,1/2-z
x,x-y,5/6-z
loop_
_atom_site_type_symbol
_atom_site_label
_atom_site_fract_x
_atom_site_fract_y
_atom_site_fract_z
Si Si1 0.995252 0.629000 0.234456
Si Si2 0.202303 0.171954 0.588384
Si Si3 0.366120 0.062335 0.362071
O O1 0.811430 0.622860 0.250000
O O2 0.025694 0.519484 0.285936
O O3 0.000000 0.563983 0.166667
O O4 0.153172 0.832826 0.231684
O O5 0.289684 0.116094 0.640264
O O6 0.347631 0.219928 0.536052
O O7 0.007809 0.992192 0.583334
O O8 0.366607 0.183304 0.416667
#
# Coordination Sequence:
#
# PCOD9583284 Si02
#       3
#    12  12  12
#     4  11  24  44  66  95 133 176 227 286 347 418
#     4  10  20  39  64  90 126 178 223 269 340 418
#     4  11  22  39  65  95 127 170 224 281 340 414
#
# _framework density 24.400725000000001
#
# number of rings (size 3 to 8) (size 9 to 14) (size 15 to 20)
#    0.000    1.333    0.000   10.000    0.000    5.333 
#    0.000    5.000    0.000    0.000    0.000    0.000 
#    0.000    0.000    0.000    0.000    0.000    0.000 
#
# Total GULP energy -200715.307615 kJ/mol
# GULP energy per Si atom -5575.425212 kJ/mol
# Density = 2.434519 g / cm^3
# Si number density = 24.400725 Si / 1000 Ang^3
#
#
#
# Elastic Constant Matrix: (Units=GPa)
#
#
# Indices 1 2 3 4 5 6 
#
# 1 94.5632 28.8902 -11.7497 0.0000 0.0000 0.0000
# 2 28.8902 94.5632 -11.7497 0.0000 0.0000 0.0000
# 3 -11.7497 -11.7497 60.7884 0.0000 0.0000 0.0000
# 4 0.0000 0.0000 0.0000 28.5752 0.0000 0.0000
# 5 0.0000 0.0000 0.0000 0.0000 28.5752 0.0000
# 6 0.0000 0.0000 0.0000 0.0000 0.0000 32.8365
#
#
#
# Elastic Compliance Matrix: (Units=1/GPa)
#
#
# Indices 1 2 3 4 5 6 
#
# 1 0.011818 -0.003409 0.001625 0.000000 0.000000 0.000000
# 2 -0.003409 0.011818 0.001625 0.000000 0.000000 0.000000
# 3 0.001625 0.001625 0.017079 0.000000 0.000000 0.000000
# 4 0.000000 0.000000 0.000000 0.034995 0.000000 0.000000
# 5 0.000000 0.000000 0.000000 0.000000 0.034995 0.000000
# 6 0.000000 0.000000 0.000000 0.000000 0.000000 0.030454
#
#
# Mechanical properties :
#
#
# Convention : Reuss Voigt Hill
#
# Bulk Modulus (GPa) = 24.75241 28.96627 26.85934
# Shear Modulus (GPa) = 32.27010 34.29899 33.28455
#
# Velocity S-wave (km/s) = 3.64057 3.75327 3.69735
# Velocity P-wave (km/s) = 5.27616 5.53892 5.40913
#
# Compressibility (1/GPa) = 0.04040010
#
# Stress axis : x y z
#
# Youngs Moduli (GPa) = 84.61463 84.61463 58.55180
#
# Poissons Ratio (x) = 0.28842 -0.09518
# Poissons Ratio (y) = 0.28842 -0.09518
# Poissons Ratio (z) = -0.13754 -0.13754
#
# Static dielectric constant tensor:
#      x y z
#    x 2.403240 0.000000 0.000000 
#    y 0.000000 2.403240 0.000000 
#    z 0.000000 0.000000 1.664520 
# 
# From -- ./inp_files/8572.got.cif
#   From: 2010.05.17/outbox.cif.g08.bks.cpg/sg179_5_cif.got.tgz:8572.got - 2010.05.20 11:37:33.
