data_PCOD9583256
_publ_section_title
;
Structure prediction by ZEFSAII (Michael W. Deem and Ramdas Pophale) SiO2 
 PCOD9583256
Probable space group: P 65 2 2
;
_chemical_formula_sum "Si O2"
_cell_formula_units_Z 66
_cell_length_a 15.316146
_cell_length_b 15.316146
_cell_length_c 17.296234
_cell_angle_alpha 90.000000
_cell_angle_beta 90.000000
_cell_angle_gamma 120.000000
_cell_volume 3513.833501
_symmetry_space_group_name_H-M "P 65 2 2"
_symmetry_group_IT_number 179
_symmetry_cell_setting 'hexagonal'
loop_
_space_group_symop_operation_xyz
x,y,z
x-y,x,5/6+z
-y,x-y,2/3+z
-x,-y,1/2+z
-x+y,-x,1/3+z
y,-x+y,1/6+z
x-y,-y,-z
-x,-x+y,1/3-z
y,x,2/3-z
-y,-x,1/6-z
-x+y,y,1/2-z
x,x-y,5/6-z
loop_
_atom_site_type_symbol
_atom_site_label
_atom_site_fract_x
_atom_site_fract_y
_atom_site_fract_z
Si Si1 0.098651 0.588166 0.573864
Si Si2 0.896926 0.289401 0.718735
Si Si3 0.229777 0.900119 0.655879
Si Si4 0.193816 0.334847 0.481859
Si Si5 0.249431 0.498862 0.750000
Si Si6 0.515930 0.142374 0.580748
O O1 0.116590 0.493141 0.571205
O O2 0.123592 0.677258 0.513384
O O3 0.149687 0.644472 0.654741
O O4 0.977422 0.531655 0.577681
O O5 0.879333 0.205082 0.781595
O O6 0.808008 0.239126 0.656419
O O7 0.000000 0.341232 0.666667
O O8 0.157205 0.842796 0.583334
O O9 0.169116 0.863615 0.734519
O O10 0.276751 0.020438 0.654220
O O11 0.278471 0.452026 0.468095
O O12 0.200676 0.567940 0.766838
#
# Coordination Sequence:
#
# PCOD9583256 Si02
#       6
#    12  12  12  12   6  12
#     4   9  17  37  62  83 123 167 189 251 313 366
#     4  11  23  40  61  89 134 177 211 249 320 384
#     4  11  22  41  69  91 126 158 214 279 327 378
#     4  11  25  38  63  98 119 164 216 262 324 391
#     4  10  20  36  64  82 134 174 198 258 302 366
#     4   9  17  35  57  89 117 156 206 239 303 364
#
# _framework density 18.782903999999998
#
# number of rings (size 3 to 8) (size 9 to 14) (size 15 to 20)
#    0.000    1.818    5.455    0.545    2.545    2.909 
#    0.000    3.636    0.000    4.364    0.000    0.000 
#    0.000    0.000    0.000    0.000    0.000    0.000 
#
# Total GULP energy -367664.168851 kJ/mol
# GULP energy per Si atom -5570.669225 kJ/mol
# Density = 1.874015 g / cm^3
# Si number density = 18.782904 Si / 1000 Ang^3
#
#
#
# Elastic Constant Matrix: (Units=GPa)
#
#
# Indices 1 2 3 4 5 6 
#
# 1 73.3440 41.5618 43.8128 0.0000 0.0000 0.0000
# 2 41.5618 73.3440 43.8128 0.0000 0.0000 0.0000
# 3 43.8128 43.8128 78.4473 0.0000 0.0000 0.0000
# 4 0.0000 0.0000 0.0000 17.6186 0.0000 0.0000
# 5 0.0000 0.0000 0.0000 0.0000 17.6186 0.0000
# 6 0.0000 0.0000 0.0000 0.0000 0.0000 15.8911
#
#
#
# Elastic Compliance Matrix: (Units=1/GPa)
#
#
# Indices 1 2 3 4 5 6 
#
# 1 0.023312 -0.008153 -0.008466 0.000000 0.000000 0.000000
# 2 -0.008153 0.023312 -0.008466 0.000000 0.000000 0.000000
# 3 -0.008466 -0.008466 0.022204 0.000000 0.000000 0.000000
# 4 0.000000 0.000000 0.000000 0.056758 0.000000 0.000000
# 5 0.000000 0.000000 0.000000 0.000000 0.056758 0.000000
# 6 0.000000 0.000000 0.000000 0.000000 0.000000 0.062928
#
#
# Mechanical properties :
#
#
# Convention : Reuss Voigt Hill
#
# Bulk Modulus (GPa) = 53.59886 53.72335 53.66111
# Shear Modulus (GPa) = 16.57485 16.62219 16.59852
#
# Velocity S-wave (km/s) = 2.97382 2.97806 2.97594
# Velocity P-wave (km/s) = 6.35526 6.36313 6.35920
#
# Compressibility (1/GPa) = 0.01865711
#
# Stress axis : x y z
#
# Youngs Moduli (GPa) = 42.89706 42.89706 45.03627
#
# Poissons Ratio (x) = 0.34972 0.38129
# Poissons Ratio (y) = 0.34972 0.38129
# Poissons Ratio (z) = 0.36318 0.36318
#
# Static dielectric constant tensor:
#      x y z
#    x 1.668060 0.000000 0.000000 
#    y 0.000000 1.668060 0.000000 
#    z 0.000000 0.000000 1.669410 
# 
# From -- ./inp_files/6702.got.cif
#   From: 2010.05.17/outbox.cif.g08.bks.cpg/sg179_4_cif.got.tgz:6702.got - 2010.05.20 11:37:33.
