data_PCOD9583156
_publ_section_title
;
Structure prediction by ZEFSAII (Michael W. Deem and Ramdas Pophale) SiO2 
 PCOD9583156
Probable space group: P 65 2 2
;
_chemical_formula_sum "Si O2"
_cell_formula_units_Z 90
_cell_length_a 19.822765
_cell_length_b 19.822765
_cell_length_c 14.655106
_cell_angle_alpha 90.000000
_cell_angle_beta 90.000000
_cell_angle_gamma 120.000000
_cell_volume 4987.099815
_symmetry_space_group_name_H-M "P 65 2 2"
_symmetry_group_IT_number 179
_symmetry_cell_setting 'hexagonal'
loop_
_space_group_symop_operation_xyz
x,y,z
x-y,x,5/6+z
-y,x-y,2/3+z
-x,-y,1/2+z
-x+y,-x,1/3+z
y,-x+y,1/6+z
x-y,-y,-z
-x,-x+y,1/3-z
y,x,2/3-z
-y,-x,1/6-z
-x+y,y,1/2-z
x,x-y,5/6-z
loop_
_atom_site_type_symbol
_atom_site_label
_atom_site_fract_x
_atom_site_fract_y
_atom_site_fract_z
Si Si1 0.801650 0.603299 0.250000
Si Si2 0.372412 0.516764 0.798554
Si Si3 0.552005 0.978846 0.316312
Si Si4 0.084314 0.612368 0.621910
Si Si5 0.607935 0.335570 0.184666
Si Si6 0.567179 0.814785 0.094148
Si Si7 0.614652 0.922772 0.772110
Si Si8 0.915746 0.262651 0.420833
O O1 0.719361 0.547413 0.303070
O O2 0.785710 0.654576 0.176166
O O3 0.416383 0.478211 0.745419
O O4 0.433320 0.563331 0.880117
O O5 0.376759 0.584160 0.732217
O O6 0.492597 0.985194 0.250000
O O7 0.573418 0.918905 0.267454
O O8 0.634666 0.058312 0.315248
O O9 0.135582 0.687003 0.686124
O O10 0.067208 0.638548 0.525723
O O11 0.000000 0.563870 0.666667
O O12 0.652525 0.305050 0.250000
O O13 0.515251 0.278028 0.187181
O O14 0.643975 0.356025 0.083334
O O15 0.595290 0.759222 0.052534
O O16 0.636526 0.868080 0.162786
O O17 0.704591 0.992179 0.761711
#
# Coordination Sequence:
#
# PCOD9583156 Si02
#       8
#     6  12  12  12  12  12  12  12
#     4  10  18  38  58  80 102 146 202 236 296 346
#     4  10  19  33  56  77  98 147 203 239 283 357
#     4   9  16  33  54  72 100 144 183 234 284 338
#     4  11  20  37  59  81 108 154 195 238 299 366
#     4  11  23  35  54  74 105 150 193 245 301 351
#     4  11  22  39  55  79 112 147 192 243 299 357
#     4  10  22  36  56  80 111 142 189 242 298 348
#     4   9  20  37  58  74 108 145 178 234 300 339
#
# _framework density 18.046561000000001
#
# number of rings (size 3 to 8) (size 9 to 14) (size 15 to 20)
#    0.800    1.067    2.000    4.800    0.000    2.667 
#    4.800    0.667    0.000    0.000    0.000    0.000 
#    0.000    0.000    0.000    4.800    0.000    0.000 
#
# Total GULP energy -501026.577082 kJ/mol
# GULP energy per Si atom -5566.961968 kJ/mol
# Density = 1.800549 g / cm^3
# Si number density = 18.046561 Si / 1000 Ang^3
#
#
#
# Elastic Constant Matrix: (Units=GPa)
#
#
# Indices 1 2 3 4 5 6 
#
# 1 62.1712 26.2487 21.7271 0.0000 0.0000 0.0000
# 2 26.2487 62.1712 21.7271 0.0000 0.0000 0.0000
# 3 21.7271 21.7271 50.9116 0.0000 0.0000 0.0000
# 4 0.0000 0.0000 0.0000 22.0190 0.0000 0.0000
# 5 0.0000 0.0000 0.0000 0.0000 22.0190 0.0000
# 6 0.0000 0.0000 0.0000 0.0000 0.0000 17.9612
#
#
#
# Elastic Compliance Matrix: (Units=1/GPa)
#
#
# Indices 1 2 3 4 5 6 
#
# 1 0.021074 -0.006763 -0.006107 0.000000 0.000000 0.000000
# 2 -0.006763 0.021074 -0.006107 0.000000 0.000000 0.000000
# 3 -0.006107 -0.006107 0.024855 0.000000 0.000000 0.000000
# 4 0.000000 0.000000 0.000000 0.045415 0.000000 0.000000
# 5 0.000000 0.000000 0.000000 0.000000 0.045415 0.000000
# 6 0.000000 0.000000 0.000000 0.000000 0.000000 0.055676
#
#
# Mechanical properties :
#
#
# Convention : Reuss Voigt Hill
#
# Bulk Modulus (GPa) = 34.42664 34.96221 34.69442
# Shear Modulus (GPa) = 19.14618 19.43658 19.29138
#
# Velocity S-wave (km/s) = 3.26073 3.28536 3.27307
# Velocity P-wave (km/s) = 5.77013 5.81437 5.79229
#
# Compressibility (1/GPa) = 0.02904727
#
# Stress axis : x y z
#
# Youngs Moduli (GPa) = 47.45076 47.45076 40.23377
#
# Poissons Ratio (x) = 0.32092 0.24573
# Poissons Ratio (y) = 0.32092 0.24573
# Poissons Ratio (z) = 0.28980 0.28980
#
# Static dielectric constant tensor:
#      x y z
#    x 1.654110 0.000000 0.000000 
#    y 0.000000 1.654110 0.000000 
#    z 0.000000 0.000000 1.666630 
# 
# From -- ./inp_files/6197.got.cif
#   From: 2010.05.17/outbox.cif.g08.bks.cpg/sg179_4_cif.got.tgz:6197.got - 2010.05.20 11:37:33.
