data_PCOD9583914
_publ_section_title
;
Structure prediction by ZEFSAII (Michael W. Deem and Ramdas Pophale) SiO2 
 PCOD9583914
Probable space group: P 62 2 2
;
_chemical_formula_sum "Si O2"
_cell_formula_units_Z 60
_cell_length_a 14.476244
_cell_length_b 14.476244
_cell_length_c 14.065869
_cell_angle_alpha 90.000000
_cell_angle_beta 90.000000
_cell_angle_gamma 120.000000
_cell_volume 2552.754141
_symmetry_space_group_name_H-M "P 62 2 2"
_symmetry_group_IT_number 180
_symmetry_cell_setting 'hexagonal'
loop_
_space_group_symop_operation_xyz
x,y,z
x-y,x,1/3+z
-y,x-y,2/3+z
-x,-y,z
-x+y,-x,1/3+z
y,-x+y,2/3+z
x-y,-y,-z
-x,-x+y,1/3-z
y,x,2/3-z
-y,-x,2/3-z
-x+y,y,-z
x,x-y,1/3-z
loop_
_atom_site_type_symbol
_atom_site_label
_atom_site_fract_x
_atom_site_fract_y
_atom_site_fract_z
Si Si1 0.142653 0.857348 0.833334
Si Si2 0.615112 0.812051 0.364857
Si Si3 0.556795 0.435402 0.698007
Si Si4 0.397198 0.887437 0.144956
Si Si5 0.347079 0.694157 0.500000
Si Si6 0.937234 0.100567 0.565368
O O1 0.194725 0.836893 0.923318
O O2 0.016141 0.813172 0.831562
O O3 0.525047 0.843938 0.362709
O O4 0.579234 0.704638 0.423032
O O5 0.728222 0.897933 0.408777
O O6 0.500000 0.500000 0.734502
O O7 0.508414 0.395311 0.593388
O O8 0.564439 0.345488 0.760332
O O9 0.382943 0.770171 0.123935
O O10 0.500000 0.000000 0.118021
O O11 0.000000 0.114938 0.666667
O O12 0.906595 0.000000 0.500000
#
# Coordination Sequence:
#
# PCOD9583914 Si02
#       6
#     6  12  12  12   6  12
#     4  10  23  43  70  97 161 180 244 312 356 454
#     4  10  24  44  69 111 139 192 245 304 380 439
#     4  10  22  41  72 102 146 189 245 307 370 450
#     4  10  23  44  72 103 140 194 247 302 376 443
#     4  10  21  43  68 103 145 196 242 308 366 432
#     4  10  23  44  75 107 151 201 249 307 378 455
#
# _framework density 23.504027000000001
#
# number of rings (size 3 to 8) (size 9 to 14) (size 15 to 20)
#    0.000    2.000    0.000    1.200    5.600    9.600 
#    7.200    4.000    4.400    0.000    0.000    0.000 
#    0.000    0.000    0.000    0.000    0.000    0.000 
#
# Total GULP energy -334883.073521 kJ/mol
# GULP energy per Si atom -5581.384559 kJ/mol
# Density = 2.345053 g / cm^3
# Si number density = 23.504027 Si / 1000 Ang^3
#
#
#
# Elastic Constant Matrix: (Units=GPa)
#
#
# Indices 1 2 3 4 5 6 
#
# 1 115.8101 71.2138 55.4346 0.0000 0.0000 0.0000
# 2 71.2138 115.8101 55.4346 0.0000 0.0000 0.0000
# 3 55.4346 55.4346 159.4660 0.0000 0.0000 0.0000
# 4 0.0000 0.0000 0.0000 21.3580 0.0000 0.0000
# 5 0.0000 0.0000 0.0000 0.0000 21.3580 0.0000
# 6 0.0000 0.0000 0.0000 0.0000 0.0000 22.2981
#
#
#
# Elastic Compliance Matrix: (Units=1/GPa)
#
#
# Indices 1 2 3 4 5 6 
#
# 1 0.014579 -0.007844 -0.002341 0.000000 0.000000 0.000000
# 2 -0.007844 0.014579 -0.002341 0.000000 0.000000 0.000000
# 3 -0.002341 -0.002341 0.007899 0.000000 0.000000 0.000000
# 4 0.000000 0.000000 0.000000 0.046821 0.000000 0.000000
# 5 0.000000 0.000000 0.000000 0.000000 0.046821 0.000000
# 6 0.000000 0.000000 0.000000 0.000000 0.000000 0.044847
#
#
# Mechanical properties :
#
#
# Convention : Reuss Voigt Hill
#
# Bulk Modulus (GPa) = 83.30930 83.91690 83.61310
# Shear Modulus (GPa) = 24.43793 26.93636 25.68714
#
# Velocity S-wave (km/s) = 3.22799 3.38898 3.30946
# Velocity P-wave (km/s) = 7.02957 7.14803 7.08905
#
# Compressibility (1/GPa) = 0.01200346
#
# Stress axis : x y z
#
# Youngs Moduli (GPa) = 68.59135 68.59135 126.60390
#
# Poissons Ratio (x) = 0.53805 0.29640
# Poissons Ratio (y) = 0.53805 0.29640
# Poissons Ratio (z) = 0.16059 0.16059
#
# Static dielectric constant tensor:
#      x y z
#    x 1.833520 0.000000 0.000000 
#    y 0.000000 1.833520 0.000000 
#    z 0.000000 0.000000 1.992560 
# 
# From -- ./inp_files/6132.got.cif
#   From: 2010.05.17/outbox.cif.g08.bks.cpg/sg180_4_cif.got.tgz:6132.got - 2010.05.20 11:43:55.
