data_PCOD9583715
_publ_section_title
;
Structure prediction by ZEFSAII (Michael W. Deem and Ramdas Pophale) SiO2 
 PCOD9583715
Probable space group: P 62 2 2
;
_chemical_formula_sum "Si O2"
_cell_formula_units_Z 48
_cell_length_a 17.446271
_cell_length_b 17.446271
_cell_length_c 10.298960
_cell_angle_alpha 90.000000
_cell_angle_beta 90.000000
_cell_angle_gamma 120.000000
_cell_volume 2714.746186
_symmetry_space_group_name_H-M "P 62 2 2"
_symmetry_group_IT_number 180
_symmetry_cell_setting 'hexagonal'
loop_
_space_group_symop_operation_xyz
x,y,z
x-y,x,1/3+z
-y,x-y,2/3+z
-x,-y,z
-x+y,-x,1/3+z
y,-x+y,2/3+z
x-y,-y,-z
-x,-x+y,1/3-z
y,x,2/3-z
-y,-x,2/3-z
-x+y,y,-z
x,x-y,1/3-z
loop_
_atom_site_type_symbol
_atom_site_label
_atom_site_fract_x
_atom_site_fract_y
_atom_site_fract_z
Si Si1 0.210215 0.347850 0.141750
Si Si2 0.592716 0.587035 0.177363
Si Si3 0.346780 0.231576 0.046165
Si Si4 0.005414 0.848796 0.425424
O O1 0.315665 0.407604 0.138481
O O2 0.172387 0.384349 0.251318
O O3 0.177008 0.244272 0.179479
O O4 0.171743 0.343486 0.000000
O O5 0.500000 0.500000 0.149884
O O6 0.600131 0.600131 0.333334
O O7 0.599745 0.669848 0.099676
O O8 0.342439 0.171220 0.166667
O O9 0.244235 0.200160 0.015003
O O10 0.068355 0.931646 0.333334
O O11 0.931543 0.863085 0.500000
#
# Coordination Sequence:
#
# PCOD9583715 Si02
#       4
#    12  12  12  12
#     4  10  21  38  57  83 116 154 186 232 291 343
#     4  10  20  36  63  92 109 139 198 244 279 348
#     4  10  19  36  59  78 111 152 183 228 290 334
#     4   9  20  34  50  71 112 152 202 232 265 306
#
# _framework density 17.68121
#
# number of rings (size 3 to 8) (size 9 to 14) (size 15 to 20)
#    0.000    2.250    2.500    0.000    0.000    9.000 
#    0.000   13.750    0.000    3.000    0.000    0.000 
#    0.000    0.000    0.000    0.000    0.000    0.000 
#
# Total GULP energy -267435.997020 kJ/mol
# GULP energy per Si atom -5571.583271 kJ/mol
# Density = 1.764097 g / cm^3
# Si number density = 17.681210 Si / 1000 Ang^3
#
#
#
# Elastic Constant Matrix: (Units=GPa)
#
#
# Indices 1 2 3 4 5 6 
#
# 1 97.3843 87.9577 47.7407 0.0000 0.0000 0.0000
# 2 87.9577 97.3843 47.7407 0.0000 0.0000 0.0000
# 3 47.7407 47.7407 75.9799 0.0000 0.0000 0.0000
# 4 0.0000 0.0000 0.0000 29.8998 0.0000 0.0000
# 5 0.0000 0.0000 0.0000 0.0000 29.8998 0.0000
# 6 0.0000 0.0000 0.0000 0.0000 0.0000 4.7133
#
#
#
# Elastic Compliance Matrix: (Units=1/GPa)
#
#
# Indices 1 2 3 4 5 6 
#
# 1 0.057030 -0.049052 -0.005013 0.000000 0.000000 0.000000
# 2 -0.049052 0.057030 -0.005013 0.000000 0.000000 0.000000
# 3 -0.005013 -0.005013 0.019461 0.000000 0.000000 0.000000
# 4 0.000000 0.000000 0.000000 0.033445 0.000000 0.000000
# 5 0.000000 0.000000 0.000000 0.000000 0.033445 0.000000
# 6 0.000000 0.000000 0.000000 0.000000 0.000000 0.212165
#
#
# Mechanical properties :
#
#
# Convention : Reuss Voigt Hill
#
# Bulk Modulus (GPa) = 65.08120 70.84742 67.96431
# Shear Modulus (GPa) = 9.33091 18.72321 14.02706
#
# Velocity S-wave (km/s) = 2.29973 3.25765 2.81967
# Velocity P-wave (km/s) = 6.62870 7.36926 7.00877
#
# Compressibility (1/GPa) = 0.01536542
#
# Stress axis : x y z
#
# Youngs Moduli (GPa) = 17.53458 17.53458 51.38563
#
# Poissons Ratio (x) = 0.86011 0.25758
# Poissons Ratio (y) = 0.86011 0.25758
# Poissons Ratio (z) = 0.08790 0.08790
#
# Static dielectric constant tensor:
#      x y z
#    x 1.630130 0.000000 0.000000 
#    y 0.000000 1.630130 0.000000 
#    z 0.000000 0.000000 1.722470 
# 
# From -- ./inp_files/2620.got.cif
#   From: 2010.05.17/outbox.cif.g08.bks.cpg/sg180_2_cif.got.tgz:2620.got - 2010.05.20 11:43:55.
