data_PCOD9583646
_publ_section_title
;
Structure prediction by ZEFSAII (Michael W. Deem and Ramdas Pophale) SiO2 
 PCOD9583646
Probable space group: P 62 2 2
;
_chemical_formula_sum "Si O2"
_cell_formula_units_Z 66
_cell_length_a 31.498704
_cell_length_b 31.498704
_cell_length_c 5.437278
_cell_angle_alpha 90.000000
_cell_angle_beta 90.000000
_cell_angle_gamma 120.000000
_cell_volume 4671.943056
_symmetry_space_group_name_H-M "P 62 2 2"
_symmetry_group_IT_number 180
_symmetry_cell_setting 'hexagonal'
loop_
_space_group_symop_operation_xyz
x,y,z
x-y,x,1/3+z
-y,x-y,2/3+z
-x,-y,z
-x+y,-x,1/3+z
y,-x+y,2/3+z
x-y,-y,-z
-x,-x+y,1/3-z
y,x,2/3-z
-y,-x,2/3-z
-x+y,y,-z
x,x-y,1/3-z
loop_
_atom_site_type_symbol
_atom_site_label
_atom_site_fract_x
_atom_site_fract_y
_atom_site_fract_z
Si Si1 0.115579 0.445589 0.180292
Si Si2 0.238704 0.716141 0.584923
Si Si3 0.056677 0.433786 0.672913
Si Si4 0.805753 0.588589 0.246768
Si Si5 0.826602 0.379482 0.330763
Si Si6 0.454523 0.545478 0.333334
O O1 0.082537 0.431693 0.422510
O O2 0.151251 0.423810 0.218774
O O3 0.084884 0.432767 0.922897
O O4 0.152524 0.503994 0.165115
O O5 0.269556 0.730445 0.333334
O O6 0.215084 0.752205 0.584233
O O7 0.200656 0.658794 0.551768
O O8 0.269743 0.730258 0.833334
O O9 0.060521 0.487072 0.657493
O O10 0.000000 0.392666 0.666667
O O11 0.806930 0.613859 0.500000
O O12 0.808225 0.616450 0.000000
O O13 0.872348 0.428253 0.439909
O O14 0.797294 0.398647 0.166667
#
# Coordination Sequence:
#
# PCOD9583646 Si02
#       6
#    12  12  12  12  12   6
#     4  11  21  35  51  75  94 118 150 174 212 257
#     4  10  21  32  51  72  95 103 130 168 220 244
#     4  11  23  37  50  68  99 126 151 179 206 245
#     4  10  18  30  50  73  95 104 132 178 220 243
#     4  11  21  34  52  77  94 116 144 179 209 264
#     4  10  23  32  52  70  96 116 158 172 212 238
#
# _framework density 14.126882999999999
#
# number of rings (size 3 to 8) (size 9 to 14) (size 15 to 20)
#    0.000    1.455    5.455    1.909   10.182    0.000 
#    0.000    1.818    0.000    0.000    2.364    0.000 
#    0.000    0.000    0.000    0.000    0.000    0.000 
#
# Total GULP energy -367886.118055 kJ/mol
# GULP energy per Si atom -5574.032092 kJ/mol
# Density = 1.409473 g / cm^3
# Si number density = 14.126883 Si / 1000 Ang^3
#
#
#
# Elastic Constant Matrix: (Units=GPa)
#
#
# Indices 1 2 3 4 5 6 
#
# 1 37.6654 16.7403 26.4504 0.0000 0.0000 0.0000
# 2 16.7403 37.6654 26.4504 0.0000 0.0000 0.0000
# 3 26.4504 26.4504 130.5714 0.0000 0.0000 0.0000
# 4 0.0000 0.0000 0.0000 17.3852 0.0000 0.0000
# 5 0.0000 0.0000 0.0000 0.0000 17.3852 0.0000
# 6 0.0000 0.0000 0.0000 0.0000 0.0000 10.4626
#
#
#
# Elastic Compliance Matrix: (Units=1/GPa)
#
#
# Indices 1 2 3 4 5 6 
#
# 1 0.035339 -0.012450 -0.004637 0.000000 0.000000 0.000000
# 2 -0.012450 0.035339 -0.004637 0.000000 0.000000 0.000000
# 3 -0.004637 -0.004637 0.009537 0.000000 0.000000 0.000000
# 4 0.000000 0.000000 0.000000 0.057520 0.000000 0.000000
# 5 0.000000 0.000000 0.000000 0.000000 0.057520 0.000000
# 6 0.000000 0.000000 0.000000 0.000000 0.000000 0.095579
#
#
# Mechanical properties :
#
#
# Convention : Reuss Voigt Hill
#
# Bulk Modulus (GPa) = 27.19745 38.35384 32.77565
# Shear Modulus (GPa) = 14.42843 18.13066 16.27955
#
# Velocity S-wave (km/s) = 3.19932 3.58636 3.39836
# Velocity P-wave (km/s) = 5.73947 6.66017 6.21689
#
# Compressibility (1/GPa) = 0.03676815
#
# Stress axis : x y z
#
# Youngs Moduli (GPa) = 28.29728 28.29728 104.85254
#
# Poissons Ratio (x) = 0.35231 0.48617
# Poissons Ratio (y) = 0.35231 0.48617
# Poissons Ratio (z) = 0.13121 0.13121
#
# Static dielectric constant tensor:
#      x y z
#    x 1.472630 0.000000 0.000000 
#    y 0.000000 1.472630 0.000000 
#    z 0.000000 0.000000 1.558540 
# 
# From -- ./inp_files/1619.got.cif
#   From: 2010.05.17/outbox.cif.g08.bks.cpg/sg180_1_cif.got.tgz:1619.got - 2010.05.20 11:43:55.
