data_PCOD9583683
_publ_section_title
;
Structure prediction by ZEFSAII (Michael W. Deem and Ramdas Pophale) SiO2 
 PCOD9583683
Probable space group: P 62 2 2
;
_chemical_formula_sum "Si O2"
_cell_formula_units_Z 48
_cell_length_a 10.907925
_cell_length_b 10.907925
_cell_length_c 29.392032
_cell_angle_alpha 90.000000
_cell_angle_beta 90.000000
_cell_angle_gamma 120.000000
_cell_volume 3028.618214
_symmetry_space_group_name_H-M "P 62 2 2"
_symmetry_group_IT_number 180
_symmetry_cell_setting 'hexagonal'
loop_
_space_group_symop_operation_xyz
x,y,z
x-y,x,1/3+z
-y,x-y,2/3+z
-x,-y,z
-x+y,-x,1/3+z
y,-x+y,2/3+z
x-y,-y,-z
-x,-x+y,1/3-z
y,x,2/3-z
-y,-x,2/3-z
-x+y,y,-z
x,x-y,1/3-z
loop_
_atom_site_type_symbol
_atom_site_label
_atom_site_fract_x
_atom_site_fract_y
_atom_site_fract_z
Si Si1 0.766453 0.383227 0.166667
Si Si2 0.658113 0.579024 0.129252
Si Si3 0.197996 0.302815 0.949305
Si Si4 0.000000 0.500000 0.088791
Si Si5 0.000000 0.000000 0.911202
Si Si6 0.116786 0.233572 0.500000
O O1 0.682434 0.467032 0.158139
O O2 0.867058 0.449633 0.210599
O O3 0.500000 0.500000 0.110790
O O4 0.771225 0.635494 0.088538
O O5 0.682473 0.715388 0.158129
O O6 0.365960 0.385858 0.939866
O O7 0.114562 0.134243 0.939741
O O8 0.164571 0.329142 0.000000
O O9 0.917506 0.050530 0.877291
#
# Coordination Sequence:
#
# PCOD9583683 Si02
#       6
#     6  12  12   6   6   6
#     4   9  17  32  50  70  93 121 158 196 242 289
#     4  10  19  30  47  71  98 124 155 194 242 284
#     4  10  20  31  48  68  97 127 159 194 231 285
#     4   9  18  32  50  70  92 124 158 196 240 280
#     4   9  17  32  50  72  91 119 160 200 246 271
#     4   9  17  30  50  72  95 117 152 208 244 279
#
# _framework density 15.848813
#
# number of rings (size 3 to 8) (size 9 to 14) (size 15 to 20)
#    0.000    2.500    0.000    2.625    1.750    6.000 
#    0.000    0.000    0.000    0.000    0.000    0.000 
#    0.000    0.000    0.000    0.000    0.000    0.000 
#
# Total GULP energy -267383.001930 kJ/mol
# GULP energy per Si atom -5570.479207 kJ/mol
# Density = 1.581274 g / cm^3
# Si number density = 15.848813 Si / 1000 Ang^3
#
#
#
# Elastic Constant Matrix: (Units=GPa)
#
#
# Indices 1 2 3 4 5 6 
#
# 1 91.2007 67.3911 29.0996 0.0000 0.0000 0.0000
# 2 67.3911 91.2007 29.0996 0.0000 0.0000 0.0000
# 3 29.0996 29.0996 69.2277 0.0000 0.0000 0.0000
# 4 0.0000 0.0000 0.0000 8.6560 0.0000 0.0000
# 5 0.0000 0.0000 0.0000 0.0000 8.6560 0.0000
# 6 0.0000 0.0000 0.0000 0.0000 0.0000 11.9048
#
#
#
# Elastic Compliance Matrix: (Units=1/GPa)
#
#
# Indices 1 2 3 4 5 6 
#
# 1 0.024728 -0.017272 -0.003134 0.000000 0.000000 0.000000
# 2 -0.017272 0.024728 -0.003134 0.000000 0.000000 0.000000
# 3 -0.003134 -0.003134 0.017080 0.000000 0.000000 0.000000
# 4 0.000000 0.000000 0.000000 0.115527 0.000000 0.000000
# 5 0.000000 0.000000 0.000000 0.000000 0.115527 0.000000
# 6 0.000000 0.000000 0.000000 0.000000 0.000000 0.084000
#
#
# Mechanical properties :
#
#
# Convention : Reuss Voigt Hill
#
# Bulk Modulus (GPa) = 51.40015 55.86778 53.63396
# Shear Modulus (GPa) = 11.49021 14.24595 12.86808
#
# Velocity S-wave (km/s) = 2.69548 3.00136 2.85252
# Velocity P-wave (km/s) = 6.49534 6.88025 6.69056
#
# Compressibility (1/GPa) = 0.01945520
#
# Stress axis : x y z
#
# Youngs Moduli (GPa) = 40.44048 40.44048 58.54881
#
# Poissons Ratio (x) = 0.69849 0.18349
# Poissons Ratio (y) = 0.69849 0.18349
# Poissons Ratio (z) = 0.12674 0.12674
#
# Static dielectric constant tensor:
#      x y z
#    x 1.527860 0.000000 0.000000 
#    y 0.000000 1.527860 0.000000 
#    z 0.000000 0.000000 1.492330 
# 
# From -- ./inp_files/11043.got.cif
#   From: 2010.05.17/outbox.cif.g08.bks.cpg/sg180_6_cif.got.tgz:11043.got - 2010.05.20 11:43:55.
