data_PCOD9583532
_publ_section_title
;
Structure prediction by ZEFSAII (Michael W. Deem and Ramdas Pophale) SiO2 
 PCOD9583532
Probable space group: P 65 2 2
;
_chemical_formula_sum "Si O2"
_cell_formula_units_Z 72
_cell_length_a 14.621854
_cell_length_b 14.621854
_cell_length_c 16.699731
_cell_angle_alpha 90.000000
_cell_angle_beta 90.000000
_cell_angle_gamma 120.000000
_cell_volume 3092.039217
_symmetry_space_group_name_H-M "P 65 2 2"
_symmetry_group_IT_number 179
_symmetry_cell_setting 'hexagonal'
loop_
_space_group_symop_operation_xyz
x,y,z
x-y,x,5/6+z
-y,x-y,2/3+z
-x,-y,1/2+z
-x+y,-x,1/3+z
y,-x+y,1/6+z
x-y,-y,-z
-x,-x+y,1/3-z
y,x,2/3-z
-y,-x,1/6-z
-x+y,y,1/2-z
x,x-y,5/6-z
loop_
_atom_site_type_symbol
_atom_site_label
_atom_site_fract_x
_atom_site_fract_y
_atom_site_fract_z
Si Si1 0.902679 0.506851 0.779481
Si Si2 0.119897 0.543713 0.735962
Si Si3 0.706064 0.284277 0.341968
Si Si4 0.333648 0.185064 0.115894
Si Si5 0.689632 0.941932 0.388119
Si Si6 0.233525 0.264657 0.243293
O O1 0.883637 0.465092 0.687308
O O2 0.812480 0.413557 0.830712
O O3 0.904216 0.616146 0.790640
O O4 0.023682 0.535027 0.790102
O O5 0.228160 0.631974 0.773435
O O6 0.100022 0.425073 0.737851
O O7 0.706034 0.353017 0.416667
O O8 0.776253 0.230883 0.361343
O O9 0.269568 0.198711 0.188774
O O10 0.290449 0.062895 0.095203
O O11 0.327343 0.249549 0.040269
O O12 0.732525 0.866263 0.416667
O O13 0.275959 0.275959 0.333334
O O14 0.108971 0.217942 0.250000
#
# Coordination Sequence:
#
# PCOD9583532 Si02
#       6
#    12  12  12  12  12  12
#     4  11  23  44  71 103 145 194 240 289 371 443
#     4  11  23  42  71 104 147 191 234 298 361 444
#     4  12  23  40  67 108 144 183 242 291 355 448
#     4  12  25  45  73 105 140 190 242 301 375 434
#     4  12  26  46  73 105 145 189 240 310 374 439
#     4  12  25  49  75 104 147 194 247 308 367 442
#
# _framework density 23.285602000000001
#
# number of rings (size 3 to 8) (size 9 to 14) (size 15 to 20)
#    0.000    0.333    6.667    3.000    2.333    0.000 
#    0.000    8.333    0.000    0.000    0.000    0.000 
#    0.000    0.000    0.000    0.000    0.000    0.000 
#
# Total GULP energy -403472.710937 kJ/mol
# GULP energy per Si atom -5603.787652 kJ/mol
# Density = 2.323260 g / cm^3
# Si number density = 23.285602 Si / 1000 Ang^3
#
#
#
# Elastic Constant Matrix: (Units=GPa)
#
#
# Indices 1 2 3 4 5 6 
#
# 1 103.4591 83.9875 15.3670 0.0000 0.0000 0.0000
# 2 83.9875 103.4591 15.3670 0.0000 0.0000 0.0000
# 3 15.3670 15.3670 68.4580 0.0000 0.0000 0.0000
# 4 0.0000 0.0000 0.0000 23.6909 0.0000 0.0000
# 5 0.0000 0.0000 0.0000 0.0000 23.6909 0.0000
# 6 0.0000 0.0000 0.0000 0.0000 0.0000 9.7358
#
#
#
# Elastic Compliance Matrix: (Units=1/GPa)
#
#
# Indices 1 2 3 4 5 6 
#
# 1 0.028448 -0.022909 -0.001243 0.000000 0.000000 0.000000
# 2 -0.022909 0.028448 -0.001243 0.000000 0.000000 0.000000
# 3 -0.001243 -0.001243 0.015166 0.000000 0.000000 0.000000
# 4 0.000000 0.000000 0.000000 0.042210 0.000000 0.000000
# 5 0.000000 0.000000 0.000000 0.000000 0.042210 0.000000
# 6 0.000000 0.000000 0.000000 0.000000 0.000000 0.102714
#
#
# Mechanical properties :
#
#
# Convention : Reuss Voigt Hill
#
# Bulk Modulus (GPa) = 47.01475 56.09100 51.55287
# Shear Modulus (GPa) = 15.76906 22.13383 18.95144
#
# Velocity S-wave (km/s) = 2.60513 3.08642 2.85593
# Velocity P-wave (km/s) = 5.41140 6.06975 5.75001
#
# Compressibility (1/GPa) = 0.02126992
#
# Stress axis : x y z
#
# Youngs Moduli (GPa) = 35.15217 35.15217 65.93839
#
# Poissons Ratio (x) = 0.80530 0.08198
# Poissons Ratio (y) = 0.80530 0.08198
# Poissons Ratio (z) = 0.04370 0.04370
#
# Static dielectric constant tensor:
#      x y z
#    x 1.860700 0.000000 0.000000 
#    y 0.000000 1.860700 0.000000 
#    z 0.000000 0.000000 1.909190 
# 
# From -- ./inp_files/6819.got.cif
#   From: 2010.05.17/outbox.cif.g08.bks.cpg/sg179_4_cif.got.tgz:6819.got - 2010.05.20 11:37:33.
