data_PCOD9583603
_publ_section_title
;
Structure prediction by ZEFSAII (Michael W. Deem and Ramdas Pophale) SiO2 
 PCOD9583603
Probable space group: P 65 2 2
;
_chemical_formula_sum "Si O2"
_cell_formula_units_Z 66
_cell_length_a 15.000000
_cell_length_b 15.000000
_cell_length_c 18.000000
_cell_angle_alpha 90.000000
_cell_angle_beta 90.000000
_cell_angle_gamma 120.000000
_cell_volume 3507.402885
_symmetry_space_group_name_H-M "P 65 2 2"
_symmetry_group_IT_number 179
_symmetry_cell_setting 'hexagonal'
loop_
_space_group_symop_operation_xyz
x,y,z
x-y,x,5/6+z
-y,x-y,2/3+z
-x,-y,1/2+z
-x+y,-x,1/3+z
y,-x+y,1/6+z
x-y,-y,-z
-x,-x+y,1/3-z
y,x,2/3-z
-y,-x,1/6-z
-x+y,y,1/2-z
x,x-y,5/6-z
loop_
_atom_site_type_symbol
_atom_site_label
_atom_site_fract_x
_atom_site_fract_y
_atom_site_fract_z
Si Si1 0.156336 0.334485 0.054406
Si Si2 0.548213 0.508232 0.706124
Si Si3 0.306592 0.966266 0.258746
Si Si4 0.565141 0.251797 0.177972
Si Si5 0.331161 0.000000 0.500000
Si Si6 0.665248 0.491568 0.190536
O O1 0.241456 0.300496 0.053431
O O2 0.221964 0.455661 0.037281
O O3 0.090338 0.317694 0.129127
O O4 0.075834 0.294556 0.987665
O O5 0.596308 0.580720 0.632429
O O6 0.548678 0.399224 0.701582
O O7 0.624903 0.579676 0.770781
O O8 0.436365 0.501626 0.718151
O O9 0.294141 0.873301 0.206628
O O10 0.622717 0.245434 0.250000
O O11 0.627548 0.375472 0.160301
O O12 0.755721 0.511441 0.250000
#
# Coordination Sequence:
#
# PCOD9583603 Si02
#       6
#    12  12  12  12   6  12
#     4  11  23  41  66  90 129 167 224 276 338 388
#     4  11  21  40  59  86 145 171 230 264 322 400
#     4  11  23  45  64  95 128 181 216 277 336 407
#     4  11  20  37  60  91 130 185 212 260 327 391
#     4  10  24  40  58 102 122 174 228 284 326 398
#     4  11  23  39  61  99 136 179 230 261 326 407
#
# _framework density 18.817342
#
# number of rings (size 3 to 8) (size 9 to 14) (size 15 to 20)
#    0.000    1.091    7.273    0.545    0.000    4.364 
#    3.273    0.000    0.000    0.000    9.455    0.000 
#    0.000    0.000    0.000    0.000    0.000    0.000 
#
# Total GULP energy -367805.886752 kJ/mol
# GULP energy per Si atom -5572.816466 kJ/mol
# Density = 1.877451 g / cm^3
# Si number density = 18.817342 Si / 1000 Ang^3
#
#
#
# Elastic Constant Matrix: (Units=GPa)
#
#
# Indices 1 2 3 4 5 6 
#
# 1 113.0482 33.5638 40.5708 0.0000 0.0000 0.0000
# 2 33.5638 113.0482 40.5708 0.0000 0.0000 0.0000
# 3 40.5708 40.5708 75.6929 0.0000 0.0000 0.0000
# 4 0.0000 0.0000 0.0000 24.5837 0.0000 0.0000
# 5 0.0000 0.0000 0.0000 0.0000 24.5837 0.0000
# 6 0.0000 0.0000 0.0000 0.0000 0.0000 39.7422
#
#
#
# Elastic Compliance Matrix: (Units=1/GPa)
#
#
# Indices 1 2 3 4 5 6 
#
# 1 0.011139 -0.001442 -0.005198 0.000000 0.000000 0.000000
# 2 -0.001442 0.011139 -0.005198 0.000000 0.000000 0.000000
# 3 -0.005198 -0.005198 0.018783 0.000000 0.000000 0.000000
# 4 0.000000 0.000000 0.000000 0.040677 0.000000 0.000000
# 5 0.000000 0.000000 0.000000 0.000000 0.040677 0.000000
# 6 0.000000 0.000000 0.000000 0.000000 0.000000 0.025162
#
#
# Mechanical properties :
#
#
# Convention : Reuss Voigt Hill
#
# Bulk Modulus (GPa) = 57.51412 59.02222 58.26817
# Shear Modulus (GPa) = 28.24082 30.25419 29.24751
#
# Velocity S-wave (km/s) = 3.87820 4.01407 3.94672
# Velocity P-wave (km/s) = 7.11932 7.27445 7.19730
#
# Compressibility (1/GPa) = 0.01738703
#
# Stress axis : x y z
#
# Youngs Moduli (GPa) = 89.77280 89.77280 53.23918
#
# Poissons Ratio (x) = 0.12944 0.27672
# Poissons Ratio (y) = 0.12944 0.27672
# Poissons Ratio (z) = 0.46661 0.46661
#
# Static dielectric constant tensor:
#      x y z
#    x 1.450440 0.000000 0.000000 
#    y 0.000000 1.450440 0.000000 
#    z 0.000000 0.000000 1.694290 
# 
# From -- ./inp_files/6719.got.cif
#   From: 2010.05.17/outbox.ucp.g08.bks.cvg/sg179_4_cif.got.tgz:6719.got - 2010.06.11 15:19:48.
