data_PCOD9583509
_publ_section_title
;
Structure prediction by ZEFSAII (Michael W. Deem and Ramdas Pophale) SiO2 
 PCOD9583509
Probable space group: P 65 2 2
;
_chemical_formula_sum "Si O2"
_cell_formula_units_Z 84
_cell_length_a 17.616257
_cell_length_b 17.616257
_cell_length_c 15.522025
_cell_angle_alpha 90.000000
_cell_angle_beta 90.000000
_cell_angle_gamma 120.000000
_cell_volume 4171.634834
_symmetry_space_group_name_H-M "P 65 2 2"
_symmetry_group_IT_number 179
_symmetry_cell_setting 'hexagonal'
loop_
_space_group_symop_operation_xyz
x,y,z
x-y,x,5/6+z
-y,x-y,2/3+z
-x,-y,1/2+z
-x+y,-x,1/3+z
y,-x+y,1/6+z
x-y,-y,-z
-x,-x+y,1/3-z
y,x,2/3-z
-y,-x,1/6-z
-x+y,y,1/2-z
x,x-y,5/6-z
loop_
_atom_site_type_symbol
_atom_site_label
_atom_site_fract_x
_atom_site_fract_y
_atom_site_fract_z
Si Si1 0.679549 0.926891 0.428467
Si Si2 0.493882 0.143682 0.212594
Si Si3 0.712241 0.011399 0.242172
Si Si4 0.353460 0.071757 0.568222
Si Si5 0.800170 0.904071 0.012890
Si Si6 0.531405 0.230059 0.512374
Si Si7 0.494927 0.390622 0.822276
O O1 0.704082 0.852041 0.416667
O O2 0.579743 0.887153 0.460209
O O3 0.736891 0.000000 0.500000
O O4 0.688430 0.969219 0.335635
O O5 0.551821 0.103641 0.250000
O O6 0.395684 0.096532 0.250796
O O7 0.542680 0.243924 0.246482
O O8 0.489424 0.127607 0.110720
O O9 0.811709 0.032196 0.220593
O O10 0.644654 0.952704 0.167183
O O11 0.263711 0.073708 0.564854
O O12 0.431057 0.158278 0.529030
O O13 0.344313 0.000000 0.500000
O O14 0.763330 0.881665 0.916667
O O15 0.890000 0.000000 0.000000
O O16 0.544952 0.272476 0.416667
O O17 0.580642 0.173779 0.519169
O O18 0.464488 0.464488 0.833334
#
# Coordination Sequence:
#
# PCOD9583509 Si02
#       7
#    12  12  12  12  12  12  12
#     4  11  27  49  76 101 135 193 252 301 345 426
#     4  12  25  42  69 102 143 192 240 293 377 437
#     4  12  24  42  72 101 140 184 238 292 355 433
#     4  11  22  35  64 102 134 169 225 279 354 434
#     4  11  21  38  62 102 139 169 216 286 360 434
#     4  12  24  41  70 102 145 189 232 302 377 437
#     4  11  25  50  68 101 149 190 249 310 351 438
#
# _framework density 20.13599
#
# number of rings (size 3 to 8) (size 9 to 14) (size 15 to 20)
#    0.000    0.571    8.571    1.714    6.000    0.571 
#    0.000    0.000    0.000    3.429    0.000    0.000 
#    0.000    0.000    0.000    0.000    0.000    0.000 
#
# Total GULP energy -467899.460479 kJ/mol
# GULP energy per Si atom -5570.231672 kJ/mol
# Density = 2.009016 g / cm^3
# Si number density = 20.135990 Si / 1000 Ang^3
#
#
#
# Elastic Constant Matrix: (Units=GPa)
#
#
# Indices 1 2 3 4 5 6 
#
# 1 55.3324 74.3385 37.3020 0.0000 0.0000 0.0000
# 2 74.3385 55.3324 37.3020 0.0000 0.0000 0.0000
# 3 37.3020 37.3020 154.7459 0.0000 0.0000 0.0000
# 4 0.0000 0.0000 0.0000 19.9202 0.0000 0.0000
# 5 0.0000 0.0000 0.0000 0.0000 19.9202 0.0000
# 6 0.0000 0.0000 0.0000 0.0000 0.0000 -9.5031
#
#
#
# Elastic Compliance Matrix: (Units=1/GPa)
#
#
# Indices 1 2 3 4 5 6 
#
# 1 -0.021831 0.030784 -0.002158 0.000000 0.000000 0.000000
# 2 0.030784 -0.021831 -0.002158 0.000000 0.000000 0.000000
# 3 -0.002158 -0.002158 0.007503 0.000000 0.000000 0.000000
# 4 0.000000 0.000000 0.000000 0.050200 0.000000 0.000000
# 5 0.000000 0.000000 0.000000 0.000000 0.050200 0.000000
# 6 0.000000 0.000000 0.000000 0.000000 0.000000 -0.105229
#
#
# Mechanical properties :
#
#
# Convention : Reuss Voigt Hill
#
# Bulk Modulus (GPa) = 59.60643 62.58842 61.09743
# Shear Modulus (GPa) = -56.60605 13.83201 -21.38702
#
# Velocity S-wave (km/s) = -5.30782 2.62378 -3.26257
# Velocity P-wave (km/s) = 2.81028 6.35053 4.02689
#
# Compressibility (1/GPa) = 0.01677671
#
# Stress axis : x y z
#
# Youngs Moduli (GPa) = -45.80744 -45.80744 133.28477
#
# Poissons Ratio (x) = 1.41014 0.28767
# Poissons Ratio (y) = 1.41014 0.28767
# Poissons Ratio (z) = -0.09887 -0.09887
#
# Static dielectric constant tensor:
#      x y z
#    x 1.786980 0.000000 0.000000 
#    y 0.000000 1.786980 0.000000 
#    z 0.000000 0.000000 1.694890 
# 
# From -- ./inp_files/6107.got.cif
#   From: 2010.05.17/outbox.cif.g08.bks.cpg/sg179_4_cif.got.tgz:6107.got - 2010.05.20 11:37:33.
