data_PCOD9583990
_publ_section_title
;
Structure prediction by ZEFSAII (Michael W. Deem and Ramdas Pophale) SiO2 
 PCOD9583990
Probable space group: P 62 2 2
;
_chemical_formula_sum "Si O2"
_cell_formula_units_Z 60
_cell_length_a 14.566545
_cell_length_b 14.566545
_cell_length_c 17.068081
_cell_angle_alpha 90.000000
_cell_angle_beta 90.000000
_cell_angle_gamma 120.000000
_cell_volume 3136.378272
_symmetry_space_group_name_H-M "P 62 2 2"
_symmetry_group_IT_number 180
_symmetry_cell_setting 'hexagonal'
loop_
_space_group_symop_operation_xyz
x,y,z
x-y,x,1/3+z
-y,x-y,2/3+z
-x,-y,z
-x+y,-x,1/3+z
y,-x+y,2/3+z
x-y,-y,-z
-x,-x+y,1/3-z
y,x,2/3-z
-y,-x,2/3-z
-x+y,y,-z
x,x-y,1/3-z
loop_
_atom_site_type_symbol
_atom_site_label
_atom_site_fract_x
_atom_site_fract_y
_atom_site_fract_z
Si Si1 0.614565 0.757493 0.905544
Si Si2 0.188920 0.594599 0.321858
Si Si3 0.739928 0.647388 0.943877
Si Si4 0.493434 0.856869 0.173002
Si Si5 0.583097 0.946225 0.916567
O O1 0.493611 0.669094 0.926278
O O2 0.690200 0.723108 0.948553
O O3 0.638522 0.764265 0.813415
O O4 0.629352 0.869305 0.929475
O O5 0.311129 0.688872 0.333334
O O6 0.123614 0.651532 0.298587
O O7 0.142246 0.537313 0.404187
O O8 0.838948 0.677896 0.000000
O O9 0.491652 0.745826 0.166667
O O10 0.411550 0.874699 0.118267
O O11 0.602961 0.959019 0.146031
O O12 0.591737 0.000000 0.000000
#
# Coordination Sequence:
#
# PCOD9583990 Si02
#       5
#    12  12  12  12  12
#     4  11  23  40  64  91 130 176 222 279 341 399
#     4  11  22  35  60  93 132 177 222 271 334 413
#     4  10  23  40  64  93 127 171 227 286 335 405
#     4  11  23  38  62  90 133 180 214 271 331 403
#     4  11  24  42  62  93 137 176 230 276 335 415
#
# _framework density 19.130345999999999
#
# number of rings (size 3 to 8) (size 9 to 14) (size 15 to 20)
#    0.000    1.200    0.000    7.200    8.400    3.200 
#    0.000    0.000    0.000    0.600    0.000    0.000 
#    0.000    0.000    0.000    0.000    0.000    0.000 
#
# Total GULP energy -335150.456687 kJ/mol
# GULP energy per Si atom -5585.840945 kJ/mol
# Density = 1.908680 g / cm^3
# Si number density = 19.130346 Si / 1000 Ang^3
#
#
#
# Elastic Constant Matrix: (Units=GPa)
#
#
# Indices 1 2 3 4 5 6 
#
# 1 117.8150 66.9633 61.1756 0.0000 0.0000 0.0000
# 2 66.9633 117.8150 61.1756 0.0000 0.0000 0.0000
# 3 61.1756 61.1756 64.5070 0.0000 0.0000 0.0000
# 4 0.0000 0.0000 0.0000 45.3381 0.0000 0.0000
# 5 0.0000 0.0000 0.0000 0.0000 45.3381 0.0000
# 6 0.0000 0.0000 0.0000 0.0000 0.0000 25.4259
#
#
#
# Elastic Compliance Matrix: (Units=1/GPa)
#
#
# Indices 1 2 3 4 5 6 
#
# 1 0.017106 -0.002559 -0.013795 0.000000 0.000000 0.000000
# 2 -0.002559 0.017106 -0.013795 0.000000 0.000000 0.000000
# 3 -0.013795 -0.013795 0.041667 0.000000 0.000000 0.000000
# 4 0.000000 0.000000 0.000000 0.022057 0.000000 0.000000
# 5 0.000000 0.000000 0.000000 0.000000 0.022057 0.000000
# 6 0.000000 0.000000 0.000000 0.000000 0.000000 0.039330
#
#
# Mechanical properties :
#
#
# Convention : Reuss Voigt Hill
#
# Bulk Modulus (GPa) = 64.18575 75.41844 69.80209
# Shear Modulus (GPa) = 22.24060 30.60858 26.42459
#
# Velocity S-wave (km/s) = 3.41337 4.00434 3.72061
# Velocity P-wave (km/s) = 7.01138 7.80312 7.41782
#
# Compressibility (1/GPa) = 0.01557978
#
# Stress axis : x y z
#
# Youngs Moduli (GPa) = 58.46020 58.46020 23.99955
#
# Poissons Ratio (x) = 0.14962 0.33108
# Poissons Ratio (y) = 0.14962 0.33108
# Poissons Ratio (z) = 0.80646 0.80646
#
# Static dielectric constant tensor:
#      x y z
#    x 1.671380 0.000000 0.000000 
#    y 0.000000 1.671380 0.000000 
#    z 0.000000 0.000000 1.693920 
# 
# From -- ./inp_files/6081.got.cif
#   From: 2010.05.17/outbox.cif.g08.bks.cpg/sg180_4_cif.got.tgz:6081.got - 2010.05.20 11:43:55.
