data_PCOD9583483
_publ_section_title
;
Structure prediction by ZEFSAII (Michael W. Deem and Ramdas Pophale) SiO2 
 PCOD9583483
Probable space group: P 65 2 2
;
_chemical_formula_sum "Si O2"
_cell_formula_units_Z 36
_cell_length_a 7.830579
_cell_length_b 7.830579
_cell_length_c 23.862330
_cell_angle_alpha 90.000000
_cell_angle_beta 90.000000
_cell_angle_gamma 120.000000
_cell_volume 1267.159342
_symmetry_space_group_name_H-M "P 65 2 2"
_symmetry_group_IT_number 179
_symmetry_cell_setting 'hexagonal'
loop_
_space_group_symop_operation_xyz
x,y,z
x-y,x,5/6+z
-y,x-y,2/3+z
-x,-y,1/2+z
-x+y,-x,1/3+z
y,-x+y,1/6+z
x-y,-y,-z
-x,-x+y,1/3-z
y,x,2/3-z
-y,-x,1/6-z
-x+y,y,1/2-z
x,x-y,5/6-z
loop_
_atom_site_type_symbol
_atom_site_label
_atom_site_fract_x
_atom_site_fract_y
_atom_site_fract_z
Si Si1 0.648872 0.580059 0.511042
Si Si2 0.886451 0.587447 0.114804
Si Si3 0.130729 0.772437 0.711837
O O1 0.506746 0.667249 0.528484
O O2 0.740598 0.648617 0.449697
O O3 0.515344 0.344586 0.519613
O O4 0.812845 0.673331 0.559644
O O5 0.000000 0.732596 0.166667
O O6 0.990178 0.453835 0.111697
O O7 0.000000 0.808492 0.666667
#
# Coordination Sequence:
#
# PCOD9583483 Si02
#       3
#    12  12  12
#     4  11  27  51  89 132 179 248 304 388 473 563
#     4  11  27  52  90 129 184 244 304 385 482 549
#     4  10  27  48  86 132 175 242 311 376 476 559
#
# _framework density 28.410001999999999
#
# number of rings (size 3 to 8) (size 9 to 14) (size 15 to 20)
#    0.000    1.333    0.000    1.000   28.000    5.333 
#    0.000    5.000    0.000    0.000    0.000    0.000 
#    0.000    0.000    0.000    0.000    0.000    0.000 
#
# Total GULP energy -201188.909743 kJ/mol
# GULP energy per Si atom -5588.580826 kJ/mol
# Density = 2.834534 g / cm^3
# Si number density = 28.410002 Si / 1000 Ang^3
#
#
#
# Elastic Constant Matrix: (Units=GPa)
#
#
# Indices 1 2 3 4 5 6 
#
# 1 131.6093 62.9941 63.3190 0.0000 0.0000 0.0000
# 2 62.9941 131.6093 63.3190 0.0000 0.0000 0.0000
# 3 63.3190 63.3190 362.0523 0.0000 0.0000 0.0000
# 4 0.0000 0.0000 0.0000 50.9957 0.0000 0.0000
# 5 0.0000 0.0000 0.0000 0.0000 50.9957 0.0000
# 6 0.0000 0.0000 0.0000 0.0000 0.0000 34.3076
#
#
#
# Elastic Compliance Matrix: (Units=1/GPa)
#
#
# Indices 1 2 3 4 5 6 
#
# 1 0.010186 -0.004388 -0.001014 0.000000 0.000000 0.000000
# 2 -0.004388 0.010186 -0.001014 0.000000 0.000000 0.000000
# 3 -0.001014 -0.001014 0.003117 0.000000 0.000000 0.000000
# 4 0.000000 0.000000 0.000000 0.019609 0.000000 0.000000
# 5 0.000000 0.000000 0.000000 0.000000 0.019609 0.000000
# 6 0.000000 0.000000 0.000000 0.000000 0.000000 0.029148
#
#
# Mechanical properties :
#
#
# Convention : Reuss Voigt Hill
#
# Bulk Modulus (GPa) = 93.83079 111.61499 102.72289
# Shear Modulus (GPa) = 46.19331 56.30240 51.24786
#
# Velocity S-wave (km/s) = 4.03668 4.45655 4.25180
# Velocity P-wave (km/s) = 7.40442 8.11502 7.76785
#
# Compressibility (1/GPa) = 0.01065748
#
# Stress axis : x y z
#
# Youngs Moduli (GPa) = 98.17099 98.17099 320.84753
#
# Poissons Ratio (x) = 0.43075 0.32537
# Poissons Ratio (y) = 0.43075 0.32537
# Poissons Ratio (z) = 0.09956 0.09956
#
# Static dielectric constant tensor:
#      x y z
#    x 2.337680 0.000000 0.000000 
#    y 0.000000 2.337680 0.000000 
#    z 0.000000 0.000000 2.326750 
# 
# From -- ./inp_files/8579.got.cif
#   From: 2010.05.17/outbox.cif.g08.bks.cpg/sg179_5_cif.got.tgz:8579.got - 2010.05.20 11:37:33.
