data_PCOD9583191
_publ_section_title
;
Structure prediction by ZEFSAII (Michael W. Deem and Ramdas Pophale) SiO2 
 PCOD9583191
Probable space group: P 65 2 2
;
_chemical_formula_sum "Si O2"
_cell_formula_units_Z 66
_cell_length_a 19.928964
_cell_length_b 19.928964
_cell_length_c 9.949756
_cell_angle_alpha 90.000000
_cell_angle_beta 90.000000
_cell_angle_gamma 120.000000
_cell_volume 3422.256110
_symmetry_space_group_name_H-M "P 65 2 2"
_symmetry_group_IT_number 179
_symmetry_cell_setting 'hexagonal'
loop_
_space_group_symop_operation_xyz
x,y,z
x-y,x,5/6+z
-y,x-y,2/3+z
-x,-y,1/2+z
-x+y,-x,1/3+z
y,-x+y,1/6+z
x-y,-y,-z
-x,-x+y,1/3-z
y,x,2/3-z
-y,-x,1/6-z
-x+y,y,1/2-z
x,x-y,5/6-z
loop_
_atom_site_type_symbol
_atom_site_label
_atom_site_fract_x
_atom_site_fract_y
_atom_site_fract_z
Si Si1 0.864946 0.870162 0.066148
Si Si2 0.926704 0.281104 0.267201
Si Si3 0.787620 0.298931 0.208445
Si Si4 0.283762 0.218075 0.946994
Si Si5 0.581612 0.260409 0.049687
Si Si6 0.135741 0.864260 0.583334
O O1 0.842157 0.802756 0.171152
O O2 0.882120 0.947683 0.139936
O O3 0.787239 0.840038 0.979358
O O4 0.870347 0.316895 0.260278
O O5 0.942794 0.270260 0.422183
O O6 0.876887 0.195270 0.200973
O O7 0.000000 0.326444 0.166667
O O8 0.789189 0.377490 0.157034
O O9 0.720907 0.252019 0.320618
O O10 0.758983 0.241018 0.083334
O O11 0.269594 0.269594 0.833334
O O12 0.316913 0.158457 0.916667
O O13 0.657050 0.342951 0.083334
O O14 0.543062 0.271531 0.916667
#
# Coordination Sequence:
#
# PCOD9583191 Si02
#       6
#    12  12  12  12  12   6
#     4  12  23  40  54  75 108 155 213 286 352 388
#     4  12  24  40  63  89 128 172 226 263 331 418
#     4  10  19  34  65  99 128 165 207 265 328 389
#     4  12  24  41  59  79 119 166 218 285 344 396
#     4   8  16  34  61  98 134 157 198 267 327 379
#     4  12  20  42  58  78 114 164 212 280 324 408
#
# _framework density 19.285523999999999
#
# number of rings (size 3 to 8) (size 9 to 14) (size 15 to 20)
#    0.000    1.091    6.364    2.182    0.000    0.727 
#    8.182    0.000    0.000    6.545    0.000    0.000 
#    0.000    0.000    0.000    0.000    0.000    0.000 
#
# Total GULP energy -367751.837087 kJ/mol
# GULP energy per Si atom -5571.997532 kJ/mol
# Density = 1.924163 g / cm^3
# Si number density = 19.285524 Si / 1000 Ang^3
#
#
#
# Elastic Constant Matrix: (Units=GPa)
#
#
# Indices 1 2 3 4 5 6 
#
# 1 65.6397 28.1289 47.4860 0.0000 0.0000 0.0000
# 2 28.1289 65.6397 47.4860 0.0000 0.0000 0.0000
# 3 47.4860 47.4860 156.1696 0.0000 0.0000 0.0000
# 4 0.0000 0.0000 0.0000 7.4070 0.0000 0.0000
# 5 0.0000 0.0000 0.0000 0.0000 7.4070 0.0000
# 6 0.0000 0.0000 0.0000 0.0000 0.0000 18.7554
#
#
#
# Elastic Compliance Matrix: (Units=1/GPa)
#
#
# Indices 1 2 3 4 5 6 
#
# 1 0.021035 -0.005624 -0.004686 0.000000 0.000000 0.000000
# 2 -0.005624 0.021035 -0.004686 0.000000 0.000000 0.000000
# 3 -0.004686 -0.004686 0.009253 0.000000 0.000000 0.000000
# 4 0.000000 0.000000 0.000000 0.135008 0.000000 0.000000
# 5 0.000000 0.000000 0.000000 0.000000 0.135008 0.000000
# 6 0.000000 0.000000 0.000000 0.000000 0.000000 0.053318
#
#
# Mechanical properties :
#
#
# Convention : Reuss Voigt Hill
#
# Bulk Modulus (GPa) = 46.88094 59.29451 53.08772
# Shear Modulus (GPa) = 12.14303 17.67040 14.90672
#
# Velocity S-wave (km/s) = 2.51200 3.03025 2.78321
# Velocity P-wave (km/s) = 5.72496 6.56167 6.15754
#
# Compressibility (1/GPa) = 0.02133063
#
# Stress axis : x y z
#
# Youngs Moduli (GPa) = 47.54037 47.54037 108.07422
#
# Poissons Ratio (x) = 0.26738 0.50642
# Poissons Ratio (y) = 0.26738 0.50642
# Poissons Ratio (z) = 0.22277 0.22277
#
# Static dielectric constant tensor:
#      x y z
#    x 1.720390 0.000000 0.000000 
#    y 0.000000 1.720390 0.000000 
#    z 0.000000 0.000000 1.763660 
# 
# From -- ./inp_files/3395.got.cif
#   From: 2010.05.17/outbox.cif.g08.bks.cpg/sg179_2_cif.got.tgz:3395.got - 2010.05.20 11:37:33.
