data_PCOD9583979
_publ_section_title
;
Structure prediction by ZEFSAII (Michael W. Deem and Ramdas Pophale) SiO2 
 PCOD9583979
Probable space group: P 62 2 2
;
_chemical_formula_sum "Si O2"
_cell_formula_units_Z 48
_cell_length_a 10.022600
_cell_length_b 10.022600
_cell_length_c 21.316405
_cell_angle_alpha 90.000000
_cell_angle_beta 90.000000
_cell_angle_gamma 120.000000
_cell_volume 1854.408421
_symmetry_space_group_name_H-M "P 62 2 2"
_symmetry_group_IT_number 180
_symmetry_cell_setting 'hexagonal'
loop_
_space_group_symop_operation_xyz
x,y,z
x-y,x,1/3+z
-y,x-y,2/3+z
-x,-y,z
-x+y,-x,1/3+z
y,-x+y,2/3+z
x-y,-y,-z
-x,-x+y,1/3-z
y,x,2/3-z
-y,-x,2/3-z
-x+y,y,-z
x,x-y,1/3-z
loop_
_atom_site_type_symbol
_atom_site_label
_atom_site_fract_x
_atom_site_fract_y
_atom_site_fract_z
Si Si1 0.446819 0.622090 0.559453
Si Si2 0.985473 0.303456 0.332494
Si Si3 0.791132 0.139218 0.539442
Si Si4 0.368251 0.128989 0.099635
O O1 0.500000 0.500000 0.532834
O O2 0.524886 0.648476 0.628192
O O3 0.531362 0.771702 0.516536
O O4 0.262317 0.550450 0.563748
O O5 0.879364 0.120637 0.333334
O O6 0.053003 0.374312 0.264793
O O7 0.123627 0.329392 0.376642
O O8 0.946570 0.274591 0.571721
O O9 0.792214 0.000000 0.500000
O O10 0.310612 0.155306 0.166667
#
# Coordination Sequence:
#
# PCOD9583979 Si02
#       4
#    12  12  12  12
#     4  10  22  46  69 101 168 204 245 327 432 472
#     4  11  22  41  72 116 151 191 267 346 404 466
#     4  12  23  43  82 119 142 203 283 334 398 497
#     4  11  22  43  73 102 160 208 248 322 429 471
#
# _framework density 25.884264999999999
#
# number of rings (size 3 to 8) (size 9 to 14) (size 15 to 20)
#    0.000    1.000    7.500    0.750    0.000    4.500 
#    0.000    8.750    0.000    0.000    0.000    0.000 
#    0.000    0.000    0.000    0.000    0.000    0.000 
#
# Total GULP energy -267263.762789 kJ/mol
# GULP energy per Si atom -5567.995058 kJ/mol
# Density = 2.582535 g / cm^3
# Si number density = 25.884265 Si / 1000 Ang^3
#
#
#
# Elastic Constant Matrix: (Units=GPa)
#
#
# Indices 1 2 3 4 5 6 
#
# 1 121.7807 64.8195 56.0379 0.0000 0.0000 0.0000
# 2 64.8195 121.7807 56.0379 0.0000 0.0000 0.0000
# 3 56.0379 56.0379 169.2182 0.0000 0.0000 0.0000
# 4 0.0000 0.0000 0.0000 31.2462 0.0000 0.0000
# 5 0.0000 0.0000 0.0000 0.0000 31.2462 0.0000
# 6 0.0000 0.0000 0.0000 0.0000 0.0000 28.4806
#
#
#
# Elastic Compliance Matrix: (Units=1/GPa)
#
#
# Indices 1 2 3 4 5 6 
#
# 1 0.012123 -0.005433 -0.002215 0.000000 0.000000 0.000000
# 2 -0.005433 0.012123 -0.002215 0.000000 0.000000 0.000000
# 3 -0.002215 -0.002215 0.007377 0.000000 0.000000 0.000000
# 4 0.000000 0.000000 0.000000 0.032004 0.000000 0.000000
# 5 0.000000 0.000000 0.000000 0.000000 0.032004 0.000000
# 6 0.000000 0.000000 0.000000 0.000000 0.000000 0.035112
#
#
# Mechanical properties :
#
#
# Convention : Reuss Voigt Hill
#
# Bulk Modulus (GPa) = 84.07089 85.17451 84.62270
# Shear Modulus (GPa) = 32.37628 33.92020 33.14824
#
# Velocity S-wave (km/s) = 3.54051 3.62395 3.58248
# Velocity P-wave (km/s) = 7.01881 7.10549 7.06228
#
# Compressibility (1/GPa) = 0.01189472
#
# Stress axis : x y z
#
# Youngs Moduli (GPa) = 82.48978 82.48978 135.56070
#
# Poissons Ratio (x) = 0.44818 0.30031
# Poissons Ratio (y) = 0.44818 0.30031
# Poissons Ratio (z) = 0.18274 0.18274
#
# Static dielectric constant tensor:
#      x y z
#    x 2.170550 0.000000 0.000000 
#    y 0.000000 2.170550 0.000000 
#    z 0.000000 0.000000 2.151290 
# 
# From -- ./inp_files/8619.got.cif
#   From: 2010.05.17/outbox.cif.g08.bks.cpg/sg180_5_cif.got.tgz:8619.got - 2010.05.20 11:43:55.
