data_PCOD9583924
_publ_section_title
;
Structure prediction by ZEFSAII (Michael W. Deem and Ramdas Pophale) SiO2 
 PCOD9583924
Probable space group: P 62 2 2
;
_chemical_formula_sum "Si O2"
_cell_formula_units_Z 45
_cell_length_a 11.424205
_cell_length_b 11.424205
_cell_length_c 17.915994
_cell_angle_alpha 90.000000
_cell_angle_beta 90.000000
_cell_angle_gamma 120.000000
_cell_volume 2024.992949
_symmetry_space_group_name_H-M "P 62 2 2"
_symmetry_group_IT_number 180
_symmetry_cell_setting 'hexagonal'
loop_
_space_group_symop_operation_xyz
x,y,z
x-y,x,1/3+z
-y,x-y,2/3+z
-x,-y,z
-x+y,-x,1/3+z
y,-x+y,2/3+z
x-y,-y,-z
-x,-x+y,1/3-z
y,x,2/3-z
-y,-x,2/3-z
-x+y,y,-z
x,x-y,1/3-z
loop_
_atom_site_type_symbol
_atom_site_label
_atom_site_fract_x
_atom_site_fract_y
_atom_site_fract_z
Si Si1 0.000000 0.000000 0.333334
Si Si2 0.755936 0.738124 0.743645
Si Si3 0.759429 0.518857 0.000000
Si Si4 0.688862 0.546883 0.292558
Si Si5 0.156506 0.571319 0.469914
O O1 0.127749 0.022894 0.383891
O O2 0.743081 0.743081 0.833334
O O3 0.623575 0.724295 0.706207
O O4 0.766237 0.613590 0.709727
O O5 0.765302 0.432671 0.931748
O O6 0.649280 0.649280 0.333334
O O7 0.591007 0.408994 0.333334
O O8 0.646575 0.511300 0.206924
O O9 0.256608 0.513215 0.500000
O O10 0.000000 0.500000 0.441752
#
# Coordination Sequence:
#
# PCOD9583924 Si02
#       5
#     3  12   6  12  12
#     4  10  22  36  70 110 158 224 264 330 400 496
#     4  11  22  44  70 111 163 204 270 338 413 478
#     4  11  28  45  71 112 155 204 254 326 421 474
#     4  11  23  45  76 111 150 207 266 334 399 483
#     4  12  29  50  78 113 152 204 266 331 407 498
#
# _framework density 22.222301000000002
#
# number of rings (size 3 to 8) (size 9 to 14) (size 15 to 20)
#    0.000    0.800    6.667    0.400    5.600    0.000 
#    0.000    1.333    0.000    0.000    0.000    0.000 
#    0.000    0.000    0.000    0.000    0.000    0.000 
#
# Total GULP energy -250703.574018 kJ/mol
# GULP energy per Si atom -5571.190534 kJ/mol
# Density = 2.217172 g / cm^3
# Si number density = 22.222301 Si / 1000 Ang^3
#
#
#
# Elastic Constant Matrix: (Units=GPa)
#
#
# Indices 1 2 3 4 5 6 
#
# 1 70.2768 71.2998 31.5200 0.0000 0.0000 0.0000
# 2 71.2998 70.2768 31.5200 0.0000 0.0000 0.0000
# 3 31.5200 31.5200 157.8743 0.0000 0.0000 0.0000
# 4 0.0000 0.0000 0.0000 38.5452 0.0000 0.0000
# 5 0.0000 0.0000 0.0000 0.0000 38.5452 0.0000
# 6 0.0000 0.0000 0.0000 0.0000 0.0000 -0.5115
#
#
#
# Elastic Compliance Matrix: (Units=1/GPa)
#
#
# Indices 1 2 3 4 5 6 
#
# 1 -0.484914 0.492666 -0.001548 0.000000 0.000000 0.000000
# 2 0.492666 -0.484914 -0.001548 0.000000 0.000000 0.000000
# 3 -0.001548 -0.001548 0.006952 0.000000 0.000000 0.000000
# 4 0.000000 0.000000 0.000000 0.025944 0.000000 0.000000
# 5 0.000000 0.000000 0.000000 0.000000 0.025944 0.000000
# 6 0.000000 0.000000 0.000000 0.000000 0.000000 -1.955160
#
#
# Mechanical properties :
#
#
# Convention : Reuss Voigt Hill
#
# Bulk Modulus (GPa) = 61.47798 63.01194 62.24496
# Shear Modulus (GPa) = -1.30213 26.25498 12.47643
#
# Velocity S-wave (km/s) = -0.76631 3.44098 2.37204
# Velocity P-wave (km/s) = 5.19058 6.64861 5.96431
#
# Compressibility (1/GPa) = 0.01626599
#
# Stress axis : x y z
#
# Youngs Moduli (GPa) = -2.06222 -2.06222 143.83935
#
# Poissons Ratio (x) = 1.01599 0.22264
# Poissons Ratio (y) = 1.01599 0.22264
# Poissons Ratio (z) = -0.00319 -0.00319
#
# Static dielectric constant tensor:
#      x y z
#    x 1.762790 0.000000 0.000000 
#    y 0.000000 1.762790 0.000000 
#    z 0.000000 0.000000 1.839670 
# 
# From -- ./inp_files/7392.got.cif
#   From: 2010.05.17/outbox.cif.g08.bks.cpg/sg180_4_cif.got.tgz:7392.got - 2010.05.20 11:43:55.
