data_PCOD9583188
_publ_section_title
;
Structure prediction by ZEFSAII (Michael W. Deem and Ramdas Pophale) SiO2 
 PCOD9583188
Probable space group: P 65 2 2
;
_chemical_formula_sum "Si O2"
_cell_formula_units_Z 60
_cell_length_a 16.609766
_cell_length_b 16.609766
_cell_length_c 12.791214
_cell_angle_alpha 90.000000
_cell_angle_beta 90.000000
_cell_angle_gamma 120.000000
_cell_volume 3056.113116
_symmetry_space_group_name_H-M "P 65 2 2"
_symmetry_group_IT_number 179
_symmetry_cell_setting 'hexagonal'
loop_
_space_group_symop_operation_xyz
x,y,z
x-y,x,5/6+z
-y,x-y,2/3+z
-x,-y,1/2+z
-x+y,-x,1/3+z
y,-x+y,1/6+z
x-y,-y,-z
-x,-x+y,1/3-z
y,x,2/3-z
-y,-x,1/6-z
-x+y,y,1/2-z
x,x-y,5/6-z
loop_
_atom_site_type_symbol
_atom_site_label
_atom_site_fract_x
_atom_site_fract_y
_atom_site_fract_z
Si Si1 0.003890 0.865488 0.496704
Si Si2 0.663943 0.244919 0.475099
Si Si3 0.322135 0.994610 0.662832
Si Si4 0.517979 0.846523 0.719301
Si Si5 0.856281 0.310295 0.185819
O O1 0.921299 0.874489 0.554652
O O2 0.982960 0.760502 0.488736
O O3 0.085613 0.914388 0.583334
O O4 0.717563 0.282438 0.583334
O O5 0.666312 0.333156 0.416667
O O6 0.700815 0.197375 0.394773
O O7 0.557137 0.166039 0.494043
O O8 0.414060 0.085099 0.624630
O O9 0.338434 0.945981 0.762199
O O10 0.298806 0.919910 0.568105
O O11 0.423536 0.847072 0.750000
O O12 0.531914 0.776839 0.794288
#
# Coordination Sequence:
#
# PCOD9583188 Si02
#       5
#    12  12  12  12  12
#     4  10  19  34  58  95 135 157 201 256 321 384
#     4  12  21  37  58  88 117 168 227 279 314 378
#     4  11  22  35  59  93 131 165 208 275 334 389
#     4  12  21  37  60  84 127 168 218 271 323 380
#     4  11  20  35  57  86 123 168 218 269 333 376
#
# _framework density 19.632781999999999
#
# number of rings (size 3 to 8) (size 9 to 14) (size 15 to 20)
#    0.000    0.800    6.000    5.400    0.000    0.000 
#    3.600    0.000    0.000    0.000    0.000   39.200 
#    0.000    0.000    0.000    0.000    0.000    0.000 
#
# Total GULP energy -334703.841084 kJ/mol
# GULP energy per Si atom -5578.397351 kJ/mol
# Density = 1.958810 g / cm^3
# Si number density = 19.632782 Si / 1000 Ang^3
#
#
#
# Elastic Constant Matrix: (Units=GPa)
#
#
# Indices 1 2 3 4 5 6 
#
# 1 65.7173 31.4002 45.1238 0.0000 0.0000 0.0000
# 2 31.4002 65.7173 45.1238 0.0000 0.0000 0.0000
# 3 45.1238 45.1238 109.4040 0.0000 0.0000 0.0000
# 4 0.0000 0.0000 0.0000 30.3409 0.0000 0.0000
# 5 0.0000 0.0000 0.0000 0.0000 30.3409 0.0000
# 6 0.0000 0.0000 0.0000 0.0000 0.0000 17.1586
#
#
#
# Elastic Compliance Matrix: (Units=1/GPa)
#
#
# Indices 1 2 3 4 5 6 
#
# 1 0.022918 -0.006222 -0.006886 0.000000 0.000000 0.000000
# 2 -0.006222 0.022918 -0.006886 0.000000 0.000000 0.000000
# 3 -0.006886 -0.006886 0.014821 0.000000 0.000000 0.000000
# 4 0.000000 0.000000 0.000000 0.032959 0.000000 0.000000
# 5 0.000000 0.000000 0.000000 0.000000 0.032959 0.000000
# 6 0.000000 0.000000 0.000000 0.000000 0.000000 0.058280
#
#
# Mechanical properties :
#
#
# Convention : Reuss Voigt Hill
#
# Bulk Modulus (GPa) = 48.38450 53.79267 51.08858
# Shear Modulus (GPa) = 21.57659 23.51413 22.54536
#
# Velocity S-wave (km/s) = 3.31873 3.46453 3.39241
# Velocity P-wave (km/s) = 6.27563 6.59264 6.43608
#
# Compressibility (1/GPa) = 0.02066778
#
# Stress axis : x y z
#
# Youngs Moduli (GPa) = 43.63395 43.63395 67.47225
#
# Poissons Ratio (x) = 0.27149 0.46463
# Poissons Ratio (y) = 0.27149 0.46463
# Poissons Ratio (z) = 0.30047 0.30047
#
# Static dielectric constant tensor:
#      x y z
#    x 1.714090 0.000000 0.000000 
#    y 0.000000 1.714090 0.000000 
#    z 0.000000 0.000000 1.678280 
# 
# From -- ./inp_files/5807.got.cif
#   From: 2010.05.17/outbox.cif.g08.bks.cpg/sg179_3_cif.got.tgz:5807.got - 2010.05.20 11:37:33.
