data_PCOD9583501
_publ_section_title
;
Structure prediction by ZEFSAII (Michael W. Deem and Ramdas Pophale) SiO2 
 PCOD9583501
Probable space group: P 65 2 2
;
_chemical_formula_sum "Si O2"
_cell_formula_units_Z 72
_cell_length_a 14.412411
_cell_length_b 14.412411
_cell_length_c 19.344773
_cell_angle_alpha 90.000000
_cell_angle_beta 90.000000
_cell_angle_gamma 120.000000
_cell_volume 3479.906269
_symmetry_space_group_name_H-M "P 65 2 2"
_symmetry_group_IT_number 179
_symmetry_cell_setting 'hexagonal'
loop_
_space_group_symop_operation_xyz
x,y,z
x-y,x,5/6+z
-y,x-y,2/3+z
-x,-y,1/2+z
-x+y,-x,1/3+z
y,-x+y,1/6+z
x-y,-y,-z
-x,-x+y,1/3-z
y,x,2/3-z
-y,-x,1/6-z
-x+y,y,1/2-z
x,x-y,5/6-z
loop_
_atom_site_type_symbol
_atom_site_label
_atom_site_fract_x
_atom_site_fract_y
_atom_site_fract_z
Si Si1 0.826300 0.320579 0.021854
Si Si2 0.825286 0.643261 0.048274
Si Si3 0.411359 0.671490 0.660389
Si Si4 0.901987 0.254173 0.639340
Si Si5 0.517025 0.964602 0.373298
Si Si6 0.339135 0.298028 0.598236
O O1 0.765503 0.234498 0.083334
O O2 0.934632 0.430720 0.048027
O O3 0.735036 0.346688 0.993093
O O4 0.871217 0.281010 0.959125
O O5 0.836941 0.602515 0.123798
O O6 0.756783 0.699971 0.058664
O O7 0.762661 0.533722 0.006909
O O8 0.925564 0.705913 0.997856
O O9 0.374739 0.625262 0.583334
O O10 0.418465 0.577951 0.701696
O O11 0.828664 0.171337 0.583334
O O12 0.955683 0.369020 0.601873
O O13 0.000000 0.241121 0.666667
O O14 0.586177 0.994646 0.302418
#
# Coordination Sequence:
#
# PCOD9583501 Si02
#       6
#    12  12  12  12  12  12
#     4  11  25  44  66 103 147 197 251 284 350 442
#     4  12  23  42  66  97 135 183 232 296 362 431
#     4  11  20  38  61  94 135 193 229 282 344 409
#     4  12  22  40  64 103 139 175 231 293 361 431
#     4  12  22  42  67  93 154 179 240 295 354 418
#     4  12  24  46  68  97 141 192 241 296 361 433
#
# _framework density 20.690211999999999
#
# number of rings (size 3 to 8) (size 9 to 14) (size 15 to 20)
#    0.000    0.333    8.333    0.500    0.000    1.333 
#   15.000    0.833    0.000    0.000    0.000   11.667 
#    0.000    0.000    0.000    0.000    0.000    0.000 
#
# Total GULP energy -401243.281478 kJ/mol
# GULP energy per Si atom -5572.823354 kJ/mol
# Density = 2.064312 g / cm^3
# Si number density = 20.690212 Si / 1000 Ang^3
#
#
#
# Elastic Constant Matrix: (Units=GPa)
#
#
# Indices 1 2 3 4 5 6 
#
# 1 99.3729 24.5473 61.9315 0.0000 0.0000 0.0000
# 2 24.5473 99.3729 61.9315 0.0000 0.0000 0.0000
# 3 61.9315 61.9315 147.9273 0.0000 0.0000 0.0000
# 4 0.0000 0.0000 0.0000 26.4890 0.0000 0.0000
# 5 0.0000 0.0000 0.0000 0.0000 26.4890 0.0000
# 6 0.0000 0.0000 0.0000 0.0000 0.0000 37.4128
#
#
#
# Elastic Compliance Matrix: (Units=1/GPa)
#
#
# Indices 1 2 3 4 5 6 
#
# 1 0.013621 0.000256 -0.005810 0.000000 0.000000 0.000000
# 2 0.000256 0.013621 -0.005810 0.000000 0.000000 0.000000
# 3 -0.005810 -0.005810 0.011625 0.000000 0.000000 0.000000
# 4 0.000000 0.000000 0.000000 0.037752 0.000000 0.000000
# 5 0.000000 0.000000 0.000000 0.000000 0.037752 0.000000
# 6 0.000000 0.000000 0.000000 0.000000 0.000000 0.026729
#
#
# Mechanical properties :
#
#
# Convention : Reuss Voigt Hill
#
# Bulk Modulus (GPa) = 61.96006 71.49929 66.72968
# Shear Modulus (GPa) = 29.55017 31.29565 30.42291
#
# Velocity S-wave (km/s) = 3.78328 3.89341 3.83874
# Velocity P-wave (km/s) = 7.00684 7.40565 7.20900
#
# Compressibility (1/GPa) = 0.01613943
#
# Stress axis : x y z
#
# Youngs Moduli (GPa) = 73.41851 73.41851 86.02428
#
# Poissons Ratio (x) = -0.01880 0.49977
# Poissons Ratio (y) = -0.01880 0.49977
# Poissons Ratio (z) = 0.42653 0.42653
#
# Static dielectric constant tensor:
#      x y z
#    x 2.032360 0.000000 0.000000 
#    y 0.000000 2.032360 0.000000 
#    z 0.000000 0.000000 1.728360 
# 
# From -- ./inp_files/6811.got.cif
#   From: 2010.05.17/outbox.cif.g08.bks.cpg/sg179_4_cif.got.tgz:6811.got - 2010.05.20 11:37:33.
