data_PCOD9583031
_publ_section_title
;
Structure prediction by ZEFSAII (Michael W. Deem and Ramdas Pophale) SiO2 
 PCOD9583031
Probable space group: P 61 2 2
;
_chemical_formula_sum "Si O2"
_cell_formula_units_Z 36
_cell_length_a 6.942573
_cell_length_b 6.942573
_cell_length_c 29.287561
_cell_angle_alpha 90.000000
_cell_angle_beta 90.000000
_cell_angle_gamma 120.000000
_cell_volume 1222.516552
_symmetry_space_group_name_H-M "P 61 2 2"
_symmetry_group_IT_number 178
_symmetry_cell_setting 'hexagonal'
loop_
_space_group_symop_operation_xyz
x,y,z
x-y,x,1/6+z
-y,x-y,1/3+z
-x,-y,1/2+z
-x+y,-x,2/3+z
y,-x+y,5/6+z
x-y,-y,-z
-x,-x+y,2/3-z
y,x,1/3-z
-y,-x,5/6-z
-x+y,y,1/2-z
x,x-y,1/6-z
loop_
_atom_site_type_symbol
_atom_site_label
_atom_site_fract_x
_atom_site_fract_y
_atom_site_fract_z
Si Si1 0.803871 0.401936 0.083334
Si Si2 0.375350 0.411229 0.107025
Si Si3 0.000000 0.981746 0.833334
Si Si4 0.492999 0.637332 0.011892
O O1 0.632796 0.470454 0.103232
O O2 0.924851 0.427240 0.130642
O O3 0.179841 0.175780 0.125443
O O4 0.371009 0.463673 0.053418
O O5 0.393398 0.598563 0.141153
O O6 0.203961 0.236303 0.822760
#
# Coordination Sequence:
#
# PCOD9583031 Si02
#       4
#     6  12   6  12
#     4  12  22  54  76 130 182 234 304 386 456 572
#     4  11  26  51  88 135 182 237 320 386 480 564
#     4  12  22  56  92 132 186 262 306 390 498 552
#     4  11  26  53  86 136 191 239 319 397 467 593
#
# _framework density 29.447451000000001
#
# number of rings (size 3 to 8) (size 9 to 14) (size 15 to 20)
#    0.000    0.667    6.667    0.000    0.000    5.333 
#    6.000    5.000    0.000    0.000    0.000    0.000 
#    0.000    0.000    0.000    0.000    0.000    0.000 
#
# Total GULP energy -200556.447605 kJ/mol
# GULP energy per Si atom -5571.012433 kJ/mol
# Density = 2.938043 g / cm^3
# Si number density = 29.447451 Si / 1000 Ang^3
#
#
#
# Elastic Constant Matrix: (Units=GPa)
#
#
# Indices 1 2 3 4 5 6 
#
# 1 190.9285 81.5404 75.2053 0.0000 0.0000 0.0000
# 2 81.5404 190.9285 75.2053 0.0000 0.0000 0.0000
# 3 75.2053 75.2053 385.8090 0.0000 0.0000 0.0000
# 4 0.0000 0.0000 0.0000 79.9680 0.0000 0.0000
# 5 0.0000 0.0000 0.0000 0.0000 79.9680 0.0000
# 6 0.0000 0.0000 0.0000 0.0000 0.0000 54.6941
#
#
#
# Elastic Compliance Matrix: (Units=1/GPa)
#
#
# Indices 1 2 3 4 5 6 
#
# 1 0.006627 -0.002515 -0.000802 0.000000 0.000000 0.000000
# 2 -0.002515 0.006627 -0.000802 0.000000 0.000000 0.000000
# 3 -0.000802 -0.000802 0.002904 0.000000 0.000000 0.000000
# 4 0.000000 0.000000 0.000000 0.012505 0.000000 0.000000
# 5 0.000000 0.000000 0.000000 0.000000 0.012505 0.000000
# 6 0.000000 0.000000 0.000000 0.000000 0.000000 0.018284
#
#
# Mechanical properties :
#
#
# Convention : Reuss Voigt Hill
#
# Bulk Modulus (GPa) = 126.21229 136.84088 131.52659
# Shear Modulus (GPa) = 71.09410 78.64035 74.86722
#
# Velocity S-wave (km/s) = 4.91885 5.17333 5.04769
# Velocity P-wave (km/s) = 8.67256 9.06944 8.87322
#
# Compressibility (1/GPa) = 0.00792316
#
# Stress axis : x y z
#
# Youngs Moduli (GPa) = 150.89265 150.89265 344.29359
#
# Poissons Ratio (x) = 0.37942 0.27601
# Poissons Ratio (y) = 0.37942 0.27601
# Poissons Ratio (z) = 0.12097 0.12097
#
# Static dielectric constant tensor:
#      x y z
#    x 2.458850 0.000000 0.000000 
#    y 0.000000 2.458850 0.000000 
#    z 0.000000 0.000000 3.008170 
# 
# From -- ./inp_files/9165.got.cif
#   From: 2010.05.17/outbox.cif.g08.bks.cpg/sg178_5_cif.got.tgz:9165.got - 2010.05.20 11:30:59.
