data_PCOD9583664
_publ_section_title
;
Structure prediction by ZEFSAII (Michael W. Deem and Ramdas Pophale) SiO2 
 PCOD9583664
Probable space group: P 62 2 2
;
_chemical_formula_sum "Si O2"
_cell_formula_units_Z 42
_cell_length_a 10.297011
_cell_length_b 10.297011
_cell_length_c 22.934230
_cell_angle_alpha 90.000000
_cell_angle_beta 90.000000
_cell_angle_gamma 120.000000
_cell_volume 2105.897110
_symmetry_space_group_name_H-M "P 62 2 2"
_symmetry_group_IT_number 180
_symmetry_cell_setting 'hexagonal'
loop_
_space_group_symop_operation_xyz
x,y,z
x-y,x,1/3+z
-y,x-y,2/3+z
-x,-y,z
-x+y,-x,1/3+z
y,-x+y,2/3+z
x-y,-y,-z
-x,-x+y,1/3-z
y,x,2/3-z
-y,-x,2/3-z
-x+y,y,-z
x,x-y,1/3-z
loop_
_atom_site_type_symbol
_atom_site_label
_atom_site_fract_x
_atom_site_fract_y
_atom_site_fract_z
Si Si1 0.338584 0.362858 0.716577
Si Si2 0.407089 0.125460 0.743163
Si Si3 0.500000 0.000000 0.844384
Si Si4 0.752328 0.404894 0.731668
O O1 0.500000 0.500000 0.734731
O O2 0.313688 0.211667 0.745764
O O3 0.356385 0.336982 0.647505
O O4 0.237591 0.433030 0.734057
O O5 0.581947 0.261668 0.735581
O O6 0.402132 0.038019 0.800527
O O7 0.402262 0.857769 0.885225
O O8 0.805210 0.402605 0.666667
#
# Coordination Sequence:
#
# PCOD9583664 Si02
#       4
#    12  12   6  12
#     4   9  16  33  60  79 111 149 199 245 301 373
#     4  10  18  35  58  84 112 154 199 253 308 365
#     4  12  23  30  48  88 126 151 188 254 320 352
#     4  11  20  35  55  84 121 155 200 247 316 375
#
# _framework density 19.943992999999999
#
# number of rings (size 3 to 8) (size 9 to 14) (size 15 to 20)
#    0.000    1.714    7.143    1.286    0.000    1.143 
#    0.000    4.286    0.000    0.000    0.000   80.000 
#    0.000    0.000    0.000    0.000    0.000    0.000 
#
# Total GULP energy -234079.103466 kJ/mol
# GULP energy per Si atom -5573.311987 kJ/mol
# Density = 1.989860 g / cm^3
# Si number density = 19.943993 Si / 1000 Ang^3
#
#
#
# Elastic Constant Matrix: (Units=GPa)
#
#
# Indices 1 2 3 4 5 6 
#
# 1 69.8950 23.4502 43.1427 0.0000 0.0000 0.0000
# 2 23.4502 69.8950 43.1427 0.0000 0.0000 0.0000
# 3 43.1427 43.1427 119.3414 0.0000 0.0000 0.0000
# 4 0.0000 0.0000 0.0000 31.2873 0.0000 0.0000
# 5 0.0000 0.0000 0.0000 0.0000 31.2873 0.0000
# 6 0.0000 0.0000 0.0000 0.0000 0.0000 23.2224
#
#
#
# Elastic Compliance Matrix: (Units=1/GPa)
#
#
# Indices 1 2 3 4 5 6 
#
# 1 0.018810 -0.002721 -0.005816 0.000000 0.000000 0.000000
# 2 -0.002721 0.018810 -0.005816 0.000000 0.000000 0.000000
# 3 -0.005816 -0.005816 0.012585 0.000000 0.000000 0.000000
# 4 0.000000 0.000000 0.000000 0.031962 0.000000 0.000000
# 5 0.000000 0.000000 0.000000 0.000000 0.031962 0.000000
# 6 0.000000 0.000000 0.000000 0.000000 0.000000 0.043062
#
#
# Mechanical properties :
#
#
# Convention : Reuss Voigt Hill
#
# Bulk Modulus (GPa) = 46.51634 53.17809 49.84722
# Shear Modulus (GPa) = 25.89816 27.11912 26.50864
#
# Velocity S-wave (km/s) = 3.60744 3.69150 3.64971
# Velocity P-wave (km/s) = 6.38166 6.70009 6.54281
#
# Compressibility (1/GPa) = 0.02149782
#
# Stress axis : x y z
#
# Youngs Moduli (GPa) = 53.16263 53.16263 79.46161
#
# Poissons Ratio (x) = 0.14464 0.46218
# Poissons Ratio (y) = 0.14464 0.46218
# Poissons Ratio (z) = 0.30922 0.30922
#
# Static dielectric constant tensor:
#      x y z
#    x 1.771790 0.000000 0.000000 
#    y 0.000000 1.771790 0.000000 
#    z 0.000000 0.000000 1.714440 
# 
# From -- ./inp_files/8509.got.cif
#   From: 2010.05.17/outbox.cif.g08.bks.cpg/sg180_5_cif.got.tgz:8509.got - 2010.05.20 11:43:55.
