data_PCOD9583242
_publ_section_title
;
Structure prediction by ZEFSAII (Michael W. Deem and Ramdas Pophale) SiO2 
 PCOD9583242
Probable space group: P 65 2 2
;
_chemical_formula_sum "Si O2"
_cell_formula_units_Z 84
_cell_length_a 12.623856
_cell_length_b 12.623856
_cell_length_c 29.840157
_cell_angle_alpha 90.000000
_cell_angle_beta 90.000000
_cell_angle_gamma 120.000000
_cell_volume 4118.279322
_symmetry_space_group_name_H-M "P 65 2 2"
_symmetry_group_IT_number 179
_symmetry_cell_setting 'hexagonal'
loop_
_space_group_symop_operation_xyz
x,y,z
x-y,x,5/6+z
-y,x-y,2/3+z
-x,-y,1/2+z
-x+y,-x,1/3+z
y,-x+y,1/6+z
x-y,-y,-z
-x,-x+y,1/3-z
y,x,2/3-z
-y,-x,1/6-z
-x+y,y,1/2-z
x,x-y,5/6-z
loop_
_atom_site_type_symbol
_atom_site_label
_atom_site_fract_x
_atom_site_fract_y
_atom_site_fract_z
Si Si1 0.597063 0.302568 0.368041
Si Si2 0.257966 0.988146 0.832611
Si Si3 0.862910 0.359972 0.558764
Si Si4 0.500332 0.869511 0.188579
Si Si5 0.559879 0.635390 0.292950
Si Si6 0.530462 0.123843 0.201034
Si Si7 0.115739 0.286514 0.925485
O O1 0.535977 0.267989 0.416667
O O2 0.737598 0.335372 0.373618
O O3 0.598978 0.426808 0.354967
O O4 0.549110 0.191958 0.333345
O O5 0.288816 0.880109 0.819128
O O6 0.154240 0.937815 0.871494
O O7 0.379280 0.093164 0.858624
O O8 0.229947 0.030630 0.785027
O O9 0.740484 0.259517 0.583334
O O10 0.849392 0.460205 0.530292
O O11 0.973854 0.434710 0.592842
O O12 0.634282 0.920170 0.209045
O O13 0.476799 0.978659 0.202136
O O14 0.648460 0.648460 0.333334
O O15 0.614386 0.757781 0.264498
O O16 0.585752 0.171504 0.250000
#
# Coordination Sequence:
#
# PCOD9583242 Si02
#       7
#    12  12  12  12  12  12  12
#     4  12  21  35  54  80 118 172 203 240 314 373
#     4  10  20  35  56  80 118 160 204 253 317 379
#     4  10  21  34  53  86 117 162 205 250 314 381
#     4  11  20  34  57  77 119 162 200 258 294 369
#     4  11  22  37  54  81 122 164 204 249 313 384
#     4  11  21  33  53  85 115 161 215 256 300 375
#     4  11  20  38  57  83 117 165 204 253 322 376
#
# _framework density 20.396868999999999
#
# number of rings (size 3 to 8) (size 9 to 14) (size 15 to 20)
#    0.000    1.143    4.286    5.571    0.000    1.714 
#    0.000    0.000    0.000    0.000    0.000    0.000 
#    0.000   67.429    0.000    0.000    0.000    0.000 
#
# Total GULP energy -467816.410240 kJ/mol
# GULP energy per Si atom -5569.242979 kJ/mol
# Density = 2.035045 g / cm^3
# Si number density = 20.396869 Si / 1000 Ang^3
#
#
#
# Elastic Constant Matrix: (Units=GPa)
#
#
# Indices 1 2 3 4 5 6 
#
# 1 41.6235 6.7213 28.9421 0.0000 0.0000 0.0000
# 2 6.7213 41.6235 28.9421 0.0000 0.0000 0.0000
# 3 28.9421 28.9421 154.9754 0.0000 0.0000 0.0000
# 4 0.0000 0.0000 0.0000 38.6456 0.0000 0.0000
# 5 0.0000 0.0000 0.0000 0.0000 38.6456 0.0000
# 6 0.0000 0.0000 0.0000 0.0000 0.0000 17.4511
#
#
#
# Elastic Compliance Matrix: (Units=1/GPa)
#
#
# Indices 1 2 3 4 5 6 
#
# 1 0.027647 -0.001005 -0.004975 0.000000 0.000000 0.000000
# 2 -0.001005 0.027647 -0.004975 0.000000 0.000000 0.000000
# 3 -0.004975 -0.004975 0.008311 0.000000 0.000000 0.000000
# 4 0.000000 0.000000 0.000000 0.025876 0.000000 0.000000
# 5 0.000000 0.000000 0.000000 0.000000 0.025876 0.000000
# 6 0.000000 0.000000 0.000000 0.000000 0.000000 0.057303
#
#
# Mechanical properties :
#
#
# Convention : Reuss Voigt Hill
#
# Bulk Modulus (GPa) = 23.98476 40.82593 32.40534
# Shear Modulus (GPa) = 23.98439 30.52292 27.25365
#
# Velocity S-wave (km/s) = 3.43284 3.87260 3.65933
# Velocity P-wave (km/s) = 5.24377 6.32892 5.81173
#
# Compressibility (1/GPa) = 0.04169314
#
# Stress axis : x y z
#
# Youngs Moduli (GPa) = 36.17059 36.17059 120.32230
#
# Poissons Ratio (x) = 0.03634 0.59866
# Poissons Ratio (y) = 0.03634 0.59866
# Poissons Ratio (z) = 0.17997 0.17997
#
# Static dielectric constant tensor:
#      x y z
#    x 1.774910 0.000000 0.000000 
#    y 0.000000 1.774910 0.000000 
#    z 0.000000 0.000000 1.838890 
# 
# From -- ./inp_files/9629.got.cif
#   From: 2010.05.17/outbox.cif.g08.bks.cpg/sg179_5_cif.got.tgz:9629.got - 2010.05.20 11:37:33.
