data_PCOD9583269
_publ_section_title
;
Structure prediction by ZEFSAII (Michael W. Deem and Ramdas Pophale) SiO2 
 PCOD9583269
Probable space group: P 65 2 2
;
_chemical_formula_sum "Si O2"
_cell_formula_units_Z 78
_cell_length_a 18.067695
_cell_length_b 18.067695
_cell_length_c 15.540878
_cell_angle_alpha 90.000000
_cell_angle_beta 90.000000
_cell_angle_gamma 120.000000
_cell_volume 4393.510656
_symmetry_space_group_name_H-M "P 65 2 2"
_symmetry_group_IT_number 179
_symmetry_cell_setting 'hexagonal'
loop_
_space_group_symop_operation_xyz
x,y,z
x-y,x,5/6+z
-y,x-y,2/3+z
-x,-y,1/2+z
-x+y,-x,1/3+z
y,-x+y,1/6+z
x-y,-y,-z
-x,-x+y,1/3-z
y,x,2/3-z
-y,-x,1/6-z
-x+y,y,1/2-z
x,x-y,5/6-z
loop_
_atom_site_type_symbol
_atom_site_label
_atom_site_fract_x
_atom_site_fract_y
_atom_site_fract_z
Si Si1 0.219677 0.444219 0.500193
Si Si2 0.414033 0.915012 0.545260
Si Si3 0.619477 0.749416 0.983942
Si Si4 0.606896 0.387673 0.227987
Si Si5 0.044512 0.642485 0.255965
Si Si6 0.546295 0.092589 0.750000
Si Si7 0.636949 0.962623 0.233415
O O1 0.182254 0.409663 0.405639
O O2 0.296151 0.540997 0.482733
O O3 0.143125 0.431547 0.561227
O O4 0.256275 0.388056 0.541391
O O5 0.332649 0.871862 0.606973
O O6 0.401062 0.842146 0.476011
O O7 0.506518 0.951208 0.589176
O O8 0.422465 0.000000 0.500000
O O9 0.651927 0.825964 0.916667
O O10 0.681992 0.714389 0.010737
O O11 0.697427 0.394853 0.250000
O O12 0.609656 0.454728 0.157421
O O13 0.000000 0.641565 0.166667
O O14 0.991793 0.651817 0.334282
O O15 0.451587 0.037852 0.713639
#
# Coordination Sequence:
#
# PCOD9583269 Si02
#       7
#    12  12  12  12  12   6  12
#     4  10  23  38  55  82 114 154 192 248 311 345
#     4  11  22  38  56  80 111 153 208 244 300 360
#     4  11  22  35  59  80 109 153 194 245 295 358
#     4  11  24  34  52  82 110 147 202 259 301 343
#     4  10  22  38  59  84 107 155 201 241 296 362
#     4  10  20  38  52  72 106 158 190 242 314 340
#     4  10  21  39  56  80 113 145 192 242 298 365
#
# _framework density 17.753457000000001
#
# number of rings (size 3 to 8) (size 9 to 14) (size 15 to 20)
#    0.000    1.538    1.538    4.615    6.462    1.846 
#    0.000    0.000    0.000    0.000    0.000    0.000 
#    0.000    0.000   83.692    0.000    0.000    0.000 
#
# Total GULP energy -435225.118176 kJ/mol
# GULP energy per Si atom -5579.809207 kJ/mol
# Density = 1.771305 g / cm^3
# Si number density = 17.753457 Si / 1000 Ang^3
#
#
#
# Elastic Constant Matrix: (Units=GPa)
#
#
# Indices 1 2 3 4 5 6 
#
# 1 80.2592 25.8108 42.7078 0.0000 0.0000 0.0000
# 2 25.8108 80.2592 42.7078 0.0000 0.0000 0.0000
# 3 42.7078 42.7078 105.5107 0.0000 0.0000 0.0000
# 4 0.0000 0.0000 0.0000 28.9582 0.0000 0.0000
# 5 0.0000 0.0000 0.0000 0.0000 28.9582 0.0000
# 6 0.0000 0.0000 0.0000 0.0000 0.0000 27.2242
#
#
#
# Elastic Compliance Matrix: (Units=1/GPa)
#
#
# Indices 1 2 3 4 5 6 
#
# 1 0.016176 -0.002190 -0.005661 0.000000 0.000000 0.000000
# 2 -0.002190 0.016176 -0.005661 0.000000 0.000000 0.000000
# 3 -0.005661 -0.005661 0.014061 0.000000 0.000000 0.000000
# 4 0.000000 0.000000 0.000000 0.034533 0.000000 0.000000
# 5 0.000000 0.000000 0.000000 0.000000 0.034533 0.000000
# 6 0.000000 0.000000 0.000000 0.000000 0.000000 0.036732
#
#
# Mechanical properties :
#
#
# Convention : Reuss Voigt Hill
#
# Bulk Modulus (GPa) = 51.57662 54.27575 52.92618
# Shear Modulus (GPa) = 26.92534 27.34831 27.13682
#
# Velocity S-wave (km/s) = 3.89861 3.92911 3.91389
# Velocity P-wave (km/s) = 7.02711 7.15697 7.09234
#
# Compressibility (1/GPa) = 0.01938863
#
# Stress axis : x y z
#
# Youngs Moduli (GPa) = 61.81855 61.81855 71.11915
#
# Poissons Ratio (x) = 0.13536 0.40264
# Poissons Ratio (y) = 0.13536 0.40264
# Poissons Ratio (z) = 0.34998 0.34998
#
# Static dielectric constant tensor:
#      x y z
#    x 1.605680 0.000000 0.000000 
#    y 0.000000 1.605680 0.000000 
#    z 0.000000 0.000000 1.671490 
# 
# From -- ./inp_files/6056.got.cif
#   From: 2010.05.17/outbox.cif.g08.bks.cpg/sg179_4_cif.got.tgz:6056.got - 2010.05.20 11:37:33.
