data_PCOD9583591
_publ_section_title
;
Structure prediction by ZEFSAII (Michael W. Deem and Ramdas Pophale) SiO2 
 PCOD9583591
Probable space group: P 65 2 2
;
_chemical_formula_sum "Si O2"
_cell_formula_units_Z 30
_cell_length_a 15.808285
_cell_length_b 15.808285
_cell_length_c 5.833893
_cell_angle_alpha 90.000000
_cell_angle_beta 90.000000
_cell_angle_gamma 120.000000
_cell_volume 1262.579127
_symmetry_space_group_name_H-M "P 65 2 2"
_symmetry_group_IT_number 179
_symmetry_cell_setting 'hexagonal'
loop_
_space_group_symop_operation_xyz
x,y,z
x-y,x,5/6+z
-y,x-y,2/3+z
-x,-y,1/2+z
-x+y,-x,1/3+z
y,-x+y,1/6+z
x-y,-y,-z
-x,-x+y,1/3-z
y,x,2/3-z
-y,-x,1/6-z
-x+y,y,1/2-z
x,x-y,5/6-z
loop_
_atom_site_type_symbol
_atom_site_label
_atom_site_fract_x
_atom_site_fract_y
_atom_site_fract_z
Si Si1 0.719241 0.280760 0.583334
Si Si2 0.734123 0.000000 0.000000
Si Si3 0.361442 0.917666 0.818627
Si Si4 0.107678 0.892323 0.083334
O O1 0.739434 0.369717 0.416667
O O2 0.692163 0.187503 0.432041
O O3 0.632454 0.928656 0.871578
O O4 0.819158 0.074839 0.815758
O O5 0.468382 0.936763 0.750000
O O6 0.378650 0.000000 0.000000
O O7 0.000000 0.849975 0.166667
#
# Coordination Sequence:
#
# PCOD9583591 Si02
#       4
#     6   6  12   6
#     4  12  28  53  82 118 164 220 282 359 440 528
#     4  12  30  56  86 130 176 234 296 372 456 540
#     4  12  27  53  82 122 169 225 290 363 444 539
#     4  12  30  57  90 132 174 230 296 375 454 552
#
# _framework density 23.760885999999999
#
# number of rings (size 3 to 8) (size 9 to 14) (size 15 to 20)
#    0.000    0.000    4.000    3.600    2.800    9.600 
#    7.200    0.000    0.000    0.000    0.000    0.000 
#    0.000    0.000    0.000    0.000    0.000    0.000 
#
# Total GULP energy -167358.109180 kJ/mol
# GULP energy per Si atom -5578.603639 kJ/mol
# Density = 2.370680 g / cm^3
# Si number density = 23.760886 Si / 1000 Ang^3
#
#
#
# Elastic Constant Matrix: (Units=GPa)
#
#
# Indices 1 2 3 4 5 6 
#
# 1 123.4653 132.4144 112.3017 0.0000 0.0000 0.0000
# 2 132.4144 123.4653 112.3017 0.0000 0.0000 0.0000
# 3 112.3017 112.3017 180.7734 0.0000 0.0000 0.0000
# 4 0.0000 0.0000 0.0000 47.7405 0.0000 0.0000
# 5 0.0000 0.0000 0.0000 0.0000 47.7405 0.0000
# 6 0.0000 0.0000 0.0000 0.0000 0.0000 -4.4745
#
#
#
# Elastic Compliance Matrix: (Units=1/GPa)
#
#
# Indices 1 2 3 4 5 6 
#
# 1 -0.051574 0.060169 -0.005339 0.000000 0.000000 0.000000
# 2 0.060169 -0.051574 -0.005339 0.000000 0.000000 0.000000
# 3 -0.005339 -0.005339 0.012166 0.000000 0.000000 0.000000
# 4 0.000000 0.000000 0.000000 0.020947 0.000000 0.000000
# 5 0.000000 0.000000 0.000000 0.000000 0.020947 0.000000
# 6 0.000000 0.000000 0.000000 0.000000 0.000000 -0.223487
#
#
# Mechanical properties :
#
#
# Convention : Reuss Voigt Hill
#
# Bulk Modulus (GPa) = 125.03233 126.85995 125.94614
# Shear Modulus (GPa) = -13.55408 22.91372 4.67982
#
# Velocity S-wave (km/s) = -2.39097 3.10876 1.40493
# Velocity P-wave (km/s) = 6.71662 8.14813 7.46676
#
# Compressibility (1/GPa) = 0.00799793
#
# Stress axis : x y z
#
# Youngs Moduli (GPa) = -19.38944 -19.38944 82.19847
#
# Poissons Ratio (x) = 1.16665 0.43888
# Poissons Ratio (y) = 1.16665 0.43888
# Poissons Ratio (z) = -0.10353 -0.10353
#
# Static dielectric constant tensor:
#      x y z
#    x 1.881510 0.000000 0.000000 
#    y 0.000000 1.881510 0.000000 
#    z 0.000000 0.000000 2.189900 
# 
# From -- ./inp_files/423.got.cif
#   From: 2010.05.17/outbox.cif.g08.bks.cpg/sg179_1_cif.got.tgz:423.got - 2010.05.20 11:37:33.
