data_PCOD9583176
_publ_section_title
;
Structure prediction by ZEFSAII (Michael W. Deem and Ramdas Pophale) SiO2 
 PCOD9583176
Probable space group: P 65 2 2
;
_chemical_formula_sum "Si O2"
_cell_formula_units_Z 36
_cell_length_a 21.072382
_cell_length_b 21.072382
_cell_length_c 5.057240
_cell_angle_alpha 90.000000
_cell_angle_beta 90.000000
_cell_angle_gamma 120.000000
_cell_volume 1944.784378
_symmetry_space_group_name_H-M "P 65 2 2"
_symmetry_group_IT_number 179
_symmetry_cell_setting 'hexagonal'
loop_
_space_group_symop_operation_xyz
x,y,z
x-y,x,5/6+z
-y,x-y,2/3+z
-x,-y,1/2+z
-x+y,-x,1/3+z
y,-x+y,1/6+z
x-y,-y,-z
-x,-x+y,1/3-z
y,x,2/3-z
-y,-x,1/6-z
-x+y,y,1/2-z
x,x-y,5/6-z
loop_
_atom_site_type_symbol
_atom_site_label
_atom_site_fract_x
_atom_site_fract_y
_atom_site_fract_z
Si Si1 0.683757 0.223454 0.330559
Si Si2 0.000000 0.766202 0.166667
Si Si3 0.142681 0.765323 0.331432
Si Si4 0.853513 0.853513 0.833334
O O1 0.722432 0.277568 0.583334
O O2 0.603477 0.206953 0.250000
O O3 0.694200 0.152764 0.347112
O O4 0.732496 0.267505 0.083334
O O5 0.062648 0.753203 0.290687
O O6 0.976869 0.799172 0.413619
O O7 0.184318 0.815683 0.583334
O O8 0.188108 0.811893 0.083334
O O9 0.930565 0.861129 0.750000
#
# Coordination Sequence:
#
# PCOD9583176 Si02
#       4
#    12   6  12   6
#     4  10  19  32  54  82 112 143 179 225 274 320
#     4  12  22  39  62  81 108 150 184 218 270 328
#     4  10  21  36  55  82 110 140 184 228 264 318
#     4  12  26  41  60  85 112 140 178 228 278 326
#
# _framework density 18.511049
#
# number of rings (size 3 to 8) (size 9 to 14) (size 15 to 20)
#    0.000    1.333    0.000    8.000    0.000    1.333 
#    0.000    0.000    0.000   14.000    0.000    0.000 
#    0.000    0.000    0.000    0.000    0.000    0.000 
#
# Total GULP energy -200841.741006 kJ/mol
# GULP energy per Si atom -5578.937250 kJ/mol
# Density = 1.846892 g / cm^3
# Si number density = 18.511049 Si / 1000 Ang^3
#
#
#
# Elastic Constant Matrix: (Units=GPa)
#
#
# Indices 1 2 3 4 5 6 
#
# 1 154.3009 69.7183 41.3956 0.0000 0.0000 0.0000
# 2 69.7183 154.3009 41.3956 0.0000 0.0000 0.0000
# 3 41.3956 41.3956 151.3492 0.0000 0.0000 0.0000
# 4 0.0000 0.0000 0.0000 26.9320 0.0000 0.0000
# 5 0.0000 0.0000 0.0000 0.0000 26.9320 0.0000
# 6 0.0000 0.0000 0.0000 0.0000 0.0000 42.2913
#
#
#
# Elastic Compliance Matrix: (Units=1/GPa)
#
#
# Indices 1 2 3 4 5 6 
#
# 1 0.008394 -0.003428 -0.001358 0.000000 0.000000 0.000000
# 2 -0.003428 0.008394 -0.001358 0.000000 0.000000 0.000000
# 3 -0.001358 -0.001358 0.007350 0.000000 0.000000 0.000000
# 4 0.000000 0.000000 0.000000 0.037131 0.000000 0.000000
# 5 0.000000 0.000000 0.000000 0.000000 0.037131 0.000000
# 6 0.000000 0.000000 0.000000 0.000000 0.000000 0.023646
#
#
# Mechanical properties :
#
#
# Convention : Reuss Voigt Hill
#
# Bulk Modulus (GPa) = 84.39481 84.99667 84.69574
# Shear Modulus (GPa) = 36.15724 39.72716 37.94220
#
# Velocity S-wave (km/s) = 4.42439 4.63766 4.53228
# Velocity P-wave (km/s) = 8.47295 8.64255 8.55817
#
# Compressibility (1/GPa) = 0.01184907
#
# Stress axis : x y z
#
# Youngs Moduli (GPa) = 119.12829 119.12829 136.05050
#
# Poissons Ratio (x) = 0.40843 0.18479
# Poissons Ratio (y) = 0.40843 0.18479
# Poissons Ratio (z) = 0.16180 0.16180
#
# Static dielectric constant tensor:
#      x y z
#    x 1.684500 0.000000 0.000000 
#    y 0.000000 1.684500 0.000000 
#    z 0.000000 0.000000 1.624600 
# 
# From -- ./inp_files/649.got.cif
#   From: 2010.05.17/outbox.cif.g08.bks.cpg/sg179_1_cif.got.tgz:649.got - 2010.05.20 11:37:33.
