data_PCOD9583606
_publ_section_title
;
Structure prediction by ZEFSAII (Michael W. Deem and Ramdas Pophale) SiO2 
 PCOD9583606
Probable space group: P 62 2 2
;
_chemical_formula_sum "Si O2"
_cell_formula_units_Z 36
_cell_length_a 11.297272
_cell_length_b 11.297272
_cell_length_c 13.824061
_cell_angle_alpha 90.000000
_cell_angle_beta 90.000000
_cell_angle_gamma 120.000000
_cell_volume 1527.965131
_symmetry_space_group_name_H-M "P 62 2 2"
_symmetry_group_IT_number 180
_symmetry_cell_setting 'hexagonal'
loop_
_space_group_symop_operation_xyz
x,y,z
x-y,x,1/3+z
-y,x-y,2/3+z
-x,-y,z
-x+y,-x,1/3+z
y,-x+y,2/3+z
x-y,-y,-z
-x,-x+y,1/3-z
y,x,2/3-z
-y,-x,2/3-z
-x+y,y,-z
x,x-y,1/3-z
loop_
_atom_site_type_symbol
_atom_site_label
_atom_site_fract_x
_atom_site_fract_y
_atom_site_fract_z
Si Si1 0.715280 0.057807 0.745214
Si Si2 0.549318 0.200954 0.750836
Si Si3 0.681359 0.832929 0.877523
O O1 0.644704 0.141709 0.783645
O O2 0.819214 0.134802 0.659200
O O3 0.584410 0.923712 0.698446
O O4 0.750396 0.985095 0.831492
O O5 0.619364 0.309682 0.666667
O O6 0.475152 0.233119 0.837978
O O7 0.756448 0.756448 0.833334
#
# Coordination Sequence:
#
# PCOD9583606 Si02
#       3
#    12  12  12
#     4   9  18  28  44  72 116 180 255 306 374 448
#     4   9  17  29  41  72 115 178 252 307 369 450
#     4  10  15  28  44  70 114 178 251 312 362 437
#
# _framework density 23.560748
#
# number of rings (size 3 to 8) (size 9 to 14) (size 15 to 20)
#    2.000    0.667    3.333    1.000    0.000    1.333 
#    0.000    0.000    0.000    0.000    0.000    0.000 
#    0.000   18.667    0.000  102.000   14.667   22.667 
#
# Total GULP energy -200414.502531 kJ/mol
# GULP energy per Si atom -5567.069515 kJ/mol
# Density = 2.350712 g / cm^3
# Si number density = 23.560748 Si / 1000 Ang^3
#
#
#
# Elastic Constant Matrix: (Units=GPa)
#
#
# Indices 1 2 3 4 5 6 
#
# 1 121.3492 57.9043 79.3003 0.0000 0.0000 0.0000
# 2 57.9043 121.3492 79.3003 0.0000 0.0000 0.0000
# 3 79.3003 79.3003 160.2876 0.0000 0.0000 0.0000
# 4 0.0000 0.0000 0.0000 48.0575 0.0000 0.0000
# 5 0.0000 0.0000 0.0000 0.0000 48.0575 0.0000
# 6 0.0000 0.0000 0.0000 0.0000 0.0000 31.7225
#
#
#
# Elastic Compliance Matrix: (Units=1/GPa)
#
#
# Indices 1 2 3 4 5 6 
#
# 1 0.012842 -0.002920 -0.004909 0.000000 0.000000 0.000000
# 2 -0.002920 0.012842 -0.004909 0.000000 0.000000 0.000000
# 3 -0.004909 -0.004909 0.011096 0.000000 0.000000 0.000000
# 4 0.000000 0.000000 0.000000 0.020808 0.000000 0.000000
# 5 0.000000 0.000000 0.000000 0.000000 0.020808 0.000000
# 6 0.000000 0.000000 0.000000 0.000000 0.000000 0.031523
#
#
# Mechanical properties :
#
#
# Convention : Reuss Voigt Hill
#
# Bulk Modulus (GPa) = 88.45894 92.88841 90.67368
# Shear Modulus (GPa) = 35.92921 37.99955 36.96438
#
# Velocity S-wave (km/s) = 3.90931 4.02037 3.96523
# Velocity P-wave (km/s) = 7.61600 7.81420 7.71574
#
# Compressibility (1/GPa) = 0.01130468
#
# Stress axis : x y z
#
# Youngs Moduli (GPa) = 77.87089 77.87089 90.12403
#
# Poissons Ratio (x) = 0.22738 0.44239
# Poissons Ratio (y) = 0.22738 0.44239
# Poissons Ratio (z) = 0.38224 0.38224
#
# Static dielectric constant tensor:
#      x y z
#    x 1.956390 0.000000 0.000000 
#    y 0.000000 1.956390 0.000000 
#    z 0.000000 0.000000 1.872560 
# 
# From -- ./inp_files/5445.got.cif
#   From: 2010.05.17/outbox.cif.g08.bks.cpg/sg180_3_cif.got.tgz:5445.got - 2010.05.20 11:43:55.
