data_PCOD9583706
_publ_section_title
;
Structure prediction by ZEFSAII (Michael W. Deem and Ramdas Pophale) SiO2 
 PCOD9583706
Probable space group: P 62 2 2
;
_chemical_formula_sum "Si O2"
_cell_formula_units_Z 60
_cell_length_a 11.960176
_cell_length_b 11.960176
_cell_length_c 24.843744
_cell_angle_alpha 90.000000
_cell_angle_beta 90.000000
_cell_angle_gamma 120.000000
_cell_volume 3077.675436
_symmetry_space_group_name_H-M "P 62 2 2"
_symmetry_group_IT_number 180
_symmetry_cell_setting 'hexagonal'
loop_
_space_group_symop_operation_xyz
x,y,z
x-y,x,1/3+z
-y,x-y,2/3+z
-x,-y,z
-x+y,-x,1/3+z
y,-x+y,2/3+z
x-y,-y,-z
-x,-x+y,1/3-z
y,x,2/3-z
-y,-x,2/3-z
-x+y,y,-z
x,x-y,1/3-z
loop_
_atom_site_type_symbol
_atom_site_label
_atom_site_fract_x
_atom_site_fract_y
_atom_site_fract_z
Si Si1 0.704891 0.737231 0.892357
Si Si2 0.790425 0.802918 0.569399
Si Si3 0.316725 0.442796 0.360651
Si Si4 0.965694 0.356847 0.992759
Si Si5 0.273132 0.999113 0.882842
O O1 0.671515 0.671515 0.833334
O O2 0.860869 0.802122 0.895293
O O3 0.646196 0.649351 0.944636
O O4 0.669251 0.850490 0.896032
O O5 0.702041 0.733378 0.620760
O O6 0.923286 0.799359 0.570779
O O7 0.726796 0.722115 0.514925
O O8 0.322452 0.322452 0.333334
O O9 0.431507 0.568494 0.333334
O O10 0.185184 0.441372 0.350949
O O11 0.333887 0.413400 0.422482
O O12 0.000000 0.500000 0.977941
#
# Coordination Sequence:
#
# PCOD9583706 Si02
#       5
#    12  12  12  12  12
#     4  10  19  34  57  84 111 145 179 227 290 349
#     4   9  19  33  58  85 116 142 173 230 292 347
#     4  10  20  37  60  83 108 153 199 240 278 334
#     4  11  23  38  54  81 116 151 193 238 290 344
#     4   9  17  35  57  89 114 138 182 231 281 343
#
# _framework density 19.495234
#
# number of rings (size 3 to 8) (size 9 to 14) (size 15 to 20)
#    0.000    2.200    2.000    1.200    0.000    4.400 
#    3.600    2.000    0.000    4.800    0.000    0.000 
#    0.000    0.000    0.000    0.000    0.000    0.000 
#
# Total GULP energy -334271.098900 kJ/mol
# GULP energy per Si atom -5571.184982 kJ/mol
# Density = 1.945086 g / cm^3
# Si number density = 19.495234 Si / 1000 Ang^3
#
#
#
# Elastic Constant Matrix: (Units=GPa)
#
#
# Indices 1 2 3 4 5 6 
#
# 1 67.2271 20.1176 25.8392 0.0000 0.0000 0.0000
# 2 20.1176 67.2271 25.8392 0.0000 0.0000 0.0000
# 3 25.8392 25.8392 116.3348 0.0000 0.0000 0.0000
# 4 0.0000 0.0000 0.0000 22.1790 0.0000 0.0000
# 5 0.0000 0.0000 0.0000 0.0000 22.1790 0.0000
# 6 0.0000 0.0000 0.0000 0.0000 0.0000 23.5548
#
#
#
# Elastic Compliance Matrix: (Units=1/GPa)
#
#
# Indices 1 2 3 4 5 6 
#
# 1 0.017204 -0.004023 -0.002928 0.000000 0.000000 0.000000
# 2 -0.004023 0.017204 -0.002928 0.000000 0.000000 0.000000
# 3 -0.002928 -0.002928 0.009896 0.000000 0.000000 0.000000
# 4 0.000000 0.000000 0.000000 0.045088 0.000000 0.000000
# 5 0.000000 0.000000 0.000000 0.000000 0.045088 0.000000
# 6 0.000000 0.000000 0.000000 0.000000 0.000000 0.042454
#
#
# Mechanical properties :
#
#
# Convention : Reuss Voigt Hill
#
# Bulk Modulus (GPa) = 40.73668 43.82014 42.27841
# Shear Modulus (GPa) = 24.40527 25.51540 24.96034
#
# Velocity S-wave (km/s) = 3.54200 3.62166 3.58205
# Velocity P-wave (km/s) = 6.13749 6.32572 6.23231
#
# Compressibility (1/GPa) = 0.02454790
#
# Stress axis : x y z
#
# Youngs Moduli (GPa) = 58.12568 58.12568 101.04673
#
# Poissons Ratio (x) = 0.23384 0.29583
# Poissons Ratio (y) = 0.23384 0.29583
# Poissons Ratio (z) = 0.17017 0.17017
#
# Static dielectric constant tensor:
#      x y z
#    x 1.673690 0.000000 0.000000 
#    y 0.000000 1.673690 0.000000 
#    z 0.000000 0.000000 1.781930 
# 
# From -- ./inp_files/11215.got.cif
#   From: 2010.05.17/outbox.cif.g08.bks.cpg/sg180_6_cif.got.tgz:11215.got - 2010.05.20 11:43:55.
