data_PCOD9583885
_publ_section_title
;
Structure prediction by ZEFSAII (Michael W. Deem and Ramdas Pophale) SiO2 
 PCOD9583885
Probable space group: P 62 2 2
;
_chemical_formula_sum "Si O2"
_cell_formula_units_Z 42
_cell_length_a 11.910166
_cell_length_b 11.910166
_cell_length_c 17.281025
_cell_angle_alpha 90.000000
_cell_angle_beta 90.000000
_cell_angle_gamma 120.000000
_cell_volume 2122.930416
_symmetry_space_group_name_H-M "P 62 2 2"
_symmetry_group_IT_number 180
_symmetry_cell_setting 'hexagonal'
loop_
_space_group_symop_operation_xyz
x,y,z
x-y,x,1/3+z
-y,x-y,2/3+z
-x,-y,z
-x+y,-x,1/3+z
y,-x+y,2/3+z
x-y,-y,-z
-x,-x+y,1/3-z
y,x,2/3-z
-y,-x,2/3-z
-x+y,y,-z
x,x-y,1/3-z
loop_
_atom_site_type_symbol
_atom_site_label
_atom_site_fract_x
_atom_site_fract_y
_atom_site_fract_z
Si Si1 0.104013 0.385492 0.366485
Si Si2 0.663838 0.493141 0.065027
Si Si3 0.895584 0.104417 0.833334
Si Si4 0.330671 0.142111 0.471759
O O1 0.148500 0.521102 0.410037
O O2 0.123506 0.293144 0.424133
O O3 0.159619 0.380495 0.283024
O O4 0.951698 0.336777 0.357054
O O5 0.748730 0.557244 0.141094
O O6 0.721202 0.442403 0.000000
O O7 0.050399 0.195262 0.815992
O O8 0.296681 0.000000 0.500000
#
# Coordination Sequence:
#
# PCOD9583885 Si02
#       4
#    12  12   6  12
#     4  10  22  39  59  89 129 163 208 269 323 392
#     4  10  21  39  59  89 123 161 217 263 314 394
#     4  10  23  38  62  94 129 166 214 266 336 406
#     4  11  21  39  65  94 125 169 213 272 338 394
#
# _framework density 19.783973
#
# number of rings (size 3 to 8) (size 9 to 14) (size 15 to 20)
#    0.000    1.714    2.857    1.286    0.000    3.429 
#    0.000    2.857    0.000    8.571    0.000    0.000 
#    0.000    0.000    0.000    0.000    0.000    0.000 
#
# Total GULP energy -233928.258791 kJ/mol
# GULP energy per Si atom -5569.720447 kJ/mol
# Density = 1.973894 g / cm^3
# Si number density = 19.783973 Si / 1000 Ang^3
#
#
#
# Elastic Constant Matrix: (Units=GPa)
#
#
# Indices 1 2 3 4 5 6 
#
# 1 39.6122 46.7272 40.7613 0.0000 0.0000 0.0000
# 2 46.7272 39.6122 40.7613 0.0000 0.0000 0.0000
# 3 40.7613 40.7613 136.7410 0.0000 0.0000 0.0000
# 4 0.0000 0.0000 0.0000 24.1606 0.0000 0.0000
# 5 0.0000 0.0000 0.0000 0.0000 24.1606 0.0000
# 6 0.0000 0.0000 0.0000 0.0000 0.0000 -3.5575
#
#
#
# Elastic Compliance Matrix: (Units=1/GPa)
#
#
# Indices 1 2 3 4 5 6 
#
# 1 -0.062215 0.078334 -0.004805 0.000000 0.000000 0.000000
# 2 0.078334 -0.062215 -0.004805 0.000000 0.000000 0.000000
# 3 -0.004805 -0.004805 0.010178 0.000000 0.000000 0.000000
# 4 0.000000 0.000000 0.000000 0.041390 0.000000 0.000000
# 5 0.000000 0.000000 0.000000 0.000000 0.041390 0.000000
# 6 0.000000 0.000000 0.000000 0.000000 0.000000 -0.281099
#
#
# Mechanical properties :
#
#
# Convention : Reuss Voigt Hill
#
# Bulk Modulus (GPa) = 43.11075 52.49610 47.80342
# Shear Modulus (GPa) = -11.30483 14.80045 1.74781
#
# Velocity S-wave (km/s) = -2.39302 2.73811 0.94094
# Velocity P-wave (km/s) = 3.76864 6.04885 5.03941
#
# Compressibility (1/GPa) = 0.02319607
#
# Stress axis : x y z
#
# Youngs Moduli (GPa) = -16.07324 -16.07324 98.25375
#
# Poissons Ratio (x) = 1.25909 0.47211
# Poissons Ratio (y) = 1.25909 0.47211
# Poissons Ratio (z) = -0.07723 -0.07723
#
# Static dielectric constant tensor:
#      x y z
#    x 1.780110 0.000000 0.000000 
#    y 0.000000 1.780110 0.000000 
#    z 0.000000 0.000000 1.786300 
# 
# From -- ./inp_files/7145.got.cif
#   From: 2010.05.17/outbox.cif.g08.bks.cpg/sg180_4_cif.got.tgz:7145.got - 2010.05.20 11:43:55.
