data_PCOD9583840
_publ_section_title
;
Structure prediction by ZEFSAII (Michael W. Deem and Ramdas Pophale) SiO2 
 PCOD9583840
Probable space group: P 62 2 2
;
_chemical_formula_sum "Si O2"
_cell_formula_units_Z 60
_cell_length_a 16.437453
_cell_length_b 16.437453
_cell_length_c 13.805575
_cell_angle_alpha 90.000000
_cell_angle_beta 90.000000
_cell_angle_gamma 120.000000
_cell_volume 3230.384215
_symmetry_space_group_name_H-M "P 62 2 2"
_symmetry_group_IT_number 180
_symmetry_cell_setting 'hexagonal'
loop_
_space_group_symop_operation_xyz
x,y,z
x-y,x,1/3+z
-y,x-y,2/3+z
-x,-y,z
-x+y,-x,1/3+z
y,-x+y,2/3+z
x-y,-y,-z
-x,-x+y,1/3-z
y,x,2/3-z
-y,-x,2/3-z
-x+y,y,-z
x,x-y,1/3-z
loop_
_atom_site_type_symbol
_atom_site_label
_atom_site_fract_x
_atom_site_fract_y
_atom_site_fract_z
Si Si1 0.283111 0.946250 0.231282
Si Si2 0.401940 0.526786 0.226643
Si Si3 0.548129 0.856744 0.227819
Si Si4 0.785016 0.473748 0.226909
Si Si5 0.899813 0.229380 0.214726
O O1 0.340671 0.917768 0.154946
O O2 0.171939 0.883335 0.207176
O O3 0.274554 0.915113 0.344170
O O4 0.344179 0.058957 0.234194
O O5 0.449472 0.550529 0.333334
O O6 0.487368 0.592223 0.157920
O O7 0.325166 0.560498 0.226500
O O8 0.543939 0.771970 0.166667
O O9 0.496721 0.819589 0.329932
O O10 0.801799 0.400900 0.166667
O O11 0.844041 0.573245 0.174927
O O12 0.000000 0.262665 0.166667
#
# Coordination Sequence:
#
# PCOD9583840 Si02
#       5
#    12  12  12  12  12
#     4  10  23  39  63  92 119 159 214 261 313 380
#     4  11  23  39  54  83 125 173 206 252 304 367
#     4  12  23  39  59  89 126 163 211 260 311 377
#     4  11  23  37  60  87 121 167 213 256 308 365
#     4  10  20  42  65  88 120 156 207 265 325 371
#
# _framework density 18.573643000000001
#
# number of rings (size 3 to 8) (size 9 to 14) (size 15 to 20)
#    0.000    1.200    4.000    2.400    0.000    3.600 
#    0.000    0.000    0.000    0.600    0.000    2.800 
#    0.000    0.000    0.000    0.000    0.000    0.000 
#
# Total GULP energy -334111.253299 kJ/mol
# GULP energy per Si atom -5568.520888 kJ/mol
# Density = 1.853137 g / cm^3
# Si number density = 18.573643 Si / 1000 Ang^3
#
#
#
# Elastic Constant Matrix: (Units=GPa)
#
#
# Indices 1 2 3 4 5 6 
#
# 1 83.4186 52.8188 34.0181 0.0000 0.0000 0.0000
# 2 52.8188 83.4186 34.0181 0.0000 0.0000 0.0000
# 3 34.0181 34.0181 117.2170 0.0000 0.0000 0.0000
# 4 0.0000 0.0000 0.0000 14.0965 0.0000 0.0000
# 5 0.0000 0.0000 0.0000 0.0000 14.0965 0.0000
# 6 0.0000 0.0000 0.0000 0.0000 0.0000 15.2999
#
#
#
# Elastic Compliance Matrix: (Units=1/GPa)
#
#
# Indices 1 2 3 4 5 6 
#
# 1 0.020632 -0.012048 -0.002491 0.000000 0.000000 0.000000
# 2 -0.012048 0.020632 -0.002491 0.000000 0.000000 0.000000
# 3 -0.002491 -0.002491 0.009977 0.000000 0.000000 0.000000
# 4 0.000000 0.000000 0.000000 0.070940 0.000000 0.000000
# 5 0.000000 0.000000 0.000000 0.000000 0.070940 0.000000
# 6 0.000000 0.000000 0.000000 0.000000 0.000000 0.065360
#
#
# Mechanical properties :
#
#
# Convention : Reuss Voigt Hill
#
# Bulk Modulus (GPa) = 58.20518 58.41825 58.31172
# Shear Modulus (GPa) = 16.76345 19.57854 18.17099
#
# Velocity S-wave (km/s) = 3.00749 3.25022 3.13121
# Velocity P-wave (km/s) = 6.59284 6.75320 6.67350
#
# Compressibility (1/GPa) = 0.01718060
#
# Stress axis : x y z
#
# Youngs Moduli (GPa) = 48.46827 48.46827 100.22854
#
# Poissons Ratio (x) = 0.58394 0.24970
# Poissons Ratio (y) = 0.58394 0.24970
# Poissons Ratio (z) = 0.12075 0.12075
#
# Static dielectric constant tensor:
#      x y z
#    x 1.650100 0.000000 0.000000 
#    y 0.000000 1.650100 0.000000 
#    z 0.000000 0.000000 2.499130 
# 
# From -- ./inp_files/6105.got.cif
#   From: 2010.05.17/outbox.cif.g08.bks.cpg/sg180_4_cif.got.tgz:6105.got - 2010.05.20 11:43:55.
