data_PCOD9583874
_publ_section_title
;
Structure prediction by ZEFSAII (Michael W. Deem and Ramdas Pophale) SiO2 
 PCOD9583874
Probable space group: P 62 2 2
;
_chemical_formula_sum "Si O2"
_cell_formula_units_Z 60
_cell_length_a 15.324260
_cell_length_b 15.324260
_cell_length_c 13.358074
_cell_angle_alpha 90.000000
_cell_angle_beta 90.000000
_cell_angle_gamma 120.000000
_cell_volume 2716.648816
_symmetry_space_group_name_H-M "P 62 2 2"
_symmetry_group_IT_number 180
_symmetry_cell_setting 'hexagonal'
loop_
_space_group_symop_operation_xyz
x,y,z
x-y,x,1/3+z
-y,x-y,2/3+z
-x,-y,z
-x+y,-x,1/3+z
y,-x+y,2/3+z
x-y,-y,-z
-x,-x+y,1/3-z
y,x,2/3-z
-y,-x,2/3-z
-x+y,y,-z
x,x-y,1/3-z
loop_
_atom_site_type_symbol
_atom_site_label
_atom_site_fract_x
_atom_site_fract_y
_atom_site_fract_z
Si Si1 0.413157 0.308886 0.964306
Si Si2 0.907114 0.195382 0.736588
Si Si3 0.596342 0.609789 0.515237
Si Si4 0.545623 0.775097 0.553382
Si Si5 0.326353 0.728946 0.733818
O O1 0.420801 0.295841 0.845480
O O2 0.345486 0.195541 0.006629
O O3 0.383232 0.375955 0.032583
O O4 0.527267 0.351961 0.002635
O O5 0.878154 0.121847 0.833334
O O6 0.940758 0.306081 0.782605
O O7 0.000000 0.211884 0.666667
O O8 0.500000 0.500000 0.495244
O O9 0.576425 0.701624 0.497199
O O10 0.585980 0.792990 0.666667
O O11 0.425363 0.699830 0.565102
O O12 0.270803 0.729198 0.833334
O O13 0.262378 0.631189 0.666667
#
# Coordination Sequence:
#
# PCOD9583874 Si02
#       5
#    12  12  12  12  12
#     4  11  22  38  58  83 119 157 209 265 313 373
#     4  10  21  37  61  90 123 162 208 270 325 377
#     4  11  22  39  58  86 119 162 214 262 318 377
#     4  11  24  38  55  81 115 159 213 256 312 376
#     4  11  20  33  52  76 110 155 200 252 306 358
#
# _framework density 22.086037000000001
#
# number of rings (size 3 to 8) (size 9 to 14) (size 15 to 20)
#    0.000    1.200    6.000    1.800    0.000    1.200 
#    0.000    1.000    0.000    0.000    0.000    0.000 
#    0.000   32.000    0.000    0.000    0.000    0.000 
#
# Total GULP energy -334618.723710 kJ/mol
# GULP energy per Si atom -5576.978729 kJ/mol
# Density = 2.203577 g / cm^3
# Si number density = 22.086037 Si / 1000 Ang^3
#
#
#
# Elastic Constant Matrix: (Units=GPa)
#
#
# Indices 1 2 3 4 5 6 
#
# 1 51.3959 14.4182 2.2884 0.0000 0.0000 0.0000
# 2 14.4182 51.3959 2.2884 0.0000 0.0000 0.0000
# 3 2.2884 2.2884 117.5636 0.0000 0.0000 0.0000
# 4 0.0000 0.0000 0.0000 33.9113 0.0000 0.0000
# 5 0.0000 0.0000 0.0000 0.0000 33.9113 0.0000
# 6 0.0000 0.0000 0.0000 0.0000 0.0000 18.4888
#
#
#
# Elastic Compliance Matrix: (Units=1/GPa)
#
#
# Indices 1 2 3 4 5 6 
#
# 1 0.021129 -0.005914 -0.000296 0.000000 0.000000 0.000000
# 2 -0.005914 0.021129 -0.000296 0.000000 0.000000 0.000000
# 3 -0.000296 -0.000296 0.008518 0.000000 0.000000 0.000000
# 4 0.000000 0.000000 0.000000 0.029489 0.000000 0.000000
# 5 0.000000 0.000000 0.000000 0.000000 0.029489 0.000000
# 6 0.000000 0.000000 0.000000 0.000000 0.000000 0.054087
#
#
# Mechanical properties :
#
#
# Convention : Reuss Voigt Hill
#
# Bulk Modulus (GPa) = 26.48113 28.70504 27.59308
# Shear Modulus (GPa) = 26.39351 30.68632 28.53991
#
# Velocity S-wave (km/s) = 3.46067 3.73151 3.59864
# Velocity P-wave (km/s) = 5.29002 5.62056 5.45779
#
# Compressibility (1/GPa) = 0.03776274
#
# Stress axis : x y z
#
# Youngs Moduli (GPa) = 47.32805 47.32805 117.40448
#
# Poissons Ratio (x) = 0.27991 0.03477
# Poissons Ratio (y) = 0.27991 0.03477
# Poissons Ratio (z) = 0.01402 0.01402
#
# Static dielectric constant tensor:
#      x y z
#    x 1.824630 0.000000 0.000000 
#    y 0.000000 1.824630 0.000000 
#    z 0.000000 0.000000 1.965200 
# 
# From -- ./inp_files/4788.got.cif
#   From: 2010.05.17/outbox.cif.g08.bks.cpg/sg180_3_cif.got.tgz:4788.got - 2010.05.20 11:43:55.
