data_PCOD9583445
_publ_section_title
;
Structure prediction by ZEFSAII (Michael W. Deem and Ramdas Pophale) SiO2 
 PCOD9583445
Probable space group: P 65 2 2
;
_chemical_formula_sum "Si O2"
_cell_formula_units_Z 42
_cell_length_a 12.188920
_cell_length_b 12.188920
_cell_length_c 15.349039
_cell_angle_alpha 90.000000
_cell_angle_beta 90.000000
_cell_angle_gamma 120.000000
_cell_volume 1974.887107
_symmetry_space_group_name_H-M "P 65 2 2"
_symmetry_group_IT_number 179
_symmetry_cell_setting 'hexagonal'
loop_
_space_group_symop_operation_xyz
x,y,z
x-y,x,5/6+z
-y,x-y,2/3+z
-x,-y,1/2+z
-x+y,-x,1/3+z
y,-x+y,1/6+z
x-y,-y,-z
-x,-x+y,1/3-z
y,x,2/3-z
-y,-x,1/6-z
-x+y,y,1/2-z
x,x-y,5/6-z
loop_
_atom_site_type_symbol
_atom_site_label
_atom_site_fract_x
_atom_site_fract_y
_atom_site_fract_z
Si Si1 0.711585 0.855793 0.416667
Si Si2 0.394573 0.787431 0.846604
Si Si3 0.336608 0.142922 0.106671
Si Si4 0.281004 0.317676 0.235138
O O1 0.632108 0.817075 0.505647
O O2 0.794841 0.788482 0.430763
O O3 0.366268 0.732535 0.750000
O O4 0.353227 0.676614 0.916667
O O5 0.320014 0.863494 0.858263
O O6 0.544091 0.880720 0.859585
O O7 0.311389 0.231863 0.171298
O O8 0.334371 0.334371 0.333334
O O9 0.131062 0.262123 0.250000
#
# Coordination Sequence:
#
# PCOD9583445 Si02
#       4
#     6  12  12  12
#     4  10  24  40  64 102 134 170 226 280 350 414
#     4  11  25  43  70 102 138 184 241 287 356 422
#     4  11  23  44  67 100 139 178 230 284 355 408
#     4  11  24  46  70  99 140 186 238 287 351 431
#
# _framework density 21.267039
#
# number of rings (size 3 to 8) (size 9 to 14) (size 15 to 20)
#    0.000    1.143    0.000    6.857    6.000    3.429 
#   18.000    0.000    0.000    0.000    0.000    0.000 
#    0.000    0.000    0.000    0.000    0.000    0.000 
#
# Total GULP energy -234560.518422 kJ/mol
# GULP energy per Si atom -5584.774248 kJ/mol
# Density = 2.121863 g / cm^3
# Si number density = 21.267039 Si / 1000 Ang^3
#
#
#
# Elastic Constant Matrix: (Units=GPa)
#
#
# Indices 1 2 3 4 5 6 
#
# 1 72.4015 48.2971 34.5150 0.0000 0.0000 0.0000
# 2 48.2971 72.4015 34.5150 0.0000 0.0000 0.0000
# 3 34.5150 34.5150 203.9749 0.0000 0.0000 0.0000
# 4 0.0000 0.0000 0.0000 29.0367 0.0000 0.0000
# 5 0.0000 0.0000 0.0000 0.0000 29.0367 0.0000
# 6 0.0000 0.0000 0.0000 0.0000 0.0000 12.0522
#
#
#
# Elastic Compliance Matrix: (Units=1/GPa)
#
#
# Indices 1 2 3 4 5 6 
#
# 1 0.025330 -0.016157 -0.001552 0.000000 0.000000 0.000000
# 2 -0.016157 0.025330 -0.001552 0.000000 0.000000 0.000000
# 3 -0.001552 -0.001552 0.005428 0.000000 0.000000 0.000000
# 4 0.000000 0.000000 0.000000 0.034439 0.000000 0.000000
# 5 0.000000 0.000000 0.000000 0.000000 0.034439 0.000000
# 6 0.000000 0.000000 0.000000 0.000000 0.000000 0.082972
#
#
# Mechanical properties :
#
#
# Convention : Reuss Voigt Hill
#
# Bulk Modulus (GPa) = 56.93186 64.82582 60.87884
# Shear Modulus (GPa) = 19.81652 29.45515 24.63583
#
# Velocity S-wave (km/s) = 3.05584 3.72562 3.40723
# Velocity P-wave (km/s) = 6.26730 7.00392 6.64582
#
# Compressibility (1/GPa) = 0.01756486
#
# Stress axis : x y z
#
# Youngs Moduli (GPa) = 39.47963 39.47963 184.23502
#
# Poissons Ratio (x) = 0.63786 0.28596
# Poissons Ratio (y) = 0.63786 0.28596
# Poissons Ratio (z) = 0.06128 0.06128
#
# Static dielectric constant tensor:
#      x y z
#    x 1.757150 0.000000 0.000000 
#    y 0.000000 1.757150 0.000000 
#    z 0.000000 0.000000 1.916620 
# 
# From -- ./inp_files/6464.got.cif
#   From: 2010.05.17/outbox.cif.g08.bks.cpg/sg179_4_cif.got.tgz:6464.got - 2010.05.20 11:37:33.
