data_PCOD9583602
_publ_section_title
;
Structure prediction by ZEFSAII (Michael W. Deem and Ramdas Pophale) SiO2 
 PCOD9583602
Probable space group: P 65 2 2
;
_chemical_formula_sum "Si O2"
_cell_formula_units_Z 60
_cell_length_a 15.000000
_cell_length_b 15.000000
_cell_length_c 15.000000
_cell_angle_alpha 90.000000
_cell_angle_beta 90.000000
_cell_angle_gamma 120.000000
_cell_volume 2922.835738
_symmetry_space_group_name_H-M "P 65 2 2"
_symmetry_group_IT_number 179
_symmetry_cell_setting 'hexagonal'
loop_
_space_group_symop_operation_xyz
x,y,z
x-y,x,5/6+z
-y,x-y,2/3+z
-x,-y,1/2+z
-x+y,-x,1/3+z
y,-x+y,1/6+z
x-y,-y,-z
-x,-x+y,1/3-z
y,x,2/3-z
-y,-x,1/6-z
-x+y,y,1/2-z
x,x-y,5/6-z
loop_
_atom_site_type_symbol
_atom_site_label
_atom_site_fract_x
_atom_site_fract_y
_atom_site_fract_z
Si Si1 0.910546 0.855012 0.609956
Si Si2 0.235004 0.520686 0.466355
Si Si3 0.476355 0.298697 0.006054
Si Si4 0.069475 0.596073 0.754603
Si Si5 0.335806 0.023195 0.254772
O O1 0.889187 0.930280 0.676366
O O2 0.805368 0.748566 0.604518
O O3 0.000000 0.850413 0.666667
O O4 0.250725 0.625363 0.416667
O O5 0.271752 0.523354 0.571341
O O6 0.299166 0.479113 0.409005
O O7 0.114885 0.434139 0.461701
O O8 0.364606 0.278621 0.035988
O O9 0.477567 0.238784 0.916667
O O10 0.530177 0.418557 0.974983
O O11 0.000000 0.543087 0.666667
O O12 0.002462 0.622821 0.821755
#
# Coordination Sequence:
#
# PCOD9583602 Si02
#       5
#    12  12  12  12  12
#     4  10  22  43  70  99 142 192 240 314 363 427
#     4  11  24  45  75 108 149 194 247 301 376 447
#     4  11  26  47  71 108 159 193 248 311 366 451
#     4  11  26  46  71 106 148 194 243 309 370 440
#     4  11  24  45  71 111 145 195 251 301 373 447
#
# _framework density 20.528009999999998
#
# number of rings (size 3 to 8) (size 9 to 14) (size 15 to 20)
#    0.000    1.200    0.000    6.600    5.600    7.200 
#    7.200    0.000    0.000    0.000    0.000    0.000 
#    0.000    0.000    0.000    0.000    0.000    0.000 
#
# Total GULP energy -334695.733082 kJ/mol
# GULP energy per Si atom -5578.262218 kJ/mol
# Density = 2.048129 g / cm^3
# Si number density = 20.528010 Si / 1000 Ang^3
#
#
#
# Elastic Constant Matrix: (Units=GPa)
#
#
# Indices 1 2 3 4 5 6 
#
# 1 131.1363 48.0139 65.7629 0.0000 0.0000 0.0000
# 2 48.0139 131.1363 65.7629 0.0000 0.0000 0.0000
# 3 65.7629 65.7629 166.8604 0.0000 0.0000 0.0000
# 4 0.0000 0.0000 0.0000 41.1876 0.0000 0.0000
# 5 0.0000 0.0000 0.0000 0.0000 41.1876 0.0000
# 6 0.0000 0.0000 0.0000 0.0000 0.0000 41.5612
#
#
#
# Elastic Compliance Matrix: (Units=1/GPa)
#
#
# Indices 1 2 3 4 5 6 
#
# 1 0.009943 -0.002088 -0.003096 0.000000 0.000000 0.000000
# 2 -0.002088 0.009943 -0.003096 0.000000 0.000000 0.000000
# 3 -0.003096 -0.003096 0.008433 0.000000 0.000000 0.000000
# 4 0.000000 0.000000 0.000000 0.024279 0.000000 0.000000
# 5 0.000000 0.000000 0.000000 0.000000 0.024279 0.000000
# 6 0.000000 0.000000 0.000000 0.000000 0.000000 0.024061
#
#
# Mechanical properties :
#
#
# Convention : Reuss Voigt Hill
#
# Bulk Modulus (GPa) = 85.03566 87.57917 86.30742
# Shear Modulus (GPa) = 41.18079 41.42683 41.30381
#
# Velocity S-wave (km/s) = 4.48379 4.49716 4.49048
# Velocity P-wave (km/s) = 8.26559 8.34996 8.30788
#
# Compressibility (1/GPa) = 0.01175977
#
# Stress axis : x y z
#
# Youngs Moduli (GPa) = 100.57789 100.57789 118.57958
#
# Poissons Ratio (x) = 0.21000 0.36708
# Poissons Ratio (y) = 0.21000 0.36708
# Poissons Ratio (z) = 0.31136 0.31136
#
# Static dielectric constant tensor:
#      x y z
#    x 1.778400 0.000000 0.000000 
#    y 0.000000 1.778400 0.000000 
#    z 0.000000 0.000000 1.745280 
# 
# From -- ./inp_files/5789.got.cif
#   From: 2010.05.17/outbox.ucp.g08.bks.cvg/sg179_3_cif.got.tgz:5789.got - 2010.06.11 15:19:48.
