data_PCOD9583878
_publ_section_title
;
Structure prediction by ZEFSAII (Michael W. Deem and Ramdas Pophale) SiO2 
 PCOD9583878
Probable space group: P 62 2 2
;
_chemical_formula_sum "Si O2"
_cell_formula_units_Z 54
_cell_length_a 14.245624
_cell_length_b 14.245624
_cell_length_c 16.893811
_cell_angle_alpha 90.000000
_cell_angle_beta 90.000000
_cell_angle_gamma 120.000000
_cell_volume 2969.075338
_symmetry_space_group_name_H-M "P 62 2 2"
_symmetry_group_IT_number 180
_symmetry_cell_setting 'hexagonal'
loop_
_space_group_symop_operation_xyz
x,y,z
x-y,x,1/3+z
-y,x-y,2/3+z
-x,-y,z
-x+y,-x,1/3+z
y,-x+y,2/3+z
x-y,-y,-z
-x,-x+y,1/3-z
y,x,2/3-z
-y,-x,2/3-z
-x+y,y,-z
x,x-y,1/3-z
loop_
_atom_site_type_symbol
_atom_site_label
_atom_site_fract_x
_atom_site_fract_y
_atom_site_fract_z
Si Si1 0.907860 0.092141 0.333334
Si Si2 0.399598 0.663570 0.577228
Si Si3 0.852722 0.734284 0.302517
Si Si4 0.238746 0.354439 0.131965
Si Si5 0.123353 0.713848 0.897955
O O1 0.897798 0.159996 0.404922
O O2 0.032535 0.153273 0.306026
O O3 0.340075 0.680150 0.500000
O O4 0.372967 0.686484 0.666667
O O5 0.527817 0.736351 0.562004
O O6 0.363313 0.536784 0.576576
O O7 0.763082 0.763082 0.333334
O O8 0.816922 0.681156 0.216961
O O9 0.866844 0.650721 0.358046
O O10 0.349747 0.350170 0.130333
O O11 0.196902 0.803099 0.833334
#
# Coordination Sequence:
#
# PCOD9583878 Si02
#       5
#     6  12  12  12  12
#     4  10  23  36  60  88 128 162 201 248 308 378
#     4  11  23  41  64  89 122 165 216 267 320 370
#     4  11  21  37  62  92 124 160 204 250 313 383
#     4  11  21  40  60  87 125 163 205 252 313 376
#     4  10  21  38  60  89 121 159 199 261 310 370
#
# _framework density 18.187480000000001
#
# number of rings (size 3 to 8) (size 9 to 14) (size 15 to 20)
#    0.000    1.333    3.333    3.000    0.000    0.000 
#    0.000    2.222    0.000    0.000    0.000    0.000 
#    0.000    0.000    0.000    0.000    0.000    0.000 
#
# Total GULP energy -301320.083444 kJ/mol
# GULP energy per Si atom -5580.001545 kJ/mol
# Density = 1.814608 g / cm^3
# Si number density = 18.187480 Si / 1000 Ang^3
#
#
#
# Elastic Constant Matrix: (Units=GPa)
#
#
# Indices 1 2 3 4 5 6 
#
# 1 74.2280 10.2240 38.8270 0.0000 0.0000 0.0000
# 2 10.2240 74.2280 38.8270 0.0000 0.0000 0.0000
# 3 38.8270 38.8270 140.3307 0.0000 0.0000 0.0000
# 4 0.0000 0.0000 0.0000 22.8154 0.0000 0.0000
# 5 0.0000 0.0000 0.0000 0.0000 22.8154 0.0000
# 6 0.0000 0.0000 0.0000 0.0000 0.0000 32.0020
#
#
#
# Elastic Compliance Matrix: (Units=1/GPa)
#
#
# Indices 1 2 3 4 5 6 
#
# 1 0.015753 0.000129 -0.004394 0.000000 0.000000 0.000000
# 2 0.000129 0.015753 -0.004394 0.000000 0.000000 0.000000
# 3 -0.004394 -0.004394 0.009558 0.000000 0.000000 0.000000
# 4 0.000000 0.000000 0.000000 0.043830 0.000000 0.000000
# 5 0.000000 0.000000 0.000000 0.000000 0.043830 0.000000
# 6 0.000000 0.000000 0.000000 0.000000 0.000000 0.031248
#
#
# Mechanical properties :
#
#
# Convention : Reuss Voigt Hill
#
# Bulk Modulus (GPa) = 42.11589 51.61586 46.86587
# Shear Modulus (GPa) = 26.99716 28.92050 27.95883
#
# Velocity S-wave (km/s) = 3.85695 3.99197 3.92504
# Velocity P-wave (km/s) = 6.56060 7.04906 6.80921
#
# Compressibility (1/GPa) = 0.02374401
#
# Stress axis : x y z
#
# Youngs Moduli (GPa) = 63.48107 63.48107 104.62911
#
# Poissons Ratio (x) = -0.00817 0.45975
# Poissons Ratio (y) = -0.00817 0.45975
# Poissons Ratio (z) = 0.27894 0.27894
#
# Static dielectric constant tensor:
#      x y z
#    x 1.613570 0.000000 0.000000 
#    y 0.000000 1.613570 0.000000 
#    z 0.000000 0.000000 1.625680 
# 
# From -- ./inp_files/5941.got.cif
#   From: 2010.05.17/outbox.cif.g08.bks.cpg/sg180_3_cif.got.tgz:5941.got - 2010.05.20 11:43:55.
