data_PCOD9583417
_publ_section_title
;
Structure prediction by ZEFSAII (Michael W. Deem and Ramdas Pophale) SiO2 
 PCOD9583417
Probable space group: P 65 2 2
;
_chemical_formula_sum "Si O2"
_cell_formula_units_Z 72
_cell_length_a 14.667285
_cell_length_b 14.667285
_cell_length_c 18.561205
_cell_angle_alpha 90.000000
_cell_angle_beta 90.000000
_cell_angle_gamma 120.000000
_cell_volume 3458.089751
_symmetry_space_group_name_H-M "P 65 2 2"
_symmetry_group_IT_number 179
_symmetry_cell_setting 'hexagonal'
loop_
_space_group_symop_operation_xyz
x,y,z
x-y,x,5/6+z
-y,x-y,2/3+z
-x,-y,1/2+z
-x+y,-x,1/3+z
y,-x+y,1/6+z
x-y,-y,-z
-x,-x+y,1/3-z
y,x,2/3-z
-y,-x,1/6-z
-x+y,y,1/2-z
x,x-y,5/6-z
loop_
_atom_site_type_symbol
_atom_site_label
_atom_site_fract_x
_atom_site_fract_y
_atom_site_fract_z
Si Si1 0.519370 0.897122 0.804678
Si Si2 0.555774 0.175258 0.943290
Si Si3 0.560988 0.240093 0.102675
Si Si4 0.648478 0.857817 0.684985
Si Si5 0.266909 0.950483 0.079713
Si Si6 0.049104 0.672961 0.744515
O O1 0.475955 0.951910 0.750000
O O2 0.414249 0.798382 0.838220
O O3 0.596149 0.876889 0.755259
O O4 0.583154 0.963362 0.872194
O O5 0.581124 0.290562 0.916667
O O6 0.441552 0.091985 0.910584
O O7 0.641449 0.140598 0.928405
O O8 0.542884 0.175339 0.029385
O O9 0.639361 0.360640 0.083334
O O10 0.448581 0.213573 0.131642
O O11 0.691075 0.783919 0.714769
O O12 0.716928 0.964540 0.640629
O O13 0.152430 0.847571 0.083334
O O14 0.285009 0.000000 0.000000
O O15 0.000000 0.667048 0.666667
#
# Coordination Sequence:
#
# PCOD9583417 Si02
#       6
#    12  12  12  12  12  12
#     4  10  23  39  59  87 132 176 223 272 319 400
#     4  11  21  37  63  98 137 183 226 273 339 404
#     4  11  20  36  59  89 140 179 226 266 317 407
#     4  11  25  40  61  99 128 176 233 279 341 410
#     4  11  24  44  72  97 131 171 230 304 360 405
#     4  12  24  40  65  93 140 188 223 275 344 415
#
# _framework density 20.820744999999999
#
# number of rings (size 3 to 8) (size 9 to 14) (size 15 to 20)
#    0.000    1.000    3.333    4.500    2.333    3.333 
#    0.000    0.000    0.000    1.000    0.000    0.000 
#    0.000    0.000    0.000    0.000    0.000    0.000 
#
# Total GULP energy -402503.598459 kJ/mol
# GULP energy per Si atom -5590.327756 kJ/mol
# Density = 2.077336 g / cm^3
# Si number density = 20.820745 Si / 1000 Ang^3
#
#
#
# Elastic Constant Matrix: (Units=GPa)
#
#
# Indices 1 2 3 4 5 6 
#
# 1 70.7158 37.8842 30.2500 0.0000 0.0000 0.0000
# 2 37.8842 70.7158 30.2500 0.0000 0.0000 0.0000
# 3 30.2500 30.2500 114.3747 0.0000 0.0000 0.0000
# 4 0.0000 0.0000 0.0000 26.4882 0.0000 0.0000
# 5 0.0000 0.0000 0.0000 0.0000 26.4882 0.0000
# 6 0.0000 0.0000 0.0000 0.0000 0.0000 16.4158
#
#
#
# Elastic Compliance Matrix: (Units=1/GPa)
#
#
# Indices 1 2 3 4 5 6 
#
# 1 0.020629 -0.009830 -0.002856 0.000000 0.000000 0.000000
# 2 -0.009830 0.020629 -0.002856 0.000000 0.000000 0.000000
# 3 -0.002856 -0.002856 0.010254 0.000000 0.000000 0.000000
# 4 0.000000 0.000000 0.000000 0.037753 0.000000 0.000000
# 5 0.000000 0.000000 0.000000 0.000000 0.037753 0.000000
# 6 0.000000 0.000000 0.000000 0.000000 0.000000 0.060917
#
#
# Mechanical properties :
#
#
# Convention : Reuss Voigt Hill
#
# Bulk Modulus (GPa) = 48.95308 50.28608 49.61958
# Shear Modulus (GPa) = 22.14080 24.37325 23.25703
#
# Velocity S-wave (km/s) = 3.26452 3.42515 3.34580
# Velocity P-wave (km/s) = 6.14591 6.31241 6.22972
#
# Compressibility (1/GPa) = 0.02042773
#
# Stress axis : x y z
#
# Youngs Moduli (GPa) = 48.47570 48.47570 97.52277
#
# Poissons Ratio (x) = 0.47650 0.27855
# Poissons Ratio (y) = 0.47650 0.27855
# Poissons Ratio (z) = 0.13846 0.13846
#
# Static dielectric constant tensor:
#      x y z
#    x 1.778660 0.000000 0.000000 
#    y 0.000000 1.778660 0.000000 
#    z 0.000000 0.000000 1.768860 
# 
# From -- ./inp_files/6837.got.cif
#   From: 2010.05.17/outbox.cif.g08.bks.cpg/sg179_4_cif.got.tgz:6837.got - 2010.05.20 11:37:33.
