data_PCOD9583439
_publ_section_title
;
Structure prediction by ZEFSAII (Michael W. Deem and Ramdas Pophale) SiO2 
 PCOD9583439
Probable space group: P 65 2 2
;
_chemical_formula_sum "Si O2"
_cell_formula_units_Z 48
_cell_length_a 14.206198
_cell_length_b 14.206198
_cell_length_c 12.425437
_cell_angle_alpha 90.000000
_cell_angle_beta 90.000000
_cell_angle_gamma 120.000000
_cell_volume 2171.690993
_symmetry_space_group_name_H-M "P 65 2 2"
_symmetry_group_IT_number 179
_symmetry_cell_setting 'hexagonal'
loop_
_space_group_symop_operation_xyz
x,y,z
x-y,x,5/6+z
-y,x-y,2/3+z
-x,-y,1/2+z
-x+y,-x,1/3+z
y,-x+y,1/6+z
x-y,-y,-z
-x,-x+y,1/3-z
y,x,2/3-z
-y,-x,1/6-z
-x+y,y,1/2-z
x,x-y,5/6-z
loop_
_atom_site_type_symbol
_atom_site_label
_atom_site_fract_x
_atom_site_fract_y
_atom_site_fract_z
Si Si1 0.183038 0.085241 0.586220
Si Si2 0.902120 0.496455 0.581753
Si Si3 0.585919 0.762183 0.171850
Si Si4 0.469681 0.939361 0.750000
Si Si5 0.766557 0.233444 0.583334
O O1 0.112793 0.126011 0.522969
O O2 0.294186 0.188445 0.623895
O O3 0.188856 0.000000 0.500000
O O4 0.815598 0.536007 0.575376
O O5 0.831029 0.365524 0.577675
O O6 0.000000 0.540421 0.666667
O O7 0.976360 0.553979 0.478038
O O8 0.504683 0.633252 0.158693
O O9 0.591119 0.789308 0.299352
#
# Coordination Sequence:
#
# PCOD9583439 Si02
#       5
#    12  12  12   6   6
#     4  10  23  47  74 102 141 178 241 301 358 418
#     4  12  25  45  70 102 149 185 236 301 351 426
#     4  12  25  44  73 105 140 192 238 286 363 428
#     4  12  25  44  74 108 144 184 240 297 354 422
#     4  12  25  44  68  98 146 190 238 279 358 428
#
# _framework density 22.102592999999999
#
# number of rings (size 3 to 8) (size 9 to 14) (size 15 to 20)
#    0.000    0.500    5.000    3.000    0.000    3.000 
#    0.000    7.500    0.000    0.000    0.000    0.000 
#    0.000    0.000    0.000    0.000    0.000    0.000 
#
# Total GULP energy -267385.643149 kJ/mol
# GULP energy per Si atom -5570.534232 kJ/mol
# Density = 2.205229 g / cm^3
# Si number density = 22.102593 Si / 1000 Ang^3
#
#
#
# Elastic Constant Matrix: (Units=GPa)
#
#
# Indices 1 2 3 4 5 6 
#
# 1 86.3930 46.2974 42.5232 0.0000 0.0000 0.0000
# 2 46.2974 86.3930 42.5232 0.0000 0.0000 0.0000
# 3 42.5232 42.5232 98.4931 0.0000 0.0000 0.0000
# 4 0.0000 0.0000 0.0000 28.1525 0.0000 0.0000
# 5 0.0000 0.0000 0.0000 0.0000 28.1525 0.0000
# 6 0.0000 0.0000 0.0000 0.0000 0.0000 20.0478
#
#
#
# Elastic Compliance Matrix: (Units=1/GPa)
#
#
# Indices 1 2 3 4 5 6 
#
# 1 0.017680 -0.007260 -0.004499 0.000000 0.000000 0.000000
# 2 -0.007260 0.017680 -0.004499 0.000000 0.000000 0.000000
# 3 -0.004499 -0.004499 0.014037 0.000000 0.000000 0.000000
# 4 0.000000 0.000000 0.000000 0.035521 0.000000 0.000000
# 5 0.000000 0.000000 0.000000 0.000000 0.035521 0.000000
# 6 0.000000 0.000000 0.000000 0.000000 0.000000 0.049881
#
#
# Mechanical properties :
#
#
# Convention : Reuss Voigt Hill
#
# Bulk Modulus (GPa) = 59.23311 59.32965 59.28138
# Shear Modulus (GPa) = 23.98515 24.59959 24.29237
#
# Velocity S-wave (km/s) = 3.29777 3.33974 3.31882
# Velocity P-wave (km/s) = 6.43100 6.46320 6.44712
#
# Compressibility (1/GPa) = 0.01688245
#
# Stress axis : x y z
#
# Youngs Moduli (GPa) = 56.56099 56.56099 71.23826
#
# Poissons Ratio (x) = 0.41065 0.32047
# Poissons Ratio (y) = 0.41065 0.32047
# Poissons Ratio (z) = 0.25444 0.25444
#
# Static dielectric constant tensor:
#      x y z
#    x 1.797180 0.000000 0.000000 
#    y 0.000000 1.797180 0.000000 
#    z 0.000000 0.000000 4.025600 
# 
# From -- ./inp_files/4305.got.cif
#   From: 2010.05.17/outbox.cif.g08.bks.cpg/sg179_3_cif.got.tgz:4305.got - 2010.05.20 11:37:33.
