data_PCOD9583214
_publ_section_title
;
Structure prediction by ZEFSAII (Michael W. Deem and Ramdas Pophale) SiO2 
 PCOD9583214
Probable space group: P 65 2 2
;
_chemical_formula_sum "Si O2"
_cell_formula_units_Z 72
_cell_length_a 14.619997
_cell_length_b 14.619997
_cell_length_c 17.480428
_cell_angle_alpha 90.000000
_cell_angle_beta 90.000000
_cell_angle_gamma 120.000000
_cell_volume 3235.767142
_symmetry_space_group_name_H-M "P 65 2 2"
_symmetry_group_IT_number 179
_symmetry_cell_setting 'hexagonal'
loop_
_space_group_symop_operation_xyz
x,y,z
x-y,x,5/6+z
-y,x-y,2/3+z
-x,-y,1/2+z
-x+y,-x,1/3+z
y,-x+y,1/6+z
x-y,-y,-z
-x,-x+y,1/3-z
y,x,2/3-z
-y,-x,1/6-z
-x+y,y,1/2-z
x,x-y,5/6-z
loop_
_atom_site_type_symbol
_atom_site_label
_atom_site_fract_x
_atom_site_fract_y
_atom_site_fract_z
Si Si1 0.219270 0.243710 0.221480
Si Si2 0.095958 0.782742 0.395206
Si Si3 0.248280 0.711842 0.740350
Si Si4 0.539009 0.480748 0.173870
Si Si5 0.731339 0.682374 0.247716
Si Si6 0.905920 0.526174 0.723492
O O1 0.100091 0.200181 0.250000
O O2 0.262150 0.168324 0.245665
O O3 0.250199 0.265632 0.132051
O O4 0.284472 0.358030 0.259453
O O5 0.173010 0.735210 0.408096
O O6 0.039626 0.759452 0.313435
O O7 0.352867 0.705733 0.750000
O O8 0.150256 0.631147 0.793654
O O9 0.202697 0.669778 0.655040
O O10 0.649861 0.568565 0.210459
O O11 0.452590 0.512782 0.202094
O O12 0.530819 0.469182 0.083334
O O13 0.697701 0.697701 0.333334
O O14 0.848680 0.697359 0.250000
O O15 0.000000 0.542245 0.666667
#
# Coordination Sequence:
#
# PCOD9583214 Si02
#       6
#    12  12  12  12  12  12
#     4  12  21  43  74 109 144 195 241 320 389 451
#     4  12  26  45  75 108 149 191 259 311 386 459
#     4  11  24  46  72 115 151 195 249 320 386 468
#     4  11  24  45  78 106 151 203 259 309 383 472
#     4  12  28  50  76 106 153 210 257 318 387 467
#     4  10  19  42  69 104 145 188 246 304 377 449
#
# _framework density 22.251293
#
# number of rings (size 3 to 8) (size 9 to 14) (size 15 to 20)
#    0.000    0.667    5.000    4.500    2.333    2.000 
#    3.000    5.000    0.000    0.000    0.000    0.000 
#    0.000    0.000    0.000    0.000    0.000    0.000 
#
# Total GULP energy -402477.864890 kJ/mol
# GULP energy per Si atom -5589.970346 kJ/mol
# Density = 2.220065 g / cm^3
# Si number density = 22.251293 Si / 1000 Ang^3
#
#
#
# Elastic Constant Matrix: (Units=GPa)
#
#
# Indices 1 2 3 4 5 6 
#
# 1 92.0916 40.6053 35.6400 0.0000 0.0000 0.0000
# 2 40.6053 92.0916 35.6400 0.0000 0.0000 0.0000
# 3 35.6400 35.6400 182.0121 0.0000 0.0000 0.0000
# 4 0.0000 0.0000 0.0000 39.3909 0.0000 0.0000
# 5 0.0000 0.0000 0.0000 0.0000 39.3909 0.0000
# 6 0.0000 0.0000 0.0000 0.0000 0.0000 25.7432
#
#
#
# Elastic Compliance Matrix: (Units=1/GPa)
#
#
# Indices 1 2 3 4 5 6 
#
# 1 0.013922 -0.005500 -0.001649 0.000000 0.000000 0.000000
# 2 -0.005500 0.013922 -0.001649 0.000000 0.000000 0.000000
# 3 -0.001649 -0.001649 0.006140 0.000000 0.000000 0.000000
# 4 0.000000 0.000000 0.000000 0.025387 0.000000 0.000000
# 5 0.000000 0.000000 0.000000 0.000000 0.025387 0.000000
# 6 0.000000 0.000000 0.000000 0.000000 0.000000 0.038845
#
#
# Mechanical properties :
#
#
# Convention : Reuss Voigt Hill
#
# Bulk Modulus (GPa) = 61.02315 65.55178 63.28746
# Shear Modulus (GPa) = 34.09190 37.85898 35.97544
#
# Velocity S-wave (km/s) = 3.91849 4.12931 4.02528
# Velocity P-wave (km/s) = 6.92509 7.22902 7.07868
#
# Compressibility (1/GPa) = 0.01638722
#
# Stress axis : x y z
#
# Youngs Moduli (GPa) = 71.82765 71.82765 162.86752
#
# Poissons Ratio (x) = 0.39508 0.26858
# Poissons Ratio (y) = 0.39508 0.26858
# Poissons Ratio (z) = 0.11845 0.11845
#
# Static dielectric constant tensor:
#      x y z
#    x 1.819080 0.000000 0.000000 
#    y 0.000000 1.819080 0.000000 
#    z 0.000000 0.000000 1.899740 
# 
# From -- ./inp_files/6809.got.cif
#   From: 2010.05.17/outbox.cif.g08.bks.cpg/sg179_4_cif.got.tgz:6809.got - 2010.05.20 11:37:33.
