data_PCOD9583797
_publ_section_title
;
Structure prediction by ZEFSAII (Michael W. Deem and Ramdas Pophale) SiO2 
 PCOD9583797
Probable space group: P 62 2 2
;
_chemical_formula_sum "Si O2"
_cell_formula_units_Z 48
_cell_length_a 14.811027
_cell_length_b 14.811027
_cell_length_c 11.775192
_cell_angle_alpha 90.000000
_cell_angle_beta 90.000000
_cell_angle_gamma 120.000000
_cell_volume 2237.015412
_symmetry_space_group_name_H-M "P 62 2 2"
_symmetry_group_IT_number 180
_symmetry_cell_setting 'hexagonal'
loop_
_space_group_symop_operation_xyz
x,y,z
x-y,x,1/3+z
-y,x-y,2/3+z
-x,-y,z
-x+y,-x,1/3+z
y,-x+y,2/3+z
x-y,-y,-z
-x,-x+y,1/3-z
y,x,2/3-z
-y,-x,2/3-z
-x+y,y,-z
x,x-y,1/3-z
loop_
_atom_site_type_symbol
_atom_site_label
_atom_site_fract_x
_atom_site_fract_y
_atom_site_fract_z
Si Si1 0.162326 0.743013 0.456773
Si Si2 0.468514 0.109944 0.436482
Si Si3 0.307458 0.250526 0.215567
Si Si4 0.889606 0.409103 0.840680
O O1 0.210662 0.789339 0.333334
O O2 0.236114 0.830106 0.545425
O O3 0.176288 0.643964 0.488303
O O4 0.042285 0.714695 0.468416
O O5 0.580710 0.161419 0.500000
O O6 0.487149 0.100291 0.305708
O O7 0.404484 0.000000 0.500000
O O8 0.255672 0.255672 0.333334
O O9 0.272647 0.136324 0.166667
O O10 0.434589 0.308801 0.227144
O O11 0.000000 0.500000 0.797491
#
# Coordination Sequence:
#
# PCOD9583797 Si02
#       4
#    12  12  12  12
#     4  11  22  37  66  97 128 178 238 288 361 438
#     4  11  18  34  60  91 130 167 223 291 349 424
#     4  11  25  46  68  97 140 191 239 296 374 448
#     4  10  20  37  58  89 126 167 223 281 353 427
#
# _framework density 21.457160999999999
#
# number of rings (size 3 to 8) (size 9 to 14) (size 15 to 20)
#    0.000    1.250    5.000    3.000    0.000    5.500 
#    0.000    0.000    0.000    6.000    0.000    0.000 
#    0.000    0.000    0.000    0.000    0.000    0.000 
#
# Total GULP energy -267741.280805 kJ/mol
# GULP energy per Si atom -5577.943350 kJ/mol
# Density = 2.140832 g / cm^3
# Si number density = 21.457161 Si / 1000 Ang^3
#
#
#
# Elastic Constant Matrix: (Units=GPa)
#
#
# Indices 1 2 3 4 5 6 
#
# 1 109.4604 53.9674 29.6175 0.0000 0.0000 0.0000
# 2 53.9674 109.4604 29.6175 0.0000 0.0000 0.0000
# 3 29.6175 29.6175 103.4188 0.0000 0.0000 0.0000
# 4 0.0000 0.0000 0.0000 23.7057 0.0000 0.0000
# 5 0.0000 0.0000 0.0000 0.0000 23.7057 0.0000
# 6 0.0000 0.0000 0.0000 0.0000 0.0000 27.7465
#
#
#
# Elastic Compliance Matrix: (Units=1/GPa)
#
#
# Indices 1 2 3 4 5 6 
#
# 1 0.012424 -0.005596 -0.001955 0.000000 0.000000 0.000000
# 2 -0.005596 0.012424 -0.001955 0.000000 0.000000 0.000000
# 3 -0.001955 -0.001955 0.010789 0.000000 0.000000 0.000000
# 4 0.000000 0.000000 0.000000 0.042184 0.000000 0.000000
# 5 0.000000 0.000000 0.000000 0.000000 0.042184 0.000000
# 6 0.000000 0.000000 0.000000 0.000000 0.000000 0.036041
#
#
# Mechanical properties :
#
#
# Convention : Reuss Voigt Hill
#
# Bulk Modulus (GPa) = 60.15648 60.97164 60.56406
# Shear Modulus (GPa) = 27.68534 28.97404 28.32969
#
# Velocity S-wave (km/s) = 3.59592 3.67866 3.63752
# Velocity P-wave (km/s) = 6.73330 6.82060 6.77709
#
# Compressibility (1/GPa) = 0.01662331
#
# Stress axis : x y z
#
# Youngs Moduli (GPa) = 80.48967 80.48967 92.68383
#
# Poissons Ratio (x) = 0.45045 0.18123
# Poissons Ratio (y) = 0.45045 0.18123
# Poissons Ratio (z) = 0.15738 0.15738
#
# Static dielectric constant tensor:
#      x y z
#    x 1.822330 0.000000 0.000000 
#    y 0.000000 1.822330 0.000000 
#    z 0.000000 0.000000 1.843370 
# 
# From -- ./inp_files/4349.got.cif
#   From: 2010.05.17/outbox.cif.g08.bks.cpg/sg180_3_cif.got.tgz:4349.got - 2010.05.20 11:43:55.
