data_PCOD9583461
_publ_section_title
;
Structure prediction by ZEFSAII (Michael W. Deem and Ramdas Pophale) SiO2 
 PCOD9583461
Probable space group: P 65 2 2
;
_chemical_formula_sum "Si O2"
_cell_formula_units_Z 60
_cell_length_a 14.758955
_cell_length_b 14.758955
_cell_length_c 14.382684
_cell_angle_alpha 90.000000
_cell_angle_beta 90.000000
_cell_angle_gamma 120.000000
_cell_volume 2713.199870
_symmetry_space_group_name_H-M "P 65 2 2"
_symmetry_group_IT_number 179
_symmetry_cell_setting 'hexagonal'
loop_
_space_group_symop_operation_xyz
x,y,z
x-y,x,5/6+z
-y,x-y,2/3+z
-x,-y,1/2+z
-x+y,-x,1/3+z
y,-x+y,1/6+z
x-y,-y,-z
-x,-x+y,1/3-z
y,x,2/3-z
-y,-x,1/6-z
-x+y,y,1/2-z
x,x-y,5/6-z
loop_
_atom_site_type_symbol
_atom_site_label
_atom_site_fract_x
_atom_site_fract_y
_atom_site_fract_z
Si Si1 0.066781 0.715190 0.576521
Si Si2 0.498787 0.926178 0.588191
Si Si3 0.245947 0.534299 0.856687
Si Si4 0.111842 0.999496 0.803351
Si Si5 0.700386 0.670574 0.122661
O O1 0.180140 0.819861 0.583334
O O2 0.073738 0.609245 0.572434
O O3 0.000000 0.708254 0.666667
O O4 0.000914 0.700469 0.483981
O O5 0.465862 0.807454 0.572654
O O6 0.559816 0.000000 0.500000
O O7 0.582672 0.967558 0.670907
O O8 0.283340 0.566680 0.750000
O O9 0.216394 0.608197 0.916667
O O10 0.149182 0.416704 0.859795
O O11 0.110780 0.015141 0.691422
O O12 0.098241 0.098241 0.833334
O O13 0.218215 0.003086 0.832175
#
# Coordination Sequence:
#
# PCOD9583461 Si02
#       5
#    12  12  12  12  12
#     4  11  28  50  73 108 152 198 258 317 396 475
#     4  11  24  46  77 107 145 192 249 312 378 463
#     4  12  27  44  75 112 152 189 250 314 388 462
#     4  10  24  45  71 106 147 195 251 312 374 444
#     4  12  26  48  75 108 147 202 252 315 384 466
#
# _framework density 22.114111000000001
#
# number of rings (size 3 to 8) (size 9 to 14) (size 15 to 20)
#    0.000    0.800    2.000    3.600   11.200    4.800 
#    7.200    0.000    0.000    0.000    0.000    0.000 
#    0.000    0.000    0.000    0.000    0.000    0.000 
#
# Total GULP energy -334924.973815 kJ/mol
# GULP energy per Si atom -5582.082897 kJ/mol
# Density = 2.206378 g / cm^3
# Si number density = 22.114111 Si / 1000 Ang^3
#
#
#
# Elastic Constant Matrix: (Units=GPa)
#
#
# Indices 1 2 3 4 5 6 
#
# 1 41.9659 69.2680 32.2529 0.0000 0.0000 0.0000
# 2 69.2680 41.9659 32.2529 0.0000 0.0000 0.0000
# 3 32.2529 32.2529 133.4621 0.0000 0.0000 0.0000
# 4 0.0000 0.0000 0.0000 30.1096 0.0000 0.0000
# 5 0.0000 0.0000 0.0000 0.0000 30.1096 0.0000
# 6 0.0000 0.0000 0.0000 0.0000 0.0000 -13.6511
#
#
#
# Elastic Compliance Matrix: (Units=1/GPa)
#
#
# Indices 1 2 3 4 5 6 
#
# 1 -0.013086 0.023541 -0.002527 0.000000 0.000000 0.000000
# 2 0.023541 -0.013086 -0.002527 0.000000 0.000000 0.000000
# 3 -0.002527 -0.002527 0.008714 0.000000 0.000000 0.000000
# 4 0.000000 0.000000 0.000000 0.033212 0.000000 0.000000
# 5 0.000000 0.000000 0.000000 0.000000 0.033212 0.000000
# 6 0.000000 0.000000 0.000000 0.000000 0.000000 -0.073254
#
#
# Mechanical properties :
#
#
# Convention : Reuss Voigt Hill
#
# Bulk Modulus (GPa) = 51.23496 53.88238 52.55867
# Shear Modulus (GPa) = -91.31047 14.88830 -38.21108
#
# Velocity S-wave (km/s) = -6.43275 2.59752 -4.16132
# Velocity P-wave (km/s) = 5.65287 5.78054 0.85433
#
# Compressibility (1/GPa) = 0.01951792
#
# Stress axis : x y z
#
# Youngs Moduli (GPa) = -76.41780 -76.41780 114.75835
#
# Poissons Ratio (x) = 1.79897 0.28996
# Poissons Ratio (y) = 1.79897 0.28996
# Poissons Ratio (z) = -0.19308 -0.19308
#
# Static dielectric constant tensor:
#      x y z
#    x 1.809540 0.000000 0.000000 
#    y 0.000000 1.809540 0.000000 
#    z 0.000000 0.000000 1.888760 
# 
# From -- ./inp_files/5783.got.cif
#   From: 2010.05.17/outbox.cif.g08.bks.cpg/sg179_3_cif.got.tgz:5783.got - 2010.05.20 11:37:33.
