data_PCOD9583480
_publ_section_title
;
Structure prediction by ZEFSAII (Michael W. Deem and Ramdas Pophale) SiO2 
 PCOD9583480
Probable space group: P 65 2 2
;
_chemical_formula_sum "Si O2"
_cell_formula_units_Z 36
_cell_length_a 7.783046
_cell_length_b 7.783046
_cell_length_c 27.427311
_cell_angle_alpha 90.000000
_cell_angle_beta 90.000000
_cell_angle_gamma 120.000000
_cell_volume 1438.841837
_symmetry_space_group_name_H-M "P 65 2 2"
_symmetry_group_IT_number 179
_symmetry_cell_setting 'hexagonal'
loop_
_space_group_symop_operation_xyz
x,y,z
x-y,x,5/6+z
-y,x-y,2/3+z
-x,-y,1/2+z
-x+y,-x,1/3+z
y,-x+y,1/6+z
x-y,-y,-z
-x,-x+y,1/3-z
y,x,2/3-z
-y,-x,1/6-z
-x+y,y,1/2-z
x,x-y,5/6-z
loop_
_atom_site_type_symbol
_atom_site_label
_atom_site_fract_x
_atom_site_fract_y
_atom_site_fract_z
Si Si1 0.700369 0.299632 0.083334
Si Si2 0.329641 0.670360 0.083334
Si Si3 0.904613 0.673571 0.841144
Si Si4 0.030311 0.728792 0.274624
O O1 0.703923 0.171903 0.128072
O O2 0.468392 0.182983 0.070326
O O3 0.529478 0.731277 0.053997
O O4 0.154197 0.661480 0.048751
O O5 0.813107 0.813107 0.833334
O O6 0.137401 0.822828 0.849695
O O7 0.916128 0.832255 0.250000
#
# Coordination Sequence:
#
# PCOD9583480 Si02
#       4
#     6   6  12  12
#     4  12  27  49  78 118 162 210 267 335 404 492
#     4  10  25  53  74 110 162 204 265 335 388 478
#     4  12  26  49  79 114 159 211 273 325 411 483
#     4  10  26  48  78 111 156 206 266 325 398 467
#
# _framework density 25.020125
#
# number of rings (size 3 to 8) (size 9 to 14) (size 15 to 20)
#    1.000    0.000    3.333    1.000    7.000    4.000 
#    0.000    0.000    0.000    0.000    0.000    0.000 
#    0.000    0.000    0.000    0.000    0.000    0.000 
#
# Total GULP energy -200942.632457 kJ/mol
# GULP energy per Si atom -5581.739790 kJ/mol
# Density = 2.496318 g / cm^3
# Si number density = 25.020125 Si / 1000 Ang^3
#
#
#
# Elastic Constant Matrix: (Units=GPa)
#
#
# Indices 1 2 3 4 5 6 
#
# 1 74.3815 115.0580 32.0646 0.0000 0.0000 0.0000
# 2 115.0580 74.3815 32.0646 0.0000 0.0000 0.0000
# 3 32.0646 32.0646 83.4053 0.0000 0.0000 0.0000
# 4 0.0000 0.0000 0.0000 31.8891 0.0000 0.0000
# 5 0.0000 0.0000 0.0000 0.0000 31.8891 0.0000
# 6 0.0000 0.0000 0.0000 0.0000 0.0000 -20.3383
#
#
#
# Elastic Compliance Matrix: (Units=1/GPa)
#
#
# Indices 1 2 3 4 5 6 
#
# 1 -0.009258 0.015326 -0.002333 0.000000 0.000000 0.000000
# 2 0.015326 -0.009258 -0.002333 0.000000 0.000000 0.000000
# 3 -0.002333 -0.002333 0.013783 0.000000 0.000000 0.000000
# 4 0.000000 0.000000 0.000000 0.031359 0.000000 0.000000
# 5 0.000000 0.000000 0.000000 0.000000 0.031359 0.000000
# 6 0.000000 0.000000 0.000000 0.000000 0.000000 -0.049168
#
#
# Mechanical properties :
#
#
# Convention : Reuss Voigt Hill
#
# Bulk Modulus (GPa) = 60.28279 65.61583 62.94931
# Shear Modulus (GPa) = -716.89988 12.22005 -352.33992
#
# Velocity S-wave (km/s) = -16.94554 2.21239 -11.87974
# Velocity P-wave (km/s) = 18.93997 5.72786 12.76546
#
# Compressibility (1/GPa) = 0.01658848
#
# Stress axis : x y z
#
# Youngs Moduli (GPa) = -108.01643 -108.01643 72.55076
#
# Poissons Ratio (x) = 1.65550 0.16926
# Poissons Ratio (y) = 1.65550 0.16926
# Poissons Ratio (z) = -0.25200 -0.25200
#
# Static dielectric constant tensor:
#      x y z
#    x 2.339230 0.000000 0.000000 
#    y 0.000000 2.339230 0.000000 
#    z 0.000000 0.000000 2.037600 
# 
# From -- ./inp_files/8618.got.cif
#   From: 2010.05.17/outbox.cif.g08.bks.cpg/sg179_5_cif.got.tgz:8618.got - 2010.05.20 11:37:33.
