data_PCOD9583662
_publ_section_title
;
Structure prediction by ZEFSAII (Michael W. Deem and Ramdas Pophale) SiO2 
 PCOD9583662
Probable space group: P 62 2 2
;
_chemical_formula_sum "Si O2"
_cell_formula_units_Z 90
_cell_length_a 18.132121
_cell_length_b 18.132121
_cell_length_c 17.577214
_cell_angle_alpha 90.000000
_cell_angle_beta 90.000000
_cell_angle_gamma 120.000000
_cell_volume 5004.698152
_symmetry_space_group_name_H-M "P 62 2 2"
_symmetry_group_IT_number 180
_symmetry_cell_setting 'hexagonal'
loop_
_space_group_symop_operation_xyz
x,y,z
x-y,x,1/3+z
-y,x-y,2/3+z
-x,-y,z
-x+y,-x,1/3+z
y,-x+y,2/3+z
x-y,-y,-z
-x,-x+y,1/3-z
y,x,2/3-z
-y,-x,2/3-z
-x+y,y,-z
x,x-y,1/3-z
loop_
_atom_site_type_symbol
_atom_site_label
_atom_site_fract_x
_atom_site_fract_y
_atom_site_fract_z
Si Si1 0.338584 0.757369 0.657366
Si Si2 0.692715 0.759175 0.652754
Si Si3 0.209037 0.761677 0.541660
Si Si4 0.000000 0.749250 0.666667
Si Si5 0.974970 0.326525 0.509027
Si Si6 0.185078 0.884173 0.647394
Si Si7 0.710120 0.151844 0.776783
Si Si8 0.169187 0.688604 0.278734
O O1 0.334790 0.667395 0.666667
O O2 0.259709 0.741874 0.605104
O O3 0.333995 0.801131 0.735459
O O4 0.428399 0.823867 0.618566
O O5 0.698747 0.849374 0.666667
O O6 0.691052 0.737829 0.563073
O O7 0.768744 0.753638 0.692686
O O8 0.602621 0.688436 0.690044
O O9 0.190729 0.833993 0.574622
O O10 0.269790 0.802506 0.470063
O O11 0.116899 0.680771 0.521685
O O12 0.996491 0.698674 0.743983
O O13 0.086517 0.838852 0.669326
O O14 0.060746 0.411907 0.483295
O O15 0.238079 0.867292 0.712317
O O16 0.780789 0.219212 0.833334
O O17 0.243349 0.756652 0.333334
#
# Coordination Sequence:
#
# PCOD9583662 Si02
#       8
#    12  12  12   6  12  12  12  12
#     4  10  23  38  61  82 117 157 201 246 307 374
#     4  10  19  36  56  85 117 159 200 244 299 358
#     4  10  19  37  59  88 110 154 196 242 303 358
#     4  10  18  34  57  90 117 162 196 242 304 362
#     4  10  19  35  63  83 119 153 198 252 293 366
#     4   9  20  33  58  88 117 153 200 243 299 364
#     4  10  19  37  58  87 115 153 197 250 296 358
#     4  10  19  36  57  81 112 155 197 238 288 365
#
# _framework density 17.983103
#
# number of rings (size 3 to 8) (size 9 to 14) (size 15 to 20)
#    0.000    2.133    4.000    0.400    0.000    2.667 
#    0.000    6.333    0.000    5.600    0.000    1.867 
#    0.000    0.000    0.000    0.000    0.000    0.000 
#
# Total GULP energy -501217.538488 kJ/mol
# GULP energy per Si atom -5569.083761 kJ/mol
# Density = 1.794217 g / cm^3
# Si number density = 17.983103 Si / 1000 Ang^3
#
#
#
# Elastic Constant Matrix: (Units=GPa)
#
#
# Indices 1 2 3 4 5 6 
#
# 1 93.0307 37.0719 22.4917 0.0000 0.0000 0.0000
# 2 37.0719 93.0307 22.4917 0.0000 0.0000 0.0000
# 3 22.4917 22.4917 78.0178 0.0000 0.0000 0.0000
# 4 0.0000 0.0000 0.0000 23.7109 0.0000 0.0000
# 5 0.0000 0.0000 0.0000 0.0000 23.7109 0.0000
# 6 0.0000 0.0000 0.0000 0.0000 0.0000 27.9794
#
#
#
# Elastic Compliance Matrix: (Units=1/GPa)
#
#
# Indices 1 2 3 4 5 6 
#
# 1 0.013204 -0.004667 -0.002461 0.000000 0.000000 0.000000
# 2 -0.004667 0.013204 -0.002461 0.000000 0.000000 0.000000
# 3 -0.002461 -0.002461 0.014237 0.000000 0.000000 0.000000
# 4 0.000000 0.000000 0.000000 0.042175 0.000000 0.000000
# 5 0.000000 0.000000 0.000000 0.000000 0.042175 0.000000
# 6 0.000000 0.000000 0.000000 0.000000 0.000000 0.035741
#
#
# Mechanical properties :
#
#
# Convention : Reuss Voigt Hill
#
# Bulk Modulus (GPa) = 46.58457 47.57661 47.08059
# Shear Modulus (GPa) = 26.72832 27.21516 26.97174
#
# Velocity S-wave (km/s) = 3.85944 3.89443 3.87698
# Velocity P-wave (km/s) = 6.76914 6.83636 6.80283
#
# Compressibility (1/GPa) = 0.02146634
#
# Stress axis : x y z
#
# Youngs Moduli (GPa) = 75.73604 75.73604 70.24126
#
# Poissons Ratio (x) = 0.35343 0.17288
# Poissons Ratio (y) = 0.35343 0.17288
# Poissons Ratio (z) = 0.18640 0.18640
#
# Static dielectric constant tensor:
#      x y z
#    x 1.634710 0.000000 0.000000 
#    y 0.000000 1.634710 0.000000 
#    z 0.000000 0.000000 1.572050 
# 
# From -- ./inp_files/7995.got.cif
#   From: 2010.05.17/outbox.cif.g08.bks.cpg/sg180_4_cif.got.tgz:7995.got - 2010.05.20 11:43:55.
