data_PCOD9583997
_publ_section_title
;
Structure prediction by ZEFSAII (Michael W. Deem and Ramdas Pophale) SiO2 
 PCOD9583997
Probable space group: P 62 2 2
;
_chemical_formula_sum "Si O2"
_cell_formula_units_Z 84
_cell_length_a 14.013990
_cell_length_b 14.013990
_cell_length_c 22.368718
_cell_angle_alpha 90.000000
_cell_angle_beta 90.000000
_cell_angle_gamma 120.000000
_cell_volume 3804.480239
_symmetry_space_group_name_H-M "P 62 2 2"
_symmetry_group_IT_number 180
_symmetry_cell_setting 'hexagonal'
loop_
_space_group_symop_operation_xyz
x,y,z
x-y,x,1/3+z
-y,x-y,2/3+z
-x,-y,z
-x+y,-x,1/3+z
y,-x+y,2/3+z
x-y,-y,-z
-x,-x+y,1/3-z
y,x,2/3-z
-y,-x,2/3-z
-x+y,y,-z
x,x-y,1/3-z
loop_
_atom_site_type_symbol
_atom_site_label
_atom_site_fract_x
_atom_site_fract_y
_atom_site_fract_z
Si Si1 0.775577 0.242672 0.944635
Si Si2 0.813115 0.656459 0.272009
Si Si3 0.055729 0.781237 0.798411
Si Si4 0.396702 0.246865 0.524532
Si Si5 0.231804 0.929152 0.371940
Si Si6 0.420281 0.533939 0.990263
Si Si7 0.693486 0.315390 0.230293
O O1 0.791004 0.165649 0.897057
O O2 0.687063 0.269414 0.915401
O O3 0.750555 0.174297 0.006208
O O4 0.868649 0.368866 0.963444
O O5 0.781685 0.749762 0.255312
O O6 0.786243 0.590625 0.209676
O O7 0.941796 0.712350 0.285803
O O8 0.103273 0.896727 0.833334
O O9 0.980736 0.682744 0.845495
O O10 0.338379 0.137761 0.565712
O O11 0.515731 0.322279 0.553411
O O12 0.121081 0.878920 0.333334
O O13 0.313431 0.900490 0.333766
O O14 0.500000 0.500000 0.956796
O O15 0.373317 0.593070 0.948851
O O16 0.736876 0.368438 0.166667
#
# Coordination Sequence:
#
# PCOD9583997 Si02
#       7
#    12  12  12  12  12  12  12
#     4  12  23  44  70 104 145 192 244 297 374 446
#     4  10  23  43  74  99 148 195 244 313 373 452
#     4  10  25  46  73  97 147 203 248 304 364 459
#     4   9  23  44  71 100 144 191 242 308 377 440
#     4  11  22  42  72 111 141 187 244 314 381 449
#     4  11  23  41  73 104 143 188 238 310 376 444
#     4  11  24  43  71 104 144 187 247 309 371 454
#
# _framework density 22.079232999999999
#
# number of rings (size 3 to 8) (size 9 to 14) (size 15 to 20)
#    0.857    0.571    1.429    4.286    2.000    1.429 
#    0.000    3.571    3.143    0.000    0.000    0.000 
#    0.000    0.000    0.000    0.000    0.000    0.000 
#
# Total GULP energy -467608.429785 kJ/mol
# GULP energy per Si atom -5566.767021 kJ/mol
# Density = 2.202898 g / cm^3
# Si number density = 22.079233 Si / 1000 Ang^3
#
#
#
# Elastic Constant Matrix: (Units=GPa)
#
#
# Indices 1 2 3 4 5 6 
#
# 1 100.1820 45.4038 25.0706 0.0000 0.0000 0.0000
# 2 45.4038 100.1820 25.0706 0.0000 0.0000 0.0000
# 3 25.0706 25.0706 67.3702 0.0000 0.0000 0.0000
# 4 0.0000 0.0000 0.0000 21.7000 0.0000 0.0000
# 5 0.0000 0.0000 0.0000 0.0000 21.7000 0.0000
# 6 0.0000 0.0000 0.0000 0.0000 0.0000 27.3891
#
#
#
# Elastic Compliance Matrix: (Units=1/GPa)
#
#
# Indices 1 2 3 4 5 6 
#
# 1 0.013067 -0.005188 -0.002932 0.000000 0.000000 0.000000
# 2 -0.005188 0.013067 -0.002932 0.000000 0.000000 0.000000
# 3 -0.002932 -0.002932 0.017025 0.000000 0.000000 0.000000
# 4 0.000000 0.000000 0.000000 0.046083 0.000000 0.000000
# 5 0.000000 0.000000 0.000000 0.000000 0.046083 0.000000
# 6 0.000000 0.000000 0.000000 0.000000 0.000000 0.036511
#
#
# Mechanical properties :
#
#
# Convention : Reuss Voigt Hill
#
# Bulk Modulus (GPa) = 47.49440 50.98045 49.23742
# Shear Modulus (GPa) = 24.88071 25.63711 25.25891
#
# Velocity S-wave (km/s) = 3.36055 3.41125 3.38599
# Velocity P-wave (km/s) = 6.05106 6.21735 6.13477
#
# Compressibility (1/GPa) = 0.02105512
#
# Stress axis : x y z
#
# Youngs Moduli (GPa) = 76.52869 76.52869 58.73564
#
# Poissons Ratio (x) = 0.39706 0.17220
# Poissons Ratio (y) = 0.39706 0.17220
# Poissons Ratio (z) = 0.22437 0.22437
#
# Static dielectric constant tensor:
#      x y z
#    x 1.854330 0.000000 0.000000 
#    y 0.000000 1.854330 0.000000 
#    z 0.000000 0.000000 1.869320 
# 
# From -- ./inp_files/11390.got.cif
#   From: 2010.05.17/outbox.cif.g08.bks.cpg/sg180_6_cif.got.tgz:11390.got - 2010.05.20 11:43:55.
