data_PCOD9583334
_publ_section_title
;
Structure prediction by ZEFSAII (Michael W. Deem and Ramdas Pophale) SiO2 
 PCOD9583334
Probable space group: P 65 2 2
;
_chemical_formula_sum "Si O2"
_cell_formula_units_Z 54
_cell_length_a 24.171149
_cell_length_b 24.171149
_cell_length_c 5.623440
_cell_angle_alpha 90.000000
_cell_angle_beta 90.000000
_cell_angle_gamma 120.000000
_cell_volume 2845.294920
_symmetry_space_group_name_H-M "P 65 2 2"
_symmetry_group_IT_number 179
_symmetry_cell_setting 'hexagonal'
loop_
_space_group_symop_operation_xyz
x,y,z
x-y,x,5/6+z
-y,x-y,2/3+z
-x,-y,1/2+z
-x+y,-x,1/3+z
y,-x+y,1/6+z
x-y,-y,-z
-x,-x+y,1/3-z
y,x,2/3-z
-y,-x,1/6-z
-x+y,y,1/2-z
x,x-y,5/6-z
loop_
_atom_site_type_symbol
_atom_site_label
_atom_site_fract_x
_atom_site_fract_y
_atom_site_fract_z
Si Si1 0.567881 0.135761 0.750000
Si Si2 0.293257 0.827524 0.154960
Si Si3 0.803475 0.129554 0.832977
Si Si4 0.530713 0.469288 0.583334
Si Si5 0.286096 0.000000 0.500000
Si Si6 0.053501 0.649232 0.351550
O O1 0.644457 0.169693 0.767329
O O2 0.551526 0.097364 0.502596
O O3 0.251533 0.850340 0.306057
O O4 0.244113 0.755888 0.083334
O O5 0.318496 0.876923 0.932635
O O6 0.842821 0.157180 0.583334
O O7 0.840970 0.159031 0.083334
O O8 0.772260 0.052353 0.844307
O O9 0.576544 0.545469 0.594859
O O10 0.352541 0.047462 0.369700
O O11 0.000000 0.639808 0.166667
#
# Coordination Sequence:
#
# PCOD9583334 Si02
#       6
#     6  12  12   6   6  12
#     4  10  22  41  58  82 106 148 186 246 302 360
#     4  10  21  41  61  82 116 150 199 249 309 369
#     4  11  24  39  62  88 119 163 198 249 306 354
#     4  10  24  37  56  82 114 138 186 240 306 362
#     4  12  22  38  60  88 126 152 210 244 292 378
#     4  11  23  36  58  86 113 154 189 250 308 363
#
# _framework density 18.978701000000001
#
# number of rings (size 3 to 8) (size 9 to 14) (size 15 to 20)
#    0.000    1.333    2.222    4.000    4.667    4.444 
#    0.000    0.000   12.222    0.000    0.000    0.000 
#    0.000    0.000    0.000    2.000    0.000    7.556 
#
# Total GULP energy -300640.945262 kJ/mol
# GULP energy per Si atom -5567.424912 kJ/mol
# Density = 1.893550 g / cm^3
# Si number density = 18.978701 Si / 1000 Ang^3
#
#
#
# Elastic Constant Matrix: (Units=GPa)
#
#
# Indices 1 2 3 4 5 6 
#
# 1 72.9127 48.5417 41.9278 0.0000 0.0000 0.0000
# 2 48.5417 72.9127 41.9278 0.0000 0.0000 0.0000
# 3 41.9278 41.9278 115.4619 0.0000 0.0000 0.0000
# 4 0.0000 0.0000 0.0000 1.6117 0.0000 0.0000
# 5 0.0000 0.0000 0.0000 0.0000 1.6117 0.0000
# 6 0.0000 0.0000 0.0000 0.0000 0.0000 12.1855
#
#
#
# Elastic Compliance Matrix: (Units=1/GPa)
#
#
# Indices 1 2 3 4 5 6 
#
# 1 0.026010 -0.015022 -0.003990 0.000000 0.000000 0.000000
# 2 -0.015022 0.026010 -0.003990 0.000000 0.000000 0.000000
# 3 -0.003990 -0.003990 0.011559 0.000000 0.000000 0.000000
# 4 0.000000 0.000000 0.000000 0.620467 0.000000 0.000000
# 5 0.000000 0.000000 0.000000 0.000000 0.620467 0.000000
# 6 0.000000 0.000000 0.000000 0.000000 0.000000 0.082065
#
#
# Mechanical properties :
#
#
# Convention : Reuss Voigt Hill
#
# Bulk Modulus (GPa) = 56.89958 58.45354 57.67656
# Shear Modulus (GPa) = 3.47598 11.67445 7.57522
#
# Velocity S-wave (km/s) = 1.35480 2.48288 2.00002
# Velocity P-wave (km/s) = 5.70028 6.25188 5.98244
#
# Compressibility (1/GPa) = 0.01757482
#
# Stress axis : x y z
#
# Youngs Moduli (GPa) = 38.44609 38.44609 86.51377
#
# Poissons Ratio (x) = 0.57753 0.34521
# Poissons Ratio (y) = 0.57753 0.34521
# Poissons Ratio (z) = 0.15341 0.15341
#
# Static dielectric constant tensor:
#      x y z
#    x 1.770940 0.000000 0.000000 
#    y 0.000000 1.770940 0.000000 
#    z 0.000000 0.000000 1.735080 
# 
# From -- ./inp_files/1229.got.cif
#   From: 2010.05.17/outbox.cif.g08.bks.cpg/sg179_1_cif.got.tgz:1229.got - 2010.05.20 11:37:33.
