data_PCOD9583151
_publ_section_title
;
Structure prediction by ZEFSAII (Michael W. Deem and Ramdas Pophale) SiO2 
 PCOD9583151
Probable space group: P 65 2 2
;
_chemical_formula_sum "Si O2"
_cell_formula_units_Z 66
_cell_length_a 14.612688
_cell_length_b 14.612688
_cell_length_c 17.076467
_cell_angle_alpha 90.000000
_cell_angle_beta 90.000000
_cell_angle_gamma 120.000000
_cell_volume 3157.830959
_symmetry_space_group_name_H-M "P 65 2 2"
_symmetry_group_IT_number 179
_symmetry_cell_setting 'hexagonal'
loop_
_space_group_symop_operation_xyz
x,y,z
x-y,x,5/6+z
-y,x-y,2/3+z
-x,-y,1/2+z
-x+y,-x,1/3+z
y,-x+y,1/6+z
x-y,-y,-z
-x,-x+y,1/3-z
y,x,2/3-z
-y,-x,1/6-z
-x+y,y,1/2-z
x,x-y,5/6-z
loop_
_atom_site_type_symbol
_atom_site_label
_atom_site_fract_x
_atom_site_fract_y
_atom_site_fract_z
Si Si1 0.267833 0.189206 0.493591
Si Si2 0.854579 0.609775 0.536787
Si Si3 0.000000 0.028079 0.166667
Si Si4 0.281424 0.718577 0.083334
Si Si5 0.517848 0.453936 0.912926
Si Si6 0.139933 0.524519 0.500894
Si Si7 0.680196 0.360392 0.750000
O O1 0.307465 0.153733 0.416667
O O2 0.271833 0.301672 0.495523
O O3 0.329250 0.173752 0.564600
O O4 0.144074 0.102328 0.496239
O O5 0.878853 0.521751 0.570673
O O6 0.742935 0.547920 0.489653
O O7 0.985832 0.971664 0.250000
O O8 0.335522 0.842578 0.073146
O O9 0.324169 0.696821 0.166468
O O10 0.492000 0.492000 0.833334
O O11 0.447915 0.464860 0.980287
O O12 0.157767 0.578884 0.416667
O O13 0.197505 0.621009 0.561859
#
# Coordination Sequence:
#
# PCOD9583151 Si02
#       7
#    12  12   6   6  12  12   6
#     4  11  20  39  65 103 145 179 230 298 376 428
#     4  12  24  41  70 107 141 189 242 312 366 462
#     4  10  18  36  66  90 140 184 218 290 362 426
#     4  12  26  46  77  98 152 191 244 310 372 448
#     4  12  26  46  72 105 145 196 249 308 379 446
#     4  12  27  46  73 110 146 195 249 303 382 449
#     4  12  22  48  71 104 148 191 238 306 370 440
#
# _framework density 20.900423
#
# number of rings (size 3 to 8) (size 9 to 14) (size 15 to 20)
#    0.000    0.364    8.182    2.182    1.273    1.455 
#    3.273    0.000    4.000    0.000    0.000    0.000 
#    0.000    0.000    0.000    0.000    0.000    0.000 
#
# Total GULP energy -368066.244142 kJ/mol
# GULP energy per Si atom -5576.761275 kJ/mol
# Density = 2.085285 g / cm^3
# Si number density = 20.900423 Si / 1000 Ang^3
#
#
#
# Elastic Constant Matrix: (Units=GPa)
#
#
# Indices 1 2 3 4 5 6 
#
# 1 108.6096 45.0693 24.4850 0.0000 0.0000 0.0000
# 2 45.0693 108.6096 24.4850 0.0000 0.0000 0.0000
# 3 24.4850 24.4850 101.1077 0.0000 0.0000 0.0000
# 4 0.0000 0.0000 0.0000 21.9379 0.0000 0.0000
# 5 0.0000 0.0000 0.0000 0.0000 21.9379 0.0000
# 6 0.0000 0.0000 0.0000 0.0000 0.0000 31.7701
#
#
#
# Elastic Compliance Matrix: (Units=1/GPa)
#
#
# Indices 1 2 3 4 5 6 
#
# 1 0.011395 -0.004343 -0.001708 0.000000 0.000000 0.000000
# 2 -0.004343 0.011395 -0.001708 0.000000 0.000000 0.000000
# 3 -0.001708 -0.001708 0.010717 0.000000 0.000000 0.000000
# 4 0.000000 0.000000 0.000000 0.045583 0.000000 0.000000
# 5 0.000000 0.000000 0.000000 0.000000 0.045583 0.000000
# 6 0.000000 0.000000 0.000000 0.000000 0.000000 0.031476
#
#
# Mechanical properties :
#
#
# Convention : Reuss Voigt Hill
#
# Bulk Modulus (GPa) = 55.58773 56.26730 55.92751
# Shear Modulus (GPa) = 28.14318 30.08168 29.11243
#
# Velocity S-wave (km/s) = 3.67350 3.79791 3.73622
# Velocity P-wave (km/s) = 6.68184 6.79795 6.74015
#
# Compressibility (1/GPa) = 0.01798958
#
# Stress axis : x y z
#
# Youngs Moduli (GPa) = 87.76064 87.76064 93.30547
#
# Poissons Ratio (x) = 0.38118 0.15933
# Poissons Ratio (y) = 0.38118 0.15933
# Poissons Ratio (z) = 0.14986 0.14986
#
# Static dielectric constant tensor:
#      x y z
#    x 1.798410 0.000000 0.000000 
#    y 0.000000 1.798410 0.000000 
#    z 0.000000 0.000000 1.937360 
# 
# From -- ./inp_files/6779.got.cif
#   From: 2010.05.17/outbox.cif.g08.bks.cpg/sg179_4_cif.got.tgz:6779.got - 2010.05.20 11:37:33.
