data_PCOD9583854
_publ_section_title
;
Structure prediction by ZEFSAII (Michael W. Deem and Ramdas Pophale) SiO2 
 PCOD9583854
Probable space group: P 62 2 2
;
_chemical_formula_sum "Si O2"
_cell_formula_units_Z 54
_cell_length_a 19.579974
_cell_length_b 19.579974
_cell_length_c 8.873479
_cell_angle_alpha 90.000000
_cell_angle_beta 90.000000
_cell_angle_gamma 120.000000
_cell_volume 2946.108785
_symmetry_space_group_name_H-M "P 62 2 2"
_symmetry_group_IT_number 180
_symmetry_cell_setting 'hexagonal'
loop_
_space_group_symop_operation_xyz
x,y,z
x-y,x,1/3+z
-y,x-y,2/3+z
-x,-y,z
-x+y,-x,1/3+z
y,-x+y,2/3+z
x-y,-y,-z
-x,-x+y,1/3-z
y,x,2/3-z
-y,-x,2/3-z
-x+y,y,-z
x,x-y,1/3-z
loop_
_atom_site_type_symbol
_atom_site_label
_atom_site_fract_x
_atom_site_fract_y
_atom_site_fract_z
Si Si1 0.320090 0.479342 0.334221
Si Si2 0.364751 0.930158 0.689384
Si Si3 0.299955 0.649978 0.666667
Si Si4 0.605738 0.109299 0.309580
Si Si5 0.405491 0.237386 0.806796
O O1 0.337309 0.439657 0.475391
O O2 0.315595 0.557577 0.364215
O O3 0.385209 0.506807 0.203226
O O4 0.237773 0.422067 0.253867
O O5 0.416110 0.888323 0.644936
O O6 0.289666 0.905289 0.583186
O O7 0.428709 0.021728 0.672753
O O8 0.340582 0.681163 0.500000
O O9 0.689131 0.169300 0.385967
O O10 0.359265 0.179633 0.666667
#
# Coordination Sequence:
#
# PCOD9583854 Si02
#       5
#    12  12   6  12  12
#     4  11  22  36  49  70  99 121 161 208 267 321
#     4  11  19  36  55  70  89 123 165 211 252 310
#     4  12  26  36  51  72 102 142 170 210 270 354
#     4  10  21  34  55  71  89 120 166 211 255 306
#     4  10  22  33  47  68  94 119 145 199 256 314
#
# _framework density 18.329263000000001
#
# number of rings (size 3 to 8) (size 9 to 14) (size 15 to 20)
#    0.000    1.333    2.222    4.000    4.667    3.556 
#    0.000    0.000    0.000    0.000    0.000    0.000 
#    0.000    0.000    0.000    0.000    0.000    0.000 
#
# Total GULP energy -300704.772069 kJ/mol
# GULP energy per Si atom -5568.606890 kJ/mol
# Density = 1.828754 g / cm^3
# Si number density = 18.329263 Si / 1000 Ang^3
#
#
#
# Elastic Constant Matrix: (Units=GPa)
#
#
# Indices 1 2 3 4 5 6 
#
# 1 43.2199 11.4769 22.1629 0.0000 0.0000 0.0000
# 2 11.4769 43.2199 22.1629 0.0000 0.0000 0.0000
# 3 22.1629 22.1629 111.8608 0.0000 0.0000 0.0000
# 4 0.0000 0.0000 0.0000 28.7537 0.0000 0.0000
# 5 0.0000 0.0000 0.0000 0.0000 28.7537 0.0000
# 6 0.0000 0.0000 0.0000 0.0000 0.0000 15.8715
#
#
#
# Elastic Compliance Matrix: (Units=1/GPa)
#
#
# Indices 1 2 3 4 5 6 
#
# 1 0.026641 -0.004862 -0.004315 0.000000 0.000000 0.000000
# 2 -0.004862 0.026641 -0.004315 0.000000 0.000000 0.000000
# 3 -0.004315 -0.004315 0.010650 0.000000 0.000000 0.000000
# 4 0.000000 0.000000 0.000000 0.034778 0.000000 0.000000
# 5 0.000000 0.000000 0.000000 0.000000 0.034778 0.000000
# 6 0.000000 0.000000 0.000000 0.000000 0.000000 0.063006
#
#
# Mechanical properties :
#
#
# Convention : Reuss Voigt Hill
#
# Bulk Modulus (GPa) = 27.06501 34.43399 30.74950
# Shear Modulus (GPa) = 21.20491 24.17564 22.69027
#
# Velocity S-wave (km/s) = 3.40500 3.63569 3.52223
# Velocity P-wave (km/s) = 5.50061 6.03751 5.77530
#
# Compressibility (1/GPa) = 0.03694808
#
# Stress axis : x y z
#
# Youngs Moduli (GPa) = 37.53576 37.53576 93.90026
#
# Poissons Ratio (x) = 0.18249 0.40519
# Poissons Ratio (y) = 0.18249 0.40519
# Poissons Ratio (z) = 0.16197 0.16197
#
# Static dielectric constant tensor:
#      x y z
#    x 1.670260 0.000000 0.000000 
#    y 0.000000 1.670260 0.000000 
#    z 0.000000 0.000000 1.813890 
# 
# From -- ./inp_files/3044.got.cif
#   From: 2010.05.17/outbox.cif.g08.bks.cpg/sg180_2_cif.got.tgz:3044.got - 2010.05.20 11:43:55.
