data_PCOD9583397
_publ_section_title
;
Structure prediction by ZEFSAII (Michael W. Deem and Ramdas Pophale) SiO2 
 PCOD9583397
Probable space group: P 65 2 2
;
_chemical_formula_sum "Si O2"
_cell_formula_units_Z 66
_cell_length_a 11.288027
_cell_length_b 11.288027
_cell_length_c 28.490608
_cell_angle_alpha 90.000000
_cell_angle_beta 90.000000
_cell_angle_gamma 120.000000
_cell_volume 3143.897860
_symmetry_space_group_name_H-M "P 65 2 2"
_symmetry_group_IT_number 179
_symmetry_cell_setting 'hexagonal'
loop_
_space_group_symop_operation_xyz
x,y,z
x-y,x,5/6+z
-y,x-y,2/3+z
-x,-y,1/2+z
-x+y,-x,1/3+z
y,-x+y,1/6+z
x-y,-y,-z
-x,-x+y,1/3-z
y,x,2/3-z
-y,-x,1/6-z
-x+y,y,1/2-z
x,x-y,5/6-z
loop_
_atom_site_type_symbol
_atom_site_label
_atom_site_fract_x
_atom_site_fract_y
_atom_site_fract_z
Si Si1 0.674414 0.580413 0.107501
Si Si2 0.641066 0.282132 0.250000
Si Si3 0.042396 0.366361 0.613228
Si Si4 0.085340 0.724322 0.472848
Si Si5 0.891894 0.945947 0.416667
Si Si6 0.921151 0.454715 0.533310
Si Si7 0.000000 0.105387 0.166667
O O1 0.542393 0.457608 0.083334
O O2 0.795804 0.549233 0.107636
O O3 0.710561 0.708123 0.074395
O O4 0.635947 0.582712 0.161360
O O5 0.506495 0.196767 0.283007
O O6 0.605407 0.368282 0.213079
O O7 0.000000 0.359362 0.666667
O O8 0.997864 0.212124 0.596978
O O9 0.981918 0.438463 0.581429
O O10 0.992512 0.604379 0.509976
O O11 0.125637 0.867398 0.497430
O O12 0.998152 0.972634 0.458321
#
# Coordination Sequence:
#
# PCOD9583397 Si02
#       7
#    12   6  12  12   6  12   6
#     4  10  22  43  70 103 136 191 239 289 367 449
#     4  12  25  50  74 105 148 198 254 310 370 465
#     4  12  24  44  71 112 142 186 243 304 366 439
#     4  11  26  48  77 104 148 199 250 305 384 459
#     4  12  25  42  78 105 154 182 236 310 380 437
#     4  11  26  45  74 104 144 196 253 311 365 449
#     4  12  28  46  70 118 144 194 246 310 386 456
#
# _framework density 20.993047000000001
#
# number of rings (size 3 to 8) (size 9 to 14) (size 15 to 20)
#    0.000    0.727    5.455    2.727    7.636    0.000 
#    4.909    0.000    0.000    0.000    0.000    0.000 
#    0.000    0.000    0.000    0.000    0.000    0.000 
#
# Total GULP energy -368147.044135 kJ/mol
# GULP energy per Si atom -5577.985517 kJ/mol
# Density = 2.094527 g / cm^3
# Si number density = 20.993047 Si / 1000 Ang^3
#
#
#
# Elastic Constant Matrix: (Units=GPa)
#
#
# Indices 1 2 3 4 5 6 
#
# 1 55.6103 24.3783 42.1522 0.0000 0.0000 0.0000
# 2 24.3783 55.6103 42.1522 0.0000 0.0000 0.0000
# 3 42.1522 42.1522 142.4699 0.0000 0.0000 0.0000
# 4 0.0000 0.0000 0.0000 38.7214 0.0000 0.0000
# 5 0.0000 0.0000 0.0000 0.0000 38.7214 0.0000
# 6 0.0000 0.0000 0.0000 0.0000 0.0000 15.6160
#
#
#
# Elastic Compliance Matrix: (Units=1/GPa)
#
#
# Indices 1 2 3 4 5 6 
#
# 1 0.025093 -0.006926 -0.005375 0.000000 0.000000 0.000000
# 2 -0.006926 0.025093 -0.005375 0.000000 0.000000 0.000000
# 3 -0.005375 -0.005375 0.010200 0.000000 0.000000 0.000000
# 4 0.000000 0.000000 0.000000 0.025825 0.000000 0.000000
# 5 0.000000 0.000000 0.000000 0.000000 0.025825 0.000000
# 6 0.000000 0.000000 0.000000 0.000000 0.000000 0.064037
#
#
# Mechanical properties :
#
#
# Convention : Reuss Voigt Hill
#
# Bulk Modulus (GPa) = 39.94684 52.33951 46.14318
# Shear Modulus (GPa) = 22.75119 28.27895 25.51507
#
# Velocity S-wave (km/s) = 3.29561 3.67422 3.49005
# Velocity P-wave (km/s) = 5.79235 6.55635 6.18616
#
# Compressibility (1/GPa) = 0.02503327
#
# Stress axis : x y z
#
# Youngs Moduli (GPa) = 39.85236 39.85236 98.04343
#
# Poissons Ratio (x) = 0.27601 0.52698
# Poissons Ratio (y) = 0.27601 0.52698
# Poissons Ratio (z) = 0.21420 0.21420
#
# Static dielectric constant tensor:
#      x y z
#    x 1.782730 0.000000 0.000000 
#    y 0.000000 1.782730 0.000000 
#    z 0.000000 0.000000 1.809630 
# 
# From -- ./inp_files/9559.got.cif
#   From: 2010.05.17/outbox.cif.g08.bks.cpg/sg179_5_cif.got.tgz:9559.got - 2010.05.20 11:37:33.
