data_PCOD9583534
_publ_section_title
;
Structure prediction by ZEFSAII (Michael W. Deem and Ramdas Pophale) SiO2 
 PCOD9583534
Probable space group: P 65 2 2
;
_chemical_formula_sum "Si O2"
_cell_formula_units_Z 60
_cell_length_a 14.450014
_cell_length_b 14.450014
_cell_length_c 14.336564
_cell_angle_alpha 90.000000
_cell_angle_beta 90.000000
_cell_angle_gamma 120.000000
_cell_volume 2592.461080
_symmetry_space_group_name_H-M "P 65 2 2"
_symmetry_group_IT_number 179
_symmetry_cell_setting 'hexagonal'
loop_
_space_group_symop_operation_xyz
x,y,z
x-y,x,5/6+z
-y,x-y,2/3+z
-x,-y,1/2+z
-x+y,-x,1/3+z
y,-x+y,1/6+z
x-y,-y,-z
-x,-x+y,1/3-z
y,x,2/3-z
-y,-x,1/6-z
-x+y,y,1/2-z
x,x-y,5/6-z
loop_
_atom_site_type_symbol
_atom_site_label
_atom_site_fract_x
_atom_site_fract_y
_atom_site_fract_z
Si Si1 0.249798 0.963539 0.899957
Si Si2 0.399562 0.799124 0.750000
Si Si3 0.755076 0.047905 0.800327
Si Si4 0.970220 0.508023 0.069896
Si Si5 0.459014 0.823388 0.160380
Si Si6 0.910766 0.089235 0.083334
O O1 0.141924 0.874743 0.854745
O O2 0.335999 0.925562 0.920306
O O3 0.295532 0.040355 0.811888
O O4 0.230667 0.000000 0.000000
O O5 0.459617 0.881818 0.834970
O O6 0.273798 0.719939 0.764840
O O7 0.679832 0.094452 0.830407
O O8 0.750180 0.951721 0.860942
O O9 0.000000 0.473945 0.166667
O O10 0.090426 0.577018 0.030890
O O11 0.384098 0.768196 0.250000
O O12 0.000000 0.111879 0.166667
#
# Coordination Sequence:
#
# PCOD9583534 Si02
#       6
#    12   6  12  12  12   6
#     4  11  23  43  77 108 147 197 246 316 389 465
#     4  12  26  48  78 115 159 208 272 326 412 504
#     4  12  24  48  73 109 153 201 256 322 390 466
#     4  11  25  48  71 110 157 198 257 325 396 483
#     4  12  27  46  79 111 157 206 260 333 404 484
#     4  12  28  48  76 111 155 208 270 320 392 476
#
# _framework density 23.144030999999998
#
# number of rings (size 3 to 8) (size 9 to 14) (size 15 to 20)
#    0.000    0.400    7.000    0.600    2.800    1.600 
#    0.000    0.000    2.200    0.000    0.000    0.000 
#    0.000    0.000    0.000    0.000    0.000    0.000 
#
# Total GULP energy -334019.747952 kJ/mol
# GULP energy per Si atom -5566.995799 kJ/mol
# Density = 2.309135 g / cm^3
# Si number density = 23.144031 Si / 1000 Ang^3
#
#
#
# Elastic Constant Matrix: (Units=GPa)
#
#
# Indices 1 2 3 4 5 6 
#
# 1 76.8443 49.8544 39.4973 0.0000 0.0000 0.0000
# 2 49.8544 76.8443 39.4973 0.0000 0.0000 0.0000
# 3 39.4973 39.4973 89.4259 0.0000 0.0000 0.0000
# 4 0.0000 0.0000 0.0000 28.6614 0.0000 0.0000
# 5 0.0000 0.0000 0.0000 0.0000 28.6614 0.0000
# 6 0.0000 0.0000 0.0000 0.0000 0.0000 13.4949
#
#
#
# Elastic Compliance Matrix: (Units=1/GPa)
#
#
# Indices 1 2 3 4 5 6 
#
# 1 0.023972 -0.013079 -0.004811 0.000000 0.000000 0.000000
# 2 -0.013079 0.023972 -0.004811 0.000000 0.000000 0.000000
# 3 -0.004811 -0.004811 0.015432 0.000000 0.000000 0.000000
# 4 0.000000 0.000000 0.000000 0.034890 0.000000 0.000000
# 5 0.000000 0.000000 0.000000 0.000000 0.034890 0.000000
# 6 0.000000 0.000000 0.000000 0.000000 0.000000 0.074102
#
#
# Mechanical properties :
#
#
# Convention : Reuss Voigt Hill
#
# Bulk Modulus (GPa) = 55.63838 55.64583 55.64210
# Shear Modulus (GPa) = 19.33112 21.78125 20.55618
#
# Velocity S-wave (km/s) = 2.89321 3.07109 2.98348
# Velocity P-wave (km/s) = 5.93743 6.05565 5.99684
#
# Compressibility (1/GPa) = 0.01797321
#
# Stress axis : x y z
#
# Youngs Moduli (GPa) = 41.71611 41.71611 64.80008
#
# Poissons Ratio (x) = 0.54562 0.31174
# Poissons Ratio (y) = 0.54562 0.31174
# Poissons Ratio (z) = 0.20069 0.20069
#
# Static dielectric constant tensor:
#      x y z
#    x 2.004760 0.000000 0.000000 
#    y 0.000000 2.004760 0.000000 
#    z 0.000000 0.000000 4.270290 
# 
# From -- ./inp_files/5832.got.cif
#   From: 2010.05.17/outbox.cif.g08.bks.cpg/sg179_3_cif.got.tgz:5832.got - 2010.05.20 11:37:33.
