data_PCOD9583431
_publ_section_title
;
Structure prediction by ZEFSAII (Michael W. Deem and Ramdas Pophale) SiO2 
 PCOD9583431
Probable space group: P 65 2 2
;
_chemical_formula_sum "Si O2"
_cell_formula_units_Z 60
_cell_length_a 16.209381
_cell_length_b 16.209381
_cell_length_c 12.514801
_cell_angle_alpha 90.000000
_cell_angle_beta 90.000000
_cell_angle_gamma 120.000000
_cell_volume 2847.655448
_symmetry_space_group_name_H-M "P 65 2 2"
_symmetry_group_IT_number 179
_symmetry_cell_setting 'hexagonal'
loop_
_space_group_symop_operation_xyz
x,y,z
x-y,x,5/6+z
-y,x-y,2/3+z
-x,-y,1/2+z
-x+y,-x,1/3+z
y,-x+y,1/6+z
x-y,-y,-z
-x,-x+y,1/3-z
y,x,2/3-z
-y,-x,1/6-z
-x+y,y,1/2-z
x,x-y,5/6-z
loop_
_atom_site_type_symbol
_atom_site_label
_atom_site_fract_x
_atom_site_fract_y
_atom_site_fract_z
Si Si1 0.072100 0.752060 0.962199
Si Si2 0.844142 0.922071 0.416667
Si Si3 0.490674 0.205968 0.065768
Si Si4 0.595374 0.605646 0.706639
Si Si5 0.424700 0.575301 0.083334
Si Si6 0.386272 0.000000 0.000000
Si Si7 0.413371 0.826742 0.250000
O O1 0.187272 0.800048 0.946176
O O2 0.024341 0.700470 0.851900
O O3 0.053621 0.830869 0.011702
O O4 0.024880 0.670606 0.054100
O O5 0.905110 0.905110 0.333334
O O6 0.538072 0.209078 0.180520
O O7 0.554579 0.313813 0.024810
O O8 0.475284 0.105892 0.020675
O O9 0.604489 0.604489 0.833334
O O10 0.595160 0.514411 0.656936
O O11 0.498107 0.600738 0.663010
#
# Coordination Sequence:
#
# PCOD9583431 Si02
#       7
#    12   6  12  12   6   6   6
#     4  11  21  42  73 107 136 188 253 306 364 445
#     4  12  24  44  79 118 156 186 253 324 380 454
#     4  11  23  42  64 105 140 184 242 306 372 432
#     4  10  23  44  68  97 139 189 246 299 370 450
#     4  11  24  40  63  92 142 188 239 302 374 431
#     4  12  20  40  78 104 130 180 260 316 348 446
#     4   9  24  48  62 100 142 190 234 298 380 451
#
# _framework density 21.069965
#
# number of rings (size 3 to 8) (size 9 to 14) (size 15 to 20)
#    0.000    1.200    5.000    0.000    1.400    1.600 
#   14.400    1.000    0.000    0.000    0.000    0.000 
#    0.000    0.000    0.000    0.000    0.000    0.000 
#
# Total GULP energy -334263.305833 kJ/mol
# GULP energy per Si atom -5571.055097 kJ/mol
# Density = 2.102201 g / cm^3
# Si number density = 21.069965 Si / 1000 Ang^3
#
#
#
# Elastic Constant Matrix: (Units=GPa)
#
#
# Indices 1 2 3 4 5 6 
#
# 1 78.7476 45.4243 49.2313 0.0000 0.0000 0.0000
# 2 45.4243 78.7476 49.2313 0.0000 0.0000 0.0000
# 3 49.2313 49.2313 165.5412 0.0000 0.0000 0.0000
# 4 0.0000 0.0000 0.0000 45.8648 0.0000 0.0000
# 5 0.0000 0.0000 0.0000 0.0000 45.8648 0.0000
# 6 0.0000 0.0000 0.0000 0.0000 0.0000 16.6617
#
#
#
# Elastic Compliance Matrix: (Units=1/GPa)
#
#
# Indices 1 2 3 4 5 6 
#
# 1 0.020274 -0.009735 -0.003134 0.000000 0.000000 0.000000
# 2 -0.009735 0.020274 -0.003134 0.000000 0.000000 0.000000
# 3 -0.003134 -0.003134 0.007905 0.000000 0.000000 0.000000
# 4 0.000000 0.000000 0.000000 0.021803 0.000000 0.000000
# 5 0.000000 0.000000 0.000000 0.000000 0.021803 0.000000
# 6 0.000000 0.000000 0.000000 0.000000 0.000000 0.060018
#
#
# Mechanical properties :
#
#
# Convention : Reuss Voigt Hill
#
# Bulk Modulus (GPa) = 60.80661 67.86778 64.33720
# Shear Modulus (GPa) = 26.37607 33.62156 29.99882
#
# Velocity S-wave (km/s) = 3.54196 3.99897 3.77738
# Velocity P-wave (km/s) = 6.75643 7.32140 7.04458
#
# Compressibility (1/GPa) = 0.01644558
#
# Stress axis : x y z
#
# Youngs Moduli (GPa) = 49.32476 49.32476 126.50306
#
# Poissons Ratio (x) = 0.48019 0.39648
# Poissons Ratio (y) = 0.48019 0.39648
# Poissons Ratio (z) = 0.15459 0.15459
#
# Static dielectric constant tensor:
#      x y z
#    x 1.713950 0.000000 0.000000 
#    y 0.000000 1.713950 0.000000 
#    z 0.000000 0.000000 1.864570 
# 
# From -- ./inp_files/4771.got.cif
#   From: 2010.05.17/outbox.cif.g08.bks.cpg/sg179_3_cif.got.tgz:4771.got - 2010.05.20 11:37:33.
