data_PCOD9583018
_publ_section_title
;
Structure prediction by ZEFSAII (Michael W. Deem and Ramdas Pophale) SiO2 
 PCOD9583018
Probable space group: P 61 2 2
;
_chemical_formula_sum "Si O2"
_cell_formula_units_Z 48
_cell_length_a 16.381050
_cell_length_b 16.381050
_cell_length_c 8.701210
_cell_angle_alpha 90.000000
_cell_angle_beta 90.000000
_cell_angle_gamma 120.000000
_cell_volume 2022.058676
_symmetry_space_group_name_H-M "P 61 2 2"
_symmetry_group_IT_number 178
_symmetry_cell_setting 'hexagonal'
loop_
_space_group_symop_operation_xyz
x,y,z
x-y,x,1/6+z
-y,x-y,1/3+z
-x,-y,1/2+z
-x+y,-x,2/3+z
y,-x+y,5/6+z
x-y,-y,-z
-x,-x+y,2/3-z
y,x,1/3-z
-y,-x,5/6-z
-x+y,y,1/2-z
x,x-y,1/6-z
loop_
_atom_site_type_symbol
_atom_site_label
_atom_site_fract_x
_atom_site_fract_y
_atom_site_fract_z
Si Si1 0.651732 0.479869 0.807559
Si Si2 0.644660 0.174504 0.871465
Si Si3 0.654897 0.013388 0.685338
Si Si4 0.033496 0.179503 0.513582
O O1 0.754591 0.509182 0.750000
O O2 0.575618 0.434711 0.670116
O O3 0.659603 0.569617 0.896900
O O4 0.609938 0.390063 0.916667
O O5 0.751203 0.248798 0.916667
O O6 0.613804 0.227608 0.750000
O O7 0.638444 0.087258 0.778996
O O8 0.640702 0.000000 0.500000
O O9 0.764345 0.046154 0.713221
O O10 0.116505 0.155904 0.481197
O O11 0.000000 0.164673 0.333334
#
# Coordination Sequence:
#
# PCOD9583018 Si02
#       4
#    12  12  12  12
#     4  12  27  45  73 107 150 202 253 307 379 455
#     4  12  25  47  73 108 153 197 253 313 377 457
#     4  11  25  43  72 105 145 195 250 312 383 449
#     4   9  20  40  71  97 134 185 245 303 370 447
#
# _framework density 23.738181999999998
#
# number of rings (size 3 to 8) (size 9 to 14) (size 15 to 20)
#    0.000    1.000    2.500    3.750    7.000    0.000 
#    0.000    0.000   22.000    0.000    0.000    0.000 
#    0.000    0.000    0.000    0.000    0.000    0.000 
#
# Total GULP energy -267454.962036 kJ/mol
# GULP energy per Si atom -5571.978376 kJ/mol
# Density = 2.368415 g / cm^3
# Si number density = 23.738182 Si / 1000 Ang^3
#
#
#
# Elastic Constant Matrix: (Units=GPa)
#
#
# Indices 1 2 3 4 5 6 
#
# 1 145.7364 83.2485 54.6724 0.0000 0.0000 0.0000
# 2 83.2485 145.7364 54.6724 0.0000 0.0000 0.0000
# 3 54.6724 54.6724 71.3294 0.0000 0.0000 0.0000
# 4 0.0000 0.0000 0.0000 36.0358 0.0000 0.0000
# 5 0.0000 0.0000 0.0000 0.0000 36.0358 0.0000
# 6 0.0000 0.0000 0.0000 0.0000 0.0000 31.2440
#
#
#
# Elastic Compliance Matrix: (Units=1/GPa)
#
#
# Indices 1 2 3 4 5 6 
#
# 1 0.011446 -0.004557 -0.005280 0.000000 0.000000 0.000000
# 2 -0.004557 0.011446 -0.005280 0.000000 0.000000 0.000000
# 3 -0.005280 -0.005280 0.022113 0.000000 0.000000 0.000000
# 4 0.000000 0.000000 0.000000 0.027750 0.000000 0.000000
# 5 0.000000 0.000000 0.000000 0.000000 0.027750 0.000000
# 6 0.000000 0.000000 0.000000 0.000000 0.000000 0.032006
#
#
# Mechanical properties :
#
#
# Convention : Reuss Voigt Hill
#
# Bulk Modulus (GPa) = 67.70141 83.10983 75.40562
# Shear Modulus (GPa) = 29.82080 32.01035 30.91558
#
# Velocity S-wave (km/s) = 3.54819 3.67614 3.61273
# Velocity P-wave (km/s) = 6.73559 7.28737 7.01690
#
# Compressibility (1/GPa) = 0.01477074
#
# Stress axis : x y z
#
# Youngs Moduli (GPa) = 87.36922 87.36922 45.22225
#
# Poissons Ratio (x) = 0.39818 0.23876
# Poissons Ratio (y) = 0.39818 0.23876
# Poissons Ratio (z) = 0.46128 0.46128
#
# Static dielectric constant tensor:
#      x y z
#    x 1.933280 0.000000 0.000000 
#    y 0.000000 1.933280 0.000000 
#    z 0.000000 0.000000 2.169580 
# 
# From -- ./inp_files/2553.got.cif
#   From: 2010.05.17/outbox.cif.g08.bks.cpg/sg178_2_cif.got.tgz:2553.got - 2010.05.20 11:30:59.
