data_PCOD9583992
_publ_section_title
;
Structure prediction by ZEFSAII (Michael W. Deem and Ramdas Pophale) SiO2 
 PCOD9583992
Probable space group: P 62 2 2
;
_chemical_formula_sum "Si O2"
_cell_formula_units_Z 54
_cell_length_a 12.005731
_cell_length_b 12.005731
_cell_length_c 21.811785
_cell_angle_alpha 90.000000
_cell_angle_beta 90.000000
_cell_angle_gamma 120.000000
_cell_volume 2722.695393
_symmetry_space_group_name_H-M "P 62 2 2"
_symmetry_group_IT_number 180
_symmetry_cell_setting 'hexagonal'
loop_
_space_group_symop_operation_xyz
x,y,z
x-y,x,1/3+z
-y,x-y,2/3+z
-x,-y,z
-x+y,-x,1/3+z
y,-x+y,2/3+z
x-y,-y,-z
-x,-x+y,1/3-z
y,x,2/3-z
-y,-x,2/3-z
-x+y,y,-z
x,x-y,1/3-z
loop_
_atom_site_type_symbol
_atom_site_label
_atom_site_fract_x
_atom_site_fract_y
_atom_site_fract_z
Si Si1 0.110136 0.621111 0.917988
Si Si2 0.697012 0.848506 0.166667
Si Si3 0.676621 0.965327 0.640179
Si Si4 0.770584 0.281788 0.211940
Si Si5 0.869550 0.133077 0.128760
O O1 0.146754 0.748494 0.882193
O O2 0.222441 0.584677 0.917659
O O3 0.000000 0.500000 0.881305
O O4 0.035817 0.633944 0.976988
O O5 0.786307 0.805544 0.201991
O O6 0.702030 0.851015 0.666667
O O7 0.560516 0.887854 0.592428
O O8 0.797560 0.076551 0.603015
O O9 0.779810 0.389905 0.166667
O O10 0.788324 0.184197 0.166991
O O11 0.000000 0.178322 0.166667
#
# Coordination Sequence:
#
# PCOD9583992 Si02
#       5
#    12   6  12  12  12
#     4  12  23  42  66  97 130 179 223 275 340 398
#     4  12  23  44  70  94 145 176 226 274 336 434
#     4  11  24  41  67 100 135 169 228 283 336 400
#     4  11  24  41  67  98 131 176 227 277 337 407
#     4  10  23  41  65 100 132 179 219 275 345 405
#
# _framework density 19.833288
#
# number of rings (size 3 to 8) (size 9 to 14) (size 15 to 20)
#    0.000    0.889    5.556    1.667    3.111    4.000 
#    0.000    3.333    0.000    0.000    0.000    0.000 
#    0.000    0.000    0.000    0.000    0.000    0.000 
#
# Total GULP energy -301132.819852 kJ/mol
# GULP energy per Si atom -5576.533701 kJ/mol
# Density = 1.978815 g / cm^3
# Si number density = 19.833288 Si / 1000 Ang^3
#
#
#
# Elastic Constant Matrix: (Units=GPa)
#
#
# Indices 1 2 3 4 5 6 
#
# 1 123.6673 88.2516 64.6157 0.0000 0.0000 0.0000
# 2 88.2516 123.6673 64.6157 0.0000 0.0000 0.0000
# 3 64.6157 64.6157 107.8404 0.0000 0.0000 0.0000
# 4 0.0000 0.0000 0.0000 28.9784 0.0000 0.0000
# 5 0.0000 0.0000 0.0000 0.0000 28.9784 0.0000
# 6 0.0000 0.0000 0.0000 0.0000 0.0000 17.7078
#
#
#
# Elastic Compliance Matrix: (Units=1/GPa)
#
#
# Indices 1 2 3 4 5 6 
#
# 1 0.017836 -0.010400 -0.004455 0.000000 0.000000 0.000000
# 2 -0.010400 0.017836 -0.004455 0.000000 0.000000 0.000000
# 3 -0.004455 -0.004455 0.014612 0.000000 0.000000 0.000000
# 4 0.000000 0.000000 0.000000 0.034509 0.000000 0.000000
# 5 0.000000 0.000000 0.000000 0.000000 0.034509 0.000000
# 6 0.000000 0.000000 0.000000 0.000000 0.000000 0.056472
#
#
# Mechanical properties :
#
#
# Convention : Reuss Voigt Hill
#
# Bulk Modulus (GPa) = 85.74737 87.79346 86.77042
# Shear Modulus (GPa) = 22.90614 24.31237 23.60925
#
# Velocity S-wave (km/s) = 3.40212 3.50499 3.45394
# Velocity P-wave (km/s) = 7.66554 7.79370 7.72989
#
# Compressibility (1/GPa) = 0.01166217
#
# Stress axis : x y z
#
# Youngs Moduli (GPa) = 56.06668 56.06668 68.43674
#
# Poissons Ratio (x) = 0.58310 0.30491
# Poissons Ratio (y) = 0.58310 0.30491
# Poissons Ratio (z) = 0.24980 0.24980
#
# Static dielectric constant tensor:
#      x y z
#    x 1.718930 0.000000 0.000000 
#    y 0.000000 1.718930 0.000000 
#    z 0.000000 0.000000 1.730410 
# 
# From -- ./inp_files/8892.got.cif
#   From: 2010.05.17/outbox.cif.g08.bks.cpg/sg180_5_cif.got.tgz:8892.got - 2010.05.20 11:43:55.
