data_PCOD9583206
_publ_section_title
;
Structure prediction by ZEFSAII (Michael W. Deem and Ramdas Pophale) SiO2 
 PCOD9583206
Probable space group: P 65 2 2
;
_chemical_formula_sum "Si O2"
_cell_formula_units_Z 66
_cell_length_a 21.863294
_cell_length_b 21.863294
_cell_length_c 8.947495
_cell_angle_alpha 90.000000
_cell_angle_beta 90.000000
_cell_angle_gamma 120.000000
_cell_volume 3703.934395
_symmetry_space_group_name_H-M "P 65 2 2"
_symmetry_group_IT_number 179
_symmetry_cell_setting 'hexagonal'
loop_
_space_group_symop_operation_xyz
x,y,z
x-y,x,5/6+z
-y,x-y,2/3+z
-x,-y,1/2+z
-x+y,-x,1/3+z
y,-x+y,1/6+z
x-y,-y,-z
-x,-x+y,1/3-z
y,x,2/3-z
-y,-x,1/6-z
-x+y,y,1/2-z
x,x-y,5/6-z
loop_
_atom_site_type_symbol
_atom_site_label
_atom_site_fract_x
_atom_site_fract_y
_atom_site_fract_z
Si Si1 0.374019 0.069787 0.760022
Si Si2 0.280268 0.221904 0.661371
Si Si3 0.032584 0.897486 0.430590
Si Si4 0.390889 0.263761 0.407409
Si Si5 0.647667 0.823834 0.416667
Si Si6 0.031391 0.576130 0.503450
O O1 0.367299 0.091167 0.589365
O O2 0.396372 0.141641 0.848724
O O3 0.301155 0.008768 0.833135
O O4 0.421063 0.032481 0.750146
O O5 0.198213 0.172645 0.635172
O O6 0.323051 0.224866 0.513239
O O7 0.306614 0.187903 0.788851
O O8 0.079286 0.920715 0.583334
O O9 0.958987 0.887870 0.479729
O O10 0.423693 0.211847 0.416667
O O11 0.437584 0.343052 0.473709
O O12 0.053200 0.526600 0.416667
O O13 0.000000 0.545777 0.666667
#
# Coordination Sequence:
#
# PCOD9583206 Si02
#       6
#    12  12  12  12   6  12
#     4  10  22  36  54  84 120 149 188 239 284 355
#     4  11  21  34  56  79 105 142 187 236 302 344
#     4  10  22  35  55  65  84 126 185 237 288 345
#     4  10  19  36  60  86 116 150 192 236 278 348
#     4  12  22  32  50  82 124 148 180 246 308 338
#     4   9  20  37  59  88 122 157 192 232 291 352
#
# _framework density 17.81889
#
# number of rings (size 3 to 8) (size 9 to 14) (size 15 to 20)
#    0.000    1.818    1.818    3.818    5.091    2.909 
#    0.000    0.000   48.000    0.000    0.000    5.091 
#    0.000    0.000    0.000    0.000    0.000    0.000 
#
# Total GULP energy -367936.539583 kJ/mol
# GULP energy per Si atom -5574.796054 kJ/mol
# Density = 1.777833 g / cm^3
# Si number density = 17.818890 Si / 1000 Ang^3
#
#
#
# Elastic Constant Matrix: (Units=GPa)
#
#
# Indices 1 2 3 4 5 6 
#
# 1 81.6413 36.0129 38.6639 0.0000 0.0000 0.0000
# 2 36.0129 81.6413 38.6639 0.0000 0.0000 0.0000
# 3 38.6639 38.6639 67.6537 0.0000 0.0000 0.0000
# 4 0.0000 0.0000 0.0000 23.3147 0.0000 0.0000
# 5 0.0000 0.0000 0.0000 0.0000 23.3147 0.0000
# 6 0.0000 0.0000 0.0000 0.0000 0.0000 22.8142
#
#
#
# Elastic Compliance Matrix: (Units=1/GPa)
#
#
# Indices 1 2 3 4 5 6 
#
# 1 0.017764 -0.004152 -0.007780 0.000000 0.000000 0.000000
# 2 -0.004152 0.017764 -0.007780 0.000000 0.000000 0.000000
# 3 -0.007780 -0.007780 0.023673 0.000000 0.000000 0.000000
# 4 0.000000 0.000000 0.000000 0.042891 0.000000 0.000000
# 5 0.000000 0.000000 0.000000 0.000000 0.042891 0.000000
# 6 0.000000 0.000000 0.000000 0.000000 0.000000 0.043832
#
#
# Mechanical properties :
#
#
# Convention : Reuss Voigt Hill
#
# Bulk Modulus (GPa) = 50.55588 50.84640 50.70114
# Shear Modulus (GPa) = 21.29182 21.72844 21.51013
#
# Velocity S-wave (km/s) = 3.46049 3.49579 3.47818
# Velocity P-wave (km/s) = 6.66335 6.70008 6.68174
#
# Compressibility (1/GPa) = 0.01978009
#
# Stress axis : x y z
#
# Youngs Moduli (GPa) = 56.29251 56.29251 42.24201
#
# Poissons Ratio (x) = 0.23372 0.32862
# Poissons Ratio (y) = 0.23372 0.32862
# Poissons Ratio (z) = 0.43793 0.43793
#
# Static dielectric constant tensor:
#      x y z
#    x 1.605660 0.000000 0.000000 
#    y 0.000000 1.605660 0.000000 
#    z 0.000000 0.000000 1.697620 
# 
# From -- ./inp_files/3356.got.cif
#   From: 2010.05.17/outbox.cif.g08.bks.cpg/sg179_2_cif.got.tgz:3356.got - 2010.05.20 11:37:33.
