data_PCOD9583388
_publ_section_title
;
Structure prediction by ZEFSAII (Michael W. Deem and Ramdas Pophale) SiO2 
 PCOD9583388
Probable space group: P 65 2 2
;
_chemical_formula_sum "Si O2"
_cell_formula_units_Z 48
_cell_length_a 12.602306
_cell_length_b 12.602306
_cell_length_c 14.810351
_cell_angle_alpha 90.000000
_cell_angle_beta 90.000000
_cell_angle_gamma 120.000000
_cell_volume 2037.023430
_symmetry_space_group_name_H-M "P 65 2 2"
_symmetry_group_IT_number 179
_symmetry_cell_setting 'hexagonal'
loop_
_space_group_symop_operation_xyz
x,y,z
x-y,x,5/6+z
-y,x-y,2/3+z
-x,-y,1/2+z
-x+y,-x,1/3+z
y,-x+y,1/6+z
x-y,-y,-z
-x,-x+y,1/3-z
y,x,2/3-z
-y,-x,1/6-z
-x+y,y,1/2-z
x,x-y,5/6-z
loop_
_atom_site_type_symbol
_atom_site_label
_atom_site_fract_x
_atom_site_fract_y
_atom_site_fract_z
Si Si1 0.278924 0.399768 0.379188
Si Si2 0.708329 0.008930 0.779034
Si Si3 0.671645 0.433661 0.351218
Si Si4 0.063951 0.294885 0.575394
O O1 0.292058 0.292058 0.333334
O O2 0.332318 0.407156 0.480437
O O3 0.362220 0.524962 0.327509
O O4 0.137132 0.363941 0.374975
O O5 0.855019 0.092435 0.795445
O O6 0.701604 0.020748 0.670949
O O7 0.721674 0.443347 0.250000
O O8 0.702517 0.351259 0.416667
O O9 0.718271 0.564736 0.396215
O O10 0.000000 0.228534 0.666667
#
# Coordination Sequence:
#
# PCOD9583388 Si02
#       4
#    12  12  12  12
#     4  11  23  42  66  94 130 173 222 279 338 411
#     4  10  22  42  64  90 130 170 216 274 340 400
#     4  12  25  42  66  98 134 174 227 284 354 432
#     4  11  23  42  66  94 130 173 222 279 338 411
#
# _framework density 23.563793
#
# number of rings (size 3 to 8) (size 9 to 14) (size 15 to 20)
#    0.000    1.000    0.000    8.250    0.000    0.000 
#    0.000   36.250    0.000    0.000    0.000    0.000 
#    0.000    0.000    0.000    0.000    0.000    0.000 
#
# Total GULP energy -268024.042648 kJ/mol
# GULP energy per Si atom -5583.834222 kJ/mol
# Density = 2.351016 g / cm^3
# Si number density = 23.563793 Si / 1000 Ang^3
#
#
#
# Elastic Constant Matrix: (Units=GPa)
#
#
# Indices 1 2 3 4 5 6 
#
# 1 71.1388 35.7950 10.9769 0.0000 0.0000 0.0000
# 2 35.7950 71.1388 10.9769 0.0000 0.0000 0.0000
# 3 10.9769 10.9769 127.7131 0.0000 0.0000 0.0000
# 4 0.0000 0.0000 0.0000 44.6612 0.0000 0.0000
# 5 0.0000 0.0000 0.0000 0.0000 44.6612 0.0000
# 6 0.0000 0.0000 0.0000 0.0000 0.0000 17.6719
#
#
#
# Elastic Compliance Matrix: (Units=1/GPa)
#
#
# Indices 1 2 3 4 5 6 
#
# 1 0.018907 -0.009387 -0.000818 0.000000 0.000000 0.000000
# 2 -0.009387 0.018907 -0.000818 0.000000 0.000000 0.000000
# 3 -0.000818 -0.000818 0.007971 0.000000 0.000000 0.000000
# 4 0.000000 0.000000 0.000000 0.022391 0.000000 0.000000
# 5 0.000000 0.000000 0.000000 0.000000 0.022391 0.000000
# 6 0.000000 0.000000 0.000000 0.000000 0.000000 0.056587
#
#
# Mechanical properties :
#
#
# Convention : Reuss Voigt Hill
#
# Bulk Modulus (GPa) = 42.12832 42.83204 42.48018
# Shear Modulus (GPa) = 28.23083 35.54833 31.88958
#
# Velocity S-wave (km/s) = 3.46506 3.88828 3.68275
# Velocity P-wave (km/s) = 5.82461 6.19474 6.01252
#
# Compressibility (1/GPa) = 0.02373700
#
# Stress axis : x y z
#
# Youngs Moduli (GPa) = 52.89184 52.89184 125.45956
#
# Poissons Ratio (x) = 0.49649 0.10265
# Poissons Ratio (y) = 0.49649 0.10265
# Poissons Ratio (z) = 0.04328 0.04328
#
# Static dielectric constant tensor:
#      x y z
#    x 1.903030 0.000000 0.000000 
#    y 0.000000 1.903030 0.000000 
#    z 0.000000 0.000000 1.997550 
# 
# From -- ./inp_files/5573.got.cif
#   From: 2010.05.17/outbox.cif.g08.bks.cpg/sg179_3_cif.got.tgz:5573.got - 2010.05.20 11:37:33.
