data_PCOD9583629
_publ_section_title
;
Structure prediction by ZEFSAII (Michael W. Deem and Ramdas Pophale) SiO2 
 PCOD9583629
Probable space group: P 62 2 2
;
_chemical_formula_sum "Si O2"
_cell_formula_units_Z 96
_cell_length_a 13.716133
_cell_length_b 13.716133
_cell_length_c 29.153682
_cell_angle_alpha 90.000000
_cell_angle_beta 90.000000
_cell_angle_gamma 120.000000
_cell_volume 4749.932295
_symmetry_space_group_name_H-M "P 62 2 2"
_symmetry_group_IT_number 180
_symmetry_cell_setting 'hexagonal'
loop_
_space_group_symop_operation_xyz
x,y,z
x-y,x,1/3+z
-y,x-y,2/3+z
-x,-y,z
-x+y,-x,1/3+z
y,-x+y,2/3+z
x-y,-y,-z
-x,-x+y,1/3-z
y,x,2/3-z
-y,-x,2/3-z
-x+y,y,-z
x,x-y,1/3-z
loop_
_atom_site_type_symbol
_atom_site_label
_atom_site_fract_x
_atom_site_fract_y
_atom_site_fract_z
Si Si1 0.352304 0.504774 0.438804
Si Si2 0.534109 0.403882 0.766736
Si Si3 0.134324 0.631766 0.872956
Si Si4 0.314074 0.926079 0.241928
Si Si5 0.607228 0.483022 0.003445
Si Si6 0.215935 0.721065 0.678324
Si Si7 0.656729 0.867562 0.508650
Si Si8 0.453810 0.255577 0.421790
O O1 0.356263 0.455091 0.487889
O O2 0.264319 0.547617 0.450731
O O3 0.299548 0.441861 0.390886
O O4 0.474761 0.610981 0.429874
O O5 0.500000 0.500000 0.771458
O O6 0.498742 0.352748 0.715606
O O7 0.462918 0.312954 0.805267
O O8 0.668416 0.462242 0.764686
O O9 0.112919 0.507351 0.882235
O O10 0.059922 0.663293 0.905752
O O11 0.310040 0.882418 0.293109
O O12 0.198418 0.881276 0.214818
O O13 0.500000 0.500000 0.003983
O O14 0.560076 0.352592 0.017460
O O15 0.193958 0.596979 0.666667
O O16 0.188605 0.766306 0.631916
O O17 0.639600 0.804959 0.460309
O O18 0.738332 0.000000 0.500000
#
# Coordination Sequence:
#
# PCOD9583629 Si02
#       8
#    12  12  12  12  12  12  12  12
#     4  10  17  31  50  71  90 116 161 214 262 300
#     4  10  20  29  43  65  99 132 176 201 225 292
#     4  10  19  29  49  73  89 122 162 213 263 297
#     4  11  20  33  47  67 101 129 169 209 255 306
#     4  10  18  30  44  64  94 131 161 207 250 286
#     4   9  18  28  42  66  93 124 163 199 251 296
#     4  12  23  33  44  66  99 144 177 202 246 303
#     4  10  19  28  44  67  97 128 162 206 239 303
#
# _framework density 20.210813999999999
#
# number of rings (size 3 to 8) (size 9 to 14) (size 15 to 20)
#    0.000    1.750    5.000    1.125    5.250    0.000 
#    0.000    0.000    0.000    0.750    0.000    1.750 
#    0.000    0.000    0.000    0.000    1.000    0.000 
#
# Total GULP energy -535054.560819 kJ/mol
# GULP energy per Si atom -5573.485009 kJ/mol
# Density = 2.016481 g / cm^3
# Si number density = 20.210814 Si / 1000 Ang^3
#
#
#
# Elastic Constant Matrix: (Units=GPa)
#
#
# Indices 1 2 3 4 5 6 
#
# 1 26.9787 -6.4956 -0.9024 0.0000 0.0000 0.0000
# 2 -6.4956 26.9787 -0.9024 0.0000 0.0000 0.0000
# 3 -0.9024 -0.9024 163.8173 0.0000 0.0000 0.0000
# 4 0.0000 0.0000 0.0000 21.2436 0.0000 0.0000
# 5 0.0000 0.0000 0.0000 0.0000 21.2436 0.0000
# 6 0.0000 0.0000 0.0000 0.0000 0.0000 16.7372
#
#
#
# Elastic Compliance Matrix: (Units=1/GPa)
#
#
# Indices 1 2 3 4 5 6 
#
# 1 0.039359 0.009485 0.000269 0.000000 0.000000 0.000000
# 2 0.009485 0.039359 0.000269 0.000000 0.000000 0.000000
# 3 0.000269 0.000269 0.006107 0.000000 0.000000 0.000000
# 4 0.000000 0.000000 0.000000 0.047073 0.000000 0.000000
# 5 0.000000 0.000000 0.000000 0.000000 0.047073 0.000000
# 6 0.000000 0.000000 0.000000 0.000000 0.000000 0.059747
#
#
# Mechanical properties :
#
#
# Convention : Reuss Voigt Hill
#
# Bulk Modulus (GPa) = 9.53542 22.35265 15.94404
# Shear Modulus (GPa) = 19.71382 26.91653 23.31518
#
# Velocity S-wave (km/s) = 3.12654 3.65333 3.40015
# Velocity P-wave (km/s) = 4.21449 5.37396 4.82915
#
# Compressibility (1/GPa) = 0.10487212
#
# Stress axis : x y z
#
# Youngs Moduli (GPa) = 25.40718 25.40718 163.73777
#
# Poissons Ratio (x) = -0.24099 -0.04406
# Poissons Ratio (y) = -0.24099 -0.04406
# Poissons Ratio (z) = -0.00684 -0.00684
#
# Static dielectric constant tensor:
#      x y z
#    x 1.730690 0.000000 0.000000 
#    y 0.000000 1.730690 0.000000 
#    z 0.000000 0.000000 1.836080 
# 
# From -- ./inp_files/12484.got.cif
#   From: 2010.05.17/outbox.cif.g08.bks.cpg/sg180_7_cif.got.tgz:12484.got - 2010.05.20 11:43:55.
