data_PCOD9583264
_publ_section_title
;
Structure prediction by ZEFSAII (Michael W. Deem and Ramdas Pophale) SiO2 
 PCOD9583264
Probable space group: P 65 2 2
;
_chemical_formula_sum "Si O2"
_cell_formula_units_Z 48
_cell_length_a 17.433896
_cell_length_b 17.433896
_cell_length_c 8.344976
_cell_angle_alpha 90.000000
_cell_angle_beta 90.000000
_cell_angle_gamma 120.000000
_cell_volume 2196.567864
_symmetry_space_group_name_H-M "P 65 2 2"
_symmetry_group_IT_number 179
_symmetry_cell_setting 'hexagonal'
loop_
_space_group_symop_operation_xyz
x,y,z
x-y,x,5/6+z
-y,x-y,2/3+z
-x,-y,1/2+z
-x+y,-x,1/3+z
y,-x+y,1/6+z
x-y,-y,-z
-x,-x+y,1/3-z
y,x,2/3-z
-y,-x,1/6-z
-x+y,y,1/2-z
x,x-y,5/6-z
loop_
_atom_site_type_symbol
_atom_site_label
_atom_site_fract_x
_atom_site_fract_y
_atom_site_fract_z
Si Si1 0.920249 0.460125 0.916667
Si Si2 0.387538 0.000000 0.500000
Si Si3 0.632908 0.763997 0.637653
Si Si4 0.894174 0.576839 0.141809
Si Si5 0.869378 0.832401 0.083145
O O1 0.870460 0.383319 0.785317
O O2 0.979441 0.549223 0.817917
O O3 0.385196 0.089405 0.539936
O O4 0.569314 0.708676 0.490324
O O5 0.626761 0.853210 0.628686
O O6 0.733250 0.789322 0.595491
O O7 0.000000 0.633140 0.166667
O O8 0.846709 0.909745 0.106989
O O9 0.916986 0.833972 0.250000
#
# Coordination Sequence:
#
# PCOD9583264 Si02
#       5
#     6   6  12  12  12
#     4  12  24  42  68  98 140 166 222 282 362 412
#     4  12  24  42  68 106 134 174 228 292 340 416
#     4  11  23  39  72 101 133 181 238 279 343 408
#     4  11  21  42  69  99 132 179 223 283 343 416
#     4  10  20  37  61  88 136 191 240 282 336 392
#
# _framework density 21.852271999999999
#
# number of rings (size 3 to 8) (size 9 to 14) (size 15 to 20)
#    0.000    1.000    6.250    1.500    0.000    1.000 
#    0.000    7.500    0.000   15.000    0.000    0.000 
#    0.000    0.000    0.000    0.000    0.000    0.000 
#
# Total GULP energy -267813.255402 kJ/mol
# GULP energy per Si atom -5579.442821 kJ/mol
# Density = 2.180254 g / cm^3
# Si number density = 21.852272 Si / 1000 Ang^3
#
#
#
# Elastic Constant Matrix: (Units=GPa)
#
#
# Indices 1 2 3 4 5 6 
#
# 1 74.6793 33.3853 39.4887 0.0000 0.0000 0.0000
# 2 33.3853 74.6793 39.4887 0.0000 0.0000 0.0000
# 3 39.4887 39.4887 92.0998 0.0000 0.0000 0.0000
# 4 0.0000 0.0000 0.0000 34.3092 0.0000 0.0000
# 5 0.0000 0.0000 0.0000 0.0000 34.3092 0.0000
# 6 0.0000 0.0000 0.0000 0.0000 0.0000 20.6470
#
#
#
# Elastic Compliance Matrix: (Units=1/GPa)
#
#
# Indices 1 2 3 4 5 6 
#
# 1 0.018847 -0.005370 -0.005778 0.000000 0.000000 0.000000
# 2 -0.005370 0.018847 -0.005778 0.000000 0.000000 0.000000
# 3 -0.005778 -0.005778 0.015813 0.000000 0.000000 0.000000
# 4 0.000000 0.000000 0.000000 0.029147 0.000000 0.000000
# 5 0.000000 0.000000 0.000000 0.000000 0.029147 0.000000
# 6 0.000000 0.000000 0.000000 0.000000 0.000000 0.048433
#
#
# Mechanical properties :
#
#
# Convention : Reuss Voigt Hill
#
# Bulk Modulus (GPa) = 50.88263 51.79822 51.34042
# Shear Modulus (GPa) = 24.92068 26.45946 25.69007
#
# Velocity S-wave (km/s) = 3.38067 3.48348 3.43246
# Velocity P-wave (km/s) = 6.21079 6.31940 6.26533
#
# Compressibility (1/GPa) = 0.01965307
#
# Stress axis : x y z
#
# Youngs Moduli (GPa) = 53.05991 53.05991 63.24002
#
# Poissons Ratio (x) = 0.28493 0.36542
# Poissons Ratio (y) = 0.28493 0.36542
# Poissons Ratio (z) = 0.30659 0.30659
#
# Static dielectric constant tensor:
#      x y z
#    x 1.826850 0.000000 0.000000 
#    y 0.000000 1.826850 0.000000 
#    z 0.000000 0.000000 1.876160 
# 
# From -- ./inp_files/2684.got.cif
#   From: 2010.05.17/outbox.cif.g08.bks.cpg/sg179_2_cif.got.tgz:2684.got - 2010.05.20 11:37:33.
