data_PCOD9583754
_publ_section_title
;
Structure prediction by ZEFSAII (Michael W. Deem and Ramdas Pophale) SiO2 
 PCOD9583754
Probable space group: P 62 2 2
;
_chemical_formula_sum "Si O2"
_cell_formula_units_Z 72
_cell_length_a 15.087540
_cell_length_b 15.087540
_cell_length_c 20.110787
_cell_angle_alpha 90.000000
_cell_angle_beta 90.000000
_cell_angle_gamma 120.000000
_cell_volume 3964.574351
_symmetry_space_group_name_H-M "P 62 2 2"
_symmetry_group_IT_number 180
_symmetry_cell_setting 'hexagonal'
loop_
_space_group_symop_operation_xyz
x,y,z
x-y,x,1/3+z
-y,x-y,2/3+z
-x,-y,z
-x+y,-x,1/3+z
y,-x+y,2/3+z
x-y,-y,-z
-x,-x+y,1/3-z
y,x,2/3-z
-y,-x,2/3-z
-x+y,y,-z
x,x-y,1/3-z
loop_
_atom_site_type_symbol
_atom_site_label
_atom_site_fract_x
_atom_site_fract_y
_atom_site_fract_z
Si Si1 0.656711 0.745070 0.628331
Si Si2 0.119142 0.558632 0.974420
Si Si3 0.069786 0.399944 0.606653
Si Si4 0.123122 0.368900 0.807268
Si Si5 0.614205 0.859154 0.351826
Si Si6 0.602582 0.413207 0.492517
O O1 0.701149 0.850575 0.666667
O O2 0.534681 0.675881 0.645406
O O3 0.665501 0.769325 0.550123
O O4 0.710099 0.681089 0.652551
O O5 0.167717 0.662704 0.016761
O O6 0.136701 0.592913 0.897383
O O7 0.000000 0.500000 0.990880
O O8 0.153692 0.378130 0.639768
O O9 0.129906 0.501758 0.563369
O O10 0.000000 0.401370 0.666667
O O11 0.988192 0.309918 0.559827
O O12 0.197403 0.350460 0.758733
O O13 0.174045 0.492255 0.809259
O O14 0.694312 0.388623 0.500000
#
# Coordination Sequence:
#
# PCOD9583754 Si02
#       6
#    12  12  12  12  12  12
#     4  10  22  39  58  78 110 154 194 248 296 347
#     4   9  18  34  53  74 107 148 189 227 285 350
#     4  10  20  34  54  84 120 149 184 238 291 350
#     4  10  23  35  54  86 115 149 199 236 287 362
#     4  10  20  36  58  86 113 149 194 238 298 361
#     4  11  19  31  52  81 119 159 186 229 285 352
#
# _framework density 18.16084
#
# number of rings (size 3 to 8) (size 9 to 14) (size 15 to 20)
#    0.000    2.000    1.667    3.500    0.000    8.000 
#    0.000    0.000    0.000    7.500    0.000    7.000 
#    0.000    0.000    0.000    0.000    0.000    0.000 
#
# Total GULP energy -401245.288251 kJ/mol
# GULP energy per Si atom -5572.851226 kJ/mol
# Density = 1.811951 g / cm^3
# Si number density = 18.160840 Si / 1000 Ang^3
#
#
#
# Elastic Constant Matrix: (Units=GPa)
#
#
# Indices 1 2 3 4 5 6 
#
# 1 71.6586 41.3824 51.9392 0.0000 0.0000 0.0000
# 2 41.3824 71.6586 51.9392 0.0000 0.0000 0.0000
# 3 51.9392 51.9392 89.5478 0.0000 0.0000 0.0000
# 4 0.0000 0.0000 0.0000 22.0598 0.0000 0.0000
# 5 0.0000 0.0000 0.0000 0.0000 22.0598 0.0000
# 6 0.0000 0.0000 0.0000 0.0000 0.0000 15.1381
#
#
#
# Elastic Compliance Matrix: (Units=1/GPa)
#
#
# Indices 1 2 3 4 5 6 
#
# 1 0.025986 -0.007043 -0.010987 0.000000 0.000000 0.000000
# 2 -0.007043 0.025986 -0.010987 0.000000 0.000000 0.000000
# 3 -0.010987 -0.010987 0.023913 0.000000 0.000000 0.000000
# 4 0.000000 0.000000 0.000000 0.045331 0.000000 0.000000
# 5 0.000000 0.000000 0.000000 0.000000 0.045331 0.000000
# 6 0.000000 0.000000 0.000000 0.000000 0.000000 0.066058
#
#
# Mechanical properties :
#
#
# Convention : Reuss Voigt Hill
#
# Bulk Modulus (GPa) = 56.02303 58.15406 57.08854
# Shear Modulus (GPa) = 16.85822 17.69183 17.27502
#
# Velocity S-wave (km/s) = 3.05006 3.12456 3.08754
# Velocity P-wave (km/s) = 6.58172 6.71628 6.64934
#
# Compressibility (1/GPa) = 0.01784980
#
# Stress axis : x y z
#
# Youngs Moduli (GPa) = 38.48210 38.48210 41.81871
#
# Poissons Ratio (x) = 0.27103 0.45947
# Poissons Ratio (y) = 0.27103 0.45947
# Poissons Ratio (z) = 0.42281 0.42281
#
# Static dielectric constant tensor:
#      x y z
#    x 1.636670 0.000000 0.000000 
#    y 0.000000 1.636670 0.000000 
#    z 0.000000 0.000000 1.639740 
# 
# From -- ./inp_files/7765.got.cif
#   From: 2010.05.17/outbox.cif.g08.bks.cpg/sg180_4_cif.got.tgz:7765.got - 2010.05.20 11:43:55.
