data_PCOD9583761
_publ_section_title
;
Structure prediction by ZEFSAII (Michael W. Deem and Ramdas Pophale) SiO2 
 PCOD9583761
Probable space group: P 62 2 2
;
_chemical_formula_sum "Si O2"
_cell_formula_units_Z 69
_cell_length_a 15.031248
_cell_length_b 15.031248
_cell_length_c 19.330390
_cell_angle_alpha 90.000000
_cell_angle_beta 90.000000
_cell_angle_gamma 120.000000
_cell_volume 3782.346644
_symmetry_space_group_name_H-M "P 62 2 2"
_symmetry_group_IT_number 180
_symmetry_cell_setting 'hexagonal'
loop_
_space_group_symop_operation_xyz
x,y,z
x-y,x,1/3+z
-y,x-y,2/3+z
-x,-y,z
-x+y,-x,1/3+z
y,-x+y,2/3+z
x-y,-y,-z
-x,-x+y,1/3-z
y,x,2/3-z
-y,-x,2/3-z
-x+y,y,-z
x,x-y,1/3-z
loop_
_atom_site_type_symbol
_atom_site_label
_atom_site_fract_x
_atom_site_fract_y
_atom_site_fract_z
Si Si1 0.121989 0.539206 0.797623
Si Si2 0.693026 0.768830 0.269850
Si Si3 0.368045 0.736089 0.000000
Si Si4 0.313517 0.972416 0.209326
Si Si5 0.488246 0.307962 0.080777
Si Si6 0.990302 0.844804 0.939525
Si Si7 0.000000 0.000000 0.500000
O O1 0.188534 0.563179 0.728900
O O2 0.113393 0.448082 0.845573
O O3 0.176674 0.640463 0.845173
O O4 0.000000 0.500000 0.782921
O O5 0.703063 0.703063 0.333334
O O6 0.700613 0.726643 0.194097
O O7 0.588566 0.774136 0.264592
O O8 0.781437 0.886947 0.281820
O O9 0.251746 0.671245 0.971005
O O10 0.409375 0.056850 0.255134
O O11 0.215687 0.941208 0.255873
O O12 0.974810 0.900811 0.875731
O O13 0.932418 0.864835 0.000000
#
# Coordination Sequence:
#
# PCOD9583761 Si02
#       7
#    12  12   6  12  12  12   3
#     4  10  20  35  56  80 111 147 179 231 286 339
#     4  11  19  34  54  82 110 146 180 227 285 348
#     4  12  19  32  54  86 108 136 182 227 288 352
#     4  10  20  37  53  75 112 146 184 227 280 335
#     4  10  21  34  52  79 113 138 176 231 285 337
#     4  11  22  34  52  78 110 149 187 228 278 344
#     4  12  18  36  52  78 108 136 184 232 288 318
#
# _framework density 18.242642
#
# number of rings (size 3 to 8) (size 9 to 14) (size 15 to 20)
#    0.000    1.391    1.739    7.826    0.000    0.000 
#    1.565    0.000    0.000    0.000    0.000    0.000 
#    0.000    0.000    0.000    0.000    0.000    0.000 
#
# Total GULP energy -384266.622822 kJ/mol
# GULP energy per Si atom -5569.081490 kJ/mol
# Density = 1.820112 g / cm^3
# Si number density = 18.242642 Si / 1000 Ang^3
#
#
#
# Elastic Constant Matrix: (Units=GPa)
#
#
# Indices 1 2 3 4 5 6 
#
# 1 79.8417 27.7676 36.5379 0.0000 0.0000 0.0000
# 2 27.7676 79.8417 36.5379 0.0000 0.0000 0.0000
# 3 36.5379 36.5379 81.3703 0.0000 0.0000 0.0000
# 4 0.0000 0.0000 0.0000 32.5848 0.0000 0.0000
# 5 0.0000 0.0000 0.0000 0.0000 32.5848 0.0000
# 6 0.0000 0.0000 0.0000 0.0000 0.0000 26.0371
#
#
#
# Elastic Compliance Matrix: (Units=1/GPa)
#
#
# Indices 1 2 3 4 5 6 
#
# 1 0.016287 -0.002917 -0.006003 0.000000 0.000000 0.000000
# 2 -0.002917 0.016287 -0.006003 0.000000 0.000000 0.000000
# 3 -0.006003 -0.006003 0.017681 0.000000 0.000000 0.000000
# 4 0.000000 0.000000 0.000000 0.030689 0.000000 0.000000
# 5 0.000000 0.000000 0.000000 0.000000 0.030689 0.000000
# 6 0.000000 0.000000 0.000000 0.000000 0.000000 0.038407
#
#
# Mechanical properties :
#
#
# Convention : Reuss Voigt Hill
#
# Bulk Modulus (GPa) = 49.00363 49.19341 49.09852
# Shear Modulus (GPa) = 26.78253 27.58869 27.18561
#
# Velocity S-wave (km/s) = 3.83577 3.89307 3.86453
# Velocity P-wave (km/s) = 6.82188 6.87261 6.84729
#
# Compressibility (1/GPa) = 0.02040665
#
# Stress axis : x y z
#
# Youngs Moduli (GPa) = 61.40034 61.40034 56.55794
#
# Poissons Ratio (x) = 0.17909 0.33954
# Poissons Ratio (y) = 0.17909 0.33954
# Poissons Ratio (z) = 0.36861 0.36861
#
# Static dielectric constant tensor:
#      x y z
#    x 1.678670 0.000000 0.000000 
#    y 0.000000 1.678670 0.000000 
#    z 0.000000 0.000000 1.622670 
# 
# From -- ./inp_files/7850.got.cif
#   From: 2010.05.17/outbox.cif.g08.bks.cpg/sg180_4_cif.got.tgz:7850.got - 2010.05.20 11:43:55.
