data_PCOD9583422
_publ_section_title
;
Structure prediction by ZEFSAII (Michael W. Deem and Ramdas Pophale) SiO2 
 PCOD9583422
Probable space group: P 65 2 2
;
_chemical_formula_sum "Si O2"
_cell_formula_units_Z 66
_cell_length_a 14.798891
_cell_length_b 14.798891
_cell_length_c 15.869939
_cell_angle_alpha 90.000000
_cell_angle_beta 90.000000
_cell_angle_gamma 120.000000
_cell_volume 3009.984312
_symmetry_space_group_name_H-M "P 65 2 2"
_symmetry_group_IT_number 179
_symmetry_cell_setting 'hexagonal'
loop_
_space_group_symop_operation_xyz
x,y,z
x-y,x,5/6+z
-y,x-y,2/3+z
-x,-y,1/2+z
-x+y,-x,1/3+z
y,-x+y,1/6+z
x-y,-y,-z
-x,-x+y,1/3-z
y,x,2/3-z
-y,-x,1/6-z
-x+y,y,1/2-z
x,x-y,5/6-z
loop_
_atom_site_type_symbol
_atom_site_label
_atom_site_fract_x
_atom_site_fract_y
_atom_site_fract_z
Si Si1 0.217652 0.967574 0.133391
Si Si2 0.737054 0.231628 0.339232
Si Si3 0.856229 0.928115 0.916667
Si Si4 0.919773 0.185995 0.343641
Si Si5 0.578278 0.019861 0.405140
Si Si6 0.795461 0.448747 0.314648
O O1 0.128025 0.871976 0.083334
O O2 0.233939 0.945853 0.229909
O O3 0.195534 0.062275 0.139310
O O4 0.327939 0.009657 0.088906
O O5 0.826644 0.204863 0.311481
O O6 0.624488 0.129249 0.355817
O O7 0.748632 0.328765 0.286712
O O8 0.764527 0.288364 0.430220
O O9 0.915883 0.915883 0.833334
O O10 0.790330 0.981584 0.880691
O O11 0.532019 0.000000 0.500000
O O12 0.497440 0.919057 0.354119
O O13 0.749797 0.499593 0.250000
#
# Coordination Sequence:
#
# PCOD9583422 Si02
#       6
#    12  12   6  12  12  12
#     4  11  20  32  55  93 124 159 213 275 335 391
#     4  10  23  40  63  96 129 165 219 276 346 414
#     4  12  26  42  60  84 130 186 230 280 328 410
#     4  11  22  37  56  85 128 174 217 264 337 405
#     4  11  20  37  64  94 132 164 212 278 344 401
#     4  11  21  41  69  95 131 166 215 284 349 408
#
# _framework density 21.927026000000001
#
# number of rings (size 3 to 8) (size 9 to 14) (size 15 to 20)
#    0.000    1.091    5.455    3.273    1.273    0.000 
#    3.273    0.909    0.000    0.000    0.000    0.000 
#    0.000    0.000    0.000    0.000    0.000    0.000 
#
# Total GULP energy -367545.361024 kJ/mol
# GULP energy per Si atom -5568.869106 kJ/mol
# Density = 2.187712 g / cm^3
# Si number density = 21.927026 Si / 1000 Ang^3
#
#
#
# Elastic Constant Matrix: (Units=GPa)
#
#
# Indices 1 2 3 4 5 6 
#
# 1 80.5074 43.4175 0.6803 0.0000 0.0000 0.0000
# 2 43.4175 80.5074 0.6803 0.0000 0.0000 0.0000
# 3 0.6803 0.6803 47.1009 0.0000 0.0000 0.0000
# 4 0.0000 0.0000 0.0000 6.6770 0.0000 0.0000
# 5 0.0000 0.0000 0.0000 0.0000 6.6770 0.0000
# 6 0.0000 0.0000 0.0000 0.0000 0.0000 18.5449
#
#
#
# Elastic Compliance Matrix: (Units=1/GPa)
#
#
# Indices 1 2 3 4 5 6 
#
# 1 0.017516 -0.009445 -0.000117 0.000000 0.000000 0.000000
# 2 -0.009445 0.017516 -0.000117 0.000000 0.000000 0.000000
# 3 -0.000117 -0.000117 0.021234 0.000000 0.000000 0.000000
# 4 0.000000 0.000000 0.000000 0.149768 0.000000 0.000000
# 5 0.000000 0.000000 0.000000 0.000000 0.149768 0.000000
# 6 0.000000 0.000000 0.000000 0.000000 0.000000 0.053923
#
#
# Mechanical properties :
#
#
# Convention : Reuss Voigt Hill
#
# Bulk Modulus (GPa) = 27.09329 33.07462 30.08395
# Shear Modulus (GPa) = 11.32798 17.26897 14.29848
#
# Velocity S-wave (km/s) = 2.27540 2.80940 2.55638
# Velocity P-wave (km/s) = 4.39160 5.06363 4.73954
#
# Compressibility (1/GPa) = 0.03690951
#
# Stress axis : x y z
#
# Youngs Moduli (GPa) = 57.09032 57.09032 47.09343
#
# Poissons Ratio (x) = 0.53924 0.00549
# Poissons Ratio (y) = 0.53924 0.00549
# Poissons Ratio (z) = 0.00665 0.00665
#
# Static dielectric constant tensor:
#      x y z
#    x 1.878230 0.000000 0.000000 
#    y 0.000000 1.878230 0.000000 
#    z 0.000000 0.000000 1.732600 
# 
# From -- ./inp_files/6759.got.cif
#   From: 2010.05.17/outbox.cif.g08.bks.cpg/sg179_4_cif.got.tgz:6759.got - 2010.05.20 11:37:33.
