data_PCOD9583727
_publ_section_title
;
Structure prediction by ZEFSAII (Michael W. Deem and Ramdas Pophale) SiO2 
 PCOD9583727
Probable space group: P 62 2 2
;
_chemical_formula_sum "Si O2"
_cell_formula_units_Z 39
_cell_length_a 14.743905
_cell_length_b 14.743905
_cell_length_c 10.119958
_cell_angle_alpha 90.000000
_cell_angle_beta 90.000000
_cell_angle_gamma 120.000000
_cell_volume 1905.172875
_symmetry_space_group_name_H-M "P 62 2 2"
_symmetry_group_IT_number 180
_symmetry_cell_setting 'hexagonal'
loop_
_space_group_symop_operation_xyz
x,y,z
x-y,x,1/3+z
-y,x-y,2/3+z
-x,-y,z
-x+y,-x,1/3+z
y,-x+y,2/3+z
x-y,-y,-z
-x,-x+y,1/3-z
y,x,2/3-z
-y,-x,2/3-z
-x+y,y,-z
x,x-y,1/3-z
loop_
_atom_site_type_symbol
_atom_site_label
_atom_site_fract_x
_atom_site_fract_y
_atom_site_fract_z
Si Si1 0.883705 0.741652 0.207428
Si Si2 0.000000 0.500000 0.666667
Si Si3 0.702314 0.182029 0.110884
Si Si4 0.710916 0.421832 0.500000
Si Si5 0.097716 0.195431 0.500000
O O1 0.796091 0.626208 0.163792
O O2 0.867677 0.838539 0.161822
O O3 0.870083 0.740193 0.365472
O O4 0.000000 0.771721 0.166667
O O5 0.069044 0.467892 0.754721
O O6 0.654928 0.242591 0.190153
O O7 0.726321 0.235819 0.964208
#
# Coordination Sequence:
#
# PCOD9583727 Si02
#       5
#    12   3  12   6   6
#     4  11  22  38  62  90 123 160 208 253 316 369
#     4   8  16  32  60  84  98 154 212 244 278 356
#     4  10  19  37  61  87 116 155 204 252 304 370
#     4   8  19  38  61  81 121 157 195 254 310 350
#     4  10  22  40  58  87 126 163 201 263 296 376
#
# _framework density 20.470583999999999
#
# number of rings (size 3 to 8) (size 9 to 14) (size 15 to 20)
#    0.000    2.462    0.000    4.154    0.000    4.923 
#   11.077    0.769    0.000    0.000    0.000    0.000 
#    0.000    0.000    0.000    0.000    0.000    0.000 
#
# Total GULP energy -217486.520888 kJ/mol
# GULP energy per Si atom -5576.577459 kJ/mol
# Density = 2.042399 g / cm^3
# Si number density = 20.470584 Si / 1000 Ang^3
#
#
#
# Elastic Constant Matrix: (Units=GPa)
#
#
# Indices 1 2 3 4 5 6 
#
# 1 150.4662 101.0682 5.2035 0.0000 0.0000 0.0000
# 2 101.0682 150.4662 5.2035 0.0000 0.0000 0.0000
# 3 5.2035 5.2035 60.4576 0.0000 0.0000 0.0000
# 4 0.0000 0.0000 0.0000 9.8029 0.0000 0.0000
# 5 0.0000 0.0000 0.0000 0.0000 9.8029 0.0000
# 6 0.0000 0.0000 0.0000 0.0000 0.0000 24.6990
#
#
#
# Elastic Compliance Matrix: (Units=1/GPa)
#
#
# Indices 1 2 3 4 5 6 
#
# 1 0.012117 -0.008127 -0.000343 0.000000 0.000000 0.000000
# 2 -0.008127 0.012117 -0.000343 0.000000 0.000000 0.000000
# 3 -0.000343 -0.000343 0.016600 0.000000 0.000000 0.000000
# 4 0.000000 0.000000 0.000000 0.102011 0.000000 0.000000
# 5 0.000000 0.000000 0.000000 0.000000 0.102011 0.000000
# 6 0.000000 0.000000 0.000000 0.000000 0.000000 0.040487
#
#
# Mechanical properties :
#
#
# Convention : Reuss Voigt Hill
#
# Bulk Modulus (GPa) = 43.09292 64.92668 54.00980
# Shear Modulus (GPa) = 16.09241 25.52194 20.80718
#
# Velocity S-wave (km/s) = 2.80683 3.53478 3.19163
# Velocity P-wave (km/s) = 5.62150 6.96028 6.32640
#
# Compressibility (1/GPa) = 0.02320567
#
# Stress axis : x y z
#
# Youngs Moduli (GPa) = 82.53032 82.53032 60.24231
#
# Poissons Ratio (x) = 0.67072 0.02069
# Poissons Ratio (y) = 0.67072 0.02069
# Poissons Ratio (z) = 0.02834 0.02834
#
# Static dielectric constant tensor:
#      x y z
#    x 1.757020 0.000000 0.000000 
#    y 0.000000 1.757020 0.000000 
#    z 0.000000 0.000000 1.769830 
# 
# From -- ./inp_files/4105.got.cif
#   From: 2010.05.17/outbox.cif.g08.bks.cpg/sg180_3_cif.got.tgz:4105.got - 2010.05.20 11:43:55.
