data_PCOD9583594
_publ_section_title
;
Structure prediction by ZEFSAII (Michael W. Deem and Ramdas Pophale) SiO2 
 PCOD9583594
Probable space group: P 65 2 2
;
_chemical_formula_sum "Si O2"
_cell_formula_units_Z 72
_cell_length_a 15.000000
_cell_length_b 15.000000
_cell_length_c 18.000000
_cell_angle_alpha 90.000000
_cell_angle_beta 90.000000
_cell_angle_gamma 120.000000
_cell_volume 3507.402885
_symmetry_space_group_name_H-M "P 65 2 2"
_symmetry_group_IT_number 179
_symmetry_cell_setting 'hexagonal'
loop_
_space_group_symop_operation_xyz
x,y,z
x-y,x,5/6+z
-y,x-y,2/3+z
-x,-y,1/2+z
-x+y,-x,1/3+z
y,-x+y,1/6+z
x-y,-y,-z
-x,-x+y,1/3-z
y,x,2/3-z
-y,-x,1/6-z
-x+y,y,1/2-z
x,x-y,5/6-z
loop_
_atom_site_type_symbol
_atom_site_label
_atom_site_fract_x
_atom_site_fract_y
_atom_site_fract_z
Si Si1 0.105310 0.748286 0.444487
Si Si2 0.563830 0.772483 0.329742
Si Si3 0.438258 0.595421 0.683164
Si Si4 0.962335 0.481168 0.916667
Si Si5 0.115257 0.550519 0.183500
Si Si6 0.873475 0.218594 0.355710
Si Si7 0.226477 0.452953 0.250000
O O1 0.099332 0.641217 0.420655
O O2 0.130767 0.818747 0.371976
O O3 0.190473 0.802721 0.508098
O O4 0.996056 0.714025 0.482643
O O5 0.589941 0.794971 0.416667
O O6 0.459581 0.780965 0.320760
O O7 0.535694 0.659455 0.302856
O O8 0.653584 0.849178 0.275776
O O9 0.475683 0.516502 0.653951
O O10 0.430923 0.602178 0.771043
O O11 0.532726 0.704583 0.659998
O O12 0.171014 0.520255 0.244941
O O13 0.000000 0.462756 0.166667
#
# Coordination Sequence:
#
# PCOD9583594 Si02
#       7
#    12  12  12   6  12  12   6
#     4  11  25  39  65  90 130 172 216 276 324 396
#     4  10  22  35  60  84 127 172 214 262 306 375
#     4  10  18  38  55  81 123 168 210 253 299 382
#     4  10  20  37  64  86 130 176 208 263 324 380
#     4  11  24  37  55  89 126 166 217 265 307 369
#     4  11  22  41  61  90 127 168 221 261 335 393
#     4  12  26  39  60  90 130 178 222 263 326 370
#
# _framework density 20.528009999999998
#
# number of rings (size 3 to 8) (size 9 to 14) (size 15 to 20)
#    0.000    1.333    5.000    2.000    7.000    0.000 
#    0.000    0.000    0.000    0.000    0.000    0.000 
#   22.500    0.000    0.000    0.000    0.000    0.000 
#
# Total GULP energy -401531.395009 kJ/mol
# GULP energy per Si atom -5576.824931 kJ/mol
# Density = 2.048129 g / cm^3
# Si number density = 20.528010 Si / 1000 Ang^3
#
#
#
# Elastic Constant Matrix: (Units=GPa)
#
#
# Indices 1 2 3 4 5 6 
#
# 1 51.1293 15.7883 8.2755 0.0000 0.0000 0.0000
# 2 15.7883 51.1293 8.2755 0.0000 0.0000 0.0000
# 3 8.2755 8.2755 57.8038 0.0000 0.0000 0.0000
# 4 0.0000 0.0000 0.0000 25.1953 0.0000 0.0000
# 5 0.0000 0.0000 0.0000 0.0000 25.1953 0.0000
# 6 0.0000 0.0000 0.0000 0.0000 0.0000 17.6705
#
#
#
# Elastic Compliance Matrix: (Units=1/GPa)
#
#
# Indices 1 2 3 4 5 6 
#
# 1 0.021894 -0.006402 -0.002218 0.000000 0.000000 0.000000
# 2 -0.006402 0.021894 -0.002218 0.000000 0.000000 0.000000
# 3 -0.002218 -0.002218 0.017935 0.000000 0.000000 0.000000
# 4 0.000000 0.000000 0.000000 0.039690 0.000000 0.000000
# 5 0.000000 0.000000 0.000000 0.000000 0.039690 0.000000
# 6 0.000000 0.000000 0.000000 0.000000 0.000000 0.056591
#
#
# Mechanical properties :
#
#
# Convention : Reuss Voigt Hill
#
# Bulk Modulus (GPa) = 24.97018 24.97123 24.97071
# Shear Modulus (GPa) = 21.48514 22.12708 21.80611
#
# Velocity S-wave (km/s) = 3.23867 3.28670 3.26277
# Velocity P-wave (km/s) = 5.11622 5.15694 5.13662
#
# Compressibility (1/GPa) = 0.04004776
#
# Stress axis : x y z
#
# Youngs Moduli (GPa) = 45.67457 45.67457 55.75698
#
# Poissons Ratio (x) = 0.29240 0.12367
# Poissons Ratio (y) = 0.29240 0.12367
# Poissons Ratio (z) = 0.10130 0.10130
#
# Static dielectric constant tensor:
#      x y z
#    x 1.744540 0.000000 0.000000 
#    y 0.000000 1.744540 0.000000 
#    z 0.000000 0.000000 1.809680 
# 
# From -- ./inp_files/6859.got.cif
#   From: 2010.05.17/outbox.ucp.g08.bks.cvg/sg179_4_cif.got.tgz:6859.got - 2010.06.11 15:19:48.
