data_PCOD9583758
_publ_section_title
;
Structure prediction by ZEFSAII (Michael W. Deem and Ramdas Pophale) SiO2 
 PCOD9583758
Probable space group: P 62 2 2
;
_chemical_formula_sum "Si O2"
_cell_formula_units_Z 54
_cell_length_a 14.830323
_cell_length_b 14.830323
_cell_length_c 14.954172
_cell_angle_alpha 90.000000
_cell_angle_beta 90.000000
_cell_angle_gamma 120.000000
_cell_volume 2848.355703
_symmetry_space_group_name_H-M "P 62 2 2"
_symmetry_group_IT_number 180
_symmetry_cell_setting 'hexagonal'
loop_
_space_group_symop_operation_xyz
x,y,z
x-y,x,1/3+z
-y,x-y,2/3+z
-x,-y,z
-x+y,-x,1/3+z
y,-x+y,2/3+z
x-y,-y,-z
-x,-x+y,1/3-z
y,x,2/3-z
-y,-x,2/3-z
-x+y,y,-z
x,x-y,1/3-z
loop_
_atom_site_type_symbol
_atom_site_label
_atom_site_fract_x
_atom_site_fract_y
_atom_site_fract_z
Si Si1 0.737207 0.085388 0.871389
Si Si2 0.453292 0.121516 0.503137
Si Si3 0.283120 0.416876 0.256916
Si Si4 0.257893 0.515786 0.000000
Si Si5 0.881348 0.431343 0.881963
O O1 0.853434 0.146567 0.833334
O O2 0.675363 0.124193 0.808500
O O3 0.682057 0.960412 0.872774
O O4 0.717287 0.112155 0.971770
O O5 0.569959 0.139919 0.500000
O O6 0.434771 0.187351 0.428821
O O7 0.446187 0.171410 0.595448
O O8 0.375676 0.000000 0.500000
O O9 0.385683 0.511589 0.209238
O O10 0.366887 0.576409 0.053946
O O11 0.000000 0.500000 0.919815
#
# Coordination Sequence:
#
# PCOD9583758 Si02
#       5
#    12  12  12   6  12
#     4  10  20  34  59  80 108 151 185 239 293 340
#     4  10  23  39  59  82 116 156 194 245 293 357
#     4   9  20  38  53  83 112 140 194 235 286 354
#     4  10  22  36  52  84 111 151 198 234 290 350
#     4   9  19  34  53  75 112 149 187 235 282 338
#
# _framework density 18.958307999999999
#
# number of rings (size 3 to 8) (size 9 to 14) (size 15 to 20)
#    0.000    2.444    0.000    0.667    6.222    9.778 
#    0.000    0.000    0.000    0.667    0.000    3.111 
#    0.000    0.000    0.000    0.000    0.000    0.000 
#
# Total GULP energy -301088.935143 kJ/mol
# GULP energy per Si atom -5575.721021 kJ/mol
# Density = 1.891516 g / cm^3
# Si number density = 18.958308 Si / 1000 Ang^3
#
#
#
# Elastic Constant Matrix: (Units=GPa)
#
#
# Indices 1 2 3 4 5 6 
#
# 1 89.9801 47.9836 13.8117 0.0000 0.0000 0.0000
# 2 47.9836 89.9801 13.8117 0.0000 0.0000 0.0000
# 3 13.8117 13.8117 61.5620 0.0000 0.0000 0.0000
# 4 0.0000 0.0000 0.0000 11.3748 0.0000 0.0000
# 5 0.0000 0.0000 0.0000 0.0000 11.3748 0.0000
# 6 0.0000 0.0000 0.0000 0.0000 0.0000 20.9982
#
#
#
# Elastic Compliance Matrix: (Units=1/GPa)
#
#
# Indices 1 2 3 4 5 6 
#
# 1 0.015700 -0.008111 -0.001703 0.000000 0.000000 0.000000
# 2 -0.008111 0.015700 -0.001703 0.000000 0.000000 0.000000
# 3 -0.001703 -0.001703 0.017008 0.000000 0.000000 0.000000
# 4 0.000000 0.000000 0.000000 0.087913 0.000000 0.000000
# 5 0.000000 0.000000 0.000000 0.000000 0.087913 0.000000
# 6 0.000000 0.000000 0.000000 0.000000 0.000000 0.047623
#
#
# Mechanical properties :
#
#
# Convention : Reuss Voigt Hill
#
# Bulk Modulus (GPa) = 39.40810 43.63738 41.52274
# Shear Modulus (GPa) = 16.48261 19.81058 18.14660
#
# Velocity S-wave (km/s) = 2.95178 3.23608 3.09720
# Velocity P-wave (km/s) = 5.69642 6.08527 5.89405
#
# Compressibility (1/GPa) = 0.02537549
#
# Stress axis : x y z
#
# Youngs Moduli (GPa) = 63.69278 63.69278 58.79661
#
# Poissons Ratio (x) = 0.51662 0.10011
# Poissons Ratio (y) = 0.51662 0.10011
# Poissons Ratio (z) = 0.10845 0.10845
#
# Static dielectric constant tensor:
#      x y z
#    x 1.674460 0.000000 0.000000 
#    y 0.000000 1.674460 0.000000 
#    z 0.000000 0.000000 1.722500 
# 
# From -- ./inp_files/5983.got.cif
#   From: 2010.05.17/outbox.cif.g08.bks.cpg/sg180_3_cif.got.tgz:5983.got - 2010.05.20 11:43:55.
