data_PCOD9583020
_publ_section_title
;
Structure prediction by ZEFSAII (Michael W. Deem and Ramdas Pophale) SiO2 
 PCOD9583020
Probable space group: P 61 2 2
;
_chemical_formula_sum "Si O2"
_cell_formula_units_Z 42
_cell_length_a 22.165635
_cell_length_b 22.165635
_cell_length_c 5.116983
_cell_angle_alpha 90.000000
_cell_angle_beta 90.000000
_cell_angle_gamma 120.000000
_cell_volume 2177.233263
_symmetry_space_group_name_H-M "P 61 2 2"
_symmetry_group_IT_number 178
_symmetry_cell_setting 'hexagonal'
loop_
_space_group_symop_operation_xyz
x,y,z
x-y,x,1/6+z
-y,x-y,1/3+z
-x,-y,1/2+z
-x+y,-x,2/3+z
y,-x+y,5/6+z
x-y,-y,-z
-x,-x+y,2/3-z
y,x,1/3-z
-y,-x,5/6-z
-x+y,y,1/2-z
x,x-y,1/6-z
loop_
_atom_site_type_symbol
_atom_site_label
_atom_site_fract_x
_atom_site_fract_y
_atom_site_fract_z
Si Si1 0.890987 0.445494 0.583334
Si Si2 0.572602 0.572602 0.166667
Si Si3 0.610775 0.764862 0.841828
Si Si4 0.000000 0.656704 0.833334
Si Si5 0.213555 0.544695 0.420518
O O1 0.935726 0.440453 0.816493
O O2 0.843777 0.473003 0.700933
O O3 0.608141 0.619586 0.417492
O O4 0.608584 0.804292 0.583334
O O5 0.653415 0.725518 0.758310
O O6 0.528853 0.710163 0.906875
O O7 0.638592 0.819296 0.083334
O O8 0.281254 0.562508 0.250000
O O9 0.222789 0.611395 0.583334
#
# Coordination Sequence:
#
# PCOD9583020 Si02
#       5
#     6   6  12   6  12
#     4  12  26  42  64  88 118 158 218 284 332 424
#     4  12  25  40  64  98 114 158 218 273 334 396
#     4  11  25  45  64  93 124 158 209 264 317 391
#     4  12  23  44  70  90 124 166 202 263 338 384
#     4  11  27  44  59  84 120 167 215 276 346 413
#
# _framework density 19.290538999999999
#
# number of rings (size 3 to 8) (size 9 to 14) (size 15 to 20)
#    0.000    0.571    2.857    4.286   14.000    1.143 
#    0.000    0.000    0.000    0.000    0.000    0.000 
#    0.000    0.000    0.000    2.571    0.000    2.286 
#
# Total GULP energy -234550.195491 kJ/mol
# GULP energy per Si atom -5584.528464 kJ/mol
# Density = 1.924663 g / cm^3
# Si number density = 19.290539 Si / 1000 Ang^3
#
#
#
# Elastic Constant Matrix: (Units=GPa)
#
#
# Indices 1 2 3 4 5 6 
#
# 1 114.9340 55.3945 44.2454 0.0000 0.0000 0.0000
# 2 55.3945 114.9340 44.2454 0.0000 0.0000 0.0000
# 3 44.2454 44.2454 124.3219 0.0000 0.0000 0.0000
# 4 0.0000 0.0000 0.0000 36.5747 0.0000 0.0000
# 5 0.0000 0.0000 0.0000 0.0000 36.5747 0.0000
# 6 0.0000 0.0000 0.0000 0.0000 0.0000 29.7698
#
#
#
# Elastic Compliance Matrix: (Units=1/GPa)
#
#
# Indices 1 2 3 4 5 6 
#
# 1 0.011999 -0.004796 -0.002563 0.000000 0.000000 0.000000
# 2 -0.004796 0.011999 -0.002563 0.000000 0.000000 0.000000
# 3 -0.002563 -0.002563 0.009868 0.000000 0.000000 0.000000
# 4 0.000000 0.000000 0.000000 0.027341 0.000000 0.000000
# 5 0.000000 0.000000 0.000000 0.000000 0.027341 0.000000
# 6 0.000000 0.000000 0.000000 0.000000 0.000000 0.033591
#
#
# Mechanical properties :
#
#
# Convention : Reuss Voigt Hill
#
# Bulk Modulus (GPa) = 71.32609 71.32894 71.32752
# Shear Modulus (GPa) = 34.09241 34.60414 34.34828
#
# Velocity S-wave (km/s) = 4.20850 4.23997 4.22427
# Velocity P-wave (km/s) = 7.78911 7.81193 7.80053
#
# Compressibility (1/GPa) = 0.01402011
#
# Stress axis : x y z
#
# Youngs Moduli (GPa) = 83.33905 83.33905 101.33509
#
# Poissons Ratio (x) = 0.39973 0.25977
# Poissons Ratio (y) = 0.39973 0.25977
# Poissons Ratio (z) = 0.21363 0.21363
#
# Static dielectric constant tensor:
#      x y z
#    x 1.716570 0.000000 0.000000 
#    y 0.000000 1.716570 0.000000 
#    z 0.000000 0.000000 1.637910 
# 
# From -- ./inp_files/792.got.cif
#   From: 2010.05.17/outbox.cif.g08.bks.cpg/sg178_1_cif.got.tgz:792.got - 2010.05.20 11:30:59.
