data_PCOD9583528
_publ_section_title
;
Structure prediction by ZEFSAII (Michael W. Deem and Ramdas Pophale) SiO2 
 PCOD9583528
Probable space group: P 65 2 2
;
_chemical_formula_sum "Si O2"
_cell_formula_units_Z 54
_cell_length_a 11.349675
_cell_length_b 11.349675
_cell_length_c 21.736867
_cell_angle_alpha 90.000000
_cell_angle_beta 90.000000
_cell_angle_gamma 120.000000
_cell_volume 2424.903336
_symmetry_space_group_name_H-M "P 65 2 2"
_symmetry_group_IT_number 179
_symmetry_cell_setting 'hexagonal'
loop_
_space_group_symop_operation_xyz
x,y,z
x-y,x,5/6+z
-y,x-y,2/3+z
-x,-y,1/2+z
-x+y,-x,1/3+z
y,-x+y,1/6+z
x-y,-y,-z
-x,-x+y,1/3-z
y,x,2/3-z
-y,-x,1/6-z
-x+y,y,1/2-z
x,x-y,5/6-z
loop_
_atom_site_type_symbol
_atom_site_label
_atom_site_fract_x
_atom_site_fract_y
_atom_site_fract_z
Si Si1 0.529758 0.470243 0.583334
Si Si2 0.966231 0.839792 0.997532
Si Si3 0.789010 0.644436 0.099476
Si Si4 0.278929 0.000874 0.426824
Si Si5 0.431983 0.585376 0.946402
O O1 0.367806 0.412108 0.582890
O O2 0.577023 0.427636 0.520816
O O3 0.853059 0.747611 0.945095
O O4 0.093340 0.812967 0.997756
O O5 0.883517 0.776003 0.059012
O O6 0.018449 0.000000 0.000000
O O7 0.836829 0.537117 0.085222
O O8 0.276583 0.138292 0.416667
O O9 0.421572 0.021638 0.401776
O O10 0.286321 0.000000 0.500000
O O11 0.437149 0.718575 0.916667
#
# Coordination Sequence:
#
# PCOD9583528 Si02
#       5
#     6  12  12  12  12
#     4  12  24  50  76 104 154 204 256 316 392 476
#     4  12  25  42  70 105 145 193 249 308 383 459
#     4  12  24  44  73 104 145 198 248 312 391 464
#     4  11  23  41  67 106 142 184 249 311 369 454
#     4  11  26  45  75 112 147 196 259 322 394 461
#
# _framework density 22.268929
#
# number of rings (size 3 to 8) (size 9 to 14) (size 15 to 20)
#    0.000    0.444    5.556    4.000    3.111    0.889 
#    0.000    0.000    4.889    0.000    0.000    0.000 
#    0.000    0.000    0.000    0.000    0.000    0.000 
#
# Total GULP energy -301286.315452 kJ/mol
# GULP energy per Si atom -5579.376212 kJ/mol
# Density = 2.221824 g / cm^3
# Si number density = 22.268929 Si / 1000 Ang^3
#
#
#
# Elastic Constant Matrix: (Units=GPa)
#
#
# Indices 1 2 3 4 5 6 
#
# 1 125.1056 45.3540 22.8336 0.0000 0.0000 0.0000
# 2 45.3540 125.1056 22.8336 0.0000 0.0000 0.0000
# 3 22.8336 22.8336 99.5511 0.0000 0.0000 0.0000
# 4 0.0000 0.0000 0.0000 27.4619 0.0000 0.0000
# 5 0.0000 0.0000 0.0000 0.0000 27.4619 0.0000
# 6 0.0000 0.0000 0.0000 0.0000 0.0000 39.8758
#
#
#
# Elastic Compliance Matrix: (Units=1/GPa)
#
#
# Indices 1 2 3 4 5 6 
#
# 1 0.009395 -0.003144 -0.001434 0.000000 0.000000 0.000000
# 2 -0.003144 0.009395 -0.001434 0.000000 0.000000 0.000000
# 3 -0.001434 -0.001434 0.010703 0.000000 0.000000 0.000000
# 4 0.000000 0.000000 0.000000 0.036414 0.000000 0.000000
# 5 0.000000 0.000000 0.000000 0.000000 0.036414 0.000000
# 6 0.000000 0.000000 0.000000 0.000000 0.000000 0.025078
#
#
# Mechanical properties :
#
#
# Convention : Reuss Voigt Hill
#
# Bulk Modulus (GPa) = 57.24345 59.08942 58.16643
# Shear Modulus (GPa) = 34.42472 36.20933 35.31703
#
# Velocity S-wave (km/s) = 3.93601 4.03675 3.98670
# Velocity P-wave (km/s) = 6.81305 6.95120 6.88247
#
# Compressibility (1/GPa) = 0.01746925
#
# Stress axis : x y z
#
# Youngs Moduli (GPa) = 106.44243 106.44243 93.43388
#
# Poissons Ratio (x) = 0.33467 0.13395
# Poissons Ratio (y) = 0.33467 0.13395
# Poissons Ratio (z) = 0.15260 0.15260
#
# Static dielectric constant tensor:
#      x y z
#    x 1.856440 0.000000 0.000000 
#    y 0.000000 1.856440 0.000000 
#    z 0.000000 0.000000 1.973930 
# 
# From -- ./inp_files/7392.got.cif
#   From: 2010.05.17/outbox.cif.g08.bks.cpg/sg179_4_cif.got.tgz:7392.got - 2010.05.20 11:37:33.
