data_PCOD9583711
_publ_section_title
;
Structure prediction by ZEFSAII (Michael W. Deem and Ramdas Pophale) SiO2 
 PCOD9583711
Probable space group: P 62 2 2
;
_chemical_formula_sum "Si O2"
_cell_formula_units_Z 72
_cell_length_a 14.981367
_cell_length_b 14.981367
_cell_length_c 18.000996
_cell_angle_alpha 90.000000
_cell_angle_beta 90.000000
_cell_angle_gamma 120.000000
_cell_volume 3498.888100
_symmetry_space_group_name_H-M "P 62 2 2"
_symmetry_group_IT_number 180
_symmetry_cell_setting 'hexagonal'
loop_
_space_group_symop_operation_xyz
x,y,z
x-y,x,1/3+z
-y,x-y,2/3+z
-x,-y,z
-x+y,-x,1/3+z
y,-x+y,2/3+z
x-y,-y,-z
-x,-x+y,1/3-z
y,x,2/3-z
-y,-x,2/3-z
-x+y,y,-z
x,x-y,1/3-z
loop_
_atom_site_type_symbol
_atom_site_label
_atom_site_fract_x
_atom_site_fract_y
_atom_site_fract_z
Si Si1 0.235245 0.101992 0.966107
Si Si2 0.784109 0.592749 0.422697
Si Si3 0.269877 0.954401 0.418017
Si Si4 0.119007 0.370503 0.839850
Si Si5 0.029783 0.415406 0.382230
Si Si6 0.568874 0.445073 0.246299
O O1 0.220376 0.200967 0.952995
O O2 0.282358 0.091090 0.888261
O O3 0.326161 0.124965 0.025635
O O4 0.139420 0.000000 0.000000
O O5 0.826307 0.652614 0.500000
O O6 0.671051 0.504264 0.447020
O O7 0.849882 0.544703 0.387981
O O8 0.197684 0.833901 0.435281
O O9 0.364599 0.982999 0.363553
O O10 0.306777 0.000000 0.500000
O O11 0.022982 0.350560 0.889364
O O12 0.154855 0.479039 0.796001
O O13 0.000000 0.500000 0.400102
O O14 0.500000 0.500000 0.242166
O O15 0.575923 0.424078 0.333334
#
# Coordination Sequence:
#
# PCOD9583711 Si02
#       6
#    12  12  12  12  12  12
#     4  10  19  35  62  95 125 162 211 271 334 401
#     4  11  21  35  56  93 128 163 211 263 333 405
#     4   9  22  40  64  90 125 177 220 263 329 406
#     4  11  20  38  63  91 129 173 212 265 344 406
#     4  11  23  40  64  87 124 171 225 274 327 396
#     4  11  21  35  60  94 129 163 203 265 337 396
#
# _framework density 20.577964999999999
#
# number of rings (size 3 to 8) (size 9 to 14) (size 15 to 20)
#    0.000    1.500    1.667    5.000    0.000    0.333 
#    0.000    3.333    7.333    8.000    0.000   35.000 
#    0.000    0.000    0.000    0.000    0.000    0.000 
#
# Total GULP energy -401418.962146 kJ/mol
# GULP energy per Si atom -5575.263363 kJ/mol
# Density = 2.053113 g / cm^3
# Si number density = 20.577965 Si / 1000 Ang^3
#
#
#
# Elastic Constant Matrix: (Units=GPa)
#
#
# Indices 1 2 3 4 5 6 
#
# 1 76.0787 39.8731 13.3040 0.0000 0.0000 0.0000
# 2 39.8731 76.0787 13.3040 0.0000 0.0000 0.0000
# 3 13.3040 13.3040 101.4982 0.0000 0.0000 0.0000
# 4 0.0000 0.0000 0.0000 29.2816 0.0000 0.0000
# 5 0.0000 0.0000 0.0000 0.0000 29.2816 0.0000
# 6 0.0000 0.0000 0.0000 0.0000 0.0000 18.1028
#
#
#
# Elastic Compliance Matrix: (Units=1/GPa)
#
#
# Indices 1 2 3 4 5 6 
#
# 1 0.018256 -0.009364 -0.001165 0.000000 0.000000 0.000000
# 2 -0.009364 0.018256 -0.001165 0.000000 0.000000 0.000000
# 3 -0.001165 -0.001165 0.010158 0.000000 0.000000 0.000000
# 4 0.000000 0.000000 0.000000 0.034151 0.000000 0.000000
# 5 0.000000 0.000000 0.000000 0.000000 0.034151 0.000000
# 6 0.000000 0.000000 0.000000 0.000000 0.000000 0.055240
#
#
# Mechanical properties :
#
#
# Convention : Reuss Voigt Hill
#
# Bulk Modulus (GPa) = 42.95642 42.95753 42.95697
# Shear Modulus (GPa) = 24.83086 27.81148 26.32117
#
# Velocity S-wave (km/s) = 3.47749 3.68029 3.58032
# Velocity P-wave (km/s) = 6.08639 6.24341 6.16540
#
# Compressibility (1/GPa) = 0.02327941
#
# Stress axis : x y z
#
# Youngs Moduli (GPa) = 54.77681 54.77681 98.44526
#
# Poissons Ratio (x) = 0.51294 0.11474
# Poissons Ratio (y) = 0.51294 0.11474
# Poissons Ratio (z) = 0.06384 0.06384
#
# Static dielectric constant tensor:
#      x y z
#    x 1.807350 0.000000 0.000000 
#    y 0.000000 1.807350 0.000000 
#    z 0.000000 0.000000 1.791140 
# 
# From -- ./inp_files/7808.got.cif
#   From: 2010.05.17/outbox.cif.g08.bks.cpg/sg180_4_cif.got.tgz:7808.got - 2010.05.20 11:43:55.
