data_PCOD9583816
_publ_section_title
;
Structure prediction by ZEFSAII (Michael W. Deem and Ramdas Pophale) SiO2 
 PCOD9583816
Probable space group: P 62 2 2
;
_chemical_formula_sum "Si O2"
_cell_formula_units_Z 66
_cell_length_a 21.859706
_cell_length_b 21.859706
_cell_length_c 8.536752
_cell_angle_alpha 90.000000
_cell_angle_beta 90.000000
_cell_angle_gamma 120.000000
_cell_volume 3532.742068
_symmetry_space_group_name_H-M "P 62 2 2"
_symmetry_group_IT_number 180
_symmetry_cell_setting 'hexagonal'
loop_
_space_group_symop_operation_xyz
x,y,z
x-y,x,1/3+z
-y,x-y,2/3+z
-x,-y,z
-x+y,-x,1/3+z
y,-x+y,2/3+z
x-y,-y,-z
-x,-x+y,1/3-z
y,x,2/3-z
-y,-x,2/3-z
-x+y,y,-z
x,x-y,1/3-z
loop_
_atom_site_type_symbol
_atom_site_label
_atom_site_fract_x
_atom_site_fract_y
_atom_site_fract_z
Si Si1 0.628406 0.814203 0.666667
Si Si2 0.422055 0.577946 0.333334
Si Si3 0.349209 0.060121 0.883710
Si Si4 0.517209 0.678652 0.857845
Si Si5 0.700638 0.538124 0.466782
Si Si6 0.285228 0.642614 0.166667
Si Si7 0.581419 0.055038 0.268510
O O1 0.665967 0.888914 0.767151
O O2 0.576946 0.753253 0.787528
O O3 0.344459 0.541171 0.401274
O O4 0.474550 0.580020 0.466009
O O5 0.393048 0.029748 0.787528
O O6 0.407845 0.111490 0.007093
O O7 0.290677 0.000000 0.000000
O O8 0.441816 0.674563 0.854465
O O9 0.514185 0.618369 0.749013
O O10 0.536829 0.668359 0.032120
O O11 0.778854 0.557707 0.500000
O O12 0.325766 0.674235 0.333334
O O13 0.500000 0.000000 0.295089
#
# Coordination Sequence:
#
# PCOD9583816 Si02
#       7
#     6   6  12  12  12   6  12
#     4  10  20  40  62  83 119 144 182 258 310 390
#     4  10  21  36  54  81 101 144 184 230 306 384
#     4  10  21  38  63  88 110 153 195 239 323 396
#     4  11  23  41  58  81 105 142 191 242 324 382
#     4  11  22  38  60  75 111 148 188 249 315 381
#     4  12  28  42  55  74 104 142 196 246 308 408
#     4  10  20  39  59  79 112 138 185 250 315 384
#
# _framework density 18.682372000000001
#
# number of rings (size 3 to 8) (size 9 to 14) (size 15 to 20)
#    0.000    1.455    2.727    3.545    1.273    1.455 
#    1.636   22.273    0.000    0.000    0.000    0.000 
#    0.000    0.000    0.000    0.000    0.000    0.000 
#
# Total GULP energy -368379.647744 kJ/mol
# GULP energy per Si atom -5581.509814 kJ/mol
# Density = 1.863985 g / cm^3
# Si number density = 18.682372 Si / 1000 Ang^3
#
#
#
# Elastic Constant Matrix: (Units=GPa)
#
#
# Indices 1 2 3 4 5 6 
#
# 1 129.4324 -27.6039 37.3196 0.0000 0.0000 0.0000
# 2 -27.6039 129.4324 37.3196 0.0000 0.0000 0.0000
# 3 37.3196 37.3196 127.9119 0.0000 0.0000 0.0000
# 4 0.0000 0.0000 0.0000 15.2526 0.0000 0.0000
# 5 0.0000 0.0000 0.0000 0.0000 15.2526 0.0000
# 6 0.0000 0.0000 0.0000 0.0000 0.0000 78.5182
#
#
#
# Elastic Compliance Matrix: (Units=1/GPa)
#
#
# Indices 1 2 3 4 5 6 
#
# 1 0.009430 0.003062 -0.003645 0.000000 0.000000 0.000000
# 2 0.003062 0.009430 -0.003645 0.000000 0.000000 0.000000
# 3 -0.003645 -0.003645 0.009945 0.000000 0.000000 0.000000
# 4 0.000000 0.000000 0.000000 0.065563 0.000000 0.000000
# 5 0.000000 0.000000 0.000000 0.000000 0.065563 0.000000
# 6 0.000000 0.000000 0.000000 0.000000 0.000000 0.012736
#
#
# Mechanical properties :
#
#
# Convention : Reuss Voigt Hill
#
# Bulk Modulus (GPa) = 49.14037 53.42747 51.28392
# Shear Modulus (GPa) = 26.60939 44.45410 35.53175
#
# Velocity S-wave (km/s) = 3.77809 4.88327 4.36579
# Velocity P-wave (km/s) = 6.73737 7.77528 7.27486
#
# Compressibility (1/GPa) = 0.02034987
#
# Stress axis : x y z
#
# Youngs Moduli (GPa) = 106.04525 106.04525 100.55699
#
# Poissons Ratio (x) = -0.32471 0.36649
# Poissons Ratio (y) = -0.32471 0.36649
# Poissons Ratio (z) = 0.38650 0.38650
#
# Static dielectric constant tensor:
#      x y z
#    x 1.672270 0.000000 0.000000 
#    y 0.000000 1.672270 0.000000 
#    z 0.000000 0.000000 1.720770 
# 
# From -- ./inp_files/3260.got.cif
#   From: 2010.05.17/outbox.cif.g08.bks.cpg/sg180_2_cif.got.tgz:3260.got - 2010.05.20 11:43:55.
