data_PCOD9583310
_publ_section_title
;
Structure prediction by ZEFSAII (Michael W. Deem and Ramdas Pophale) SiO2 
 PCOD9583310
Probable space group: P 65 2 2
;
_chemical_formula_sum "Si O2"
_cell_formula_units_Z 84
_cell_length_a 18.963655
_cell_length_b 18.963655
_cell_length_c 13.541423
_cell_angle_alpha 90.000000
_cell_angle_beta 90.000000
_cell_angle_gamma 120.000000
_cell_volume 4217.344007
_symmetry_space_group_name_H-M "P 65 2 2"
_symmetry_group_IT_number 179
_symmetry_cell_setting 'hexagonal'
loop_
_space_group_symop_operation_xyz
x,y,z
x-y,x,5/6+z
-y,x-y,2/3+z
-x,-y,1/2+z
-x+y,-x,1/3+z
y,-x+y,1/6+z
x-y,-y,-z
-x,-x+y,1/3-z
y,x,2/3-z
-y,-x,1/6-z
-x+y,y,1/2-z
x,x-y,5/6-z
loop_
_atom_site_type_symbol
_atom_site_label
_atom_site_fract_x
_atom_site_fract_y
_atom_site_fract_z
Si Si1 0.286717 0.589029 0.005139
Si Si2 0.897149 0.522479 0.536424
Si Si3 0.328505 0.236303 0.858140
Si Si4 0.042605 0.750723 0.767180
Si Si5 0.447238 0.046940 0.857190
Si Si6 0.327733 0.202530 0.523855
Si Si7 0.691129 0.555773 0.487853
O O1 0.273394 0.636697 0.916667
O O2 0.320865 0.531883 0.966794
O O3 0.347302 0.652699 0.083334
O O4 0.199118 0.527771 0.051591
O O5 0.934783 0.614041 0.575079
O O6 0.931334 0.464474 0.572036
O O7 0.915346 0.534498 0.418924
O O8 0.255905 0.255905 0.833334
O O9 0.307668 0.153834 0.916667
O O10 0.393959 0.314833 0.921210
O O11 0.379087 0.246877 0.758099
O O12 0.126555 0.835000 0.765661
O O13 0.000000 0.752217 0.666667
O O14 0.972686 0.726854 0.848184
O O15 0.391223 0.950123 0.850867
O O16 0.336629 0.168315 0.416667
O O17 0.412639 0.270069 0.570618
#
# Coordination Sequence:
#
# PCOD9583310 Si02
#       7
#    12  12  12  12  12  12  12
#     4  12  28  42  58  86 123 173 210 261 324 379
#     4  11  21  39  63  83 118 167 213 262 323 367
#     4  10  23  39  64  94 126 163 212 269 322 391
#     4  10  21  38  61  89 126 162 208 268 320 379
#     4  10  22  38  63  88 115 161 215 266 317 370
#     4  10  21  37  62  94 126 163 208 270 321 385
#     4  11  23  41  65  86 121 166 220 265 318 381
#
# _framework density 19.917749000000001
#
# number of rings (size 3 to 8) (size 9 to 14) (size 15 to 20)
#    0.000    1.429    4.286    0.857    4.000    2.286 
#    0.000    0.000    0.000    0.000    0.000    0.000 
#    0.000  152.000    0.000    0.000    0.000    0.000 
#
# Total GULP energy -468865.329096 kJ/mol
# GULP energy per Si atom -5581.730108 kJ/mol
# Density = 1.987242 g / cm^3
# Si number density = 19.917749 Si / 1000 Ang^3
#
#
#
# Elastic Constant Matrix: (Units=GPa)
#
#
# Indices 1 2 3 4 5 6 
#
# 1 178.5647 5.2789 15.8415 0.0000 0.0000 -0.0001
# 2 5.2789 178.5647 15.8415 0.0000 0.0000 0.0001
# 3 15.8415 15.8415 33.7137 0.0000 0.0000 0.0000
# 4 0.0000 0.0000 0.0000 26.0214 0.0000 0.0000
# 5 0.0000 0.0000 0.0000 0.0000 26.0214 0.0000
# 6 -0.0001 0.0001 0.0000 0.0000 0.0000 86.6430
#
#
#
# Elastic Compliance Matrix: (Units=1/GPa)
#
#
# Indices 1 2 3 4 5 6 
#
# 1 0.005845 0.000074 -0.002781 0.000000 0.000000 0.000000
# 2 0.000074 0.005845 -0.002781 0.000000 0.000000 0.000000
# 3 -0.002781 -0.002781 0.032275 0.000000 0.000000 0.000000
# 4 0.000000 0.000000 0.000000 0.038430 0.000000 0.000000
# 5 0.000000 0.000000 0.000000 0.000000 0.038430 0.000000
# 6 0.000000 0.000000 0.000000 0.000000 0.000000 0.011542
#
#
# Mechanical properties :
#
#
# Convention : Reuss Voigt Hill
#
# Bulk Modulus (GPa) = 30.31395 51.64077 40.97736
# Shear Modulus (GPa) = 32.39632 51.32923 41.86278
#
# Velocity S-wave (km/s) = 4.03737 5.08198 4.58949
# Velocity P-wave (km/s) = 6.08165 7.77295 6.97872
#
# Compressibility (1/GPa) = 0.03298811
#
# Stress axis : x y z
#
# Youngs Moduli (GPa) = 171.09363 171.09363 30.98364
#
# Poissons Ratio (x) = -0.01265 0.08617
# Poissons Ratio (y) = -0.01265 0.08617
# Poissons Ratio (z) = 0.47583 0.47583
#
# Static dielectric constant tensor:
#      x y z
#    x 1.728830 0.000000 0.000000 
#    y 0.000000 1.728830 0.000000 
#    z 0.000000 0.000000 1.741560 
# 
# From -- ./inp_files/6122.got.cif
#   From: 2010.05.17/outbox.cif.g08.bks.cpg/sg179_4_cif.got.tgz:6122.got - 2010.05.20 11:37:33.
