data_PCOD9583557
_publ_section_title
;
Structure prediction by ZEFSAII (Michael W. Deem and Ramdas Pophale) SiO2 
 PCOD9583557
Probable space group: P 65 2 2
;
_chemical_formula_sum "Si O2"
_cell_formula_units_Z 54
_cell_length_a 11.036569
_cell_length_b 11.036569
_cell_length_c 24.088175
_cell_angle_alpha 90.000000
_cell_angle_beta 90.000000
_cell_angle_gamma 120.000000
_cell_volume 2540.988473
_symmetry_space_group_name_H-M "P 65 2 2"
_symmetry_group_IT_number 179
_symmetry_cell_setting 'hexagonal'
loop_
_space_group_symop_operation_xyz
x,y,z
x-y,x,5/6+z
-y,x-y,2/3+z
-x,-y,1/2+z
-x+y,-x,1/3+z
y,-x+y,1/6+z
x-y,-y,-z
-x,-x+y,1/3-z
y,x,2/3-z
-y,-x,1/6-z
-x+y,y,1/2-z
x,x-y,5/6-z
loop_
_atom_site_type_symbol
_atom_site_label
_atom_site_fract_x
_atom_site_fract_y
_atom_site_fract_z
Si Si1 0.875531 0.751063 0.250000
Si Si2 0.458008 0.712745 0.530982
Si Si3 0.358467 0.641534 0.083334
Si Si4 0.839350 0.882339 0.664441
Si Si5 0.963322 0.287645 0.912111
Si Si6 0.623022 0.623022 0.333334
O O1 0.840724 0.848294 0.212855
O O2 0.748067 0.663611 0.290389
O O3 0.361852 0.638149 0.583334
O O4 0.378717 0.665227 0.471536
O O5 0.591234 0.687278 0.543591
O O6 0.501247 0.876161 0.533696
O O7 0.302762 0.475387 0.083103
O O8 0.724420 0.732963 0.641060
O O9 0.782735 0.919254 0.719176
O O10 0.000000 0.918130 0.666667
#
# Coordination Sequence:
#
# PCOD9583557 Si02
#       6
#     6  12   6  12  12   6
#     4  12  17  34  68 114 127 168 234 298 342 405
#     4  12  26  49  74 103 146 189 240 308 360 444
#     4  12  31  46  68 106 145 200 240 286 372 443
#     4  12  20  40  73 107 140 176 238 307 363 407
#     4  12  25  43  71 104 142 189 241 300 359 435
#     4  12  24  40  76 104 138 182 238 296 350 434
#
# _framework density 21.251570000000001
#
# number of rings (size 3 to 8) (size 9 to 14) (size 15 to 20)
#    0.000    0.000    8.889    2.000    0.000    0.000 
#    2.000    0.000    0.000    0.000    0.000    0.000 
#    0.000    0.000    0.000    0.000    0.000    0.000 
#
# Total GULP energy -301122.127883 kJ/mol
# GULP energy per Si atom -5576.335702 kJ/mol
# Density = 2.120320 g / cm^3
# Si number density = 21.251570 Si / 1000 Ang^3
#
#
#
# Elastic Constant Matrix: (Units=GPa)
#
#
# Indices 1 2 3 4 5 6 
#
# 1 79.9357 76.1945 47.1167 0.0000 0.0000 0.0000
# 2 76.1945 79.9357 47.1167 0.0000 0.0000 0.0000
# 3 47.1167 47.1167 119.6667 0.0000 0.0000 0.0000
# 4 0.0000 0.0000 0.0000 30.6981 0.0000 0.0000
# 5 0.0000 0.0000 0.0000 0.0000 30.6981 0.0000
# 6 0.0000 0.0000 0.0000 0.0000 0.0000 1.8706
#
#
#
# Elastic Compliance Matrix: (Units=1/GPa)
#
#
# Indices 1 2 3 4 5 6 
#
# 1 0.137849 -0.129447 -0.003308 0.000000 0.000000 0.000000
# 2 -0.129447 0.137849 -0.003308 0.000000 0.000000 0.000000
# 3 -0.003308 -0.003308 0.010961 0.000000 0.000000 0.000000
# 4 0.000000 0.000000 0.000000 0.032575 0.000000 0.000000
# 5 0.000000 0.000000 0.000000 0.000000 0.032575 0.000000
# 6 0.000000 0.000000 0.000000 0.000000 0.000000 0.534592
#
#
# Mechanical properties :
#
#
# Convention : Reuss Voigt Hill
#
# Bulk Modulus (GPa) = 68.81084 68.93267 68.87176
# Shear Modulus (GPa) = 4.29785 19.92735 12.11260
#
# Velocity S-wave (km/s) = 1.42364 3.06549 2.38998
# Velocity P-wave (km/s) = 5.92890 6.71093 6.33200
#
# Compressibility (1/GPa) = 0.01453259
#
# Stress axis : x y z
#
# Youngs Moduli (GPa) = 7.25433 7.25433 91.22901
#
# Poissons Ratio (x) = 0.93905 0.30178
# Poissons Ratio (y) = 0.93905 0.30178
# Poissons Ratio (z) = 0.02400 0.02400
#
# Static dielectric constant tensor:
#      x y z
#    x 1.814820 0.000000 0.000000 
#    y 0.000000 1.814820 0.000000 
#    z 0.000000 0.000000 1.740990 
# 
# From -- ./inp_files/8220.got.cif
#   From: 2010.05.17/outbox.cif.g08.bks.cpg/sg179_5_cif.got.tgz:8220.got - 2010.05.20 11:37:33.
