data_PCOD9583034
_publ_section_title
;
Structure prediction by ZEFSAII (Michael W. Deem and Ramdas Pophale) SiO2 
 PCOD9583034
Probable space group: P 61 2 2
;
_chemical_formula_sum "Si O2"
_cell_formula_units_Z 84
_cell_length_a 13.870841
_cell_length_b 13.870841
_cell_length_c 24.914110
_cell_angle_alpha 90.000000
_cell_angle_beta 90.000000
_cell_angle_gamma 120.000000
_cell_volume 4151.275882
_symmetry_space_group_name_H-M "P 61 2 2"
_symmetry_group_IT_number 178
_symmetry_cell_setting 'hexagonal'
loop_
_space_group_symop_operation_xyz
x,y,z
x-y,x,1/6+z
-y,x-y,1/3+z
-x,-y,1/2+z
-x+y,-x,2/3+z
y,-x+y,5/6+z
x-y,-y,-z
-x,-x+y,2/3-z
y,x,1/3-z
-y,-x,5/6-z
-x+y,y,1/2-z
x,x-y,1/6-z
loop_
_atom_site_type_symbol
_atom_site_label
_atom_site_fract_x
_atom_site_fract_y
_atom_site_fract_z
Si Si1 0.202999 0.709723 0.651829
Si Si2 0.736921 0.473842 0.250000
Si Si3 0.247058 0.897377 0.564429
Si Si4 0.509685 0.983626 0.807259
Si Si5 0.479185 0.479185 0.666667
Si Si6 0.546307 0.325758 0.026882
Si Si7 0.319547 0.839111 0.063155
Si Si8 0.332126 0.252227 0.515425
O O1 0.215351 0.797138 0.606402
O O2 0.320477 0.711918 0.652268
O O3 0.175279 0.734532 0.711881
O O4 0.100274 0.588235 0.639386
O O5 0.612756 0.395154 0.234152
O O6 0.817071 0.554757 0.204647
O O7 0.143841 0.854326 0.522949
O O8 0.362517 0.925738 0.533302
O O9 0.268553 0.004702 0.599550
O O10 0.462943 0.925885 0.750000
O O11 0.426557 0.905028 0.852910
O O12 0.633095 0.005489 0.816589
O O13 0.535642 0.579747 0.709794
O O14 0.531094 0.265547 0.083334
O O15 0.467911 0.231356 0.984255
#
# Coordination Sequence:
#
# PCOD9583034 Si02
#       8
#    12   6  12  12   6  12  12  12
#     4  12  23  37  61  91 128 179 218 273 330 395
#     4  12  20  34  58  88 124 170 212 272 326 386
#     4  12  24  39  63  94 132 172 219 272 348 406
#     4  12  23  39  60  91 134 176 220 272 321 398
#     4  12  24  42  64  92 136 172 230 282 342 406
#     4  12  26  39  60  90 131 180 229 277 329 400
#     4  12  23  38  57  87 128 176 227 271 329 396
#     4  12  23  39  61  92 133 174 218 272 340 409
#
# _framework density 20.234743999999999
#
# number of rings (size 3 to 8) (size 9 to 14) (size 15 to 20)
#    0.000    0.000    8.571    2.143    2.000    0.000 
#    0.000    0.000    0.000    0.000    0.000    0.000 
#   15.000    0.000    0.000    0.000    0.000    0.000 
#
# Total GULP energy -468572.061684 kJ/mol
# GULP energy per Si atom -5578.238830 kJ/mol
# Density = 2.018869 g / cm^3
# Si number density = 20.234744 Si / 1000 Ang^3
#
#
#
# Elastic Constant Matrix: (Units=GPa)
#
#
# Indices 1 2 3 4 5 6 
#
# 1 66.2628 11.3404 27.0667 0.0000 0.0000 0.0000
# 2 11.3404 66.2628 27.0667 0.0000 0.0000 0.0000
# 3 27.0667 27.0667 126.7710 0.0000 0.0000 0.0000
# 4 0.0000 0.0000 0.0000 40.7801 0.0000 0.0000
# 5 0.0000 0.0000 0.0000 0.0000 40.7801 0.0000
# 6 0.0000 0.0000 0.0000 0.0000 0.0000 27.4612
#
#
#
# Elastic Compliance Matrix: (Units=1/GPa)
#
#
# Indices 1 2 3 4 5 6 
#
# 1 0.016674 -0.001533 -0.003233 0.000000 0.000000 0.000000
# 2 -0.001533 0.016674 -0.003233 0.000000 0.000000 0.000000
# 3 -0.003233 -0.003233 0.009269 0.000000 0.000000 0.000000
# 4 0.000000 0.000000 0.000000 0.024522 0.000000 0.000000
# 5 0.000000 0.000000 0.000000 0.000000 0.024522 0.000000
# 6 0.000000 0.000000 0.000000 0.000000 0.000000 0.036415
#
#
# Mechanical properties :
#
#
# Convention : Reuss Voigt Hill
#
# Bulk Modulus (GPa) = 37.56591 43.36050 40.46320
# Shear Modulus (GPa) = 32.69115 34.72580 33.70847
#
# Velocity S-wave (km/s) = 4.02381 4.14713 4.08594
# Velocity P-wave (km/s) = 6.33983 6.66385 6.50386
#
# Compressibility (1/GPa) = 0.02661988
#
# Stress axis : x y z
#
# Youngs Moduli (GPa) = 59.97248 59.97248 107.89009
#
# Poissons Ratio (x) = 0.09195 0.34878
# Poissons Ratio (y) = 0.09195 0.34878
# Poissons Ratio (z) = 0.19388 0.19388
#
# Static dielectric constant tensor:
#      x y z
#    x 1.733500 0.000000 0.000000 
#    y 0.000000 1.733500 0.000000 
#    z 0.000000 0.000000 1.859990 
# 
# From -- ./inp_files/8371.got.cif
#   From: 2010.05.17/outbox.cif.g08.bks.cpg/sg178_5_cif.got.tgz:8371.got - 2010.05.20 11:30:59.
