data_PCOD9583419
_publ_section_title
;
Structure prediction by ZEFSAII (Michael W. Deem and Ramdas Pophale) SiO2 
 PCOD9583419
Probable space group: P 65 2 2
;
_chemical_formula_sum "Si O2"
_cell_formula_units_Z 60
_cell_length_a 10.779791
_cell_length_b 10.779791
_cell_length_c 27.266971
_cell_angle_alpha 90.000000
_cell_angle_beta 90.000000
_cell_angle_gamma 120.000000
_cell_volume 2744.025921
_symmetry_space_group_name_H-M "P 65 2 2"
_symmetry_group_IT_number 179
_symmetry_cell_setting 'hexagonal'
loop_
_space_group_symop_operation_xyz
x,y,z
x-y,x,5/6+z
-y,x-y,2/3+z
-x,-y,1/2+z
-x+y,-x,1/3+z
y,-x+y,1/6+z
x-y,-y,-z
-x,-x+y,1/3-z
y,x,2/3-z
-y,-x,1/6-z
-x+y,y,1/2-z
x,x-y,5/6-z
loop_
_atom_site_type_symbol
_atom_site_label
_atom_site_fract_x
_atom_site_fract_y
_atom_site_fract_z
Si Si1 0.946203 0.447843 0.802744
Si Si2 0.542448 0.349820 0.132435
Si Si3 0.269095 0.988297 0.057989
Si Si4 0.768999 0.011271 0.121152
Si Si5 0.222738 0.995528 0.731962
O O1 0.795315 0.318654 0.824320
O O2 0.960247 0.377104 0.753002
O O3 0.940594 0.591277 0.792183
O O4 0.095778 0.510879 0.833889
O O5 0.631523 0.368478 0.083334
O O6 0.392008 0.323487 0.110047
O O7 0.206018 0.090773 0.072672
O O8 0.161891 0.838110 0.083334
O O9 0.290447 0.000000 0.000000
O O10 0.889246 0.110755 0.083334
O O11 0.828940 0.019402 0.175723
O O12 0.706985 0.854998 0.096796
#
# Coordination Sequence:
#
# PCOD9583419 Si02
#       5
#    12  12  12  12  12
#     4  10  25  43  67 100 137 184 242 293 371 447
#     4  10  23  42  71  94 141 185 234 305 369 450
#     4  11  24  42  66  99 138 183 232 299 362 445
#     4  11  22  42  65  99 132 178 230 303 363 441
#     4  10  23  39  67  92 132 174 235 285 364 441
#
# _framework density 21.865680999999999
#
# number of rings (size 3 to 8) (size 9 to 14) (size 15 to 20)
#    0.000    1.600    0.000    3.000   14.000    1.600 
#    7.200    0.000    0.000    0.000    0.000    0.000 
#    0.000    0.000    0.000    0.000    0.000    0.000 
#
# Total GULP energy -334540.534749 kJ/mol
# GULP energy per Si atom -5575.675579 kJ/mol
# Density = 2.181591 g / cm^3
# Si number density = 21.865681 Si / 1000 Ang^3
#
#
#
# Elastic Constant Matrix: (Units=GPa)
#
#
# Indices 1 2 3 4 5 6 
#
# 1 96.7883 29.2132 44.7488 0.0000 0.0000 0.0000
# 2 29.2132 96.7883 44.7488 0.0000 0.0000 0.0000
# 3 44.7488 44.7488 159.4656 0.0000 0.0000 0.0000
# 4 0.0000 0.0000 0.0000 31.2756 0.0000 0.0000
# 5 0.0000 0.0000 0.0000 0.0000 31.2756 0.0000
# 6 0.0000 0.0000 0.0000 0.0000 0.0000 33.7875
#
#
#
# Elastic Compliance Matrix: (Units=1/GPa)
#
#
# Indices 1 2 3 4 5 6 
#
# 1 0.012355 -0.002443 -0.002781 0.000000 0.000000 0.000000
# 2 -0.002443 0.012355 -0.002781 0.000000 0.000000 0.000000
# 3 -0.002781 -0.002781 0.007832 0.000000 0.000000 0.000000
# 4 0.000000 0.000000 0.000000 0.031974 0.000000 0.000000
# 5 0.000000 0.000000 0.000000 0.000000 0.031974 0.000000
# 6 0.000000 0.000000 0.000000 0.000000 0.000000 0.029597
#
#
# Mechanical properties :
#
#
# Convention : Reuss Voigt Hill
#
# Bulk Modulus (GPa) = 60.49541 65.60709 63.05125
# Shear Modulus (GPa) = 33.87326 34.88985 34.38155
#
# Velocity S-wave (km/s) = 3.94020 3.99889 3.96965
# Velocity P-wave (km/s) = 6.95896 7.16876 7.06464
#
# Compressibility (1/GPa) = 0.01653018
#
# Stress axis : x y z
#
# Youngs Moduli (GPa) = 80.93743 80.93743 127.68103
#
# Poissons Ratio (x) = 0.19774 0.35514
# Poissons Ratio (y) = 0.19774 0.35514
# Poissons Ratio (z) = 0.22513 0.22513
#
# Static dielectric constant tensor:
#      x y z
#    x 1.854920 0.000000 0.000000 
#    y 0.000000 1.854920 0.000000 
#    z 0.000000 0.000000 1.844640 
# 
# From -- ./inp_files/8842.got.cif
#   From: 2010.05.17/outbox.cif.g08.bks.cpg/sg179_5_cif.got.tgz:8842.got - 2010.05.20 11:37:33.
