data_PCOD9583434
_publ_section_title
;
Structure prediction by ZEFSAII (Michael W. Deem and Ramdas Pophale) SiO2 
 PCOD9583434
Probable space group: P 65 2 2
;
_chemical_formula_sum "Si O2"
_cell_formula_units_Z 48
_cell_length_a 17.388191
_cell_length_b 17.388191
_cell_length_c 7.805603
_cell_angle_alpha 90.000000
_cell_angle_beta 90.000000
_cell_angle_gamma 120.000000
_cell_volume 2043.835295
_symmetry_space_group_name_H-M "P 65 2 2"
_symmetry_group_IT_number 179
_symmetry_cell_setting 'hexagonal'
loop_
_space_group_symop_operation_xyz
x,y,z
x-y,x,5/6+z
-y,x-y,2/3+z
-x,-y,1/2+z
-x+y,-x,1/3+z
y,-x+y,1/6+z
x-y,-y,-z
-x,-x+y,1/3-z
y,x,2/3-z
-y,-x,1/6-z
-x+y,y,1/2-z
x,x-y,5/6-z
loop_
_atom_site_type_symbol
_atom_site_label
_atom_site_fract_x
_atom_site_fract_y
_atom_site_fract_z
Si Si1 0.426568 0.410938 0.034593
Si Si2 0.385291 0.221962 0.110186
Si Si3 0.577178 0.422823 0.583334
Si Si4 0.179037 0.069625 0.659878
Si Si5 0.261465 0.738536 0.583334
O O1 0.530607 0.469394 0.083334
O O2 0.384511 0.313997 0.104686
O O3 0.388895 0.472522 0.101564
O O4 0.412657 0.412657 0.833334
O O5 0.284427 0.148884 0.156245
O O6 0.459535 0.236100 0.249511
O O7 0.405850 0.202925 0.916667
O O8 0.586527 0.367769 0.430158
O O9 0.135715 0.131449 0.638509
O O10 0.154493 0.000000 0.500000
#
# Coordination Sequence:
#
# PCOD9583434 Si02
#       5
#    12  12   6  12   6
#     4  10  23  44  74 109 143 199 248 307 396 463
#     4  12  28  45  79 113 152 192 264 324 385 466
#     4  10  26  46  79 106 152 208 250 315 398 458
#     4  10  24  46  70 103 148 206 253 317 389 455
#     4  12  26  54  73 116 154 200 258 323 386 476
#
# _framework density 23.485261000000001
#
# number of rings (size 3 to 8) (size 9 to 14) (size 15 to 20)
#    0.750    0.500    0.000    4.500   10.500    0.000 
#   22.500    0.000    0.000    0.000    0.000    0.000 
#    0.000    0.000    0.000    0.000    0.000    0.000 
#
# Total GULP energy -267669.049166 kJ/mol
# GULP energy per Si atom -5576.438524 kJ/mol
# Density = 2.343181 g / cm^3
# Si number density = 23.485261 Si / 1000 Ang^3
#
#
#
# Elastic Constant Matrix: (Units=GPa)
#
#
# Indices 1 2 3 4 5 6 
#
# 1 95.7499 27.5923 11.2265 0.0000 0.0000 0.0000
# 2 27.5923 95.7499 11.2265 0.0000 0.0000 0.0000
# 3 11.2265 11.2265 91.3735 0.0000 0.0000 0.0000
# 4 0.0000 0.0000 0.0000 81.3589 0.0000 0.0000
# 5 0.0000 0.0000 0.0000 0.0000 81.3589 0.0000
# 6 0.0000 0.0000 0.0000 0.0000 0.0000 34.0788
#
#
#
# Elastic Compliance Matrix: (Units=1/GPa)
#
#
# Indices 1 2 3 4 5 6 
#
# 1 0.011482 -0.003189 -0.001019 0.000000 0.000000 0.000000
# 2 -0.003189 0.011482 -0.001019 0.000000 0.000000 0.000000
# 3 -0.001019 -0.001019 0.011194 0.000000 0.000000 0.000000
# 4 0.000000 0.000000 0.000000 0.012291 0.000000 0.000000
# 5 0.000000 0.000000 0.000000 0.000000 0.012291 0.000000
# 6 0.000000 0.000000 0.000000 0.000000 0.000000 0.029344
#
#
# Mechanical properties :
#
#
# Convention : Reuss Voigt Hill
#
# Bulk Modulus (GPa) = 42.18549 42.55155 42.36852
# Shear Modulus (GPa) = 46.97408 54.88118 50.92763
#
# Velocity S-wave (km/s) = 4.47716 4.83933 4.66176
# Velocity P-wave (km/s) = 6.68791 7.02732 6.85971
#
# Compressibility (1/GPa) = 0.02370483
#
# Stress axis : x y z
#
# Youngs Moduli (GPa) = 87.08949 87.08949 89.32981
#
# Poissons Ratio (x) = 0.27777 0.09102
# Poissons Ratio (y) = 0.27777 0.09102
# Poissons Ratio (z) = 0.08874 0.08874
#
# Static dielectric constant tensor:
#      x y z
#    x 1.757920 0.000000 0.000000 
#    y 0.000000 1.757920 0.000000 
#    z 0.000000 0.000000 1.973190 
# 
# From -- ./inp_files/2883.got.cif
#   From: 2010.05.17/outbox.cif.g08.bks.cpg/sg179_2_cif.got.tgz:2883.got - 2010.05.20 11:37:33.
