data_PCOD9583524
_publ_section_title
;
Structure prediction by ZEFSAII (Michael W. Deem and Ramdas Pophale) SiO2 
 PCOD9583524
Probable space group: P 65 2 2
;
_chemical_formula_sum "Si O2"
_cell_formula_units_Z 42
_cell_length_a 19.623978
_cell_length_b 19.623978
_cell_length_c 5.714020
_cell_angle_alpha 90.000000
_cell_angle_beta 90.000000
_cell_angle_gamma 120.000000
_cell_volume 1905.664679
_symmetry_space_group_name_H-M "P 65 2 2"
_symmetry_group_IT_number 179
_symmetry_cell_setting 'hexagonal'
loop_
_space_group_symop_operation_xyz
x,y,z
x-y,x,5/6+z
-y,x-y,2/3+z
-x,-y,1/2+z
-x+y,-x,1/3+z
y,-x+y,1/6+z
x-y,-y,-z
-x,-x+y,1/3-z
y,x,2/3-z
-y,-x,1/6-z
-x+y,y,1/2-z
x,x-y,5/6-z
loop_
_atom_site_type_symbol
_atom_site_label
_atom_site_fract_x
_atom_site_fract_y
_atom_site_fract_z
Si Si1 0.206961 0.661344 0.744055
Si Si2 0.969404 0.339943 0.909919
Si Si3 0.802944 0.615665 0.499587
Si Si4 0.536028 0.463973 0.583334
O O1 0.279496 0.720505 0.583334
O O2 0.182142 0.723790 0.847837
O O3 0.133139 0.587609 0.620809
O O4 0.236439 0.618220 0.916667
O O5 0.875448 0.288533 0.870798
O O6 0.984642 0.427463 0.900880
O O7 0.000000 0.322461 0.666667
O O8 0.000000 0.330202 0.166667
O O9 0.830176 0.660352 0.750000
O O10 0.828887 0.657774 0.250000
#
# Coordination Sequence:
#
# PCOD9583524 Si02
#       4
#    12  12  12   6
#     4  11  25  41  58  81 108 141 192 244 309 366
#     4  12  26  43  61  85 116 151 188 239 307 382
#     4  11  22  45  64  84 111 145 191 241 298 367
#     4  12  24  42  60  82 106 154 186 246 300 390
#
# _framework density 22.039553999999999
#
# number of rings (size 3 to 8) (size 9 to 14) (size 15 to 20)
#    0.000    0.571    5.714    4.286    4.000    1.143 
#    0.000    0.000    0.000    0.000    0.000    0.000 
#    0.000    0.000    0.000    0.000    0.000    0.000 
#
# Total GULP energy -233930.206746 kJ/mol
# GULP energy per Si atom -5569.766827 kJ/mol
# Density = 2.198939 g / cm^3
# Si number density = 22.039554 Si / 1000 Ang^3
#
#
#
# Elastic Constant Matrix: (Units=GPa)
#
#
# Indices 1 2 3 4 5 6 
#
# 1 52.4663 5.5372 24.0671 0.0000 0.0000 0.0000
# 2 5.5372 52.4663 24.0671 0.0000 0.0000 0.0000
# 3 24.0671 24.0671 217.0824 0.0000 0.0000 0.0000
# 4 0.0000 0.0000 0.0000 28.1307 0.0000 0.0000
# 5 0.0000 0.0000 0.0000 0.0000 28.1307 0.0000
# 6 0.0000 0.0000 0.0000 0.0000 0.0000 23.4645
#
#
#
# Elastic Compliance Matrix: (Units=1/GPa)
#
#
# Indices 1 2 3 4 5 6 
#
# 1 0.020148 -0.001161 -0.002105 0.000000 0.000000 0.000000
# 2 -0.001161 0.020148 -0.002105 0.000000 0.000000 0.000000
# 3 -0.002105 -0.002105 0.005073 0.000000 0.000000 0.000000
# 4 0.000000 0.000000 0.000000 0.035548 0.000000 0.000000
# 5 0.000000 0.000000 0.000000 0.000000 0.035548 0.000000
# 6 0.000000 0.000000 0.000000 0.000000 0.000000 0.042617
#
#
# Mechanical properties :
#
#
# Convention : Reuss Voigt Hill
#
# Bulk Modulus (GPa) = 28.87875 47.70644 38.29260
# Shear Modulus (GPa) = 27.56833 33.83478 30.70156
#
# Velocity S-wave (km/s) = 3.54058 3.92239 3.73637
# Velocity P-wave (km/s) = 5.46314 6.49664 6.00218
#
# Compressibility (1/GPa) = 0.03462754
#
# Stress axis : x y z
#
# Youngs Moduli (GPa) = 49.63279 49.63279 197.11026
#
# Poissons Ratio (x) = 0.05761 0.41493
# Poissons Ratio (y) = 0.05761 0.41493
# Poissons Ratio (z) = 0.10448 0.10448
#
# Static dielectric constant tensor:
#      x y z
#    x 1.876270 0.000000 0.000000 
#    y 0.000000 1.876270 0.000000 
#    z 0.000000 0.000000 2.181050 
# 
# From -- ./inp_files/744.got.cif
#   From: 2010.05.17/outbox.cif.g08.bks.cpg/sg179_1_cif.got.tgz:744.got - 2010.05.20 11:37:33.
