data_PCOD9583000
_publ_section_title
;
Structure prediction by ZEFSAII (Michael W. Deem and Ramdas Pophale) SiO2 
 PCOD9583000
Probable space group: P 61 2 2
;
_chemical_formula_sum "Si O2"
_cell_formula_units_Z 42
_cell_length_a 7.774125
_cell_length_b 7.774125
_cell_length_c 29.412452
_cell_angle_alpha 90.000000
_cell_angle_beta 90.000000
_cell_angle_gamma 120.000000
_cell_volume 1539.447568
_symmetry_space_group_name_H-M "P 61 2 2"
_symmetry_group_IT_number 178
_symmetry_cell_setting 'hexagonal'
loop_
_space_group_symop_operation_xyz
x,y,z
x-y,x,1/6+z
-y,x-y,1/3+z
-x,-y,1/2+z
-x+y,-x,2/3+z
y,-x+y,5/6+z
x-y,-y,-z
-x,-x+y,2/3-z
y,x,1/3-z
-y,-x,5/6-z
-x+y,y,1/2-z
x,x-y,1/6-z
loop_
_atom_site_type_symbol
_atom_site_label
_atom_site_fract_x
_atom_site_fract_y
_atom_site_fract_z
Si Si1 0.834671 0.045216 0.869241
Si Si2 0.341556 0.215427 0.231357
Si Si3 0.523873 0.311996 0.841740
Si Si4 0.580407 0.290204 0.083334
O O1 0.862525 0.853629 0.881746
O O2 0.629529 0.001754 0.847213
O O3 0.000000 0.173904 0.833334
O O4 0.852367 0.147634 0.916667
O O5 0.519544 0.226758 0.202118
O O6 0.380330 0.214440 0.285537
O O7 0.338701 0.419482 0.226929
O O8 0.591810 0.278437 0.792124
#
# Coordination Sequence:
#
# PCOD9583000 Si02
#       4
#    12  12  12   6
#     4  12  23  47  76 109 149 209 259 315 392 480
#     4  11  23  47  78 105 150 206 263 317 403 476
#     4  11  25  41  73 116 150 194 261 337 386 479
#     4  12  24  48  76 114 150 208 268 330 404 480
#
# _framework density 27.282516000000001
#
# number of rings (size 3 to 8) (size 9 to 14) (size 15 to 20)
#    0.000    0.571    4.286    4.286    0.000    4.571 
#   10.286    0.000    0.000    0.000    0.000    0.000 
#    0.000    0.000    0.000    0.000    0.000    0.000 
#
# Total GULP energy -234736.482741 kJ/mol
# GULP energy per Si atom -5588.963875 kJ/mol
# Density = 2.722042 g / cm^3
# Si number density = 27.282516 Si / 1000 Ang^3
#
#
#
# Elastic Constant Matrix: (Units=GPa)
#
#
# Indices 1 2 3 4 5 6 
#
# 1 70.8307 3.6285 40.4105 0.0000 0.0000 0.0000
# 2 3.6285 70.8307 40.4105 0.0000 0.0000 0.0000
# 3 40.4105 40.4105 222.8207 0.0000 0.0000 0.0000
# 4 0.0000 0.0000 0.0000 38.6999 0.0000 0.0000
# 5 0.0000 0.0000 0.0000 0.0000 38.6999 0.0000
# 6 0.0000 0.0000 0.0000 0.0000 0.0000 33.6011
#
#
#
# Elastic Compliance Matrix: (Units=1/GPa)
#
#
# Indices 1 2 3 4 5 6 
#
# 1 0.015801 0.000921 -0.003033 0.000000 0.000000 0.000000
# 2 0.000921 0.015801 -0.003033 0.000000 0.000000 0.000000
# 3 -0.003033 -0.003033 0.005588 0.000000 0.000000 0.000000
# 4 0.000000 0.000000 0.000000 0.025840 0.000000 0.000000
# 5 0.000000 0.000000 0.000000 0.000000 0.025840 0.000000
# 6 0.000000 0.000000 0.000000 0.000000 0.000000 0.029761
#
#
# Mechanical properties :
#
#
# Convention : Reuss Voigt Hill
#
# Bulk Modulus (GPa) = 37.17313 59.26455 48.21884
# Shear Modulus (GPa) = 36.26150 40.86900 38.56525
#
# Velocity S-wave (km/s) = 3.64965 3.87459 3.76380
# Velocity P-wave (km/s) = 5.60489 6.46423 6.04984
#
# Compressibility (1/GPa) = 0.02690115
#
# Stress axis : x y z
#
# Youngs Moduli (GPa) = 63.28626 63.28626 178.95747
#
# Poissons Ratio (x) = -0.05827 0.54272
# Poissons Ratio (y) = -0.05827 0.54272
# Poissons Ratio (z) = 0.19193 0.19193
#
# Static dielectric constant tensor:
#      x y z
#    x 2.169410 0.000000 0.000000 
#    y 0.000000 2.169410 0.000000 
#    z 0.000000 0.000000 2.017860 
# 
# From -- ./inp_files/9267.got.cif
#   From: 2010.05.17/outbox.cif.g08.bks.cpg/sg178_5_cif.got.tgz:9267.got - 2010.05.20 11:30:59.
