data_PCOD9583477
_publ_section_title
;
Structure prediction by ZEFSAII (Michael W. Deem and Ramdas Pophale) SiO2 
 PCOD9583477
Probable space group: P 65 2 2
;
_chemical_formula_sum "Si O2"
_cell_formula_units_Z 48
_cell_length_a 16.547418
_cell_length_b 16.547418
_cell_length_c 9.391848
_cell_angle_alpha 90.000000
_cell_angle_beta 90.000000
_cell_angle_gamma 120.000000
_cell_volume 2227.112535
_symmetry_space_group_name_H-M "P 65 2 2"
_symmetry_group_IT_number 179
_symmetry_cell_setting 'hexagonal'
loop_
_space_group_symop_operation_xyz
x,y,z
x-y,x,5/6+z
-y,x-y,2/3+z
-x,-y,1/2+z
-x+y,-x,1/3+z
y,-x+y,1/6+z
x-y,-y,-z
-x,-x+y,1/3-z
y,x,2/3-z
-y,-x,1/6-z
-x+y,y,1/2-z
x,x-y,5/6-z
loop_
_atom_site_type_symbol
_atom_site_label
_atom_site_fract_x
_atom_site_fract_y
_atom_site_fract_z
Si Si1 0.909765 0.090236 0.083334
Si Si2 0.384637 0.574381 0.748496
Si Si3 0.000000 0.604732 0.166667
Si Si4 0.321583 0.080940 0.217174
Si Si5 0.238217 0.476433 0.250000
Si Si6 0.000000 0.839175 0.166667
O O1 0.810469 0.057531 0.158777
O O2 0.000000 0.112914 0.166667
O O3 0.413517 0.586484 0.583334
O O4 0.280481 0.560961 0.750000
O O5 0.392555 0.489628 0.815120
O O6 0.455534 0.664185 0.840316
O O7 0.011552 0.659125 0.316466
O O8 0.411187 0.169506 0.288732
O O9 0.255734 0.074822 0.084054
O O10 0.930856 0.861712 0.250000
#
# Coordination Sequence:
#
# PCOD9583477 Si02
#       6
#     6  12   6  12   6   6
#     4  11  24  46  68 104 140 196 254 312 385 460
#     4  12  27  48  79 115 155 200 255 322 399 479
#     4  11  28  46  76 113 150 194 260 313 396 464
#     4  10  25  46  70 100 149 197 252 315 388 467
#     4  11  26  50  78 104 156 200 256 318 403 476
#     4  11  24  48  70 107 150 204 266 337 404 486
#
# _framework density 21.552569999999999
#
# number of rings (size 3 to 8) (size 9 to 14) (size 15 to 20)
#    0.000    1.000    1.250    3.000    3.500   14.000 
#   20.250    0.000    0.000    0.000    0.000    0.000 
#    0.000    0.000    0.000    0.000    0.000    0.000 
#
# Total GULP energy -267249.242044 kJ/mol
# GULP energy per Si atom -5567.692543 kJ/mol
# Density = 2.150352 g / cm^3
# Si number density = 21.552570 Si / 1000 Ang^3
#
#
#
# Elastic Constant Matrix: (Units=GPa)
#
#
# Indices 1 2 3 4 5 6 
#
# 1 -72.3730 332.2214 67.0133 0.0000 0.0000 0.0000
# 2 332.2214 -72.3730 67.0133 0.0000 0.0000 0.0000
# 3 67.0133 67.0133 111.3247 0.0000 0.0000 0.0000
# 4 0.0000 0.0000 0.0000 -35.0888 0.0000 0.0000
# 5 0.0000 0.0000 0.0000 0.0000 -35.0888 0.0000
# 6 0.0000 0.0000 0.0000 0.0000 0.0000 -202.2972
#
#
#
# Elastic Compliance Matrix: (Units=1/GPa)
#
#
# Indices 1 2 3 4 5 6 
#
# 1 0.001555 0.004026 -0.003360 0.000000 0.000000 0.000000
# 2 0.004026 0.001555 -0.003360 0.000000 0.000000 0.000000
# 3 -0.003360 -0.003360 0.013028 0.000000 0.000000 0.000000
# 4 0.000000 0.000000 0.000000 -0.028499 0.000000 0.000000
# 5 0.000000 0.000000 0.000000 0.000000 -0.028499 0.000000
# 6 0.000000 0.000000 0.000000 0.000000 0.000000 -0.004943
#
#
# Mechanical properties :
#
#
# Convention : Reuss Voigt Hill
#
# Bulk Modulus (GPa) = 93.01224 99.89716 96.45470
# Shear Modulus (GPa) = -135.74268 -87.80625 -111.77446
#
# Velocity S-wave (km/s) = -7.94474 -6.38975 -7.20929
# Velocity P-wave (km/s) = 6.39600 2.82622 4.94451
#
# Compressibility (1/GPa) = 0.01075127
#
# Stress axis : x y z
#
# Youngs Moduli (GPa) = 643.14937 643.14937 76.76008
#
# Poissons Ratio (x) = -2.58961 0.25789
# Poissons Ratio (y) = -2.58961 0.25789
# Poissons Ratio (z) = 2.16081 2.16081
#
# Static dielectric constant tensor:
#      x y z
#    x 1.803550 0.000000 0.000000 
#    y 0.000000 1.803550 0.000000 
#    z 0.000000 0.000000 1.839240 
# 
# From -- ./inp_files/2780.got.cif
#   From: 2010.05.17/outbox.cif.g08.bks.cpg/sg179_2_cif.got.tgz:2780.got - 2010.05.20 11:37:33.
