data_PCOD9583827
_publ_section_title
;
Structure prediction by ZEFSAII (Michael W. Deem and Ramdas Pophale) SiO2 
 PCOD9583827
Probable space group: P 62 2 2
;
_chemical_formula_sum "Si O2"
_cell_formula_units_Z 78
_cell_length_a 23.408294
_cell_length_b 23.408294
_cell_length_c 9.083281
_cell_angle_alpha 90.000000
_cell_angle_beta 90.000000
_cell_angle_gamma 120.000000
_cell_volume 4310.353692
_symmetry_space_group_name_H-M "P 62 2 2"
_symmetry_group_IT_number 180
_symmetry_cell_setting 'hexagonal'
loop_
_space_group_symop_operation_xyz
x,y,z
x-y,x,1/3+z
-y,x-y,2/3+z
-x,-y,z
-x+y,-x,1/3+z
y,-x+y,2/3+z
x-y,-y,-z
-x,-x+y,1/3-z
y,x,2/3-z
-y,-x,2/3-z
-x+y,y,-z
x,x-y,1/3-z
loop_
_atom_site_type_symbol
_atom_site_label
_atom_site_fract_x
_atom_site_fract_y
_atom_site_fract_z
Si Si1 0.321709 0.904098 0.777787
Si Si2 0.808825 0.191176 0.333334
Si Si3 0.437606 0.051495 0.738762
Si Si4 0.594415 0.267441 0.812971
Si Si5 0.723546 0.653961 0.842551
Si Si6 0.558408 0.416948 0.999877
Si Si7 0.176555 0.715551 0.597816
O O1 0.274002 0.907460 0.657068
O O2 0.358490 0.872123 0.693059
O O3 0.383194 0.980012 0.804515
O O4 0.283778 0.855878 0.913689
O O5 0.883078 0.221685 0.286562
O O6 0.800828 0.225725 0.479554
O O7 0.402708 0.059717 0.592333
O O8 0.513207 0.074111 0.696275
O O9 0.453537 0.111266 0.849941
O O10 0.665284 0.334717 0.833334
O O11 0.565328 0.282664 0.666667
O O12 0.597911 0.202763 0.770607
O O13 0.536841 0.237755 0.936912
O O14 0.718181 0.718181 0.833334
O O15 0.581121 0.418879 0.833334
#
# Coordination Sequence:
#
# PCOD9583827 Si02
#       7
#    12   6  12  12  12  12  12
#     4  11  21  34  58  86 102 126 175 221 262 342
#     4  10  20  40  58  76 112 144 166 228 278 316
#     4   9  19  36  56  79 111 132 157 219 282 326
#     4  11  25  40  54  65  97 138 176 225 276 333
#     4   9  19  35  57  83 107 140 175 210 267 326
#     4  11  22  37  54  77  98 136 172 213 286 344
#     4  10  22  38  58  80 102 136 176 216 280 329
#
# _framework density 18.095963000000001
#
# number of rings (size 3 to 8) (size 9 to 14) (size 15 to 20)
#    0.000    1.846    2.308    1.385    2.154    4.308 
#    0.000    3.077    0.000    0.000    0.000    0.000 
#    0.000    0.000    0.000    0.000    0.000    0.000 
#
# Total GULP energy -434409.462701 kJ/mol
# GULP energy per Si atom -5569.352086 kJ/mol
# Density = 1.805478 g / cm^3
# Si number density = 18.095963 Si / 1000 Ang^3
#
#
#
# Elastic Constant Matrix: (Units=GPa)
#
#
# Indices 1 2 3 4 5 6 
#
# 1 59.5970 38.9834 22.3062 0.0000 0.0000 0.0000
# 2 38.9834 59.5970 22.3062 0.0000 0.0000 0.0000
# 3 22.3062 22.3062 90.8581 0.0000 0.0000 0.0000
# 4 0.0000 0.0000 0.0000 -5.0220 0.0000 0.0000
# 5 0.0000 0.0000 0.0000 0.0000 -5.0220 0.0000
# 6 0.0000 0.0000 0.0000 0.0000 0.0000 10.3068
#
#
#
# Elastic Compliance Matrix: (Units=1/GPa)
#
#
# Indices 1 2 3 4 5 6 
#
# 1 0.029962 -0.018550 -0.002802 0.000000 0.000000 0.000000
# 2 -0.018550 0.029962 -0.002802 0.000000 0.000000 0.000000
# 3 -0.002802 -0.002802 0.012382 0.000000 0.000000 0.000000
# 4 0.000000 0.000000 0.000000 -0.199123 0.000000 0.000000
# 5 0.000000 0.000000 0.000000 0.000000 -0.199123 0.000000
# 6 0.000000 0.000000 0.000000 0.000000 0.000000 0.097023
#
#
# Mechanical properties :
#
#
# Convention : Reuss Voigt Hill
#
# Bulk Modulus (GPa) = 41.66862 41.91599 41.79231
# Shear Modulus (GPa) = -28.96690 8.48296 -10.24197
#
# Velocity S-wave (km/s) = -4.00526 2.16747 -2.38162
# Velocity P-wave (km/s) = 1.29883 5.42931 3.94743
#
# Compressibility (1/GPa) = 0.02399887
#
# Stress axis : x y z
#
# Youngs Moduli (GPa) = 33.37581 33.37581 80.76341
#
# Poissons Ratio (x) = 0.61912 0.22627
# Poissons Ratio (y) = 0.61912 0.22627
# Poissons Ratio (z) = 0.09351 0.09351
#
# Static dielectric constant tensor:
#      x y z
#    x 1.697140 0.000000 0.000000 
#    y 0.000000 1.697140 0.000000 
#    z 0.000000 0.000000 1.678780 
# 
# From -- ./inp_files/3436.got.cif
#   From: 2010.05.17/outbox.cif.g08.bks.cpg/sg180_2_cif.got.tgz:3436.got - 2010.05.20 11:43:55.
