data_PCOD9583881
_publ_section_title
;
Structure prediction by ZEFSAII (Michael W. Deem and Ramdas Pophale) SiO2 
 PCOD9583881
Probable space group: P 62 2 2
;
_chemical_formula_sum "Si O2"
_cell_formula_units_Z 36
_cell_length_a 9.123604
_cell_length_b 9.123604
_cell_length_c 23.068720
_cell_angle_alpha 90.000000
_cell_angle_beta 90.000000
_cell_angle_gamma 120.000000
_cell_volume 1662.979836
_symmetry_space_group_name_H-M "P 62 2 2"
_symmetry_group_IT_number 180
_symmetry_cell_setting 'hexagonal'
loop_
_space_group_symop_operation_xyz
x,y,z
x-y,x,1/3+z
-y,x-y,2/3+z
-x,-y,z
-x+y,-x,1/3+z
y,-x+y,2/3+z
x-y,-y,-z
-x,-x+y,1/3-z
y,x,2/3-z
-y,-x,2/3-z
-x+y,y,-z
x,x-y,1/3-z
loop_
_atom_site_type_symbol
_atom_site_label
_atom_site_fract_x
_atom_site_fract_y
_atom_site_fract_z
Si Si1 0.154500 0.168075 0.935995
Si Si2 0.832827 0.330722 0.578717
Si Si3 0.503212 0.332783 0.561636
O O1 0.327914 0.162943 0.933146
O O2 0.178249 0.335713 0.906863
O O3 0.086961 0.173921 0.000000
O O4 0.000000 0.000000 0.908063
O O5 0.660105 0.330068 0.592133
O O6 0.830752 0.339273 0.508382
O O7 0.000000 0.500000 0.598581
O O8 0.500000 0.500000 0.581706
#
# Coordination Sequence:
#
# PCOD9583881 Si02
#       3
#    12  12  12
#     4  11  24  40  57  86 124 164 204 244 300 361
#     4  10  21  40  65  91 121 156 200 252 302 359
#     4  10  21  38  64  95 120 153 200 249 305 362
#
# _framework density 21.647887000000001
#
# number of rings (size 3 to 8) (size 9 to 14) (size 15 to 20)
#    0.000    1.667    0.000    4.000    0.000   10.667 
#    0.000   10.000    0.000    0.000    0.000    0.000 
#    0.000    0.000    0.000    0.000    0.000    0.000 
#
# Total GULP energy -201166.023061 kJ/mol
# GULP energy per Si atom -5587.945085 kJ/mol
# Density = 2.159862 g / cm^3
# Si number density = 21.647887 Si / 1000 Ang^3
#
#
#
# Elastic Constant Matrix: (Units=GPa)
#
#
# Indices 1 2 3 4 5 6 
#
# 1 231.9697 136.4454 18.9080 0.0000 0.0000 0.0000
# 2 136.4454 231.9697 18.9080 0.0000 0.0000 0.0000
# 3 18.9080 18.9080 48.2205 0.0000 0.0000 0.0000
# 4 0.0000 0.0000 0.0000 61.6531 0.0000 0.0000
# 5 0.0000 0.0000 0.0000 0.0000 61.6531 0.0000
# 6 0.0000 0.0000 0.0000 0.0000 0.0000 47.7622
#
#
#
# Elastic Compliance Matrix: (Units=1/GPa)
#
#
# Indices 1 2 3 4 5 6 
#
# 1 0.006648 -0.003820 -0.001109 0.000000 0.000000 0.000000
# 2 -0.003820 0.006648 -0.001109 0.000000 0.000000 0.000000
# 3 -0.001109 -0.001109 0.021608 0.000000 0.000000 0.000000
# 4 0.000000 0.000000 0.000000 0.016220 0.000000 0.000000
# 5 0.000000 0.000000 0.000000 0.000000 0.016220 0.000000
# 6 0.000000 0.000000 0.000000 0.000000 0.000000 0.020937
#
#
# Mechanical properties :
#
#
# Convention : Reuss Voigt Hill
#
# Bulk Modulus (GPa) = 43.80547 95.63142 69.71844
# Shear Modulus (GPa) = 46.31059 56.74027 51.52543
#
# Velocity S-wave (km/s) = 4.63024 5.12518 4.88398
# Velocity P-wave (km/s) = 6.99034 8.90477 8.00499
#
# Compressibility (1/GPa) = 0.02282820
#
# Stress axis : x y z
#
# Youngs Moduli (GPa) = 150.41332 150.41332 46.27973
#
# Poissons Ratio (x) = 0.57461 0.05132
# Poissons Ratio (y) = 0.57461 0.05132
# Poissons Ratio (z) = 0.16680 0.16680
#
# Static dielectric constant tensor:
#      x y z
#    x 1.768810 0.000000 0.000000 
#    y 0.000000 1.768810 0.000000 
#    z 0.000000 0.000000 2.073030 
# 
# From -- ./inp_files/10716.got.cif
#   From: 2010.05.17/outbox.cif.g08.bks.cpg/sg180_6_cif.got.tgz:10716.got - 2010.05.20 11:43:55.
