data_PCOD9583120
_publ_section_title
;
Structure prediction by ZEFSAII (Michael W. Deem and Ramdas Pophale) SiO2 
 PCOD9583120
Probable space group: P 65 2 2
;
_chemical_formula_sum "Si O2"
_cell_formula_units_Z 60
_cell_length_a 12.628201
_cell_length_b 12.628201
_cell_length_c 22.034276
_cell_angle_alpha 90.000000
_cell_angle_beta 90.000000
_cell_angle_gamma 120.000000
_cell_volume 3043.073124
_symmetry_space_group_name_H-M "P 65 2 2"
_symmetry_group_IT_number 179
_symmetry_cell_setting 'hexagonal'
loop_
_space_group_symop_operation_xyz
x,y,z
x-y,x,5/6+z
-y,x-y,2/3+z
-x,-y,1/2+z
-x+y,-x,1/3+z
y,-x+y,1/6+z
x-y,-y,-z
-x,-x+y,1/3-z
y,x,2/3-z
-y,-x,1/6-z
-x+y,y,1/2-z
x,x-y,5/6-z
loop_
_atom_site_type_symbol
_atom_site_label
_atom_site_fract_x
_atom_site_fract_y
_atom_site_fract_z
Si Si1 0.394198 0.199806 0.590361
Si Si2 0.419695 0.882474 0.044291
Si Si3 0.973736 0.304297 0.363388
Si Si4 0.944352 0.425353 0.817772
Si Si5 0.747778 0.255747 0.436958
O O1 0.505349 0.185841 0.563397
O O2 0.304788 0.207039 0.542355
O O3 0.383126 0.132666 0.748403
O O4 0.324728 0.091261 0.636555
O O5 0.398523 0.942506 0.105284
O O6 0.301901 0.790115 0.004512
O O7 0.500914 0.000000 0.000000
O O8 0.017757 0.445515 0.347256
O O9 0.109017 0.431949 0.463178
O O10 0.830203 0.368252 0.772007
O O11 0.780303 0.390152 0.416667
#
# Coordination Sequence:
#
# PCOD9583120 Si02
#       5
#    12  12  12  12  12
#     4  10  19  34  53  76 108 141 177 220 266 320
#     4   9  19  34  53  81 109 141 179 219 269 323
#     4  10  20  33  51  76 107 142 176 216 263 320
#     4   9  18  32  48  72 109 140 173 213 260 320
#     4  10  18  29  49  77 108 140 173 212 262 323
#
# _framework density 19.716912000000001
#
# number of rings (size 3 to 8) (size 9 to 14) (size 15 to 20)
#    0.000    2.400    0.000    3.000    0.000    1.600 
#    0.000   10.000    0.000    0.000    0.000   23.800 
#    0.000    0.000    0.000    0.000    0.000    0.000 
#
# Total GULP energy -334009.272000 kJ/mol
# GULP energy per Si atom -5566.821200 kJ/mol
# Density = 1.967204 g / cm^3
# Si number density = 19.716912 Si / 1000 Ang^3
#
#
#
# Elastic Constant Matrix: (Units=GPa)
#
#
# Indices 1 2 3 4 5 6 
#
# 1 57.4628 47.6204 25.3163 0.0000 0.0000 0.0000
# 2 47.6204 57.4628 25.3163 0.0000 0.0000 0.0000
# 3 25.3163 25.3163 60.5127 0.0000 0.0000 0.0000
# 4 0.0000 0.0000 0.0000 2.3243 0.0000 0.0000
# 5 0.0000 0.0000 0.0000 0.0000 2.3243 0.0000
# 6 0.0000 0.0000 0.0000 0.0000 0.0000 4.9212
#
#
#
# Elastic Compliance Matrix: (Units=1/GPa)
#
#
# Indices 1 2 3 4 5 6 
#
# 1 0.056760 -0.044841 -0.004986 0.000000 0.000000 0.000000
# 2 -0.044841 0.056760 -0.004986 0.000000 0.000000 0.000000
# 3 -0.004986 -0.004986 0.020698 0.000000 0.000000 0.000000
# 4 0.000000 0.000000 0.000000 0.430235 0.000000 0.000000
# 5 0.000000 0.000000 0.000000 0.000000 0.430235 0.000000
# 6 0.000000 0.000000 0.000000 0.000000 0.000000 0.203203
#
#
# Mechanical properties :
#
#
# Convention : Reuss Voigt Hill
#
# Bulk Modulus (GPa) = 40.66723 41.32712 40.99717
# Shear Modulus (GPa) = 3.80021 7.05964 5.42993
#
# Velocity S-wave (km/s) = 1.38981 1.89427 1.66130
# Velocity P-wave (km/s) = 4.82139 5.07840 4.95156
#
# Compressibility (1/GPa) = 0.02458982
#
# Stress axis : x y z
#
# Youngs Moduli (GPa) = 17.61795 17.61795 48.31444
#
# Poissons Ratio (x) = 0.79001 0.24092
# Poissons Ratio (y) = 0.79001 0.24092
# Poissons Ratio (z) = 0.08785 0.08785
#
# Static dielectric constant tensor:
#      x y z
#    x 1.739700 0.000000 0.000000 
#    y 0.000000 1.739700 0.000000 
#    z 0.000000 0.000000 1.845740 
# 
# From -- ./inp_files/7546.got.cif
#   From: 2010.05.17/outbox.cif.g08.bks.cpg/sg179_4_cif.got.tgz:7546.got - 2010.05.20 11:37:33.
