data_PCOD9583568
_publ_section_title
;
Structure prediction by ZEFSAII (Michael W. Deem and Ramdas Pophale) SiO2 
 PCOD9583568
Probable space group: P 65 2 2
;
_chemical_formula_sum "Si O2"
_cell_formula_units_Z 54
_cell_length_a 18.482906
_cell_length_b 18.482906
_cell_length_c 10.028827
_cell_angle_alpha 90.000000
_cell_angle_beta 90.000000
_cell_angle_gamma 120.000000
_cell_volume 2967.025514
_symmetry_space_group_name_H-M "P 65 2 2"
_symmetry_group_IT_number 179
_symmetry_cell_setting 'hexagonal'
loop_
_space_group_symop_operation_xyz
x,y,z
x-y,x,5/6+z
-y,x-y,2/3+z
-x,-y,1/2+z
-x+y,-x,1/3+z
y,-x+y,1/6+z
x-y,-y,-z
-x,-x+y,1/3-z
y,x,2/3-z
-y,-x,1/6-z
-x+y,y,1/2-z
x,x-y,5/6-z
loop_
_atom_site_type_symbol
_atom_site_label
_atom_site_fract_x
_atom_site_fract_y
_atom_site_fract_z
Si Si1 0.086080 0.339702 0.754029
Si Si2 0.660908 0.479955 0.392291
Si Si3 0.048693 0.524347 0.416667
Si Si4 0.386306 0.046957 0.629020
Si Si5 0.208214 0.550722 0.038764
O O1 0.154147 0.308294 0.750000
O O2 0.139526 0.436046 0.698192
O O3 0.000000 0.288691 0.666667
O O4 0.061244 0.343633 0.907717
O O5 0.588152 0.483231 0.470392
O O6 0.723436 0.471707 0.491540
O O7 0.619682 0.392264 0.315113
O O8 0.998806 0.433970 0.350505
O O9 0.462419 0.134116 0.580092
O O10 0.331442 0.000000 0.500000
O O11 0.182441 0.591221 0.916667
#
# Coordination Sequence:
#
# PCOD9583568 Si02
#       5
#    12  12   6  12  12
#     4  12  24  47  71  97 127 169 217 274 334 408
#     4  12  25  39  58  88 133 179 235 282 324 385
#     4  12  24  36  58  88 122 182 224 282 330 380
#     4  12  23  41  63  89 124 172 225 274 330 385
#     4  12  23  38  56  83 125 176 227 278 327 366
#
# _framework density 18.200046
#
# number of rings (size 3 to 8) (size 9 to 14) (size 15 to 20)
#    0.000    0.000   10.000    0.667    3.111    0.000 
#    0.000    3.333    0.000    0.000    0.000    1.556 
#    0.000    0.000    0.000    0.000    0.000    0.000 
#
# Total GULP energy -301487.000249 kJ/mol
# GULP energy per Si atom -5583.092597 kJ/mol
# Density = 1.815862 g / cm^3
# Si number density = 18.200046 Si / 1000 Ang^3
#
#
#
# Elastic Constant Matrix: (Units=GPa)
#
#
# Indices 1 2 3 4 5 6 
#
# 1 107.7794 31.3106 44.8073 0.0000 0.0000 0.0000
# 2 31.3106 107.7794 44.8073 0.0000 0.0000 0.0000
# 3 44.8073 44.8073 81.5450 0.0000 0.0000 0.0000
# 4 0.0000 0.0000 0.0000 41.4654 0.0000 0.0000
# 5 0.0000 0.0000 0.0000 0.0000 41.4654 0.0000
# 6 0.0000 0.0000 0.0000 0.0000 0.0000 38.2344
#
#
#
# Elastic Compliance Matrix: (Units=1/GPa)
#
#
# Indices 1 2 3 4 5 6 
#
# 1 0.012104 -0.000974 -0.006116 0.000000 0.000000 0.000000
# 2 -0.000974 0.012104 -0.006116 0.000000 0.000000 0.000000
# 3 -0.006116 -0.006116 0.018984 0.000000 0.000000 0.000000
# 4 0.000000 0.000000 0.000000 0.024116 0.000000 0.000000
# 5 0.000000 0.000000 0.000000 0.000000 0.024116 0.000000
# 6 0.000000 0.000000 0.000000 0.000000 0.000000 0.026154
#
#
# Mechanical properties :
#
#
# Convention : Reuss Voigt Hill
#
# Bulk Modulus (GPa) = 59.59058 59.88383 59.73720
# Shear Modulus (GPa) = 33.42645 35.97827 34.70236
#
# Velocity S-wave (km/s) = 4.29022 4.45097 4.37134
# Velocity P-wave (km/s) = 7.57327 7.70645 7.64015
#
# Compressibility (1/GPa) = 0.01678118
#
# Stress axis : x y z
#
# Youngs Moduli (GPa) = 82.62046 82.62046 52.67597
#
# Poissons Ratio (x) = 0.08045 0.32215
# Poissons Ratio (y) = 0.08045 0.32215
# Poissons Ratio (z) = 0.50528 0.50528
#
# Static dielectric constant tensor:
#      x y z
#    x 1.602620 0.000000 0.000000 
#    y 0.000000 1.602620 0.000000 
#    z 0.000000 0.000000 1.705210 
# 
# From -- ./inp_files/3132.got.cif
#   From: 2010.05.17/outbox.cif.g08.bks.cpg/sg179_2_cif.got.tgz:3132.got - 2010.05.20 11:37:33.
