data_PCOD9583701
_publ_section_title
;
Structure prediction by ZEFSAII (Michael W. Deem and Ramdas Pophale) SiO2 
 PCOD9583701
Probable space group: P 62 2 2
;
_chemical_formula_sum "Si O2"
_cell_formula_units_Z 72
_cell_length_a 13.729079
_cell_length_b 13.729079
_cell_length_c 20.874463
_cell_angle_alpha 90.000000
_cell_angle_beta 90.000000
_cell_angle_gamma 120.000000
_cell_volume 3407.444194
_symmetry_space_group_name_H-M "P 62 2 2"
_symmetry_group_IT_number 180
_symmetry_cell_setting 'hexagonal'
loop_
_space_group_symop_operation_xyz
x,y,z
x-y,x,1/3+z
-y,x-y,2/3+z
-x,-y,z
-x+y,-x,1/3+z
y,-x+y,2/3+z
x-y,-y,-z
-x,-x+y,1/3-z
y,x,2/3-z
-y,-x,2/3-z
-x+y,y,-z
x,x-y,1/3-z
loop_
_atom_site_type_symbol
_atom_site_label
_atom_site_fract_x
_atom_site_fract_y
_atom_site_fract_z
Si Si1 0.207121 0.414241 0.000000
Si Si2 0.882805 0.524652 0.625686
Si Si3 0.422233 0.615437 0.502420
Si Si4 0.117378 0.692734 0.933632
Si Si5 0.763194 0.085461 0.203296
Si Si6 0.411232 0.024057 0.605230
Si Si7 0.234693 0.234693 0.833334
O O1 0.212778 0.338018 0.056094
O O2 0.152635 0.476616 0.036330
O O3 0.819938 0.409969 0.666667
O O4 0.875765 0.472071 0.555108
O O5 0.810253 0.584821 0.618948
O O6 0.000000 0.598123 0.666667
O O7 0.325921 0.651841 0.500000
O O8 0.391278 0.543780 0.567672
O O9 0.553238 0.710501 0.504765
O O10 0.042776 0.710250 0.879621
O O11 0.050563 0.636013 0.998031
O O12 0.881313 0.119266 0.170212
O O13 0.308339 0.001929 0.560556
O O14 0.500000 0.000000 0.571875
#
# Coordination Sequence:
#
# PCOD9583701 Si02
#       7
#     6  12  12  12  12  12   6
#     4   8  18  34  48  78 111 158 211 254 306 376
#     4  10  24  41  61  95 130 152 204 274 339 405
#     4  10  22  39  59  94 129 172 215 264 330 406
#     4  10  21  38  63  87 119 174 218 254 337 407
#     4  10  20  37  61  84 128 175 218 270 319 393
#     4  10  19  34  51  80 116 160 211 262 316 376
#     4  10  23  34  52  88 123 168 214 272 323 361
#
# _framework density 21.130206999999999
#
# number of rings (size 3 to 8) (size 9 to 14) (size 15 to 20)
#    0.000    2.167    0.000    2.750    7.000    2.667 
#   13.500    0.000    0.000    0.000    0.000   70.583 
#    0.000    0.000    0.000    0.000    0.000    0.000 
#
# Total GULP energy -401066.302327 kJ/mol
# GULP energy per Si atom -5570.365310 kJ/mol
# Density = 2.108211 g / cm^3
# Si number density = 21.130207 Si / 1000 Ang^3
#
#
#
# Elastic Constant Matrix: (Units=GPa)
#
#
# Indices 1 2 3 4 5 6 
#
# 1 86.4684 46.3240 11.1557 0.0000 0.0000 0.0000
# 2 46.3240 86.4684 11.1557 0.0000 0.0000 0.0000
# 3 11.1557 11.1557 92.0032 0.0000 0.0000 0.0000
# 4 0.0000 0.0000 0.0000 14.0839 0.0000 0.0000
# 5 0.0000 0.0000 0.0000 0.0000 14.0839 0.0000
# 6 0.0000 0.0000 0.0000 0.0000 0.0000 20.0722
#
#
#
# Elastic Compliance Matrix: (Units=1/GPa)
#
#
# Indices 1 2 3 4 5 6 
#
# 1 0.016299 -0.008611 -0.000932 0.000000 0.000000 0.000000
# 2 -0.008611 0.016299 -0.000932 0.000000 0.000000 0.000000
# 3 -0.000932 -0.000932 0.011095 0.000000 0.000000 0.000000
# 4 0.000000 0.000000 0.000000 0.071003 0.000000 0.000000
# 5 0.000000 0.000000 0.000000 0.000000 0.071003 0.000000
# 6 0.000000 0.000000 0.000000 0.000000 0.000000 0.049820
#
#
# Mechanical properties :
#
#
# Convention : Reuss Voigt Hill
#
# Bulk Modulus (GPa) = 43.97310 44.69007 44.33159
# Shear Modulus (GPa) = 18.93582 22.73501 20.83541
#
# Velocity S-wave (km/s) = 2.99682 3.28372 3.14355
# Velocity P-wave (km/s) = 5.72977 5.96430 5.84821
#
# Compressibility (1/GPa) = 0.02274118
#
# Stress axis : x y z
#
# Youngs Moduli (GPa) = 61.35499 61.35499 90.12892
#
# Poissons Ratio (x) = 0.52835 0.08401
# Poissons Ratio (y) = 0.52835 0.08401
# Poissons Ratio (z) = 0.05719 0.05719
#
# Static dielectric constant tensor:
#      x y z
#    x 1.842730 0.000000 0.000000 
#    y 0.000000 1.842730 0.000000 
#    z 0.000000 0.000000 1.780150 
# 
# From -- ./inp_files/9180.got.cif
#   From: 2010.05.17/outbox.cif.g08.bks.cpg/sg180_5_cif.got.tgz:9180.got - 2010.05.20 11:43:55.
