data_PCOD9583835
_publ_section_title
;
Structure prediction by ZEFSAII (Michael W. Deem and Ramdas Pophale) SiO2 
 PCOD9583835
Probable space group: P 62 2 2
;
_chemical_formula_sum "Si O2"
_cell_formula_units_Z 60
_cell_length_a 18.313389
_cell_length_b 18.313389
_cell_length_c 10.104843
_cell_angle_alpha 90.000000
_cell_angle_beta 90.000000
_cell_angle_gamma 120.000000
_cell_volume 2934.929293
_symmetry_space_group_name_H-M "P 62 2 2"
_symmetry_group_IT_number 180
_symmetry_cell_setting 'hexagonal'
loop_
_space_group_symop_operation_xyz
x,y,z
x-y,x,1/3+z
-y,x-y,2/3+z
-x,-y,z
-x+y,-x,1/3+z
y,-x+y,2/3+z
x-y,-y,-z
-x,-x+y,1/3-z
y,x,2/3-z
-y,-x,2/3-z
-x+y,y,-z
x,x-y,1/3-z
loop_
_atom_site_type_symbol
_atom_site_label
_atom_site_fract_x
_atom_site_fract_y
_atom_site_fract_z
Si Si1 0.358836 0.252417 0.958441
Si Si2 0.451467 0.805394 0.112057
Si Si3 0.922984 0.239066 0.339379
Si Si4 0.380286 0.095031 0.958376
Si Si5 0.903092 0.475160 0.316251
O O1 0.364282 0.265453 0.799651
O O2 0.358016 0.167527 0.996100
O O3 0.440070 0.337705 0.004491
O O4 0.275329 0.252707 0.005269
O O5 0.471806 0.735903 0.166667
O O6 0.421290 0.843080 0.230531
O O7 0.381046 0.762092 0.000000
O O8 0.531910 0.877599 0.031613
O O9 0.861776 0.138225 0.333334
O O10 0.903406 0.279671 0.465304
O O11 0.313727 0.000000 0.000000
O O12 0.878628 0.439314 0.166667
O O13 0.000000 0.500000 0.333935
#
# Coordination Sequence:
#
# PCOD9583835 Si02
#       5
#    12  12  12  12  12
#     4  10  20  41  64  94 135 162 225 268 320 398
#     4  12  29  48  65  94 133 173 218 282 330 402
#     4   9  19  34  61  95 127 173 207 264 317 385
#     4  11  24  39  66  96 130 169 219 271 337 382
#     4  11  24  41  68  98 126 172 217 274 330 400
#
# _framework density 20.443422999999999
#
# number of rings (size 3 to 8) (size 9 to 14) (size 15 to 20)
#    0.000    1.400    2.000    3.600    8.400    0.800 
#    0.000    0.000    0.000    0.600    0.000    5.600 
#    0.000    0.000    0.000    0.000    0.000    0.000 
#
# Total GULP energy -334771.037944 kJ/mol
# GULP energy per Si atom -5579.517299 kJ/mol
# Density = 2.039689 g / cm^3
# Si number density = 20.443423 Si / 1000 Ang^3
#
#
#
# Elastic Constant Matrix: (Units=GPa)
#
#
# Indices 1 2 3 4 5 6 
#
# 1 87.1129 37.0775 23.8461 0.0000 0.0000 0.0000
# 2 37.0775 87.1129 23.8461 0.0000 0.0000 0.0000
# 3 23.8461 23.8461 133.1325 0.0000 0.0000 0.0000
# 4 0.0000 0.0000 0.0000 25.2910 0.0000 0.0000
# 5 0.0000 0.0000 0.0000 0.0000 25.2910 0.0000
# 6 0.0000 0.0000 0.0000 0.0000 0.0000 25.0177
#
#
#
# Elastic Compliance Matrix: (Units=1/GPa)
#
#
# Indices 1 2 3 4 5 6 
#
# 1 0.014316 -0.005669 -0.001549 0.000000 0.000000 0.000000
# 2 -0.005669 0.014316 -0.001549 0.000000 0.000000 0.000000
# 3 -0.001549 -0.001549 0.008066 0.000000 0.000000 0.000000
# 4 0.000000 0.000000 0.000000 0.039540 0.000000 0.000000
# 5 0.000000 0.000000 0.000000 0.000000 0.039540 0.000000
# 6 0.000000 0.000000 0.000000 0.000000 0.000000 0.039972
#
#
# Mechanical properties :
#
#
# Convention : Reuss Voigt Hill
#
# Bulk Modulus (GPa) = 52.17898 52.98862 52.58380
# Shear Modulus (GPa) = 27.82838 29.95916 28.89377
#
# Velocity S-wave (km/s) = 3.69350 3.83229 3.76354
# Velocity P-wave (km/s) = 6.61576 6.74966 6.68304
#
# Compressibility (1/GPa) = 0.01916480
#
# Stress axis : x y z
#
# Youngs Moduli (GPa) = 69.84997 69.84997 123.97498
#
# Poissons Ratio (x) = 0.39601 0.19201
# Poissons Ratio (y) = 0.39601 0.19201
# Poissons Ratio (z) = 0.10818 0.10818
#
# Static dielectric constant tensor:
#      x y z
#    x 1.736040 0.000000 0.000000 
#    y 0.000000 1.736040 0.000000 
#    z 0.000000 0.000000 1.806030 
# 
# From -- ./inp_files/4781.got.cif
#   From: 2010.05.17/outbox.cif.g08.bks.cpg/sg180_3_cif.got.tgz:4781.got - 2010.05.20 11:43:55.
