data_PCOD9583291
_publ_section_title
;
Structure prediction by ZEFSAII (Michael W. Deem and Ramdas Pophale) SiO2 
 PCOD9583291
Probable space group: P 65 2 2
;
_chemical_formula_sum "Si O2"
_cell_formula_units_Z 48
_cell_length_a 14.916284
_cell_length_b 14.916284
_cell_length_c 12.912238
_cell_angle_alpha 90.000000
_cell_angle_beta 90.000000
_cell_angle_gamma 120.000000
_cell_volume 2488.017560
_symmetry_space_group_name_H-M "P 65 2 2"
_symmetry_group_IT_number 179
_symmetry_cell_setting 'hexagonal'
loop_
_space_group_symop_operation_xyz
x,y,z
x-y,x,5/6+z
-y,x-y,2/3+z
-x,-y,1/2+z
-x+y,-x,1/3+z
y,-x+y,1/6+z
x-y,-y,-z
-x,-x+y,1/3-z
y,x,2/3-z
-y,-x,1/6-z
-x+y,y,1/2-z
x,x-y,5/6-z
loop_
_atom_site_type_symbol
_atom_site_label
_atom_site_fract_x
_atom_site_fract_y
_atom_site_fract_z
Si Si1 0.460964 0.920901 0.588697
Si Si2 0.458033 0.916066 0.250000
Si Si3 0.376578 0.118861 0.197508
Si Si4 0.775502 0.551004 0.750000
Si Si5 0.249911 0.374559 0.649966
O O1 0.515767 0.868632 0.651628
O O2 0.346990 0.834016 0.554741
O O3 0.535012 0.000000 0.500000
O O4 0.458770 0.005067 0.666659
O O5 0.508625 0.856003 0.303143
O O6 0.388378 0.162746 0.313435
O O7 0.348077 0.182907 0.119499
O O8 0.298043 0.998010 0.180216
O O9 0.183913 0.367825 0.750000
#
# Coordination Sequence:
#
# PCOD9583291 Si02
#       5
#    12   6  12   6  12
#     4  11  21  40  61  91 135 170 209 269 311 384
#     4  10  20  41  58  90 130 160 216 253 320 376
#     4  11  24  40  63  97 125 171 222 260 333 387
#     4  12  22  37  66  92 132 170 214 267 316 388
#     4  11  22  41  65  93 127 171 217 271 324 394
#
# _framework density 19.292466999999998
#
# number of rings (size 3 to 8) (size 9 to 14) (size 15 to 20)
#    0.000    1.000    5.000    5.250    0.000    1.000 
#    0.000    5.000    0.000    0.000   16.250    0.000 
#    0.000    0.000    0.000    0.000    0.000    0.000 
#
# Total GULP energy -267686.012735 kJ/mol
# GULP energy per Si atom -5576.791932 kJ/mol
# Density = 1.924856 g / cm^3
# Si number density = 19.292467 Si / 1000 Ang^3
#
#
#
# Elastic Constant Matrix: (Units=GPa)
#
#
# Indices 1 2 3 4 5 6 
#
# 1 105.7562 54.9149 51.1435 0.0000 0.0000 0.0000
# 2 54.9149 105.7562 51.1435 0.0000 0.0000 0.0000
# 3 51.1435 51.1435 130.8007 0.0000 0.0000 0.0000
# 4 0.0000 0.0000 0.0000 43.2154 0.0000 0.0000
# 5 0.0000 0.0000 0.0000 0.0000 43.2154 0.0000
# 6 0.0000 0.0000 0.0000 0.0000 0.0000 25.4207
#
#
#
# Elastic Compliance Matrix: (Units=1/GPa)
#
#
# Indices 1 2 3 4 5 6 
#
# 1 0.013978 -0.005691 -0.003240 0.000000 0.000000 0.000000
# 2 -0.005691 0.013978 -0.003240 0.000000 0.000000 0.000000
# 3 -0.003240 -0.003240 0.010179 0.000000 0.000000 0.000000
# 4 0.000000 0.000000 0.000000 0.023140 0.000000 0.000000
# 5 0.000000 0.000000 0.000000 0.000000 0.023140 0.000000
# 6 0.000000 0.000000 0.000000 0.000000 0.000000 0.039338
#
#
# Mechanical properties :
#
#
# Convention : Reuss Voigt Hill
#
# Bulk Modulus (GPa) = 72.50660 72.96854 72.73757
# Shear Modulus (GPa) = 32.74552 34.71103 33.72827
#
# Velocity S-wave (km/s) = 4.12433 4.24630 4.18576
# Velocity P-wave (km/s) = 7.76817 7.87057 7.81954
#
# Compressibility (1/GPa) = 0.01379185
#
# Stress axis : x y z
#
# Youngs Moduli (GPa) = 71.54189 71.54189 98.24163
#
# Poissons Ratio (x) = 0.40716 0.31831
# Poissons Ratio (y) = 0.40716 0.31831
# Poissons Ratio (z) = 0.23180 0.23180
#
# Static dielectric constant tensor:
#      x y z
#    x 1.686610 0.000000 0.000000 
#    y 0.000000 1.686610 0.000000 
#    z 0.000000 0.000000 1.776490 
# 
# From -- ./inp_files/4358.got.cif
#   From: 2010.05.17/outbox.cif.g08.bks.cpg/sg179_3_cif.got.tgz:4358.got - 2010.05.20 11:37:33.
