data_PCOD9583161
_publ_section_title
;
Structure prediction by ZEFSAII (Michael W. Deem and Ramdas Pophale) SiO2 
 PCOD9583161
Probable space group: P 65 2 2
;
_chemical_formula_sum "Si O2"
_cell_formula_units_Z 72
_cell_length_a 20.189119
_cell_length_b 20.189119
_cell_length_c 11.317176
_cell_angle_alpha 90.000000
_cell_angle_beta 90.000000
_cell_angle_gamma 120.000000
_cell_volume 3994.877232
_symmetry_space_group_name_H-M "P 65 2 2"
_symmetry_group_IT_number 179
_symmetry_cell_setting 'hexagonal'
loop_
_space_group_symop_operation_xyz
x,y,z
x-y,x,5/6+z
-y,x-y,2/3+z
-x,-y,1/2+z
-x+y,-x,1/3+z
y,-x+y,1/6+z
x-y,-y,-z
-x,-x+y,1/3-z
y,x,2/3-z
-y,-x,1/6-z
-x+y,y,1/2-z
x,x-y,5/6-z
loop_
_atom_site_type_symbol
_atom_site_label
_atom_site_fract_x
_atom_site_fract_y
_atom_site_fract_z
Si Si1 0.382992 0.116392 0.416580
Si Si2 0.776841 0.000000 0.000000
Si Si3 0.509408 0.490593 0.583334
Si Si4 0.563962 0.000000 0.000000
Si Si5 0.098317 0.351602 0.743113
Si Si6 0.000000 0.813538 0.166667
Si Si7 0.954625 0.619402 0.990999
Si Si8 0.960179 0.093348 0.344060
O O1 0.415422 0.207711 0.416667
O O2 0.427813 0.074628 0.469370
O O3 0.360548 0.083060 0.283771
O O4 0.304525 0.075860 0.489071
O O5 0.826396 0.011600 0.884342
O O6 0.515855 0.533408 0.710123
O O7 0.465493 0.403553 0.629012
O O8 0.187629 0.375257 0.750000
O O9 0.081599 0.374943 0.614231
O O10 0.048907 0.259340 0.749425
O O11 0.047573 0.371895 0.832361
O O12 0.060482 0.887711 0.236233
O O13 0.030097 0.098712 0.412113
#
# Coordination Sequence:
#
# PCOD9583161 Si02
#       8
#    12   6   6   6  12   6  12  12
#     4  10  21  36  52  81 114 145 191 226 278 343
#     4  11  26  33  52  65  94 145 180 242 286 325
#     4  10  18  40  58  86 122 138 196 222 286 374
#     4   9  20  35  62  85 116 159 180 238 292 327
#     4  10  21  35  54  83 113 144 190 228 279 340
#     4  10  24  36  52  66  98 144 176 242 298 318
#     4   9  21  34  58  83 112 154 171 232 291 320
#     4  12  25  38  46  61  81 132 190 250 293 332
#
# _framework density 18.023081999999999
#
# number of rings (size 3 to 8) (size 9 to 14) (size 15 to 20)
#    0.000    2.000    0.000    4.000   11.667    6.000 
#    0.000    0.000    0.000    0.000    0.000    0.000 
#  155.000    0.000    0.000    0.000    0.000    0.000 
#
# Total GULP energy -400812.405688 kJ/mol
# GULP energy per Si atom -5566.838968 kJ/mol
# Density = 1.798206 g / cm^3
# Si number density = 18.023082 Si / 1000 Ang^3
#
#
#
# Elastic Constant Matrix: (Units=GPa)
#
#
# Indices 1 2 3 4 5 6 
#
# 1 73.5868 18.5904 23.9842 0.0000 0.0000 0.0000
# 2 18.5904 73.5868 23.9842 0.0000 0.0000 0.0000
# 3 23.9842 23.9842 100.3438 0.0000 0.0000 0.0000
# 4 0.0000 0.0000 0.0000 27.1982 0.0000 0.0000
# 5 0.0000 0.0000 0.0000 0.0000 27.1982 0.0000
# 6 0.0000 0.0000 0.0000 0.0000 0.0000 27.4982
#
#
#
# Elastic Compliance Matrix: (Units=1/GPa)
#
#
# Indices 1 2 3 4 5 6 
#
# 1 0.015286 -0.002897 -0.002961 0.000000 0.000000 0.000000
# 2 -0.002897 0.015286 -0.002961 0.000000 0.000000 0.000000
# 3 -0.002961 -0.002961 0.011381 0.000000 0.000000 0.000000
# 4 0.000000 0.000000 0.000000 0.036767 0.000000 0.000000
# 5 0.000000 0.000000 0.000000 0.000000 0.036767 0.000000
# 6 0.000000 0.000000 0.000000 0.000000 0.000000 0.036366
#
#
# Mechanical properties :
#
#
# Convention : Reuss Voigt Hill
#
# Bulk Modulus (GPa) = 41.12632 42.29275 41.70954
# Shear Modulus (GPa) = 28.15341 28.44284 28.29812
#
# Velocity S-wave (km/s) = 3.95660 3.97688 3.96675
# Velocity P-wave (km/s) = 6.61371 6.67864 6.64625
#
# Compressibility (1/GPa) = 0.02431533
#
# Stress axis : x y z
#
# Youngs Moduli (GPa) = 65.41770 65.41770 87.86258
#
# Poissons Ratio (x) = 0.18949 0.26020
# Poissons Ratio (y) = 0.18949 0.26020
# Poissons Ratio (z) = 0.19373 0.19373
#
# Static dielectric constant tensor:
#      x y z
#    x 1.646420 0.000000 0.000000 
#    y 0.000000 1.646420 0.000000 
#    z 0.000000 0.000000 1.673120 
# 
# From -- ./inp_files/4905.got.cif
#   From: 2010.05.17/outbox.cif.g08.bks.cpg/sg179_3_cif.got.tgz:4905.got - 2010.05.20 11:37:33.
