data_PCOD9583562
_publ_section_title
;
Structure prediction by ZEFSAII (Michael W. Deem and Ramdas Pophale) SiO2 
 PCOD9583562
Probable space group: P 65 2 2
;
_chemical_formula_sum "Si O2"
_cell_formula_units_Z 48
_cell_length_a 16.395719
_cell_length_b 16.395719
_cell_length_c 9.912153
_cell_angle_alpha 90.000000
_cell_angle_beta 90.000000
_cell_angle_gamma 120.000000
_cell_volume 2307.594854
_symmetry_space_group_name_H-M "P 65 2 2"
_symmetry_group_IT_number 179
_symmetry_cell_setting 'hexagonal'
loop_
_space_group_symop_operation_xyz
x,y,z
x-y,x,5/6+z
-y,x-y,2/3+z
-x,-y,1/2+z
-x+y,-x,1/3+z
y,-x+y,1/6+z
x-y,-y,-z
-x,-x+y,1/3-z
y,x,2/3-z
-y,-x,1/6-z
-x+y,y,1/2-z
x,x-y,5/6-z
loop_
_atom_site_type_symbol
_atom_site_label
_atom_site_fract_x
_atom_site_fract_y
_atom_site_fract_z
Si Si1 0.533103 0.181045 0.488442
Si Si2 0.265462 0.734539 0.083334
Si Si3 0.615645 0.827747 0.179699
Si Si4 0.675712 0.996065 0.662074
Si Si5 0.955349 0.477675 0.916667
O O1 0.553932 0.276966 0.416667
O O2 0.622020 0.213221 0.585539
O O3 0.435263 0.144910 0.565091
O O4 0.528717 0.108737 0.377125
O O5 0.227628 0.761541 0.214944
O O6 0.656715 0.763135 0.127547
O O7 0.684901 0.919737 0.264738
O O8 0.586130 0.007768 0.703576
O O9 0.683958 0.000000 0.500000
#
# Coordination Sequence:
#
# PCOD9583562 Si02
#       5
#    12   6  12  12   6
#     4  12  22  40  59  93 134 182 228 268 325 395
#     4  12  21  38  60  94 128 180 226 272 323 398
#     4  12  25  42  67  93 136 180 227 289 347 407
#     4  12  25  44  64  96 131 178 226 285 345 407
#     4  12  25  40  60  94 138 176 228 262 335 404
#
# _framework density 20.800878999999998
#
# number of rings (size 3 to 8) (size 9 to 14) (size 15 to 20)
#    0.000    0.000    7.500    3.000    7.000    0.000 
#    0.000    0.000    0.000    0.000    0.000    0.000 
#   45.000    0.000    0.000    0.000    0.000    0.000 
#
# Total GULP energy -268801.261486 kJ/mol
# GULP energy per Si atom -5600.026281 kJ/mol
# Density = 2.075353 g / cm^3
# Si number density = 20.800879 Si / 1000 Ang^3
#
#
#
# Elastic Constant Matrix: (Units=GPa)
#
#
# Indices 1 2 3 4 5 6 
#
# 1 74.3798 34.9638 22.3771 0.0000 0.0000 0.0000
# 2 34.9638 74.3798 22.3771 0.0000 0.0000 0.0000
# 3 22.3771 22.3771 63.1470 0.0000 0.0000 0.0000
# 4 0.0000 0.0000 0.0000 0.0275 0.0000 0.0000
# 5 0.0000 0.0000 0.0000 0.0000 0.0275 0.0000
# 6 0.0000 0.0000 0.0000 0.0000 0.0000 19.7080
#
#
#
# Elastic Compliance Matrix: (Units=1/GPa)
#
#
# Indices 1 2 3 4 5 6 
#
# 1 0.018034 -0.007337 -0.003791 0.000000 0.000000 0.000000
# 2 -0.007337 0.018034 -0.003791 0.000000 0.000000 0.000000
# 3 -0.003791 -0.003791 0.018523 0.000000 0.000000 0.000000
# 4 0.000000 0.000000 0.000000 36.416955 -0.000035 0.000000
# 5 0.000000 0.000000 0.000000 -0.000035 36.416995 0.000000
# 6 0.000000 0.000000 0.000000 0.000000 0.000000 0.050741
#
#
# Mechanical properties :
#
#
# Convention : Reuss Voigt Hill
#
# Bulk Modulus (GPa) = 40.39749 41.26030 40.82889
# Shear Modulus (GPa) = 0.06851 12.76516 6.41684
#
# Velocity S-wave (km/s) = 0.18169 2.47995 1.75829
# Velocity P-wave (km/s) = 4.41670 5.29897 4.87782
#
# Compressibility (1/GPa) = 0.02475401
#
# Stress axis : x y z
#
# Youngs Moduli (GPa) = 55.45176 55.45176 53.98813
#
# Poissons Ratio (x) = 0.40683 0.20465
# Poissons Ratio (y) = 0.40683 0.20465
# Poissons Ratio (z) = 0.21020 0.21020
#
# Static dielectric constant tensor:
#      x y z
#    x 1.745760 0.000000 0.000000 
#    y 0.000000 1.745760 0.000000 
#    z 0.000000 0.000000 1.759500 
# 
# From -- ./inp_files/2888.got.cif
#   From: 2010.05.17/outbox.cif.g08.bks.cpg/sg179_2_cif.got.tgz:2888.got - 2010.05.20 11:37:33.
