data_PCOD9583565
_publ_section_title
;
Structure prediction by ZEFSAII (Michael W. Deem and Ramdas Pophale) SiO2 
 PCOD9583565
Probable space group: P 65 2 2
;
_chemical_formula_sum "Si O2"
_cell_formula_units_Z 36
_cell_length_a 20.989415
_cell_length_b 20.989415
_cell_length_c 4.999884
_cell_angle_alpha 90.000000
_cell_angle_beta 90.000000
_cell_angle_gamma 120.000000
_cell_volume 1907.617198
_symmetry_space_group_name_H-M "P 65 2 2"
_symmetry_group_IT_number 179
_symmetry_cell_setting 'hexagonal'
loop_
_space_group_symop_operation_xyz
x,y,z
x-y,x,5/6+z
-y,x-y,2/3+z
-x,-y,1/2+z
-x+y,-x,1/3+z
y,-x+y,1/6+z
x-y,-y,-z
-x,-x+y,1/3-z
y,x,2/3-z
-y,-x,1/6-z
-x+y,y,1/2-z
x,x-y,5/6-z
loop_
_atom_site_type_symbol
_atom_site_label
_atom_site_fract_x
_atom_site_fract_y
_atom_site_fract_z
Si Si1 0.560702 0.780351 0.916667
Si Si2 0.389400 0.864771 0.494444
Si Si3 0.281711 0.281711 0.833334
Si Si4 0.164395 0.835606 0.083334
Si Si5 0.372040 0.000000 0.500000
O O1 0.506271 0.693428 0.923483
O O2 0.615700 0.802877 0.666515
O O3 0.418236 0.836472 0.250000
O O4 0.386554 0.936222 0.399471
O O5 0.441433 0.882865 0.750000
O O6 0.281627 0.206169 0.898063
O O7 0.336586 0.316605 0.580803
#
# Coordination Sequence:
#
# PCOD9583565 Si02
#       5
#     6  12   6   6   6
#     4  12  24  44  64  84 129 166 214 268 313 372
#     4  12  24  41  62  89 123 165 211 260 317 371
#     4  12  22  39  68  96 129 164 204 260 326 384
#     4  12  22  42  66  96 127 164 206 258 319 384
#     4  12  22  41  64  96 121 162 202 270 326 368
#
# _framework density 18.871713
#
# number of rings (size 3 to 8) (size 9 to 14) (size 15 to 20)
#    0.000    0.000    6.667    5.000    0.000    0.000 
#    3.000    0.000    0.000    0.000    0.000    4.667 
#    0.000    0.000    0.000    0.000    0.000    0.000 
#
# Total GULP energy -201158.594789 kJ/mol
# GULP energy per Si atom -5587.738744 kJ/mol
# Density = 1.882876 g / cm^3
# Si number density = 18.871713 Si / 1000 Ang^3
#
#
#
# Elastic Constant Matrix: (Units=GPa)
#
#
# Indices 1 2 3 4 5 6 
#
# 1 109.0303 56.8812 13.8043 0.0000 0.0000 0.0000
# 2 56.8812 109.0303 13.8043 0.0000 0.0000 0.0000
# 3 13.8043 13.8043 114.9241 0.0000 0.0000 0.0000
# 4 0.0000 0.0000 0.0000 20.7393 0.0000 0.0000
# 5 0.0000 0.0000 0.0000 0.0000 20.7393 0.0000
# 6 0.0000 0.0000 0.0000 0.0000 0.0000 26.0746
#
#
#
# Elastic Compliance Matrix: (Units=1/GPa)
#
#
# Indices 1 2 3 4 5 6 
#
# 1 0.012663 -0.006513 -0.000739 0.000000 0.000000 0.000000
# 2 -0.006513 0.012663 -0.000739 0.000000 0.000000 0.000000
# 3 -0.000739 -0.000739 0.008879 0.000000 0.000000 0.000000
# 4 0.000000 0.000000 0.000000 0.048218 0.000000 0.000000
# 5 0.000000 0.000000 0.000000 0.000000 0.048218 0.000000
# 6 0.000000 0.000000 0.000000 0.000000 0.000000 0.038352
#
#
# Mechanical properties :
#
#
# Convention : Reuss Voigt Hill
#
# Bulk Modulus (GPa) = 54.87161 55.77382 55.32271
# Shear Modulus (GPa) = 26.17154 30.07694 28.12424
#
# Velocity S-wave (km/s) = 3.72803 3.99652 3.86461
# Velocity P-wave (km/s) = 6.90436 7.13545 7.02085
#
# Compressibility (1/GPa) = 0.01822436
#
# Stress axis : x y z
#
# Youngs Moduli (GPa) = 78.97014 78.97014 112.62696
#
# Poissons Ratio (x) = 0.51431 0.08320
# Poissons Ratio (y) = 0.51431 0.08320
# Poissons Ratio (z) = 0.05834 0.05834
#
# Static dielectric constant tensor:
#      x y z
#    x 1.687200 0.000000 0.000000 
#    y 0.000000 1.687200 0.000000 
#    z 0.000000 0.000000 1.572060 
# 
# From -- ./inp_files/700.got.cif
#   From: 2010.05.17/outbox.cif.g08.bks.cpg/sg179_1_cif.got.tgz:700.got - 2010.05.20 11:37:33.
