data_PCOD9583076
_publ_section_title
;
Structure prediction by ZEFSAII (Michael W. Deem and Ramdas Pophale) SiO2 
 PCOD9583076
Probable space group: P 61 2 2
;
_chemical_formula_sum "Si O2"
_cell_formula_units_Z 24
_cell_length_a 8.302092
_cell_length_b 8.302092
_cell_length_c 15.314685
_cell_angle_alpha 90.000000
_cell_angle_beta 90.000000
_cell_angle_gamma 120.000000
_cell_volume 914.142254
_symmetry_space_group_name_H-M "P 61 2 2"
_symmetry_group_IT_number 178
_symmetry_cell_setting 'hexagonal'
loop_
_space_group_symop_operation_xyz
x,y,z
x-y,x,1/6+z
-y,x-y,1/3+z
-x,-y,1/2+z
-x+y,-x,2/3+z
y,-x+y,5/6+z
x-y,-y,-z
-x,-x+y,2/3-z
y,x,1/3-z
-y,-x,5/6-z
-x+y,y,1/2-z
x,x-y,1/6-z
loop_
_atom_site_type_symbol
_atom_site_label
_atom_site_fract_x
_atom_site_fract_y
_atom_site_fract_z
Si Si1 0.458519 0.919240 0.087588
Si Si2 0.856720 0.111340 0.698704
O O1 0.409877 0.704939 0.083334
O O2 0.348185 0.944708 0.166186
O O3 0.679704 0.043414 0.097631
O O4 0.417938 0.000000 0.000000
O O5 0.975601 0.139323 0.610902
#
# Coordination Sequence:
#
# PCOD9583076 Si02
#       2
#    12  12
#     4  12  26  51  81 119 169 221 281 349 423 506
#     4  12  28  53  85 122 171 224 286 349 427 507
#
# _framework density 26.25412
#
# number of rings (size 3 to 8) (size 9 to 14) (size 15 to 20)
#    0.000    0.000    5.000    4.500    0.000    6.000 
#   18.000    0.000    0.000    0.000    0.000    0.000 
#    0.000    0.000    0.000    0.000    0.000    0.000 
#
# Total GULP energy -134673.627165 kJ/mol
# GULP energy per Si atom -5611.401132 kJ/mol
# Density = 2.619436 g / cm^3
# Si number density = 26.254120 Si / 1000 Ang^3
#
#
#
# Elastic Constant Matrix: (Units=GPa)
#
#
# Indices 1 2 3 4 5 6 
#
# 1 93.1587 18.6277 63.2438 0.0000 0.0000 0.0000
# 2 18.6277 93.1587 63.2438 0.0000 0.0000 0.0000
# 3 63.2438 63.2438 201.6689 0.0000 0.0000 0.0000
# 4 0.0000 0.0000 0.0000 65.0766 0.0000 0.0000
# 5 0.0000 0.0000 0.0000 0.0000 65.0766 0.0000
# 6 0.0000 0.0000 0.0000 0.0000 0.0000 37.2655
#
#
#
# Elastic Compliance Matrix: (Units=1/GPa)
#
#
# Indices 1 2 3 4 5 6 
#
# 1 0.013642 0.000224 -0.004348 0.000000 0.000000 0.000000
# 2 0.000224 0.013642 -0.004348 0.000000 0.000000 0.000000
# 3 -0.004348 -0.004348 0.007686 0.000000 0.000000 0.000000
# 4 0.000000 0.000000 0.000000 0.015366 0.000000 0.000000
# 5 0.000000 0.000000 0.000000 0.000000 0.015366 0.000000
# 6 0.000000 0.000000 0.000000 0.000000 0.000000 0.026834
#
#
# Mechanical properties :
#
#
# Convention : Reuss Voigt Hill
#
# Bulk Modulus (GPa) = 55.48099 75.35744 65.41922
# Shear Modulus (GPa) = 43.29403 49.67516 46.48460
#
# Velocity S-wave (km/s) = 4.06524 4.35454 4.21237
# Velocity P-wave (km/s) = 6.57367 7.35174 6.97356
#
# Compressibility (1/GPa) = 0.01802419
#
# Stress axis : x y z
#
# Youngs Moduli (GPa) = 73.30550 73.30550 130.10785
#
# Poissons Ratio (x) = -0.01644 0.56576
# Poissons Ratio (y) = -0.01644 0.56576
# Poissons Ratio (z) = 0.31876 0.31876
#
# Static dielectric constant tensor:
#      x y z
#    x 2.038830 0.000000 0.000000 
#    y 0.000000 2.038830 0.000000 
#    z 0.000000 0.000000 2.120290 
# 
# From -- ./inp_files/6143.got.cif
#   From: 2010.05.17/outbox.cif.g08.bks.cpg/sg178_4_cif.got.tgz:6143.got - 2010.05.20 11:30:59.
