data_PCOD9583752
_publ_section_title
;
Structure prediction by ZEFSAII (Michael W. Deem and Ramdas Pophale) SiO2 
 PCOD9583752
Probable space group: P 62 2 2
;
_chemical_formula_sum "Si O2"
_cell_formula_units_Z 51
_cell_length_a 15.673649
_cell_length_b 15.673649
_cell_length_c 14.085253
_cell_angle_alpha 90.000000
_cell_angle_beta 90.000000
_cell_angle_gamma 120.000000
_cell_volume 2996.646522
_symmetry_space_group_name_H-M "P 62 2 2"
_symmetry_group_IT_number 180
_symmetry_cell_setting 'hexagonal'
loop_
_space_group_symop_operation_xyz
x,y,z
x-y,x,1/3+z
-y,x-y,2/3+z
-x,-y,z
-x+y,-x,1/3+z
y,-x+y,2/3+z
x-y,-y,-z
-x,-x+y,1/3-z
y,x,2/3-z
-y,-x,2/3-z
-x+y,y,-z
x,x-y,1/3-z
loop_
_atom_site_type_symbol
_atom_site_label
_atom_site_fract_x
_atom_site_fract_y
_atom_site_fract_z
Si Si1 0.249991 0.750009 0.333334
Si Si2 0.354492 0.354492 0.333334
Si Si3 0.831986 0.276603 0.537392
Si Si4 0.500000 0.000000 0.500000
Si Si5 0.487173 0.634751 0.979710
Si Si6 0.152333 0.511569 0.518875
O O1 0.200613 0.762215 0.429492
O O2 0.203978 0.632514 0.315539
O O3 0.281697 0.352798 0.250082
O O4 0.443157 0.360525 0.269001
O O5 0.743830 0.218670 0.611065
O O6 0.841379 0.384200 0.533497
O O7 0.588874 0.065107 0.567939
O O8 0.526496 0.629566 0.082845
O O9 0.261129 0.522258 0.500000
#
# Coordination Sequence:
#
# PCOD9583752 Si02
#       6
#     6   6  12   3  12  12
#     4  10  20  34  54  69  98 150 200 239 282 334
#     4  12  25  34  52  82 114 146 201 248 285 332
#     4  11  20  35  51  75 104 147 192 244 282 335
#     4  12  24  36  48  82 108 148 198 252 268 342
#     4  11  22  35  54  73 104 148 201 240 284 330
#     4  11  22  34  53  74 104 144 195 241 281 334
#
# _framework density 17.019024000000002
#
# number of rings (size 3 to 8) (size 9 to 14) (size 15 to 20)
#    0.000    0.941    4.706    4.941    6.588    0.000 
#    0.000    0.000    0.000    0.000    0.000    0.000 
#    0.000    0.000    0.000    3.176    0.941    0.000 
#
# Total GULP energy -284007.174253 kJ/mol
# GULP energy per Si atom -5568.768123 kJ/mol
# Density = 1.698029 g / cm^3
# Si number density = 17.019024 Si / 1000 Ang^3
#
#
#
# Elastic Constant Matrix: (Units=GPa)
#
#
# Indices 1 2 3 4 5 6 
#
# 1 30.3438 19.1636 30.3825 0.0000 0.0000 0.0000
# 2 19.1636 30.3438 30.3825 0.0000 0.0000 0.0000
# 3 30.3825 30.3825 148.2281 0.0000 0.0000 0.0000
# 4 0.0000 0.0000 0.0000 750.3481 0.0001 0.0000
# 5 0.0000 0.0000 0.0000 0.0001 750.3480 0.0000
# 6 0.0000 0.0000 0.0000 0.0000 0.0000 5.5901
#
#
#
# Elastic Compliance Matrix: (Units=1/GPa)
#
#
# Indices 1 2 3 4 5 6 
#
# 1 0.058217 -0.031228 -0.005532 0.000000 0.000000 0.000000
# 2 -0.031228 0.058217 -0.005532 0.000000 0.000000 0.000000
# 3 -0.005532 -0.005532 0.009014 0.000000 0.000000 0.000000
# 4 0.000000 0.000000 0.000000 0.001333 0.000000 0.000000
# 5 0.000000 0.000000 0.000000 0.000000 0.001333 0.000000
# 6 0.000000 0.000000 0.000000 0.000000 0.000000 0.178889
#
#
# Mechanical properties :
#
#
# Convention : Reuss Voigt Hill
#
# Bulk Modulus (GPa) = 24.47136 40.97479 32.72307
# Shear Modulus (GPa) = 12.33938 309.85635 161.09786
#
# Velocity S-wave (km/s) = 2.69557 13.50777 9.73976
# Velocity P-wave (km/s) = 4.90899 16.35262 12.07283
#
# Compressibility (1/GPa) = 0.04086409
#
# Stress axis : x y z
#
# Youngs Moduli (GPa) = 17.17720 17.17720 110.93676
#
# Poissons Ratio (x) = 0.53641 0.61370
# Poissons Ratio (y) = 0.53641 0.61370
# Poissons Ratio (z) = 0.09502 0.09502
#
# Static dielectric constant tensor:
#      x y z
#    x 0.890930 0.000000 0.000000 
#    y 0.000000 0.890930 0.000000 
#    z 0.000000 0.000000 1.651790 
# 
# From -- ./inp_files/6024.got.cif
#   From: 2010.05.17/outbox.cif.g08.bks.cpg/sg180_4_cif.got.tgz:6024.got - 2010.05.20 11:43:55.
