data_PCOD9583870
_publ_section_title
;
Structure prediction by ZEFSAII (Michael W. Deem and Ramdas Pophale) SiO2 
 PCOD9583870
Probable space group: P 62 2 2
;
_chemical_formula_sum "Si O2"
_cell_formula_units_Z 66
_cell_length_a 13.957720
_cell_length_b 13.957720
_cell_length_c 19.536829
_cell_angle_alpha 90.000000
_cell_angle_beta 90.000000
_cell_angle_gamma 120.000000
_cell_volume 3296.200878
_symmetry_space_group_name_H-M "P 62 2 2"
_symmetry_group_IT_number 180
_symmetry_cell_setting 'hexagonal'
loop_
_space_group_symop_operation_xyz
x,y,z
x-y,x,1/3+z
-y,x-y,2/3+z
-x,-y,z
-x+y,-x,1/3+z
y,-x+y,2/3+z
x-y,-y,-z
-x,-x+y,1/3-z
y,x,2/3-z
-y,-x,2/3-z
-x+y,y,-z
x,x-y,1/3-z
loop_
_atom_site_type_symbol
_atom_site_label
_atom_site_fract_x
_atom_site_fract_y
_atom_site_fract_z
Si Si1 0.131855 0.557893 0.562202
Si Si2 0.649369 0.824685 0.666667
Si Si3 0.934339 0.183666 0.033371
Si Si4 0.473685 0.873451 0.737050
Si Si5 0.970949 0.098140 0.762415
Si Si6 0.244457 0.489852 0.336805
O O1 0.155489 0.590647 0.482791
O O2 0.194147 0.666210 0.609692
O O3 0.173666 0.478657 0.594935
O O4 0.000000 0.500000 0.571901
O O5 0.729236 0.792545 0.708582
O O6 0.574699 0.855323 0.715195
O O7 0.880295 0.089263 0.090944
O O8 0.920025 0.110177 0.966177
O O9 0.862070 0.239973 0.019419
O O10 0.370874 0.795580 0.689030
O O11 0.500000 0.000000 0.727944
O O12 0.911779 0.088222 0.833334
O O13 0.000000 0.000000 0.758206
#
# Coordination Sequence:
#
# PCOD9583870 Si02
#       6
#    12   6  12  12  12  12
#     4  10  24  42  65  99 128 164 218 277 330 390
#     4  12  22  43  66  92 139 170 224 276 316 398
#     4  11  22  38  63  94 128 175 214 266 332 393
#     4  11  24  43  66  94 128 176 221 266 332 387
#     4  10  21  37  56  88 133 171 210 257 324 394
#     4  11  22  42  66  92 128 168 218 275 329 386
#
# _framework density 20.023053000000001
#
# number of rings (size 3 to 8) (size 9 to 14) (size 15 to 20)
#    0.000    1.273    3.636    3.273    5.091    2.909 
#    0.000    0.000    0.000    1.091    0.000    0.000 
#    0.000    0.000    0.000    0.000    0.000    0.000 
#
# Total GULP energy -368581.856300 kJ/mol
# GULP energy per Si atom -5584.573580 kJ/mol
# Density = 1.997748 g / cm^3
# Si number density = 20.023053 Si / 1000 Ang^3
#
#
#
# Elastic Constant Matrix: (Units=GPa)
#
#
# Indices 1 2 3 4 5 6 
#
# 1 111.6614 42.8033 37.2266 0.0000 0.0000 0.0000
# 2 42.8033 111.6614 37.2266 0.0000 0.0000 0.0000
# 3 37.2266 37.2266 92.3349 0.0000 0.0000 0.0000
# 4 0.0000 0.0000 0.0000 20.3144 0.0000 0.0000
# 5 0.0000 0.0000 0.0000 0.0000 20.3144 0.0000
# 6 0.0000 0.0000 0.0000 0.0000 0.0000 34.4291
#
#
#
# Elastic Compliance Matrix: (Units=1/GPa)
#
#
# Indices 1 2 3 4 5 6 
#
# 1 0.011279 -0.003244 -0.003240 0.000000 0.000000 0.000000
# 2 -0.003244 0.011279 -0.003240 0.000000 0.000000 0.000000
# 3 -0.003240 -0.003240 0.013442 0.000000 0.000000 0.000000
# 4 0.000000 0.000000 0.000000 0.049226 0.000000 0.000000
# 5 0.000000 0.000000 0.000000 0.000000 0.049226 0.000000
# 6 0.000000 0.000000 0.000000 0.000000 0.000000 0.029045
#
#
# Mechanical properties :
#
#
# Convention : Reuss Voigt Hill
#
# Bulk Modulus (GPa) = 60.40563 61.13010 60.76786
# Shear Modulus (GPa) = 26.53054 28.23833 27.38444
#
# Velocity S-wave (km/s) = 3.64400 3.75946 3.70218
# Velocity P-wave (km/s) = 6.92377 7.03142 6.97780
#
# Compressibility (1/GPa) = 0.01655475
#
# Stress axis : x y z
#
# Youngs Moduli (GPa) = 88.65983 88.65983 74.39139
#
# Poissons Ratio (x) = 0.28757 0.24100
# Poissons Ratio (y) = 0.28757 0.24100
# Poissons Ratio (z) = 0.28723 0.28723
#
# Static dielectric constant tensor:
#      x y z
#    x 1.722140 0.000000 0.000000 
#    y 0.000000 1.722140 0.000000 
#    z 0.000000 0.000000 1.718550 
# 
# From -- ./inp_files/9126.got.cif
#   From: 2010.05.17/outbox.cif.g08.bks.cpg/sg180_5_cif.got.tgz:9126.got - 2010.05.20 11:43:55.
