data_PCOD9583658
_publ_section_title
;
Structure prediction by ZEFSAII (Michael W. Deem and Ramdas Pophale) SiO2 
 PCOD9583658
Probable space group: P 62 2 2
;
_chemical_formula_sum "Si O2"
_cell_formula_units_Z 54
_cell_length_a 11.865149
_cell_length_b 11.865149
_cell_length_c 22.580994
_cell_angle_alpha 90.000000
_cell_angle_beta 90.000000
_cell_angle_gamma 120.000000
_cell_volume 2753.087913
_symmetry_space_group_name_H-M "P 62 2 2"
_symmetry_group_IT_number 180
_symmetry_cell_setting 'hexagonal'
loop_
_space_group_symop_operation_xyz
x,y,z
x-y,x,1/3+z
-y,x-y,2/3+z
-x,-y,z
-x+y,-x,1/3+z
y,-x+y,2/3+z
x-y,-y,-z
-x,-x+y,1/3-z
y,x,2/3-z
-y,-x,2/3-z
-x+y,y,-z
x,x-y,1/3-z
loop_
_atom_site_type_symbol
_atom_site_label
_atom_site_fract_x
_atom_site_fract_y
_atom_site_fract_z
Si Si1 0.351528 0.391851 0.895301
Si Si2 0.166697 0.512097 0.903521
Si Si3 0.222712 0.419402 0.429434
Si Si4 0.000000 0.500000 0.540148
Si Si5 0.269955 0.265304 0.653050
O O1 0.500000 0.500000 0.895855
O O2 0.317822 0.317822 0.833334
O O3 0.277057 0.473035 0.901055
O O4 0.325031 0.294358 0.948750
O O5 0.210630 0.662114 0.916137
O O6 0.095257 0.483623 0.839836
O O7 0.072575 0.410572 0.952840
O O8 0.195180 0.390360 0.500000
O O9 0.370644 0.454299 0.422374
O O10 0.118168 0.302675 0.388759
O O11 0.231719 0.115860 0.666667
#
# Coordination Sequence:
#
# PCOD9583658 Si02
#       5
#    12  12  12   6  12
#     4  10  22  32  52  88 129 170 210 268 329 379
#     4  10  18  34  58  90 131 169 211 264 327 399
#     4  10  18  32  59  93 137 171 218 262 328 395
#     4  10  20  30  60  91 133 178 206 266 328 398
#     4  10  19  36  60  94 127 169 219 266 326 398
#
# _framework density 19.614341
#
# number of rings (size 3 to 8) (size 9 to 14) (size 15 to 20)
#    0.000    2.000    4.444    1.333    9.333    0.000 
#    0.000    0.000    0.000    2.667    0.000   17.111 
#    0.000    0.000    8.000    0.000    0.000    0.000 
#
# Total GULP energy -301001.382851 kJ/mol
# GULP energy per Si atom -5574.099682 kJ/mol
# Density = 1.956970 g / cm^3
# Si number density = 19.614341 Si / 1000 Ang^3
#
#
#
# Elastic Constant Matrix: (Units=GPa)
#
#
# Indices 1 2 3 4 5 6 
#
# 1 89.2207 40.5058 34.0507 0.0000 0.0000 0.0000
# 2 40.5058 89.2207 34.0507 0.0000 0.0000 0.0000
# 3 34.0507 34.0507 115.8271 0.0000 0.0000 0.0000
# 4 0.0000 0.0000 0.0000 30.5861 0.0000 0.0000
# 5 0.0000 0.0000 0.0000 0.0000 30.5861 0.0000
# 6 0.0000 0.0000 0.0000 0.0000 0.0000 24.3575
#
#
#
# Elastic Compliance Matrix: (Units=1/GPa)
#
#
# Indices 1 2 3 4 5 6 
#
# 1 0.014821 -0.005706 -0.002680 0.000000 0.000000 0.000000
# 2 -0.005706 0.014821 -0.002680 0.000000 0.000000 0.000000
# 3 -0.002680 -0.002680 0.010209 0.000000 0.000000 0.000000
# 4 0.000000 0.000000 0.000000 0.032695 0.000000 0.000000
# 5 0.000000 0.000000 0.000000 0.000000 0.032695 0.000000
# 6 0.000000 0.000000 0.000000 0.000000 0.000000 0.041055
#
#
# Mechanical properties :
#
#
# Convention : Reuss Voigt Hill
#
# Bulk Modulus (GPa) = 56.43068 56.83143 56.63105
# Shear Modulus (GPa) = 28.68052 29.48335 29.08194
#
# Velocity S-wave (km/s) = 3.82805 3.88126 3.85475
# Velocity P-wave (km/s) = 6.95494 7.00877 6.98191
#
# Compressibility (1/GPa) = 0.01772086
#
# Stress axis : x y z
#
# Youngs Moduli (GPa) = 67.46985 67.46985 97.95171
#
# Poissons Ratio (x) = 0.38499 0.26248
# Poissons Ratio (y) = 0.38499 0.26248
# Poissons Ratio (z) = 0.18080 0.18080
#
# Static dielectric constant tensor:
#      x y z
#    x 1.710990 0.000000 0.000000 
#    y 0.000000 1.710990 0.000000 
#    z 0.000000 0.000000 1.748670 
# 
# From -- ./inp_files/8895.got.cif
#   From: 2010.05.17/outbox.cif.g08.bks.cpg/sg180_5_cif.got.tgz:8895.got - 2010.05.20 11:43:55.
