data_PCOD9583576
_publ_section_title
;
Structure prediction by ZEFSAII (Michael W. Deem and Ramdas Pophale) SiO2 
 PCOD9583576
Probable space group: P 65 2 2
;
_chemical_formula_sum "Si O2"
_cell_formula_units_Z 30
_cell_length_a 18.333456
_cell_length_b 18.333456
_cell_length_c 5.050981
_cell_angle_alpha 90.000000
_cell_angle_beta 90.000000
_cell_angle_gamma 120.000000
_cell_volume 1470.263066
_symmetry_space_group_name_H-M "P 65 2 2"
_symmetry_group_IT_number 179
_symmetry_cell_setting 'hexagonal'
loop_
_space_group_symop_operation_xyz
x,y,z
x-y,x,5/6+z
-y,x-y,2/3+z
-x,-y,1/2+z
-x+y,-x,1/3+z
y,-x+y,1/6+z
x-y,-y,-z
-x,-x+y,1/3-z
y,x,2/3-z
-y,-x,1/6-z
-x+y,y,1/2-z
x,x-y,5/6-z
loop_
_atom_site_type_symbol
_atom_site_label
_atom_site_fract_x
_atom_site_fract_y
_atom_site_fract_z
Si Si1 0.000000 0.261002 0.666667
Si Si2 0.164970 0.434137 0.505321
Si Si3 0.164755 0.000000 0.500000
Si Si4 0.936468 0.468234 0.916667
O O1 0.081620 0.346979 0.581035
O O2 0.974317 0.200683 0.414897
O O3 0.230242 0.460483 0.750000
O O4 0.125472 0.493677 0.448581
O O5 0.212544 0.425087 0.250000
O O6 0.154719 0.077360 0.416667
O O7 0.000000 0.507567 0.666667
#
# Coordination Sequence:
#
# PCOD9583576 Si02
#       4
#     6  12   6   6
#     4  12  24  45  69 100 134 174 240 286 342 408
#     4  12  26  46  74 106 142 185 237 301 359 426
#     4  12  26  43  63  94 136 182 222 278 344 412
#     4  12  26  50  76 108 148 196 246 296 374 454
#
# _framework density 20.404512
#
# number of rings (size 3 to 8) (size 9 to 14) (size 15 to 20)
#    0.000    0.000    2.000    9.600    2.800    1.600 
#    3.600    0.000    0.000    0.000    0.000    0.000 
#    0.000    0.000    0.000    0.000    0.000    0.000 
#
# Total GULP energy -168017.741707 kJ/mol
# GULP energy per Si atom -5600.591390 kJ/mol
# Density = 2.035807 g / cm^3
# Si number density = 20.404512 Si / 1000 Ang^3
#
#
#
# Elastic Constant Matrix: (Units=GPa)
#
#
# Indices 1 2 3 4 5 6 
#
# 1 201.7625 109.9347 98.4553 0.0000 0.0000 0.0000
# 2 109.9347 201.7625 98.4553 0.0000 0.0000 0.0000
# 3 98.4553 98.4553 200.2811 0.0000 0.0000 0.0000
# 4 0.0000 0.0000 0.0000 31.9661 0.0000 0.0000
# 5 0.0000 0.0000 0.0000 0.0000 31.9661 0.0000
# 6 0.0000 0.0000 0.0000 0.0000 0.0000 45.9139
#
#
#
# Elastic Compliance Matrix: (Units=1/GPa)
#
#
# Indices 1 2 3 4 5 6 
#
# 1 0.007772 -0.003118 -0.002288 0.000000 0.000000 0.000000
# 2 -0.003118 0.007772 -0.002288 0.000000 0.000000 0.000000
# 3 -0.002288 -0.002288 0.007242 0.000000 0.000000 0.000000
# 4 0.000000 0.000000 0.000000 0.031283 0.000000 0.000000
# 5 0.000000 0.000000 0.000000 0.000000 0.031283 0.000000
# 6 0.000000 0.000000 0.000000 0.000000 0.000000 0.021780
#
#
# Mechanical properties :
#
#
# Convention : Reuss Voigt Hill
#
# Bulk Modulus (GPa) = 135.16018 135.27740 135.21879
# Shear Modulus (GPa) = 40.00499 41.76660 40.88579
#
# Velocity S-wave (km/s) = 4.43266 4.52921 4.48120
# Velocity P-wave (km/s) = 9.62196 9.68470 9.65338
#
# Compressibility (1/GPa) = 0.00739863
#
# Stress axis : x y z
#
# Youngs Moduli (GPa) = 128.67275 128.67275 138.08327
#
# Poissons Ratio (x) = 0.40124 0.31587
# Poissons Ratio (y) = 0.40124 0.31587
# Poissons Ratio (z) = 0.29434 0.29434
#
# Static dielectric constant tensor:
#      x y z
#    x 1.710280 0.000000 0.000000 
#    y 0.000000 1.710280 0.000000 
#    z 0.000000 0.000000 1.694630 
# 
# From -- ./inp_files/424.got.cif
#   From: 2010.05.17/outbox.cif.g08.bks.cpg/sg179_1_cif.got.tgz:424.got - 2010.05.20 11:37:33.
