data_PCOD9583555
_publ_section_title
;
Structure prediction by ZEFSAII (Michael W. Deem and Ramdas Pophale) SiO2 
 PCOD9583555
Probable space group: P 65 2 2
;
_chemical_formula_sum "Si O2"
_cell_formula_units_Z 42
_cell_length_a 11.420394
_cell_length_b 11.420394
_cell_length_c 16.276462
_cell_angle_alpha 90.000000
_cell_angle_beta 90.000000
_cell_angle_gamma 120.000000
_cell_volume 1838.454198
_symmetry_space_group_name_H-M "P 65 2 2"
_symmetry_group_IT_number 179
_symmetry_cell_setting 'hexagonal'
loop_
_space_group_symop_operation_xyz
x,y,z
x-y,x,5/6+z
-y,x-y,2/3+z
-x,-y,1/2+z
-x+y,-x,1/3+z
y,-x+y,1/6+z
x-y,-y,-z
-x,-x+y,1/3-z
y,x,2/3-z
-y,-x,1/6-z
-x+y,y,1/2-z
x,x-y,5/6-z
loop_
_atom_site_type_symbol
_atom_site_label
_atom_site_fract_x
_atom_site_fract_y
_atom_site_fract_z
Si Si1 0.805442 0.194559 0.083334
Si Si2 0.443471 0.832933 0.063995
Si Si3 0.289697 0.322448 0.711149
Si Si4 0.929137 0.675020 0.473905
O O1 0.831071 0.315810 0.145585
O O2 0.769914 0.065041 0.140901
O O3 0.306486 0.693515 0.083334
O O4 0.404810 0.949474 0.077210
O O5 0.546385 0.850024 0.135497
O O6 0.153931 0.307862 0.750000
O O7 0.320143 0.359713 0.615302
O O8 0.274340 0.175363 0.715048
#
# Coordination Sequence:
#
# PCOD9583555 Si02
#       4
#     6  12  12  12
#     4  12  28  52  80 122 164 218 278 344 422 512
#     4  11  28  47  82 115 162 212 275 343 414 499
#     4  11  27  49  77 113 159 210 271 334 410 497
#     4  12  26  51  78 119 161 214 273 336 418 497
#
# _framework density 22.845279000000001
#
# number of rings (size 3 to 8) (size 9 to 14) (size 15 to 20)
#    0.000    0.571    2.857    2.571   12.000    4.571 
#    7.714    0.000    0.000    0.000    0.000    0.000 
#    0.000    0.000    0.000    0.000    0.000    0.000 
#
# Total GULP energy -234733.601365 kJ/mol
# GULP energy per Si atom -5588.895271 kJ/mol
# Density = 2.279328 g / cm^3
# Si number density = 22.845279 Si / 1000 Ang^3
#
#
#
# Elastic Constant Matrix: (Units=GPa)
#
#
# Indices 1 2 3 4 5 6 
#
# 1 119.0997 83.1065 66.0983 0.0000 0.0000 0.0000
# 2 83.1065 119.0997 66.0983 0.0000 0.0000 0.0000
# 3 66.0983 66.0983 192.0434 0.0000 0.0000 0.0000
# 4 0.0000 0.0000 0.0000 31.9393 0.0000 0.0000
# 5 0.0000 0.0000 0.0000 0.0000 31.9393 0.0000
# 6 0.0000 0.0000 0.0000 0.0000 0.0000 17.9966
#
#
#
# Elastic Compliance Matrix: (Units=1/GPa)
#
#
# Indices 1 2 3 4 5 6 
#
# 1 0.017082 -0.010701 -0.002196 0.000000 0.000000 0.000000
# 2 -0.010701 0.017082 -0.002196 0.000000 0.000000 0.000000
# 3 -0.002196 -0.002196 0.006719 0.000000 0.000000 0.000000
# 4 0.000000 0.000000 0.000000 0.031309 0.000000 0.000000
# 5 0.000000 0.000000 0.000000 0.000000 0.031309 0.000000
# 6 0.000000 0.000000 0.000000 0.000000 0.000000 0.055566
#
#
# Mechanical properties :
#
#
# Convention : Reuss Voigt Hill
#
# Bulk Modulus (GPa) = 93.48996 95.64990 94.56993
# Shear Modulus (GPa) = 25.93081 30.70436 28.31758
#
# Velocity S-wave (km/s) = 3.37272 3.67006 3.52453
# Velocity P-wave (km/s) = 7.49526 7.74071 7.61897
#
# Compressibility (1/GPa) = 0.01069634
#
# Stress axis : x y z
#
# Youngs Moduli (GPa) = 58.54047 58.54047 148.83018
#
# Poissons Ratio (x) = 0.62643 0.32689
# Poissons Ratio (y) = 0.62643 0.32689
# Poissons Ratio (z) = 0.12858 0.12858
#
# Static dielectric constant tensor:
#      x y z
#    x 1.926770 0.000000 0.000000 
#    y 0.000000 1.926770 0.000000 
#    z 0.000000 0.000000 1.869570 
# 
# From -- ./inp_files/6463.got.cif
#   From: 2010.05.17/outbox.cif.g08.bks.cpg/sg179_4_cif.got.tgz:6463.got - 2010.05.20 11:37:33.
