data_PCOD9583700
_publ_section_title
;
Structure prediction by ZEFSAII (Michael W. Deem and Ramdas Pophale) SiO2 
 PCOD9583700
Probable space group: P 62 2 2
;
_chemical_formula_sum "Si O2"
_cell_formula_units_Z 60
_cell_length_a 18.602203
_cell_length_b 18.602203
_cell_length_c 14.203999
_cell_angle_alpha 90.000000
_cell_angle_beta 90.000000
_cell_angle_gamma 120.000000
_cell_volume 4256.670401
_symmetry_space_group_name_H-M "P 62 2 2"
_symmetry_group_IT_number 180
_symmetry_cell_setting 'hexagonal'
loop_
_space_group_symop_operation_xyz
x,y,z
x-y,x,1/3+z
-y,x-y,2/3+z
-x,-y,z
-x+y,-x,1/3+z
y,-x+y,2/3+z
x-y,-y,-z
-x,-x+y,1/3-z
y,x,2/3-z
-y,-x,2/3-z
-x+y,y,-z
x,x-y,1/3-z
loop_
_atom_site_type_symbol
_atom_site_label
_atom_site_fract_x
_atom_site_fract_y
_atom_site_fract_z
Si Si1 0.493202 0.326947 0.938437
Si Si2 0.820494 0.493698 0.055295
Si Si3 0.450105 0.764938 0.069740
Si Si4 0.438687 0.400729 0.238060
Si Si5 0.410227 0.414511 0.032751
O O1 0.484459 0.300956 0.830287
O O2 0.585232 0.407995 0.947565
O O3 0.493211 0.261439 0.010717
O O4 0.427121 0.354223 0.967696
O O5 0.741958 0.483916 0.000000
O O6 0.906758 0.561372 0.008367
O O7 0.422953 0.711477 0.166667
O O8 0.503459 0.862654 0.092676
O O9 0.375188 0.750376 0.000000
O O10 0.500000 0.500000 0.236299
O O11 0.385913 0.385913 0.333334
O O12 0.391124 0.380870 0.139188
O O13 0.500000 0.500000 0.034428
#
# Coordination Sequence:
#
# PCOD9583700 Si02
#       5
#    12  12  12  12  12
#     4  10  21  33  45  64  92 117 145 195 248 275
#     4  10  21  32  47  67  86 116 155 196 236 281
#     4  12  24  34  49  69  96 119 158 205 248 283
#     4  10  19  34  48  64  85 124 156 191 234 295
#     4   9  18  33  48  60  86 118 152 183 237 287
#
# _framework density 14.095523999999999
#
# number of rings (size 3 to 8) (size 9 to 14) (size 15 to 20)
#    0.000    1.800    4.000    1.200    8.400    2.400 
#    0.000    0.000    0.000    0.000    0.000    0.000 
#    0.000    0.000    0.000    0.000    0.000    1.000 
#
# Total GULP energy -334568.286273 kJ/mol
# GULP energy per Si atom -5576.138105 kJ/mol
# Density = 1.406344 g / cm^3
# Si number density = 14.095524 Si / 1000 Ang^3
#
#
#
# Elastic Constant Matrix: (Units=GPa)
#
#
# Indices 1 2 3 4 5 6 
#
# 1 46.6307 21.9328 34.5276 0.0000 0.0000 0.0000
# 2 21.9328 46.6307 34.5276 0.0000 0.0000 0.0000
# 3 34.5276 34.5276 132.4845 0.0000 0.0000 0.0000
# 4 0.0000 0.0000 0.0000 -5.5379 0.0000 0.0000
# 5 0.0000 0.0000 0.0000 0.0000 -5.5379 0.0000
# 6 0.0000 0.0000 0.0000 0.0000 0.0000 12.3489
#
#
#
# Elastic Compliance Matrix: (Units=1/GPa)
#
#
# Indices 1 2 3 4 5 6 
#
# 1 0.030133 -0.010357 -0.005154 0.000000 0.000000 0.000000
# 2 -0.010357 0.030133 -0.005154 0.000000 0.000000 0.000000
# 3 -0.005154 -0.005154 0.010234 0.000000 0.000000 0.000000
# 4 0.000000 0.000000 0.000000 -0.180574 0.000000 0.000000
# 5 0.000000 0.000000 0.000000 0.000000 -0.180574 0.000000
# 6 0.000000 0.000000 0.000000 0.000000 0.000000 0.080979
#
#
# Mechanical properties :
#
#
# Convention : Reuss Voigt Hill
#
# Bulk Modulus (GPa) = 34.28113 45.30242 39.79177
# Shear Modulus (GPa) = -31.52243 9.23849 -11.14197
#
# Velocity S-wave (km/s) = -4.73413 2.56290 -2.81456
# Velocity P-wave (km/s) = 2.34718 6.40057 4.21058
#
# Compressibility (1/GPa) = 0.02917057
#
# Stress axis : x y z
#
# Youngs Moduli (GPa) = 33.18665 33.18665 97.70942
#
# Poissons Ratio (x) = 0.34370 0.50359
# Poissons Ratio (y) = 0.34370 0.50359
# Poissons Ratio (z) = 0.17104 0.17104
#
# Static dielectric constant tensor:
#      x y z
#    x 1.477100 0.000000 0.000000 
#    y 0.000000 1.477100 0.000000 
#    z 0.000000 0.000000 1.521710 
# 
# From -- ./inp_files/6254.got.cif
#   From: 2010.05.17/outbox.cif.g08.bks.cpg/sg180_4_cif.got.tgz:6254.got - 2010.05.20 11:43:55.
