data_PCOD9583181
_publ_section_title
;
Structure prediction by ZEFSAII (Michael W. Deem and Ramdas Pophale) SiO2 
 PCOD9583181
Probable space group: P 65 2 2
;
_chemical_formula_sum "Si O2"
_cell_formula_units_Z 36
_cell_length_a 16.124431
_cell_length_b 16.124431
_cell_length_c 8.728513
_cell_angle_alpha 90.000000
_cell_angle_beta 90.000000
_cell_angle_gamma 120.000000
_cell_volume 1965.349041
_symmetry_space_group_name_H-M "P 65 2 2"
_symmetry_group_IT_number 179
_symmetry_cell_setting 'hexagonal'
loop_
_space_group_symop_operation_xyz
x,y,z
x-y,x,5/6+z
-y,x-y,2/3+z
-x,-y,1/2+z
-x+y,-x,1/3+z
y,-x+y,1/6+z
x-y,-y,-z
-x,-x+y,1/3-z
y,x,2/3-z
-y,-x,1/6-z
-x+y,y,1/2-z
x,x-y,5/6-z
loop_
_atom_site_type_symbol
_atom_site_label
_atom_site_fract_x
_atom_site_fract_y
_atom_site_fract_z
Si Si1 0.532829 0.613835 0.705510
Si Si2 0.219696 0.626711 0.243898
Si Si3 0.381092 0.278174 0.912373
O O1 0.577959 0.577959 0.833334
O O2 0.469577 0.530424 0.583334
O O3 0.464807 0.642455 0.798202
O O4 0.603456 0.693526 0.590586
O O5 0.335344 0.670687 0.250000
O O6 0.185528 0.592764 0.416667
O O7 0.169576 0.684848 0.175559
O O8 0.328690 0.328690 0.833334
O O9 0.328678 0.164339 0.916667
#
# Coordination Sequence:
#
# PCOD9583181 Si02
#       3
#    12  12  12
#     4  10  19  33  53  78 112 153 196 241 287 339
#     4  11  20  32  51  79 116 157 199 237 275 334
#     4  11  23  39  57  81 111 148 193 246 301 355
#
# _framework density 18.317356
#
# number of rings (size 3 to 8) (size 9 to 14) (size 15 to 20)
#    0.000    1.333    0.000   10.000    0.000    2.667 
#    0.000    0.000    0.000    0.000    0.000    2.333 
#    0.000    0.000    0.000    0.000    0.000    0.000 
#
# Total GULP energy -200782.166002 kJ/mol
# GULP energy per Si atom -5577.282389 kJ/mol
# Density = 1.827567 g / cm^3
# Si number density = 18.317356 Si / 1000 Ang^3
#
#
#
# Elastic Constant Matrix: (Units=GPa)
#
#
# Indices 1 2 3 4 5 6 
#
# 1 85.5448 53.3743 45.0000 0.0000 0.0000 0.0000
# 2 53.3743 85.5448 45.0000 0.0000 0.0000 0.0000
# 3 45.0000 45.0000 175.9277 0.0000 0.0000 0.0000
# 4 0.0000 0.0000 0.0000 22.4074 0.0000 0.0000
# 5 0.0000 0.0000 0.0000 0.0000 22.4074 0.0000
# 6 0.0000 0.0000 0.0000 0.0000 0.0000 16.0852
#
#
#
# Elastic Compliance Matrix: (Units=1/GPa)
#
#
# Indices 1 2 3 4 5 6 
#
# 1 0.019856 -0.011228 -0.002207 0.000000 0.000000 0.000000
# 2 -0.011228 0.019856 -0.002207 0.000000 0.000000 0.000000
# 3 -0.002207 -0.002207 0.006813 0.000000 0.000000 0.000000
# 4 0.000000 0.000000 0.000000 0.044628 0.000000 0.000000
# 5 0.000000 0.000000 0.000000 0.000000 0.044628 0.000000
# 6 0.000000 0.000000 0.000000 0.000000 0.000000 0.062169
#
#
# Mechanical properties :
#
#
# Convention : Reuss Voigt Hill
#
# Bulk Modulus (GPa) = 65.60937 70.41843 68.01390
# Shear Modulus (GPa) = 21.33874 25.75621 23.54748
#
# Velocity S-wave (km/s) = 3.41683 3.75388 3.58932
# Velocity P-wave (km/s) = 7.17372 7.57072 7.37489
#
# Compressibility (1/GPa) = 0.01524173
#
# Stress axis : x y z
#
# Youngs Moduli (GPa) = 50.36175 50.36175 146.77403
#
# Poissons Ratio (x) = 0.56547 0.32393
# Poissons Ratio (y) = 0.56547 0.32393
# Poissons Ratio (z) = 0.11115 0.11115
#
# Static dielectric constant tensor:
#      x y z
#    x 1.681780 0.000000 0.000000 
#    y 0.000000 1.681780 0.000000 
#    z 0.000000 0.000000 1.688940 
# 
# From -- ./inp_files/2269.got.cif
#   From: 2010.05.17/outbox.cif.g08.bks.cpg/sg179_2_cif.got.tgz:2269.got - 2010.05.20 11:37:33.
