data_PCOD9583500
_publ_section_title
;
Structure prediction by ZEFSAII (Michael W. Deem and Ramdas Pophale) SiO2 
 PCOD9583500
Probable space group: P 65 2 2
;
_chemical_formula_sum "Si O2"
_cell_formula_units_Z 78
_cell_length_a 16.199294
_cell_length_b 16.199294
_cell_length_c 17.440821
_cell_angle_alpha 90.000000
_cell_angle_beta 90.000000
_cell_angle_gamma 120.000000
_cell_volume 3963.599194
_symmetry_space_group_name_H-M "P 65 2 2"
_symmetry_group_IT_number 179
_symmetry_cell_setting 'hexagonal'
loop_
_space_group_symop_operation_xyz
x,y,z
x-y,x,5/6+z
-y,x-y,2/3+z
-x,-y,1/2+z
-x+y,-x,1/3+z
y,-x+y,1/6+z
x-y,-y,-z
-x,-x+y,1/3-z
y,x,2/3-z
-y,-x,1/6-z
-x+y,y,1/2-z
x,x-y,5/6-z
loop_
_atom_site_type_symbol
_atom_site_label
_atom_site_fract_x
_atom_site_fract_y
_atom_site_fract_z
Si Si1 0.682927 0.994624 0.824018
Si Si2 0.459267 0.810365 0.676059
Si Si3 0.135724 0.323376 0.463580
Si Si4 0.367879 0.632122 0.583334
Si Si5 0.772546 0.038698 0.585073
Si Si6 0.027674 0.489599 0.254569
Si Si7 0.449193 0.098642 0.820070
O O1 0.778174 0.081830 0.858119
O O2 0.597225 0.959153 0.883727
O O3 0.651767 0.036002 0.751007
O O4 0.698575 0.913255 0.786424
O O5 0.419498 0.838995 0.750000
O O6 0.563380 0.824233 0.690573
O O7 0.382389 0.704750 0.650442
O O8 0.467236 0.878584 0.606615
O O9 0.052613 0.262600 0.525768
O O10 0.329222 0.527861 0.619735
O O11 0.885342 0.114659 0.583334
O O12 0.721714 0.094861 0.619268
O O13 0.737568 0.000000 0.500000
O O14 0.947802 0.494446 0.306546
O O15 0.000000 0.479069 0.166667
#
# Coordination Sequence:
#
# PCOD9583500 Si02
#       7
#    12  12  12   6  12  12  12
#     4  11  21  42  68  89 125 176 225 273 338 411
#     4  12  24  42  60  91 137 182 228 280 321 391
#     4  11  22  40  69  91 128 181 219 266 349 400
#     4  12  26  38  64  94 130 182 226 268 324 380
#     4  11  23  36  60  98 132 158 209 272 335 403
#     4  12  23  39  63  90 126 181 231 282 323 385
#     4  11  20  38  61  86 129 178 221 251 326 395
#
# _framework density 19.679082999999999
#
# number of rings (size 3 to 8) (size 9 to 14) (size 15 to 20)
#    0.000    0.615    7.692    2.308    0.000    3.077 
#    0.000    0.000    0.000    0.000    0.000   10.769 
#    0.000    0.000    0.000    0.000    0.000    0.000 
#
# Total GULP energy -435923.946435 kJ/mol
# GULP energy per Si atom -5588.768544 kJ/mol
# Density = 1.963429 g / cm^3
# Si number density = 19.679083 Si / 1000 Ang^3
#
#
#
# Elastic Constant Matrix: (Units=GPa)
#
#
# Indices 1 2 3 4 5 6 
#
# 1 57.6818 12.6152 13.2196 0.0000 0.0000 0.0000
# 2 12.6152 57.6818 13.2196 0.0000 0.0000 0.0000
# 3 13.2196 13.2196 64.8142 0.0000 0.0000 0.0000
# 4 0.0000 0.0000 0.0000 22.3604 0.0000 0.0000
# 5 0.0000 0.0000 0.0000 0.0000 22.3604 0.0000
# 6 0.0000 0.0000 0.0000 0.0000 0.0000 22.5333
#
#
#
# Elastic Compliance Matrix: (Units=1/GPa)
#
#
# Indices 1 2 3 4 5 6 
#
# 1 0.018798 -0.003391 -0.003142 0.000000 0.000000 0.000000
# 2 -0.003391 0.018798 -0.003142 0.000000 0.000000 0.000000
# 3 -0.003142 -0.003142 0.016711 0.000000 0.000000 0.000000
# 4 0.000000 0.000000 0.000000 0.044722 0.000000 0.000000
# 5 0.000000 0.000000 0.000000 0.000000 0.044722 0.000000
# 6 0.000000 0.000000 0.000000 0.000000 0.000000 0.044379
#
#
# Mechanical properties :
#
#
# Convention : Reuss Voigt Hill
#
# Bulk Modulus (GPa) = 28.60803 28.69849 28.65326
# Shear Modulus (GPa) = 22.81711 22.85903 22.83807
#
# Velocity S-wave (km/s) = 3.40878 3.41191 3.41034
# Velocity P-wave (km/s) = 5.48287 5.48966 5.48627
#
# Compressibility (1/GPa) = 0.03495522
#
# Stress axis : x y z
#
# Youngs Moduli (GPa) = 53.19622 53.19622 59.84219
#
# Poissons Ratio (x) = 0.18039 0.18805
# Poissons Ratio (y) = 0.18039 0.18805
# Poissons Ratio (z) = 0.16717 0.16717
#
# Static dielectric constant tensor:
#      x y z
#    x 1.726950 0.000000 0.000000 
#    y 0.000000 1.726950 0.000000 
#    z 0.000000 0.000000 1.783830 
# 
# From -- ./inp_files/6048.got.cif
#   From: 2010.05.17/outbox.cif.g08.bks.cpg/sg179_4_cif.got.tgz:6048.got - 2010.05.20 11:37:33.
