data_PCOD9583464
_publ_section_title
;
Structure prediction by ZEFSAII (Michael W. Deem and Ramdas Pophale) SiO2 
 PCOD9583464
Probable space group: P 65 2 2
;
_chemical_formula_sum "Si O2"
_cell_formula_units_Z 48
_cell_length_a 12.156024
_cell_length_b 12.156024
_cell_length_c 18.043254
_cell_angle_alpha 90.000000
_cell_angle_beta 90.000000
_cell_angle_gamma 120.000000
_cell_volume 2309.024772
_symmetry_space_group_name_H-M "P 65 2 2"
_symmetry_group_IT_number 179
_symmetry_cell_setting 'hexagonal'
loop_
_space_group_symop_operation_xyz
x,y,z
x-y,x,5/6+z
-y,x-y,2/3+z
-x,-y,1/2+z
-x+y,-x,1/3+z
y,-x+y,1/6+z
x-y,-y,-z
-x,-x+y,1/3-z
y,x,2/3-z
-y,-x,1/6-z
-x+y,y,1/2-z
x,x-y,5/6-z
loop_
_atom_site_type_symbol
_atom_site_label
_atom_site_fract_x
_atom_site_fract_y
_atom_site_fract_z
Si Si1 0.000000 0.046952 0.166667
Si Si2 0.366733 0.733466 0.750000
Si Si3 0.243702 0.283967 0.527637
Si Si4 0.419515 0.926091 0.425360
Si Si5 0.674952 0.597761 0.490555
O O1 0.994620 0.989239 0.250000
O O2 0.137860 0.175039 0.166096
O O3 0.425770 0.648410 0.774714
O O4 0.455888 0.818952 0.683073
O O5 0.332547 0.381222 0.464830
O O6 0.141815 0.328666 0.546599
O O7 0.326987 0.304671 0.599719
O O8 0.434338 0.000000 0.500000
O O9 0.557805 0.974917 0.389893
#
# Coordination Sequence:
#
# PCOD9583464 Si02
#       5
#     6   6  12  12  12
#     4  12  26  46  72 112 152 198 242 308 370 448
#     4  10  24  46  64 100 136 180 228 284 358 416
#     4  11  24  46  73 102 145 188 237 301 362 436
#     4  11  26  45  73 105 134 189 242 299 360 438
#     4  11  23  48  69  98 144 185 230 299 360 427
#
# _framework density 20.787994999999999
#
# number of rings (size 3 to 8) (size 9 to 14) (size 15 to 20)
#    0.000    1.000    5.000    0.000    5.250    1.000 
#    4.500    0.000    0.000    0.000    0.000    0.000 
#    0.000    0.000    0.000    0.000    0.000    0.000 
#
# Total GULP energy -268102.428073 kJ/mol
# GULP energy per Si atom -5585.467252 kJ/mol
# Density = 2.074068 g / cm^3
# Si number density = 20.787995 Si / 1000 Ang^3
#
#
#
# Elastic Constant Matrix: (Units=GPa)
#
#
# Indices 1 2 3 4 5 6 
#
# 1 130.0491 48.2919 20.0415 0.0000 0.0000 0.0000
# 2 48.2919 130.0491 20.0415 0.0000 0.0000 0.0000
# 3 20.0415 20.0415 55.8307 0.0000 0.0000 0.0000
# 4 0.0000 0.0000 0.0000 -12.4756 0.0000 0.0000
# 5 0.0000 0.0000 0.0000 0.0000 -12.4756 0.0000
# 6 0.0000 0.0000 0.0000 0.0000 0.0000 40.8786
#
#
#
# Elastic Compliance Matrix: (Units=1/GPa)
#
#
# Indices 1 2 3 4 5 6 
#
# 1 0.009165 -0.003066 -0.002189 0.000000 0.000000 0.000000
# 2 -0.003066 0.009165 -0.002189 0.000000 0.000000 0.000000
# 3 -0.002189 -0.002189 0.019483 0.000000 0.000000 0.000000
# 4 0.000000 0.000000 0.000000 -0.080156 0.000000 0.000000
# 5 0.000000 0.000000 0.000000 0.000000 -0.080156 0.000000
# 6 0.000000 0.000000 0.000000 0.000000 0.000000 0.024463
#
#
# Mechanical properties :
#
#
# Convention : Reuss Voigt Hill
#
# Bulk Modulus (GPa) = 43.62242 54.74205 49.18223
# Shear Modulus (GPa) = -66.22081 18.35575 -23.93253
#
# Velocity S-wave (km/s) = -5.65017 2.97475 -3.39671
# Velocity P-wave (km/s) = 4.64069 6.17977 2.88561
#
# Compressibility (1/GPa) = 0.02292399
#
# Stress axis : x y z
#
# Youngs Moduli (GPa) = 109.10678 109.10678 51.32627
#
# Poissons Ratio (x) = 0.33452 0.11238
# Poissons Ratio (y) = 0.33452 0.11238
# Poissons Ratio (z) = 0.23889 0.23889
#
# Static dielectric constant tensor:
#      x y z
#    x 1.757730 0.000000 0.000000 
#    y 0.000000 1.757730 0.000000 
#    z 0.000000 0.000000 1.744150 
# 
# From -- ./inp_files/7345.got.cif
#   From: 2010.05.17/outbox.cif.g08.bks.cpg/sg179_4_cif.got.tgz:7345.got - 2010.05.20 11:37:33.
