data_PCOD9583342
_publ_section_title
;
Structure prediction by ZEFSAII (Michael W. Deem and Ramdas Pophale) SiO2 
 PCOD9583342
Probable space group: P 65 2 2
;
_chemical_formula_sum "Si O2"
_cell_formula_units_Z 48
_cell_length_a 11.104190
_cell_length_b 11.104190
_cell_length_c 23.026309
_cell_angle_alpha 90.000000
_cell_angle_beta 90.000000
_cell_angle_gamma 120.000000
_cell_volume 2458.831275
_symmetry_space_group_name_H-M "P 65 2 2"
_symmetry_group_IT_number 179
_symmetry_cell_setting 'hexagonal'
loop_
_space_group_symop_operation_xyz
x,y,z
x-y,x,5/6+z
-y,x-y,2/3+z
-x,-y,1/2+z
-x+y,-x,1/3+z
y,-x+y,1/6+z
x-y,-y,-z
-x,-x+y,1/3-z
y,x,2/3-z
-y,-x,1/6-z
-x+y,y,1/2-z
x,x-y,5/6-z
loop_
_atom_site_type_symbol
_atom_site_label
_atom_site_fract_x
_atom_site_fract_y
_atom_site_fract_z
Si Si1 0.845052 0.694816 0.414156
Si Si2 0.858877 0.734789 0.878186
Si Si3 0.417480 0.116371 0.873040
Si Si4 0.955815 0.348884 0.317769
O O1 0.719347 0.718688 0.239868
O O2 0.841096 0.629420 0.352265
O O3 0.848564 0.596894 0.465610
O O4 0.996391 0.832829 0.422001
O O5 0.816251 0.816251 0.833334
O O6 0.739559 0.656664 0.925391
O O7 0.899880 0.634747 0.842249
O O8 0.492007 0.246004 0.916667
O O9 0.513467 0.051428 0.857330
#
# Coordination Sequence:
#
# PCOD9583342 Si02
#       4
#    12  12  12  12
#     4  10  22  44  65  91 132 170 221 268 333 397
#     4  10  21  42  72  98 125 170 224 273 334 387
#     4  12  25  41  64  98 133 177 218 276 333 402
#     4  10  23  41  68  95 134 169 222 271 334 394
#
# _framework density 19.521470999999998
#
# number of rings (size 3 to 8) (size 9 to 14) (size 15 to 20)
#    1.500    0.000    2.500    2.250    0.000    8.000 
#    0.000    2.500    0.000    0.000    0.000    0.000 
#    0.000    0.000    0.000    0.000    0.000    0.000 
#
# Total GULP energy -267690.379922 kJ/mol
# GULP energy per Si atom -5576.882915 kJ/mol
# Density = 1.947704 g / cm^3
# Si number density = 19.521471 Si / 1000 Ang^3
#
#
#
# Elastic Constant Matrix: (Units=GPa)
#
#
# Indices 1 2 3 4 5 6 
#
# 1 47.6422 0.2213 33.0396 0.0000 0.0000 0.0000
# 2 0.2213 47.6422 33.0396 0.0000 0.0000 0.0000
# 3 33.0396 33.0396 132.0654 0.0000 0.0000 0.0000
# 4 0.0000 0.0000 0.0000 10.1196 0.0000 0.0000
# 5 0.0000 0.0000 0.0000 0.0000 10.1196 0.0000
# 6 0.0000 0.0000 0.0000 0.0000 0.0000 23.7104
#
#
#
# Elastic Compliance Matrix: (Units=1/GPa)
#
#
# Indices 1 2 3 4 5 6 
#
# 1 0.026502 0.005414 -0.007985 0.000000 0.000000 0.000000
# 2 0.005414 0.026502 -0.007985 0.000000 0.000000 0.000000
# 3 -0.007985 -0.007985 0.011567 0.000000 0.000000 0.000000
# 4 0.000000 0.000000 0.000000 0.098818 0.000000 0.000000
# 5 0.000000 0.000000 0.000000 0.000000 0.098818 0.000000
# 6 0.000000 0.000000 0.000000 0.000000 0.000000 0.042176
#
#
# Mechanical properties :
#
#
# Convention : Reuss Voigt Hill
#
# Bulk Modulus (GPa) = 23.00923 39.99454 31.50188
# Shear Modulus (GPa) = 14.70672 19.52654 17.11663
#
# Velocity S-wave (km/s) = 2.74772 3.16612 2.96431
# Velocity P-wave (km/s) = 4.67748 5.82217 5.28093
#
# Compressibility (1/GPa) = 0.04346083
#
# Stress axis : x y z
#
# Youngs Moduli (GPa) = 37.73306 37.73306 86.45178
#
# Poissons Ratio (x) = -0.20429 0.69029
# Poissons Ratio (y) = -0.20429 0.69029
# Poissons Ratio (z) = 0.30129 0.30129
#
# Static dielectric constant tensor:
#      x y z
#    x 1.673270 0.000000 0.000000 
#    y 0.000000 1.673270 0.000000 
#    z 0.000000 0.000000 1.682190 
# 
# From -- ./inp_files/7273.got.cif
#   From: 2010.05.17/outbox.cif.g08.bks.cpg/sg179_4_cif.got.tgz:7273.got - 2010.05.20 11:37:33.
