data_PCOD9583452
_publ_section_title
;
Structure prediction by ZEFSAII (Michael W. Deem and Ramdas Pophale) SiO2 
 PCOD9583452
Probable space group: P 65 2 2
;
_chemical_formula_sum "Si O2"
_cell_formula_units_Z 42
_cell_length_a 8.664892
_cell_length_b 8.664892
_cell_length_c 26.108139
_cell_angle_alpha 90.000000
_cell_angle_beta 90.000000
_cell_angle_gamma 120.000000
_cell_volume 1697.590186
_symmetry_space_group_name_H-M "P 65 2 2"
_symmetry_group_IT_number 179
_symmetry_cell_setting 'hexagonal'
loop_
_space_group_symop_operation_xyz
x,y,z
x-y,x,5/6+z
-y,x-y,2/3+z
-x,-y,1/2+z
-x+y,-x,1/3+z
y,-x+y,1/6+z
x-y,-y,-z
-x,-x+y,1/3-z
y,x,2/3-z
-y,-x,1/6-z
-x+y,y,1/2-z
x,x-y,5/6-z
loop_
_atom_site_type_symbol
_atom_site_label
_atom_site_fract_x
_atom_site_fract_y
_atom_site_fract_z
Si Si1 0.206063 0.206063 0.333334
Si Si2 0.172905 0.760876 0.928436
Si Si3 0.328326 0.105334 0.608640
Si Si4 0.884263 0.325612 0.537199
O O1 0.286859 0.326540 0.383783
O O2 0.020790 0.173327 0.308635
O O3 0.229539 0.614770 0.916667
O O4 0.957690 0.669521 0.929550
O O5 0.276408 0.930607 0.891536
O O6 0.202003 0.799904 0.988758
O O7 0.483030 0.097113 0.639668
O O8 0.749738 0.250263 0.583334
#
# Coordination Sequence:
#
# PCOD9583452 Si02
#       4
#     6  12  12  12
#     4  10  24  42  76 106 140 190 246 300 376 436
#     4  12  27  48  75 110 152 197 253 310 380 448
#     4  11  25  46  74 104 149 191 247 307 371 447
#     4  12  28  46  77 110 152 200 253 312 381 458
#
# _framework density 24.740953999999999
#
# number of rings (size 3 to 8) (size 9 to 14) (size 15 to 20)
#    0.000    0.571    0.000    6.857   16.000    0.000 
#    0.000    0.000    0.000    0.000    0.000    0.000 
#    0.000    0.000    0.000    0.000    0.000    0.000 
#
# Total GULP energy -234671.410896 kJ/mol
# GULP energy per Si atom -5587.414545 kJ/mol
# Density = 2.468464 g / cm^3
# Si number density = 24.740954 Si / 1000 Ang^3
#
#
#
# Elastic Constant Matrix: (Units=GPa)
#
#
# Indices 1 2 3 4 5 6 
#
# 1 82.2936 26.3916 17.4472 0.0000 0.0000 0.0000
# 2 26.3916 82.2936 17.4472 0.0000 0.0000 0.0000
# 3 17.4472 17.4472 143.4801 0.0000 0.0000 0.0000
# 4 0.0000 0.0000 0.0000 39.6195 0.0000 0.0000
# 5 0.0000 0.0000 0.0000 0.0000 39.6195 0.0000
# 6 0.0000 0.0000 0.0000 0.0000 0.0000 27.9510
#
#
#
# Elastic Compliance Matrix: (Units=1/GPa)
#
#
# Indices 1 2 3 4 5 6 
#
# 1 0.013732 -0.004157 -0.001164 0.000000 0.000000 0.000000
# 2 -0.004157 0.013732 -0.001164 0.000000 0.000000 0.000000
# 3 -0.001164 -0.001164 0.007253 0.000000 0.000000 0.000000
# 4 0.000000 0.000000 0.000000 0.025240 0.000000 0.000000
# 5 0.000000 0.000000 0.000000 0.000000 0.025240 0.000000
# 6 0.000000 0.000000 0.000000 0.000000 0.000000 0.035777
#
#
# Mechanical properties :
#
#
# Convention : Reuss Voigt Hill
#
# Bulk Modulus (GPa) = 45.98757 47.84881 46.91819
# Shear Modulus (GPa) = 35.41270 37.89007 36.65138
#
# Velocity S-wave (km/s) = 3.78741 3.91765 3.85308
# Velocity P-wave (km/s) = 6.14442 6.31236 6.22896
#
# Compressibility (1/GPa) = 0.02174500
#
# Stress axis : x y z
#
# Youngs Moduli (GPa) = 72.82489 72.82489 137.87848
#
# Poissons Ratio (x) = 0.30272 0.16053
# Poissons Ratio (y) = 0.30272 0.16053
# Poissons Ratio (z) = 0.08479 0.08479
#
# Static dielectric constant tensor:
#      x y z
#    x 2.020950 0.000000 0.000000 
#    y 0.000000 2.020950 0.000000 
#    z 0.000000 0.000000 2.017000 
# 
# From -- ./inp_files/9314.got.cif
#   From: 2010.05.17/outbox.cif.g08.bks.cpg/sg179_5_cif.got.tgz:9314.got - 2010.05.20 11:37:33.
