data_PCOD9583953
_publ_section_title
;
Structure prediction by ZEFSAII (Michael W. Deem and Ramdas Pophale) SiO2 
 PCOD9583953
Probable space group: P 62 2 2
;
_chemical_formula_sum "Si O2"
_cell_formula_units_Z 84
_cell_length_a 14.720511
_cell_length_b 14.720511
_cell_length_c 22.325594
_cell_angle_alpha 90.000000
_cell_angle_beta 90.000000
_cell_angle_gamma 120.000000
_cell_volume 4189.666234
_symmetry_space_group_name_H-M "P 62 2 2"
_symmetry_group_IT_number 180
_symmetry_cell_setting 'hexagonal'
loop_
_space_group_symop_operation_xyz
x,y,z
x-y,x,1/3+z
-y,x-y,2/3+z
-x,-y,z
-x+y,-x,1/3+z
y,-x+y,2/3+z
x-y,-y,-z
-x,-x+y,1/3-z
y,x,2/3-z
-y,-x,2/3-z
-x+y,y,-z
x,x-y,1/3-z
loop_
_atom_site_type_symbol
_atom_site_label
_atom_site_fract_x
_atom_site_fract_y
_atom_site_fract_z
Si Si1 0.000000 0.739362 0.666667
Si Si2 0.987585 0.385254 0.555805
Si Si3 0.252771 0.792418 0.551279
Si Si4 0.214352 0.633829 0.288647
Si Si5 0.500000 0.000000 0.692461
Si Si6 0.867753 0.644539 0.097250
Si Si7 0.291230 0.211332 0.977507
Si Si8 0.005612 0.685503 0.900966
O O1 0.023423 0.679870 0.720625
O O2 0.913098 0.763596 0.694053
O O3 0.862286 0.308437 0.543705
O O4 0.043454 0.368202 0.497845
O O5 0.000000 0.500000 0.562347
O O6 0.344608 0.767178 0.565284
O O7 0.269347 0.873313 0.497531
O O8 0.246510 0.845753 0.612361
O O9 0.313554 0.686447 0.333334
O O10 0.104822 0.549923 0.319449
O O11 0.194057 0.727463 0.269637
O O12 0.578717 0.983431 0.733631
O O13 0.792379 0.693076 0.103691
O O14 0.969651 0.723056 0.058022
O O15 0.304415 0.231446 0.048387
#
# Coordination Sequence:
#
# PCOD9583953 Si02
#       8
#     6  12  12  12   6  12  12  12
#     4  10  25  42  61  90 122 162 216 268 326 394
#     4  10  22  41  63  85 123 167 212 261 317 389
#     4  10  23  36  58  92 128 168 212 259 325 383
#     4  12  21  35  59  90 131 170 211 266 315 385
#     4  12  20  36  57  91 126 160 212 256 316 392
#     4  11  21  38  60  91 127 167 209 261 328 389
#     4  11  21  40  62  88 123 164 208 269 321 393
#     4  11  21  38  64  89 120 163 210 259 324 383
#
# _framework density 20.049330999999999
#
# number of rings (size 3 to 8) (size 9 to 14) (size 15 to 20)
#    0.000    1.143    5.000    1.500    0.000    2.857 
#    0.000    3.571    3.143    0.000    0.000   12.000 
#    0.000    0.000    0.000    0.000    0.000    0.000 
#
# Total GULP energy -467697.610740 kJ/mol
# GULP energy per Si atom -5567.828699 kJ/mol
# Density = 2.000370 g / cm^3
# Si number density = 20.049331 Si / 1000 Ang^3
#
#
#
# Elastic Constant Matrix: (Units=GPa)
#
#
# Indices 1 2 3 4 5 6 
#
# 1 34.7649 22.9143 9.7616 0.0000 0.0000 0.0000
# 2 22.9143 34.7649 9.7616 0.0000 0.0000 0.0000
# 3 9.7616 9.7616 115.3967 0.0000 0.0000 0.0000
# 4 0.0000 0.0000 0.0000 -67.9346 0.0000 0.0000
# 5 0.0000 0.0000 0.0000 0.0000 -67.9346 0.0000
# 6 0.0000 0.0000 0.0000 0.0000 0.0000 5.9253
#
#
#
# Elastic Compliance Matrix: (Units=1/GPa)
#
#
# Indices 1 2 3 4 5 6 
#
# 1 0.051116 -0.033268 -0.001510 0.000000 0.000000 0.000000
# 2 -0.033268 0.051116 -0.001510 0.000000 0.000000 0.000000
# 3 -0.001510 -0.001510 0.008921 0.000000 0.000000 0.000000
# 4 0.000000 0.000000 0.000000 -0.014720 0.000000 0.000000
# 5 0.000000 0.000000 0.000000 0.000000 -0.014720 0.000000
# 6 0.000000 0.000000 0.000000 0.000000 0.000000 0.168767
#
#
# Mechanical properties :
#
#
# Convention : Reuss Voigt Hill
#
# Bulk Modulus (GPa) = 25.92114 29.97794 27.94954
# Shear Modulus (GPa) = 14.88475 -16.48949 -0.80237
#
# Velocity S-wave (km/s) = 2.72767 -2.87094 -0.63330
# Velocity P-wave (km/s) = 4.78299 1.99870 3.66550
#
# Compressibility (1/GPa) = 0.03857854
#
# Stress axis : x y z
#
# Youngs Moduli (GPa) = 19.56337 19.56337 112.09263
#
# Poissons Ratio (x) = 0.65083 0.16924
# Poissons Ratio (y) = 0.65083 0.16924
# Poissons Ratio (z) = 0.02954 0.02954
#
# Static dielectric constant tensor:
#      x y z
#    x 3.480560 0.000000 0.000000 
#    y 0.000000 3.480560 0.000000 
#    z 0.000000 0.000000 1.790170 
# 
# From -- ./inp_files/10300.got.cif
#   From: 2010.05.17/outbox.cif.g08.bks.cpg/sg180_6_cif.got.tgz:10300.got - 2010.05.20 11:43:55.
