data_PCOD9583325
_publ_section_title
;
Structure prediction by ZEFSAII (Michael W. Deem and Ramdas Pophale) SiO2 
 PCOD9583325
Probable space group: P 65 2 2
;
_chemical_formula_sum "Si O2"
_cell_formula_units_Z 54
_cell_length_a 22.899828
_cell_length_b 22.899828
_cell_length_c 6.156212
_cell_angle_alpha 90.000000
_cell_angle_beta 90.000000
_cell_angle_gamma 120.000000
_cell_volume 2795.816345
_symmetry_space_group_name_H-M "P 65 2 2"
_symmetry_group_IT_number 179
_symmetry_cell_setting 'hexagonal'
loop_
_space_group_symop_operation_xyz
x,y,z
x-y,x,5/6+z
-y,x-y,2/3+z
-x,-y,1/2+z
-x+y,-x,1/3+z
y,-x+y,1/6+z
x-y,-y,-z
-x,-x+y,1/3-z
y,x,2/3-z
-y,-x,1/6-z
-x+y,y,1/2-z
x,x-y,5/6-z
loop_
_atom_site_type_symbol
_atom_site_label
_atom_site_fract_x
_atom_site_fract_y
_atom_site_fract_z
Si Si1 0.275490 0.724511 0.083334
Si Si2 0.638479 0.933252 0.150182
Si Si3 0.834033 0.668066 0.750000
Si Si4 0.269188 0.196991 0.812710
Si Si5 0.393956 0.606045 0.083334
Si Si6 0.364051 0.853172 0.362305
O O1 0.257399 0.663189 0.245197
O O2 0.302663 0.791048 0.231855
O O3 0.675752 0.936636 0.377460
O O4 0.562459 0.917873 0.163822
O O5 0.628656 0.862997 0.050827
O O6 0.681834 0.000000 0.000000
O O7 0.811641 0.709814 0.593928
O O8 0.203895 0.203895 0.833334
O O9 0.259094 0.129547 0.916667
O O10 0.369298 0.537808 0.224215
O O11 0.432029 0.864058 0.250000
#
# Coordination Sequence:
#
# PCOD9583325 Si02
#       6
#     6  12   6  12   6  12
#     4  10  22  37  62  84 116 150 205 260 321 368
#     4  11  23  41  63  89 122 162 204 258 310 366
#     4  10  22  36  66  92 124 156 206 252 312 364
#     4  10  21  39  62  97 127 160 204 251 307 364
#     4  10  22  39  56  86 116 152 203 252 321 378
#     4  10  24  40  56  85 118 160 204 256 319 377
#
# _framework density 19.314572999999999
#
# number of rings (size 3 to 8) (size 9 to 14) (size 15 to 20)
#    0.000    1.778    2.222    0.667    7.778   10.667 
#    2.000    0.000    0.000    0.000    2.889    0.000 
#    0.000    0.000    0.000    0.000    0.000    0.000 
#
# Total GULP energy -300779.962341 kJ/mol
# GULP energy per Si atom -5569.999303 kJ/mol
# Density = 1.927061 g / cm^3
# Si number density = 19.314573 Si / 1000 Ang^3
#
#
#
# Elastic Constant Matrix: (Units=GPa)
#
#
# Indices 1 2 3 4 5 6 
#
# 1 149.2973 -1.6941 39.1527 0.0000 0.0000 0.0000
# 2 -1.6941 149.2973 39.1527 0.0000 0.0000 0.0000
# 3 39.1527 39.1527 106.4659 0.0000 0.0000 0.0000
# 4 0.0000 0.0000 0.0000 9.6601 0.0000 0.0000
# 5 0.0000 0.0000 0.0000 0.0000 9.6601 0.0000
# 6 0.0000 0.0000 0.0000 0.0000 0.0000 75.4957
#
#
#
# Elastic Compliance Matrix: (Units=1/GPa)
#
#
# Indices 1 2 3 4 5 6 
#
# 1 0.007520 0.000897 -0.003095 0.000000 0.000000 0.000000
# 2 0.000897 0.007520 -0.003095 0.000000 0.000000 0.000000
# 3 -0.003095 -0.003095 0.011669 0.000000 0.000000 0.000000
# 4 0.000000 0.000000 0.000000 0.103519 0.000000 0.000000
# 5 0.000000 0.000000 0.000000 0.000000 0.103519 0.000000
# 6 0.000000 0.000000 0.000000 0.000000 0.000000 0.013246
#
#
# Mechanical properties :
#
#
# Convention : Reuss Voigt Hill
#
# Bulk Modulus (GPa) = 62.02715 62.03144 62.02930
# Shear Modulus (GPa) = 19.01473 40.85978 29.93726
#
# Velocity S-wave (km/s) = 3.14104 4.60444 3.94125
# Velocity P-wave (km/s) = 6.73340 7.77521 7.27298
#
# Compressibility (1/GPa) = 0.01612197
#
# Stress axis : x y z
#
# Youngs Moduli (GPa) = 132.97921 132.97921 85.69493
#
# Poissons Ratio (x) = -0.11929 0.26526
# Poissons Ratio (y) = -0.11929 0.26526
# Poissons Ratio (z) = 0.41162 0.41162
#
# Static dielectric constant tensor:
#      x y z
#    x 1.678980 0.000000 0.000000 
#    y 0.000000 1.678980 0.000000 
#    z 0.000000 0.000000 3.053140 
# 
# From -- ./inp_files/1251.got.cif
#   From: 2010.05.17/outbox.cif.g08.bks.cpg/sg179_1_cif.got.tgz:1251.got - 2010.05.20 11:37:33.
