data_PCOD9583823
_publ_section_title
;
Structure prediction by ZEFSAII (Michael W. Deem and Ramdas Pophale) SiO2 
 PCOD9583823
Probable space group: P 62 2 2
;
_chemical_formula_sum "Si O2"
_cell_formula_units_Z 39
_cell_length_a 9.336831
_cell_length_b 9.336831
_cell_length_c 25.876192
_cell_angle_alpha 90.000000
_cell_angle_beta 90.000000
_cell_angle_gamma 120.000000
_cell_volume 1953.574567
_symmetry_space_group_name_H-M "P 62 2 2"
_symmetry_group_IT_number 180
_symmetry_cell_setting 'hexagonal'
loop_
_space_group_symop_operation_xyz
x,y,z
x-y,x,1/3+z
-y,x-y,2/3+z
-x,-y,z
-x+y,-x,1/3+z
y,-x+y,2/3+z
x-y,-y,-z
-x,-x+y,1/3-z
y,x,2/3-z
-y,-x,2/3-z
-x+y,y,-z
x,x-y,1/3-z
loop_
_atom_site_type_symbol
_atom_site_label
_atom_site_fract_x
_atom_site_fract_y
_atom_site_fract_z
Si Si1 0.536031 0.761993 0.920186
Si Si2 0.059591 0.259504 0.842679
Si Si3 0.590638 0.756063 0.726585
Si Si4 0.500000 0.500000 0.333334
O O1 0.594598 0.857482 0.865851
O O2 0.659192 0.692581 0.934135
O O3 0.359566 0.595355 0.919557
O O4 0.538858 0.884485 0.963595
O O5 0.157813 0.157813 0.833334
O O6 0.090439 0.322531 0.901273
O O7 0.868424 0.131577 0.833334
O O8 0.586678 0.793339 0.666667
#
# Coordination Sequence:
#
# PCOD9583823 Si02
#       4
#    12  12  12   3
#     4  10  22  39  59  85 128 167 200 259 312 380
#     4   9  19  37  61  92 121 153 206 260 309 360
#     4  10  20  39  65  89 115 165 215 251 309 384
#     4  12  24  40  54  92 132 166 204 258 326 368
#
# _framework density 19.963405000000002
#
# number of rings (size 3 to 8) (size 9 to 14) (size 15 to 20)
#    0.000    2.154    1.538    0.923    4.308    3.692 
#    0.000    6.154    0.000    0.000    0.000    0.000 
#    0.000    0.000    0.000    0.000    0.000    0.000 
#
# Total GULP energy -217744.883491 kJ/mol
# GULP energy per Si atom -5583.202141 kJ/mol
# Density = 1.991797 g / cm^3
# Si number density = 19.963405 Si / 1000 Ang^3
#
#
#
# Elastic Constant Matrix: (Units=GPa)
#
#
# Indices 1 2 3 4 5 6 
#
# 1 69.9704 43.1731 55.2597 0.0000 0.0000 0.0000
# 2 43.1731 69.9704 55.2597 0.0000 0.0000 0.0000
# 3 55.2597 55.2597 175.0174 0.0000 0.0000 0.0000
# 4 0.0000 0.0000 0.0000 32.8265 0.0000 0.0000
# 5 0.0000 0.0000 0.0000 0.0000 32.8265 0.0000
# 6 0.0000 0.0000 0.0000 0.0000 0.0000 13.3986
#
#
#
# Elastic Compliance Matrix: (Units=1/GPa)
#
#
# Indices 1 2 3 4 5 6 
#
# 1 0.025049 -0.012269 -0.004035 0.000000 0.000000 0.000000
# 2 -0.012269 0.025049 -0.004035 0.000000 0.000000 0.000000
# 3 -0.004035 -0.004035 0.008262 0.000000 0.000000 0.000000
# 4 0.000000 0.000000 0.000000 0.030463 0.000000 0.000000
# 5 0.000000 0.000000 0.000000 0.000000 0.030463 0.000000
# 6 0.000000 0.000000 0.000000 0.000000 0.000000 0.074634
#
#
# Mechanical properties :
#
#
# Convention : Reuss Voigt Hill
#
# Bulk Modulus (GPa) = 56.55753 69.14923 62.85338
# Shear Modulus (GPa) = 20.79079 26.56138 23.67608
#
# Velocity S-wave (km/s) = 3.23064 3.65156 3.44753
# Velocity P-wave (km/s) = 6.50447 7.24512 6.88476
#
# Compressibility (1/GPa) = 0.01768111
#
# Stress axis : x y z
#
# Youngs Moduli (GPa) = 39.92249 39.92249 121.03937
#
# Poissons Ratio (x) = 0.48980 0.48840
# Poissons Ratio (y) = 0.48980 0.48840
# Poissons Ratio (z) = 0.16109 0.16109
#
# Static dielectric constant tensor:
#      x y z
#    x 1.714160 0.000000 0.000000 
#    y 0.000000 1.714160 0.000000 
#    z 0.000000 0.000000 1.667640 
# 
# From -- ./inp_files/11806.got.cif
#   From: 2010.05.17/outbox.cif.g08.bks.cpg/sg180_6_cif.got.tgz:11806.got - 2010.05.20 11:43:55.
