data_PCOD9583095
_publ_section_title
;
Structure prediction by ZEFSAII (Michael W. Deem and Ramdas Pophale) SiO2 
 PCOD9583095
Probable space group: P 65 2 2
;
_chemical_formula_sum "Si O2"
_cell_formula_units_Z 84
_cell_length_a 13.920296
_cell_length_b 13.920296
_cell_length_c 26.865801
_cell_angle_alpha 90.000000
_cell_angle_beta 90.000000
_cell_angle_gamma 120.000000
_cell_volume 4508.451121
_symmetry_space_group_name_H-M "P 65 2 2"
_symmetry_group_IT_number 179
_symmetry_cell_setting 'hexagonal'
loop_
_space_group_symop_operation_xyz
x,y,z
x-y,x,5/6+z
-y,x-y,2/3+z
-x,-y,1/2+z
-x+y,-x,1/3+z
y,-x+y,1/6+z
x-y,-y,-z
-x,-x+y,1/3-z
y,x,2/3-z
-y,-x,1/6-z
-x+y,y,1/2-z
x,x-y,5/6-z
loop_
_atom_site_type_symbol
_atom_site_label
_atom_site_fract_x
_atom_site_fract_y
_atom_site_fract_z
Si Si1 0.469195 0.492676 0.486262
Si Si2 0.204094 0.542121 0.366130
Si Si3 0.597217 0.124303 0.943565
Si Si4 0.784891 0.110387 0.415400
Si Si5 0.230465 0.769536 0.083334
Si Si6 0.448701 0.750478 0.204913
Si Si7 0.392377 0.000000 0.000000
Si Si8 0.935938 0.258463 0.501985
O O1 0.471549 0.390507 0.511969
O O2 0.442903 0.464365 0.427236
O O3 0.368725 0.505398 0.507387
O O4 0.583723 0.608836 0.500206
O O5 0.196339 0.598170 0.416667
O O6 0.276103 0.482813 0.377190
O O7 0.270359 0.642711 0.327664
O O8 0.546745 0.187240 0.912595
O O9 0.518242 0.097077 0.990992
O O10 0.747900 0.193329 0.392804
O O11 0.686814 0.028098 0.452792
O O12 0.893553 0.188150 0.450296
O O13 0.777144 0.030884 0.369093
O O14 0.175688 0.792831 0.035728
O O15 0.378415 0.756830 0.250000
#
# Coordination Sequence:
#
# PCOD9583095 Si02
#       8
#    12  12  12  12   6  12   6  12
#     4  11  22  36  53  81 118 162 212 254 299 374
#     4  12  22  36  58  79 115 172 205 247 306 370
#     4  11  20  35  53  82 116 161 206 246 309 368
#     4  12  22  34  56  82 123 166 215 255 318 375
#     4  10  16  32  54  74 114 158 198 240 312 360
#     4  12  22  36  55  85 119 165 212 252 305 368
#     4  12  20  34  58  84 120 164 198 260 314 392
#     4  11  20  35  52  82 117 167 212 254 308 374
#
# _framework density 18.631675999999999
#
# number of rings (size 3 to 8) (size 9 to 14) (size 15 to 20)
#    0.000    0.571    9.286    2.143    0.000    0.000 
#    0.000    0.000    0.000    0.000    0.000    0.000 
#    0.000    5.714    2.286    0.000    0.000    0.000 
#
# Total GULP energy -467696.790850 kJ/mol
# GULP energy per Si atom -5567.818939 kJ/mol
# Density = 1.858927 g / cm^3
# Si number density = 18.631676 Si / 1000 Ang^3
#
#
#
# Elastic Constant Matrix: (Units=GPa)
#
#
# Indices 1 2 3 4 5 6 
#
# 1 60.6619 18.1732 20.6461 0.0000 0.0000 0.0000
# 2 18.1732 60.6619 20.6461 0.0000 0.0000 0.0000
# 3 20.6461 20.6461 64.6482 0.0000 0.0000 0.0000
# 4 0.0000 0.0000 0.0000 12.0308 0.0000 0.0000
# 5 0.0000 0.0000 0.0000 0.0000 12.0308 0.0000
# 6 0.0000 0.0000 0.0000 0.0000 0.0000 21.2444
#
#
#
# Elastic Compliance Matrix: (Units=1/GPa)
#
#
# Indices 1 2 3 4 5 6 
#
# 1 0.019384 -0.004151 -0.004865 0.000000 0.000000 0.000000
# 2 -0.004151 0.019384 -0.004865 0.000000 0.000000 0.000000
# 3 -0.004865 -0.004865 0.018576 0.000000 0.000000 0.000000
# 4 0.000000 0.000000 0.000000 0.083120 0.000000 0.000000
# 5 0.000000 0.000000 0.000000 0.000000 0.083120 0.000000
# 6 0.000000 0.000000 0.000000 0.000000 0.000000 0.047071
#
#
# Mechanical properties :
#
#
# Convention : Reuss Voigt Hill
#
# Bulk Modulus (GPa) = 33.80423 33.87808 33.84115
# Shear Modulus (GPa) = 16.21913 17.49498 16.85705
#
# Velocity S-wave (km/s) = 2.95365 3.06762 3.01117
# Velocity P-wave (km/s) = 5.46030 5.54703 5.50384
#
# Compressibility (1/GPa) = 0.02958210
#
# Stress axis : x y z
#
# Youngs Moduli (GPa) = 51.58844 51.58844 53.83423
#
# Poissons Ratio (x) = 0.21417 0.26189
# Poissons Ratio (y) = 0.21417 0.26189
# Poissons Ratio (z) = 0.25096 0.25096
#
# Static dielectric constant tensor:
#      x y z
#    x 1.712520 0.000000 0.000000 
#    y 0.000000 1.712520 0.000000 
#    z 0.000000 0.000000 1.822760 
# 
# From -- ./inp_files/9656.got.cif
#   From: 2010.05.17/outbox.cif.g08.bks.cpg/sg179_5_cif.got.tgz:9656.got - 2010.05.20 11:37:33.
