data_PCOD9583570
_publ_section_title
;
Structure prediction by ZEFSAII (Michael W. Deem and Ramdas Pophale) SiO2 
 PCOD9583570
Probable space group: P 65 2 2
;
_chemical_formula_sum "Si O2"
_cell_formula_units_Z 48
_cell_length_a 16.676828
_cell_length_b 16.676828
_cell_length_c 8.901832
_cell_angle_alpha 90.000000
_cell_angle_beta 90.000000
_cell_angle_gamma 120.000000
_cell_volume 2144.059951
_symmetry_space_group_name_H-M "P 65 2 2"
_symmetry_group_IT_number 179
_symmetry_cell_setting 'hexagonal'
loop_
_space_group_symop_operation_xyz
x,y,z
x-y,x,5/6+z
-y,x-y,2/3+z
-x,-y,1/2+z
-x+y,-x,1/3+z
y,-x+y,1/6+z
x-y,-y,-z
-x,-x+y,1/3-z
y,x,2/3-z
-y,-x,1/6-z
-x+y,y,1/2-z
x,x-y,5/6-z
loop_
_atom_site_type_symbol
_atom_site_label
_atom_site_fract_x
_atom_site_fract_y
_atom_site_fract_z
Si Si1 0.685498 0.481629 0.000622
Si Si2 0.637056 0.637056 0.333334
Si Si3 0.152774 0.594792 0.260467
Si Si4 0.000000 0.166541 0.166667
Si Si5 0.091313 0.783543 0.943708
O O1 0.649036 0.473626 0.831378
O O2 0.589662 0.410339 0.083334
O O3 0.753206 0.441132 0.031505
O O4 0.742538 0.586732 0.055388
O O5 0.624466 0.535961 0.338893
O O6 0.696428 0.692160 0.189595
O O7 0.102442 0.551221 0.416667
O O8 0.945366 0.187726 0.298327
O O9 0.075619 0.151237 0.250000
O O10 0.144006 0.855995 0.083334
#
# Coordination Sequence:
#
# PCOD9583570 Si02
#       5
#    12   6  12   6  12
#     4  12  23  47  71 108 152 213 267 317 392 456
#     4  12  26  45  69 108 158 206 254 326 394 445
#     4  12  27  41  70 105 151 210 268 327 383 460
#     4  12  32  55  91 124 150 202 258 330 424 515
#     4  12  26  52  81 114 159 203 257 325 407 481
#
# _framework density 22.387435
#
# number of rings (size 3 to 8) (size 9 to 14) (size 15 to 20)
#    0.000    0.000    5.000    4.500    7.000    1.000 
#    0.000    0.000    0.000    0.000    0.000    0.000 
#    0.000    0.000    0.000    0.000    0.000    0.000 
#
# Total GULP energy -268334.289164 kJ/mol
# GULP energy per Si atom -5590.297691 kJ/mol
# Density = 2.233648 g / cm^3
# Si number density = 22.387435 Si / 1000 Ang^3
#
#
#
# Elastic Constant Matrix: (Units=GPa)
#
#
# Indices 1 2 3 4 5 6 
#
# 1 115.0231 53.0922 66.3946 0.0000 0.0000 0.0000
# 2 53.0922 115.0231 66.3946 0.0000 0.0000 0.0000
# 3 66.3946 66.3946 155.5730 0.0000 0.0000 0.0000
# 4 0.0000 0.0000 0.0000 43.0006 0.0000 0.0000
# 5 0.0000 0.0000 0.0000 0.0000 43.0006 0.0000
# 6 0.0000 0.0000 0.0000 0.0000 0.0000 30.9655
#
#
#
# Elastic Compliance Matrix: (Units=1/GPa)
#
#
# Indices 1 2 3 4 5 6 
#
# 1 0.012560 -0.003587 -0.003829 0.000000 0.000000 0.000000
# 2 -0.003587 0.012560 -0.003829 0.000000 0.000000 0.000000
# 3 -0.003829 -0.003829 0.009697 0.000000 0.000000 0.000000
# 4 0.000000 0.000000 0.000000 0.023255 0.000000 0.000000
# 5 0.000000 0.000000 0.000000 0.000000 0.023255 0.000000
# 6 0.000000 0.000000 0.000000 0.000000 0.000000 0.032294
#
#
# Mechanical properties :
#
#
# Convention : Reuss Voigt Hill
#
# Bulk Modulus (GPa) = 81.13759 84.15356 82.64558
# Shear Modulus (GPa) = 35.65779 36.70918 36.18349
#
# Velocity S-wave (km/s) = 3.99527 4.05374 4.02461
# Velocity P-wave (km/s) = 7.58973 7.71892 7.65460
#
# Compressibility (1/GPa) = 0.01232474
#
# Stress axis : x y z
#
# Youngs Moduli (GPa) = 79.61746 79.61746 103.12983
#
# Poissons Ratio (x) = 0.28558 0.39494
# Poissons Ratio (y) = 0.28558 0.39494
# Poissons Ratio (z) = 0.30489 0.30489
#
# Static dielectric constant tensor:
#      x y z
#    x 1.817790 0.000000 0.000000 
#    y 0.000000 1.817790 0.000000 
#    z 0.000000 0.000000 2.002580 
# 
# From -- ./inp_files/2730.got.cif
#   From: 2010.05.17/outbox.cif.g08.bks.cpg/sg179_2_cif.got.tgz:2730.got - 2010.05.20 11:37:33.
