data_PCOD9583122
_publ_section_title
;
Structure prediction by ZEFSAII (Michael W. Deem and Ramdas Pophale) SiO2 
 PCOD9583122
Probable space group: P 65 2 2
;
_chemical_formula_sum "Si O2"
_cell_formula_units_Z 96
_cell_length_a 21.148420
_cell_length_b 21.148420
_cell_length_c 18.208283
_cell_angle_alpha 90.000000
_cell_angle_beta 90.000000
_cell_angle_gamma 120.000000
_cell_volume 7052.701124
_symmetry_space_group_name_H-M "P 65 2 2"
_symmetry_group_IT_number 179
_symmetry_cell_setting 'hexagonal'
loop_
_space_group_symop_operation_xyz
x,y,z
x-y,x,5/6+z
-y,x-y,2/3+z
-x,-y,1/2+z
-x+y,-x,1/3+z
y,-x+y,1/6+z
x-y,-y,-z
-x,-x+y,1/3-z
y,x,2/3-z
-y,-x,1/6-z
-x+y,y,1/2-z
x,x-y,5/6-z
loop_
_atom_site_type_symbol
_atom_site_label
_atom_site_fract_x
_atom_site_fract_y
_atom_site_fract_z
Si Si1 0.548775 0.329310 0.862248
Si Si2 0.905030 0.599836 0.613242
Si Si3 0.252983 0.431948 0.099707
Si Si4 0.469512 0.535532 0.392829
Si Si5 0.689252 0.407617 0.663836
Si Si6 0.473742 0.809423 0.635118
Si Si7 0.518253 0.465915 0.496786
Si Si8 0.059172 0.375828 0.282888
O O1 0.523077 0.261539 0.916667
O O2 0.520817 0.385591 0.880430
O O3 0.637403 0.376031 0.868195
O O4 0.526752 0.304094 0.777859
O O5 0.830931 0.593684 0.586651
O O6 0.907633 0.524573 0.607715
O O7 0.908160 0.614649 0.701015
O O8 0.974838 0.659779 0.566948
O O9 0.287592 0.510389 0.140965
O O10 0.265028 0.376640 0.151856
O O11 0.292616 0.456623 0.020880
O O12 0.507298 0.507298 0.333334
O O13 0.504580 0.529842 0.469236
O O14 0.705840 0.411680 0.750000
O O15 0.601761 0.353139 0.657623
O O16 0.466391 0.880671 0.623765
O O17 0.531386 0.468615 0.583334
O O18 0.447369 0.392143 0.472090
#
# Coordination Sequence:
#
# PCOD9583122 Si02
#       8
#    12  12  12  12  12  12  12  12
#     4  11  22  36  45  59  84 116 151 193 241 292
#     4  10  19  30  44  67  90 109 150 185 222 280
#     4  12  19  28  47  66  85 115 145 190 234 267
#     4  11  19  33  50  60  84 117 146 188 241 280
#     4  10  19  28  42  60  85 113 143 179 229 287
#     4  11  20  31  45  63  86 112 151 186 233 296
#     4  11  18  31  47  66  82 107 148 190 230 288
#     4  10  18  30  45  63  87 115 141 185 228 272
#
# _framework density 13.611806
#
# number of rings (size 3 to 8) (size 9 to 14) (size 15 to 20)
#    0.000    1.250    7.500    2.250    0.000    0.000 
#    4.500    0.000    0.000    0.000    0.000    0.000 
#    0.000    0.000    0.000    0.000    0.000    0.000 
#
# Total GULP energy -534668.648125 kJ/mol
# GULP energy per Si atom -5569.465085 kJ/mol
# Density = 1.358083 g / cm^3
# Si number density = 13.611806 Si / 1000 Ang^3
#
#
#
# Elastic Constant Matrix: (Units=GPa)
#
#
# Indices 1 2 3 4 5 6 
#
# 1 48.2631 24.0767 18.9302 0.0000 0.0000 0.0000
# 2 24.0767 48.2631 18.9302 0.0000 0.0000 0.0000
# 3 18.9302 18.9302 60.7326 0.0000 0.0000 0.0000
# 4 0.0000 0.0000 0.0000 17.6111 0.0000 0.0000
# 5 0.0000 0.0000 0.0000 0.0000 17.6111 0.0000
# 6 0.0000 0.0000 0.0000 0.0000 0.0000 12.0932
#
#
#
# Elastic Compliance Matrix: (Units=1/GPa)
#
#
# Indices 1 2 3 4 5 6 
#
# 1 0.028932 -0.012414 -0.005149 0.000000 0.000000 0.000000
# 2 -0.012414 0.028932 -0.005149 0.000000 0.000000 0.000000
# 3 -0.005149 -0.005149 0.019675 0.000000 0.000000 0.000000
# 4 0.000000 0.000000 0.000000 0.056782 0.000000 0.000000
# 5 0.000000 0.000000 0.000000 0.000000 0.056782 0.000000
# 6 0.000000 0.000000 0.000000 0.000000 0.000000 0.082691
#
#
# Mechanical properties :
#
#
# Convention : Reuss Voigt Hill
#
# Bulk Modulus (GPa) = 31.13610 31.23702 31.18656
# Shear Modulus (GPa) = 15.15507 15.81786 15.48646
#
# Velocity S-wave (km/s) = 3.34035 3.41261 3.37667
# Velocity P-wave (km/s) = 6.14827 6.20695 6.17768
#
# Compressibility (1/GPa) = 0.03211706
#
# Stress axis : x y z
#
# Youngs Moduli (GPa) = 34.56392 34.56392 50.82508
#
# Poissons Ratio (x) = 0.42906 0.26169
# Poissons Ratio (y) = 0.42906 0.26169
# Poissons Ratio (z) = 0.17796 0.17796
#
# Static dielectric constant tensor:
#      x y z
#    x 1.452330 0.000000 0.000000 
#    y 0.000000 1.452330 0.000000 
#    z 0.000000 0.000000 1.525550 
# 
# From -- ./inp_files/7056.got.cif
#   From: 2010.05.17/outbox.cif.g08.bks.cpg/sg179_4_cif.got.tgz:7056.got - 2010.05.20 11:37:33.
