data_PCOD9583828
_publ_section_title
;
Structure prediction by ZEFSAII (Michael W. Deem and Ramdas Pophale) SiO2 
 PCOD9583828
Probable space group: P 62 2 2
;
_chemical_formula_sum "Si O2"
_cell_formula_units_Z 45
_cell_length_a 11.175495
_cell_length_b 11.175495
_cell_length_c 18.881255
_cell_angle_alpha 90.000000
_cell_angle_beta 90.000000
_cell_angle_gamma 120.000000
_cell_volume 2042.184739
_symmetry_space_group_name_H-M "P 62 2 2"
_symmetry_group_IT_number 180
_symmetry_cell_setting 'hexagonal'
loop_
_space_group_symop_operation_xyz
x,y,z
x-y,x,1/3+z
-y,x-y,2/3+z
-x,-y,z
-x+y,-x,1/3+z
y,-x+y,2/3+z
x-y,-y,-z
-x,-x+y,1/3-z
y,x,2/3-z
-y,-x,2/3-z
-x+y,y,-z
x,x-y,1/3-z
loop_
_atom_site_type_symbol
_atom_site_label
_atom_site_fract_x
_atom_site_fract_y
_atom_site_fract_z
Si Si1 0.165148 0.941842 0.177877
Si Si2 0.282731 0.565461 0.500000
Si Si3 0.779652 0.540951 0.252403
Si Si4 0.500000 0.000000 0.500000
Si Si5 0.058370 0.657317 0.942867
O O1 0.237440 0.896797 0.118774
O O2 0.000000 0.838748 0.166667
O O3 0.185006 0.092503 0.166667
O O4 0.243524 0.949002 0.252214
O O5 0.263925 0.655818 0.561574
O O6 0.334258 0.473116 0.538031
O O7 0.829328 0.583182 0.332496
O O8 0.906931 0.538457 0.214143
O O9 0.000000 0.500000 0.968017
#
# Coordination Sequence:
#
# PCOD9583828 Si02
#       5
#    12   6  12   3  12
#     4  11  25  46  68 100 149 191 240 300 365 457
#     4  11  24  45  71 106 143 180 242 318 361 440
#     4  11  23  42  73 104 136 185 242 305 368 435
#     4  10  20  40  62 100 138 168 232 302 358 412
#     4  12  24  45  74 104 144 196 242 301 382 441
#
# _framework density 22.035226000000002
#
# number of rings (size 3 to 8) (size 9 to 14) (size 15 to 20)
#    0.000    0.800    6.667    0.800    0.000    2.133 
#    4.800    2.667    0.000    0.000    0.000    0.000 
#    0.000    0.000    0.000    0.000    0.000    0.000 
#
# Total GULP energy -251043.567364 kJ/mol
# GULP energy per Si atom -5578.745941 kJ/mol
# Density = 2.198507 g / cm^3
# Si number density = 22.035226 Si / 1000 Ang^3
#
#
#
# Elastic Constant Matrix: (Units=GPa)
#
#
# Indices 1 2 3 4 5 6 
#
# 1 92.0312 40.7449 29.6447 0.0000 0.0000 0.0000
# 2 40.7449 92.0312 29.6447 0.0000 0.0000 0.0000
# 3 29.6447 29.6447 109.5247 0.0000 0.0000 0.0000
# 4 0.0000 0.0000 0.0000 7.4894 0.0000 0.0000
# 5 0.0000 0.0000 0.0000 0.0000 7.4894 0.0000
# 6 0.0000 0.0000 0.0000 0.0000 0.0000 25.6432
#
#
#
# Elastic Compliance Matrix: (Units=1/GPa)
#
#
# Indices 1 2 3 4 5 6 
#
# 1 0.014033 -0.005466 -0.002319 0.000000 0.000000 0.000000
# 2 -0.005466 0.014033 -0.002319 0.000000 0.000000 0.000000
# 3 -0.002319 -0.002319 0.010386 0.000000 0.000000 0.000000
# 4 0.000000 0.000000 0.000000 0.133523 0.000000 0.000000
# 5 0.000000 0.000000 0.000000 0.000000 0.133523 0.000000
# 6 0.000000 0.000000 0.000000 0.000000 0.000000 0.038997
#
#
# Mechanical properties :
#
#
# Convention : Reuss Voigt Hill
#
# Bulk Modulus (GPa) = 54.81168 54.85063 54.83115
# Shear Modulus (GPa) = 13.48505 21.02790 17.25648
#
# Velocity S-wave (km/s) = 2.47650 3.09250 2.80148
# Velocity P-wave (km/s) = 5.75378 6.13985 5.94995
#
# Compressibility (1/GPa) = 0.01824429
#
# Stress axis : x y z
#
# Youngs Moduli (GPa) = 71.26246 71.26246 96.28727
#
# Poissons Ratio (x) = 0.38950 0.22327
# Poissons Ratio (y) = 0.38950 0.22327
# Poissons Ratio (z) = 0.16524 0.16524
#
# Static dielectric constant tensor:
#      x y z
#    x 1.878120 0.000000 0.000000 
#    y 0.000000 1.878120 0.000000 
#    z 0.000000 0.000000 1.817350 
# 
# From -- ./inp_files/7402.got.cif
#   From: 2010.05.17/outbox.cif.g08.bks.cpg/sg180_4_cif.got.tgz:7402.got - 2010.05.20 11:43:55.
