data_PCOD9583259
_publ_section_title
;
Structure prediction by ZEFSAII (Michael W. Deem and Ramdas Pophale) SiO2 
 PCOD9583259
Probable space group: P 65 2 2
;
_chemical_formula_sum "Si O2"
_cell_formula_units_Z 48
_cell_length_a 11.148086
_cell_length_b 11.148086
_cell_length_c 20.973377
_cell_angle_alpha 90.000000
_cell_angle_beta 90.000000
_cell_angle_gamma 120.000000
_cell_volume 2257.353714
_symmetry_space_group_name_H-M "P 65 2 2"
_symmetry_group_IT_number 179
_symmetry_cell_setting 'hexagonal'
loop_
_space_group_symop_operation_xyz
x,y,z
x-y,x,5/6+z
-y,x-y,2/3+z
-x,-y,1/2+z
-x+y,-x,1/3+z
y,-x+y,1/6+z
x-y,-y,-z
-x,-x+y,1/3-z
y,x,2/3-z
-y,-x,1/6-z
-x+y,y,1/2-z
x,x-y,5/6-z
loop_
_atom_site_type_symbol
_atom_site_label
_atom_site_fract_x
_atom_site_fract_y
_atom_site_fract_z
Si Si1 0.548269 0.774135 0.916667
Si Si2 0.000000 0.790653 0.666667
Si Si3 0.053609 0.494579 0.344376
Si Si4 0.250680 0.183223 0.116249
Si Si5 0.665708 0.754849 0.480420
O O1 0.655434 0.751024 0.874572
O O2 0.464623 0.818970 0.869808
O O3 0.897658 0.822253 0.623545
O O4 0.097949 0.548975 0.416667
O O5 0.971899 0.328484 0.350930
O O6 0.956121 0.550524 0.318329
O O7 0.234762 0.049506 0.149913
O O8 0.322595 0.178073 0.049518
O O9 0.653121 0.826561 0.416667
#
# Coordination Sequence:
#
# PCOD9583259 Si02
#       5
#     6   6  12  12  12
#     4  10  20  40  66  96 124 170 226 280 320 388
#     4  10  20  36  68 100 118 160 224 284 324 370
#     4   9  21  43  63  91 130 173 221 266 330 389
#     4  10  21  39  65  91 128 166 211 273 327 373
#     4  11  23  39  62  93 131 167 210 261 332 394
#
# _framework density 21.263835
#
# number of rings (size 3 to 8) (size 9 to 14) (size 15 to 20)
#    0.000    2.000    0.000    3.750    5.250    0.000 
#   11.250    6.250    0.000    0.000    0.000    0.000 
#    0.000    0.000    0.000    0.000    0.000    0.000 
#
# Total GULP energy -267701.202005 kJ/mol
# GULP energy per Si atom -5577.108375 kJ/mol
# Density = 2.121544 g / cm^3
# Si number density = 21.263835 Si / 1000 Ang^3
#
#
#
# Elastic Constant Matrix: (Units=GPa)
#
#
# Indices 1 2 3 4 5 6 
#
# 1 53.3091 34.4470 30.1352 0.0000 0.0000 0.0000
# 2 34.4470 53.3091 30.1352 0.0000 0.0000 0.0000
# 3 30.1352 30.1352 124.0939 0.0000 0.0000 0.0000
# 4 0.0000 0.0000 0.0000 -9.9761 0.0000 0.0000
# 5 0.0000 0.0000 0.0000 0.0000 -9.9761 0.0000
# 6 0.0000 0.0000 0.0000 0.0000 0.0000 9.4311
#
#
#
# Elastic Compliance Matrix: (Units=1/GPa)
#
#
# Indices 1 2 3 4 5 6 
#
# 1 0.033346 -0.019670 -0.003321 0.000000 0.000000 0.000000
# 2 -0.019670 0.033346 -0.003321 0.000000 0.000000 0.000000
# 3 -0.003321 -0.003321 0.009671 0.000000 0.000000 0.000000
# 4 0.000000 0.000000 0.000000 -0.100240 0.000000 0.000000
# 5 0.000000 0.000000 0.000000 0.000000 -0.100240 0.000000
# 6 0.000000 0.000000 0.000000 0.000000 0.000000 0.106032
#
#
# Mechanical properties :
#
#
# Convention : Reuss Voigt Hill
#
# Bulk Modulus (GPa) = 42.12446 46.68300 44.40373
# Shear Modulus (GPa) = 117.77471 6.96211 62.36841
#
# Velocity S-wave (km/s) = 7.45034 1.81143 5.42166
# Velocity P-wave (km/s) = 9.68832 5.13584 7.75372
#
# Compressibility (1/GPa) = 0.02373918
#
# Stress axis : x y z
#
# Youngs Moduli (GPa) = 29.98846 29.98846 103.39720
#
# Poissons Ratio (x) = 0.58987 0.34340
# Poissons Ratio (y) = 0.58987 0.34340
# Poissons Ratio (z) = 0.09960 0.09960
#
# Static dielectric constant tensor:
#      x y z
#    x 1.794430 0.000000 0.000000 
#    y 0.000000 1.794430 0.000000 
#    z 0.000000 0.000000 1.851370 
# 
# From -- ./inp_files/7344.got.cif
#   From: 2010.05.17/outbox.cif.g08.bks.cpg/sg179_4_cif.got.tgz:7344.got - 2010.05.20 11:37:33.
