data_PCOD9583332
_publ_section_title
;
Structure prediction by ZEFSAII (Michael W. Deem and Ramdas Pophale) SiO2 
 PCOD9583332
Probable space group: P 65 2 2
;
_chemical_formula_sum "Si O2"
_cell_formula_units_Z 48
_cell_length_a 13.794686
_cell_length_b 13.794686
_cell_length_c 12.421314
_cell_angle_alpha 90.000000
_cell_angle_beta 90.000000
_cell_angle_gamma 120.000000
_cell_volume 2047.018704
_symmetry_space_group_name_H-M "P 65 2 2"
_symmetry_group_IT_number 179
_symmetry_cell_setting 'hexagonal'
loop_
_space_group_symop_operation_xyz
x,y,z
x-y,x,5/6+z
-y,x-y,2/3+z
-x,-y,1/2+z
-x+y,-x,1/3+z
y,-x+y,1/6+z
x-y,-y,-z
-x,-x+y,1/3-z
y,x,2/3-z
-y,-x,1/6-z
-x+y,y,1/2-z
x,x-y,5/6-z
loop_
_atom_site_type_symbol
_atom_site_label
_atom_site_fract_x
_atom_site_fract_y
_atom_site_fract_z
Si Si1 0.900310 0.800619 0.750000
Si Si2 0.302128 0.604256 0.250000
Si Si3 0.510080 0.722815 0.691042
Si Si4 0.514323 0.028645 0.750000
Si Si5 0.740398 0.052228 0.279040
Si Si6 0.189973 0.094987 0.916667
O O1 0.871670 0.871670 0.833334
O O2 0.936306 0.728935 0.826760
O O3 0.257986 0.690232 0.273837
O O4 0.254399 0.530123 0.144761
O O5 0.487250 0.598177 0.674066
O O6 0.636032 0.821396 0.674615
O O7 0.384238 0.964159 0.780146
O O8 0.746165 0.959647 0.353253
O O9 0.113978 0.113978 0.833334
#
# Coordination Sequence:
#
# PCOD9583332 Si02
#       6
#     6   6  12   6  12   6
#     4  12  27  49  77 108 143 188 239 295 358 426
#     4   9  19  38  65  96 137 186 229 281 354 428
#     4  10  21  40  65  97 139 184 232 289 352 422
#     4  11  24  44  70 104 142 186 236 293 356 428
#     4  12  27  46  72 106 143 187 240 295 357 427
#     4  12  28  49  72 102 140 188 244 303 362 424
#
# _framework density 23.448734999999999
#
# number of rings (size 3 to 8) (size 9 to 14) (size 15 to 20)
#    0.000    1.000    0.000    6.750    0.000   11.000 
#    0.000    6.250    0.000    0.000    0.000    0.000 
#    0.000    0.000    0.000    0.000    0.000    0.000 
#
# Total GULP energy -268277.475060 kJ/mol
# GULP energy per Si atom -5589.114064 kJ/mol
# Density = 2.339536 g / cm^3
# Si number density = 23.448735 Si / 1000 Ang^3
#
#
#
# Elastic Constant Matrix: (Units=GPa)
#
#
# Indices 1 2 3 4 5 6 
#
# 1 154.9143 79.5351 64.7737 0.0000 0.0000 0.0000
# 2 79.5351 154.9143 64.7737 0.0000 0.0000 0.0000
# 3 64.7737 64.7737 96.0341 0.0000 0.0000 0.0000
# 4 0.0000 0.0000 0.0000 30.5032 0.0000 0.0000
# 5 0.0000 0.0000 0.0000 0.0000 30.5032 0.0000
# 6 0.0000 0.0000 0.0000 0.0000 0.0000 37.6896
#
#
#
# Elastic Compliance Matrix: (Units=1/GPa)
#
#
# Indices 1 2 3 4 5 6 
#
# 1 0.010033 -0.003233 -0.004586 0.000000 0.000000 0.000000
# 2 -0.003233 0.010033 -0.004586 0.000000 0.000000 0.000000
# 3 -0.004586 -0.004586 0.016600 0.000000 0.000000 0.000000
# 4 0.000000 0.000000 0.000000 0.032783 0.000000 0.000000
# 5 0.000000 0.000000 0.000000 0.000000 0.032783 0.000000
# 6 0.000000 0.000000 0.000000 0.000000 0.000000 0.026532
#
#
# Mechanical properties :
#
#
# Convention : Reuss Voigt Hill
#
# Bulk Modulus (GPa) = 84.36052 91.55864 87.95958
# Shear Modulus (GPa) = 31.74058 32.85791 32.29925
#
# Velocity S-wave (km/s) = 3.68314 3.74741 3.71542
# Velocity P-wave (km/s) = 7.35813 7.60626 7.48322
#
# Compressibility (1/GPa) = 0.01185389
#
# Stress axis : x y z
#
# Youngs Moduli (GPa) = 99.67276 99.67276 60.24276
#
# Poissons Ratio (x) = 0.32228 0.27628
# Poissons Ratio (y) = 0.32228 0.27628
# Poissons Ratio (z) = 0.45711 0.45711
#
# Static dielectric constant tensor:
#      x y z
#    x 1.949510 0.000000 0.000000 
#    y 0.000000 1.949510 0.000000 
#    z 0.000000 0.000000 1.860470 
# 
# From -- ./inp_files/4395.got.cif
#   From: 2010.05.17/outbox.cif.g08.bks.cpg/sg179_3_cif.got.tgz:4395.got - 2010.05.20 11:37:33.
