data_PCOD9583495
_publ_section_title
;
Structure prediction by ZEFSAII (Michael W. Deem and Ramdas Pophale) SiO2 
 PCOD9583495
Probable space group: P 65 2 2
;
_chemical_formula_sum "Si O2"
_cell_formula_units_Z 66
_cell_length_a 17.212551
_cell_length_b 17.212551
_cell_length_c 15.377044
_cell_angle_alpha 90.000000
_cell_angle_beta 90.000000
_cell_angle_gamma 120.000000
_cell_volume 3945.426606
_symmetry_space_group_name_H-M "P 65 2 2"
_symmetry_group_IT_number 179
_symmetry_cell_setting 'hexagonal'
loop_
_space_group_symop_operation_xyz
x,y,z
x-y,x,5/6+z
-y,x-y,2/3+z
-x,-y,1/2+z
-x+y,-x,1/3+z
y,-x+y,1/6+z
x-y,-y,-z
-x,-x+y,1/3-z
y,x,2/3-z
-y,-x,1/6-z
-x+y,y,1/2-z
x,x-y,5/6-z
loop_
_atom_site_type_symbol
_atom_site_label
_atom_site_fract_x
_atom_site_fract_y
_atom_site_fract_z
Si Si1 0.550512 0.546297 0.669147
Si Si2 0.644154 0.912660 0.942601
Si Si3 0.545671 0.322645 0.329655
Si Si4 0.678665 0.471089 0.025458
Si Si5 0.000000 0.568599 0.166667
Si Si6 0.522420 0.709612 0.331850
O O1 0.518218 0.481782 0.583334
O O2 0.656334 0.601883 0.697173
O O3 0.516655 0.617636 0.654233
O O4 0.491964 0.484009 0.749718
O O5 0.669583 0.834792 0.916667
O O6 0.555916 0.858663 0.001957
O O7 0.713929 0.000000 0.000000
O O8 0.553072 0.276536 0.416667
O O9 0.556007 0.296056 0.232210
O O10 0.620260 0.425271 0.337689
O O11 0.616994 0.383007 0.083334
O O12 0.765910 0.533155 0.080874
O O13 0.083080 0.667569 0.160150
O O14 0.525995 0.762997 0.416667
#
# Coordination Sequence:
#
# PCOD9583495 Si02
#       6
#    12  12  12  12   6  12
#     4  11  20  39  58  81 114 152 190 233 288 332
#     4  11  21  40  58  81 120 147 185 239 290 341
#     4  11  22  34  54  80 109 149 189 239 277 331
#     4  11  20  35  57  78 111 150 187 241 275 335
#     4  12  22  40  54  74 120 152 188 238 284 336
#     4  12  22  36  54  76 110 153 190 233 280 328
#
# _framework density 16.72823
#
# number of rings (size 3 to 8) (size 9 to 14) (size 15 to 20)
#    0.000    0.727    8.182    1.636    0.000    2.909 
#    0.000    0.000    0.000    0.000    0.000    0.000 
#    2.727    0.000    0.000    0.000    0.000    0.000 
#
# Total GULP energy -367785.584758 kJ/mol
# GULP energy per Si atom -5572.508860 kJ/mol
# Density = 1.669016 g / cm^3
# Si number density = 16.728230 Si / 1000 Ang^3
#
#
#
# Elastic Constant Matrix: (Units=GPa)
#
#
# Indices 1 2 3 4 5 6 
#
# 1 60.2294 65.1566 34.6112 0.0000 0.0000 0.0000
# 2 65.1566 60.2294 34.6112 0.0000 0.0000 0.0000
# 3 34.6112 34.6112 134.1708 0.0000 0.0000 0.0000
# 4 0.0000 0.0000 0.0000 8.2371 0.0000 0.0000
# 5 0.0000 0.0000 0.0000 0.0000 8.2371 0.0000
# 6 0.0000 0.0000 0.0000 0.0000 0.0000 -2.4636
#
#
#
# Elastic Compliance Matrix: (Units=1/GPa)
#
#
# Indices 1 2 3 4 5 6 
#
# 1 -0.096827 0.106127 -0.002399 0.000000 0.000000 0.000000
# 2 0.106127 -0.096827 -0.002399 0.000000 0.000000 0.000000
# 3 -0.002399 -0.002399 0.008691 0.000000 0.000000 0.000000
# 4 0.000000 0.000000 0.000000 0.121402 0.000000 0.000000
# 5 0.000000 0.000000 0.000000 0.000000 0.121402 0.000000
# 6 0.000000 0.000000 0.000000 0.000000 0.000000 -0.405909
#
#
# Mechanical properties :
#
#
# Convention : Reuss Voigt Hill
#
# Bulk Modulus (GPa) = 56.51487 58.15420 57.33454
# Shear Modulus (GPa) = -9.17722 10.81881 0.82080
#
# Velocity S-wave (km/s) = -2.34478 2.54587 0.70123
# Velocity P-wave (km/s) = 5.15042 6.59405 5.91643
#
# Compressibility (1/GPa) = 0.01769446
#
# Stress axis : x y z
#
# Youngs Moduli (GPa) = -10.32767 -10.32767 115.06281
#
# Poissons Ratio (x) = 1.09605 0.27604
# Poissons Ratio (y) = 1.09605 0.27604
# Poissons Ratio (z) = -0.02478 -0.02478
#
# Static dielectric constant tensor:
#      x y z
#    x 1.626140 0.000000 0.000000 
#    y 0.000000 1.626140 0.000000 
#    z 0.000000 0.000000 1.589730 
# 
# From -- ./inp_files/6022.got.cif
#   From: 2010.05.17/outbox.cif.g08.bks.cpg/sg179_4_cif.got.tgz:6022.got - 2010.05.20 11:37:33.
