data_PCOD9583394
_publ_section_title
;
Structure prediction by ZEFSAII (Michael W. Deem and Ramdas Pophale) SiO2 
 PCOD9583394
Probable space group: P 65 2 2
;
_chemical_formula_sum "Si O2"
_cell_formula_units_Z 60
_cell_length_a 17.094930
_cell_length_b 17.094930
_cell_length_c 9.168056
_cell_angle_alpha 90.000000
_cell_angle_beta 90.000000
_cell_angle_gamma 120.000000
_cell_volume 2320.291466
_symmetry_space_group_name_H-M "P 65 2 2"
_symmetry_group_IT_number 179
_symmetry_cell_setting 'hexagonal'
loop_
_space_group_symop_operation_xyz
x,y,z
x-y,x,5/6+z
-y,x-y,2/3+z
-x,-y,1/2+z
-x+y,-x,1/3+z
y,-x+y,1/6+z
x-y,-y,-z
-x,-x+y,1/3-z
y,x,2/3-z
-y,-x,1/6-z
-x+y,y,1/2-z
x,x-y,5/6-z
loop_
_atom_site_type_symbol
_atom_site_label
_atom_site_fract_x
_atom_site_fract_y
_atom_site_fract_z
Si Si1 0.233313 0.766688 0.083334
Si Si2 0.816640 0.408320 0.416667
Si Si3 0.089790 0.663177 0.326179
Si Si4 0.246201 0.955791 0.308347
Si Si5 0.490092 0.093038 0.453780
Si Si6 0.847807 0.152194 0.083334
Si Si7 0.907314 0.092687 0.583334
O O1 0.307666 0.770378 0.193394
O O2 0.146647 0.728884 0.192814
O O3 0.862621 0.397161 0.271690
O O4 0.137319 0.674560 0.487595
O O5 0.071215 0.565171 0.277514
O O6 0.997124 0.659325 0.376159
O O7 0.216746 0.877843 0.434675
O O8 0.164276 0.914224 0.199361
O O9 0.250935 0.049687 0.357582
O O10 0.401898 0.000000 0.500000
O O11 0.000000 0.125351 0.666667
#
# Coordination Sequence:
#
# PCOD9583394 Si02
#       7
#     6   6  12  12  12   6   6
#     4  10  24  45  70 120 150 204 256 329 389 474
#     4  10  22  42  74 108 156 193 254 308 388 481
#     4  10  24  45  72 106 153 195 257 323 391 470
#     4  11  24  47  71 104 143 191 248 326 385 481
#     4  10  22  45  71 100 143 206 250 303 390 478
#     4  10  24  45  70 102 138 184 254 308 395 467
#     4  12  26  46  70  98 138 193 242 305 390 462
#
# _framework density 25.858820999999999
#
# number of rings (size 3 to 8) (size 9 to 14) (size 15 to 20)
#    0.000    1.600    2.000    1.200    2.800    8.000 
#    7.200    2.000    0.000    0.000    0.000    0.000 
#    0.000    0.000    0.000    6.400    0.000    0.000 
#
# Total GULP energy -334411.815723 kJ/mol
# GULP energy per Si atom -5573.530262 kJ/mol
# Density = 2.579997 g / cm^3
# Si number density = 25.858821 Si / 1000 Ang^3
#
#
#
# Elastic Constant Matrix: (Units=GPa)
#
#
# Indices 1 2 3 4 5 6 
#
# 1 113.2717 44.0683 78.2676 0.0000 0.0000 0.0000
# 2 44.0683 113.2717 78.2676 0.0000 0.0000 0.0000
# 3 78.2676 78.2676 223.0098 0.0000 0.0000 0.0000
# 4 0.0000 0.0000 0.0000 120.0891 0.0000 0.0000
# 5 0.0000 0.0000 0.0000 0.0000 120.0891 0.0000
# 6 0.0000 0.0000 0.0000 0.0000 0.0000 34.6017
#
#
#
# Elastic Compliance Matrix: (Units=1/GPa)
#
#
# Indices 1 2 3 4 5 6 
#
# 1 0.012108 -0.002342 -0.003427 0.000000 0.000000 0.000000
# 2 -0.002342 0.012108 -0.003427 0.000000 0.000000 0.000000
# 3 -0.003427 -0.003427 0.006890 0.000000 0.000000 0.000000
# 4 0.000000 0.000000 0.000000 0.008327 0.000000 0.000000
# 5 0.000000 0.000000 0.000000 0.000000 0.008327 0.000000
# 6 0.000000 0.000000 0.000000 0.000000 0.000000 0.028900
#
#
# Mechanical properties :
#
#
# Convention : Reuss Voigt Hill
#
# Bulk Modulus (GPa) = 78.66888 94.52891 86.59889
# Shear Modulus (GPa) = 50.35703 71.55261 60.95482
#
# Velocity S-wave (km/s) = 4.41770 5.26598 4.86038
# Velocity P-wave (km/s) = 7.51731 8.57958 8.06595
#
# Compressibility (1/GPa) = 0.01271151
#
# Stress axis : x y z
#
# Youngs Moduli (GPa) = 82.59148 82.59148 145.14257
#
# Poissons Ratio (x) = 0.19346 0.49744
# Poissons Ratio (y) = 0.19346 0.49744
# Poissons Ratio (z) = 0.28306 0.28306
#
# Static dielectric constant tensor:
#      x y z
#    x 2.054190 0.000000 0.000000 
#    y 0.000000 2.054190 0.000000 
#    z 0.000000 0.000000 2.031960 
# 
# From -- ./inp_files/3317.got.cif
#   From: 2010.05.17/outbox.cif.g08.bks.cpg/sg179_2_cif.got.tgz:3317.got - 2010.05.20 11:37:33.
