data_PCOD9583137
_publ_section_title
;
Structure prediction by ZEFSAII (Michael W. Deem and Ramdas Pophale) SiO2 
 PCOD9583137
Probable space group: P 65 2 2
;
_chemical_formula_sum "Si O2"
_cell_formula_units_Z 66
_cell_length_a 11.658747
_cell_length_b 11.658747
_cell_length_c 26.404849
_cell_angle_alpha 90.000000
_cell_angle_beta 90.000000
_cell_angle_gamma 120.000000
_cell_volume 3108.265271
_symmetry_space_group_name_H-M "P 65 2 2"
_symmetry_group_IT_number 179
_symmetry_cell_setting 'hexagonal'
loop_
_space_group_symop_operation_xyz
x,y,z
x-y,x,5/6+z
-y,x-y,2/3+z
-x,-y,1/2+z
-x+y,-x,1/3+z
y,-x+y,1/6+z
x-y,-y,-z
-x,-x+y,1/3-z
y,x,2/3-z
-y,-x,1/6-z
-x+y,y,1/2-z
x,x-y,5/6-z
loop_
_atom_site_type_symbol
_atom_site_label
_atom_site_fract_x
_atom_site_fract_y
_atom_site_fract_z
Si Si1 0.324408 0.986380 0.611898
Si Si2 0.626454 0.813227 0.416667
Si Si3 0.525561 0.051122 0.250000
Si Si4 0.439484 0.842887 0.335584
Si Si5 0.310101 0.000000 0.000000
Si Si6 0.818777 0.400070 0.129073
Si Si7 0.807073 0.621648 0.867825
O O1 0.362261 0.881698 0.585473
O O2 0.216507 0.905334 0.654216
O O3 0.453113 0.104286 0.639626
O O4 0.288839 0.062396 0.570040
O O5 0.528620 0.840228 0.381673
O O6 0.715843 0.922603 0.456943
O O7 0.674436 0.136722 0.229761
O O8 0.523530 0.955191 0.294319
O O9 0.368513 0.700927 0.306451
O O10 0.443320 0.100100 0.029961
O O11 0.847271 0.332230 0.176597
#
# Coordination Sequence:
#
# PCOD9583137 Si02
#       7
#    12   6   6  12   6  12  12
#     4  11  21  38  58  93 131 183 220 270 342 401
#     4  10  18  35  56  86 132 174 225 266 322 420
#     4  10  24  39  56  90 136 186 217 266 340 394
#     4  10  21  36  56  89 134 178 218 264 337 405
#     4  10  18  32  60  88 134 174 216 264 338 398
#     4  11  19  35  60  90 131 172 215 269 332 399
#     4  11  22  37  56  87 134 173 224 265 331 409
#
# _framework density 21.233709000000001
#
# number of rings (size 3 to 8) (size 9 to 14) (size 15 to 20)
#    0.000    1.455    3.636    2.727    2.545    0.727 
#    3.273    0.000    0.000    0.000    0.000    0.000 
#  152.727    0.000    0.000    0.000    0.000    0.000 
#
# Total GULP energy -368272.127698 kJ/mol
# GULP energy per Si atom -5579.880723 kJ/mol
# Density = 2.118538 g / cm^3
# Si number density = 21.233709 Si / 1000 Ang^3
#
#
#
# Elastic Constant Matrix: (Units=GPa)
#
#
# Indices 1 2 3 4 5 6 
#
# 1 83.1297 38.6663 57.3531 0.0000 0.0000 0.0000
# 2 38.6663 83.1297 57.3531 0.0000 0.0000 0.0000
# 3 57.3531 57.3531 151.5716 0.0000 0.0000 0.0000
# 4 0.0000 0.0000 0.0000 33.6632 0.0000 0.0000
# 5 0.0000 0.0000 0.0000 0.0000 33.6632 0.0000
# 6 0.0000 0.0000 0.0000 0.0000 0.0000 22.2317
#
#
#
# Elastic Compliance Matrix: (Units=1/GPa)
#
#
# Indices 1 2 3 4 5 6 
#
# 1 0.017623 -0.004867 -0.004827 0.000000 0.000000 0.000000
# 2 -0.004867 0.017623 -0.004827 0.000000 0.000000 0.000000
# 3 -0.004827 -0.004827 0.010250 0.000000 0.000000 0.000000
# 4 0.000000 0.000000 0.000000 0.029706 0.000000 0.000000
# 5 0.000000 0.000000 0.000000 0.000000 0.029706 0.000000
# 6 0.000000 0.000000 0.000000 0.000000 0.000000 0.044981
#
#
# Mechanical properties :
#
#
# Convention : Reuss Voigt Hill
#
# Bulk Modulus (GPa) = 60.76944 69.39732 65.08338
# Shear Modulus (GPa) = 27.11251 28.87553 27.99402
#
# Velocity S-wave (km/s) = 3.57720 3.69167 3.63488
# Velocity P-wave (km/s) = 6.76337 7.13616 6.95227
#
# Compressibility (1/GPa) = 0.01645564
#
# Stress axis : x y z
#
# Youngs Moduli (GPa) = 56.74285 56.74285 97.55707
#
# Poissons Ratio (x) = 0.27617 0.47089
# Poissons Ratio (y) = 0.27617 0.47089
# Poissons Ratio (z) = 0.27389 0.27389
#
# Static dielectric constant tensor:
#      x y z
#    x 1.787020 0.000000 0.000000 
#    y 0.000000 1.787020 0.000000 
#    z 0.000000 0.000000 1.858410 
# 
# From -- ./inp_files/9535.got.cif
#   From: 2010.05.17/outbox.cif.g08.bks.cpg/sg179_5_cif.got.tgz:9535.got - 2010.05.20 11:37:33.
