data_PCOD9583770
_publ_section_title
;
Structure prediction by ZEFSAII (Michael W. Deem and Ramdas Pophale) SiO2 
 PCOD9583770
Probable space group: P 62 2 2
;
_chemical_formula_sum "Si O2"
_cell_formula_units_Z 51
_cell_length_a 12.039849
_cell_length_b 12.039849
_cell_length_c 20.310547
_cell_angle_alpha 90.000000
_cell_angle_beta 90.000000
_cell_angle_gamma 120.000000
_cell_volume 2549.730811
_symmetry_space_group_name_H-M "P 62 2 2"
_symmetry_group_IT_number 180
_symmetry_cell_setting 'hexagonal'
loop_
_space_group_symop_operation_xyz
x,y,z
x-y,x,1/3+z
-y,x-y,2/3+z
-x,-y,z
-x+y,-x,1/3+z
y,-x+y,2/3+z
x-y,-y,-z
-x,-x+y,1/3-z
y,x,2/3-z
-y,-x,2/3-z
-x+y,y,-z
x,x-y,1/3-z
loop_
_atom_site_type_symbol
_atom_site_label
_atom_site_fract_x
_atom_site_fract_y
_atom_site_fract_z
Si Si1 0.817216 0.450245 0.593333
Si Si2 0.019890 0.295203 0.507048
Si Si3 0.764152 0.175716 0.570969
Si Si4 0.000000 0.500000 0.166667
Si Si5 0.913540 0.352898 0.958712
O O1 0.854516 0.427258 0.666667
O O2 0.919215 0.579987 0.556290
O O3 0.790444 0.319984 0.559859
O O4 0.687594 0.459345 0.597612
O O5 0.127873 0.255745 0.500000
O O6 0.011146 0.344306 0.434518
O O7 0.887062 0.184869 0.535878
O O8 0.626216 0.086136 0.541401
O O9 0.746364 0.129079 0.646931
O O10 0.000000 0.500000 0.980167
#
# Coordination Sequence:
#
# PCOD9583770 Si02
#       5
#    12  12  12   3  12
#     4   9  20  35  63  94 129 167 212 274 334 393
#     4  10  22  38  66  97 128 175 226 282 340 403
#     4  11  23  41  58  89 134 171 221 272 337 409
#     4  12  28  40  58  88 124 180 218 276 332 392
#     4  10  20  36  57  97 130 171 220 271 346 400
#
# _framework density 20.002113000000001
#
# number of rings (size 3 to 8) (size 9 to 14) (size 15 to 20)
#    0.000    1.882    1.176    2.118    8.235   11.294 
#    0.000    1.765    0.000    0.000    0.000    9.882 
#    0.000    0.000    0.000    0.000    0.000    0.000 
#
# Total GULP energy -284359.019631 kJ/mol
# GULP energy per Si atom -5575.667052 kJ/mol
# Density = 1.995659 g / cm^3
# Si number density = 20.002113 Si / 1000 Ang^3
#
#
#
# Elastic Constant Matrix: (Units=GPa)
#
#
# Indices 1 2 3 4 5 6 
#
# 1 93.2979 49.6832 37.3647 0.0000 0.0000 0.0000
# 2 49.6832 93.2979 37.3647 0.0000 0.0000 0.0000
# 3 37.3647 37.3647 108.3720 0.0000 0.0000 0.0000
# 4 0.0000 0.0000 0.0000 -26.0364 0.0000 0.0000
# 5 0.0000 0.0000 0.0000 0.0000 -26.0364 0.0000
# 6 0.0000 0.0000 0.0000 0.0000 0.0000 21.8074
#
#
#
# Elastic Compliance Matrix: (Units=1/GPa)
#
#
# Indices 1 2 3 4 5 6 
#
# 1 0.015730 -0.007198 -0.002941 0.000000 0.000000 0.000000
# 2 -0.007198 0.015730 -0.002941 0.000000 0.000000 0.000000
# 3 -0.002941 -0.002941 0.011256 0.000000 0.000000 0.000000
# 4 0.000000 0.000000 0.000000 -0.038408 0.000000 0.000000
# 5 0.000000 0.000000 0.000000 0.000000 -0.038408 0.000000
# 6 0.000000 0.000000 0.000000 0.000000 0.000000 0.045856
#
#
# Mechanical properties :
#
#
# Convention : Reuss Voigt Hill
#
# Bulk Modulus (GPa) = 60.41340 60.42142 60.41741
# Shear Modulus (GPa) = 115.11246 5.31725 60.21485
#
# Velocity S-wave (km/s) = 7.59441 1.63221 5.49269
# Velocity P-wave (km/s) = 10.35226 5.81595 8.39626
#
# Compressibility (1/GPa) = 0.01655262
#
# Stress axis : x y z
#
# Youngs Moduli (GPa) = 63.57416 63.57416 88.84331
#
# Poissons Ratio (x) = 0.45763 0.26133
# Poissons Ratio (y) = 0.45763 0.26133
# Poissons Ratio (z) = 0.18700 0.18700
#
# Static dielectric constant tensor:
#      x y z
#    x 1.864140 0.000000 0.000000 
#    y 0.000000 1.864140 0.000000 
#    z 0.000000 0.000000 1.809220 
# 
# From -- ./inp_files/8834.got.cif
#   From: 2010.05.17/outbox.cif.g08.bks.cpg/sg180_5_cif.got.tgz:8834.got - 2010.05.20 11:43:55.
