data_PCOD9583420
_publ_section_title
;
Structure prediction by ZEFSAII (Michael W. Deem and Ramdas Pophale) SiO2 
 PCOD9583420
Probable space group: P 65 2 2
;
_chemical_formula_sum "Si O2"
_cell_formula_units_Z 84
_cell_length_a 18.185798
_cell_length_b 18.185798
_cell_length_c 14.194321
_cell_angle_alpha 90.000000
_cell_angle_beta 90.000000
_cell_angle_gamma 120.000000
_cell_volume 4065.462690
_symmetry_space_group_name_H-M "P 65 2 2"
_symmetry_group_IT_number 179
_symmetry_cell_setting 'hexagonal'
loop_
_space_group_symop_operation_xyz
x,y,z
x-y,x,5/6+z
-y,x-y,2/3+z
-x,-y,1/2+z
-x+y,-x,1/3+z
y,-x+y,1/6+z
x-y,-y,-z
-x,-x+y,1/3-z
y,x,2/3-z
-y,-x,1/6-z
-x+y,y,1/2-z
x,x-y,5/6-z
loop_
_atom_site_type_symbol
_atom_site_label
_atom_site_fract_x
_atom_site_fract_y
_atom_site_fract_z
Si Si1 0.327497 0.131153 0.151690
Si Si2 0.358072 0.716143 0.250000
Si Si3 0.428288 0.373855 0.237904
Si Si4 0.520840 0.734102 0.321351
Si Si5 0.678215 0.718993 0.559120
Si Si6 0.778986 0.550909 0.862214
Si Si7 0.400892 0.932099 0.081901
Si Si8 0.231945 0.615973 0.416667
O O1 0.415216 0.162825 0.094413
O O2 0.296005 0.186661 0.095221
O O3 0.357444 0.161382 0.258560
O O4 0.276204 0.031266 0.165229
O O5 0.452307 0.761046 0.292142
O O6 0.293067 0.658144 0.328624
O O7 0.390503 0.390503 0.333334
O O8 0.356943 0.334101 0.157088
O O9 0.465772 0.310857 0.260687
O O10 0.508989 0.463217 0.208817
O O11 0.566796 0.783398 0.416667
O O12 0.481070 0.637828 0.356887
O O13 0.596821 0.663692 0.491391
O O14 0.775098 0.550196 0.750000
O O15 0.808880 0.484134 0.895534
O O16 0.417526 0.000000 0.000000
#
# Coordination Sequence:
#
# PCOD9583420 Si02
#       8
#    12   6  12  12  12  12  12   6
#     4  11  24  42  66  93 124 175 219 276 338 410
#     4  12  24  36  50  85 124 164 228 274 336 371
#     4  10  23  40  59  85 121 172 223 278 328 386
#     4  12  23  37  59  85 124 172 222 278 330 398
#     4  11  23  43  65  92 127 173 221 275 343 405
#     4  11  23  38  57  85 124 165 217 281 327 393
#     4  11  22  37  58  85 122 170 224 273 332 380
#     4  12  22  34  54  81 120 162 220 278 338 373
#
# _framework density 20.661854999999999
#
# number of rings (size 3 to 8) (size 9 to 14) (size 15 to 20)
#    0.000    0.857    5.714    2.143    0.000    0.000 
#    2.571    0.000    0.000    0.000    0.000    0.000 
#    0.000    0.000  136.000    0.000    0.000    0.143 
#
# Total GULP energy -468049.869358 kJ/mol
# GULP energy per Si atom -5572.022254 kJ/mol
# Density = 2.061483 g / cm^3
# Si number density = 20.661855 Si / 1000 Ang^3
#
#
#
# Elastic Constant Matrix: (Units=GPa)
#
#
# Indices 1 2 3 4 5 6 
#
# 1 77.4895 39.1634 22.1379 0.0000 0.0000 0.0000
# 2 39.1634 77.4895 22.1379 0.0000 0.0000 0.0000
# 3 22.1379 22.1379 97.8585 0.0000 0.0000 0.0000
# 4 0.0000 0.0000 0.0000 21.8806 0.0000 0.0000
# 5 0.0000 0.0000 0.0000 0.0000 21.8806 0.0000
# 6 0.0000 0.0000 0.0000 0.0000 0.0000 19.1631
#
#
#
# Elastic Compliance Matrix: (Units=1/GPa)
#
#
# Indices 1 2 3 4 5 6 
#
# 1 0.017735 -0.008357 -0.002121 0.000000 0.000000 0.000000
# 2 -0.008357 0.017735 -0.002121 0.000000 0.000000 0.000000
# 3 -0.002121 -0.002121 0.011179 0.000000 0.000000 0.000000
# 4 0.000000 0.000000 0.000000 0.045702 0.000000 0.000000
# 5 0.000000 0.000000 0.000000 0.000000 0.045702 0.000000
# 6 0.000000 0.000000 0.000000 0.000000 0.000000 0.052184
#
#
# Mechanical properties :
#
#
# Convention : Reuss Voigt Hill
#
# Bulk Modulus (GPa) = 46.62399 46.63509 46.62954
# Shear Modulus (GPa) = 22.46320 23.87810 23.17065
#
# Velocity S-wave (km/s) = 3.30082 3.40319 3.35240
# Velocity P-wave (km/s) = 6.09438 6.16943 6.13202
#
# Compressibility (1/GPa) = 0.02144819
#
# Stress axis : x y z
#
# Youngs Moduli (GPa) = 56.38648 56.38648 89.45602
#
# Poissons Ratio (x) = 0.47123 0.18978
# Poissons Ratio (y) = 0.47123 0.18978
# Poissons Ratio (z) = 0.11962 0.11962
#
# Static dielectric constant tensor:
#      x y z
#    x 1.869370 0.000000 0.000000 
#    y 0.000000 1.869370 0.000000 
#    z 0.000000 0.000000 1.587790 
# 
# From -- ./inp_files/6162.got.cif
#   From: 2010.05.17/outbox.cif.g08.bks.cpg/sg179_4_cif.got.tgz:6162.got - 2010.05.20 11:37:33.
