data_PCOD9583769
_publ_section_title
;
Structure prediction by ZEFSAII (Michael W. Deem and Ramdas Pophale) SiO2 
 PCOD9583769
Probable space group: P 62 2 2
;
_chemical_formula_sum "Si O2"
_cell_formula_units_Z 96
_cell_length_a 24.630858
_cell_length_b 24.630858
_cell_length_c 11.044322
_cell_angle_alpha 90.000000
_cell_angle_beta 90.000000
_cell_angle_gamma 120.000000
_cell_volume 5802.682025
_symmetry_space_group_name_H-M "P 62 2 2"
_symmetry_group_IT_number 180
_symmetry_cell_setting 'hexagonal'
loop_
_space_group_symop_operation_xyz
x,y,z
x-y,x,1/3+z
-y,x-y,2/3+z
-x,-y,z
-x+y,-x,1/3+z
y,-x+y,2/3+z
x-y,-y,-z
-x,-x+y,1/3-z
y,x,2/3-z
-y,-x,2/3-z
-x+y,y,-z
x,x-y,1/3-z
loop_
_atom_site_type_symbol
_atom_site_label
_atom_site_fract_x
_atom_site_fract_y
_atom_site_fract_z
Si Si1 0.224665 0.409645 0.140839
Si Si2 0.601076 0.086880 0.942055
Si Si3 0.546669 0.692813 0.927607
Si Si4 0.690748 0.639876 0.239437
Si Si5 0.894638 0.493229 0.064896
Si Si6 0.785749 0.337855 0.859718
Si Si7 0.449911 0.671836 0.580796
Si Si8 0.015928 0.409917 0.381982
O O1 0.175562 0.409611 0.237563
O O2 0.250194 0.365304 0.192546
O O3 0.282491 0.482178 0.143523
O O4 0.198742 0.397483 0.000000
O O5 0.640394 0.158876 0.903724
O O6 0.584924 0.046503 0.819886
O O7 0.537276 0.074551 0.000000
O O8 0.643730 0.070007 0.026456
O O9 0.522778 0.666148 0.794512
O O10 0.486828 0.672198 0.014014
O O11 0.580676 0.654900 0.969675
O O12 0.691158 0.691158 0.333334
O O13 0.655692 0.640779 0.117934
O O14 0.901553 0.450777 0.166667
O O15 0.844492 0.455977 0.961311
O O16 0.961663 0.546361 0.019587
O O17 0.730665 0.269336 0.833334
O O18 0.756883 0.384230 0.849033
O O19 0.440419 0.720210 0.666667
#
# Coordination Sequence:
#
# PCOD9583769 Si02
#       8
#    12  12  12  12  12  12  12  12
#     4  11  20  36  59  75 101 134 164 210 264 327
#     4  10  22  37  52  71  98 124 164 208 261 328
#     4  11  22  37  55  76 101 127 163 210 272 325
#     4  10  20  36  56  75  99 133 169 205 257 322
#     4  12  22  37  53  76 100 128 164 217 279 338
#     4  11  24  38  51  72  94 126 170 216 263 327
#     4  11  22  37  55  68  95 124 173 208 265 333
#     4  10  23  36  52  80 100 125 163 212 265 328
#
# _framework density 16.544074999999999
#
# number of rings (size 3 to 8) (size 9 to 14) (size 15 to 20)
#    0.000    1.250    5.000    1.875    0.000    6.250 
#    0.000    0.000    0.000    0.000    0.000    0.000 
#    0.000    0.000    0.000    0.000    0.000    0.000 
#
# Total GULP energy -535241.779510 kJ/mol
# GULP energy per Si atom -5575.435203 kJ/mol
# Density = 1.650642 g / cm^3
# Si number density = 16.544075 Si / 1000 Ang^3
#
#
#
# Elastic Constant Matrix: (Units=GPa)
#
#
# Indices 1 2 3 4 5 6 
#
# 1 71.4118 32.0883 13.8608 0.0000 0.0000 0.0000
# 2 32.0883 71.4118 13.8608 0.0000 0.0000 0.0000
# 3 13.8608 13.8608 30.4342 0.0000 0.0000 0.0000
# 4 0.0000 0.0000 0.0000 19.0061 0.0000 0.0000
# 5 0.0000 0.0000 0.0000 0.0000 19.0061 0.0000
# 6 0.0000 0.0000 0.0000 0.0000 0.0000 19.6617
#
#
#
# Elastic Compliance Matrix: (Units=1/GPa)
#
#
# Indices 1 2 3 4 5 6 
#
# 1 0.018217 -0.007213 -0.005012 0.000000 0.000000 0.000000
# 2 -0.007213 0.018217 -0.005012 0.000000 0.000000 0.000000
# 3 -0.005012 -0.005012 0.037423 0.000000 0.000000 0.000000
# 4 0.000000 0.000000 0.000000 0.052615 0.000000 0.000000
# 5 0.000000 0.000000 0.000000 0.000000 0.052615 0.000000
# 6 0.000000 0.000000 0.000000 0.000000 0.000000 0.050860
#
#
# Mechanical properties :
#
#
# Convention : Reuss Voigt Hill
#
# Bulk Modulus (GPa) = 25.39081 32.54197 28.96639
# Shear Modulus (GPa) = 18.01493 19.09796 18.55644
#
# Velocity S-wave (km/s) = 3.30344 3.40129 3.35272
# Velocity P-wave (km/s) = 5.47092 5.92769 5.70388
#
# Compressibility (1/GPa) = 0.03938433
#
# Stress axis : x y z
#
# Youngs Moduli (GPa) = 54.89334 54.89334 26.72171
#
# Poissons Ratio (x) = 0.39594 0.13392
# Poissons Ratio (y) = 0.39594 0.13392
# Poissons Ratio (z) = 0.27511 0.27511
#
# Static dielectric constant tensor:
#      x y z
#    x 1.592950 0.000000 0.000000 
#    y 0.000000 1.592950 0.000000 
#    z 0.000000 0.000000 1.691090 
# 
# From -- ./inp_files/5169.got.cif
#   From: 2010.05.17/outbox.cif.g08.bks.cpg/sg180_3_cif.got.tgz:5169.got - 2010.05.20 11:43:55.
