data_PCOD9583657
_publ_section_title
;
Structure prediction by ZEFSAII (Michael W. Deem and Ramdas Pophale) SiO2 
 PCOD9583657
Probable space group: P 62 2 2
;
_chemical_formula_sum "Si O2"
_cell_formula_units_Z 60
_cell_length_a 15.019757
_cell_length_b 15.019757
_cell_length_c 12.643590
_cell_angle_alpha 90.000000
_cell_angle_beta 90.000000
_cell_angle_gamma 120.000000
_cell_volume 2470.170033
_symmetry_space_group_name_H-M "P 62 2 2"
_symmetry_group_IT_number 180
_symmetry_cell_setting 'hexagonal'
loop_
_space_group_symop_operation_xyz
x,y,z
x-y,x,1/3+z
-y,x-y,2/3+z
-x,-y,z
-x+y,-x,1/3+z
y,-x+y,2/3+z
x-y,-y,-z
-x,-x+y,1/3-z
y,x,2/3-z
-y,-x,2/3-z
-x+y,y,-z
x,x-y,1/3-z
loop_
_atom_site_type_symbol
_atom_site_label
_atom_site_fract_x
_atom_site_fract_y
_atom_site_fract_z
Si Si1 0.219434 0.214462 0.168461
Si Si2 0.752393 0.805948 0.942204
Si Si3 0.377603 0.441051 0.189821
Si Si4 0.271564 0.793617 0.589095
Si Si5 0.490682 0.602542 0.707177
O O1 0.235231 0.117616 0.166667
O O2 0.123504 0.199100 0.238819
O O3 0.317778 0.318888 0.208765
O O4 0.200067 0.218877 0.043036
O O5 0.751672 0.751672 0.833334
O O6 0.633723 0.765261 0.969874
O O7 0.500000 0.500000 0.205933
O O8 0.317847 0.490105 0.249211
O O9 0.354055 0.448129 0.066306
O O10 0.320172 0.840430 0.472257
O O11 0.370923 0.808544 0.649821
O O12 0.500000 0.500000 0.727227
#
# Coordination Sequence:
#
# PCOD9583657 Si02
#       5
#    12  12  12  12  12
#     4  11  24  41  62  92 128 171 215 263 319 391
#     4  11  21  38  64  93 125 166 208 262 326 382
#     4  10  21  38  60  86 126 171 219 265 323 400
#     4  10  19  32  58  92 125 157 208 269 331 392
#     4  10  18  32  57  93 128 156 203 279 344 399
#
# _framework density 24.289825
#
# number of rings (size 3 to 8) (size 9 to 14) (size 15 to 20)
#    0.000    1.600    0.000    7.800    0.000    3.600 
#    3.600    2.000    0.000    8.400    0.000    0.000 
#    0.000    0.000    0.000    0.000    0.000    0.000 
#
# Total GULP energy -335371.805105 kJ/mol
# GULP energy per Si atom -5589.530085 kJ/mol
# Density = 2.423454 g / cm^3
# Si number density = 24.289825 Si / 1000 Ang^3
#
#
#
# Elastic Constant Matrix: (Units=GPa)
#
#
# Indices 1 2 3 4 5 6 
#
# 1 131.0811 66.5447 3.5950 0.0000 0.0000 0.0000
# 2 66.5447 131.0811 3.5950 0.0000 0.0000 0.0000
# 3 3.5950 3.5950 80.7950 0.0000 0.0000 0.0000
# 4 0.0000 0.0000 0.0000 14.2706 0.0000 0.0000
# 5 0.0000 0.0000 0.0000 0.0000 14.2706 0.0000
# 6 0.0000 0.0000 0.0000 0.0000 0.0000 32.2682
#
#
#
# Elastic Compliance Matrix: (Units=1/GPa)
#
#
# Indices 1 2 3 4 5 6 
#
# 1 0.010282 -0.005213 -0.000226 0.000000 0.000000 0.000000
# 2 -0.005213 0.010282 -0.000226 0.000000 0.000000 0.000000
# 3 -0.000226 -0.000226 0.012397 0.000000 0.000000 0.000000
# 4 0.000000 0.000000 0.000000 0.070074 0.000000 0.000000
# 5 0.000000 0.000000 0.000000 0.000000 0.070074 0.000000
# 6 0.000000 0.000000 0.000000 0.000000 0.000000 0.030990
#
#
# Mechanical properties :
#
#
# Convention : Reuss Voigt Hill
#
# Bulk Modulus (GPa) = 46.22875 54.49183 50.36029
# Shear Modulus (GPa) = 22.45796 30.11006 26.28401
#
# Velocity S-wave (km/s) = 3.04399 3.52464 3.29310
# Velocity P-wave (km/s) = 5.60607 6.24875 5.93611
#
# Compressibility (1/GPa) = 0.02163156
#
# Stress axis : x y z
#
# Youngs Moduli (GPa) = 97.26015 97.26015 80.66425
#
# Poissons Ratio (x) = 0.50706 0.01819
# Poissons Ratio (y) = 0.50706 0.01819
# Poissons Ratio (z) = 0.02193 0.02193
#
# Static dielectric constant tensor:
#      x y z
#    x 1.942050 0.000000 0.000000 
#    y 0.000000 1.942050 0.000000 
#    z 0.000000 0.000000 2.041520 
# 
# From -- ./inp_files/6096.got.cif
#   From: 2010.05.17/outbox.cif.g08.bks.cpg/sg180_4_cif.got.tgz:6096.got - 2010.05.20 11:43:55.
