data_PCOD9583377
_publ_section_title
;
Structure prediction by ZEFSAII (Michael W. Deem and Ramdas Pophale) SiO2 
 PCOD9583377
Probable space group: P 65 2 2
;
_chemical_formula_sum "Si O2"
_cell_formula_units_Z 48
_cell_length_a 19.258917
_cell_length_b 19.258917
_cell_length_c 7.838822
_cell_angle_alpha 90.000000
_cell_angle_beta 90.000000
_cell_angle_gamma 120.000000
_cell_volume 2517.938727
_symmetry_space_group_name_H-M "P 65 2 2"
_symmetry_group_IT_number 179
_symmetry_cell_setting 'hexagonal'
loop_
_space_group_symop_operation_xyz
x,y,z
x-y,x,5/6+z
-y,x-y,2/3+z
-x,-y,1/2+z
-x+y,-x,1/3+z
y,-x+y,1/6+z
x-y,-y,-z
-x,-x+y,1/3-z
y,x,2/3-z
-y,-x,1/6-z
-x+y,y,1/2-z
x,x-y,5/6-z
loop_
_atom_site_type_symbol
_atom_site_label
_atom_site_fract_x
_atom_site_fract_y
_atom_site_fract_z
Si Si1 0.431849 0.273725 0.270548
Si Si2 0.400402 0.616113 0.892368
Si Si3 0.762411 0.524821 0.250000
Si Si4 0.124154 0.161256 0.581488
Si Si5 0.000000 0.732261 0.666667
O O1 0.438100 0.219050 0.416667
O O2 0.519188 0.352610 0.283664
O O3 0.356019 0.279917 0.327889
O O4 0.425504 0.238424 0.080856
O O5 0.384443 0.692222 0.916667
O O6 0.327334 0.538080 0.811343
O O7 0.408234 0.591767 0.083334
O O8 0.134262 0.085893 0.626943
O O9 0.094739 0.189477 0.750000
O O10 0.207396 0.223732 0.492177
#
# Coordination Sequence:
#
# PCOD9583377 Si02
#       5
#    12  12   6  12   6
#     4  11  24  40  64  93 133 174 219 275 334 405
#     4  11  18  35  65 100 124 155 218 295 336 367
#     4  12  20  38  72  98 122 170 236 282 340 384
#     4  10  22  40  68  96 122 160 221 280 337 389
#     4  12  26  44  58  90 144 180 208 266 340 430
#
# _framework density 19.063210999999999
#
# number of rings (size 3 to 8) (size 9 to 14) (size 15 to 20)
#    0.000    1.000    6.250    3.000    1.750    6.000 
#    0.000    2.500    0.000    0.000    0.000    0.000 
#    0.000    0.000    0.000    0.000    0.000    0.000 
#
# Total GULP energy -267648.140251 kJ/mol
# GULP energy per Si atom -5576.002922 kJ/mol
# Density = 1.901982 g / cm^3
# Si number density = 19.063211 Si / 1000 Ang^3
#
#
#
# Elastic Constant Matrix: (Units=GPa)
#
#
# Indices 1 2 3 4 5 6 
#
# 1 65.3148 42.1183 23.9679 0.0000 0.0000 0.0000
# 2 42.1183 65.3148 23.9679 0.0000 0.0000 0.0000
# 3 23.9679 23.9679 118.0752 0.0000 0.0000 0.0000
# 4 0.0000 0.0000 0.0000 10.0691 0.0000 0.0000
# 5 0.0000 0.0000 0.0000 0.0000 10.0691 0.0000
# 6 0.0000 0.0000 0.0000 0.0000 0.0000 11.5982
#
#
#
# Elastic Compliance Matrix: (Units=1/GPa)
#
#
# Indices 1 2 3 4 5 6 
#
# 1 0.026673 -0.016437 -0.002078 0.000000 0.000000 0.000000
# 2 -0.016437 0.026673 -0.002078 0.000000 0.000000 0.000000
# 3 -0.002078 -0.002078 0.009313 0.000000 0.000000 0.000000
# 4 0.000000 0.000000 0.000000 0.099314 0.000000 0.000000
# 5 0.000000 0.000000 0.000000 0.000000 0.099314 0.000000
# 6 0.000000 0.000000 0.000000 0.000000 0.000000 0.086220
#
#
# Mechanical properties :
#
#
# Convention : Reuss Voigt Hill
#
# Bulk Modulus (GPa) = 46.57127 47.64587 47.10857
# Shear Modulus (GPa) = 12.63111 16.92400 14.77755
#
# Velocity S-wave (km/s) = 2.57688 2.98280 2.78724
# Velocity P-wave (km/s) = 5.77379 6.07542 5.92652
#
# Compressibility (1/GPa) = 0.02147246
#
# Stress axis : x y z
#
# Youngs Moduli (GPa) = 37.49171 37.49171 107.38088
#
# Poissons Ratio (x) = 0.61627 0.22310
# Poissons Ratio (y) = 0.61627 0.22310
# Poissons Ratio (z) = 0.07789 0.07789
#
# Static dielectric constant tensor:
#      x y z
#    x 1.745470 0.000000 0.000000 
#    y 0.000000 1.745470 0.000000 
#    z 0.000000 0.000000 1.716900 
# 
# From -- ./inp_files/2682.got.cif
#   From: 2010.05.17/outbox.cif.g08.bks.cpg/sg179_2_cif.got.tgz:2682.got - 2010.05.20 11:37:33.
