data_PCOD9583519
_publ_section_title
;
Structure prediction by ZEFSAII (Michael W. Deem and Ramdas Pophale) SiO2 
 PCOD9583519
Probable space group: P 65 2 2
;
_chemical_formula_sum "Si O2"
_cell_formula_units_Z 36
_cell_length_a 17.683243
_cell_length_b 17.683243
_cell_length_c 5.276398
_cell_angle_alpha 90.000000
_cell_angle_beta 90.000000
_cell_angle_gamma 120.000000
_cell_volume 1428.867666
_symmetry_space_group_name_H-M "P 65 2 2"
_symmetry_group_IT_number 179
_symmetry_cell_setting 'hexagonal'
loop_
_space_group_symop_operation_xyz
x,y,z
x-y,x,5/6+z
-y,x-y,2/3+z
-x,-y,1/2+z
-x+y,-x,1/3+z
y,-x+y,1/6+z
x-y,-y,-z
-x,-x+y,1/3-z
y,x,2/3-z
-y,-x,1/6-z
-x+y,y,1/2-z
x,x-y,5/6-z
loop_
_atom_site_type_symbol
_atom_site_label
_atom_site_fract_x
_atom_site_fract_y
_atom_site_fract_z
Si Si1 0.086490 0.400290 0.300589
Si Si2 0.961866 0.798592 0.892710
Si Si3 0.501069 0.332252 0.983786
O O1 0.062884 0.303072 0.381008
O O2 0.000000 0.390978 0.166667
O O3 0.150747 0.436286 0.056934
O O4 0.063331 0.193926 0.078068
O O5 0.883396 0.543824 0.058288
O O6 0.000000 0.831687 0.166667
O O7 0.575111 0.424890 0.083334
O O8 0.540062 0.270031 0.916667
#
# Coordination Sequence:
#
# PCOD9583519 Si02
#       3
#    12  12  12
#     4  11  24  43  68  99 132 172 221 285 354 404
#     4  11  22  39  65  96 132 171 217 270 331 401
#     4  12  26  44  68  95 132 179 230 283 339 411
#
# _framework density 25.194776999999998
#
# number of rings (size 3 to 8) (size 9 to 14) (size 15 to 20)
#    0.000    0.667    0.000   10.000    0.000    5.333 
#    0.000    1.667    0.000    2.000    0.000    0.000 
#    0.000    0.000    0.000    0.000    0.000    0.000 
#
# Total GULP energy -201213.396094 kJ/mol
# GULP energy per Si atom -5589.261003 kJ/mol
# Density = 2.513743 g / cm^3
# Si number density = 25.194777 Si / 1000 Ang^3
#
#
#
# Elastic Constant Matrix: (Units=GPa)
#
#
# Indices 1 2 3 4 5 6 
#
# 1 132.7137 77.0390 87.0684 0.0000 0.0000 0.0000
# 2 77.0390 132.7137 87.0684 0.0000 0.0000 0.0000
# 3 87.0684 87.0684 298.2319 0.0000 0.0000 0.0000
# 4 0.0000 0.0000 0.0000 48.2058 0.0000 0.0000
# 5 0.0000 0.0000 0.0000 0.0000 48.2058 0.0000
# 6 0.0000 0.0000 0.0000 0.0000 0.0000 27.8373
#
#
#
# Elastic Compliance Matrix: (Units=1/GPa)
#
#
# Indices 1 2 3 4 5 6 
#
# 1 0.012127 -0.005834 -0.001837 0.000000 0.000000 0.000000
# 2 -0.005834 0.012127 -0.001837 0.000000 0.000000 0.000000
# 3 -0.001837 -0.001837 0.004426 0.000000 0.000000 0.000000
# 4 0.000000 0.000000 0.000000 0.020744 0.000000 0.000000
# 5 0.000000 0.000000 0.000000 0.000000 0.020744 0.000000
# 6 0.000000 0.000000 0.000000 0.000000 0.000000 0.035923
#
#
# Mechanical properties :
#
#
# Convention : Reuss Voigt Hill
#
# Bulk Modulus (GPa) = 103.49137 118.44565 110.96851
# Shear Modulus (GPa) = 38.96203 45.68200 42.32202
#
# Velocity S-wave (km/s) = 3.93674 4.26273 4.10297
# Velocity P-wave (km/s) = 7.86318 8.44641 8.16001
#
# Compressibility (1/GPa) = 0.00966264
#
# Stress axis : x y z
#
# Youngs Moduli (GPa) = 82.45991 82.45991 225.94771
#
# Poissons Ratio (x) = 0.48110 0.41510
# Poissons Ratio (y) = 0.48110 0.41510
# Poissons Ratio (z) = 0.15149 0.15149
#
# Static dielectric constant tensor:
#      x y z
#    x 2.051410 0.000000 0.000000 
#    y 0.000000 2.051410 0.000000 
#    z 0.000000 0.000000 1.871650 
# 
# From -- ./inp_files/614.got.cif
#   From: 2010.05.17/outbox.cif.g08.bks.cpg/sg179_1_cif.got.tgz:614.got - 2010.05.20 11:37:33.
