data_PCOD9583333
_publ_section_title
;
Structure prediction by ZEFSAII (Michael W. Deem and Ramdas Pophale) SiO2 
 PCOD9583333
Probable space group: P 65 2 2
;
_chemical_formula_sum "Si O2"
_cell_formula_units_Z 48
_cell_length_a 16.938331
_cell_length_b 16.938331
_cell_length_c 8.479837
_cell_angle_alpha 90.000000
_cell_angle_beta 90.000000
_cell_angle_gamma 120.000000
_cell_volume 2106.974923
_symmetry_space_group_name_H-M "P 65 2 2"
_symmetry_group_IT_number 179
_symmetry_cell_setting 'hexagonal'
loop_
_space_group_symop_operation_xyz
x,y,z
x-y,x,5/6+z
-y,x-y,2/3+z
-x,-y,1/2+z
-x+y,-x,1/3+z
y,-x+y,1/6+z
x-y,-y,-z
-x,-x+y,1/3-z
y,x,2/3-z
-y,-x,1/6-z
-x+y,y,1/2-z
x,x-y,5/6-z
loop_
_atom_site_type_symbol
_atom_site_label
_atom_site_fract_x
_atom_site_fract_y
_atom_site_fract_z
Si Si1 0.398865 0.473424 0.202394
Si Si2 0.015250 0.686679 0.992713
Si Si3 0.954674 0.131915 0.412738
Si Si4 0.361011 0.534643 0.735811
O O1 0.416143 0.416143 0.333334
O O2 0.412502 0.564645 0.289703
O O3 0.482959 0.517042 0.083334
O O4 0.321915 0.396830 0.089247
O O5 0.090368 0.657428 0.033081
O O6 0.000000 0.713489 0.166667
O O7 0.049372 0.776043 0.887794
O O8 0.908741 0.091260 0.583334
O O9 0.058085 0.155986 0.444784
O O10 0.406819 0.593182 0.583334
O O11 0.264093 0.528186 0.750000
#
# Coordination Sequence:
#
# PCOD9583333 Si02
#       4
#    12  12  12  12
#     4  12  20  41  72  99 136 188 239 296 355 415
#     4  12  21  39  75 105 133 184 251 286 344 438
#     4  10  21  40  72 103 139 182 228 286 361 435
#     4  12  26  44  67 100 143 192 240 298 364 422
#
# _framework density 22.781475
#
# number of rings (size 3 to 8) (size 9 to 14) (size 15 to 20)
#    0.000    0.500   10.000    0.750    0.000    1.000 
#    0.000    0.000   22.000    0.000    0.000    0.000 
#    0.000    0.000    0.000    0.000    0.000    0.000 
#
# Total GULP energy -267477.176319 kJ/mol
# GULP energy per Si atom -5572.441173 kJ/mol
# Density = 2.272962 g / cm^3
# Si number density = 22.781475 Si / 1000 Ang^3
#
#
#
# Elastic Constant Matrix: (Units=GPa)
#
#
# Indices 1 2 3 4 5 6 
#
# 1 107.4676 37.6217 30.3471 0.0000 0.0000 0.0000
# 2 37.6217 107.4676 30.3471 0.0000 0.0000 0.0000
# 3 30.3471 30.3471 86.0452 0.0000 0.0000 0.0000
# 4 0.0000 0.0000 0.0000 17.0260 0.0000 0.0000
# 5 0.0000 0.0000 0.0000 0.0000 17.0260 0.0000
# 6 0.0000 0.0000 0.0000 0.0000 0.0000 34.9229
#
#
#
# Elastic Compliance Matrix: (Units=1/GPa)
#
#
# Indices 1 2 3 4 5 6 
#
# 1 0.011201 -0.003116 -0.002852 0.000000 0.000000 0.000000
# 2 -0.003116 0.011201 -0.002852 0.000000 0.000000 0.000000
# 3 -0.002852 -0.002852 0.013633 0.000000 0.000000 0.000000
# 4 0.000000 0.000000 0.000000 0.058734 0.000000 0.000000
# 5 0.000000 0.000000 0.000000 0.000000 0.058734 0.000000
# 6 0.000000 0.000000 0.000000 0.000000 0.000000 0.028634
#
#
# Mechanical properties :
#
#
# Convention : Reuss Voigt Hill
#
# Bulk Modulus (GPa) = 54.35553 55.29021 54.82287
# Shear Modulus (GPa) = 24.28263 27.30594 25.79429
#
# Velocity S-wave (km/s) = 3.26834 3.46584 3.36854
# Velocity P-wave (km/s) = 6.17690 6.35126 6.26469
#
# Compressibility (1/GPa) = 0.01839739
#
# Stress axis : x y z
#
# Youngs Moduli (GPa) = 89.27611 89.27611 73.35037
#
# Poissons Ratio (x) = 0.27819 0.20916
# Poissons Ratio (y) = 0.27819 0.20916
# Poissons Ratio (z) = 0.25457 0.25457
#
# Static dielectric constant tensor:
#      x y z
#    x 1.929050 0.000000 0.000000 
#    y 0.000000 1.929050 0.000000 
#    z 0.000000 0.000000 1.932240 
# 
# From -- ./inp_files/2577.got.cif
#   From: 2010.05.17/outbox.cif.g08.bks.cpg/sg179_2_cif.got.tgz:2577.got - 2010.05.20 11:37:33.
