data_PCOD9583222
_publ_section_title
;
Structure prediction by ZEFSAII (Michael W. Deem and Ramdas Pophale) SiO2 
 PCOD9583222
Probable space group: P 65 2 2
;
_chemical_formula_sum "Si O2"
_cell_formula_units_Z 66
_cell_length_a 13.904698
_cell_length_b 13.904698
_cell_length_c 16.942336
_cell_angle_alpha 90.000000
_cell_angle_beta 90.000000
_cell_angle_gamma 120.000000
_cell_volume 2836.789061
_symmetry_space_group_name_H-M "P 65 2 2"
_symmetry_group_IT_number 179
_symmetry_cell_setting 'hexagonal'
loop_
_space_group_symop_operation_xyz
x,y,z
x-y,x,5/6+z
-y,x-y,2/3+z
-x,-y,1/2+z
-x+y,-x,1/3+z
y,-x+y,1/6+z
x-y,-y,-z
-x,-x+y,1/3-z
y,x,2/3-z
-y,-x,1/6-z
-x+y,y,1/2-z
x,x-y,5/6-z
loop_
_atom_site_type_symbol
_atom_site_label
_atom_site_fract_x
_atom_site_fract_y
_atom_site_fract_z
Si Si1 0.492715 0.084216 0.073683
Si Si2 0.694101 0.388202 0.750000
Si Si3 0.358020 0.641981 0.083334
Si Si4 0.674928 0.806671 0.329178
Si Si5 0.023374 0.023374 0.333334
Si Si6 0.606552 0.709220 0.104422
Si Si7 0.198400 0.950727 0.315265
O O1 0.622322 0.171706 0.083719
O O2 0.428434 0.043332 0.158807
O O3 0.437155 0.157588 0.047293
O O4 0.466963 0.000000 0.000000
O O5 0.657962 0.321935 0.832520
O O6 0.490382 0.697192 0.080318
O O7 0.746203 0.746203 0.333334
O O8 0.651724 0.825862 0.416667
O O9 0.743221 0.914479 0.276778
O O10 0.980197 0.960394 0.250000
O O11 0.016150 0.135657 0.324117
O O12 0.669894 0.697387 0.028551
O O13 0.684348 0.835544 0.137354
#
# Coordination Sequence:
#
# PCOD9583222 Si02
#       7
#    12   6   6  12   6  12  12
#     4   9  19  38  64  97 134 171 222 286 352 427
#     4  10  22  44  73  98 136 172 229 294 356 418
#     4  10  24  50  67 100 134 180 237 302 354 426
#     4  10  20  32  55  91 129 171 215 277 344 401
#     4  12  26  38  60  96 138 184 232 268 332 430
#     4  10  22  43  63  94 142 177 237 288 357 417
#     4  11  21  38  61  95 136 184 227 281 341 420
#
# _framework density 23.265741999999999
#
# number of rings (size 3 to 8) (size 9 to 14) (size 15 to 20)
#    0.000    1.818    1.818    3.273    2.545    0.000 
#   11.455    3.636    0.000    0.000    0.000    0.000 
#    0.000    0.000    0.000    0.000    0.000    0.000 
#
# Total GULP energy -367540.705044 kJ/mol
# GULP energy per Si atom -5568.798561 kJ/mol
# Density = 2.321279 g / cm^3
# Si number density = 23.265742 Si / 1000 Ang^3
#
#
#
# Elastic Constant Matrix: (Units=GPa)
#
#
# Indices 1 2 3 4 5 6 
#
# 1 68.6184 59.6636 11.0681 0.0000 0.0000 0.0000
# 2 59.6636 68.6184 11.0681 0.0000 0.0000 0.0000
# 3 11.0681 11.0681 128.5778 0.0000 0.0000 0.0000
# 4 0.0000 0.0000 0.0000 23.8690 0.0000 0.0000
# 5 0.0000 0.0000 0.0000 0.0000 23.8690 0.0000
# 6 0.0000 0.0000 0.0000 0.0000 0.0000 4.4774
#
#
#
# Elastic Compliance Matrix: (Units=1/GPa)
#
#
# Indices 1 2 3 4 5 6 
#
# 1 0.059792 -0.051879 -0.000681 0.000000 0.000000 0.000000
# 2 -0.051879 0.059792 -0.000681 0.000000 0.000000 0.000000
# 3 -0.000681 -0.000681 0.007895 0.000000 0.000000 0.000000
# 4 0.000000 0.000000 0.000000 0.041895 0.000000 0.000000
# 5 0.000000 0.000000 0.000000 0.000000 0.041895 0.000000
# 6 0.000000 0.000000 0.000000 0.000000 0.000000 0.223342
#
#
# Mechanical properties :
#
#
# Convention : Reuss Voigt Hill
#
# Bulk Modulus (GPa) = 47.62858 47.71269 47.67063
# Shear Modulus (GPa) = 9.12253 22.71073 15.91663
#
# Velocity S-wave (km/s) = 1.98230 3.12772 2.61841
# Velocity P-wave (km/s) = 5.07497 5.79618 5.44753
#
# Compressibility (1/GPa) = 0.02099580
#
# Stress axis : x y z
#
# Youngs Moduli (GPa) = 16.72464 16.72464 126.66786
#
# Poissons Ratio (x) = 0.86766 0.08628
# Poissons Ratio (y) = 0.86766 0.08628
# Poissons Ratio (z) = 0.01139 0.01139
#
# Static dielectric constant tensor:
#      x y z
#    x 1.926360 0.000000 0.000000 
#    y 0.000000 1.926360 0.000000 
#    z 0.000000 0.000000 1.885060 
# 
# From -- ./inp_files/6790.got.cif
#   From: 2010.05.17/outbox.cif.g08.bks.cpg/sg179_4_cif.got.tgz:6790.got - 2010.05.20 11:37:33.
