data_PCOD9583381
_publ_section_title
;
Structure prediction by ZEFSAII (Michael W. Deem and Ramdas Pophale) SiO2 
 PCOD9583381
Probable space group: P 65 2 2
;
_chemical_formula_sum "Si O2"
_cell_formula_units_Z 72
_cell_length_a 22.481106
_cell_length_b 22.481106
_cell_length_c 8.822028
_cell_angle_alpha 90.000000
_cell_angle_beta 90.000000
_cell_angle_gamma 120.000000
_cell_volume 3861.307693
_symmetry_space_group_name_H-M "P 65 2 2"
_symmetry_group_IT_number 179
_symmetry_cell_setting 'hexagonal'
loop_
_space_group_symop_operation_xyz
x,y,z
x-y,x,5/6+z
-y,x-y,2/3+z
-x,-y,1/2+z
-x+y,-x,1/3+z
y,-x+y,1/6+z
x-y,-y,-z
-x,-x+y,1/3-z
y,x,2/3-z
-y,-x,1/6-z
-x+y,y,1/2-z
x,x-y,5/6-z
loop_
_atom_site_type_symbol
_atom_site_label
_atom_site_fract_x
_atom_site_fract_y
_atom_site_fract_z
Si Si1 0.484379 0.827046 0.002423
Si Si2 0.655315 0.000000 0.000000
Si Si3 0.684124 0.368248 0.750000
Si Si4 0.025359 0.442920 0.898146
Si Si5 0.888672 0.498473 0.119436
Si Si6 0.871528 0.628270 0.828850
Si Si7 0.465094 0.243717 0.741345
O O1 0.498705 0.794781 0.156840
O O2 0.421471 0.764433 0.918948
O O3 0.456427 0.880906 0.992571
O O4 0.553730 0.848436 0.912318
O O5 0.593360 0.964851 0.122623
O O6 0.718391 0.049983 0.108377
O O7 0.668513 0.331488 0.583334
O O8 0.037094 0.518547 0.916667
O O9 0.078776 0.452918 0.766637
O O10 0.946379 0.403361 0.839482
O O11 0.815983 0.489527 0.074241
O O12 0.830084 0.660167 0.750000
O O13 0.836035 0.604947 0.992803
O O14 0.453009 0.226505 0.916667
#
# Coordination Sequence:
#
# PCOD9583381 Si02
#       7
#    12   6   6  12  12  12  12
#     4  11  23  42  56  73 108 149 188 249 314 378
#     4  12  22  40  66  86 112 148 194 244 310 380
#     4  12  26  42  54  76 104 146 202 254 316 388
#     4  11  23  38  57  88 106 142 184 253 318 375
#     4  11  25  39  58  79 114 141 194 248 313 383
#     4  10  22  41  60  83 111 146 185 238 301 367
#     4  11  24  40  57  80 109 148 191 242 308 381
#
# _framework density 18.646533000000002
#
# number of rings (size 3 to 8) (size 9 to 14) (size 15 to 20)
#    0.000    1.000    4.167    4.000    7.000    2.667 
#    0.000    0.000    0.000    0.000    0.000    0.000 
#    0.000    0.000    0.000    0.000    0.000    0.000 
#
# Total GULP energy -401115.009255 kJ/mol
# GULP energy per Si atom -5571.041795 kJ/mol
# Density = 1.860409 g / cm^3
# Si number density = 18.646533 Si / 1000 Ang^3
#
#
#
# Elastic Constant Matrix: (Units=GPa)
#
#
# Indices 1 2 3 4 5 6 
#
# 1 46.2904 6.3997 17.5987 0.0000 0.0000 0.0000
# 2 6.3997 46.2904 17.5987 0.0000 0.0000 0.0000
# 3 17.5987 17.5987 129.6616 0.0000 0.0000 0.0000
# 4 0.0000 0.0000 0.0000 23.8786 0.0000 0.0000
# 5 0.0000 0.0000 0.0000 0.0000 23.8786 0.0000
# 6 0.0000 0.0000 0.0000 0.0000 0.0000 19.9453
#
#
#
# Elastic Compliance Matrix: (Units=1/GPa)
#
#
# Indices 1 2 3 4 5 6 
#
# 1 0.022970 -0.002099 -0.002833 0.000000 0.000000 0.000000
# 2 -0.002099 0.022970 -0.002833 0.000000 0.000000 0.000000
# 3 -0.002833 -0.002833 0.008481 0.000000 0.000000 0.000000
# 4 0.000000 0.000000 0.000000 0.041879 0.000000 0.000000
# 5 0.000000 0.000000 0.000000 0.000000 0.041879 0.000000
# 6 0.000000 0.000000 0.000000 0.000000 0.000000 0.050137
#
#
# Mechanical properties :
#
#
# Convention : Reuss Voigt Hill
#
# Bulk Modulus (GPa) = 25.71185 33.93740 29.82463
# Shear Modulus (GPa) = 23.06189 25.58352 24.32271
#
# Velocity S-wave (km/s) = 3.52062 3.70810 3.61558
# Velocity P-wave (km/s) = 5.50866 6.04759 5.78440
#
# Compressibility (1/GPa) = 0.03889257
#
# Stress axis : x y z
#
# Youngs Moduli (GPa) = 43.53531 43.53531 117.90556
#
# Poissons Ratio (x) = 0.09137 0.33400
# Poissons Ratio (y) = 0.09137 0.33400
# Poissons Ratio (z) = 0.12333 0.12333
#
# Static dielectric constant tensor:
#      x y z
#    x 1.733590 0.000000 0.000000 
#    y 0.000000 1.733590 0.000000 
#    z 0.000000 0.000000 1.787410 
# 
# From -- ./inp_files/3644.got.cif
#   From: 2010.05.17/outbox.cif.g08.bks.cpg/sg179_2_cif.got.tgz:3644.got - 2010.05.20 11:37:33.
