data_PCOD9583882
_publ_section_title
;
Structure prediction by ZEFSAII (Michael W. Deem and Ramdas Pophale) SiO2 
 PCOD9583882
Probable space group: P 62 2 2
;
_chemical_formula_sum "Si O2"
_cell_formula_units_Z 75
_cell_length_a 11.463971
_cell_length_b 11.463971
_cell_length_c 33.808801
_cell_angle_alpha 90.000000
_cell_angle_beta 90.000000
_cell_angle_gamma 120.000000
_cell_volume 3847.960085
_symmetry_space_group_name_H-M "P 62 2 2"
_symmetry_group_IT_number 180
_symmetry_cell_setting 'hexagonal'
loop_
_space_group_symop_operation_xyz
x,y,z
x-y,x,1/3+z
-y,x-y,2/3+z
-x,-y,z
-x+y,-x,1/3+z
y,-x+y,2/3+z
x-y,-y,-z
-x,-x+y,1/3-z
y,x,2/3-z
-y,-x,2/3-z
-x+y,y,-z
x,x-y,1/3-z
loop_
_atom_site_type_symbol
_atom_site_label
_atom_site_fract_x
_atom_site_fract_y
_atom_site_fract_z
Si Si1 0.615266 0.384735 0.333334
Si Si2 0.346855 0.445072 0.136258
Si Si3 0.302438 0.302438 0.333334
Si Si4 0.193305 0.345607 0.546129
Si Si5 0.152431 0.035790 0.924646
Si Si6 0.397459 0.170861 0.455043
Si Si7 0.677216 0.304009 0.913954
Si Si8 0.000000 0.500000 0.166667
O O1 0.453076 0.323143 0.334784
O O2 0.645183 0.324414 0.294196
O O3 0.500000 0.500000 0.151510
O O4 0.329269 0.321460 0.109871
O O5 0.242770 0.384147 0.172139
O O6 0.337128 0.562526 0.112438
O O7 0.213695 0.220497 0.295511
O O8 0.188274 0.376548 0.500000
O O9 0.205500 0.470444 0.570488
O O10 0.064911 0.208031 0.557099
O O11 0.265189 0.177167 0.905203
O O12 0.000000 0.000000 0.933281
O O13 0.521732 0.289939 0.431671
O O14 0.456661 0.081535 0.471501
#
# Coordination Sequence:
#
# PCOD9583882 Si02
#       8
#     6  12   6  12  12  12  12   3
#     4  11  22  38  76 100 124 170 237 296 332 399
#     4  10  21  38  65  96 134 168 209 277 352 402
#     4  11  23  46  66  98 133 177 232 290 344 391
#     4  11  22  38  65 101 136 167 215 282 348 413
#     4  12  27  41  67  94 138 185 230 277 339 414
#     4  12  24  41  68  96 135 181 222 278 342 412
#     4  11  21  40  67  99 129 171 224 284 344 390
#     4  12  28  44  62  96 144 184 222 254 352 440
#
# _framework density 19.490846999999999
#
# number of rings (size 3 to 8) (size 9 to 14) (size 15 to 20)
#    0.000    0.800    6.400    2.160    2.240    0.320 
#    0.000    0.000   12.320    0.000    0.000    0.000 
#    0.000    0.000    0.000    0.000    0.000    0.000 
#
# Total GULP energy -418291.161837 kJ/mol
# GULP energy per Si atom -5577.215491 kJ/mol
# Density = 1.944648 g / cm^3
# Si number density = 19.490847 Si / 1000 Ang^3
#
#
#
# Elastic Constant Matrix: (Units=GPa)
#
#
# Indices 1 2 3 4 5 6 
#
# 1 92.1456 34.0277 25.9276 0.0000 0.0000 0.0000
# 2 34.0277 92.1456 25.9276 0.0000 0.0000 0.0000
# 3 25.9276 25.9276 97.8581 0.0000 0.0000 0.0000
# 4 0.0000 0.0000 0.0000 16.2580 0.0000 0.0000
# 5 0.0000 0.0000 0.0000 0.0000 16.2580 0.0000
# 6 0.0000 0.0000 0.0000 0.0000 0.0000 29.0589
#
#
#
# Elastic Compliance Matrix: (Units=1/GPa)
#
#
# Indices 1 2 3 4 5 6 
#
# 1 0.013050 -0.004156 -0.002356 0.000000 0.000000 0.000000
# 2 -0.004156 0.013050 -0.002356 0.000000 0.000000 0.000000
# 3 -0.002356 -0.002356 0.011468 0.000000 0.000000 0.000000
# 4 0.000000 0.000000 0.000000 0.061508 0.000000 0.000000
# 5 0.000000 0.000000 0.000000 0.000000 0.061508 0.000000
# 6 0.000000 0.000000 0.000000 0.000000 0.000000 0.034413
#
#
# Mechanical properties :
#
#
# Convention : Reuss Voigt Hill
#
# Bulk Modulus (GPa) = 50.42923 50.43504 50.43213
# Shear Modulus (GPa) = 22.79508 25.39941 24.09725
#
# Velocity S-wave (km/s) = 3.42355 3.61383 3.51997
# Velocity P-wave (km/s) = 6.44647 6.58373 6.51546
#
# Compressibility (1/GPa) = 0.01982977
#
# Stress axis : x y z
#
# Youngs Moduli (GPa) = 76.62690 76.62690 87.20230
#
# Poissons Ratio (x) = 0.31847 0.20549
# Poissons Ratio (y) = 0.31847 0.20549
# Poissons Ratio (z) = 0.18057 0.18057
#
# Static dielectric constant tensor:
#      x y z
#    x 1.758620 0.000000 0.000000 
#    y 0.000000 1.758620 0.000000 
#    z 0.000000 0.000000 1.649450 
# 
# From -- ./inp_files/12395.got.cif
#   From: 2010.05.17/outbox.cif.g08.bks.cpg/sg180_7_cif.got.tgz:12395.got - 2010.05.20 11:43:55.
