data_PCOD9583460
_publ_section_title
;
Structure prediction by ZEFSAII (Michael W. Deem and Ramdas Pophale) SiO2 
 PCOD9583460
Probable space group: P 65 2 2
;
_chemical_formula_sum "Si O2"
_cell_formula_units_Z 42
_cell_length_a 7.832194
_cell_length_b 7.832194
_cell_length_c 33.864359
_cell_angle_alpha 90.000000
_cell_angle_beta 90.000000
_cell_angle_gamma 120.000000
_cell_volume 1799.038111
_symmetry_space_group_name_H-M "P 65 2 2"
_symmetry_group_IT_number 179
_symmetry_cell_setting 'hexagonal'
loop_
_space_group_symop_operation_xyz
x,y,z
x-y,x,5/6+z
-y,x-y,2/3+z
-x,-y,1/2+z
-x+y,-x,1/3+z
y,-x+y,1/6+z
x-y,-y,-z
-x,-x+y,1/3-z
y,x,2/3-z
-y,-x,1/6-z
-x+y,y,1/2-z
x,x-y,5/6-z
loop_
_atom_site_type_symbol
_atom_site_label
_atom_site_fract_x
_atom_site_fract_y
_atom_site_fract_z
Si Si1 0.731314 0.632005 0.598173
Si Si2 0.403705 0.605331 0.992155
Si Si3 0.184877 0.369754 0.250000
Si Si4 0.122390 0.784993 0.981783
O O1 0.595899 0.404102 0.583334
O O2 0.677318 0.584846 0.643921
O O3 0.675341 0.752510 0.565962
O O4 0.963762 0.731411 0.597729
O O5 0.494501 0.662885 0.949312
O O6 0.276600 0.715001 0.995238
O O7 0.286005 0.372466 0.999512
O O8 0.199824 0.000000 0.000000
#
# Coordination Sequence:
#
# PCOD9583460 Si02
#       4
#    12  12   6  12
#     4  10  24  45  70 108 159 200 268 340 406 497
#     4  11  25  46  75 114 160 202 272 346 414 495
#     4  12  24  42  80 106 150 216 260 342 420 488
#     4  11  25  49  78 113 157 215 276 339 423 511
#
# _framework density 23.345808999999999
#
# number of rings (size 3 to 8) (size 9 to 14) (size 15 to 20)
#    0.000    1.143    0.000    6.000    6.000    6.857 
#    0.000    1.429    0.000    0.000    0.000    0.000 
#    0.000    0.000    0.000    0.000    0.000    0.000 
#
# Total GULP energy -234300.884341 kJ/mol
# GULP energy per Si atom -5578.592484 kJ/mol
# Density = 2.329267 g / cm^3
# Si number density = 23.345809 Si / 1000 Ang^3
#
#
#
# Elastic Constant Matrix: (Units=GPa)
#
#
# Indices 1 2 3 4 5 6 
#
# 1 59.3579 33.0972 39.4711 0.0000 0.0000 0.0000
# 2 33.0972 59.3579 39.4711 0.0000 0.0000 0.0000
# 3 39.4711 39.4711 141.7783 0.0000 0.0000 0.0000
# 4 0.0000 0.0000 0.0000 -11.4128 0.0000 0.0000
# 5 0.0000 0.0000 0.0000 0.0000 -11.4128 0.0000
# 6 0.0000 0.0000 0.0000 0.0000 0.0000 13.1303
#
#
#
# Elastic Compliance Matrix: (Units=1/GPa)
#
#
# Indices 1 2 3 4 5 6 
#
# 1 0.026134 -0.011945 -0.003950 0.000000 0.000000 0.000000
# 2 -0.011945 0.026134 -0.003950 0.000000 0.000000 0.000000
# 3 -0.003950 -0.003950 0.009253 0.000000 0.000000 0.000000
# 4 0.000000 0.000000 0.000000 -0.087621 0.000000 0.000000
# 5 0.000000 0.000000 0.000000 0.000000 -0.087621 0.000000
# 6 0.000000 0.000000 0.000000 0.000000 0.000000 0.076160
#
#
# Mechanical properties :
#
#
# Convention : Reuss Voigt Hill
#
# Bulk Modulus (GPa) = 45.80898 53.84141 49.82520
# Shear Modulus (GPa) = 531.46820 7.95791 269.71306
#
# Velocity S-wave (km/s) = 15.10446 1.84827 10.76013
# Velocity P-wave (km/s) = 17.99604 5.25999 13.25754
#
# Compressibility (1/GPa) = 0.02182978
#
# Stress axis : x y z
#
# Youngs Moduli (GPa) = 38.26384 38.26384 108.07625
#
# Poissons Ratio (x) = 0.45708 0.42692
# Poissons Ratio (y) = 0.45708 0.42692
# Poissons Ratio (z) = 0.15115 0.15115
#
# Static dielectric constant tensor:
#      x y z
#    x 2.022710 0.000000 0.000000 
#    y 0.000000 2.022710 0.000000 
#    z 0.000000 0.000000 2.784260 
# 
# From -- ./inp_files/9319.got.cif
#   From: 2010.05.17/outbox.cif.g08.bks.cpg/sg179_5_cif.got.tgz:9319.got - 2010.05.20 11:37:33.
