data_PCOD9583167
_publ_section_title
;
Structure prediction by ZEFSAII (Michael W. Deem and Ramdas Pophale) SiO2 
 PCOD9583167
Probable space group: P 65 2 2
;
_chemical_formula_sum "Si O2"
_cell_formula_units_Z 84
_cell_length_a 14.321929
_cell_length_b 14.321929
_cell_length_c 22.934103
_cell_angle_alpha 90.000000
_cell_angle_beta 90.000000
_cell_angle_gamma 120.000000
_cell_volume 4073.947454
_symmetry_space_group_name_H-M "P 65 2 2"
_symmetry_group_IT_number 179
_symmetry_cell_setting 'hexagonal'
loop_
_space_group_symop_operation_xyz
x,y,z
x-y,x,5/6+z
-y,x-y,2/3+z
-x,-y,1/2+z
-x+y,-x,1/3+z
y,-x+y,1/6+z
x-y,-y,-z
-x,-x+y,1/3-z
y,x,2/3-z
-y,-x,1/6-z
-x+y,y,1/2-z
x,x-y,5/6-z
loop_
_atom_site_type_symbol
_atom_site_label
_atom_site_fract_x
_atom_site_fract_y
_atom_site_fract_z
Si Si1 0.551593 0.116764 0.030597
Si Si2 0.294931 0.315044 0.525594
Si Si3 0.360896 0.204320 0.788298
Si Si4 0.829288 0.678032 0.562357
Si Si5 0.501706 0.511458 0.691696
Si Si6 0.449404 0.678128 0.755463
Si Si7 0.017274 0.295809 0.801205
O O1 0.480067 0.174274 0.037075
O O2 0.570128 0.082559 0.093844
O O3 0.652132 0.185818 0.988713
O O4 0.476441 0.000000 0.000000
O O5 0.232034 0.351112 0.571573
O O6 0.246417 0.303506 0.460639
O O7 0.284236 0.203195 0.546099
O O8 0.417054 0.414160 0.524233
O O9 0.291874 0.256228 0.762161
O O10 0.324556 0.136422 0.847750
O O11 0.759193 0.548214 0.565503
O O12 0.795553 0.733674 0.512523
O O13 0.455602 0.585224 0.718643
O O14 0.394364 0.398256 0.681770
O O15 0.336599 0.673197 0.750000
#
# Coordination Sequence:
#
# PCOD9583167 Si02
#       7
#    12  12  12  12  12  12  12
#     4   9  18  33  50  73 110 141 174 217 264 324
#     4   9  18  33  51  73 103 139 186 227 274 326
#     4   9  17  30  49  74 102 139 178 219 270 320
#     4   9  19  31  50  73 102 142 184 226 277 320
#     4   9  18  31  49  69 101 147 179 224 269 311
#     4  10  19  30  47  73 105 144 181 218 263 320
#     4   9  17  30  49  72 104 139 180 224 267 326
#
# _framework density 20.618822999999999
#
# number of rings (size 3 to 8) (size 9 to 14) (size 15 to 20)
#    0.000    2.857    0.000    0.857    2.000    1.714 
#    0.000    2.143    0.000    0.000    0.000    0.000 
#    0.000  274.286    0.000    0.000    0.000    0.000 
#
# Total GULP energy -467640.277726 kJ/mol
# GULP energy per Si atom -5567.146163 kJ/mol
# Density = 2.057189 g / cm^3
# Si number density = 20.618823 Si / 1000 Ang^3
#
#
#
# Elastic Constant Matrix: (Units=GPa)
#
#
# Indices 1 2 3 4 5 6 
#
# 1 41.5334 6.5201 16.9027 0.0000 0.0000 0.0000
# 2 6.5201 41.5334 16.9027 0.0000 0.0000 0.0000
# 3 16.9027 16.9027 55.9255 0.0000 0.0000 0.0000
# 4 0.0000 0.0000 0.0000 25.2597 0.0000 0.0000
# 5 0.0000 0.0000 0.0000 0.0000 25.2597 0.0000
# 6 0.0000 0.0000 0.0000 0.0000 0.0000 17.5066
#
#
#
# Elastic Compliance Matrix: (Units=1/GPa)
#
#
# Indices 1 2 3 4 5 6 
#
# 1 0.027495 -0.001065 -0.007988 0.000000 0.000000 0.000000
# 2 -0.001065 0.027495 -0.007988 0.000000 0.000000 0.000000
# 3 -0.007988 -0.007988 0.022709 0.000000 0.000000 0.000000
# 4 0.000000 0.000000 0.000000 0.039589 0.000000 0.000000
# 5 0.000000 0.000000 0.000000 0.000000 0.039589 0.000000
# 6 0.000000 0.000000 0.000000 0.000000 0.000000 0.057121
#
#
# Mechanical properties :
#
#
# Convention : Reuss Voigt Hill
#
# Bulk Modulus (GPa) = 22.92696 24.40482 23.66589
# Shear Modulus (GPa) = 19.03889 20.18298 19.61093
#
# Velocity S-wave (km/s) = 3.04200 3.13207 3.08737
# Velocity P-wave (km/s) = 4.84582 4.99417 4.92055
#
# Compressibility (1/GPa) = 0.04361677
#
# Stress axis : x y z
#
# Youngs Moduli (GPa) = 36.37007 36.37007 44.03447
#
# Poissons Ratio (x) = 0.03875 0.35175
# Poissons Ratio (y) = 0.03875 0.35175
# Poissons Ratio (z) = 0.29052 0.29052
#
# Static dielectric constant tensor:
#      x y z
#    x 1.746210 0.000000 0.000000 
#    y 0.000000 1.746210 0.000000 
#    z 0.000000 0.000000 1.837710 
# 
# From -- ./inp_files/8352.got.cif
#   From: 2010.05.17/outbox.cif.g08.bks.cpg/sg179_5_cif.got.tgz:8352.got - 2010.05.20 11:37:33.
