data_PCOD9583900
_publ_section_title
;
Structure prediction by ZEFSAII (Michael W. Deem and Ramdas Pophale) SiO2 
 PCOD9583900
Probable space group: P 62 2 2
;
_chemical_formula_sum "Si O2"
_cell_formula_units_Z 60
_cell_length_a 12.049119
_cell_length_b 12.049119
_cell_length_c 25.338169
_cell_angle_alpha 90.000000
_cell_angle_beta 90.000000
_cell_angle_gamma 120.000000
_cell_volume 3185.784885
_symmetry_space_group_name_H-M "P 62 2 2"
_symmetry_group_IT_number 180
_symmetry_cell_setting 'hexagonal'
loop_
_space_group_symop_operation_xyz
x,y,z
x-y,x,1/3+z
-y,x-y,2/3+z
-x,-y,z
-x+y,-x,1/3+z
y,-x+y,2/3+z
x-y,-y,-z
-x,-x+y,1/3-z
y,x,2/3-z
-y,-x,2/3-z
-x+y,y,-z
x,x-y,1/3-z
loop_
_atom_site_type_symbol
_atom_site_label
_atom_site_fract_x
_atom_site_fract_y
_atom_site_fract_z
Si Si1 0.720004 0.950808 0.446328
Si Si2 0.179155 0.145784 0.612920
Si Si3 0.948204 0.727015 0.549316
Si Si4 0.398132 0.351678 0.999095
Si Si5 0.556102 0.874794 0.028430
O O1 0.714566 0.815636 0.457122
O O2 0.643016 0.951328 0.394830
O O3 0.689196 0.000000 0.500000
O O4 0.866053 0.056949 0.430864
O O5 0.134142 0.067071 0.666667
O O6 0.088190 0.196021 0.591708
O O7 0.310604 0.272468 0.631295
O O8 0.856952 0.713904 0.500000
O O9 0.908816 0.590824 0.576598
O O10 0.500000 0.500000 0.003134
O O11 0.448355 0.257857 0.018574
O O12 0.432410 0.864819 0.000000
O O13 0.671672 0.000000 0.000000
#
# Coordination Sequence:
#
# PCOD9583900 Si02
#       5
#    12  12  12  12  12
#     4  11  20  33  56  93 128 157 189 258 336 396
#     4   9  20  32  54  89 122 158 200 247 316 394
#     4  11  20  34  60  96 129 156 198 266 339 390
#     4  10  22  39  60  83 120 167 217 262 309 389
#     4  10  21  40  66  87 118 172 225 270 317 384
#
# _framework density 18.833665
#
# number of rings (size 3 to 8) (size 9 to 14) (size 15 to 20)
#    0.000    1.800    4.000    0.600    0.000    5.200 
#    0.000    0.000   30.800    0.000    0.000    0.000 
#    0.000    0.000    0.000    0.000    0.000    0.000 
#
# Total GULP energy -334179.767272 kJ/mol
# GULP energy per Si atom -5569.662788 kJ/mol
# Density = 1.879080 g / cm^3
# Si number density = 18.833665 Si / 1000 Ang^3
#
#
#
# Elastic Constant Matrix: (Units=GPa)
#
#
# Indices 1 2 3 4 5 6 
#
# 1 90.7435 42.8665 17.0734 0.0000 0.0000 0.0000
# 2 42.8665 90.7435 17.0734 0.0000 0.0000 0.0000
# 3 17.0734 17.0734 74.0566 0.0000 0.0000 0.0000
# 4 0.0000 0.0000 0.0000 24.8730 0.0000 0.0000
# 5 0.0000 0.0000 0.0000 0.0000 24.8730 0.0000
# 6 0.0000 0.0000 0.0000 0.0000 0.0000 23.9385
#
#
#
# Elastic Compliance Matrix: (Units=1/GPa)
#
#
# Indices 1 2 3 4 5 6 
#
# 1 0.014420 -0.006467 -0.001834 0.000000 0.000000 0.000000
# 2 -0.006467 0.014420 -0.001834 0.000000 0.000000 0.000000
# 3 -0.001834 -0.001834 0.014349 0.000000 0.000000 0.000000
# 4 0.000000 0.000000 0.000000 0.040204 0.000000 0.000000
# 5 0.000000 0.000000 0.000000 0.000000 0.040204 0.000000
# 6 0.000000 0.000000 0.000000 0.000000 0.000000 0.041774
#
#
# Mechanical properties :
#
#
# Convention : Reuss Voigt Hill
#
# Bulk Modulus (GPa) = 43.62893 45.50782 44.56837
# Shear Modulus (GPa) = 25.86932 26.63889 26.25411
#
# Velocity S-wave (km/s) = 3.71019 3.76497 3.73768
# Velocity P-wave (km/s) = 6.44746 6.56624 6.50712
#
# Compressibility (1/GPa) = 0.02292057
#
# Stress axis : x y z
#
# Youngs Moduli (GPa) = 69.34827 69.34827 69.69308
#
# Poissons Ratio (x) = 0.44847 0.12779
# Poissons Ratio (y) = 0.44847 0.12779
# Poissons Ratio (z) = 0.12715 0.12715
#
# Static dielectric constant tensor:
#      x y z
#    x 1.676000 0.000000 0.000000 
#    y 0.000000 1.676000 0.000000 
#    z 0.000000 0.000000 1.709110 
# 
# From -- ./inp_files/11186.got.cif
#   From: 2010.05.17/outbox.cif.g08.bks.cpg/sg180_6_cif.got.tgz:11186.got - 2010.05.20 11:43:55.
