data_PCOD9583393
_publ_section_title
;
Structure prediction by ZEFSAII (Michael W. Deem and Ramdas Pophale) SiO2 
 PCOD9583393
Probable space group: P 65 2 2
;
_chemical_formula_sum "Si O2"
_cell_formula_units_Z 42
_cell_length_a 11.635358
_cell_length_b 11.635358
_cell_length_c 14.659510
_cell_angle_alpha 90.000000
_cell_angle_beta 90.000000
_cell_angle_gamma 120.000000
_cell_volume 1718.737634
_symmetry_space_group_name_H-M "P 65 2 2"
_symmetry_group_IT_number 179
_symmetry_cell_setting 'hexagonal'
loop_
_space_group_symop_operation_xyz
x,y,z
x-y,x,5/6+z
-y,x-y,2/3+z
-x,-y,1/2+z
-x+y,-x,1/3+z
y,-x+y,1/6+z
x-y,-y,-z
-x,-x+y,1/3-z
y,x,2/3-z
-y,-x,1/6-z
-x+y,y,1/2-z
x,x-y,5/6-z
loop_
_atom_site_type_symbol
_atom_site_label
_atom_site_fract_x
_atom_site_fract_y
_atom_site_fract_z
Si Si1 0.068507 0.188696 0.892925
Si Si2 0.617285 0.479205 0.281636
Si Si3 0.005383 0.610094 0.865223
Si Si4 0.241836 0.758165 0.583334
O O1 0.182498 0.182498 0.833334
O O2 0.941147 0.091267 0.829152
O O3 0.064273 0.323736 0.906272
O O4 0.575323 0.575323 0.333334
O O5 0.766864 0.533728 0.250000
O O6 0.514733 0.406842 0.198254
O O7 0.578261 0.361710 0.352439
O O8 0.938245 0.469123 0.916667
O O9 0.891932 0.609286 0.804334
#
# Coordination Sequence:
#
# PCOD9583393 Si02
#       4
#    12  12  12   6
#     4  10  23  46  75 116 153 198 254 317 389 465
#     4  10  23  45  72 110 151 200 249 313 382 461
#     4  11  24  45  72 111 153 198 249 316 384 459
#     4  10  22  42  74 108 150 198 258 310 384 446
#
# _framework density 24.436541999999999
#
# number of rings (size 3 to 8) (size 9 to 14) (size 15 to 20)
#    0.000    1.714    0.000    2.571    2.000    4.571 
#   10.286    2.857    0.000    0.000    0.000    0.000 
#    0.000    0.000    0.000    0.000    0.000    0.000 
#
# Total GULP energy -234656.304216 kJ/mol
# GULP energy per Si atom -5587.054862 kJ/mol
# Density = 2.438092 g / cm^3
# Si number density = 24.436542 Si / 1000 Ang^3
#
#
#
# Elastic Constant Matrix: (Units=GPa)
#
#
# Indices 1 2 3 4 5 6 
#
# 1 156.7787 77.6892 63.8566 0.0000 0.0000 0.0000
# 2 77.6892 156.7787 63.8566 0.0000 0.0000 0.0000
# 3 63.8566 63.8566 114.8683 0.0000 0.0000 0.0000
# 4 0.0000 0.0000 0.0000 -134.7425 0.0000 0.0000
# 5 0.0000 0.0000 0.0000 0.0000 -134.7425 0.0000
# 6 0.0000 0.0000 0.0000 0.0000 0.0000 39.5448
#
#
#
# Elastic Compliance Matrix: (Units=1/GPa)
#
#
# Indices 1 2 3 4 5 6 
#
# 1 0.009381 -0.003263 -0.003401 0.000000 0.000000 0.000000
# 2 -0.003263 0.009381 -0.003401 0.000000 0.000000 0.000000
# 3 -0.003401 -0.003401 0.012487 0.000000 0.000000 0.000000
# 4 0.000000 0.000000 0.000000 -0.007422 0.000000 0.000000
# 5 0.000000 0.000000 0.000000 0.000000 -0.007422 0.000000
# 6 0.000000 0.000000 0.000000 0.000000 0.000000 0.025288
#
#
# Mechanical properties :
#
#
# Convention : Reuss Voigt Hill
#
# Bulk Modulus (GPa) = 89.94046 93.24784 91.59415
# Shear Modulus (GPa) = 76.30336 -31.11983 22.59177
#
# Velocity S-wave (km/s) = 5.59400 -3.57248 3.04387
# Velocity P-wave (km/s) = 8.86620 4.60708 7.06522
#
# Compressibility (1/GPa) = 0.01111847
#
# Stress axis : x y z
#
# Youngs Moduli (GPa) = 106.60297 106.60297 80.08603
#
# Poissons Ratio (x) = 0.34788 0.27235
# Poissons Ratio (y) = 0.34788 0.27235
# Poissons Ratio (z) = 0.36252 0.36252
#
# Static dielectric constant tensor:
#      x y z
#    x 2.130480 0.000000 0.000000 
#    y 0.000000 2.130480 0.000000 
#    z 0.000000 0.000000 1.755600 
# 
# From -- ./inp_files/6448.got.cif
#   From: 2010.05.17/outbox.cif.g08.bks.cpg/sg179_4_cif.got.tgz:6448.got - 2010.05.20 11:37:33.
