data_PCOD9583100
_publ_section_title
;
Structure prediction by ZEFSAII (Michael W. Deem and Ramdas Pophale) SiO2 
 PCOD9583100
Probable space group: P 65 2 2
;
_chemical_formula_sum "Si O2"
_cell_formula_units_Z 54
_cell_length_a 18.948558
_cell_length_b 18.948558
_cell_length_c 8.777710
_cell_angle_alpha 90.000000
_cell_angle_beta 90.000000
_cell_angle_gamma 120.000000
_cell_volume 2729.381170
_symmetry_space_group_name_H-M "P 65 2 2"
_symmetry_group_IT_number 179
_symmetry_cell_setting 'hexagonal'
loop_
_space_group_symop_operation_xyz
x,y,z
x-y,x,5/6+z
-y,x-y,2/3+z
-x,-y,1/2+z
-x+y,-x,1/3+z
y,-x+y,1/6+z
x-y,-y,-z
-x,-x+y,1/3-z
y,x,2/3-z
-y,-x,1/6-z
-x+y,y,1/2-z
x,x-y,5/6-z
loop_
_atom_site_type_symbol
_atom_site_label
_atom_site_fract_x
_atom_site_fract_y
_atom_site_fract_z
Si Si1 0.388238 0.548496 0.442039
Si Si2 0.873225 0.291644 0.040097
Si Si3 0.679098 0.456873 0.475247
Si Si4 0.888575 0.059600 0.742170
Si Si5 0.000000 0.752943 0.666667
O O1 0.444300 0.555701 0.583334
O O2 0.362643 0.475659 0.324274
O O3 0.303825 0.538196 0.509043
O O4 0.432768 0.632770 0.349659
O O5 0.786866 0.213135 0.083334
O O6 0.940109 0.266427 0.068829
O O7 0.854177 0.315149 0.875663
O O8 0.617907 0.382094 0.583334
O O9 0.892818 0.107183 0.583334
O O10 0.973318 0.104117 0.835460
O O11 0.822778 0.045723 0.872114
#
# Coordination Sequence:
#
# PCOD9583100 Si02
#       5
#    12  12  12  12   6
#     4  10  17  29  50  82 112 140 183 240 292 329
#     4   9  20  35  52  76 106 146 189 222 273 343
#     4   9  16  28  50  77 106 139 180 232 288 336
#     4  10  22  38  62  94 117 138 178 230 285 339
#     4  12  22  40  60  76 114 164 188 220 280 340
#
# _framework density 19.784704999999999
#
# number of rings (size 3 to 8) (size 9 to 14) (size 15 to 20)
#    0.000    2.222    0.000    6.000    0.000    5.333 
#    0.000   12.222    0.000    0.000    0.000    0.000 
#    0.000    0.000    0.000    0.000    0.000    0.000 
#
# Total GULP energy -300846.621451 kJ/mol
# GULP energy per Si atom -5571.233731 kJ/mol
# Density = 1.973967 g / cm^3
# Si number density = 19.784705 Si / 1000 Ang^3
#
#
#
# Elastic Constant Matrix: (Units=GPa)
#
#
# Indices 1 2 3 4 5 6 
#
# 1 54.7207 20.0757 31.0882 0.0000 0.0000 0.0000
# 2 20.0757 54.7207 31.0882 0.0000 0.0000 0.0000
# 3 31.0882 31.0882 110.2636 0.0000 0.0000 0.0000
# 4 0.0000 0.0000 0.0000 -0.3456 0.0000 0.0000
# 5 0.0000 0.0000 0.0000 0.0000 -0.3456 0.0000
# 6 0.0000 0.0000 0.0000 0.0000 0.0000 17.3225
#
#
#
# Elastic Compliance Matrix: (Units=1/GPa)
#
#
# Indices 1 2 3 4 5 6 
#
# 1 0.023163 -0.005701 -0.004923 0.000000 0.000000 0.000000
# 2 -0.005701 0.023163 -0.004923 0.000000 0.000000 0.000000
# 3 -0.004923 -0.004923 0.011845 0.000000 0.000000 0.000000
# 4 0.000000 0.000000 0.000000 -2.893683 0.000000 0.000000
# 5 0.000000 0.000000 0.000000 0.000000 -2.893683 0.000000
# 6 0.000000 0.000000 0.000000 0.000000 0.000000 0.057728
#
#
# Mechanical properties :
#
#
# Convention : Reuss Voigt Hill
#
# Bulk Modulus (GPa) = 36.93245 42.68993 39.81119
# Shear Modulus (GPa) = -0.88789 12.48978 5.80095
#
# Velocity S-wave (km/s) = -0.67063 2.51526 1.71418
# Velocity P-wave (km/s) = 4.25535 5.48265 4.90752
#
# Compressibility (1/GPa) = 0.02707646
#
# Stress axis : x y z
#
# Youngs Moduli (GPa) = 43.17178 43.17178 84.42068
#
# Poissons Ratio (x) = 0.24612 0.41564
# Poissons Ratio (y) = 0.24612 0.41564
# Poissons Ratio (z) = 0.21255 0.21255
#
# Static dielectric constant tensor:
#      x y z
#    x 1.730480 0.000000 0.000000 
#    y 0.000000 1.730480 0.000000 
#    z 0.000000 0.000000 1.749950 
# 
# From -- ./inp_files/3122.got.cif
#   From: 2010.05.17/outbox.cif.g08.bks.cpg/sg179_2_cif.got.tgz:3122.got - 2010.05.20 11:37:33.
