data_PCOD9583950
_publ_section_title
;
Structure prediction by ZEFSAII (Michael W. Deem and Ramdas Pophale) SiO2 
 PCOD9583950
Probable space group: P 62 2 2
;
_chemical_formula_sum "Si O2"
_cell_formula_units_Z 60
_cell_length_a 19.931145
_cell_length_b 19.931145
_cell_length_c 8.840679
_cell_angle_alpha 90.000000
_cell_angle_beta 90.000000
_cell_angle_gamma 120.000000
_cell_volume 3041.450488
_symmetry_space_group_name_H-M "P 62 2 2"
_symmetry_group_IT_number 180
_symmetry_cell_setting 'hexagonal'
loop_
_space_group_symop_operation_xyz
x,y,z
x-y,x,1/3+z
-y,x-y,2/3+z
-x,-y,z
-x+y,-x,1/3+z
y,-x+y,2/3+z
x-y,-y,-z
-x,-x+y,1/3-z
y,x,2/3-z
-y,-x,2/3-z
-x+y,y,-z
x,x-y,1/3-z
loop_
_atom_site_type_symbol
_atom_site_label
_atom_site_fract_x
_atom_site_fract_y
_atom_site_fract_z
Si Si1 0.892936 0.285223 0.075147
Si Si2 0.325769 0.562621 0.713868
Si Si3 0.375271 0.317899 0.603728
Si Si4 0.150101 0.300201 0.500000
Si Si5 0.834328 0.376853 0.537460
Si Si6 0.745656 0.745656 0.333334
O O1 0.836118 0.318767 0.098394
O O2 0.908146 0.265755 0.244888
O O3 0.859204 0.213131 0.959843
O O4 0.971684 0.351587 0.997150
O O5 0.368770 0.631231 0.833334
O O6 0.384454 0.590970 0.574391
O O7 0.236795 0.541421 0.709046
O O8 0.463338 0.351091 0.550956
O O9 0.321462 0.278388 0.458982
O O10 0.181878 0.249224 0.420993
O O11 0.880104 0.440052 0.666667
#
# Coordination Sequence:
#
# PCOD9583950 Si02
#       6
#    12  12  12   6  12   6
#     4  10  23  43  65  88 124 165 211 272 327 385
#     4  12  24  41  58  83 115 164 216 271 333 390
#     4  10  23  44  63  90 122 165 214 270 329 379
#     4  10  22  40  68  96 132 163 212 252 317 380
#     4  12  26  40  59  84 118 162 218 273 329 396
#     4  10  22  40  67  98 128 169 208 256 314 378
#
# _framework density 19.727429000000001
#
# number of rings (size 3 to 8) (size 9 to 14) (size 15 to 20)
#    0.000    1.200    2.000    3.600    8.400    3.200 
#    0.000    0.000    0.000    0.000    0.000    0.000 
#    0.000   65.600    0.000    0.000    0.000    0.000 
#
# Total GULP energy -334847.032139 kJ/mol
# GULP energy per Si atom -5580.783869 kJ/mol
# Density = 1.968253 g / cm^3
# Si number density = 19.727429 Si / 1000 Ang^3
#
#
#
# Elastic Constant Matrix: (Units=GPa)
#
#
# Indices 1 2 3 4 5 6 
#
# 1 51.3293 86.2339 47.8681 0.0000 0.0000 0.0000
# 2 86.2339 51.3293 47.8681 0.0000 0.0000 0.0000
# 3 47.8681 47.8681 144.8555 0.0000 0.0000 0.0000
# 4 0.0000 0.0000 0.0000 26.1538 0.0000 0.0000
# 5 0.0000 0.0000 0.0000 0.0000 26.1538 0.0000
# 6 0.0000 0.0000 0.0000 0.0000 0.0000 -17.4523
#
#
#
# Elastic Compliance Matrix: (Units=1/GPa)
#
#
# Indices 1 2 3 4 5 6 
#
# 1 -0.009605 0.019045 -0.003120 0.000000 0.000000 0.000000
# 2 0.019045 -0.009605 -0.003120 0.000000 0.000000 0.000000
# 3 -0.003120 -0.003120 0.008965 0.000000 0.000000 0.000000
# 4 0.000000 0.000000 0.000000 0.038235 0.000000 0.000000
# 5 0.000000 0.000000 0.000000 0.000000 0.038235 0.000000
# 6 0.000000 0.000000 0.000000 0.000000 0.000000 -0.057299
#
#
# Mechanical properties :
#
#
# Convention : Reuss Voigt Hill
#
# Bulk Modulus (GPa) = 65.07191 67.93936 66.50563
# Shear Modulus (GPa) = -432.48643 11.34066 -210.57288
#
# Velocity S-wave (km/s) = -14.82251 2.40024 -10.34277
# Velocity P-wave (km/s) = 16.12096 6.49579 10.43288
#
# Compressibility (1/GPa) = 0.01536761
#
# Stress axis : x y z
#
# Youngs Moduli (GPa) = -104.11766 -104.11766 111.54195
#
# Poissons Ratio (x) = 1.98292 0.34797
# Poissons Ratio (y) = 1.98292 0.34797
# Poissons Ratio (z) = -0.32481 -0.32481
#
# Static dielectric constant tensor:
#      x y z
#    x 1.691560 0.000000 0.000000 
#    y 0.000000 1.691560 0.000000 
#    z 0.000000 0.000000 1.760690 
# 
# From -- ./inp_files/3156.got.cif
#   From: 2010.05.17/outbox.cif.g08.bks.cpg/sg180_2_cif.got.tgz:3156.got - 2010.05.20 11:43:55.
