data_PCOD9583306
_publ_section_title
;
Structure prediction by ZEFSAII (Michael W. Deem and Ramdas Pophale) SiO2 
 PCOD9583306
Probable space group: P 65 2 2
;
_chemical_formula_sum "Si O2"
_cell_formula_units_Z 78
_cell_length_a 18.107689
_cell_length_b 18.107689
_cell_length_c 14.915580
_cell_angle_alpha 90.000000
_cell_angle_beta 90.000000
_cell_angle_gamma 120.000000
_cell_volume 4235.423395
_symmetry_space_group_name_H-M "P 65 2 2"
_symmetry_group_IT_number 179
_symmetry_cell_setting 'hexagonal'
loop_
_space_group_symop_operation_xyz
x,y,z
x-y,x,5/6+z
-y,x-y,2/3+z
-x,-y,1/2+z
-x+y,-x,1/3+z
y,-x+y,1/6+z
x-y,-y,-z
-x,-x+y,1/3-z
y,x,2/3-z
-y,-x,1/6-z
-x+y,y,1/2-z
x,x-y,5/6-z
loop_
_atom_site_type_symbol
_atom_site_label
_atom_site_fract_x
_atom_site_fract_y
_atom_site_fract_z
Si Si1 0.514289 0.310314 0.068192
Si Si2 0.875625 0.336130 0.751435
Si Si3 0.323148 0.050760 0.228869
Si Si4 0.324945 0.929689 0.379593
Si Si5 0.902355 0.738903 0.652844
Si Si6 0.513842 0.513842 0.833334
Si Si7 0.264922 0.897046 0.094662
O O1 0.603005 0.396996 0.083334
O O2 0.521594 0.225138 0.068734
O O3 0.449898 0.300726 0.147588
O O4 0.459833 0.306753 0.979930
O O5 0.888695 0.302174 0.846586
O O6 0.936948 0.435404 0.730731
O O7 0.907451 0.297245 0.672910
O O8 0.265976 0.093823 0.253668
O O9 0.337666 0.008411 0.317359
O O10 0.280395 0.974969 0.156258
O O11 0.250937 0.912994 0.448544
O O12 0.407872 0.947808 0.433730
O O13 0.860661 0.721322 0.750000
O O14 0.000000 0.818246 0.666667
O O15 0.165542 0.834459 0.083334
#
# Coordination Sequence:
#
# PCOD9583306 Si02
#       7
#    12  12  12  12  12   6  12
#     4  10  21  37  59  88 128 171 208 252 329 385
#     4  11  21  36  60  90 123 164 211 271 314 376
#     4  11  21  39  63  93 123 156 219 256 312 376
#     4  11  23  39  63  91 119 167 209 269 306 385
#     4  12  23  42  65  93 123 164 209 260 315 377
#     4  12  22  38  60  86 124 164 218 260 326 374
#     4   9  19  35  61  92 123 159 205 262 319 375
#
# _framework density 18.416105999999999
#
# number of rings (size 3 to 8) (size 9 to 14) (size 15 to 20)
#    0.000    1.231    5.385    0.923    2.154    0.000 
#    0.000    2.308   10.154    0.923    0.000    0.000 
#    0.000    0.000    0.000    0.000    0.000    0.000 
#
# Total GULP energy -434494.227440 kJ/mol
# GULP energy per Si atom -5570.438813 kJ/mol
# Density = 1.837419 g / cm^3
# Si number density = 18.416106 Si / 1000 Ang^3
#
#
#
# Elastic Constant Matrix: (Units=GPa)
#
#
# Indices 1 2 3 4 5 6 
#
# 1 94.6319 37.2858 30.5279 0.0000 0.0000 0.0000
# 2 37.2858 94.6319 30.5279 0.0000 0.0000 0.0000
# 3 30.5279 30.5279 103.7857 0.0000 0.0000 0.0000
# 4 0.0000 0.0000 0.0000 48.0060 0.0000 0.0000
# 5 0.0000 0.0000 0.0000 0.0000 48.0060 0.0000
# 6 0.0000 0.0000 0.0000 0.0000 0.0000 28.6731
#
#
#
# Elastic Compliance Matrix: (Units=1/GPa)
#
#
# Indices 1 2 3 4 5 6 
#
# 1 0.013107 -0.004331 -0.002581 0.000000 0.000000 0.000000
# 2 -0.004331 0.013107 -0.002581 0.000000 0.000000 0.000000
# 3 -0.002581 -0.002581 0.011154 0.000000 0.000000 0.000000
# 4 0.000000 0.000000 0.000000 0.020831 0.000000 0.000000
# 5 0.000000 0.000000 0.000000 0.000000 0.020831 0.000000
# 6 0.000000 0.000000 0.000000 0.000000 0.000000 0.034876
#
#
# Mechanical properties :
#
#
# Convention : Reuss Voigt Hill
#
# Bulk Modulus (GPa) = 54.40888 54.41475 54.41181
# Shear Modulus (GPa) = 35.96655 37.91754 36.94205
#
# Velocity S-wave (km/s) = 4.42406 4.54247 4.48366
# Velocity P-wave (km/s) = 7.46356 7.55801 7.51094
#
# Compressibility (1/GPa) = 0.01837935
#
# Stress axis : x y z
#
# Youngs Moduli (GPa) = 76.29779 76.29779 89.65635
#
# Poissons Ratio (x) = 0.33048 0.23142
# Poissons Ratio (y) = 0.33048 0.23142
# Poissons Ratio (z) = 0.19694 0.19694
#
# Static dielectric constant tensor:
#      x y z
#    x -14.052840 0.000010 0.000000 
#    y 0.000010 -14.052830 0.000000 
#    z 0.000000 0.000000 1.641270 
# 
# From -- ./inp_files/6077.got.cif
#   From: 2010.05.17/outbox.cif.g08.bks.cpg/sg179_4_cif.got.tgz:6077.got - 2010.05.20 11:37:33.
