data_PCOD9583860
_publ_section_title
;
Structure prediction by ZEFSAII (Michael W. Deem and Ramdas Pophale) SiO2 
 PCOD9583860
Probable space group: P 62 2 2
;
_chemical_formula_sum "Si O2"
_cell_formula_units_Z 51
_cell_length_a 14.335410
_cell_length_b 14.335410
_cell_length_c 15.311664
_cell_angle_alpha 90.000000
_cell_angle_beta 90.000000
_cell_angle_gamma 120.000000
_cell_volume 2725.042369
_symmetry_space_group_name_H-M "P 62 2 2"
_symmetry_group_IT_number 180
_symmetry_cell_setting 'hexagonal'
loop_
_space_group_symop_operation_xyz
x,y,z
x-y,x,1/3+z
-y,x-y,2/3+z
-x,-y,z
-x+y,-x,1/3+z
y,-x+y,2/3+z
x-y,-y,-z
-x,-x+y,1/3-z
y,x,2/3-z
-y,-x,2/3-z
-x+y,y,-z
x,x-y,1/3-z
loop_
_atom_site_type_symbol
_atom_site_label
_atom_site_fract_x
_atom_site_fract_y
_atom_site_fract_z
Si Si1 0.110653 0.762277 0.914338
Si Si2 0.500000 0.500000 0.833334
Si Si3 0.363032 0.265045 0.891580
Si Si4 0.594633 0.733074 0.584530
Si Si5 0.604303 0.345864 0.076203
O O1 0.153729 0.846272 0.833334
O O2 0.191712 0.715492 0.919587
O O3 0.987485 0.669524 0.901163
O O4 0.108949 0.791622 0.016174
O O5 0.459401 0.392301 0.892789
O O6 0.273997 0.273997 0.833334
O O7 0.405207 0.201657 0.834453
O O8 0.631799 0.815900 0.666667
O O9 0.471618 0.645827 0.604105
O O10 0.644797 0.322399 0.166667
O O11 0.654228 0.308456 0.000000
#
# Coordination Sequence:
#
# PCOD9583860 Si02
#       5
#    12   3  12  12  12
#     4  11  24  40  57  91 134 174 207 262 330 401
#     4   8  20  32  64  96 122 146 208 296 312 372
#     4  10  21  35  61  93 120 154 216 268 323 375
#     4  11  21  36  63  92 121 168 216 271 324 376
#     4  10  22  35  57  90 133 167 210 255 320 396
#
# _framework density 18.715306000000002
#
# number of rings (size 3 to 8) (size 9 to 14) (size 15 to 20)
#    0.706    0.941    2.353    2.118   11.529    0.941 
#    0.000    0.000    0.000    4.941    0.000    0.000 
#    0.000    0.000    0.000    0.000    0.000    0.000 
#
# Total GULP energy -284087.130326 kJ/mol
# GULP energy per Si atom -5570.335889 kJ/mol
# Density = 1.867271 g / cm^3
# Si number density = 18.715306 Si / 1000 Ang^3
#
#
#
# Elastic Constant Matrix: (Units=GPa)
#
#
# Indices 1 2 3 4 5 6 
#
# 1 58.2737 15.8027 30.0336 0.0000 0.0000 0.0000
# 2 15.8027 58.2737 30.0336 0.0000 0.0000 0.0000
# 3 30.0336 30.0336 149.6429 0.0000 0.0000 0.0000
# 4 0.0000 0.0000 0.0000 24.1185 0.0000 0.0000
# 5 0.0000 0.0000 0.0000 0.0000 24.1185 0.0000
# 6 0.0000 0.0000 0.0000 0.0000 0.0000 21.2355
#
#
#
# Elastic Compliance Matrix: (Units=1/GPa)
#
#
# Indices 1 2 3 4 5 6 
#
# 1 0.019835 -0.003711 -0.003236 0.000000 0.000000 0.000000
# 2 -0.003711 0.019835 -0.003236 0.000000 0.000000 0.000000
# 3 -0.003236 -0.003236 0.007982 0.000000 0.000000 0.000000
# 4 0.000000 0.000000 0.000000 0.041462 0.000000 0.000000
# 5 0.000000 0.000000 0.000000 0.000000 0.041462 0.000000
# 6 0.000000 0.000000 0.000000 0.000000 0.000000 0.047091
#
#
# Mechanical properties :
#
#
# Convention : Reuss Voigt Hill
#
# Bulk Modulus (GPa) = 36.65072 46.43668 41.54370
# Shear Modulus (GPa) = 24.13986 26.58254 25.36120
#
# Velocity S-wave (km/s) = 3.59534 3.77286 3.68517
# Velocity P-wave (km/s) = 6.07133 6.62158 6.35242
#
# Compressibility (1/GPa) = 0.02728459
#
# Stress axis : x y z
#
# Youngs Moduli (GPa) = 50.41709 50.41709 125.28925
#
# Poissons Ratio (x) = 0.18710 0.40544
# Poissons Ratio (y) = 0.18710 0.40544
# Poissons Ratio (z) = 0.16315 0.16315
#
# Static dielectric constant tensor:
#      x y z
#    x 1.654310 0.000000 0.000000 
#    y 0.000000 1.654310 0.000000 
#    z 0.000000 0.000000 1.720010 
# 
# From -- ./inp_files/5977.got.cif
#   From: 2010.05.17/outbox.cif.g08.bks.cpg/sg180_3_cif.got.tgz:5977.got - 2010.05.20 11:43:55.
