data_PCOD9583194
_publ_section_title
;
Structure prediction by ZEFSAII (Michael W. Deem and Ramdas Pophale) SiO2 
 PCOD9583194
Probable space group: P 65 2 2
;
_chemical_formula_sum "Si O2"
_cell_formula_units_Z 66
_cell_length_a 26.972467
_cell_length_b 26.972467
_cell_length_c 5.613237
_cell_angle_alpha 90.000000
_cell_angle_beta 90.000000
_cell_angle_gamma 120.000000
_cell_volume 3536.595189
_symmetry_space_group_name_H-M "P 65 2 2"
_symmetry_group_IT_number 179
_symmetry_cell_setting 'hexagonal'
loop_
_space_group_symop_operation_xyz
x,y,z
x-y,x,5/6+z
-y,x-y,2/3+z
-x,-y,1/2+z
-x+y,-x,1/3+z
y,-x+y,1/6+z
x-y,-y,-z
-x,-x+y,1/3-z
y,x,2/3-z
-y,-x,1/6-z
-x+y,y,1/2-z
x,x-y,5/6-z
loop_
_atom_site_type_symbol
_atom_site_label
_atom_site_fract_x
_atom_site_fract_y
_atom_site_fract_z
Si Si1 0.110592 0.110592 0.833334
Si Si2 0.219706 0.166598 0.503256
Si Si3 0.619152 0.918959 0.151712
Si Si4 0.661322 0.921804 0.646344
Si Si5 0.785412 0.570684 0.499761
Si Si6 0.573615 0.537918 0.081981
O O1 0.102595 0.051298 0.916667
O O2 0.159690 0.134221 0.637245
O O3 0.208959 0.208959 0.333334
O O4 0.229788 0.114894 0.416667
O O5 0.275335 0.207599 0.655591
O O6 0.657503 0.944908 0.387138
O O7 0.606523 0.854045 0.149146
O O8 0.562366 0.921580 0.215254
O O9 0.643330 0.942513 0.887439
O O10 0.615100 0.853284 0.648340
O O11 0.768808 0.537615 0.250000
O O12 0.768811 0.537622 0.750000
O O13 0.561913 0.561913 0.333334
O O14 0.530232 0.469769 0.083334
O O15 0.557754 0.557754 0.833334
#
# Coordination Sequence:
#
# PCOD9583194 Si02
#       6
#     6  12  12  12  12  12
#     4  12  28  48  70  86 104 136 186 238 296 370
#     4  12  26  44  62  82 110 140 173 226 297 368
#     4  10  19  35  53  79 108 145 185 221 261 328
#     4  10  22  36  58  84 115 144 176 222 290 353
#     4   8  15  29  48  71 100 134 165 205 262 321
#     4  10  21  36  52  72 105 149 194 237 270 295
#
# _framework density 18.662016999999999
#
# number of rings (size 3 to 8) (size 9 to 14) (size 15 to 20)
#    0.000    1.818    1.818    2.727    2.545    5.091 
#    0.000    0.000    0.000    0.000    0.000    0.000 
#    0.000    0.000    0.000   44.182    0.000   12.727 
#
# Total GULP energy -367540.051711 kJ/mol
# GULP energy per Si atom -5568.788662 kJ/mol
# Density = 1.861954 g / cm^3
# Si number density = 18.662017 Si / 1000 Ang^3
#
#
#
# Elastic Constant Matrix: (Units=GPa)
#
#
# Indices 1 2 3 4 5 6 
#
# 1 49.8360 28.3719 26.4133 0.0000 0.0000 0.0000
# 2 28.3719 49.8360 26.4133 0.0000 0.0000 0.0000
# 3 26.4133 26.4133 169.0337 0.0000 0.0000 0.0000
# 4 0.0000 0.0000 0.0000 22.8110 0.0000 0.0000
# 5 0.0000 0.0000 0.0000 0.0000 22.8110 0.0000
# 6 0.0000 0.0000 0.0000 0.0000 0.0000 10.7320
#
#
#
# Elastic Compliance Matrix: (Units=1/GPa)
#
#
# Indices 1 2 3 4 5 6 
#
# 1 0.030442 -0.016147 -0.002234 0.000000 0.000000 0.000000
# 2 -0.016147 0.030442 -0.002234 0.000000 0.000000 0.000000
# 3 -0.002234 -0.002234 0.006614 0.000000 0.000000 0.000000
# 4 0.000000 0.000000 0.000000 0.043838 0.000000 0.000000
# 5 0.000000 0.000000 0.000000 0.000000 0.043838 0.000000
# 6 0.000000 0.000000 0.000000 0.000000 0.000000 0.093179
#
#
# Mechanical properties :
#
#
# Convention : Reuss Voigt Hill
#
# Bulk Modulus (GPa) = 38.06701 47.90032 42.98366
# Shear Modulus (GPa) = 16.75937 23.77130 20.26534
#
# Velocity S-wave (km/s) = 2.99999 3.57288 3.29890
# Velocity P-wave (km/s) = 5.69582 6.53786 6.13131
#
# Compressibility (1/GPa) = 0.02626947
#
# Stress axis : x y z
#
# Youngs Moduli (GPa) = 32.84895 32.84895 151.19246
#
# Poissons Ratio (x) = 0.53042 0.33773
# Poissons Ratio (y) = 0.53042 0.33773
# Poissons Ratio (z) = 0.07338 0.07338
#
# Static dielectric constant tensor:
#      x y z
#    x 1.623260 0.000000 0.000000 
#    y 0.000000 1.623260 0.000000 
#    z 0.000000 0.000000 1.764100 
# 
# From -- ./inp_files/1557.got.cif
#   From: 2010.05.17/outbox.cif.g08.bks.cpg/sg179_1_cif.got.tgz:1557.got - 2010.05.20 11:37:33.
