data_PCOD9583855
_publ_section_title
;
Structure prediction by ZEFSAII (Michael W. Deem and Ramdas Pophale) SiO2 
 PCOD9583855
Probable space group: P 62 2 2
;
_chemical_formula_sum "Si O2"
_cell_formula_units_Z 54
_cell_length_a 16.821928
_cell_length_b 16.821928
_cell_length_c 12.553508
_cell_angle_alpha 90.000000
_cell_angle_beta 90.000000
_cell_angle_gamma 120.000000
_cell_volume 3076.431681
_symmetry_space_group_name_H-M "P 62 2 2"
_symmetry_group_IT_number 180
_symmetry_cell_setting 'hexagonal'
loop_
_space_group_symop_operation_xyz
x,y,z
x-y,x,1/3+z
-y,x-y,2/3+z
-x,-y,z
-x+y,-x,1/3+z
y,-x+y,2/3+z
x-y,-y,-z
-x,-x+y,1/3-z
y,x,2/3-z
-y,-x,2/3-z
-x+y,y,-z
x,x-y,1/3-z
loop_
_atom_site_type_symbol
_atom_site_label
_atom_site_fract_x
_atom_site_fract_y
_atom_site_fract_z
Si Si1 0.816898 0.818629 0.212832
Si Si2 0.269288 0.953495 0.312422
Si Si3 0.828056 0.828056 0.833334
Si Si4 0.455759 0.054871 0.387396
Si Si5 0.388467 0.776934 0.500000
Si Si6 0.245814 0.491627 0.000000
O O1 0.786368 0.786368 0.333334
O O2 0.770977 0.734413 0.131004
O O3 0.923459 0.847012 0.214742
O O4 0.804916 0.902458 0.166667
O O5 0.207248 0.957065 0.408639
O O6 0.280819 0.863480 0.322019
O O7 0.368831 0.042764 0.326353
O O8 0.534249 0.155631 0.415856
O O9 0.500000 0.000000 0.332630
O O10 0.416097 0.000000 0.500000
O O11 0.439530 0.733485 0.566733
#
# Coordination Sequence:
#
# PCOD9583855 Si02
#       6
#    12  12   6  12   6   6
#     4  12  26  38  53  83 126 164 199 243 294 350
#     4  12  21  36  63  87 116 154 206 248 294 360
#     4  12  21  36  59  86 112 164 202 235 286 352
#     4   9  16  32  57  90 110 141 190 250 300 345
#     4  10  21  34  64  94 122 144 198 260 310 363
#     4  12  20  36  62  93 114 151 198 260 304 364
#
# _framework density 17.552804999999999
#
# number of rings (size 3 to 8) (size 9 to 14) (size 15 to 20)
#    0.000    1.111   10.000    0.333    0.000    0.889 
#    0.000    0.000    7.333    0.667    0.000    0.000 
#    0.000    0.000    0.000    0.000    0.000    0.000 
#
# Total GULP energy -300675.034315 kJ/mol
# GULP energy per Si atom -5568.056191 kJ/mol
# Density = 1.751285 g / cm^3
# Si number density = 17.552805 Si / 1000 Ang^3
#
#
#
# Elastic Constant Matrix: (Units=GPa)
#
#
# Indices 1 2 3 4 5 6 
#
# 1 52.3565 8.6873 23.2699 0.0000 0.0000 0.0000
# 2 8.6873 52.3565 23.2699 0.0000 0.0000 0.0000
# 3 23.2699 23.2699 104.0477 0.0000 0.0000 0.0000
# 4 0.0000 0.0000 0.0000 20.1349 0.0000 0.0000
# 5 0.0000 0.0000 0.0000 0.0000 20.1349 0.0000
# 6 0.0000 0.0000 0.0000 0.0000 0.0000 21.8346
#
#
#
# Elastic Compliance Matrix: (Units=1/GPa)
#
#
# Indices 1 2 3 4 5 6 
#
# 1 0.021324 -0.001575 -0.004417 0.000000 0.000000 0.000000
# 2 -0.001575 0.021324 -0.004417 0.000000 0.000000 0.000000
# 3 -0.004417 -0.004417 0.011587 0.000000 0.000000 0.000000
# 4 0.000000 0.000000 0.000000 0.049665 0.000000 0.000000
# 5 0.000000 0.000000 0.000000 0.000000 0.049665 0.000000
# 6 0.000000 0.000000 0.000000 0.000000 0.000000 0.045799
#
#
# Mechanical properties :
#
#
# Convention : Reuss Voigt Hill
#
# Bulk Modulus (GPa) = 29.92451 35.46834 32.69642
# Shear Modulus (GPa) = 21.61502 22.65646 22.13574
#
# Velocity S-wave (km/s) = 3.51298 3.59661 3.55504
# Velocity P-wave (km/s) = 5.79137 6.12356 5.95978
#
# Compressibility (1/GPa) = 0.03341743
#
# Stress axis : x y z
#
# Youngs Moduli (GPa) = 46.89501 46.89501 86.30673
#
# Poissons Ratio (x) = 0.07387 0.38120
# Poissons Ratio (y) = 0.07387 0.38120
# Poissons Ratio (z) = 0.20713 0.20713
#
# Static dielectric constant tensor:
#      x y z
#    x 1.653740 0.000000 0.000000 
#    y 0.000000 1.653740 0.000000 
#    z 0.000000 0.000000 1.629440 
# 
# From -- ./inp_files/4738.got.cif
#   From: 2010.05.17/outbox.cif.g08.bks.cpg/sg180_3_cif.got.tgz:4738.got - 2010.05.20 11:43:55.
