data_PCOD9583320
_publ_section_title
;
Structure prediction by ZEFSAII (Michael W. Deem and Ramdas Pophale) SiO2 
 PCOD9583320
Probable space group: P 65 2 2
;
_chemical_formula_sum "Si O2"
_cell_formula_units_Z 84
_cell_length_a 20.846275
_cell_length_b 20.846275
_cell_length_c 12.209849
_cell_angle_alpha 90.000000
_cell_angle_beta 90.000000
_cell_angle_gamma 120.000000
_cell_volume 4595.130502
_symmetry_space_group_name_H-M "P 65 2 2"
_symmetry_group_IT_number 179
_symmetry_cell_setting 'hexagonal'
loop_
_space_group_symop_operation_xyz
x,y,z
x-y,x,5/6+z
-y,x-y,2/3+z
-x,-y,1/2+z
-x+y,-x,1/3+z
y,-x+y,1/6+z
x-y,-y,-z
-x,-x+y,1/3-z
y,x,2/3-z
-y,-x,1/6-z
-x+y,y,1/2-z
x,x-y,5/6-z
loop_
_atom_site_type_symbol
_atom_site_label
_atom_site_fract_x
_atom_site_fract_y
_atom_site_fract_z
Si Si1 0.238764 0.625753 0.641871
Si Si2 0.128974 0.497797 0.362401
Si Si3 0.367619 0.848655 0.329225
Si Si4 0.650105 0.015865 0.877685
Si Si5 0.301570 0.198716 0.772982
Si Si6 0.955725 0.233736 0.482279
Si Si7 0.473421 0.210698 0.105352
O O1 0.316951 0.683050 0.583334
O O2 0.178706 0.634841 0.572002
O O3 0.219317 0.639520 0.763308
O O4 0.218482 0.540704 0.635404
O O5 0.102669 0.551335 0.416667
O O6 0.184441 0.489728 0.445278
O O7 0.059508 0.420559 0.330330
O O8 0.436861 0.873722 0.250000
O O9 0.371480 0.919537 0.388089
O O10 0.290109 0.810069 0.266818
O O11 0.711402 0.039154 0.781829
O O12 0.669289 0.000000 0.000000
O O13 0.262360 0.109546 0.779096
O O14 0.258692 0.218574 0.681235
O O15 0.388254 0.235742 0.747737
O O16 0.306035 0.233570 0.893519
#
# Coordination Sequence:
#
# PCOD9583320 Si02
#       7
#    12  12  12  12  12  12  12
#     4  11  23  39  57  80 115 168 217 265 321 374
#     4  10  21  39  55  75 111 156 210 258 316 380
#     4  12  26  38  56  86 121 158 212 274 316 379
#     4  12  23  40  60  88 121 162 210 260 319 377
#     4  10  21  41  65  94 130 160 197 256 308 377
#     4  10  22  39  65  95 129 159 202 248 311 372
#     4  11  22  37  62  82 115 161 208 266 317 368
#
# _framework density 18.280221999999998
#
# number of rings (size 3 to 8) (size 9 to 14) (size 15 to 20)
#    0.000    1.143    5.714    0.857    2.000    1.714 
#    0.000    2.143    0.000    0.000    0.000    0.000 
#   25.714    0.000    0.000    0.000    0.000    0.000 
#
# Total GULP energy -467758.143215 kJ/mol
# GULP energy per Si atom -5568.549324 kJ/mol
# Density = 1.823862 g / cm^3
# Si number density = 18.280222 Si / 1000 Ang^3
#
#
#
# Elastic Constant Matrix: (Units=GPa)
#
#
# Indices 1 2 3 4 5 6 
#
# 1 86.5514 49.3999 33.2098 0.0000 0.0000 0.0000
# 2 49.3999 86.5514 33.2098 0.0000 0.0000 0.0000
# 3 33.2098 33.2098 79.8487 0.0000 0.0000 0.0000
# 4 0.0000 0.0000 0.0000 21.7962 0.0000 0.0000
# 5 0.0000 0.0000 0.0000 0.0000 21.7962 0.0000
# 6 0.0000 0.0000 0.0000 0.0000 0.0000 18.5758
#
#
#
# Elastic Compliance Matrix: (Units=1/GPa)
#
#
# Indices 1 2 3 4 5 6 
#
# 1 0.018074 -0.008843 -0.003839 0.000000 0.000000 0.000000
# 2 -0.008843 0.018074 -0.003839 0.000000 0.000000 0.000000
# 3 -0.003839 -0.003839 0.015717 0.000000 0.000000 0.000000
# 4 0.000000 0.000000 0.000000 0.045879 0.000000 0.000000
# 5 0.000000 0.000000 0.000000 0.000000 0.045879 0.000000
# 6 0.000000 0.000000 0.000000 0.000000 0.000000 0.053834
#
#
# Mechanical properties :
#
#
# Convention : Reuss Voigt Hill
#
# Bulk Modulus (GPa) = 53.12806 53.84339 53.48573
# Shear Modulus (GPa) = 21.11708 21.57579 21.34644
#
# Velocity S-wave (km/s) = 3.40249 3.43925 3.42092
# Velocity P-wave (km/s) = 6.67549 6.72976 6.70268
#
# Compressibility (1/GPa) = 0.01882244
#
# Stress axis : x y z
#
# Youngs Moduli (GPa) = 55.32794 55.32794 63.62394
#
# Poissons Ratio (x) = 0.48925 0.24428
# Poissons Ratio (y) = 0.48925 0.24428
# Poissons Ratio (z) = 0.21243 0.21243
#
# Static dielectric constant tensor:
#      x y z
#    x 1.640580 0.000000 0.000000 
#    y 0.000000 1.640580 0.000000 
#    z 0.000000 0.000000 1.668980 
# 
# From -- ./inp_files/4935.got.cif
#   From: 2010.05.17/outbox.cif.g08.bks.cpg/sg179_3_cif.got.tgz:4935.got - 2010.05.20 11:37:33.
