data_PCOD9583235
_publ_section_title
;
Structure prediction by ZEFSAII (Michael W. Deem and Ramdas Pophale) SiO2 
 PCOD9583235
Probable space group: P 65 2 2
;
_chemical_formula_sum "Si O2"
_cell_formula_units_Z 48
_cell_length_a 10.415091
_cell_length_b 10.415091
_cell_length_c 20.458870
_cell_angle_alpha 90.000000
_cell_angle_beta 90.000000
_cell_angle_gamma 120.000000
_cell_volume 1921.933745
_symmetry_space_group_name_H-M "P 65 2 2"
_symmetry_group_IT_number 179
_symmetry_cell_setting 'hexagonal'
loop_
_space_group_symop_operation_xyz
x,y,z
x-y,x,5/6+z
-y,x-y,2/3+z
-x,-y,1/2+z
-x+y,-x,1/3+z
y,-x+y,1/6+z
x-y,-y,-z
-x,-x+y,1/3-z
y,x,2/3-z
-y,-x,1/6-z
-x+y,y,1/2-z
x,x-y,5/6-z
loop_
_atom_site_type_symbol
_atom_site_label
_atom_site_fract_x
_atom_site_fract_y
_atom_site_fract_z
Si Si1 0.848900 0.151100 0.583334
Si Si2 0.296717 0.102947 0.777374
Si Si3 0.175286 0.503632 0.308120
Si Si4 0.707422 0.783976 0.768374
Si Si5 0.498649 0.997297 0.250000
O O1 0.831796 0.208092 0.513686
O O2 0.025565 0.227862 0.590237
O O3 0.420165 0.094283 0.734816
O O4 0.158938 0.933505 0.773706
O O5 0.291954 0.583907 0.250000
O O6 0.242606 0.443527 0.363805
O O7 0.043675 0.359153 0.270568
O O8 0.097707 0.572998 0.352014
O O9 0.807149 0.807149 0.833334
#
# Coordination Sequence:
#
# PCOD9583235 Si02
#       5
#     6  12  12  12   6
#     4  10  22  34  60  95 132 163 228 286 346 414
#     4  10  20  34  59  92 131 173 216 282 356 417
#     4   9  18  32  57  85 119 166 226 285 334 406
#     4   9  17  29  53  91 124 161 221 286 343 396
#     4  10  20  36  60  85 134 177 222 282 352 430
#
# _framework density 24.974845999999999
#
# number of rings (size 3 to 8) (size 9 to 14) (size 15 to 20)
#    0.000    2.500    0.000    3.000    8.750    0.000 
#    0.000    0.000   41.250    6.000    0.000    0.000 
#    0.000    0.000    0.000    0.000    0.000    0.000 
#
# Total GULP energy -267718.653492 kJ/mol
# GULP energy per Si atom -5577.471948 kJ/mol
# Density = 2.491800 g / cm^3
# Si number density = 24.974846 Si / 1000 Ang^3
#
#
#
# Elastic Constant Matrix: (Units=GPa)
#
#
# Indices 1 2 3 4 5 6 
#
# 1 57.1825 14.1495 8.6284 0.0000 0.0000 0.0000
# 2 14.1495 57.1825 8.6284 0.0000 0.0000 0.0000
# 3 8.6284 8.6284 135.3960 0.0000 0.0000 0.0000
# 4 0.0000 0.0000 0.0000 30.3790 0.0000 0.0000
# 5 0.0000 0.0000 0.0000 0.0000 30.3790 0.0000
# 6 0.0000 0.0000 0.0000 0.0000 0.0000 21.5165
#
#
#
# Elastic Compliance Matrix: (Units=1/GPa)
#
#
# Indices 1 2 3 4 5 6 
#
# 1 0.018738 -0.004500 -0.000907 0.000000 0.000000 0.000000
# 2 -0.004500 0.018738 -0.000907 0.000000 0.000000 0.000000
# 3 -0.000907 -0.000907 0.007501 0.000000 0.000000 0.000000
# 4 0.000000 0.000000 0.000000 0.032917 0.000000 0.000000
# 5 0.000000 0.000000 0.000000 0.000000 0.032917 0.000000
# 6 0.000000 0.000000 0.000000 0.000000 0.000000 0.046476
#
#
# Mechanical properties :
#
#
# Convention : Reuss Voigt Hill
#
# Bulk Modulus (GPa) = 30.91300 34.73037 32.82169
# Shear Modulus (GPa) = 27.67007 31.01189 29.34098
#
# Velocity S-wave (km/s) = 3.33215 3.52763 3.43129
# Velocity P-wave (km/s) = 5.21621 5.52527 5.37296
#
# Compressibility (1/GPa) = 0.03234885
#
# Stress axis : x y z
#
# Youngs Moduli (GPa) = 53.36682 53.36682 133.30858
#
# Poissons Ratio (x) = 0.24014 0.12096
# Poissons Ratio (y) = 0.24014 0.12096
# Poissons Ratio (z) = 0.04842 0.04842
#
# Static dielectric constant tensor:
#      x y z
#    x 1.976380 0.000000 0.000000 
#    y 0.000000 1.976380 0.000000 
#    z 0.000000 0.000000 2.055640 
# 
# From -- ./inp_files/7328.got.cif
#   From: 2010.05.17/outbox.cif.g08.bks.cpg/sg179_4_cif.got.tgz:7328.got - 2010.05.20 11:37:33.
