data_PCOD9583879
_publ_section_title
;
Structure prediction by ZEFSAII (Michael W. Deem and Ramdas Pophale) SiO2 
 PCOD9583879
Probable space group: P 62 2 2
;
_chemical_formula_sum "Si O2"
_cell_formula_units_Z 84
_cell_length_a 17.637650
_cell_length_b 17.637650
_cell_length_c 13.885556
_cell_angle_alpha 90.000000
_cell_angle_beta 90.000000
_cell_angle_gamma 120.000000
_cell_volume 3740.893518
_symmetry_space_group_name_H-M "P 62 2 2"
_symmetry_group_IT_number 180
_symmetry_cell_setting 'hexagonal'
loop_
_space_group_symop_operation_xyz
x,y,z
x-y,x,1/3+z
-y,x-y,2/3+z
-x,-y,z
-x+y,-x,1/3+z
y,-x+y,2/3+z
x-y,-y,-z
-x,-x+y,1/3-z
y,x,2/3-z
-y,-x,2/3-z
-x+y,y,-z
x,x-y,1/3-z
loop_
_atom_site_type_symbol
_atom_site_label
_atom_site_fract_x
_atom_site_fract_y
_atom_site_fract_z
Si Si1 0.708460 0.096958 0.487594
Si Si2 0.324792 0.484868 0.664226
Si Si3 0.032948 0.199369 0.927107
Si Si4 0.237168 0.864206 0.923421
Si Si5 0.499515 0.334022 0.636338
Si Si6 0.119123 0.881326 0.075279
Si Si7 0.006191 0.360679 0.875716
O O1 0.694219 0.161409 0.556249
O O2 0.700145 0.119882 0.379735
O O3 0.794715 0.097649 0.528016
O O4 0.629619 0.000000 0.500000
O O5 0.230130 0.457166 0.617489
O O6 0.409868 0.576420 0.646403
O O7 0.352384 0.415554 0.623897
O O8 0.050890 0.173874 0.821510
O O9 0.025716 0.283235 0.898372
O O10 0.112404 0.224808 0.000000
O O11 0.950994 0.136667 0.992767
O O12 0.167377 0.832624 0.833334
O O13 0.328556 0.942506 0.884555
O O14 0.202947 0.896339 0.013265
O O15 0.527169 0.263585 0.666667
O O16 0.449581 0.349358 0.545410
#
# Coordination Sequence:
#
# PCOD9583879 Si02
#       7
#    12  12  12  12  12  12  12
#     4  11  19  35  61  93 136 175 232 298 374 440
#     4  10  21  38  63  91 139 184 235 294 370 456
#     4  12  22  37  63 103 148 184 233 319 392 445
#     4   9  19  41  63  93 130 187 260 301 358 437
#     4  12  24  37  60 106 147 186 233 307 394 444
#     4  11  22  38  63 101 145 186 239 314 376 455
#     4  11  20  39  64  95 132 182 258 298 357 435
#
# _framework density 22.454529000000001
#
# number of rings (size 3 to 8) (size 9 to 14) (size 15 to 20)
#    0.000    1.143    5.714    4.286    0.000    1.143 
#    0.000    4.286    0.000    1.714    0.000   49.000 
#    0.000    0.000    0.000    0.000    0.000    0.000 
#
# Total GULP energy -467989.182549 kJ/mol
# GULP energy per Si atom -5571.299792 kJ/mol
# Density = 2.240342 g / cm^3
# Si number density = 22.454529 Si / 1000 Ang^3
#
#
#
# Elastic Constant Matrix: (Units=GPa)
#
#
# Indices 1 2 3 4 5 6 
#
# 1 83.2707 32.2732 28.8977 0.0000 0.0000 0.0000
# 2 32.2732 83.2707 28.8977 0.0000 0.0000 0.0000
# 3 28.8977 28.8977 121.8157 0.0000 0.0000 0.0000
# 4 0.0000 0.0000 0.0000 10.1890 0.0000 0.0000
# 5 0.0000 0.0000 0.0000 0.0000 10.1890 0.0000
# 6 0.0000 0.0000 0.0000 0.0000 0.0000 25.4988
#
#
#
# Elastic Compliance Matrix: (Units=1/GPa)
#
#
# Indices 1 2 3 4 5 6 
#
# 1 0.014714 -0.004894 -0.002330 0.000000 0.000000 0.000000
# 2 -0.004894 0.014714 -0.002330 0.000000 0.000000 0.000000
# 3 -0.002330 -0.002330 0.009314 0.000000 0.000000 0.000000
# 4 0.000000 0.000000 0.000000 0.098145 0.000000 0.000000
# 5 0.000000 0.000000 0.000000 0.000000 0.098145 0.000000
# 6 0.000000 0.000000 0.000000 0.000000 0.000000 0.039218
#
#
# Mechanical properties :
#
#
# Convention : Reuss Voigt Hill
#
# Bulk Modulus (GPa) = 50.92650 52.05492 51.49071
# Shear Modulus (GPa) = 16.67207 22.39459 19.53333
#
# Velocity S-wave (km/s) = 2.72781 3.16148 2.95262
# Velocity P-wave (km/s) = 5.71405 6.04643 5.88259
#
# Compressibility (1/GPa) = 0.01963614
#
# Stress axis : x y z
#
# Youngs Moduli (GPa) = 67.96072 67.96072 107.36097
#
# Poissons Ratio (x) = 0.33263 0.25010
# Poissons Ratio (y) = 0.33263 0.25010
# Poissons Ratio (z) = 0.15832 0.15832
#
# Static dielectric constant tensor:
#      x y z
#    x 1.939560 0.000000 0.000000 
#    y 0.000000 1.939560 0.000000 
#    z 0.000000 0.000000 1.963650 
# 
# From -- ./inp_files/6488.got.cif
#   From: 2010.05.17/outbox.cif.g08.bks.cpg/sg180_4_cif.got.tgz:6488.got - 2010.05.20 11:43:55.
