data_PCOD9583762
_publ_section_title
;
Structure prediction by ZEFSAII (Michael W. Deem and Ramdas Pophale) SiO2 
 PCOD9583762
Probable space group: P 62 2 2
;
_chemical_formula_sum "Si O2"
_cell_formula_units_Z 48
_cell_length_a 14.145253
_cell_length_b 14.145253
_cell_length_c 14.416741
_cell_angle_alpha 90.000000
_cell_angle_beta 90.000000
_cell_angle_gamma 120.000000
_cell_volume 2498.153770
_symmetry_space_group_name_H-M "P 62 2 2"
_symmetry_group_IT_number 180
_symmetry_cell_setting 'hexagonal'
loop_
_space_group_symop_operation_xyz
x,y,z
x-y,x,1/3+z
-y,x-y,2/3+z
-x,-y,z
-x+y,-x,1/3+z
y,-x+y,2/3+z
x-y,-y,-z
-x,-x+y,1/3-z
y,x,2/3-z
-y,-x,2/3-z
-x+y,y,-z
x,x-y,1/3-z
loop_
_atom_site_type_symbol
_atom_site_label
_atom_site_fract_x
_atom_site_fract_y
_atom_site_fract_z
Si Si1 0.124415 0.526268 0.265290
Si Si2 0.928982 0.274516 0.796618
Si Si3 0.749651 0.593195 0.256800
Si Si4 0.574419 0.395112 0.133314
O O1 0.169169 0.584585 0.166667
O O2 0.146851 0.424624 0.261592
O O3 0.182933 0.595457 0.356924
O O4 0.000000 0.500000 0.269985
O O5 0.845259 0.154742 0.833334
O O6 0.883826 0.283057 0.695591
O O7 0.916061 0.363695 0.856282
O O8 0.053517 0.303207 0.790098
O O9 0.655315 0.491416 0.200466
O O10 0.574381 0.287191 0.166667
#
# Coordination Sequence:
#
# PCOD9583762 Si02
#       4
#    12  12  12  12
#     4  11  24  40  57  85 128 171 210 259 321 404
#     4  10  20  35  57  88 119 158 212 272 320 369
#     4  11  21  34  59  86 118 165 214 261 320 381
#     4  11  21  36  57  85 121 169 217 264 313 376
#
# _framework density 19.214189999999999
#
# number of rings (size 3 to 8) (size 9 to 14) (size 15 to 20)
#    0.000    1.250    5.000    3.750    0.000    5.000 
#    0.000    0.000    0.000    0.000    0.000    3.500 
#    0.000   16.000    0.000    1.000    0.500    0.000 
#
# Total GULP energy -267658.350912 kJ/mol
# GULP energy per Si atom -5576.215644 kJ/mol
# Density = 1.917046 g / cm^3
# Si number density = 19.214190 Si / 1000 Ang^3
#
#
#
# Elastic Constant Matrix: (Units=GPa)
#
#
# Indices 1 2 3 4 5 6 
#
# 1 102.5304 48.8457 24.2177 0.0000 0.0000 0.0000
# 2 48.8457 102.5304 24.2177 0.0000 0.0000 0.0000
# 3 24.2177 24.2177 132.7665 0.0000 0.0000 0.0000
# 4 0.0000 0.0000 0.0000 13.2330 0.0000 0.0000
# 5 0.0000 0.0000 0.0000 0.0000 13.2330 0.0000
# 6 0.0000 0.0000 0.0000 0.0000 0.0000 26.8423
#
#
#
# Elastic Compliance Matrix: (Units=1/GPa)
#
#
# Indices 1 2 3 4 5 6 
#
# 1 0.012821 -0.005806 -0.001280 0.000000 0.000000 0.000000
# 2 -0.005806 0.012821 -0.001280 0.000000 0.000000 0.000000
# 3 -0.001280 -0.001280 0.007999 0.000000 0.000000 0.000000
# 4 0.000000 0.000000 0.000000 0.075569 0.000000 0.000000
# 5 0.000000 0.000000 0.000000 0.000000 0.075569 0.000000
# 6 0.000000 0.000000 0.000000 0.000000 0.000000 0.037255
#
#
# Mechanical properties :
#
#
# Convention : Reuss Voigt Hill
#
# Bulk Modulus (GPa) = 59.13255 59.15438 59.14346
# Shear Modulus (GPa) = 20.45814 26.69807 23.57811
#
# Velocity S-wave (km/s) = 3.26658 3.73164 3.50683
# Velocity P-wave (km/s) = 6.71339 7.02997 6.87351
#
# Compressibility (1/GPa) = 0.01691116
#
# Stress axis : x y z
#
# Youngs Moduli (GPa) = 77.99459 77.99459 125.01764
#
# Poissons Ratio (x) = 0.45283 0.15998
# Poissons Ratio (y) = 0.45283 0.15998
# Poissons Ratio (z) = 0.09981 0.09981
#
# Static dielectric constant tensor:
#      x y z
#    x 1.706880 0.000000 0.000000 
#    y 0.000000 1.706880 0.000000 
#    z 0.000000 0.000000 1.725460 
# 
# From -- ./inp_files/5795.got.cif
#   From: 2010.05.17/outbox.cif.g08.bks.cpg/sg180_3_cif.got.tgz:5795.got - 2010.05.20 11:43:55.
