data_PCOD9583209
_publ_section_title
;
Structure prediction by ZEFSAII (Michael W. Deem and Ramdas Pophale) SiO2 
 PCOD9583209
Probable space group: P 65 2 2
;
_chemical_formula_sum "Si O2"
_cell_formula_units_Z 84
_cell_length_a 21.093828
_cell_length_b 21.093828
_cell_length_c 11.685142
_cell_angle_alpha 90.000000
_cell_angle_beta 90.000000
_cell_angle_gamma 120.000000
_cell_volume 4502.725035
_symmetry_space_group_name_H-M "P 65 2 2"
_symmetry_group_IT_number 179
_symmetry_cell_setting 'hexagonal'
loop_
_space_group_symop_operation_xyz
x,y,z
x-y,x,5/6+z
-y,x-y,2/3+z
-x,-y,1/2+z
-x+y,-x,1/3+z
y,-x+y,1/6+z
x-y,-y,-z
-x,-x+y,1/3-z
y,x,2/3-z
-y,-x,1/6-z
-x+y,y,1/2-z
x,x-y,5/6-z
loop_
_atom_site_type_symbol
_atom_site_label
_atom_site_fract_x
_atom_site_fract_y
_atom_site_fract_z
Si Si1 0.918138 0.702877 0.688629
Si Si2 0.587448 0.478453 0.883843
Si Si3 0.293761 0.892433 0.310824
Si Si4 0.851939 0.557152 0.802530
Si Si5 0.739022 0.363681 0.166300
Si Si6 0.349577 0.421843 0.767429
Si Si7 0.798823 0.278603 0.775605
O O1 0.861676 0.723351 0.750000
O O2 0.896051 0.659623 0.565751
O O3 0.914485 0.640303 0.774286
O O4 0.000000 0.768067 0.666667
O O5 0.627150 0.504883 0.759263
O O6 0.620939 0.426880 0.913596
O O7 0.501111 0.426568 0.901760
O O8 0.628604 0.551270 0.957685
O O9 0.315006 0.928579 0.187192
O O10 0.259499 0.806506 0.283324
O O11 0.778592 0.557183 0.750000
O O12 0.837589 0.537427 0.934592
O O13 0.705849 0.294152 0.083334
O O14 0.676439 0.352878 0.250000
O O15 0.763843 0.435420 0.089800
O O16 0.367550 0.367550 0.833334
O O17 0.295508 0.438531 0.841641
#
# Coordination Sequence:
#
# PCOD9583209 Si02
#       7
#    12  12  12  12  12  12  12
#     4  10  21  38  65  97 117 148 190 234 286 343
#     4  10  21  37  53  72 108 144 203 259 321 361
#     4  11  21  40  62  76 111 156 200 254 301 360
#     4  10  19  37  59  80 106 149 196 254 301 356
#     4  11  23  30  48  74 100 141 193 260 323 375
#     4  11  26  39  52  83 115 157 199 249 313 384
#     4  11  21  39  57  76 111 144 199 247 309 361
#
# _framework density 18.655369
#
# number of rings (size 3 to 8) (size 9 to 14) (size 15 to 20)
#    0.000    1.429    4.286    3.857    4.000    4.000 
#    2.571    0.000    0.000    0.000    0.000    0.000 
#    0.000    3.429    0.000    0.000    0.000    0.000 
#
# Total GULP energy -468256.296421 kJ/mol
# GULP energy per Si atom -5574.479719 kJ/mol
# Density = 1.861291 g / cm^3
# Si number density = 18.655369 Si / 1000 Ang^3
#
#
#
# Elastic Constant Matrix: (Units=GPa)
#
#
# Indices 1 2 3 4 5 6 
#
# 1 43.2259 46.9958 26.4033 0.0000 0.0000 0.0000
# 2 46.9958 43.2259 26.4033 0.0000 0.0000 0.0000
# 3 26.4033 26.4033 132.3479 0.0000 0.0000 0.0000
# 4 0.0000 0.0000 0.0000 36.7748 0.0000 0.0000
# 5 0.0000 0.0000 0.0000 0.0000 36.7748 0.0000
# 6 0.0000 0.0000 0.0000 0.0000 0.0000 -1.8849
#
#
#
# Elastic Compliance Matrix: (Units=1/GPa)
#
#
# Indices 1 2 3 4 5 6 
#
# 1 -0.126356 0.138905 -0.002504 0.000000 0.000000 0.000000
# 2 0.138905 -0.126356 -0.002504 0.000000 0.000000 0.000000
# 3 -0.002504 -0.002504 0.008555 0.000000 0.000000 0.000000
# 4 0.000000 0.000000 0.000000 0.027193 0.000000 0.000000
# 5 0.000000 0.000000 0.000000 0.000000 0.027193 0.000000
# 6 0.000000 0.000000 0.000000 0.000000 0.000000 -0.530521
#
#
# Mechanical properties :
#
#
# Convention : Reuss Voigt Hill
#
# Bulk Modulus (GPa) = 42.30327 46.48942 44.39634
# Shear Modulus (GPa) = -5.10095 22.26608 8.58256
#
# Velocity S-wave (km/s) = -1.65537 3.45852 2.14722
# Velocity P-wave (km/s) = 4.36712 6.39709 5.47697
#
# Compressibility (1/GPa) = 0.02363883
#
# Stress axis : x y z
#
# Youngs Moduli (GPa) = -7.91416 -7.91416 116.89409
#
# Poissons Ratio (x) = 1.09932 0.29265
# Poissons Ratio (y) = 1.09932 0.29265
# Poissons Ratio (z) = -0.01981 -0.01981
#
# Static dielectric constant tensor:
#      x y z
#    x 1.682540 0.000000 0.000000 
#    y 0.000000 1.682540 0.000000 
#    z 0.000000 0.000000 1.695550 
# 
# From -- ./inp_files/4956.got.cif
#   From: 2010.05.17/outbox.cif.g08.bks.cpg/sg179_3_cif.got.tgz:4956.got - 2010.05.20 11:37:33.
