data_PCOD9583109
_publ_section_title
;
Structure prediction by ZEFSAII (Michael W. Deem and Ramdas Pophale) SiO2 
 PCOD9583109
Probable space group: P 65 2 2
;
_chemical_formula_sum "Si O2"
_cell_formula_units_Z 96
_cell_length_a 17.944594
_cell_length_b 17.944594
_cell_length_c 21.121453
_cell_angle_alpha 90.000000
_cell_angle_beta 90.000000
_cell_angle_gamma 120.000000
_cell_volume 5890.086821
_symmetry_space_group_name_H-M "P 65 2 2"
_symmetry_group_IT_number 179
_symmetry_cell_setting 'hexagonal'
loop_
_space_group_symop_operation_xyz
x,y,z
x-y,x,5/6+z
-y,x-y,2/3+z
-x,-y,1/2+z
-x+y,-x,1/3+z
y,-x+y,1/6+z
x-y,-y,-z
-x,-x+y,1/3-z
y,x,2/3-z
-y,-x,1/6-z
-x+y,y,1/2-z
x,x-y,5/6-z
loop_
_atom_site_type_symbol
_atom_site_label
_atom_site_fract_x
_atom_site_fract_y
_atom_site_fract_z
Si Si1 0.479593 0.544185 0.278900
Si Si2 0.632289 0.273322 0.643644
Si Si3 0.010792 0.742693 0.509553
Si Si4 0.284104 0.871419 0.554264
Si Si5 0.584886 0.908979 0.247495
Si Si6 0.740991 0.913237 0.037436
Si Si7 0.517390 0.233446 0.082898
Si Si8 0.081418 0.551050 0.013388
O O1 0.538690 0.538690 0.333334
O O2 0.378746 0.487214 0.295943
O O3 0.500316 0.638621 0.260270
O O4 0.494542 0.495558 0.221379
O O5 0.666529 0.333472 0.583334
O O6 0.706806 0.287492 0.693410
O O7 0.565554 0.288529 0.684624
O O8 0.593883 0.174721 0.620345
O O9 0.969708 0.674672 0.452805
O O10 0.939291 0.743521 0.556013
O O11 0.064460 0.716296 0.558157
O O12 0.078689 0.835394 0.480734
O O13 0.223350 0.776651 0.583334
O O14 0.238322 0.886141 0.493607
O O15 0.564855 0.811296 0.251976
O O16 0.556573 0.930886 0.314063
O O17 0.511842 0.909213 0.202734
O O18 0.807268 0.000000 0.000000
#
# Coordination Sequence:
#
# PCOD9583109 Si02
#       8
#    12  12  12  12  12  12  12  12
#     4  12  21  32  51  77 102 134 176 226 269 316
#     4   9  17  37  53  68  96 142 173 212 272 316
#     4  10  17  32  53  75 102 145 170 204 264 319
#     4   9  19  31  46  71 107 140 170 213 260 322
#     4   9  18  36  50  64  99 137 174 219 259 304
#     4   9  18  31  49  77 108 138 173 202 254 333
#     4   9  21  33  49  74 100 126 180 227 252 316
#     4   9  19  33  51  66  97 138 174 216 266 304
#
# _framework density 16.298570999999999
#
# number of rings (size 3 to 8) (size 9 to 14) (size 15 to 20)
#    0.000    2.500    1.250    4.500    1.750    1.000 
#    2.250    0.000    0.000    0.000    0.000    2.625 
#    0.000    0.000    0.000    0.000    0.000    0.000 
#
# Total GULP energy -534782.561766 kJ/mol
# GULP energy per Si atom -5570.651685 kJ/mol
# Density = 1.626147 g / cm^3
# Si number density = 16.298571 Si / 1000 Ang^3
#
#
#
# Elastic Constant Matrix: (Units=GPa)
#
#
# Indices 1 2 3 4 5 6 
#
# 1 45.2733 77.7785 26.1854 0.0000 0.0000 0.0000
# 2 77.7785 45.2733 26.1854 0.0000 0.0000 0.0000
# 3 26.1854 26.1854 36.6854 0.0000 0.0000 0.0000
# 4 0.0000 0.0000 0.0000 12.5695 0.0000 0.0000
# 5 0.0000 0.0000 0.0000 0.0000 12.5695 0.0000
# 6 0.0000 0.0000 0.0000 0.0000 0.0000 -16.2526
#
#
#
# Elastic Compliance Matrix: (Units=1/GPa)
#
#
# Indices 1 2 3 4 5 6 
#
# 1 -0.009546 0.021218 -0.008332 0.000000 0.000000 0.000000
# 2 0.021218 -0.009546 -0.008332 0.000000 0.000000 0.000000
# 3 -0.008332 -0.008332 0.039153 0.000000 0.000000 0.000000
# 4 0.000000 0.000000 0.000000 0.079558 0.000000 0.000000
# 5 0.000000 0.000000 0.000000 0.000000 0.079558 0.000000
# 6 0.000000 0.000000 0.000000 0.000000 0.000000 -0.061529
#
#
# Mechanical properties :
#
#
# Convention : Reuss Voigt Hill
#
# Bulk Modulus (GPa) = 34.28028 43.05893 38.66961
# Shear Modulus (GPa) = 42.27901 1.58278 21.93089
#
# Velocity S-wave (km/s) = 5.09869 0.98652 3.67218
# Velocity P-wave (km/s) = 7.46596 5.27009 6.46198
#
# Compressibility (1/GPa) = 0.02917129
#
# Stress axis : x y z
#
# Youngs Moduli (GPa) = -104.75793 -104.75793 25.54091
#
# Poissons Ratio (x) = 2.22280 0.21280
# Poissons Ratio (y) = 2.22280 0.21280
# Poissons Ratio (z) = -0.87281 -0.87281
#
# Static dielectric constant tensor:
#      x y z
#    x 1.550650 0.000000 0.000000 
#    y 0.000000 1.550650 0.000000 
#    z 0.000000 0.000000 1.552560 
# 
# From -- ./inp_files/7784.got.cif
#   From: 2010.05.17/outbox.cif.g08.bks.cpg/sg179_4_cif.got.tgz:7784.got - 2010.05.20 11:37:33.
