data_PCOD9583892
_publ_section_title
;
Structure prediction by ZEFSAII (Michael W. Deem and Ramdas Pophale) SiO2 
 PCOD9583892
Probable space group: P 62 2 2
;
_chemical_formula_sum "Si O2"
_cell_formula_units_Z 60
_cell_length_a 15.726682
_cell_length_b 15.726682
_cell_length_c 13.408670
_cell_angle_alpha 90.000000
_cell_angle_beta 90.000000
_cell_angle_gamma 120.000000
_cell_volume 2872.040400
_symmetry_space_group_name_H-M "P 62 2 2"
_symmetry_group_IT_number 180
_symmetry_cell_setting 'hexagonal'
loop_
_space_group_symop_operation_xyz
x,y,z
x-y,x,1/3+z
-y,x-y,2/3+z
-x,-y,z
-x+y,-x,1/3+z
y,-x+y,2/3+z
x-y,-y,-z
-x,-x+y,1/3-z
y,x,2/3-z
-y,-x,2/3-z
-x+y,y,-z
x,x-y,1/3-z
loop_
_atom_site_type_symbol
_atom_site_label
_atom_site_fract_x
_atom_site_fract_y
_atom_site_fract_z
Si Si1 0.737430 0.607703 0.092367
Si Si2 0.902252 0.858339 0.614658
Si Si3 0.388743 0.442451 0.681008
Si Si4 0.622672 0.384336 0.087674
Si Si5 0.292494 0.092690 0.434506
O O1 0.646880 0.617952 0.052000
O O2 0.687908 0.495263 0.129255
O O3 0.807428 0.683404 0.176405
O O4 0.810019 0.620037 0.000000
O O5 0.935068 0.870135 0.500000
O O6 0.824400 0.752538 0.657105
O O7 0.000000 0.875946 0.666667
O O8 0.882528 0.941264 0.666667
O O9 0.500000 0.500000 0.719989
O O10 0.374028 0.522155 0.620562
O O11 0.303490 0.392799 0.762624
O O12 0.603099 0.301550 0.166667
O O13 0.688449 0.376897 0.000000
O O14 0.216385 0.000000 0.500000
#
# Coordination Sequence:
#
# PCOD9583892 Si02
#       5
#    12  12  12  12  12
#     4  10  21  40  61  98 135 171 223 290 346 411
#     4  11  25  44  66  95 134 179 221 270 330 398
#     4  10  23  41  63  97 135 173 224 287 348 417
#     4  10  21  41  68  92 129 174 228 284 352 422
#     4  12  24  38  69  97 133 177 222 281 343 410
#
# _framework density 20.891071
#
# number of rings (size 3 to 8) (size 9 to 14) (size 15 to 20)
#    0.000    1.400    2.000    3.600    5.600    1.200 
#    0.000    0.000    0.000    4.200    0.000    0.000 
#    0.000    0.000    0.000    0.000    0.000    0.000 
#
# Total GULP energy -334868.191909 kJ/mol
# GULP energy per Si atom -5581.136532 kJ/mol
# Density = 2.084352 g / cm^3
# Si number density = 20.891071 Si / 1000 Ang^3
#
#
#
# Elastic Constant Matrix: (Units=GPa)
#
#
# Indices 1 2 3 4 5 6 
#
# 1 104.1195 52.7137 40.3193 0.0000 0.0000 0.0000
# 2 52.7137 104.1195 40.3193 0.0000 0.0000 0.0000
# 3 40.3193 40.3193 112.7748 0.0000 0.0000 0.0000
# 4 0.0000 0.0000 0.0000 28.0039 0.0000 0.0000
# 5 0.0000 0.0000 0.0000 0.0000 28.0039 0.0000
# 6 0.0000 0.0000 0.0000 0.0000 0.0000 25.7029
#
#
#
# Elastic Compliance Matrix: (Units=1/GPa)
#
#
# Indices 1 2 3 4 5 6 
#
# 1 0.013633 -0.005820 -0.002793 0.000000 0.000000 0.000000
# 2 -0.005820 0.013633 -0.002793 0.000000 0.000000 0.000000
# 3 -0.002793 -0.002793 0.010864 0.000000 0.000000 0.000000
# 4 0.000000 0.000000 0.000000 0.035709 0.000000 0.000000
# 5 0.000000 0.000000 0.000000 0.000000 0.035709 0.000000
# 6 0.000000 0.000000 0.000000 0.000000 0.000000 0.038906
#
#
# Mechanical properties :
#
#
# Convention : Reuss Voigt Hill
#
# Bulk Modulus (GPa) = 65.28799 65.30204 65.29501
# Shear Modulus (GPa) = 28.34900 28.85291 28.60096
#
# Velocity S-wave (km/s) = 3.68773 3.72036 3.70408
# Velocity P-wave (km/s) = 7.03221 7.05557 7.04390
#
# Compressibility (1/GPa) = 0.01531675
#
# Stress axis : x y z
#
# Youngs Moduli (GPa) = 73.35316 73.35316 92.04386
#
# Poissons Ratio (x) = 0.42694 0.25708
# Poissons Ratio (y) = 0.42694 0.25708
# Poissons Ratio (z) = 0.20488 0.20488
#
# Static dielectric constant tensor:
#      x y z
#    x 1.842670 0.000000 0.000000 
#    y 0.000000 1.842670 0.000000 
#    z 0.000000 0.000000 1.680740 
# 
# From -- ./inp_files/6084.got.cif
#   From: 2010.05.17/outbox.cif.g08.bks.cpg/sg180_4_cif.got.tgz:6084.got - 2010.05.20 11:43:55.
