data_PCOD9583372
_publ_section_title
;
Structure prediction by ZEFSAII (Michael W. Deem and Ramdas Pophale) SiO2 
 PCOD9583372
Probable space group: P 65 2 2
;
_chemical_formula_sum "Si O2"
_cell_formula_units_Z 36
_cell_length_a 16.069643
_cell_length_b 16.069643
_cell_length_c 8.030330
_cell_angle_alpha 90.000000
_cell_angle_beta 90.000000
_cell_angle_gamma 120.000000
_cell_volume 1795.876559
_symmetry_space_group_name_H-M "P 65 2 2"
_symmetry_group_IT_number 179
_symmetry_cell_setting 'hexagonal'
loop_
_space_group_symop_operation_xyz
x,y,z
x-y,x,5/6+z
-y,x-y,2/3+z
-x,-y,1/2+z
-x+y,-x,1/3+z
y,-x+y,1/6+z
x-y,-y,-z
-x,-x+y,1/3-z
y,x,2/3-z
-y,-x,1/6-z
-x+y,y,1/2-z
x,x-y,5/6-z
loop_
_atom_site_type_symbol
_atom_site_label
_atom_site_fract_x
_atom_site_fract_y
_atom_site_fract_z
Si Si1 0.807556 0.316783 0.733602
Si Si2 0.318907 0.000000 0.000000
Si Si3 0.469333 0.734667 0.916667
Si Si4 0.193823 0.148356 0.581888
O O1 0.742309 0.257692 0.583334
O O2 0.910714 0.336388 0.678860
O O3 0.786722 0.405186 0.741562
O O4 0.774757 0.255471 0.905771
O O5 0.247192 0.981658 0.843665
O O6 0.103894 0.160336 0.531915
O O7 0.229890 0.114945 0.416667
#
# Coordination Sequence:
#
# PCOD9583372 Si02
#       4
#    12   6   6  12
#     4  11  21  45  71  99 135 188 236 304 365 449
#     4  12  26  38  66 108 142 168 242 324 354 420
#     4  10  22  46  74  94 130 192 252 270 390 474
#     4  10  22  40  63  94 136 193 234 282 366 449
#
# _framework density 20.045919999999999
#
# number of rings (size 3 to 8) (size 9 to 14) (size 15 to 20)
#    0.000    1.333    3.333    3.000    2.333    8.000 
#   12.000    0.000    0.000    0.000    0.000    0.000 
#    0.000    0.000    0.000    0.000    0.000    0.000 
#
# Total GULP energy -200465.114239 kJ/mol
# GULP energy per Si atom -5568.475396 kJ/mol
# Density = 2.000030 g / cm^3
# Si number density = 20.045920 Si / 1000 Ang^3
#
#
#
# Elastic Constant Matrix: (Units=GPa)
#
#
# Indices 1 2 3 4 5 6 
#
# 1 353.9940 -255.2653 21.0230 0.0000 0.0000 0.0000
# 2 -255.2653 353.9940 21.0230 0.0000 0.0000 0.0000
# 3 21.0230 21.0230 109.8979 0.0000 0.0000 0.0000
# 4 0.0000 0.0000 0.0000 34.6431 0.0000 0.0000
# 5 0.0000 0.0000 0.0000 0.0000 34.6431 0.0000
# 6 0.0000 0.0000 0.0000 0.0000 0.0000 304.6296
#
#
#
# Elastic Compliance Matrix: (Units=1/GPa)
#
#
# Indices 1 2 3 4 5 6 
#
# 1 0.006334 0.004693 -0.002109 0.000000 0.000000 0.000000
# 2 0.004693 0.006334 -0.002109 0.000000 0.000000 0.000000
# 3 -0.002109 -0.002109 0.009906 0.000000 0.000000 0.000000
# 4 0.000000 0.000000 0.000000 0.028866 0.000000 0.000000
# 5 0.000000 0.000000 0.000000 0.000000 0.028866 0.000000
# 6 0.000000 0.000000 0.000000 0.000000 0.000000 0.003283
#
#
# Mechanical properties :
#
#
# Convention : Reuss Voigt Hill
#
# Bulk Modulus (GPa) = 42.51182 43.49418 43.00300
# Shear Modulus (GPa) = 55.25955 143.52350 99.39152
#
# Velocity S-wave (km/s) = 5.25608 8.47070 7.04908
# Velocity P-wave (km/s) = 7.62157 10.83581 9.36758
#
# Compressibility (1/GPa) = 0.02352287
#
# Stress axis : x y z
#
# Youngs Moduli (GPa) = 157.87240 157.87240 100.94470
#
# Poissons Ratio (x) = -0.74088 0.21294
# Poissons Ratio (y) = -0.74088 0.21294
# Poissons Ratio (z) = 0.33302 0.33302
#
# Static dielectric constant tensor:
#      x y z
#    x 1.520850 0.000000 0.000000 
#    y 0.000000 1.520850 0.000000 
#    z 0.000000 0.000000 1.790940 
# 
# From -- ./inp_files/2210.got.cif
#   From: 2010.05.17/outbox.cif.g08.bks.cpg/sg179_2_cif.got.tgz:2210.got - 2010.05.20 11:37:33.
