data_PCOD9583459
_publ_section_title
;
Structure prediction by ZEFSAII (Michael W. Deem and Ramdas Pophale) SiO2 
 PCOD9583459
Probable space group: P 65 2 2
;
_chemical_formula_sum "Si O2"
_cell_formula_units_Z 48
_cell_length_a 15.761280
_cell_length_b 15.761280
_cell_length_c 8.986446
_cell_angle_alpha 90.000000
_cell_angle_beta 90.000000
_cell_angle_gamma 120.000000
_cell_volume 1933.310321
_symmetry_space_group_name_H-M "P 65 2 2"
_symmetry_group_IT_number 179
_symmetry_cell_setting 'hexagonal'
loop_
_space_group_symop_operation_xyz
x,y,z
x-y,x,5/6+z
-y,x-y,2/3+z
-x,-y,1/2+z
-x+y,-x,1/3+z
y,-x+y,1/6+z
x-y,-y,-z
-x,-x+y,1/3-z
y,x,2/3-z
-y,-x,1/6-z
-x+y,y,1/2-z
x,x-y,5/6-z
loop_
_atom_site_type_symbol
_atom_site_label
_atom_site_fract_x
_atom_site_fract_y
_atom_site_fract_z
Si Si1 0.264118 0.720011 0.757972
Si Si2 0.937304 0.626143 0.522203
Si Si3 0.124377 0.918629 0.244030
Si Si4 0.610823 0.065876 0.359864
O O1 0.256116 0.743885 0.583334
O O2 0.337978 0.675956 0.750000
O O3 0.153464 0.668616 0.817117
O O4 0.320364 0.817664 0.859800
O O5 0.904755 0.706970 0.518711
O O6 0.000000 0.638631 0.666667
O O7 0.012140 0.661418 0.385083
O O8 0.024816 0.872927 0.341365
O O9 0.128336 0.871665 0.083334
O O10 0.525909 0.051818 0.250000
O O11 0.560520 0.000000 0.500000
#
# Coordination Sequence:
#
# PCOD9583459 Si02
#       4
#    12  12  12  12
#     4  11  26  49  75 114 157 198 265 335 396 482
#     4  12  25  46  78 108 150 206 270 322 402 484
#     4  10  24  45  68 108 158 210 267 329 395 476
#     4  11  26  46  76 109 152 205 259 330 403 478
#
# _framework density 24.827883
#
# number of rings (size 3 to 8) (size 9 to 14) (size 15 to 20)
#    0.000    1.000    2.500    2.250   10.500    1.000 
#   13.500    0.000    0.000    0.000    0.000    0.000 
#    0.000    0.000    0.000    0.000    0.000    0.000 
#
# Total GULP energy -267923.312909 kJ/mol
# GULP energy per Si atom -5581.735686 kJ/mol
# Density = 2.477137 g / cm^3
# Si number density = 24.827883 Si / 1000 Ang^3
#
#
#
# Elastic Constant Matrix: (Units=GPa)
#
#
# Indices 1 2 3 4 5 6 
#
# 1 128.5415 46.2671 33.6255 0.0000 0.0000 0.0000
# 2 46.2671 128.5415 33.6255 0.0000 0.0000 0.0000
# 3 33.6255 33.6255 74.8493 0.0000 0.0000 0.0000
# 4 0.0000 0.0000 0.0000 22.0859 0.0000 0.0000
# 5 0.0000 0.0000 0.0000 0.0000 22.0859 0.0000
# 6 0.0000 0.0000 0.0000 0.0000 0.0000 41.1372
#
#
#
# Elastic Compliance Matrix: (Units=1/GPa)
#
#
# Indices 1 2 3 4 5 6 
#
# 1 0.009535 -0.002619 -0.003107 0.000000 0.000000 0.000000
# 2 -0.002619 0.009535 -0.003107 0.000000 0.000000 0.000000
# 3 -0.003107 -0.003107 0.016152 0.000000 0.000000 0.000000
# 4 0.000000 0.000000 0.000000 0.045278 0.000000 0.000000
# 5 0.000000 0.000000 0.000000 0.000000 0.045278 0.000000
# 6 0.000000 0.000000 0.000000 0.000000 0.000000 0.024309
#
#
# Mechanical properties :
#
#
# Convention : Reuss Voigt Hill
#
# Bulk Modulus (GPa) = 56.96135 62.10761 59.53448
# Shear Modulus (GPa) = 28.80115 31.62276 30.21195
#
# Velocity S-wave (km/s) = 3.40962 3.57274 3.49213
# Velocity P-wave (km/s) = 6.20427 6.48759 6.34751
#
# Compressibility (1/GPa) = 0.01755576
#
# Stress axis : x y z
#
# Youngs Moduli (GPa) = 104.87545 104.87545 61.91322
#
# Poissons Ratio (x) = 0.27470 0.19236
# Poissons Ratio (y) = 0.27470 0.19236
# Poissons Ratio (z) = 0.32583 0.32583
#
# Static dielectric constant tensor:
#      x y z
#    x 2.053730 0.000000 0.000000 
#    y 0.000000 2.053730 0.000000 
#    z 0.000000 0.000000 2.024510 
# 
# From -- ./inp_files/2671.got.cif
#   From: 2010.05.17/outbox.cif.g08.bks.cpg/sg179_2_cif.got.tgz:2671.got - 2010.05.20 11:37:33.
