data_PCOD9583862
_publ_section_title
;
Structure prediction by ZEFSAII (Michael W. Deem and Ramdas Pophale) SiO2 
 PCOD9583862
Probable space group: P 62 2 2
;
_chemical_formula_sum "Si O2"
_cell_formula_units_Z 48
_cell_length_a 24.854196
_cell_length_b 24.854196
_cell_length_c 5.182952
_cell_angle_alpha 90.000000
_cell_angle_beta 90.000000
_cell_angle_gamma 120.000000
_cell_volume 2772.727924
_symmetry_space_group_name_H-M "P 62 2 2"
_symmetry_group_IT_number 180
_symmetry_cell_setting 'hexagonal'
loop_
_space_group_symop_operation_xyz
x,y,z
x-y,x,1/3+z
-y,x-y,2/3+z
-x,-y,z
-x+y,-x,1/3+z
y,-x+y,2/3+z
x-y,-y,-z
-x,-x+y,1/3-z
y,x,2/3-z
-y,-x,2/3-z
-x+y,y,-z
x,x-y,1/3-z
loop_
_atom_site_type_symbol
_atom_site_label
_atom_site_fract_x
_atom_site_fract_y
_atom_site_fract_z
Si Si1 0.575789 0.821200 0.425975
Si Si2 0.366855 0.326974 0.078070
Si Si3 0.558547 0.225822 0.339038
Si Si4 0.910898 0.421682 0.903443
O O1 0.602393 0.801197 0.666667
O O2 0.619029 0.890894 0.323326
O O3 0.504965 0.801595 0.510499
O O4 0.564967 0.782484 0.166667
O O5 0.332671 0.332671 0.333334
O O6 0.437039 0.384920 0.079920
O O7 0.331407 0.331407 0.833334
O O8 0.619885 0.239769 0.500000
O O9 0.569336 0.284668 0.166667
O O10 0.536238 0.162328 0.180193
O O11 0.934356 0.467178 0.666667
O O12 0.914384 0.457192 0.166667
#
# Coordination Sequence:
#
# PCOD9583862 Si02
#       4
#    12  12  12  12
#     4  10  21  39  57  73 101 134 157 191 254 311
#     4  11  22  35  55  79  97 120 162 205 238 288
#     4   9  20  36  51  67  91 121 162 206 250 309
#     4  10  21  36  50  67  94 123 152 195 257 315
#
# _framework density 17.311471000000001
#
# number of rings (size 3 to 8) (size 9 to 14) (size 15 to 20)
#    0.000    2.000    0.000    3.000    0.000   19.000 
#    0.000   11.250    0.000    0.000    0.000    0.000 
#    0.000    0.000    0.000    0.000    0.000    0.000 
#
# Total GULP energy -267584.635789 kJ/mol
# GULP energy per Si atom -5574.679912 kJ/mol
# Density = 1.727207 g / cm^3
# Si number density = 17.311471 Si / 1000 Ang^3
#
#
#
# Elastic Constant Matrix: (Units=GPa)
#
#
# Indices 1 2 3 4 5 6 
#
# 1 75.0964 36.6671 36.1844 0.0000 0.0000 0.0000
# 2 36.6671 75.0964 36.1844 0.0000 0.0000 0.0000
# 3 36.1844 36.1844 109.4987 0.0000 0.0000 0.0000
# 4 0.0000 0.0000 0.0000 29.5848 0.0000 0.0000
# 5 0.0000 0.0000 0.0000 0.0000 29.5848 0.0000
# 6 0.0000 0.0000 0.0000 0.0000 0.0000 19.2146
#
#
#
# Elastic Compliance Matrix: (Units=1/GPa)
#
#
# Indices 1 2 3 4 5 6 
#
# 1 0.018702 -0.007319 -0.003762 0.000000 0.000000 0.000000
# 2 -0.007319 0.018702 -0.003762 0.000000 0.000000 0.000000
# 3 -0.003762 -0.003762 0.011619 0.000000 0.000000 0.000000
# 4 0.000000 0.000000 0.000000 0.033801 0.000000 0.000000
# 5 0.000000 0.000000 0.000000 0.000000 0.033801 0.000000
# 6 0.000000 0.000000 0.000000 0.000000 0.000000 0.052044
#
#
# Mechanical properties :
#
#
# Convention : Reuss Voigt Hill
#
# Bulk Modulus (GPa) = 51.71042 53.08484 52.39763
# Shear Modulus (GPa) = 24.41394 25.72053 25.06724
#
# Velocity S-wave (km/s) = 3.75944 3.85873 3.80941
# Velocity P-wave (km/s) = 6.98426 7.11225 7.04855
#
# Compressibility (1/GPa) = 0.01933846
#
# Stress axis : x y z
#
# Youngs Moduli (GPa) = 53.46879 53.46879 86.06864
#
# Poissons Ratio (x) = 0.39136 0.32376
# Poissons Ratio (y) = 0.39136 0.32376
# Poissons Ratio (z) = 0.20113 0.20113
#
# Static dielectric constant tensor:
#      x y z
#    x 1.733340 0.000000 0.000000 
#    y 0.000000 1.733340 0.000000 
#    z 0.000000 0.000000 1.237020 
# 
# From -- ./inp_files/1117.got.cif
#   From: 2010.05.17/outbox.cif.g08.bks.cpg/sg180_1_cif.got.tgz:1117.got - 2010.05.20 11:43:55.
