data_PCOD9583897
_publ_section_title
;
Structure prediction by ZEFSAII (Michael W. Deem and Ramdas Pophale) SiO2 
 PCOD9583897
Probable space group: P 62 2 2
;
_chemical_formula_sum "Si O2"
_cell_formula_units_Z 72
_cell_length_a 14.906251
_cell_length_b 14.906251
_cell_length_c 18.690697
_cell_angle_alpha 90.000000
_cell_angle_beta 90.000000
_cell_angle_gamma 120.000000
_cell_volume 3596.607027
_symmetry_space_group_name_H-M "P 62 2 2"
_symmetry_group_IT_number 180
_symmetry_cell_setting 'hexagonal'
loop_
_space_group_symop_operation_xyz
x,y,z
x-y,x,1/3+z
-y,x-y,2/3+z
-x,-y,z
-x+y,-x,1/3+z
y,-x+y,2/3+z
x-y,-y,-z
-x,-x+y,1/3-z
y,x,2/3-z
-y,-x,2/3-z
-x+y,y,-z
x,x-y,1/3-z
loop_
_atom_site_type_symbol
_atom_site_label
_atom_site_fract_x
_atom_site_fract_y
_atom_site_fract_z
Si Si1 0.233134 0.097243 0.963098
Si Si2 0.792398 0.602899 0.424195
Si Si3 0.232020 0.925816 0.392320
Si Si4 0.129546 0.378385 0.829403
Si Si5 0.017075 0.404842 0.383444
Si Si6 0.564506 0.440615 0.248277
O O1 0.212419 0.189225 0.939452
O O2 0.287804 0.077282 0.895794
O O3 0.319161 0.130018 0.026167
O O4 0.136136 0.000000 0.000000
O O5 0.830456 0.660912 0.500000
O O6 0.677144 0.511524 0.441060
O O7 0.864015 0.557676 0.397613
O O8 0.153234 0.846767 0.333334
O O9 0.213149 0.855990 0.462722
O O10 0.346390 0.976497 0.358578
O O11 0.048078 0.368920 0.889055
O O12 0.164280 0.488469 0.789750
O O13 0.000000 0.500000 0.389832
O O14 0.500000 0.500000 0.236843
O O15 0.571361 0.428640 0.333334
#
# Coordination Sequence:
#
# PCOD9583897 Si02
#       6
#    12  12  12  12  12  12
#     4  11  21  35  61  91 124 162 208 270 329 394
#     4  11  21  35  56  91 125 162 210 257 329 400
#     4   9  22  40  61  86 119 173 222 257 320 402
#     4  11  20  38  63  89 126 173 207 265 339 397
#     4  10  21  40  65  86 121 172 220 269 322 391
#     4  11  21  35  58  92 129 159 200 259 326 387
#
# _framework density 20.018867
#
# number of rings (size 3 to 8) (size 9 to 14) (size 15 to 20)
#    0.000    1.500    1.667    5.000    0.000    0.333 
#    0.000    4.167    3.667   10.000    0.000    0.000 
#    0.000    0.000    0.000    0.000    0.000    0.000 
#
# Total GULP energy -401462.849883 kJ/mol
# GULP energy per Si atom -5575.872915 kJ/mol
# Density = 1.997330 g / cm^3
# Si number density = 20.018867 Si / 1000 Ang^3
#
#
#
# Elastic Constant Matrix: (Units=GPa)
#
#
# Indices 1 2 3 4 5 6 
#
# 1 70.3148 52.2013 47.0446 0.0000 0.0000 0.0000
# 2 52.2013 70.3148 47.0446 0.0000 0.0000 0.0000
# 3 47.0446 47.0446 112.8023 0.0000 0.0000 0.0000
# 4 0.0000 0.0000 0.0000 23.7796 0.0000 0.0000
# 5 0.0000 0.0000 0.0000 0.0000 23.7796 0.0000
# 6 0.0000 0.0000 0.0000 0.0000 0.0000 9.0568
#
#
#
# Elastic Compliance Matrix: (Units=1/GPa)
#
#
# Indices 1 2 3 4 5 6 
#
# 1 0.033608 -0.021599 -0.005008 0.000000 0.000000 0.000000
# 2 -0.021599 0.033608 -0.005008 0.000000 0.000000 0.000000
# 3 -0.005008 -0.005008 0.013042 0.000000 0.000000 0.000000
# 4 0.000000 0.000000 0.000000 0.042053 0.000000 0.000000
# 5 0.000000 0.000000 0.000000 0.000000 0.042053 0.000000
# 6 0.000000 0.000000 0.000000 0.000000 0.000000 0.110414
#
#
# Mechanical properties :
#
#
# Convention : Reuss Voigt Hill
#
# Bulk Modulus (GPa) = 58.73187 60.66810 59.69999
# Shear Modulus (GPa) = 14.54822 18.46597 16.50709
#
# Velocity S-wave (km/s) = 2.69871 3.04045 2.87466
# Velocity P-wave (km/s) = 6.25401 6.53429 6.39569
#
# Compressibility (1/GPa) = 0.01702653
#
# Stress axis : x y z
#
# Youngs Moduli (GPa) = 29.75505 29.75505 76.67323
#
# Poissons Ratio (x) = 0.64269 0.38399
# Poissons Ratio (y) = 0.64269 0.38399
# Poissons Ratio (z) = 0.14902 0.14902
#
# Static dielectric constant tensor:
#      x y z
#    x 1.746640 0.000000 0.000000 
#    y 0.000000 1.746640 0.000000 
#    z 0.000000 0.000000 1.773740 
# 
# From -- ./inp_files/7809.got.cif
#   From: 2010.05.17/outbox.cif.g08.bks.cpg/sg180_4_cif.got.tgz:7809.got - 2010.05.20 11:43:55.
