data_PCOD9583687
_publ_section_title
;
Structure prediction by ZEFSAII (Michael W. Deem and Ramdas Pophale) SiO2 
 PCOD9583687
Probable space group: P 62 2 2
;
_chemical_formula_sum "Si O2"
_cell_formula_units_Z 72
_cell_length_a 17.959597
_cell_length_b 17.959597
_cell_length_c 16.016441
_cell_angle_alpha 90.000000
_cell_angle_beta 90.000000
_cell_angle_gamma 120.000000
_cell_volume 4473.936589
_symmetry_space_group_name_H-M "P 62 2 2"
_symmetry_group_IT_number 180
_symmetry_cell_setting 'hexagonal'
loop_
_space_group_symop_operation_xyz
x,y,z
x-y,x,1/3+z
-y,x-y,2/3+z
-x,-y,z
-x+y,-x,1/3+z
y,-x+y,2/3+z
x-y,-y,-z
-x,-x+y,1/3-z
y,x,2/3-z
-y,-x,2/3-z
-x+y,y,-z
x,x-y,1/3-z
loop_
_atom_site_type_symbol
_atom_site_label
_atom_site_fract_x
_atom_site_fract_y
_atom_site_fract_z
Si Si1 0.990973 0.405793 0.810314
Si Si2 0.501346 0.306187 0.244506
Si Si3 0.342706 0.517905 0.182276
Si Si4 0.011910 0.416300 0.327394
Si Si5 0.341832 0.511802 0.990585
Si Si6 0.688609 0.492942 0.733069
O O1 0.906915 0.339083 0.759533
O O2 0.975197 0.379582 0.908019
O O3 0.000000 0.500000 0.802201
O O4 0.088542 0.432815 0.787179
O O5 0.489710 0.244855 0.166667
O O6 0.592060 0.395023 0.231189
O O7 0.501258 0.253203 0.324760
O O8 0.376358 0.531892 0.087086
O O9 0.247790 0.504251 0.187689
O O10 0.096340 0.435158 0.277491
O O11 0.000000 0.500000 0.320568
O O12 0.917773 0.345153 0.297234
O O13 0.247662 0.495324 0.000000
O O14 0.404182 0.598588 0.941239
#
# Coordination Sequence:
#
# PCOD9583687 Si02
#       6
#    12  12  12  12  12  12
#     4   8  15  28  41  54  84 113 137 165 206 258
#     4  11  16  26  43  62  81 113 143 165 206 251
#     4  10  20  29  40  63  83 105 144 184 207 236
#     4   8  15  29  42  57  77 111 139 166 212 256
#     4  10  19  31  45  57  79 110 143 177 215 253
#     4  11  19  27  44  63  83 106 142 183 207 245
#
# _framework density 16.093209999999999
#
# number of rings (size 3 to 8) (size 9 to 14) (size 15 to 20)
#    0.000    2.333    3.333    3.500    0.000    0.667 
#    0.000    3.333    0.000    3.000    0.000    0.000 
#    0.000    0.000    0.000    3.000    4.667    0.000 
#
# Total GULP energy -401174.322157 kJ/mol
# GULP energy per Si atom -5571.865586 kJ/mol
# Density = 1.605658 g / cm^3
# Si number density = 16.093210 Si / 1000 Ang^3
#
#
#
# Elastic Constant Matrix: (Units=GPa)
#
#
# Indices 1 2 3 4 5 6 
#
# 1 89.8610 50.8280 9.2804 0.0000 0.0000 0.0000
# 2 50.8280 89.8610 9.2804 0.0000 0.0000 0.0000
# 3 9.2804 9.2804 32.6191 0.0000 0.0000 0.0000
# 4 0.0000 0.0000 0.0000 17.9819 0.0000 0.0000
# 5 0.0000 0.0000 0.0000 0.0000 17.9819 0.0000
# 6 0.0000 0.0000 0.0000 0.0000 0.0000 19.5165
#
#
#
# Elastic Compliance Matrix: (Units=1/GPa)
#
#
# Indices 1 2 3 4 5 6 
#
# 1 0.016502 -0.009117 -0.002101 0.000000 0.000000 0.000000
# 2 -0.009117 0.016502 -0.002101 0.000000 0.000000 0.000000
# 3 -0.002101 -0.002101 0.031852 0.000000 0.000000 0.000000
# 4 0.000000 0.000000 0.000000 0.055611 0.000000 0.000000
# 5 0.000000 0.000000 0.000000 0.000000 0.055611 0.000000
# 6 0.000000 0.000000 0.000000 0.000000 0.000000 0.051239
#
#
# Mechanical properties :
#
#
# Convention : Reuss Voigt Hill
#
# Bulk Modulus (GPa) = 26.16560 39.01320 32.58940
# Shear Modulus (GPa) = 18.74792 20.62623 19.68708
#
# Velocity S-wave (km/s) = 3.41685 3.58393 3.50139
# Velocity P-wave (km/s) = 5.64452 6.43589 6.05315
#
# Compressibility (1/GPa) = 0.03821813
#
# Stress axis : x y z
#
# Youngs Moduli (GPa) = 60.59802 60.59802 31.39475
#
# Poissons Ratio (x) = 0.55248 0.06596
# Poissons Ratio (y) = 0.55248 0.06596
# Poissons Ratio (z) = 0.12732 0.12732
#
# Static dielectric constant tensor:
#      x y z
#    x 1.572210 0.000000 0.000000 
#    y 0.000000 1.572210 0.000000 
#    z 0.000000 0.000000 1.646980 
# 
# From -- ./inp_files/7910.got.cif
#   From: 2010.05.17/outbox.cif.g08.bks.cpg/sg180_4_cif.got.tgz:7910.got - 2010.05.20 11:43:55.
