data_PCOD9583676
_publ_section_title
;
Structure prediction by ZEFSAII (Michael W. Deem and Ramdas Pophale) SiO2 
 PCOD9583676
Probable space group: P 62 2 2
;
_chemical_formula_sum "Si O2"
_cell_formula_units_Z 51
_cell_length_a 12.671672
_cell_length_b 12.671672
_cell_length_c 20.435378
_cell_angle_alpha 90.000000
_cell_angle_beta 90.000000
_cell_angle_gamma 120.000000
_cell_volume 2841.719143
_symmetry_space_group_name_H-M "P 62 2 2"
_symmetry_group_IT_number 180
_symmetry_cell_setting 'hexagonal'
loop_
_space_group_symop_operation_xyz
x,y,z
x-y,x,1/3+z
-y,x-y,2/3+z
-x,-y,z
-x+y,-x,1/3+z
y,-x+y,2/3+z
x-y,-y,-z
-x,-x+y,1/3-z
y,x,2/3-z
-y,-x,2/3-z
-x+y,y,-z
x,x-y,1/3-z
loop_
_atom_site_type_symbol
_atom_site_label
_atom_site_fract_x
_atom_site_fract_y
_atom_site_fract_z
Si Si1 0.758228 0.241773 0.833334
Si Si2 0.500000 0.000000 0.000000
Si Si3 0.212811 0.425621 0.000000
Si Si4 0.166376 0.495034 0.773190
Si Si5 0.561772 0.422503 0.911377
Si Si6 0.368148 0.379883 0.098157
O O1 0.789215 0.364270 0.793212
O O2 0.875483 0.277942 0.879575
O O3 0.611051 0.075401 0.047716
O O4 0.308954 0.514495 0.946303
O O5 0.083928 0.357274 0.960782
O O6 0.279211 0.486155 0.744741
O O7 0.097525 0.416041 0.836937
O O8 0.500000 0.500000 0.931476
O O9 0.572571 0.427430 0.833334
O O10 0.500000 0.500000 0.082905
#
# Coordination Sequence:
#
# PCOD9583676 Si02
#       6
#     6   3   6  12  12  12
#     4  10  18  38  59  82 127 162 192 258 310 364
#     4  12  22  32  60  92 120 168 206 250 320 376
#     4  12  21  36  58  87 119 159 202 242 312 374
#     4  11  20  37  56  88 128 156 209 250 307 386
#     4  11  22  37  58  86 122 162 198 253 313 369
#     4  10  20  36  57  87 120 163 199 251 308 371
#
# _framework density 17.946881000000001
#
# number of rings (size 3 to 8) (size 9 to 14) (size 15 to 20)
#    0.000    1.176    7.059    2.824    0.000    1.882 
#    0.000    0.000    0.000    0.000    0.000    4.941 
#    0.000    0.000    0.000    0.000    0.000    0.000 
#
# Total GULP energy -284362.501980 kJ/mol
# GULP energy per Si atom -5575.735333 kJ/mol
# Density = 1.790603 g / cm^3
# Si number density = 17.946881 Si / 1000 Ang^3
#
#
#
# Elastic Constant Matrix: (Units=GPa)
#
#
# Indices 1 2 3 4 5 6 
#
# 1 79.9147 24.5446 30.3225 0.0000 0.0000 0.0000
# 2 24.5446 79.9147 30.3225 0.0000 0.0000 0.0000
# 3 30.3225 30.3225 100.9799 0.0000 0.0000 0.0000
# 4 0.0000 0.0000 0.0000 -6.5897 0.0000 0.0000
# 5 0.0000 0.0000 0.0000 0.0000 -6.5897 0.0000
# 6 0.0000 0.0000 0.0000 0.0000 0.0000 27.6851
#
#
#
# Elastic Compliance Matrix: (Units=1/GPa)
#
#
# Indices 1 2 3 4 5 6 
#
# 1 0.014827 -0.003233 -0.003482 0.000000 0.000000 0.000000
# 2 -0.003233 0.014827 -0.003482 0.000000 0.000000 0.000000
# 3 -0.003482 -0.003482 0.011994 0.000000 0.000000 0.000000
# 4 0.000000 0.000000 0.000000 -0.151752 0.000000 0.000000
# 5 0.000000 0.000000 0.000000 0.000000 -0.151752 0.000000
# 6 0.000000 0.000000 0.000000 0.000000 0.000000 0.036121
#
#
# Mechanical properties :
#
#
# Convention : Reuss Voigt Hill
#
# Bulk Modulus (GPa) = 47.04493 47.90985 47.47739
# Shear Modulus (GPa) = -25.21980 14.60911 -5.30534
#
# Velocity S-wave (km/s) = -3.75273 2.85620 -1.72121
# Velocity P-wave (km/s) = 2.73734 6.13437 4.74992
#
# Compressibility (1/GPa) = 0.02125628
#
# Stress axis : x y z
#
# Youngs Moduli (GPa) = 67.44303 67.44303 83.37577
#
# Poissons Ratio (x) = 0.21804 0.29028
# Poissons Ratio (y) = 0.21804 0.29028
# Poissons Ratio (z) = 0.23481 0.23481
#
# Static dielectric constant tensor:
#      x y z
#    x 1.637650 0.000000 0.000000 
#    y 0.000000 1.637650 0.000000 
#    z 0.000000 0.000000 1.648960 
# 
# From -- ./inp_files/8927.got.cif
#   From: 2010.05.17/outbox.cif.g08.bks.cpg/sg180_5_cif.got.tgz:8927.got - 2010.05.20 11:43:55.
