data_PCOD9583961
_publ_section_title
;
Structure prediction by ZEFSAII (Michael W. Deem and Ramdas Pophale) SiO2 
 PCOD9583961
Probable space group: P 62 2 2
;
_chemical_formula_sum "Si O2"
_cell_formula_units_Z 42
_cell_length_a 10.949594
_cell_length_b 10.949594
_cell_length_c 17.164066
_cell_angle_alpha 90.000000
_cell_angle_beta 90.000000
_cell_angle_gamma 120.000000
_cell_volume 1782.160608
_symmetry_space_group_name_H-M "P 62 2 2"
_symmetry_group_IT_number 180
_symmetry_cell_setting 'hexagonal'
loop_
_space_group_symop_operation_xyz
x,y,z
x-y,x,1/3+z
-y,x-y,2/3+z
-x,-y,z
-x+y,-x,1/3+z
y,-x+y,2/3+z
x-y,-y,-z
-x,-x+y,1/3-z
y,x,2/3-z
-y,-x,2/3-z
-x+y,y,-z
x,x-y,1/3-z
loop_
_atom_site_type_symbol
_atom_site_label
_atom_site_fract_x
_atom_site_fract_y
_atom_site_fract_z
Si Si1 0.218182 0.781819 0.333334
Si Si2 0.570038 0.900037 0.200641
Si Si3 0.162456 0.299415 0.166871
Si Si4 0.489449 0.711388 0.973165
O O1 0.152890 0.801529 0.411187
O O2 0.167777 0.622651 0.306428
O O3 0.480084 0.740042 0.166667
O O4 0.589738 0.866939 0.289315
O O5 0.500000 0.000000 0.196267
O O6 0.711480 0.980314 0.149531
O O7 0.189877 0.422902 0.227765
O O8 0.000000 0.179228 0.166667
O O9 0.387220 0.774439 0.000000
#
# Coordination Sequence:
#
# PCOD9583961 Si02
#       4
#     6  12  12  12
#     4  10  22  42  68 106 148 188 250 318 372 454
#     4  12  25  47  74 104 152 195 251 322 377 454
#     4  12  25  41  68 108 144 200 249 301 389 461
#     4  10  23  41  71 106 142 196 252 307 379 447
#
# _framework density 23.566898999999999
#
# number of rings (size 3 to 8) (size 9 to 14) (size 15 to 20)
#    0.857    0.000    2.857    4.286    0.000    2.857 
#    0.000    2.857    0.000    5.143    0.000    0.000 
#    0.000    0.000    0.000    0.000    0.000    0.000 
#
# Total GULP energy -234091.662029 kJ/mol
# GULP energy per Si atom -5573.611001 kJ/mol
# Density = 2.351326 g / cm^3
# Si number density = 23.566899 Si / 1000 Ang^3
#
#
#
# Elastic Constant Matrix: (Units=GPa)
#
#
# Indices 1 2 3 4 5 6 
#
# 1 122.5483 46.3002 34.5257 0.0000 0.0000 0.0000
# 2 46.3002 122.5483 34.5257 0.0000 0.0000 0.0000
# 3 34.5257 34.5257 124.2770 0.0000 0.0000 0.0000
# 4 0.0000 0.0000 0.0000 27.3668 0.0000 0.0000
# 5 0.0000 0.0000 0.0000 0.0000 27.3668 0.0000
# 6 0.0000 0.0000 0.0000 0.0000 0.0000 38.1241
#
#
#
# Elastic Compliance Matrix: (Units=1/GPa)
#
#
# Indices 1 2 3 4 5 6 
#
# 1 0.009898 -0.003217 -0.001856 0.000000 0.000000 0.000000
# 2 -0.003217 0.009898 -0.001856 0.000000 0.000000 0.000000
# 3 -0.001856 -0.001856 0.009078 0.000000 0.000000 0.000000
# 4 0.000000 0.000000 0.000000 0.036541 0.000000 0.000000
# 5 0.000000 0.000000 0.000000 0.000000 0.036541 0.000000
# 6 0.000000 0.000000 0.000000 0.000000 0.000000 0.026230
#
#
# Mechanical properties :
#
#
# Convention : Reuss Voigt Hill
#
# Bulk Modulus (GPa) = 66.59489 66.67519 66.63504
# Shear Modulus (GPa) = 34.00212 35.50636 34.75424
#
# Velocity S-wave (km/s) = 3.80253 3.88573 3.84436
# Velocity P-wave (km/s) = 6.89914 6.96313 6.93121
#
# Compressibility (1/GPa) = 0.01501617
#
# Stress axis : x y z
#
# Youngs Moduli (GPa) = 101.02719 101.02719 110.15754
#
# Poissons Ratio (x) = 0.32498 0.20448
# Poissons Ratio (y) = 0.32498 0.20448
# Poissons Ratio (z) = 0.18753 0.18753
#
# Static dielectric constant tensor:
#      x y z
#    x 2.028050 0.000000 0.000000 
#    y 0.000000 2.028050 0.000000 
#    z 0.000000 0.000000 1.902330 
# 
# From -- ./inp_files/7199.got.cif
#   From: 2010.05.17/outbox.cif.g08.bks.cpg/sg180_4_cif.got.tgz:7199.got - 2010.05.20 11:43:55.
