data_PCOD9583886
_publ_section_title
;
Structure prediction by ZEFSAII (Michael W. Deem and Ramdas Pophale) SiO2 
 PCOD9583886
Probable space group: P 62 2 2
;
_chemical_formula_sum "Si O2"
_cell_formula_units_Z 36
_cell_length_a 12.980126
_cell_length_b 12.980126
_cell_length_c 13.204908
_cell_angle_alpha 90.000000
_cell_angle_beta 90.000000
_cell_angle_gamma 120.000000
_cell_volume 1926.743169
_symmetry_space_group_name_H-M "P 62 2 2"
_symmetry_group_IT_number 180
_symmetry_cell_setting 'hexagonal'
loop_
_space_group_symop_operation_xyz
x,y,z
x-y,x,1/3+z
-y,x-y,2/3+z
-x,-y,z
-x+y,-x,1/3+z
y,-x+y,2/3+z
x-y,-y,-z
-x,-x+y,1/3-z
y,x,2/3-z
-y,-x,2/3-z
-x+y,y,-z
x,x-y,1/3-z
loop_
_atom_site_type_symbol
_atom_site_label
_atom_site_fract_x
_atom_site_fract_y
_atom_site_fract_z
Si Si1 0.597839 0.195677 0.500000
Si Si2 0.500000 0.500000 0.004458
Si Si3 0.835309 0.966729 0.883669
Si Si4 0.741636 0.146288 0.228246
O O1 0.532097 0.109862 0.404252
O O2 0.527073 0.264216 0.526991
O O3 0.385980 0.425685 0.073681
O O4 0.892405 0.892405 0.833334
O O5 0.697224 0.894335 0.855365
O O6 0.903381 0.096620 0.833334
O O7 0.867513 0.000000 0.000000
O O8 0.817181 0.182820 0.333334
#
# Coordination Sequence:
#
# PCOD9583886 Si02
#       4
#     6   6  12  12
#     4   9  20  36  64  88 116 160 215 252 304 369
#     4   9  20  38  59  92 114 162 205 250 317 356
#     4  11  23  38  59  91 124 164 202 253 311 372
#     4  10  21  39  63  89 120 160 204 262 303 375
#
# _framework density 18.684377999999999
#
# number of rings (size 3 to 8) (size 9 to 14) (size 15 to 20)
#    0.000    2.000    0.000    4.000   14.000    0.000 
#    3.000    4.167    0.000    0.000    0.000    0.000 
#    0.000    0.000    0.000    0.000    0.000    0.000 
#
# Total GULP energy -200696.314261 kJ/mol
# GULP energy per Si atom -5574.897618 kJ/mol
# Density = 1.864185 g / cm^3
# Si number density = 18.684378 Si / 1000 Ang^3
#
#
#
# Elastic Constant Matrix: (Units=GPa)
#
#
# Indices 1 2 3 4 5 6 
#
# 1 79.9360 51.4534 37.7877 0.0000 0.0000 0.0000
# 2 51.4534 79.9360 37.7877 0.0000 0.0000 0.0000
# 3 37.7877 37.7877 126.9731 0.0000 0.0000 0.0000
# 4 0.0000 0.0000 0.0000 18.5272 0.0000 0.0000
# 5 0.0000 0.0000 0.0000 0.0000 18.5272 0.0000
# 6 0.0000 0.0000 0.0000 0.0000 0.0000 14.2413
#
#
#
# Elastic Compliance Matrix: (Units=1/GPa)
#
#
# Indices 1 2 3 4 5 6 
#
# 1 0.022146 -0.012963 -0.002733 0.000000 0.000000 0.000000
# 2 -0.012963 0.022146 -0.002733 0.000000 0.000000 0.000000
# 3 -0.002733 -0.002733 0.009502 0.000000 0.000000 0.000000
# 4 0.000000 0.000000 0.000000 0.053975 0.000000 0.000000
# 5 0.000000 0.000000 0.000000 0.000000 0.053975 0.000000
# 6 0.000000 0.000000 0.000000 0.000000 0.000000 0.070218
#
#
# Mechanical properties :
#
#
# Convention : Reuss Voigt Hill
#
# Bulk Modulus (GPa) = 59.04351 60.10027 59.57189
# Shear Modulus (GPa) = 18.21724 20.91357 19.56541
#
# Velocity S-wave (km/s) = 3.12588 3.34924 3.23949
# Velocity P-wave (km/s) = 6.68560 6.86967 6.77826
#
# Compressibility (1/GPa) = 0.01693666
#
# Stress axis : x y z
#
# Youngs Moduli (GPa) = 45.15479 45.15479 105.23762
#
# Poissons Ratio (x) = 0.58535 0.28760
# Poissons Ratio (y) = 0.58535 0.28760
# Poissons Ratio (z) = 0.12340 0.12340
#
# Static dielectric constant tensor:
#      x y z
#    x 1.681450 0.000000 0.000000 
#    y 0.000000 1.681450 0.000000 
#    z 0.000000 0.000000 1.500090 
# 
# From -- ./inp_files/5528.got.cif
#   From: 2010.05.17/outbox.cif.g08.bks.cpg/sg180_3_cif.got.tgz:5528.got - 2010.05.20 11:43:55.
