data_PCOD9583267
_publ_section_title
;
Structure prediction by ZEFSAII (Michael W. Deem and Ramdas Pophale) SiO2 
 PCOD9583267
Probable space group: P 65 2 2
;
_chemical_formula_sum "Si O2"
_cell_formula_units_Z 72
_cell_length_a 12.046478
_cell_length_b 12.046478
_cell_length_c 29.518095
_cell_angle_alpha 90.000000
_cell_angle_beta 90.000000
_cell_angle_gamma 120.000000
_cell_volume 3709.703002
_symmetry_space_group_name_H-M "P 65 2 2"
_symmetry_group_IT_number 179
_symmetry_cell_setting 'hexagonal'
loop_
_space_group_symop_operation_xyz
x,y,z
x-y,x,5/6+z
-y,x-y,2/3+z
-x,-y,1/2+z
-x+y,-x,1/3+z
y,-x+y,1/6+z
x-y,-y,-z
-x,-x+y,1/3-z
y,x,2/3-z
-y,-x,1/6-z
-x+y,y,1/2-z
x,x-y,5/6-z
loop_
_atom_site_type_symbol
_atom_site_label
_atom_site_fract_x
_atom_site_fract_y
_atom_site_fract_z
Si Si1 0.826683 0.173318 0.583334
Si Si2 0.165312 0.552504 0.534772
Si Si3 0.963462 0.496874 0.219009
Si Si4 0.407961 0.592040 0.583334
Si Si5 0.743361 0.954657 0.651230
Si Si6 0.260973 0.973059 0.247380
Si Si7 0.777455 0.280178 0.948544
O O1 0.680840 0.110512 0.567777
O O2 0.823140 0.084994 0.623812
O O3 0.310563 0.588048 0.545529
O O4 0.181736 0.656342 0.498126
O O5 0.085046 0.542284 0.580378
O O6 0.090343 0.408818 0.514383
O O7 0.857620 0.348292 0.221143
O O8 0.000000 0.527720 0.166667
O O9 0.557829 0.663296 0.569024
O O10 0.791149 0.991694 0.702596
O O11 0.742294 0.843699 0.619976
O O12 0.371882 0.105715 0.265363
O O13 0.760764 0.380382 0.916667
#
# Coordination Sequence:
#
# PCOD9583267 Si02
#       7
#     6  12  12   6  12  12  12
#     4  10  24  39  66  97 132 166 218 284 356 408
#     4  10  22  37  60  98 132 183 213 282 341 409
#     4  11  25  42  67 101 137 177 226 287 354 413
#     4  10  20  37  66  93 138 172 224 280 354 410
#     4  10  23  38  63  93 131 170 226 283 336 415
#     4  11  23  40  65  98 133 181 227 281 341 414
#     4  12  23  40  65  95 139 183 231 279 340 417
#
# _framework density 19.408560999999999
#
# number of rings (size 3 to 8) (size 9 to 14) (size 15 to 20)
#    0.000    1.333    3.333    1.000   11.667    0.000 
#    0.000    0.000    3.667    0.000    0.000    0.000 
#    0.000    0.000    0.000    0.000    0.000    0.000 
#
# Total GULP energy -401678.945160 kJ/mol
# GULP energy per Si atom -5578.874238 kJ/mol
# Density = 1.936439 g / cm^3
# Si number density = 19.408561 Si / 1000 Ang^3
#
#
#
# Elastic Constant Matrix: (Units=GPa)
#
#
# Indices 1 2 3 4 5 6 
#
# 1 88.0488 21.8830 46.5449 0.0000 0.0000 0.0000
# 2 21.8830 88.0488 46.5449 0.0000 0.0000 0.0000
# 3 46.5449 46.5449 135.3255 0.0000 0.0000 0.0000
# 4 0.0000 0.0000 0.0000 3.2218 0.0000 0.0000
# 5 0.0000 0.0000 0.0000 0.0000 3.2218 0.0000
# 6 0.0000 0.0000 0.0000 0.0000 0.0000 33.0829
#
#
#
# Elastic Compliance Matrix: (Units=1/GPa)
#
#
# Indices 1 2 3 4 5 6 
#
# 1 0.013974 -0.001139 -0.004414 0.000000 0.000000 0.000000
# 2 -0.001139 0.013974 -0.004414 0.000000 0.000000 0.000000
# 3 -0.004414 -0.004414 0.010426 0.000000 0.000000 0.000000
# 4 0.000000 0.000000 0.000000 0.310390 0.000000 0.000000
# 5 0.000000 0.000000 0.000000 0.000000 0.310390 0.000000
# 6 0.000000 0.000000 0.000000 0.000000 0.000000 0.030227
#
#
# Mechanical properties :
#
#
# Convention : Reuss Voigt Hill
#
# Bulk Modulus (GPa) = 54.23635 60.15206 57.19421
# Shear Modulus (GPa) = 6.98848 21.00198 13.99523
#
# Velocity S-wave (km/s) = 1.89961 3.29310 2.68822
# Velocity P-wave (km/s) = 5.72858 6.74679 6.25842
#
# Compressibility (1/GPa) = 0.01843782
#
# Stress axis : x y z
#
# Youngs Moduli (GPa) = 71.56087 71.56087 95.91152
#
# Poissons Ratio (x) = 0.08154 0.42340
# Poissons Ratio (y) = 0.08154 0.42340
# Poissons Ratio (z) = 0.31590 0.31590
#
# Static dielectric constant tensor:
#      x y z
#    x 1.679800 0.000000 0.000000 
#    y 0.000000 1.679800 0.000000 
#    z 0.000000 0.000000 1.609790 
# 
# From -- ./inp_files/9612.got.cif
#   From: 2010.05.17/outbox.cif.g08.bks.cpg/sg179_5_cif.got.tgz:9612.got - 2010.05.20 11:37:33.
