data_PCOD9583780
_publ_section_title
;
Structure prediction by ZEFSAII (Michael W. Deem and Ramdas Pophale) SiO2 
 PCOD9583780
Probable space group: P 62 2 2
;
_chemical_formula_sum "Si O2"
_cell_formula_units_Z 48
_cell_length_a 10.628112
_cell_length_b 10.628112
_cell_length_c 19.133257
_cell_angle_alpha 90.000000
_cell_angle_beta 90.000000
_cell_angle_gamma 120.000000
_cell_volume 1871.680784
_symmetry_space_group_name_H-M "P 62 2 2"
_symmetry_group_IT_number 180
_symmetry_cell_setting 'hexagonal'
loop_
_space_group_symop_operation_xyz
x,y,z
x-y,x,1/3+z
-y,x-y,2/3+z
-x,-y,z
-x+y,-x,1/3+z
y,-x+y,2/3+z
x-y,-y,-z
-x,-x+y,1/3-z
y,x,2/3-z
-y,-x,2/3-z
-x+y,y,-z
x,x-y,1/3-z
loop_
_atom_site_type_symbol
_atom_site_label
_atom_site_fract_x
_atom_site_fract_y
_atom_site_fract_z
Si Si1 0.831847 0.224532 0.413078
Si Si2 0.302404 0.102505 0.893615
Si Si3 0.357606 0.630474 0.427341
Si Si4 0.347843 0.213286 0.041919
O O1 0.823232 0.176769 0.333334
O O2 0.846588 0.144378 0.481549
O O3 0.694042 0.249219 0.421682
O O4 0.000529 0.353697 0.409645
O O5 0.474956 0.153417 0.896743
O O6 0.193267 0.934226 0.912663
O O7 0.289245 0.183298 0.962212
O O8 0.277399 0.554797 0.500000
O O9 0.269496 0.509746 0.370132
#
# Coordination Sequence:
#
# PCOD9583780 Si02
#       4
#    12  12  12  12
#     4  11  23  38  58  87 125 168 211 260 321 392
#     4  10  22  38  59  90 122 161 212 268 324 383
#     4  10  20  36  60  91 127 163 206 264 329 390
#     4  11  21  37  62  89 122 164 212 265 320 387
#
# _framework density 25.645401
#
# number of rings (size 3 to 8) (size 9 to 14) (size 15 to 20)
#    0.000    1.500    0.000    6.000    0.000    7.000 
#    0.000    2.500    0.000   13.500    0.000    0.000 
#    0.000    0.000    0.000    0.000    0.000    0.000 
#
# Total GULP energy -267237.714634 kJ/mol
# GULP energy per Si atom -5567.452388 kJ/mol
# Density = 2.558703 g / cm^3
# Si number density = 25.645401 Si / 1000 Ang^3
#
#
#
# Elastic Constant Matrix: (Units=GPa)
#
#
# Indices 1 2 3 4 5 6 
#
# 1 17.7922 93.6379 29.1913 0.0000 0.0000 0.0000
# 2 93.6379 17.7922 29.1913 0.0000 0.0000 0.0000
# 3 29.1913 29.1913 208.6855 0.0000 0.0000 0.0000
# 4 0.0000 0.0000 0.0000 35.3313 0.0000 0.0000
# 5 0.0000 0.0000 0.0000 0.0000 35.3313 0.0000
# 6 0.0000 0.0000 0.0000 0.0000 0.0000 -37.9228
#
#
#
# Elastic Compliance Matrix: (Units=1/GPa)
#
#
# Indices 1 2 3 4 5 6 
#
# 1 -0.001750 0.011434 -0.001355 0.000000 0.000000 0.000000
# 2 0.011434 -0.001750 -0.001355 0.000000 0.000000 0.000000
# 3 -0.001355 -0.001355 0.005171 0.000000 0.000000 0.000000
# 4 0.000000 0.000000 0.000000 0.028303 0.000000 0.000000
# 5 0.000000 0.000000 0.000000 0.000000 0.028303 0.000000
# 6 0.000000 0.000000 0.000000 0.000000 0.000000 -0.026369
#
#
# Mechanical properties :
#
#
# Convention : Reuss Voigt Hill
#
# Bulk Modulus (GPa) = 52.30025 60.92345 56.61185
# Shear Modulus (GPa) = 240.02613 12.69793 126.36203
#
# Velocity S-wave (km/s) = 9.68491 2.22758 7.02707
# Velocity P-wave (km/s) = 12.06238 5.51578 9.37883
#
# Compressibility (1/GPa) = 0.01912037
#
# Stress axis : x y z
#
# Youngs Moduli (GPa) = -571.31534 -571.31534 193.39102
#
# Poissons Ratio (x) = 6.53260 0.26197
# Poissons Ratio (y) = 6.53260 0.26197
# Poissons Ratio (z) = -0.77391 -0.77391
#
# Static dielectric constant tensor:
#      x y z
#    x 2.048610 0.000000 0.000000 
#    y 0.000000 2.048610 0.000000 
#    z 0.000000 0.000000 2.306170 
# 
# From -- ./inp_files/8639.got.cif
#   From: 2010.05.17/outbox.cif.g08.bks.cpg/sg180_5_cif.got.tgz:8639.got - 2010.05.20 11:43:55.
