data_PCOD9583550
_publ_section_title
;
Structure prediction by ZEFSAII (Michael W. Deem and Ramdas Pophale) SiO2 
 PCOD9583550
Probable space group: P 65 2 2
;
_chemical_formula_sum "Si O2"
_cell_formula_units_Z 54
_cell_length_a 11.677664
_cell_length_b 11.677664
_cell_length_c 19.636259
_cell_angle_alpha 90.000000
_cell_angle_beta 90.000000
_cell_angle_gamma 120.000000
_cell_volume 2319.003125
_symmetry_space_group_name_H-M "P 65 2 2"
_symmetry_group_IT_number 179
_symmetry_cell_setting 'hexagonal'
loop_
_space_group_symop_operation_xyz
x,y,z
x-y,x,5/6+z
-y,x-y,2/3+z
-x,-y,1/2+z
-x+y,-x,1/3+z
y,-x+y,1/6+z
x-y,-y,-z
-x,-x+y,1/3-z
y,x,2/3-z
-y,-x,1/6-z
-x+y,y,1/2-z
x,x-y,5/6-z
loop_
_atom_site_type_symbol
_atom_site_label
_atom_site_fract_x
_atom_site_fract_y
_atom_site_fract_z
Si Si1 0.358808 0.717616 0.750000
Si Si2 0.803425 0.374020 0.709783
Si Si3 0.754075 0.110474 0.263330
Si Si4 0.651938 0.955735 0.892477
Si Si5 0.850521 0.701768 0.328680
O O1 0.391283 0.630377 0.800342
O O2 0.319464 0.812993 0.790067
O O3 0.668433 0.336865 0.750000
O O4 0.918322 0.511827 0.740029
O O5 0.840049 0.259876 0.705966
O O6 0.692807 0.052460 0.189301
O O7 0.905884 0.223346 0.254478
O O8 0.738606 0.993731 0.311138
O O9 0.674302 0.837151 0.916667
O O10 0.823465 0.823465 0.333334
O O11 0.830333 0.660665 0.250000
#
# Coordination Sequence:
#
# PCOD9583550 Si02
#       5
#     6  12  12  12  12
#     4  12  26  46  78 116 150 200 262 326 400 476
#     4  11  26  48  79 113 155 205 265 337 404 480
#     4  12  28  47  76 112 154 206 265 325 397 487
#     4  11  25  48  77 106 146 204 268 326 385 470
#     4  12  30  51  76 114 165 215 262 336 421 493
#
# _framework density 23.285869999999999
#
# number of rings (size 3 to 8) (size 9 to 14) (size 15 to 20)
#    0.000    0.444    5.556    2.000   10.889    2.667 
#    0.000    0.000    0.000    0.000    0.000    0.000 
#    0.000    0.000    0.000    0.000    0.000    0.000 
#
# Total GULP energy -302588.350905 kJ/mol
# GULP energy per Si atom -5603.487980 kJ/mol
# Density = 2.323287 g / cm^3
# Si number density = 23.285870 Si / 1000 Ang^3
#
#
#
# Elastic Constant Matrix: (Units=GPa)
#
#
# Indices 1 2 3 4 5 6 
#
# 1 108.7185 58.5090 19.4375 0.0000 0.0000 0.0000
# 2 58.5090 108.7185 19.4375 0.0000 0.0000 0.0000
# 3 19.4375 19.4375 114.9220 0.0000 0.0000 0.0000
# 4 0.0000 0.0000 0.0000 35.3591 0.0000 0.0000
# 5 0.0000 0.0000 0.0000 0.0000 35.3591 0.0000
# 6 0.0000 0.0000 0.0000 0.0000 0.0000 25.1048
#
#
#
# Elastic Compliance Matrix: (Units=1/GPa)
#
#
# Indices 1 2 3 4 5 6 
#
# 1 0.013071 -0.006846 -0.001053 0.000000 0.000000 0.000000
# 2 -0.006846 0.013071 -0.001053 0.000000 0.000000 0.000000
# 3 -0.001053 -0.001053 0.009058 0.000000 0.000000 0.000000
# 4 0.000000 0.000000 0.000000 0.028281 0.000000 0.000000
# 5 0.000000 0.000000 0.000000 0.000000 0.028281 0.000000
# 6 0.000000 0.000000 0.000000 0.000000 0.000000 0.039833
#
#
# Mechanical properties :
#
#
# Convention : Reuss Voigt Hill
#
# Bulk Modulus (GPa) = 57.81787 58.56968 58.19378
# Shear Modulus (GPa) = 32.20346 34.82960 33.51653
#
# Velocity S-wave (km/s) = 3.72285 3.87167 3.79799
# Velocity P-wave (km/s) = 6.58506 6.72261 6.65419
#
# Compressibility (1/GPa) = 0.01729569
#
# Stress axis : x y z
#
# Youngs Moduli (GPa) = 76.50773 76.50773 110.40337
#
# Poissons Ratio (x) = 0.52377 0.11623
# Poissons Ratio (y) = 0.52377 0.11623
# Poissons Ratio (z) = 0.08055 0.08055
#
# Static dielectric constant tensor:
#      x y z
#    x 1.837500 0.000000 0.000000 
#    y 0.000000 1.837500 0.000000 
#    z 0.000000 0.000000 1.951890 
# 
# From -- ./inp_files/7444.got.cif
#   From: 2010.05.17/outbox.cif.g08.bks.cpg/sg179_4_cif.got.tgz:7444.got - 2010.05.20 11:37:33.
