data_PCOD9583699
_publ_section_title
;
Structure prediction by ZEFSAII (Michael W. Deem and Ramdas Pophale) SiO2 
 PCOD9583699
Probable space group: P 62 2 2
;
_chemical_formula_sum "Si O2"
_cell_formula_units_Z 60
_cell_length_a 11.515610
_cell_length_b 11.515610
_cell_length_c 20.295108
_cell_angle_alpha 90.000000
_cell_angle_beta 90.000000
_cell_angle_gamma 120.000000
_cell_volume 2330.751084
_symmetry_space_group_name_H-M "P 62 2 2"
_symmetry_group_IT_number 180
_symmetry_cell_setting 'hexagonal'
loop_
_space_group_symop_operation_xyz
x,y,z
x-y,x,1/3+z
-y,x-y,2/3+z
-x,-y,z
-x+y,-x,1/3+z
y,-x+y,2/3+z
x-y,-y,-z
-x,-x+y,1/3-z
y,x,2/3-z
-y,-x,2/3-z
-x+y,y,-z
x,x-y,1/3-z
loop_
_atom_site_type_symbol
_atom_site_label
_atom_site_fract_x
_atom_site_fract_y
_atom_site_fract_z
Si Si1 0.294279 0.646255 0.092576
Si Si2 0.125475 0.986413 0.405656
Si Si3 0.108817 0.378164 0.894746
Si Si4 0.621562 0.722774 0.410598
Si Si5 0.610785 0.799747 0.092329
O O1 0.232237 0.616119 0.166667
O O2 0.262601 0.498988 0.070015
O O3 0.271166 0.758481 0.055874
O O4 0.453425 0.719363 0.098037
O O5 0.079920 0.920081 0.333334
O O6 0.142415 0.881798 0.448713
O O7 0.258218 0.127032 0.402340
O O8 0.000000 0.000000 0.428083
O O9 0.093394 0.420284 0.820477
O O10 0.963179 0.305166 0.930210
O O11 0.703120 0.643631 0.391730
O O12 0.671743 0.835872 0.166667
#
# Coordination Sequence:
#
# PCOD9583699 Si02
#       5
#    12  12  12  12  12
#     4   9  18  31  53  89 122 144 181 242 301 347
#     4  11  23  38  56  75 106 146 192 240 289 347
#     4  10  19  33  58  86 114 148 189 236 294 347
#     4  10  19  33  58  87 113 147 190 243 290 348
#     4   9  16  29  53  86 119 149 184 231 291 356
#
# _framework density 25.742775000000002
#
# number of rings (size 3 to 8) (size 9 to 14) (size 15 to 20)
#    0.000    2.200    2.000    1.800    0.000    6.400 
#    0.000    3.000    8.800    0.000    0.000    0.000 
#    0.000    0.000    0.000    0.000    0.000    0.000 
#
# Total GULP energy -334583.986695 kJ/mol
# GULP energy per Si atom -5576.399778 kJ/mol
# Density = 2.568418 g / cm^3
# Si number density = 25.742775 Si / 1000 Ang^3
#
#
#
# Elastic Constant Matrix: (Units=GPa)
#
#
# Indices 1 2 3 4 5 6 
#
# 1 175.8873 107.0981 -4.6689 0.0000 0.0000 0.0000
# 2 107.0981 175.8873 -4.6689 0.0000 0.0000 0.0000
# 3 -4.6689 -4.6689 81.7208 0.0000 0.0000 0.0000
# 4 0.0000 0.0000 0.0000 10.7345 0.0000 0.0000
# 5 0.0000 0.0000 0.0000 0.0000 10.7345 0.0000
# 6 0.0000 0.0000 0.0000 0.0000 0.0000 34.3946
#
#
#
# Elastic Compliance Matrix: (Units=1/GPa)
#
#
# Indices 1 2 3 4 5 6 
#
# 1 0.009039 -0.005498 0.000202 0.000000 0.000000 0.000000
# 2 -0.005498 0.009039 0.000202 0.000000 0.000000 0.000000
# 3 0.000202 0.000202 0.012260 0.000000 0.000000 0.000000
# 4 0.000000 0.000000 0.000000 0.093157 0.000000 0.000000
# 5 0.000000 0.000000 0.000000 0.000000 0.093157 0.000000
# 6 0.000000 0.000000 0.000000 0.000000 0.000000 0.029074
#
#
# Mechanical properties :
#
#
# Convention : Reuss Voigt Hill
#
# Bulk Modulus (GPa) = 49.62820 69.89068 59.75944
# Shear Modulus (GPa) = 19.03815 33.55506 26.29661
#
# Velocity S-wave (km/s) = 2.72242 3.61428 3.19958
# Velocity P-wave (km/s) = 5.40393 6.68027 6.07571
#
# Compressibility (1/GPa) = 0.02014984
#
# Stress axis : x y z
#
# Youngs Moduli (GPa) = 110.63409 110.63409 81.56675
#
# Poissons Ratio (x) = 0.60831 -0.01650
# Poissons Ratio (y) = 0.60831 -0.01650
# Poissons Ratio (z) = -0.02238 -0.02238
#
# Static dielectric constant tensor:
#      x y z
#    x 2.004860 0.000000 0.000000 
#    y 0.000000 2.004860 0.000000 
#    z 0.000000 0.000000 2.235910 
# 
# From -- ./inp_files/11192.got.cif
#   From: 2010.05.17/outbox.cif.g08.bks.cpg/sg180_6_cif.got.tgz:11192.got - 2010.05.20 11:43:55.
