data_PCOD9583764
_publ_section_title
;
Structure prediction by ZEFSAII (Michael W. Deem and Ramdas Pophale) SiO2 
 PCOD9583764
Probable space group: P 62 2 2
;
_chemical_formula_sum "Si O2"
_cell_formula_units_Z 54
_cell_length_a 18.833767
_cell_length_b 18.833767
_cell_length_c 8.921240
_cell_angle_alpha 90.000000
_cell_angle_beta 90.000000
_cell_angle_gamma 120.000000
_cell_volume 2740.502744
_symmetry_space_group_name_H-M "P 62 2 2"
_symmetry_group_IT_number 180
_symmetry_cell_setting 'hexagonal'
loop_
_space_group_symop_operation_xyz
x,y,z
x-y,x,1/3+z
-y,x-y,2/3+z
-x,-y,z
-x+y,-x,1/3+z
y,-x+y,2/3+z
x-y,-y,-z
-x,-x+y,1/3-z
y,x,2/3-z
-y,-x,2/3-z
-x+y,y,-z
x,x-y,1/3-z
loop_
_atom_site_type_symbol
_atom_site_label
_atom_site_fract_x
_atom_site_fract_y
_atom_site_fract_z
Si Si1 0.025005 0.590740 0.491951
Si Si2 0.816824 0.633648 0.000000
Si Si3 0.836318 0.672636 0.500000
Si Si4 0.191735 0.731563 0.592085
Si Si5 0.353006 0.646995 0.333334
Si Si6 0.722217 0.719706 0.656133
O O1 0.121776 0.654720 0.498650
O O2 0.000000 0.500000 0.442065
O O3 0.000000 0.584916 0.666667
O O4 0.984537 0.631423 0.392386
O O5 0.805452 0.573220 0.137845
O O6 0.782723 0.691751 0.058008
O O7 0.767888 0.611440 0.382048
O O8 0.801652 0.725450 0.580050
O O9 0.243535 0.695395 0.666750
O O10 0.335591 0.671181 0.500000
O O11 0.729770 0.729770 0.833334
#
# Coordination Sequence:
#
# PCOD9583764 Si02
#       6
#    12   6   6  12   6  12
#     4  10  20  35  59  85 117 162 210 261 324 384
#     4  10  23  42  64  94 129 163 215 286 339 408
#     4  12  22  40  66  92 125 174 212 269 346 410
#     4  11  22  39  60  86 126 166 220 272 324 400
#     4  12  25  40  61  88 126 185 231 278 340 401
#     4  11  23  40  62  95 128 162 218 275 335 409
#
# _framework density 19.704412999999999
#
# number of rings (size 3 to 8) (size 9 to 14) (size 15 to 20)
#    0.000    1.111    5.556    2.000    0.000    0.444 
#    0.000    0.000    0.000    0.000    0.000    2.333 
#    0.000    0.000    0.000    0.000    0.000    0.000 
#
# Total GULP energy -300879.297152 kJ/mol
# GULP energy per Si atom -5571.838836 kJ/mol
# Density = 1.965956 g / cm^3
# Si number density = 19.704413 Si / 1000 Ang^3
#
#
#
# Elastic Constant Matrix: (Units=GPa)
#
#
# Indices 1 2 3 4 5 6 
#
# 1 90.3221 46.7283 29.9700 0.0000 0.0000 0.0000
# 2 46.7283 90.3221 29.9700 0.0000 0.0000 0.0000
# 3 29.9700 29.9700 103.2159 0.0000 0.0000 0.0000
# 4 0.0000 0.0000 0.0000 28.3004 0.0000 0.0000
# 5 0.0000 0.0000 0.0000 0.0000 28.3004 0.0000
# 6 0.0000 0.0000 0.0000 0.0000 0.0000 21.7969
#
#
#
# Elastic Compliance Matrix: (Units=1/GPa)
#
#
# Indices 1 2 3 4 5 6 
#
# 1 0.015649 -0.007291 -0.002427 0.000000 0.000000 0.000000
# 2 -0.007291 0.015649 -0.002427 0.000000 0.000000 0.000000
# 3 -0.002427 -0.002427 0.011098 0.000000 0.000000 0.000000
# 4 0.000000 0.000000 0.000000 0.035335 0.000000 0.000000
# 5 0.000000 0.000000 0.000000 0.000000 0.035335 0.000000
# 6 0.000000 0.000000 0.000000 0.000000 0.000000 0.045878
#
#
# Mechanical properties :
#
#
# Convention : Reuss Voigt Hill
#
# Bulk Modulus (GPa) = 55.22924 55.24408 55.23666
# Shear Modulus (GPa) = 26.41769 27.49233 26.95501
#
# Velocity S-wave (km/s) = 3.66553 3.73934 3.70262
# Velocity P-wave (km/s) = 6.78266 6.83673 6.80975
#
# Compressibility (1/GPa) = 0.01810635
#
# Stress axis : x y z
#
# Youngs Moduli (GPa) = 63.90389 63.90389 90.10837
#
# Poissons Ratio (x) = 0.46589 0.21868
# Poissons Ratio (y) = 0.46589 0.21868
# Poissons Ratio (z) = 0.15508 0.15508
#
# Static dielectric constant tensor:
#      x y z
#    x 1.739670 0.000000 0.000000 
#    y 0.000000 1.739670 0.000000 
#    z 0.000000 0.000000 1.762670 
# 
# From -- ./inp_files/3085.got.cif
#   From: 2010.05.17/outbox.cif.g08.bks.cpg/sg180_2_cif.got.tgz:3085.got - 2010.05.20 11:43:55.
