data_PCOD9583669
_publ_section_title
;
Structure prediction by ZEFSAII (Michael W. Deem and Ramdas Pophale) SiO2 
 PCOD9583669
Probable space group: P 62 2 2
;
_chemical_formula_sum "Si O2"
_cell_formula_units_Z 72
_cell_length_a 22.970261
_cell_length_b 22.970261
_cell_length_c 8.558850
_cell_angle_alpha 90.000000
_cell_angle_beta 90.000000
_cell_angle_gamma 120.000000
_cell_volume 3910.910763
_symmetry_space_group_name_H-M "P 62 2 2"
_symmetry_group_IT_number 180
_symmetry_cell_setting 'hexagonal'
loop_
_space_group_symop_operation_xyz
x,y,z
x-y,x,1/3+z
-y,x-y,2/3+z
-x,-y,z
-x+y,-x,1/3+z
y,-x+y,2/3+z
x-y,-y,-z
-x,-x+y,1/3-z
y,x,2/3-z
-y,-x,2/3-z
-x+y,y,-z
x,x-y,1/3-z
loop_
_atom_site_type_symbol
_atom_site_label
_atom_site_fract_x
_atom_site_fract_y
_atom_site_fract_z
Si Si1 0.071491 0.447800 0.247893
Si Si2 0.350650 0.175325 0.166667
Si Si3 0.593978 0.187956 0.500000
Si Si4 0.279095 0.720906 0.333334
Si Si5 0.732702 0.179037 0.110715
Si Si6 0.345417 0.172709 0.666667
Si Si7 0.398653 0.468522 0.385290
Si Si8 0.763292 0.692198 0.748464
O O1 0.135454 0.514041 0.179804
O O2 0.072281 0.465294 0.429427
O O3 0.078311 0.381562 0.240484
O O4 0.000000 0.427654 0.166667
O O5 0.401876 0.216542 0.307154
O O6 0.307241 0.099719 0.240122
O O7 0.598626 0.239525 0.635538
O O8 0.265404 0.755392 0.182529
O O9 0.754772 0.149441 0.255916
O O10 0.661190 0.129848 0.039323
O O11 0.303588 0.123766 0.530168
O O12 0.404708 0.404708 0.333334
O O13 0.465354 0.534647 0.333334
O O14 0.740863 0.740863 0.833334
#
# Coordination Sequence:
#
# PCOD9583669 Si02
#       8
#    12   6   6   6  12   6  12  12
#     4  11  24  39  65  86 115 148 190 255 332 386
#     4  10  18  36  59  90 114 157 199 238 306 359
#     4  12  25  46  61  82 104 149 196 262 312 391
#     4  11  26  42  62  76 102 150 197 240 314 378
#     4  10  20  38  57  78 109 144 185 241 295 386
#     4   9  20  34  60  82 114 158 191 238 294 358
#     4  11  25  36  54  88 114 140 185 249 313 379
#     4  10  21  37  59  90 123 159 206 246 302 382
#
# _framework density 18.410035000000001
#
# number of rings (size 3 to 8) (size 9 to 14) (size 15 to 20)
#    0.000    1.500    1.667    4.250   11.667    0.000 
#    4.500    2.500    0.000    0.000    0.000    0.000 
#    0.000    0.000    0.000    3.750    0.000    0.000 
#
# Total GULP energy -400949.012862 kJ/mol
# GULP energy per Si atom -5568.736290 kJ/mol
# Density = 1.836813 g / cm^3
# Si number density = 18.410035 Si / 1000 Ang^3
#
#
#
# Elastic Constant Matrix: (Units=GPa)
#
#
# Indices 1 2 3 4 5 6 
#
# 1 71.2479 36.7110 24.0839 0.0000 0.0000 0.0000
# 2 36.7110 71.2479 24.0839 0.0000 0.0000 0.0000
# 3 24.0839 24.0839 93.6766 0.0000 0.0000 0.0000
# 4 0.0000 0.0000 0.0000 28.1962 0.0000 0.0000
# 5 0.0000 0.0000 0.0000 0.0000 28.1962 0.0000
# 6 0.0000 0.0000 0.0000 0.0000 0.0000 17.2685
#
#
#
# Elastic Compliance Matrix: (Units=1/GPa)
#
#
# Indices 1 2 3 4 5 6 
#
# 1 0.019709 -0.009246 -0.002690 0.000000 0.000000 0.000000
# 2 -0.009246 0.019709 -0.002690 0.000000 0.000000 0.000000
# 3 -0.002690 -0.002690 0.012058 0.000000 0.000000 0.000000
# 4 0.000000 0.000000 0.000000 0.035466 0.000000 0.000000
# 5 0.000000 0.000000 0.000000 0.000000 0.035466 0.000000
# 6 0.000000 0.000000 0.000000 0.000000 0.000000 0.057909
#
#
# Mechanical properties :
#
#
# Convention : Reuss Voigt Hill
#
# Bulk Modulus (GPa) = 44.99603 45.10333 45.04968
# Shear Modulus (GPa) = 23.04404 24.81842 23.93123
#
# Velocity S-wave (km/s) = 3.54179 3.67562 3.60933
# Velocity P-wave (km/s) = 6.42027 6.52427 6.47248
#
# Compressibility (1/GPa) = 0.02222418
#
# Stress axis : x y z
#
# Youngs Moduli (GPa) = 50.73890 50.73890 82.93110
#
# Poissons Ratio (x) = 0.46912 0.22308
# Poissons Ratio (y) = 0.46912 0.22308
# Poissons Ratio (z) = 0.13649 0.13649
#
# Static dielectric constant tensor:
#      x y z
#    x 1.675620 0.000000 0.000000 
#    y 0.000000 1.675620 0.000000 
#    z 0.000000 0.000000 1.592250 
# 
# From -- ./inp_files/3422.got.cif
#   From: 2010.05.17/outbox.cif.g08.bks.cpg/sg180_2_cif.got.tgz:3422.got - 2010.05.20 11:43:55.
