data_PCOD9583456
_publ_section_title
;
Structure prediction by ZEFSAII (Michael W. Deem and Ramdas Pophale) SiO2 
 PCOD9583456
Probable space group: P 65 2 2
;
_chemical_formula_sum "Si O2"
_cell_formula_units_Z 30
_cell_length_a 7.883543
_cell_length_b 7.883543
_cell_length_c 20.372092
_cell_angle_alpha 90.000000
_cell_angle_beta 90.000000
_cell_angle_gamma 120.000000
_cell_volume 1096.501278
_symmetry_space_group_name_H-M "P 65 2 2"
_symmetry_group_IT_number 179
_symmetry_cell_setting 'hexagonal'
loop_
_space_group_symop_operation_xyz
x,y,z
x-y,x,5/6+z
-y,x-y,2/3+z
-x,-y,1/2+z
-x+y,-x,1/3+z
y,-x+y,1/6+z
x-y,-y,-z
-x,-x+y,1/3-z
y,x,2/3-z
-y,-x,1/6-z
-x+y,y,1/2-z
x,x-y,5/6-z
loop_
_atom_site_type_symbol
_atom_site_label
_atom_site_fract_x
_atom_site_fract_y
_atom_site_fract_z
Si Si1 0.281425 0.892399 0.156168
Si Si2 0.950137 0.679604 0.550873
Si Si3 0.000000 0.487467 0.166667
O O1 0.185009 0.814992 0.083334
O O2 0.509995 0.959308 0.156636
O O3 0.160525 0.693610 0.198600
O O4 0.251684 0.066013 0.182975
O O5 0.868110 0.561008 0.619132
O O6 0.144300 0.855701 0.583334
#
# Coordination Sequence:
#
# PCOD9583456 Si02
#       3
#    12  12   6
#     4  10  24  48  75 111 156 201 259 323 386 470
#     4  11  24  45  76 111 151 203 254 314 389 460
#     4  10  24  44  68 108 148 196 256 314 378 458
#
# _framework density 27.359749999999998
#
# number of rings (size 3 to 8) (size 9 to 14) (size 15 to 20)
#    0.000    1.600    0.000    2.400    0.000   12.800 
#    0.000   14.000    0.000    4.800    0.000    0.000 
#    0.000    0.000    0.000    0.000    0.000    0.000 
#
# Total GULP energy -167534.088866 kJ/mol
# GULP energy per Si atom -5584.469629 kJ/mol
# Density = 2.729748 g / cm^3
# Si number density = 27.359750 Si / 1000 Ang^3
#
#
#
# Elastic Constant Matrix: (Units=GPa)
#
#
# Indices 1 2 3 4 5 6 
#
# 1 185.3965 83.9060 45.4322 0.0000 0.0000 0.0000
# 2 83.9060 185.3965 45.4322 0.0000 0.0000 0.0000
# 3 45.4322 45.4322 71.8590 0.0000 0.0000 0.0000
# 4 0.0000 0.0000 0.0000 56.3139 0.0000 0.0000
# 5 0.0000 0.0000 0.0000 0.0000 56.3139 0.0000
# 6 0.0000 0.0000 0.0000 0.0000 0.0000 50.7453
#
#
#
# Elastic Compliance Matrix: (Units=1/GPa)
#
#
# Indices 1 2 3 4 5 6 
#
# 1 0.007287 -0.002566 -0.002984 0.000000 0.000000 0.000000
# 2 -0.002566 0.007287 -0.002984 0.000000 0.000000 0.000000
# 3 -0.002984 -0.002984 0.017690 0.000000 0.000000 0.000000
# 4 0.000000 0.000000 0.000000 0.017758 0.000000 0.000000
# 5 0.000000 0.000000 0.000000 0.000000 0.017758 0.000000
# 6 0.000000 0.000000 0.000000 0.000000 0.000000 0.019706
#
#
# Mechanical properties :
#
#
# Convention : Reuss Voigt Hill
#
# Bulk Modulus (GPa) = 65.82007 88.02142 76.92074
# Shear Modulus (GPa) = 45.61247 50.53338 48.07292
#
# Velocity S-wave (km/s) = 4.08749 4.30233 4.19629
# Velocity P-wave (km/s) = 6.81074 7.54465 7.18707
#
# Compressibility (1/GPa) = 0.01519293
#
# Stress axis : x y z
#
# Youngs Moduli (GPa) = 137.23663 137.23663 56.52980
#
# Poissons Ratio (x) = 0.35221 0.16870
# Poissons Ratio (y) = 0.35221 0.16870
# Poissons Ratio (z) = 0.40956 0.40956
#
# Static dielectric constant tensor:
#      x y z
#    x 2.150420 0.000000 0.000000 
#    y 0.000000 2.150420 0.000000 
#    z 0.000000 0.000000 2.424400 
# 
# From -- ./inp_files/7880.got.cif
#   From: 2010.05.17/outbox.cif.g08.bks.cpg/sg179_4_cif.got.tgz:7880.got - 2010.05.20 11:37:33.
