data_PCOD9583516
_publ_section_title
;
Structure prediction by ZEFSAII (Michael W. Deem and Ramdas Pophale) SiO2 
 PCOD9583516
Probable space group: P 65 2 2
;
_chemical_formula_sum "Si O2"
_cell_formula_units_Z 72
_cell_length_a 14.709813
_cell_length_b 14.709813
_cell_length_c 18.623000
_cell_angle_alpha 90.000000
_cell_angle_beta 90.000000
_cell_angle_gamma 120.000000
_cell_volume 3489.752110
_symmetry_space_group_name_H-M "P 65 2 2"
_symmetry_group_IT_number 179
_symmetry_cell_setting 'hexagonal'
loop_
_space_group_symop_operation_xyz
x,y,z
x-y,x,5/6+z
-y,x-y,2/3+z
-x,-y,1/2+z
-x+y,-x,1/3+z
y,-x+y,1/6+z
x-y,-y,-z
-x,-x+y,1/3-z
y,x,2/3-z
-y,-x,1/6-z
-x+y,y,1/2-z
x,x-y,5/6-z
loop_
_atom_site_type_symbol
_atom_site_label
_atom_site_fract_x
_atom_site_fract_y
_atom_site_fract_z
Si Si1 0.325377 0.081411 0.799098
Si Si2 0.910662 0.821324 0.750000
Si Si3 0.892544 0.770448 0.995275
Si Si4 0.163584 0.366002 0.141597
Si Si5 0.439991 0.522608 0.390659
Si Si6 0.443072 0.041478 0.299718
Si Si7 0.528141 0.764071 0.416667
O O1 0.255593 0.087098 0.735434
O O2 0.399852 0.180737 0.846692
O O3 0.231180 0.995491 0.847063
O O4 0.389719 0.035908 0.756697
O O5 0.868042 0.890987 0.710979
O O6 0.900226 0.736202 0.690803
O O7 0.826543 0.676006 0.939603
O O8 0.124218 0.448922 0.143296
O O9 0.286250 0.414363 0.159574
O O10 0.521213 0.521213 0.333334
O O11 0.447883 0.470240 0.465149
O O12 0.462054 0.639322 0.404616
O O13 0.546203 0.092406 0.250000
#
# Coordination Sequence:
#
# PCOD9583516 Si02
#       7
#    12   6  12  12  12  12   6
#     4  11  25  45  69  96 137 191 233 288 347 425
#     4  12  20  40  67 112 142 165 224 292 360 430
#     4  11  22  40  71 100 139 178 220 285 362 415
#     4  11  22  38  71 104 142 173 228 287 363 419
#     4  12  26  45  71 105 141 185 238 300 353 421
#     4  11  22  44  69 101 143 188 229 291 364 418
#     4  12  30  48  67  96 142 195 250 286 334 424
#
# _framework density 20.631837000000001
#
# number of rings (size 3 to 8) (size 9 to 14) (size 15 to 20)
#    0.000    0.667    6.667    2.500    3.500    0.000 
#    0.000    5.833    0.000    0.000    0.000    0.000 
#    0.000    0.000    0.000    0.000    0.000    0.000 
#
# Total GULP energy -401922.582159 kJ/mol
# GULP energy per Si atom -5582.258086 kJ/mol
# Density = 2.058488 g / cm^3
# Si number density = 20.631837 Si / 1000 Ang^3
#
#
#
# Elastic Constant Matrix: (Units=GPa)
#
#
# Indices 1 2 3 4 5 6 
#
# 1 92.3922 27.7380 18.5261 0.0000 0.0000 0.0000
# 2 27.7380 92.3922 18.5261 0.0000 0.0000 0.0000
# 3 18.5261 18.5261 54.1034 0.0000 0.0000 0.0000
# 4 0.0000 0.0000 0.0000 11.3815 0.0000 0.0000
# 5 0.0000 0.0000 0.0000 0.0000 11.3815 0.0000
# 6 0.0000 0.0000 0.0000 0.0000 0.0000 32.3271
#
#
#
# Elastic Compliance Matrix: (Units=1/GPa)
#
#
# Indices 1 2 3 4 5 6 
#
# 1 0.012387 -0.003080 -0.003187 0.000000 0.000000 0.000000
# 2 -0.003080 0.012387 -0.003187 0.000000 0.000000 0.000000
# 3 -0.003187 -0.003187 0.020666 0.000000 0.000000 0.000000
# 4 0.000000 0.000000 0.000000 0.087862 0.000000 0.000000
# 5 0.000000 0.000000 0.000000 0.000000 0.087862 0.000000
# 6 0.000000 0.000000 0.000000 0.000000 0.000000 0.030934
#
#
# Mechanical properties :
#
#
# Convention : Reuss Voigt Hill
#
# Bulk Modulus (GPa) = 37.68994 40.94089 39.31541
# Shear Modulus (GPa) = 17.86679 22.62454 20.24566
#
# Velocity S-wave (km/s) = 2.94595 3.31506 3.13594
# Velocity P-wave (km/s) = 5.46617 5.87703 5.67532
#
# Compressibility (1/GPa) = 0.02653228
#
# Stress axis : x y z
#
# Youngs Moduli (GPa) = 80.72921 80.72921 48.38935
#
# Poissons Ratio (x) = 0.24863 0.15422
# Poissons Ratio (y) = 0.24863 0.15422
# Poissons Ratio (z) = 0.25728 0.25728
#
# Static dielectric constant tensor:
#      x y z
#    x 1.791480 0.000000 0.000000 
#    y 0.000000 1.791480 0.000000 
#    z 0.000000 0.000000 1.811970 
# 
# From -- ./inp_files/6870.got.cif
#   From: 2010.05.17/outbox.cif.g08.bks.cpg/sg179_4_cif.got.tgz:6870.got - 2010.05.20 11:37:33.
