data_PCOD9583674
_publ_section_title
;
Structure prediction by ZEFSAII (Michael W. Deem and Ramdas Pophale) SiO2 
 PCOD9583674
Probable space group: P 62 2 2
;
_chemical_formula_sum "Si O2"
_cell_formula_units_Z 96
_cell_length_a 14.955099
_cell_length_b 14.955099
_cell_length_c 23.074239
_cell_angle_alpha 90.000000
_cell_angle_beta 90.000000
_cell_angle_gamma 120.000000
_cell_volume 4469.270111
_symmetry_space_group_name_H-M "P 62 2 2"
_symmetry_group_IT_number 180
_symmetry_cell_setting 'hexagonal'
loop_
_space_group_symop_operation_xyz
x,y,z
x-y,x,1/3+z
-y,x-y,2/3+z
-x,-y,z
-x+y,-x,1/3+z
y,-x+y,2/3+z
x-y,-y,-z
-x,-x+y,1/3-z
y,x,2/3-z
-y,-x,2/3-z
-x+y,y,-z
x,x-y,1/3-z
loop_
_atom_site_type_symbol
_atom_site_label
_atom_site_fract_x
_atom_site_fract_y
_atom_site_fract_z
Si Si1 0.055273 0.737136 0.105127
Si Si2 0.142795 0.633462 0.591700
Si Si3 0.341122 0.450422 0.122477
Si Si4 0.797735 0.435219 0.231013
Si Si5 0.469385 0.343530 0.104615
Si Si6 0.300497 0.432229 0.426314
Si Si7 0.770038 0.052544 0.055962
Si Si8 0.153378 0.731015 0.275729
O O1 0.121452 0.678538 0.107503
O O2 0.130947 0.855520 0.086519
O O3 0.000000 0.724543 0.166667
O O4 0.961872 0.672534 0.060711
O O5 0.109004 0.641786 0.525088
O O6 0.267244 0.695618 0.591293
O O7 0.106560 0.514774 0.603331
O O8 0.103692 0.699338 0.627540
O O9 0.384430 0.378758 0.098118
O O10 0.416821 0.561269 0.093238
O O11 0.223858 0.412944 0.107965
O O12 0.772936 0.386468 0.166667
O O13 0.842876 0.373530 0.265395
O O14 0.446172 0.240346 0.072542
O O15 0.466591 0.323291 0.173383
O O16 0.266854 0.312501 0.425707
O O17 0.787833 0.000000 0.000000
O O18 0.212365 0.787636 0.333334
#
# Coordination Sequence:
#
# PCOD9583674 Si02
#       8
#    12  12  12  12  12  12  12  12
#     4  11  24  45  75  99 128 189 250 289 353 436
#     4  10  19  35  62  91 131 181 229 268 338 434
#     4  10  18  37  58  87 127 170 221 272 339 425
#     4  11  20  39  70 100 138 180 235 289 340 443
#     4   9  19  32  58  87 118 163 208 272 332 393
#     4  10  19  33  57  90 126 166 219 269 332 408
#     4  11  24  41  61  93 133 176 226 290 358 416
#     4  12  25  40  63 100 139 174 225 298 365 416
#
# _framework density 21.480017
#
# number of rings (size 3 to 8) (size 9 to 14) (size 15 to 20)
#    0.000    1.500    3.750    2.250    1.750    2.000 
#   13.500    0.000    0.000    2.625    0.000    0.000 
#    0.000    0.000    0.000    0.000    0.000    0.000 
#
# Total GULP energy -536427.370956 kJ/mol
# GULP energy per Si atom -5587.785114 kJ/mol
# Density = 2.143113 g / cm^3
# Si number density = 21.480017 Si / 1000 Ang^3
#
#
#
# Elastic Constant Matrix: (Units=GPa)
#
#
# Indices 1 2 3 4 5 6 
#
# 1 124.6855 55.0097 15.2105 0.0000 0.0000 0.0000
# 2 55.0097 124.6855 15.2105 0.0000 0.0000 0.0000
# 3 15.2105 15.2105 54.3052 0.0000 0.0000 0.0000
# 4 0.0000 0.0000 0.0000 25.2009 0.0000 0.0000
# 5 0.0000 0.0000 0.0000 0.0000 25.2009 0.0000
# 6 0.0000 0.0000 0.0000 0.0000 0.0000 34.8379
#
#
#
# Elastic Compliance Matrix: (Units=1/GPa)
#
#
# Indices 1 2 3 4 5 6 
#
# 1 0.010097 -0.004255 -0.001636 0.000000 0.000000 0.000000
# 2 -0.004255 0.010097 -0.001636 0.000000 0.000000 0.000000
# 3 -0.001636 -0.001636 0.019331 0.000000 0.000000 0.000000
# 4 0.000000 0.000000 0.000000 0.039681 0.000000 0.000000
# 5 0.000000 0.000000 0.000000 0.000000 0.039681 0.000000
# 6 0.000000 0.000000 0.000000 0.000000 0.000000 0.028704
#
#
# Mechanical properties :
#
#
# Convention : Reuss Voigt Hill
#
# Bulk Modulus (GPa) = 40.86664 52.72643 46.79654
# Shear Modulus (GPa) = 29.27330 31.59760 30.43545
#
# Velocity S-wave (km/s) = 3.69564 3.83955 3.76828
# Velocity P-wave (km/s) = 6.10549 6.65254 6.38488
#
# Compressibility (1/GPa) = 0.02446984
#
# Stress axis : x y z
#
# Youngs Moduli (GPa) = 99.03838 99.03838 51.73020
#
# Poissons Ratio (x) = 0.42142 0.08465
# Poissons Ratio (y) = 0.42142 0.08465
# Poissons Ratio (z) = 0.16206 0.16206
#
# Static dielectric constant tensor:
#      x y z
#    x 1.783650 0.000000 0.000000 
#    y 0.000000 1.783650 0.000000 
#    z 0.000000 0.000000 1.942790 
# 
# From -- ./inp_files/11442.got.cif
#   From: 2010.05.17/outbox.cif.g08.bks.cpg/sg180_6_cif.got.tgz:11442.got - 2010.05.20 11:43:55.
