data_PCOD9583916
_publ_section_title
;
Structure prediction by ZEFSAII (Michael W. Deem and Ramdas Pophale) SiO2 
 PCOD9583916
Probable space group: P 62 2 2
;
_chemical_formula_sum "Si O2"
_cell_formula_units_Z 48
_cell_length_a 15.190829
_cell_length_b 15.190829
_cell_length_c 11.110678
_cell_angle_alpha 90.000000
_cell_angle_beta 90.000000
_cell_angle_gamma 120.000000
_cell_volume 2220.414952
_symmetry_space_group_name_H-M "P 62 2 2"
_symmetry_group_IT_number 180
_symmetry_cell_setting 'hexagonal'
loop_
_space_group_symop_operation_xyz
x,y,z
x-y,x,1/3+z
-y,x-y,2/3+z
-x,-y,z
-x+y,-x,1/3+z
y,-x+y,2/3+z
x-y,-y,-z
-x,-x+y,1/3-z
y,x,2/3-z
-y,-x,2/3-z
-x+y,y,-z
x,x-y,1/3-z
loop_
_atom_site_type_symbol
_atom_site_label
_atom_site_fract_x
_atom_site_fract_y
_atom_site_fract_z
Si Si1 0.881461 0.219124 0.677660
Si Si2 0.780698 0.767056 0.975778
Si Si3 0.299439 0.445608 0.089782
Si Si4 0.458695 0.825048 0.128514
O O1 0.831130 0.098873 0.697322
O O2 0.839491 0.241009 0.551560
O O3 0.871903 0.293585 0.774275
O O4 0.000000 0.261669 0.666667
O O5 0.771819 0.771819 0.833334
O O6 0.712158 0.653015 0.024116
O O7 0.898271 0.796542 0.000000
O O8 0.411699 0.537840 0.116319
O O9 0.241456 0.482912 0.000000
O O10 0.418816 0.709408 0.166667
O O11 0.414831 0.829662 0.000000
#
# Coordination Sequence:
#
# PCOD9583916 Si02
#       4
#    12  12  12  12
#     4  11  25  43  66 104 150 197 248 317 377 454
#     4  11  22  44  74 107 146 201 250 319 389 459
#     4  10  21  43  72  97 146 192 247 307 380 453
#     4  10  23  41  67  97 134 186 240 301 371 439
#
# _framework density 21.617581000000001
#
# number of rings (size 3 to 8) (size 9 to 14) (size 15 to 20)
#    0.000    1.500    5.000    0.750    3.500    5.000 
#    0.000    1.250    0.000    1.500    0.000    0.000 
#    0.000    0.000    0.000    0.000    0.000    0.000 
#
# Total GULP energy -267904.332979 kJ/mol
# GULP energy per Si atom -5581.340270 kJ/mol
# Density = 2.156838 g / cm^3
# Si number density = 21.617581 Si / 1000 Ang^3
#
#
#
# Elastic Constant Matrix: (Units=GPa)
#
#
# Indices 1 2 3 4 5 6 
#
# 1 177.2263 100.6200 46.9321 0.0000 0.0000 0.0000
# 2 100.6200 177.2263 46.9321 0.0000 0.0000 0.0000
# 3 46.9321 46.9321 89.9253 0.0000 0.0000 0.0000
# 4 0.0000 0.0000 0.0000 41.9286 0.0000 0.0000
# 5 0.0000 0.0000 0.0000 0.0000 41.9286 0.0000
# 6 0.0000 0.0000 0.0000 0.0000 0.0000 38.3032
#
#
#
# Elastic Compliance Matrix: (Units=1/GPa)
#
#
# Indices 1 2 3 4 5 6 
#
# 1 0.008712 -0.004342 -0.002280 0.000000 0.000000 0.000000
# 2 -0.004342 0.008712 -0.002280 0.000000 0.000000 0.000000
# 3 -0.002280 -0.002280 0.013501 0.000000 0.000000 0.000000
# 4 0.000000 0.000000 0.000000 0.023850 0.000000 0.000000
# 5 0.000000 0.000000 0.000000 0.000000 0.023850 0.000000
# 6 0.000000 0.000000 0.000000 0.000000 0.000000 0.026107
#
#
# Mechanical properties :
#
#
# Convention : Reuss Voigt Hill
#
# Bulk Modulus (GPa) = 76.23170 92.59400 84.41285
# Shear Modulus (GPa) = 39.39791 41.09165 40.24478
#
# Velocity S-wave (km/s) = 4.27370 4.36460 4.31939
# Velocity P-wave (km/s) = 7.72612 8.26591 8.00057
#
# Compressibility (1/GPa) = 0.01311790
#
# Stress axis : x y z
#
# Youngs Moduli (GPa) = 114.78909 114.78909 74.07033
#
# Poissons Ratio (x) = 0.49843 0.16891
# Poissons Ratio (y) = 0.49843 0.16891
# Poissons Ratio (z) = 0.26177 0.26177
#
# Static dielectric constant tensor:
#      x y z
#    x 1.788100 0.000000 0.000000 
#    y 0.000000 1.788100 0.000000 
#    z 0.000000 0.000000 1.891870 
# 
# From -- ./inp_files/4379.got.cif
#   From: 2010.05.17/outbox.cif.g08.bks.cpg/sg180_3_cif.got.tgz:4379.got - 2010.05.20 11:43:55.
