data_PCOD9583168
_publ_section_title
;
Structure prediction by ZEFSAII (Michael W. Deem and Ramdas Pophale) SiO2 
 PCOD9583168
Probable space group: P 65 2 2
;
_chemical_formula_sum "Si O2"
_cell_formula_units_Z 36
_cell_length_a 16.452120
_cell_length_b 16.452120
_cell_length_c 7.748369
_cell_angle_alpha 90.000000
_cell_angle_beta 90.000000
_cell_angle_gamma 120.000000
_cell_volume 1816.287791
_symmetry_space_group_name_H-M "P 65 2 2"
_symmetry_group_IT_number 179
_symmetry_cell_setting 'hexagonal'
loop_
_space_group_symop_operation_xyz
x,y,z
x-y,x,5/6+z
-y,x-y,2/3+z
-x,-y,1/2+z
-x+y,-x,1/3+z
y,-x+y,1/6+z
x-y,-y,-z
-x,-x+y,1/3-z
y,x,2/3-z
-y,-x,1/6-z
-x+y,y,1/2-z
x,x-y,5/6-z
loop_
_atom_site_type_symbol
_atom_site_label
_atom_site_fract_x
_atom_site_fract_y
_atom_site_fract_z
Si Si1 0.801916 0.603831 0.250000
Si Si2 0.734857 0.599330 0.599088
Si Si3 0.256521 0.628261 0.416667
Si Si4 0.045234 0.432091 0.855278
O O1 0.787301 0.650556 0.420758
O O2 0.851146 0.551199 0.336387
O O3 0.807867 0.615733 0.750000
O O4 0.675055 0.485339 0.566536
O O5 0.657210 0.629573 0.633763
O O6 0.321968 0.643936 0.250000
O O7 0.000000 0.410164 0.666667
O O8 0.049753 0.524877 0.916667
#
# Coordination Sequence:
#
# PCOD9583168 Si02
#       4
#     6  12   6  12
#     4  10  23  36  52  76 106 146 196 240 286 345
#     4  10  21  35  54  79 108 152 193 238 294 346
#     4  10  19  30  48  74 110 140 186 234 284 333
#     4  10  22  38  57  80 112 157 201 250 301 344
#
# _framework density 19.820646
#
# number of rings (size 3 to 8) (size 9 to 14) (size 15 to 20)
#    0.000    2.000    1.667    1.000    4.667    4.000 
#    0.000    0.000    0.000    0.000    0.000    0.000 
#    0.000    0.000  459.000    0.000    0.000    0.000 
#
# Total GULP energy -200728.468956 kJ/mol
# GULP energy per Si atom -5575.790804 kJ/mol
# Density = 1.977553 g / cm^3
# Si number density = 19.820646 Si / 1000 Ang^3
#
#
#
# Elastic Constant Matrix: (Units=GPa)
#
#
# Indices 1 2 3 4 5 6 
#
# 1 95.4098 39.9441 31.5762 0.0000 0.0000 0.0000
# 2 39.9441 95.4098 31.5762 0.0000 0.0000 0.0000
# 3 31.5762 31.5762 97.0197 0.0000 0.0000 0.0000
# 4 0.0000 0.0000 0.0000 24.0527 0.0000 0.0000
# 5 0.0000 0.0000 0.0000 0.0000 24.0527 0.0000
# 6 0.0000 0.0000 0.0000 0.0000 0.0000 27.7328
#
#
#
# Elastic Compliance Matrix: (Units=1/GPa)
#
#
# Indices 1 2 3 4 5 6 
#
# 1 0.013370 -0.004659 -0.002835 0.000000 0.000000 0.000000
# 2 -0.004659 0.013370 -0.002835 0.000000 0.000000 0.000000
# 3 -0.002835 -0.002835 0.012153 0.000000 0.000000 0.000000
# 4 0.000000 0.000000 0.000000 0.041575 0.000000 0.000000
# 5 0.000000 0.000000 0.000000 0.000000 0.041575 0.000000
# 6 0.000000 0.000000 0.000000 0.000000 0.000000 0.036058
#
#
# Mechanical properties :
#
#
# Convention : Reuss Voigt Hill
#
# Bulk Modulus (GPa) = 54.84250 54.89247 54.86749
# Shear Modulus (GPa) = 27.05071 27.48384 27.26727
#
# Velocity S-wave (km/s) = 3.69829 3.72778 3.71307
# Velocity P-wave (km/s) = 6.77982 6.80318 6.79151
#
# Compressibility (1/GPa) = 0.01823403
#
# Stress axis : x y z
#
# Youngs Moduli (GPa) = 74.79446 74.79446 82.28714
#
# Poissons Ratio (x) = 0.34848 0.23329
# Poissons Ratio (y) = 0.34848 0.23329
# Poissons Ratio (z) = 0.21204 0.21204
#
# Static dielectric constant tensor:
#      x y z
#    x 1.731160 0.000000 0.000000 
#    y 0.000000 1.731160 0.000000 
#    z 0.000000 0.000000 2.216570 
# 
# From -- ./inp_files/2304.got.cif
#   From: 2010.05.17/outbox.cif.g08.bks.cpg/sg179_2_cif.got.tgz:2304.got - 2010.05.20 11:37:33.
