data_PCOD9583197
_publ_section_title
;
Structure prediction by ZEFSAII (Michael W. Deem and Ramdas Pophale) SiO2 
 PCOD9583197
Probable space group: P 65 2 2
;
_chemical_formula_sum "Si O2"
_cell_formula_units_Z 84
_cell_length_a 21.236825
_cell_length_b 21.236825
_cell_length_c 11.128223
_cell_angle_alpha 90.000000
_cell_angle_beta 90.000000
_cell_angle_gamma 120.000000
_cell_volume 4346.459410
_symmetry_space_group_name_H-M "P 65 2 2"
_symmetry_group_IT_number 179
_symmetry_cell_setting 'hexagonal'
loop_
_space_group_symop_operation_xyz
x,y,z
x-y,x,5/6+z
-y,x-y,2/3+z
-x,-y,1/2+z
-x+y,-x,1/3+z
y,-x+y,1/6+z
x-y,-y,-z
-x,-x+y,1/3-z
y,x,2/3-z
-y,-x,1/6-z
-x+y,y,1/2-z
x,x-y,5/6-z
loop_
_atom_site_type_symbol
_atom_site_label
_atom_site_fract_x
_atom_site_fract_y
_atom_site_fract_z
Si Si1 0.412292 0.053006 0.271234
Si Si2 0.612529 0.097082 0.678888
Si Si3 0.296012 0.129543 0.778226
Si Si4 0.791746 0.539560 0.448865
Si Si5 0.272710 0.246950 0.697968
Si Si6 0.825743 0.506817 0.706649
Si Si7 0.523216 0.379418 0.754509
O O1 0.349046 0.059981 0.203905
O O2 0.434002 0.097806 0.396703
O O3 0.485094 0.093255 0.192681
O O4 0.385965 0.968017 0.251500
O O5 0.554769 0.109538 0.750000
O O6 0.691145 0.168936 0.676269
O O7 0.597332 0.089754 0.536651
O O8 0.373381 0.168217 0.713106
O O9 0.250808 0.163836 0.720515
O O10 0.258891 0.043386 0.788729
O O11 0.311445 0.155723 0.916667
O O12 0.818192 0.514085 0.565185
O O13 0.705893 0.502110 0.428989
O O14 0.279622 0.279622 0.833334
O O15 0.756935 0.513870 0.750000
O O16 0.819551 0.429711 0.737976
#
# Coordination Sequence:
#
# PCOD9583197 Si02
#       7
#    12  12  12  12  12  12  12
#     4  12  24  39  66  90 121 166 209 265 332 393
#     4  12  24  41  59  93 122 155 212 268 329 392
#     4  10  19  36  62  93 129 165 206 258 320 383
#     4  12  24  41  63  87 122 166 214 270 331 386
#     4  10  19  35  62  94 130 165 203 258 315 384
#     4  12  26  45  61  85 124 170 222 271 330 400
#     4  12  24  43  66  86 121 165 215 272 328 394
#
# _framework density 19.326074999999999
#
# number of rings (size 3 to 8) (size 9 to 14) (size 15 to 20)
#    0.000    0.571    5.714    3.857    0.000    1.143 
#    2.571    0.000    0.000    0.000    0.000    0.000 
#    0.000   40.000    0.000    0.000    0.000    0.000 
#
# Total GULP energy -468305.271610 kJ/mol
# GULP energy per Si atom -5575.062757 kJ/mol
# Density = 1.928209 g / cm^3
# Si number density = 19.326075 Si / 1000 Ang^3
#
#
#
# Elastic Constant Matrix: (Units=GPa)
#
#
# Indices 1 2 3 4 5 6 
#
# 1 99.2670 50.6874 22.5354 0.0000 0.0000 0.0000
# 2 50.6874 99.2670 22.5354 0.0000 0.0000 0.0000
# 3 22.5354 22.5354 58.0851 0.0000 0.0000 0.0000
# 4 0.0000 0.0000 0.0000 12.1347 0.0000 0.0000
# 5 0.0000 0.0000 0.0000 0.0000 12.1347 0.0000
# 6 0.0000 0.0000 0.0000 0.0000 0.0000 24.2898
#
#
#
# Elastic Compliance Matrix: (Units=1/GPa)
#
#
# Indices 1 2 3 4 5 6 
#
# 1 0.014067 -0.006518 -0.002929 0.000000 0.000000 0.000000
# 2 -0.006518 0.014067 -0.002929 0.000000 0.000000 0.000000
# 3 -0.002929 -0.002929 0.019489 0.000000 0.000000 0.000000
# 4 0.000000 0.000000 0.000000 0.082408 0.000000 0.000000
# 5 0.000000 0.000000 0.000000 0.000000 0.082408 0.000000
# 6 0.000000 0.000000 0.000000 0.000000 0.000000 0.041170
#
#
# Mechanical properties :
#
#
# Convention : Reuss Voigt Hill
#
# Bulk Modulus (GPa) = 43.72256 49.79284 46.75770
# Shear Modulus (GPa) = 17.48351 20.43588 18.95969
#
# Velocity S-wave (km/s) = 3.01102 3.25534 3.13556
# Velocity P-wave (km/s) = 5.89585 6.32061 6.11192
#
# Compressibility (1/GPa) = 0.02287149
#
# Stress axis : x y z
#
# Youngs Moduli (GPa) = 71.08897 71.08897 51.31175
#
# Poissons Ratio (x) = 0.46335 0.15028
# Poissons Ratio (y) = 0.46335 0.15028
# Poissons Ratio (z) = 0.20821 0.20821
#
# Static dielectric constant tensor:
#      x y z
#    x 1.742610 0.000000 0.000000 
#    y 0.000000 1.742610 0.000000 
#    z 0.000000 0.000000 1.756380 
# 
# From -- ./inp_files/4943.got.cif
#   From: 2010.05.17/outbox.cif.g08.bks.cpg/sg179_3_cif.got.tgz:4943.got - 2010.05.20 11:37:33.
