data_PCOD9583318
_publ_section_title
;
Structure prediction by ZEFSAII (Michael W. Deem and Ramdas Pophale) SiO2 
 PCOD9583318
Probable space group: P 65 2 2
;
_chemical_formula_sum "Si O2"
_cell_formula_units_Z 78
_cell_length_a 18.099776
_cell_length_b 18.099776
_cell_length_c 14.432614
_cell_angle_alpha 90.000000
_cell_angle_beta 90.000000
_cell_angle_gamma 120.000000
_cell_volume 4094.699435
_symmetry_space_group_name_H-M "P 65 2 2"
_symmetry_group_IT_number 179
_symmetry_cell_setting 'hexagonal'
loop_
_space_group_symop_operation_xyz
x,y,z
x-y,x,5/6+z
-y,x-y,2/3+z
-x,-y,1/2+z
-x+y,-x,1/3+z
y,-x+y,1/6+z
x-y,-y,-z
-x,-x+y,1/3-z
y,x,2/3-z
-y,-x,1/6-z
-x+y,y,1/2-z
x,x-y,5/6-z
loop_
_atom_site_type_symbol
_atom_site_label
_atom_site_fract_x
_atom_site_fract_y
_atom_site_fract_z
Si Si1 0.427351 0.205261 0.524635
Si Si2 0.451389 0.376750 0.567142
Si Si3 0.590188 0.526019 0.919623
Si Si4 0.000000 0.888700 0.666667
Si Si5 0.803426 0.070900 0.657667
Si Si6 0.962800 0.370645 0.564387
Si Si7 0.132211 0.876462 0.806475
O O1 0.403021 0.201511 0.416667
O O2 0.476271 0.306738 0.539577
O O3 0.468872 0.147420 0.554601
O O4 0.345171 0.175378 0.587844
O O5 0.537561 0.462440 0.583334
O O6 0.398426 0.402918 0.495957
O O7 0.403627 0.359844 0.663605
O O8 0.553589 0.553589 0.833334
O O9 0.510784 0.432243 0.948005
O O10 0.956149 0.912298 0.750000
O O11 0.931750 0.807836 0.606214
O O12 0.878577 0.121424 0.583334
O O13 0.728558 0.090532 0.627815
O O14 0.826986 0.092059 0.765216
O O15 0.773051 0.970995 0.657534
O O16 0.000000 0.383647 0.666667
#
# Coordination Sequence:
#
# PCOD9583318 Si02
#       7
#    12  12  12   6  12  12  12
#     4  12  24  37  67 103 134 168 218 274 335 413
#     4  10  21  41  66  93 133 177 213 265 332 404
#     4  10  21  38  64  97 133 171 213 268 340 409
#     4  12  26  46  64  94 138 186 224 288 350 404
#     4  12  25  44  66  95 127 179 237 286 332 396
#     4  10  21  41  64  91 124 169 225 274 331 397
#     4  12  26  42  65  96 136 173 231 286 341 396
#
# _framework density 19.049016000000002
#
# number of rings (size 3 to 8) (size 9 to 14) (size 15 to 20)
#    0.000    0.923    4.615    2.769    1.077    0.615 
#    0.000    0.769    0.000    2.769    0.000    0.000 
#    0.000    0.000    0.000    0.000    0.000    0.000 
#
# Total GULP energy -434350.825793 kJ/mol
# GULP energy per Si atom -5568.600331 kJ/mol
# Density = 1.900566 g / cm^3
# Si number density = 19.049016 Si / 1000 Ang^3
#
#
#
# Elastic Constant Matrix: (Units=GPa)
#
#
# Indices 1 2 3 4 5 6 
#
# 1 28.4497 84.1282 18.6806 0.0000 0.0000 0.0000
# 2 84.1282 28.4497 18.6806 0.0000 0.0000 0.0000
# 3 18.6806 18.6806 105.4250 0.0000 0.0000 0.0000
# 4 0.0000 0.0000 0.0000 32.7444 0.0000 0.0000
# 5 0.0000 0.0000 0.0000 0.0000 32.7444 0.0000
# 6 0.0000 0.0000 0.0000 0.0000 0.0000 -27.8393
#
#
#
# Elastic Compliance Matrix: (Units=1/GPa)
#
#
# Indices 1 2 3 4 5 6 
#
# 1 -0.004261 0.013699 -0.001672 0.000000 0.000000 0.000000
# 2 0.013699 -0.004261 -0.001672 0.000000 0.000000 0.000000
# 3 -0.001672 -0.001672 0.010078 0.000000 0.000000 0.000000
# 4 0.000000 0.000000 0.000000 0.030540 0.000000 0.000000
# 5 0.000000 0.000000 0.000000 0.000000 0.030540 0.000000
# 6 0.000000 0.000000 0.000000 0.000000 0.000000 -0.035920
#
#
# Mechanical properties :
#
#
# Convention : Reuss Voigt Hill
#
# Bulk Modulus (GPa) = 44.91494 45.03368 44.97431
# Shear Modulus (GPa) = 372.38896 10.25224 191.32060
#
# Velocity S-wave (km/s) = 13.99694 2.32244 10.03265
# Velocity P-wave (km/s) = 16.87746 5.55733 12.56449
#
# Compressibility (1/GPa) = 0.02226431
#
# Stress axis : x y z
#
# Youngs Moduli (GPa) = -234.67230 -234.67231 99.22544
#
# Poissons Ratio (x) = 3.21477 0.16594
# Poissons Ratio (y) = 3.21477 0.16594
# Poissons Ratio (z) = -0.39244 -0.39244
#
# Static dielectric constant tensor:
#      x y z
#    x 1.767680 0.000000 0.000000 
#    y 0.000000 1.767680 0.000000 
#    z 0.000000 0.000000 1.754520 
# 
# From -- ./inp_files/6065.got.cif
#   From: 2010.05.17/outbox.cif.g08.bks.cpg/sg179_4_cif.got.tgz:6065.got - 2010.05.20 11:37:33.
