data_PCOD9583248
_publ_section_title
;
Structure prediction by ZEFSAII (Michael W. Deem and Ramdas Pophale) SiO2 
 PCOD9583248
Probable space group: P 65 2 2
;
_chemical_formula_sum "Si O2"
_cell_formula_units_Z 66
_cell_length_a 28.576321
_cell_length_b 28.576321
_cell_length_c 6.351723
_cell_angle_alpha 90.000000
_cell_angle_beta 90.000000
_cell_angle_gamma 120.000000
_cell_volume 4491.948963
_symmetry_space_group_name_H-M "P 65 2 2"
_symmetry_group_IT_number 179
_symmetry_cell_setting 'hexagonal'
loop_
_space_group_symop_operation_xyz
x,y,z
x-y,x,5/6+z
-y,x-y,2/3+z
-x,-y,1/2+z
-x+y,-x,1/3+z
y,-x+y,1/6+z
x-y,-y,-z
-x,-x+y,1/3-z
y,x,2/3-z
-y,-x,1/6-z
-x+y,y,1/2-z
x,x-y,5/6-z
loop_
_atom_site_type_symbol
_atom_site_label
_atom_site_fract_x
_atom_site_fract_y
_atom_site_fract_z
Si Si1 0.346546 0.875103 0.270585
Si Si2 0.606845 0.944469 0.601420
Si Si3 0.477138 0.786041 0.545690
Si Si4 0.361087 0.722173 0.750000
Si Si5 0.420367 0.157625 0.360136
Si Si6 0.570127 0.514817 0.723866
O O1 0.294380 0.853828 0.419994
O O2 0.396281 0.903430 0.427034
O O3 0.344065 0.915398 0.102971
O O4 0.346079 0.829367 0.127192
O O5 0.615376 0.900026 0.734700
O O6 0.567459 0.955508 0.754148
O O7 0.655075 0.000000 0.500000
O O8 0.482402 0.741201 0.416667
O O9 0.419722 0.759328 0.654040
O O10 0.526173 0.812279 0.712683
O O11 0.317174 0.682827 0.583334
O O12 0.399627 0.199814 0.416667
O O13 0.527003 0.527003 0.833334
O O14 0.537966 0.462035 0.583334
#
# Coordination Sequence:
#
# PCOD9583248 Si02
#       6
#    12  12  12   6  12  12
#     4  10  22  39  54  72  98 119 148 191 223 283
#     4  10  20  36  53  75  97 124 152 184 229 274
#     4  11  22  41  57  70  92 114 150 191 235 285
#     4  12  26  42  56  70  84 116 146 192 246 288
#     4  10  20  36  58  77  95 124 152 188 230 279
#     4  11  22  36  52  70  96 124 150 180 228 283
#
# _framework density 14.692954
#
# number of rings (size 3 to 8) (size 9 to 14) (size 15 to 20)
#    0.000    1.455    4.545    1.091    0.000    0.000 
#   18.000    0.000    0.000    0.000    0.000    0.000 
#    0.000    0.000    0.000    0.000    0.000    0.000 
#
# Total GULP energy -368269.073036 kJ/mol
# GULP energy per Si atom -5579.834440 kJ/mol
# Density = 1.465951 g / cm^3
# Si number density = 14.692954 Si / 1000 Ang^3
#
#
#
# Elastic Constant Matrix: (Units=GPa)
#
#
# Indices 1 2 3 4 5 6 
#
# 1 52.6970 37.5859 31.8535 0.0000 0.0000 0.0000
# 2 37.5859 52.6970 31.8535 0.0000 0.0000 0.0000
# 3 31.8535 31.8535 93.8753 0.0000 0.0000 0.0000
# 4 0.0000 0.0000 0.0000 -102.7183 0.0000 0.0000
# 5 0.0000 0.0000 0.0000 0.0000 -102.7183 0.0000
# 6 0.0000 0.0000 0.0000 0.0000 0.0000 7.5556
#
#
#
# Elastic Compliance Matrix: (Units=1/GPa)
#
#
# Indices 1 2 3 4 5 6 
#
# 1 0.040370 -0.025807 -0.004942 0.000000 0.000000 0.000000
# 2 -0.025807 0.040370 -0.004942 0.000000 0.000000 0.000000
# 3 -0.004942 -0.004942 0.014006 0.000000 0.000000 0.000000
# 4 0.000000 0.000000 0.000000 -0.009735 0.000000 0.000000
# 5 0.000000 0.000000 0.000000 0.000000 -0.009735 0.000000
# 6 0.000000 0.000000 0.000000 0.000000 0.000000 0.132353
#
#
# Mechanical properties :
#
#
# Convention : Reuss Voigt Hill
#
# Bulk Modulus (GPa) = 42.79688 44.65058 43.72373
# Shear Modulus (GPa) = 17.43401 -33.04445 -7.80522
#
# Velocity S-wave (km/s) = 3.44838 -4.74751 -2.30733
# Velocity P-wave (km/s) = 6.71162 0.63507 4.76703
#
# Compressibility (1/GPa) = 0.02336619
#
# Stress axis : x y z
#
# Youngs Moduli (GPa) = 24.77098 24.77098 71.39821
#
# Poissons Ratio (x) = 0.63925 0.35282
# Poissons Ratio (y) = 0.63925 0.35282
# Poissons Ratio (z) = 0.12241 0.12241
#
# Static dielectric constant tensor:
#      x y z
#    x 1.935710 0.000000 0.000000 
#    y 0.000000 1.935710 0.000000 
#    z 0.000000 0.000000 1.501980 
# 
# From -- ./inp_files/1647.got.cif
#   From: 2010.05.17/outbox.cif.g08.bks.cpg/sg179_1_cif.got.tgz:1647.got - 2010.05.20 11:37:33.
