data_PCOD9583656
_publ_section_title
;
Structure prediction by ZEFSAII (Michael W. Deem and Ramdas Pophale) SiO2 
 PCOD9583656
Probable space group: P 62 2 2
;
_chemical_formula_sum "Si O2"
_cell_formula_units_Z 72
_cell_length_a 15.524589
_cell_length_b 15.524589
_cell_length_c 15.950875
_cell_angle_alpha 90.000000
_cell_angle_beta 90.000000
_cell_angle_gamma 120.000000
_cell_volume 3329.318670
_symmetry_space_group_name_H-M "P 62 2 2"
_symmetry_group_IT_number 180
_symmetry_cell_setting 'hexagonal'
loop_
_space_group_symop_operation_xyz
x,y,z
x-y,x,1/3+z
-y,x-y,2/3+z
-x,-y,z
-x+y,-x,1/3+z
y,-x+y,2/3+z
x-y,-y,-z
-x,-x+y,1/3-z
y,x,2/3-z
-y,-x,2/3-z
-x+y,y,-z
x,x-y,1/3-z
loop_
_atom_site_type_symbol
_atom_site_label
_atom_site_fract_x
_atom_site_fract_y
_atom_site_fract_z
Si Si1 0.638964 0.724037 0.680663
Si Si2 0.120272 0.561731 0.021627
Si Si3 0.128887 0.379277 0.575788
Si Si4 0.084941 0.379236 0.823224
Si Si5 0.621726 0.868529 0.407581
Si Si6 0.609098 0.406247 0.500169
O O1 0.677270 0.838635 0.666667
O O2 0.524724 0.668353 0.714152
O O3 0.630463 0.680833 0.585890
O O4 0.707042 0.692674 0.730698
O O5 0.148004 0.658271 0.076628
O O6 0.166259 0.600668 0.929694
O O7 0.000000 0.500000 0.018385
O O8 0.171156 0.342312 0.500000
O O9 0.180333 0.371269 0.659925
O O10 0.166034 0.494306 0.554234
O O11 0.010022 0.323976 0.567472
O O12 0.169245 0.348843 0.815522
O O13 0.146279 0.496376 0.801165
O O14 0.677356 0.354711 0.500000
#
# Coordination Sequence:
#
# PCOD9583656 Si02
#       6
#    12  12  12  12  12  12
#     4  10  22  40  60  80 113 161 198 247 308 359
#     4   9  17  34  55  78 111 156 193 229 295 359
#     4  11  18  36  59  84 121 159 190 239 303 360
#     4  11  23  35  58  90 117 154 204 245 298 368
#     4  11  21  36  60  89 116 152 201 249 298 363
#     4  10  18  32  55  82 124 163 190 233 289 361
#
# _framework density 21.626047
#
# number of rings (size 3 to 8) (size 9 to 14) (size 15 to 20)
#    0.000    1.667    5.000    3.000    0.000    4.000 
#    0.000    1.667    0.000    5.000    0.000    0.000 
#    0.000    0.000    0.000    0.000    0.000    0.000 
#
# Total GULP energy -402274.749868 kJ/mol
# GULP energy per Si atom -5587.149304 kJ/mol
# Density = 2.157682 g / cm^3
# Si number density = 21.626047 Si / 1000 Ang^3
#
#
#
# Elastic Constant Matrix: (Units=GPa)
#
#
# Indices 1 2 3 4 5 6 
#
# 1 121.4423 57.5396 12.3150 0.0000 0.0000 0.0000
# 2 57.5396 121.4423 12.3150 0.0000 0.0000 0.0000
# 3 12.3150 12.3150 70.6467 0.0000 0.0000 0.0000
# 4 0.0000 0.0000 0.0000 25.8568 0.0000 0.0000
# 5 0.0000 0.0000 0.0000 0.0000 25.8568 0.0000
# 6 0.0000 0.0000 0.0000 0.0000 0.0000 31.9514
#
#
#
# Elastic Compliance Matrix: (Units=1/GPa)
#
#
# Indices 1 2 3 4 5 6 
#
# 1 0.010687 -0.004962 -0.000998 0.000000 0.000000 0.000000
# 2 -0.004962 0.010687 -0.000998 0.000000 0.000000 0.000000
# 3 -0.000998 -0.000998 0.014503 0.000000 0.000000 0.000000
# 4 0.000000 0.000000 0.000000 0.038675 0.000000 0.000000
# 5 0.000000 0.000000 0.000000 0.000000 0.038675 0.000000
# 6 0.000000 0.000000 0.000000 0.000000 0.000000 0.031298
#
#
# Mechanical properties :
#
#
# Convention : Reuss Voigt Hill
#
# Bulk Modulus (GPa) = 45.53676 53.09671 49.31673
# Shear Modulus (GPa) = 30.16434 32.15711 31.16072
#
# Velocity S-wave (km/s) = 3.73877 3.86030 3.80002
# Velocity P-wave (km/s) = 6.30397 6.66894 6.48902
#
# Compressibility (1/GPa) = 0.02196028
#
# Stress axis : x y z
#
# Youngs Moduli (GPa) = 93.57488 93.57488 68.95200
#
# Poissons Ratio (x) = 0.46433 0.06881
# Poissons Ratio (y) = 0.46433 0.06881
# Poissons Ratio (z) = 0.09338 0.09338
#
# Static dielectric constant tensor:
#      x y z
#    x 1.796020 0.000000 0.000000 
#    y 0.000000 1.796020 0.000000 
#    z 0.000000 0.000000 1.871970 
# 
# From -- ./inp_files/7764.got.cif
#   From: 2010.05.17/outbox.cif.g08.bks.cpg/sg180_4_cif.got.tgz:7764.got - 2010.05.20 11:43:55.
