data_PCOD9583375
_publ_section_title
;
Structure prediction by ZEFSAII (Michael W. Deem and Ramdas Pophale) SiO2 
 PCOD9583375
Probable space group: P 65 2 2
;
_chemical_formula_sum "Si O2"
_cell_formula_units_Z 66
_cell_length_a 20.663536
_cell_length_b 20.663536
_cell_length_c 9.276540
_cell_angle_alpha 90.000000
_cell_angle_beta 90.000000
_cell_angle_gamma 120.000000
_cell_volume 3430.251285
_symmetry_space_group_name_H-M "P 65 2 2"
_symmetry_group_IT_number 179
_symmetry_cell_setting 'hexagonal'
loop_
_space_group_symop_operation_xyz
x,y,z
x-y,x,5/6+z
-y,x-y,2/3+z
-x,-y,1/2+z
-x+y,-x,1/3+z
y,-x+y,1/6+z
x-y,-y,-z
-x,-x+y,1/3-z
y,x,2/3-z
-y,-x,1/6-z
-x+y,y,1/2-z
x,x-y,5/6-z
loop_
_atom_site_type_symbol
_atom_site_label
_atom_site_fract_x
_atom_site_fract_y
_atom_site_fract_z
Si Si1 0.645232 0.217060 0.623064
Si Si2 0.782315 0.606956 0.599552
Si Si3 0.582081 0.000000 0.000000
Si Si4 0.083712 0.304870 0.675543
Si Si5 0.154774 0.625627 0.545924
Si Si6 0.421019 0.102437 0.748711
O O1 0.731597 0.268404 0.583334
O O2 0.629580 0.259160 0.750000
O O3 0.584539 0.205035 0.504423
O O4 0.635549 0.139560 0.684382
O O5 0.823021 0.646042 0.750000
O O6 0.771484 0.657872 0.481614
O O7 0.704932 0.536652 0.655280
O O8 0.833028 0.580400 0.514473
O O9 0.637340 0.034570 0.862724
O O10 0.508788 0.929543 0.938920
O O11 0.143232 0.286463 0.750000
O O12 0.082053 0.365417 0.783894
O O13 0.000000 0.236570 0.666667
O O14 0.164530 0.582265 0.416667
#
# Coordination Sequence:
#
# PCOD9583375 Si02
#       6
#    12  12   6  12  12  12
#     4  12  25  44  61  84 119 165 215 272 321 393
#     4  11  21  43  62  91 126 163 207 266 316 390
#     4  12  24  40  62  88 118 158 208 278 328 392
#     4  10  22  40  67  98 130 168 207 249 312 378
#     4  12  26  39  61  85 119 157 209 259 329 384
#     4  11  23  41  64  87 124 159 212 264 334 379
#
# _framework density 19.240573999999999
#
# number of rings (size 3 to 8) (size 9 to 14) (size 15 to 20)
#    0.000    0.727    3.636    4.909    2.545    2.909 
#    1.636    0.000    0.000    0.000    0.000    1.273 
#    0.000    0.000    0.000    0.000    0.000    0.000 
#
# Total GULP energy -368611.484578 kJ/mol
# GULP energy per Si atom -5585.022494 kJ/mol
# Density = 1.919678 g / cm^3
# Si number density = 19.240574 Si / 1000 Ang^3
#
#
#
# Elastic Constant Matrix: (Units=GPa)
#
#
# Indices 1 2 3 4 5 6 
#
# 1 72.4080 38.3674 45.7414 0.0000 0.0000 0.0000
# 2 38.3674 72.4080 45.7414 0.0000 0.0000 0.0000
# 3 45.7414 45.7414 164.6803 0.0000 0.0000 0.0000
# 4 0.0000 0.0000 0.0000 21.8074 0.0000 0.0000
# 5 0.0000 0.0000 0.0000 0.0000 21.8074 0.0000
# 6 0.0000 0.0000 0.0000 0.0000 0.0000 17.0203
#
#
#
# Elastic Compliance Matrix: (Units=1/GPa)
#
#
# Indices 1 2 3 4 5 6 
#
# 1 0.020546 -0.008831 -0.003254 0.000000 0.000000 0.000000
# 2 -0.008831 0.020546 -0.003254 0.000000 0.000000 0.000000
# 3 -0.003254 -0.003254 0.007880 0.000000 0.000000 0.000000
# 4 0.000000 0.000000 0.000000 0.045856 0.000000 0.000000
# 5 0.000000 0.000000 0.000000 0.000000 0.045856 0.000000
# 6 0.000000 0.000000 0.000000 0.000000 0.000000 0.058753
#
#
# Mechanical properties :
#
#
# Convention : Reuss Voigt Hill
#
# Bulk Modulus (GPa) = 54.66402 63.24406 58.95404
# Shear Modulus (GPa) = 21.16746 24.10341 22.63543
#
# Velocity S-wave (km/s) = 3.32044 3.54324 3.43365
# Velocity P-wave (km/s) = 6.57061 7.04847 6.81373
#
# Compressibility (1/GPa) = 0.01829357
#
# Stress axis : x y z
#
# Youngs Moduli (GPa) = 48.67241 48.67241 126.90516
#
# Poissons Ratio (x) = 0.42983 0.41292
# Poissons Ratio (y) = 0.42983 0.41292
# Poissons Ratio (z) = 0.15837 0.15837
#
# Static dielectric constant tensor:
#      x y z
#    x 1.664500 0.000000 0.000000 
#    y 0.000000 1.664500 0.000000 
#    z 0.000000 0.000000 1.727110 
# 
# From -- ./inp_files/3353.got.cif
#   From: 2010.05.17/outbox.cif.g08.bks.cpg/sg179_2_cif.got.tgz:3353.got - 2010.05.20 11:37:33.
