data_PCOD9583303
_publ_section_title
;
Structure prediction by ZEFSAII (Michael W. Deem and Ramdas Pophale) SiO2 
 PCOD9583303
Probable space group: P 65 2 2
;
_chemical_formula_sum "Si O2"
_cell_formula_units_Z 66
_cell_length_a 21.195916
_cell_length_b 21.195916
_cell_length_c 8.198386
_cell_angle_alpha 90.000000
_cell_angle_beta 90.000000
_cell_angle_gamma 120.000000
_cell_volume 3189.799409
_symmetry_space_group_name_H-M "P 65 2 2"
_symmetry_group_IT_number 179
_symmetry_cell_setting 'hexagonal'
loop_
_space_group_symop_operation_xyz
x,y,z
x-y,x,5/6+z
-y,x-y,2/3+z
-x,-y,1/2+z
-x+y,-x,1/3+z
y,-x+y,1/6+z
x-y,-y,-z
-x,-x+y,1/3-z
y,x,2/3-z
-y,-x,1/6-z
-x+y,y,1/2-z
x,x-y,5/6-z
loop_
_atom_site_type_symbol
_atom_site_label
_atom_site_fract_x
_atom_site_fract_y
_atom_site_fract_z
Si Si1 0.615198 0.724143 0.636963
Si Si2 0.418590 0.000000 0.500000
Si Si3 0.822670 0.645340 0.750000
Si Si4 0.954568 0.852141 0.931837
Si Si5 0.964065 0.246654 0.895470
Si Si6 0.545463 0.090925 0.250000
Si Si7 0.916290 0.347297 0.699283
O O1 0.592507 0.653110 0.745167
O O2 0.605943 0.781827 0.748122
O O3 0.699431 0.749013 0.594063
O O4 0.571376 0.694135 0.467446
O O5 0.479667 0.041360 0.368025
O O6 0.782120 0.691010 0.714961
O O7 0.917329 0.834658 0.750000
O O8 0.953208 0.781620 0.005498
O O9 0.035238 0.914080 0.885229
O O10 0.934680 0.291843 0.795602
O O11 0.506513 0.124425 0.134632
O O12 0.000000 0.413036 0.666667
#
# Coordination Sequence:
#
# PCOD9583303 Si02
#       7
#    12   6   6  12  12   6  12
#     4  11  22  36  54  84 120 160 217 266 312 399
#     4  12  18  34  56  84 120 154 208 240 288 376
#     4  12  20  32  56  76 112 166 211 262 332 390
#     4  10  21  37  64  79 103 153 225 300 367 417
#     4  11  20  36  56  85 114 158 214 278 340 416
#     4  12  18  34  60  88 118 172 191 242 310 378
#     4  10  21  36  55  85 126 153 206 253 312 403
#
# _framework density 20.690957999999998
#
# number of rings (size 3 to 8) (size 9 to 14) (size 15 to 20)
#    0.000    1.091    7.273    1.091    2.545    0.727 
#    0.000    1.818   36.000    0.000    0.000    0.000 
#    0.000    0.000    0.000  130.909    2.909   34.182 
#
# Total GULP energy -367941.180748 kJ/mol
# GULP energy per Si atom -5574.866375 kJ/mol
# Density = 2.064386 g / cm^3
# Si number density = 20.690958 Si / 1000 Ang^3
#
#
#
# Elastic Constant Matrix: (Units=GPa)
#
#
# Indices 1 2 3 4 5 6 
#
# 1 82.7984 36.6690 35.2006 0.0000 0.0000 0.0000
# 2 36.6690 82.7984 35.2006 0.0000 0.0000 0.0000
# 3 35.2006 35.2006 102.1646 0.0000 0.0000 0.0000
# 4 0.0000 0.0000 0.0000 -15.9108 0.0000 0.0000
# 5 0.0000 0.0000 0.0000 0.0000 -15.9108 0.0000
# 6 0.0000 0.0000 0.0000 0.0000 0.0000 23.0647
#
#
#
# Elastic Compliance Matrix: (Units=1/GPa)
#
#
# Indices 1 2 3 4 5 6 
#
# 1 0.016091 -0.005588 -0.003619 0.000000 0.000000 0.000000
# 2 -0.005588 0.016091 -0.003619 0.000000 0.000000 0.000000
# 3 -0.003619 -0.003619 0.012282 0.000000 0.000000 0.000000
# 4 0.000000 0.000000 0.000000 -0.062850 0.000000 0.000000
# 5 0.000000 0.000000 0.000000 0.000000 -0.062850 0.000000
# 6 0.000000 0.000000 0.000000 0.000000 0.000000 0.043356
#
#
# Mechanical properties :
#
#
# Convention : Reuss Voigt Hill
#
# Bulk Modulus (GPa) = 53.15564 53.54464 53.35014
# Shear Modulus (GPa) = -838.88194 8.96138 -414.96028
#
# Velocity S-wave (km/s) = -20.15724 2.08338 -14.17698
# Velocity P-wave (km/s) = 22.71577 5.63221 15.56092
#
# Compressibility (1/GPa) = 0.01881268
#
# Stress axis : x y z
#
# Youngs Moduli (GPa) = 62.14823 62.14823 81.42121
#
# Poissons Ratio (x) = 0.34726 0.29465
# Poissons Ratio (y) = 0.34726 0.29465
# Poissons Ratio (z) = 0.22490 0.22490
#
# Static dielectric constant tensor:
#      x y z
#    x 2.040270 0.000000 0.000000 
#    y 0.000000 2.040270 0.000000 
#    z 0.000000 0.000000 1.880630 
# 
# From -- ./inp_files/3416.got.cif
#   From: 2010.05.17/outbox.cif.g08.bks.cpg/sg179_2_cif.got.tgz:3416.got - 2010.05.20 11:37:33.
