data_PCOD9583238
_publ_section_title
;
Structure prediction by ZEFSAII (Michael W. Deem and Ramdas Pophale) SiO2 
 PCOD9583238
Probable space group: P 65 2 2
;
_chemical_formula_sum "Si O2"
_cell_formula_units_Z 84
_cell_length_a 21.761237
_cell_length_b 21.761237
_cell_length_c 12.036635
_cell_angle_alpha 90.000000
_cell_angle_beta 90.000000
_cell_angle_gamma 120.000000
_cell_volume 4936.315171
_symmetry_space_group_name_H-M "P 65 2 2"
_symmetry_group_IT_number 179
_symmetry_cell_setting 'hexagonal'
loop_
_space_group_symop_operation_xyz
x,y,z
x-y,x,5/6+z
-y,x-y,2/3+z
-x,-y,1/2+z
-x+y,-x,1/3+z
y,-x+y,1/6+z
x-y,-y,-z
-x,-x+y,1/3-z
y,x,2/3-z
-y,-x,1/6-z
-x+y,y,1/2-z
x,x-y,5/6-z
loop_
_atom_site_type_symbol
_atom_site_label
_atom_site_fract_x
_atom_site_fract_y
_atom_site_fract_z
Si Si1 0.430077 0.116024 0.210458
Si Si2 0.599414 0.956210 0.234142
Si Si3 0.173508 0.293192 0.128850
Si Si4 0.439203 0.738153 0.788328
Si Si5 0.611671 0.155335 0.866639
Si Si6 0.384194 0.465524 0.808601
Si Si7 0.264443 0.030003 0.622400
O O1 0.362263 0.124746 0.238046
O O2 0.499598 0.181921 0.261452
O O3 0.412889 0.040205 0.261365
O O4 0.439681 0.108803 0.078980
O O5 0.533669 0.912160 0.153237
O O6 0.573950 0.925209 0.358241
O O7 0.664899 0.949436 0.190522
O O8 0.157378 0.314756 0.250000
O O9 0.100248 0.260110 0.062664
O O10 0.200525 0.237690 0.150561
O O11 0.363980 0.727960 0.750000
O O12 0.458147 0.683902 0.727685
O O13 0.436691 0.718346 0.916667
O O14 0.583583 0.167166 0.750000
O O15 0.549046 0.132925 0.955792
O O16 0.444847 0.444847 0.833334
O O17 0.267470 0.000000 0.500000
#
# Coordination Sequence:
#
# PCOD9583238 Si02
#       7
#    12  12  12  12  12  12  12
#     4  10  20  35  54  77 102 130 168 217 263 309
#     4   9  19  34  54  77 101 130 167 212 263 311
#     4   9  17  31  51  77 108 136 166 206 254 309
#     4  12  25  38  52  72 100 134 174 215 259 310
#     4  10  21  37  53  69  95 132 170 208 253 307
#     4   9  19  35  54  75  98 127 169 214 259 311
#     4   9  17  30  50  77 109 137 166 206 255 307
#
# _framework density 17.016742000000001
#
# number of rings (size 3 to 8) (size 9 to 14) (size 15 to 20)
#    0.000    2.286    0.000    2.571    0.000    6.857 
#    0.000    5.714    0.000    0.000    0.000    0.000 
#    0.000   65.143    0.000    0.000    0.000    0.000 
#
# Total GULP energy -468512.323063 kJ/mol
# GULP energy per Si atom -5577.527656 kJ/mol
# Density = 1.697801 g / cm^3
# Si number density = 17.016742 Si / 1000 Ang^3
#
#
#
# Elastic Constant Matrix: (Units=GPa)
#
#
# Indices 1 2 3 4 5 6 
#
# 1 115.1476 75.2193 55.1743 0.0000 0.0000 0.0000
# 2 75.2193 115.1476 55.1743 0.0000 0.0000 0.0000
# 3 55.1743 55.1743 55.7288 0.0000 0.0000 0.0000
# 4 0.0000 0.0000 0.0000 22.0192 0.0000 0.0000
# 5 0.0000 0.0000 0.0000 0.0000 22.0192 0.0000
# 6 0.0000 0.0000 0.0000 0.0000 0.0000 19.9642
#
#
#
# Elastic Compliance Matrix: (Units=1/GPa)
#
#
# Indices 1 2 3 4 5 6 
#
# 1 0.018686 -0.006358 -0.012205 0.000000 0.000000 0.000000
# 2 -0.006358 0.018686 -0.012205 0.000000 0.000000 0.000000
# 3 -0.012205 -0.012205 0.042112 0.000000 0.000000 0.000000
# 4 0.000000 0.000000 0.000000 0.045415 0.000000 0.000000
# 5 0.000000 0.000000 0.000000 0.000000 0.045415 0.000000
# 6 0.000000 0.000000 0.000000 0.000000 0.000000 0.050090
#
#
# Mechanical properties :
#
#
# Convention : Reuss Voigt Hill
#
# Bulk Modulus (GPa) = 55.72126 73.01775 64.36951
# Shear Modulus (GPa) = 17.36566 19.49757 18.43162
#
# Velocity S-wave (km/s) = 3.19800 3.38862 3.29469
# Velocity P-wave (km/s) = 6.81559 7.63628 7.23758
#
# Compressibility (1/GPa) = 0.01794647
#
# Stress axis : x y z
#
# Youngs Moduli (GPa) = 53.51479 53.51479 23.74636
#
# Poissons Ratio (x) = 0.34027 0.28983
# Poissons Ratio (y) = 0.34027 0.28983
# Poissons Ratio (z) = 0.65316 0.65316
#
# Static dielectric constant tensor:
#      x y z
#    x 1.574380 0.000000 0.000000 
#    y 0.000000 1.574380 0.000000 
#    z 0.000000 0.000000 1.583870 
# 
# From -- ./inp_files/4917.got.cif
#   From: 2010.05.17/outbox.cif.g08.bks.cpg/sg179_3_cif.got.tgz:4917.got - 2010.05.20 11:37:33.
