data_PCOD9583903
_publ_section_title
;
Structure prediction by ZEFSAII (Michael W. Deem and Ramdas Pophale) SiO2 
 PCOD9583903
Probable space group: P 62 2 2
;
_chemical_formula_sum "Si O2"
_cell_formula_units_Z 84
_cell_length_a 20.799176
_cell_length_b 20.799176
_cell_length_c 10.423308
_cell_angle_alpha 90.000000
_cell_angle_beta 90.000000
_cell_angle_gamma 120.000000
_cell_volume 3905.066756
_symmetry_space_group_name_H-M "P 62 2 2"
_symmetry_group_IT_number 180
_symmetry_cell_setting 'hexagonal'
loop_
_space_group_symop_operation_xyz
x,y,z
x-y,x,1/3+z
-y,x-y,2/3+z
-x,-y,z
-x+y,-x,1/3+z
y,-x+y,2/3+z
x-y,-y,-z
-x,-x+y,1/3-z
y,x,2/3-z
-y,-x,2/3-z
-x+y,y,-z
x,x-y,1/3-z
loop_
_atom_site_type_symbol
_atom_site_label
_atom_site_fract_x
_atom_site_fract_y
_atom_site_fract_z
Si Si1 0.069534 0.683957 0.766320
Si Si2 0.586355 0.027807 0.294610
Si Si3 0.446474 0.702319 0.815211
Si Si4 0.364051 0.514279 0.260058
Si Si5 0.816520 0.768858 0.944409
Si Si6 0.398519 0.135992 0.568264
Si Si7 0.231577 0.187159 0.199907
O O1 0.137661 0.686645 0.692683
O O2 0.086515 0.766738 0.781950
O O3 0.000000 0.645306 0.666667
O O4 0.039458 0.629975 0.889902
O O5 0.615557 0.096934 0.194941
O O6 0.654853 0.069271 0.393051
O O7 0.500000 0.000000 0.330522
O O8 0.381340 0.618661 0.833334
O O9 0.445907 0.722953 0.666667
O O10 0.437073 0.764227 0.890155
O O11 0.528999 0.717888 0.848719
O O12 0.440035 0.559966 0.333334
O O13 0.823811 0.823811 0.833334
O O14 0.779173 0.688832 0.872648
O O15 0.894257 0.788513 0.000000
O O16 0.776091 0.771265 0.074223
O O17 0.399355 0.199678 0.666667
O O18 0.197007 0.197007 0.333334
O O19 0.204577 0.102289 0.166667
#
# Coordination Sequence:
#
# PCOD9583903 Si02
#       7
#    12  12  12  12  12  12  12
#     4   9  20  32  58  95 123 156 208 268 341 398
#     4  11  18  35  61  90 133 164 217 277 351 412
#     4  11  23  41  60  82 122 181 236 277 340 409
#     4  11  20  35  59  91 124 170 218 284 349 408
#     4  11  24  44  72 101 138 183 229 272 338 430
#     4  10  21  41  64  88 127 180 228 273 342 417
#     4  11  23  42  68 101 138 168 215 281 342 399
#
# _framework density 21.510515999999999
#
# number of rings (size 3 to 8) (size 9 to 14) (size 15 to 20)
#    0.000    1.429    5.714    1.286    0.000    1.143 
#    2.571    5.000    0.000    4.286    0.000    0.000 
#    0.000    0.000    0.000    0.000    0.000    0.000 
#
# Total GULP energy -467791.348271 kJ/mol
# GULP energy per Si atom -5568.944622 kJ/mol
# Density = 2.146156 g / cm^3
# Si number density = 21.510516 Si / 1000 Ang^3
#
#
#
# Elastic Constant Matrix: (Units=GPa)
#
#
# Indices 1 2 3 4 5 6 
#
# 1 -2.0627 104.3147 19.1589 0.0000 0.0000 0.0000
# 2 104.3147 -2.0627 19.1589 0.0000 0.0000 0.0000
# 3 19.1589 19.1589 53.6477 0.0000 0.0000 0.0000
# 4 0.0000 0.0000 0.0000 10.4542 0.0000 0.0000
# 5 0.0000 0.0000 0.0000 0.0000 10.4542 0.0000
# 6 0.0000 0.0000 0.0000 0.0000 0.0000 -53.1887
#
#
#
# Elastic Compliance Matrix: (Units=1/GPa)
#
#
# Indices 1 2 3 4 5 6 
#
# 1 0.000945 0.010346 -0.004032 0.000000 0.000000 0.000000
# 2 0.010346 0.000945 -0.004032 0.000000 0.000000 0.000000
# 3 -0.004032 -0.004032 0.021520 0.000000 0.000000 0.000000
# 4 0.000000 0.000000 0.000000 0.095655 0.000000 0.000000
# 5 0.000000 0.000000 0.000000 0.000000 0.095655 0.000000
# 6 0.000000 0.000000 0.000000 0.000000 0.000000 -0.018801
#
#
# Mechanical properties :
#
#
# Convention : Reuss Voigt Hill
#
# Bulk Modulus (GPa) = 35.74895 37.19859 36.47377
# Shear Modulus (GPa) = 24.91513 -12.66338 6.12587
#
# Velocity S-wave (km/s) = 3.40704 -2.42896 1.68939
# Velocity P-wave (km/s) = 5.66856 3.07641 4.56053
#
# Compressibility (1/GPa) = 0.02797285
#
# Stress axis : x y z
#
# Youngs Moduli (GPa) = 1058.04051 1058.04051 46.46814
#
# Poissons Ratio (x) = -10.94611 0.18737
# Poissons Ratio (y) = -10.94611 0.18737
# Poissons Ratio (z) = 4.26624 4.26624
#
# Static dielectric constant tensor:
#      x y z
#    x 1.872880 0.000000 0.000000 
#    y 0.000000 1.872880 0.000000 
#    z 0.000000 0.000000 1.586810 
# 
# From -- ./inp_files/5064.got.cif
#   From: 2010.05.17/outbox.cif.g08.bks.cpg/sg180_3_cif.got.tgz:5064.got - 2010.05.20 11:43:55.
