data_PCOD9583113
_publ_section_title
;
Structure prediction by ZEFSAII (Michael W. Deem and Ramdas Pophale) SiO2 
 PCOD9583113
Probable space group: P 65 2 2
;
_chemical_formula_sum "Si O2"
_cell_formula_units_Z 72
_cell_length_a 11.342918
_cell_length_b 11.342918
_cell_length_c 29.104342
_cell_angle_alpha 90.000000
_cell_angle_beta 90.000000
_cell_angle_gamma 120.000000
_cell_volume 3242.933192
_symmetry_space_group_name_H-M "P 65 2 2"
_symmetry_group_IT_number 179
_symmetry_cell_setting 'hexagonal'
loop_
_space_group_symop_operation_xyz
x,y,z
x-y,x,5/6+z
-y,x-y,2/3+z
-x,-y,1/2+z
-x+y,-x,1/3+z
y,-x+y,1/6+z
x-y,-y,-z
-x,-x+y,1/3-z
y,x,2/3-z
-y,-x,1/6-z
-x+y,y,1/2-z
x,x-y,5/6-z
loop_
_atom_site_type_symbol
_atom_site_label
_atom_site_fract_x
_atom_site_fract_y
_atom_site_fract_z
Si Si1 0.585880 0.414121 0.083334
Si Si2 0.503348 0.286198 0.984122
Si Si3 0.714966 0.706512 0.619274
Si Si4 0.333078 0.141658 0.623771
Si Si5 0.611779 0.000000 0.500000
Si Si6 0.523541 0.024700 0.095937
Si Si7 0.213590 0.616740 0.488656
O O1 0.571211 0.351078 0.032907
O O2 0.426559 0.331180 0.095825
O O3 0.637389 0.283452 0.966996
O O4 0.382181 0.134091 0.987581
O O5 0.468743 0.386199 0.956682
O O6 0.737450 0.804113 0.662174
O O7 0.827912 0.751181 0.580205
O O8 0.678306 0.556901 0.637452
O O9 0.383786 0.044776 0.600980
O O10 0.467464 0.287826 0.636655
O O11 0.552463 0.038754 0.455782
O O12 0.591009 0.166141 0.124181
#
# Coordination Sequence:
#
# PCOD9583113 Si02
#       7
#     6  12  12  12   6  12  12
#     4  12  18  34  58  82 112 164 216 248 316 374
#     4  11  22  36  54  83 122 168 203 253 313 386
#     4  11  19  31  56  86 117 167 209 261 313 390
#     4  10  19  33  55  83 121 160 213 263 312 389
#     4  12  24  32  50  76 128 168 202 244 314 378
#     4  10  21  37  53  83 119 171 206 249 317 380
#     4  10  17  35  59  80 117 161 215 254 310 384
#
# _framework density 22.202124000000001
#
# number of rings (size 3 to 8) (size 9 to 14) (size 15 to 20)
#    0.000    1.333    6.667    2.500    0.000    2.667 
#    0.000    0.000    0.000    0.000    0.000    0.000 
#    0.000  129.333    0.000    0.000    0.000    0.000 
#
# Total GULP energy -401489.167379 kJ/mol
# GULP energy per Si atom -5576.238436 kJ/mol
# Density = 2.215159 g / cm^3
# Si number density = 22.202124 Si / 1000 Ang^3
#
#
#
# Elastic Constant Matrix: (Units=GPa)
#
#
# Indices 1 2 3 4 5 6 
#
# 1 -119.7543 183.4246 26.3610 0.0000 0.0000 0.0000
# 2 183.4246 -119.7543 26.3610 0.0000 0.0000 0.0000
# 3 26.3610 26.3610 136.1333 0.0000 0.0000 0.0000
# 4 0.0000 0.0000 0.0000 25.2980 0.0000 0.0000
# 5 0.0000 0.0000 0.0000 0.0000 25.2980 0.0000
# 6 0.0000 0.0000 0.0000 0.0000 0.0000 -151.5895
#
#
#
# Elastic Compliance Matrix: (Units=1/GPa)
#
#
# Indices 1 2 3 4 5 6 
#
# 1 0.007703 0.011002 -0.003622 0.000000 0.000000 0.000000
# 2 0.011002 0.007703 -0.003622 0.000000 0.000000 0.000000
# 3 -0.003622 -0.003622 0.008749 0.000000 0.000000 0.000000
# 4 0.000000 0.000000 0.000000 0.039529 0.000000 0.000000
# 5 0.000000 0.000000 0.000000 0.000000 0.039529 0.000000
# 6 0.000000 0.000000 0.000000 0.000000 0.000000 -0.006597
#
#
# Mechanical properties :
#
#
# Convention : Reuss Voigt Hill
#
# Bulk Modulus (GPa) = 31.57511 40.99087 36.28299
# Shear Modulus (GPa) = 50.17174 -42.83347 3.66913
#
# Velocity S-wave (km/s) = 4.75886 -4.39709 1.28693
# Velocity P-wave (km/s) = 6.66695 2.69750 4.31113
#
# Compressibility (1/GPa) = 0.03167051
#
# Stress axis : x y z
#
# Youngs Moduli (GPa) = 129.81280 129.81280 114.30516
#
# Poissons Ratio (x) = -1.42817 0.41402
# Poissons Ratio (y) = -1.42817 0.41402
# Poissons Ratio (z) = 0.47019 0.47019
#
# Static dielectric constant tensor:
#      x y z
#    x 1.959850 0.000000 0.000000 
#    y 0.000000 1.959850 0.000000 
#    z 0.000000 0.000000 2.035670 
# 
# From -- ./inp_files/9591.got.cif
#   From: 2010.05.17/outbox.cif.g08.bks.cpg/sg179_5_cif.got.tgz:9591.got - 2010.05.20 11:37:33.
