data_PCOD9583346
_publ_section_title
;
Structure prediction by ZEFSAII (Michael W. Deem and Ramdas Pophale) SiO2 
 PCOD9583346
Probable space group: P 65 2 2
;
_chemical_formula_sum "Si O2"
_cell_formula_units_Z 60
_cell_length_a 16.306301
_cell_length_b 16.306301
_cell_length_c 10.840800
_cell_angle_alpha 90.000000
_cell_angle_beta 90.000000
_cell_angle_gamma 120.000000
_cell_volume 2496.335044
_symmetry_space_group_name_H-M "P 65 2 2"
_symmetry_group_IT_number 179
_symmetry_cell_setting 'hexagonal'
loop_
_space_group_symop_operation_xyz
x,y,z
x-y,x,5/6+z
-y,x-y,2/3+z
-x,-y,1/2+z
-x+y,-x,1/3+z
y,-x+y,1/6+z
x-y,-y,-z
-x,-x+y,1/3-z
y,x,2/3-z
-y,-x,1/6-z
-x+y,y,1/2-z
x,x-y,5/6-z
loop_
_atom_site_type_symbol
_atom_site_label
_atom_site_fract_x
_atom_site_fract_y
_atom_site_fract_z
Si Si1 0.034335 0.860503 0.958915
Si Si2 0.209920 0.609547 0.774294
Si Si3 0.250516 0.437208 0.128394
Si Si4 0.466489 0.926958 0.907187
Si Si5 0.337137 0.315536 0.692052
O O1 0.085288 0.932513 0.843331
O O2 0.095384 0.904617 0.083334
O O3 0.029121 0.758489 0.944409
O O4 0.312775 0.625550 0.750000
O O5 0.215238 0.707288 0.742146
O O6 0.146182 0.534905 0.670094
O O7 0.182262 0.591131 0.916667
O O8 0.192068 0.384136 0.250000
O O9 0.362361 0.497724 0.168195
O O10 0.246167 0.375467 0.014324
O O11 0.418878 0.984562 0.845955
O O12 0.547708 0.000000 0.000000
O O13 0.309154 0.309154 0.833334
#
# Coordination Sequence:
#
# PCOD9583346 Si02
#       5
#    12  12  12  12  12
#     4  10  21  45  68  95 128 166 216 280 358 414
#     4  11  21  39  63  93 119 167 228 270 318 398
#     4  10  22  44  66  89 137 182 220 274 340 410
#     4  10  23  41  58  92 132 178 215 270 339 404
#     4  11  21  39  65  97 128 168 216 281 351 403
#
# _framework density 24.035236000000001
#
# number of rings (size 3 to 8) (size 9 to 14) (size 15 to 20)
#    0.000    1.600    2.000    4.800    0.000    3.200 
#   25.200    5.000    0.000    0.000    0.000    0.000 
#    0.000    0.000    0.000    0.000    0.000    0.000 
#
# Total GULP energy -334005.631027 kJ/mol
# GULP energy per Si atom -5566.760517 kJ/mol
# Density = 2.398053 g / cm^3
# Si number density = 24.035236 Si / 1000 Ang^3
#
#
#
# Elastic Constant Matrix: (Units=GPa)
#
#
# Indices 1 2 3 4 5 6 
#
# 1 78.0140 24.8729 26.7359 0.0000 0.0000 0.0000
# 2 24.8729 78.0140 26.7359 0.0000 0.0000 0.0000
# 3 26.7359 26.7359 101.3652 0.0000 0.0000 0.0000
# 4 0.0000 0.0000 0.0000 26.1192 0.0000 0.0000
# 5 0.0000 0.0000 0.0000 0.0000 26.1192 0.0000
# 6 0.0000 0.0000 0.0000 0.0000 0.0000 26.5706
#
#
#
# Elastic Compliance Matrix: (Units=1/GPa)
#
#
# Indices 1 2 3 4 5 6 
#
# 1 0.015041 -0.003777 -0.002971 0.000000 0.000000 0.000000
# 2 -0.003777 0.015041 -0.002971 0.000000 0.000000 0.000000
# 3 -0.002971 -0.002971 0.011432 0.000000 0.000000 0.000000
# 4 0.000000 0.000000 0.000000 0.038286 0.000000 0.000000
# 5 0.000000 0.000000 0.000000 0.000000 0.038286 0.000000
# 6 0.000000 0.000000 0.000000 0.000000 0.000000 0.037636
#
#
# Mechanical properties :
#
#
# Convention : Reuss Voigt Hill
#
# Bulk Modulus (GPa) = 45.29808 46.00919 45.65363
# Shear Modulus (GPa) = 27.39463 27.69838 27.54650
#
# Velocity S-wave (km/s) = 3.37971 3.39840 3.38907
# Velocity P-wave (km/s) = 5.84101 5.88071 5.86089
#
# Compressibility (1/GPa) = 0.02207599
#
# Stress axis : x y z
#
# Youngs Moduli (GPa) = 66.48675 66.48675 87.47016
#
# Poissons Ratio (x) = 0.25113 0.25986
# Poissons Ratio (y) = 0.25113 0.25986
# Poissons Ratio (z) = 0.19752 0.19752
#
# Static dielectric constant tensor:
#      x y z
#    x 1.990060 0.000000 0.000000 
#    y 0.000000 1.990060 0.000000 
#    z 0.000000 0.000000 2.073670 
# 
# From -- ./inp_files/4659.got.cif
#   From: 2010.05.17/outbox.cif.g08.bks.cpg/sg179_3_cif.got.tgz:4659.got - 2010.05.20 11:37:33.
