data_PCOD9583042
_publ_section_title
;
Structure prediction by ZEFSAII (Michael W. Deem and Ramdas Pophale) SiO2 
 PCOD9583042
Probable space group: P 61 2 2
;
_chemical_formula_sum "Si O2"
_cell_formula_units_Z 42
_cell_length_a 12.279693
_cell_length_b 12.279693
_cell_length_c 16.676639
_cell_angle_alpha 90.000000
_cell_angle_beta 90.000000
_cell_angle_gamma 120.000000
_cell_volume 2177.780867
_symmetry_space_group_name_H-M "P 61 2 2"
_symmetry_group_IT_number 178
_symmetry_cell_setting 'hexagonal'
loop_
_space_group_symop_operation_xyz
x,y,z
x-y,x,1/6+z
-y,x-y,1/3+z
-x,-y,1/2+z
-x+y,-x,2/3+z
y,-x+y,5/6+z
x-y,-y,-z
-x,-x+y,2/3-z
y,x,1/3-z
-y,-x,5/6-z
-x+y,y,1/2-z
x,x-y,1/6-z
loop_
_atom_site_type_symbol
_atom_site_label
_atom_site_fract_x
_atom_site_fract_y
_atom_site_fract_z
Si Si1 0.652759 0.536832 0.611255
Si Si2 0.687614 0.615584 0.287231
Si Si3 0.592774 0.804631 0.282101
Si Si4 0.392742 0.696371 0.583334
O O1 0.628165 0.628165 0.666667
O O2 0.516326 0.430432 0.576042
O O3 0.744995 0.603420 0.537359
O O4 0.704573 0.470901 0.671286
O O5 0.811626 0.623251 0.250000
O O6 0.670768 0.733628 0.266408
O O7 0.707038 0.615235 0.382545
O O8 0.448903 0.695373 0.270829
#
# Coordination Sequence:
#
# PCOD9583042 Si02
#       4
#    12  12  12   6
#     4  12  24  40  63  98 139 170 213 278 344 410
#     4  12  22  44  66  95 130 182 229 275 332 415
#     4  12  25  39  67  96 133 172 225 278 338 405
#     4  12  22  38  64  98 134 166 212 272 330 406
#
# _framework density 19.285688
#
# number of rings (size 3 to 8) (size 9 to 14) (size 15 to 20)
#    0.000    0.000    8.571    1.714    4.000    2.286 
#    0.000    0.000    0.000    6.857    0.000    0.000 
#    0.000    0.000    0.000    0.000    0.000    0.000 
#
# Total GULP energy -234940.560670 kJ/mol
# GULP energy per Si atom -5593.822873 kJ/mol
# Density = 1.924179 g / cm^3
# Si number density = 19.285688 Si / 1000 Ang^3
#
#
#
# Elastic Constant Matrix: (Units=GPa)
#
#
# Indices 1 2 3 4 5 6 
#
# 1 33.4136 11.4147 3.1669 0.0000 0.0000 0.0000
# 2 11.4147 33.4136 3.1669 0.0000 0.0000 0.0000
# 3 3.1669 3.1669 108.9894 0.0000 0.0000 0.0000
# 4 0.0000 0.0000 0.0000 14.6964 0.0000 0.0000
# 5 0.0000 0.0000 0.0000 0.0000 14.6964 0.0000
# 6 0.0000 0.0000 0.0000 0.0000 0.0000 10.9995
#
#
#
# Elastic Compliance Matrix: (Units=1/GPa)
#
#
# Indices 1 2 3 4 5 6 
#
# 1 0.033928 -0.011529 -0.000651 0.000000 0.000000 0.000000
# 2 -0.011529 0.033928 -0.000651 0.000000 0.000000 0.000000
# 3 -0.000651 -0.000651 0.009213 0.000000 0.000000 0.000000
# 4 0.000000 0.000000 0.000000 0.068044 0.000000 0.000000
# 5 0.000000 0.000000 0.000000 0.000000 0.068044 0.000000
# 6 0.000000 0.000000 0.000000 0.000000 0.000000 0.090914
#
#
# Mechanical properties :
#
#
# Convention : Reuss Voigt Hill
#
# Bulk Modulus (GPa) = 19.45216 23.47930 21.46573
# Shear Modulus (GPa) = 14.41472 18.61631 16.51552
#
# Velocity S-wave (km/s) = 2.73688 3.11029 2.92954
# Velocity P-wave (km/s) = 4.48281 5.00993 4.75368
#
# Compressibility (1/GPa) = 0.05140816
#
# Stress axis : x y z
#
# Youngs Moduli (GPa) = 29.47414 29.47414 108.54196
#
# Poissons Ratio (x) = 0.33980 0.07065
# Poissons Ratio (y) = 0.33980 0.07065
# Poissons Ratio (z) = 0.01918 0.01918
#
# Static dielectric constant tensor:
#      x y z
#    x 1.673400 0.000000 0.000000 
#    y 0.000000 1.673400 0.000000 
#    z 0.000000 0.000000 1.632340 
# 
# From -- ./inp_files/6360.got.cif
#   From: 2010.05.17/outbox.cif.g08.bks.cpg/sg178_4_cif.got.tgz:6360.got - 2010.05.20 11:30:59.
