data_PCOD9583060
_publ_section_title
;
Structure prediction by ZEFSAII (Michael W. Deem and Ramdas Pophale) SiO2 
 PCOD9583060
Probable space group: P 61 2 2
;
_chemical_formula_sum "Si O2"
_cell_formula_units_Z 24
_cell_length_a 15.683126
_cell_length_b 15.683126
_cell_length_c 4.819331
_cell_angle_alpha 90.000000
_cell_angle_beta 90.000000
_cell_angle_gamma 120.000000
_cell_volume 1026.556011
_symmetry_space_group_name_H-M "P 61 2 2"
_symmetry_group_IT_number 178
_symmetry_cell_setting 'hexagonal'
loop_
_space_group_symop_operation_xyz
x,y,z
x-y,x,1/6+z
-y,x-y,1/3+z
-x,-y,1/2+z
-x+y,-x,2/3+z
y,-x+y,5/6+z
x-y,-y,-z
-x,-x+y,2/3-z
y,x,1/3-z
-y,-x,5/6-z
-x+y,y,1/2-z
x,x-y,1/6-z
loop_
_atom_site_type_symbol
_atom_site_label
_atom_site_fract_x
_atom_site_fract_y
_atom_site_fract_z
Si Si1 0.642144 0.478294 0.176674
Si Si2 0.064646 0.305525 0.077877
O O1 0.560002 0.439999 0.416667
O O2 0.726440 0.452879 0.250000
O O3 0.583821 0.416180 0.916667
O O4 0.703073 0.592081 0.088212
O O5 0.145397 0.290793 0.250000
O O6 0.000000 0.307091 0.333334
O O7 0.000000 0.228168 0.833334
#
# Coordination Sequence:
#
# PCOD9583060 Si02
#       2
#    12  12
#     4  12  24  41  66  99 142 191 236 276 324 390
#     4  12  26  47  72 101 137 181 234 296 369 438
#
# _framework density 23.379144
#
# number of rings (size 3 to 8) (size 9 to 14) (size 15 to 20)
#    0.000    0.000    0.000   13.500    0.000    4.000 
#    0.000    5.000    0.000    3.000    0.000    3.500 
#    0.000    0.000    0.000    0.000    0.000    0.000 
#
# Total GULP energy -134222.711840 kJ/mol
# GULP energy per Si atom -5592.612993 kJ/mol
# Density = 2.332593 g / cm^3
# Si number density = 23.379144 Si / 1000 Ang^3
#
#
#
# Elastic Constant Matrix: (Units=GPa)
#
#
# Indices 1 2 3 4 5 6 
#
# 1 88.6116 56.6860 69.1111 0.0000 0.0000 0.0000
# 2 56.6860 88.6116 69.1111 0.0000 0.0000 0.0000
# 3 69.1111 69.1111 231.5106 0.0000 0.0000 0.0000
# 4 0.0000 0.0000 0.0000 66.8083 0.0000 0.0000
# 5 0.0000 0.0000 0.0000 0.0000 66.8083 0.0000
# 6 0.0000 0.0000 0.0000 0.0000 0.0000 15.9628
#
#
#
# Elastic Compliance Matrix: (Units=1/GPa)
#
#
# Indices 1 2 3 4 5 6 
#
# 1 0.020468 -0.010855 -0.002869 0.000000 0.000000 0.000000
# 2 -0.010855 0.020468 -0.002869 0.000000 0.000000 0.000000
# 3 -0.002869 -0.002869 0.006033 0.000000 0.000000 0.000000
# 4 0.000000 0.000000 0.000000 0.014968 0.000000 0.000000
# 5 0.000000 0.000000 0.000000 0.000000 0.014968 0.000000
# 6 0.000000 0.000000 0.000000 0.000000 0.000000 0.062646
#
#
# Mechanical properties :
#
#
# Convention : Reuss Voigt Hill
#
# Bulk Modulus (GPa) = 72.57338 88.72778 80.65058
# Shear Modulus (GPa) = 28.19580 44.17090 36.18335
#
# Velocity S-wave (km/s) = 3.47655 4.35136 3.93832
# Velocity P-wave (km/s) = 6.87201 7.95486 7.43318
#
# Compressibility (1/GPa) = 0.01377916
#
# Stress axis : x y z
#
# Youngs Moduli (GPa) = 48.85794 48.85794 165.76502
#
# Poissons Ratio (x) = 0.53037 0.47565
# Poissons Ratio (y) = 0.53037 0.47565
# Poissons Ratio (z) = 0.14019 0.14019
#
# Static dielectric constant tensor:
#      x y z
#    x 1.927200 0.000000 0.000000 
#    y 0.000000 1.927200 0.000000 
#    z 0.000000 0.000000 1.829700 
# 
# From -- ./inp_files/123.got.cif
#   From: 2010.05.17/outbox.cif.g08.bks.cpg/sg178_1_cif.got.tgz:123.got - 2010.05.20 11:30:59.
