data_PCOD9583178
_publ_section_title
;
Structure prediction by ZEFSAII (Michael W. Deem and Ramdas Pophale) SiO2 
 PCOD9583178
Probable space group: P 65 2 2
;
_chemical_formula_sum "Si O2"
_cell_formula_units_Z 66
_cell_length_a 19.324118
_cell_length_b 19.324118
_cell_length_c 13.947219
_cell_angle_alpha 90.000000
_cell_angle_beta 90.000000
_cell_angle_gamma 120.000000
_cell_volume 4510.426535
_symmetry_space_group_name_H-M "P 65 2 2"
_symmetry_group_IT_number 179
_symmetry_cell_setting 'hexagonal'
loop_
_space_group_symop_operation_xyz
x,y,z
x-y,x,5/6+z
-y,x-y,2/3+z
-x,-y,1/2+z
-x+y,-x,1/3+z
y,-x+y,1/6+z
x-y,-y,-z
-x,-x+y,1/3-z
y,x,2/3-z
-y,-x,1/6-z
-x+y,y,1/2-z
x,x-y,5/6-z
loop_
_atom_site_type_symbol
_atom_site_label
_atom_site_fract_x
_atom_site_fract_y
_atom_site_fract_z
Si Si1 0.319169 0.761364 0.882619
Si Si2 0.477617 0.238809 0.916667
Si Si3 0.170331 0.495763 0.251641
Si Si4 0.445010 0.091911 0.818262
Si Si5 0.080729 0.458489 0.434195
Si Si6 0.471825 0.841091 0.130770
O O1 0.410550 0.780429 0.880537
O O2 0.327443 0.839613 0.830159
O O3 0.253258 0.682840 0.826007
O O4 0.288065 0.756446 0.991475
O O5 0.424983 0.148136 0.881403
O O6 0.232677 0.465353 0.250000
O O7 0.101203 0.444607 0.327001
O O8 0.144310 0.500113 0.144539
O O9 0.456631 0.117800 0.706994
O O10 0.536357 0.121068 0.851771
O O11 0.389137 0.997531 0.820012
O O12 0.065768 0.532884 0.416667
#
# Coordination Sequence:
#
# PCOD9583178 Si02
#       6
#    12   6  12  12  12  12
#     4  10  21  30  46  64  91 114 155 192 248 303
#     4  10  20  32  46  64  78 118 144 190 248 294
#     4  11  21  30  47  66  88 122 153 198 256 303
#     4  10  20  34  48  64  89 115 156 199 251 301
#     4  10  20  35  44  67  89 116 153 201 249 301
#     4  10  19  33  44  63  88 117 149 194 246 299
#
# _framework density 14.632762
#
# number of rings (size 3 to 8) (size 9 to 14) (size 15 to 20)
#    0.000    1.818    5.455    0.000    5.091    1.455 
#    0.000    0.000    0.000    0.000    0.000    0.000 
#    0.000    0.000    0.000    0.000    0.000    0.000 
#
# Total GULP energy -367926.310090 kJ/mol
# GULP energy per Si atom -5574.641062 kJ/mol
# Density = 1.459946 g / cm^3
# Si number density = 14.632762 Si / 1000 Ang^3
#
#
#
# Elastic Constant Matrix: (Units=GPa)
#
#
# Indices 1 2 3 4 5 6 
#
# 1 49.1638 28.0911 27.5933 0.0000 0.0000 0.0000
# 2 28.0911 49.1638 27.5933 0.0000 0.0000 0.0000
# 3 27.5933 27.5933 96.0492 0.0000 0.0000 0.0000
# 4 0.0000 0.0000 0.0000 17.2684 0.0000 0.0000
# 5 0.0000 0.0000 0.0000 0.0000 17.2684 0.0000
# 6 0.0000 0.0000 0.0000 0.0000 0.0000 10.5364
#
#
#
# Elastic Compliance Matrix: (Units=1/GPa)
#
#
# Indices 1 2 3 4 5 6 
#
# 1 0.031871 -0.015584 -0.004679 0.000000 0.000000 0.000000
# 2 -0.015584 0.031871 -0.004679 0.000000 0.000000 0.000000
# 3 -0.004679 -0.004679 0.013100 0.000000 0.000000 0.000000
# 4 0.000000 0.000000 0.000000 0.057909 0.000000 0.000000
# 5 0.000000 0.000000 0.000000 0.000000 0.057909 0.000000
# 6 0.000000 0.000000 0.000000 0.000000 0.000000 0.094909
#
#
# Mechanical properties :
#
#
# Convention : Reuss Voigt Hill
#
# Bulk Modulus (GPa) = 37.09576 40.10357 38.59966
# Shear Modulus (GPa) = 14.43260 16.42124 15.42692
#
# Velocity S-wave (km/s) = 3.14398 3.35360 3.25048
# Velocity P-wave (km/s) = 6.21174 6.51626 6.36582
#
# Compressibility (1/GPa) = 0.02695726
#
# Stress axis : x y z
#
# Youngs Moduli (GPa) = 31.37690 31.37690 76.33806
#
# Poissons Ratio (x) = 0.48898 0.35717
# Poissons Ratio (y) = 0.48898 0.35717
# Poissons Ratio (z) = 0.14681 0.14681
#
# Static dielectric constant tensor:
#      x y z
#    x 1.499020 0.000000 0.000000 
#    y 0.000000 1.499020 0.000000 
#    z 0.000000 0.000000 1.557210 
# 
# From -- ./inp_files/6002.got.cif
#   From: 2010.05.17/outbox.cif.g08.bks.cpg/sg179_4_cif.got.tgz:6002.got - 2010.05.20 11:37:33.
