data_PCOD9583928
_publ_section_title
;
Structure prediction by ZEFSAII (Michael W. Deem and Ramdas Pophale) SiO2 
 PCOD9583928
Probable space group: P 62 2 2
;
_chemical_formula_sum "Si O2"
_cell_formula_units_Z 36
_cell_length_a 9.447173
_cell_length_b 9.447173
_cell_length_c 22.309932
_cell_angle_alpha 90.000000
_cell_angle_beta 90.000000
_cell_angle_gamma 120.000000
_cell_volume 1724.378562
_symmetry_space_group_name_H-M "P 62 2 2"
_symmetry_group_IT_number 180
_symmetry_cell_setting 'hexagonal'
loop_
_space_group_symop_operation_xyz
x,y,z
x-y,x,1/3+z
-y,x-y,2/3+z
-x,-y,z
-x+y,-x,1/3+z
y,-x+y,2/3+z
x-y,-y,-z
-x,-x+y,1/3-z
y,x,2/3-z
-y,-x,2/3-z
-x+y,y,-z
x,x-y,1/3-z
loop_
_atom_site_type_symbol
_atom_site_label
_atom_site_fract_x
_atom_site_fract_y
_atom_site_fract_z
Si Si1 0.674412 0.510747 0.062812
Si Si2 0.842969 0.490998 0.600363
Si Si3 0.955406 0.821168 0.430969
O O1 0.500000 0.500000 0.052478
O O2 0.625157 0.337059 0.093050
O O3 0.788625 0.681876 0.094745
O O4 0.759545 0.519090 0.000000
O O5 0.836107 0.418054 0.666667
O O6 0.870530 0.673223 0.602971
O O7 0.000000 0.500000 0.568585
O O8 0.904096 0.808192 0.500000
O O9 0.000000 0.000000 0.408801
#
# Coordination Sequence:
#
# PCOD9583928 Si02
#       3
#    12  12  12
#     4   9  19  35  57  82 111 148 194 243 299 356
#     4   9  19  36  57  85 114 146 195 246 298 361
#     4  10  22  38  56  82 119 160 200 247 305 366
#
# _framework density 20.877085000000001
#
# number of rings (size 3 to 8) (size 9 to 14) (size 15 to 20)
#    0.000    2.667    0.000    0.000    0.000   18.000 
#    0.000    0.000    0.000    4.000    0.000    0.000 
#    0.000    0.000    0.000    0.000    0.000    0.000 
#
# Total GULP energy -200691.063499 kJ/mol
# GULP energy per Si atom -5574.751764 kJ/mol
# Density = 2.082957 g / cm^3
# Si number density = 20.877085 Si / 1000 Ang^3
#
#
#
# Elastic Constant Matrix: (Units=GPa)
#
#
# Indices 1 2 3 4 5 6 
#
# 1 153.3705 88.9523 26.6998 0.0000 0.0000 0.0000
# 2 88.9523 153.3705 26.6998 0.0000 0.0000 0.0000
# 3 26.6998 26.6998 57.1904 0.0000 0.0000 0.0000
# 4 0.0000 0.0000 0.0000 14.0131 0.0000 0.0000
# 5 0.0000 0.0000 0.0000 0.0000 14.0131 0.0000
# 6 0.0000 0.0000 0.0000 0.0000 0.0000 32.2091
#
#
#
# Elastic Compliance Matrix: (Units=1/GPa)
#
#
# Indices 1 2 3 4 5 6 
#
# 1 0.010062 -0.005462 -0.002148 0.000000 0.000000 0.000000
# 2 -0.005462 0.010062 -0.002148 0.000000 0.000000 0.000000
# 3 -0.002148 -0.002148 0.019491 0.000000 0.000000 0.000000
# 4 0.000000 0.000000 0.000000 0.071362 0.000000 0.000000
# 5 0.000000 0.000000 0.000000 0.000000 0.071362 0.000000
# 6 0.000000 0.000000 0.000000 0.000000 0.000000 0.031047
#
#
# Mechanical properties :
#
#
# Convention : Reuss Voigt Hill
#
# Bulk Modulus (GPa) = 49.75013 72.07058 60.91036
# Shear Modulus (GPa) = 20.86826 26.81904 23.84365
#
# Velocity S-wave (km/s) = 3.16504 3.58804 3.38316
# Velocity P-wave (km/s) = 6.10233 7.19456 6.67084
#
# Compressibility (1/GPa) = 0.02010045
#
# Stress axis : x y z
#
# Youngs Moduli (GPa) = 99.38611 99.38611 51.30666
#
# Poissons Ratio (x) = 0.54283 0.11018
# Poissons Ratio (y) = 0.54283 0.11018
# Poissons Ratio (z) = 0.21344 0.21344
#
# Static dielectric constant tensor:
#      x y z
#    x 1.787010 0.000000 0.000000 
#    y 0.000000 1.787010 0.000000 
#    z 0.000000 0.000000 1.727690 
# 
# From -- ./inp_files/10735.got.cif
#   From: 2010.05.17/outbox.cif.g08.bks.cpg/sg180_6_cif.got.tgz:10735.got - 2010.05.20 11:43:55.
