data_PCOD9583099
_publ_section_title
;
Structure prediction by ZEFSAII (Michael W. Deem and Ramdas Pophale) SiO2 
 PCOD9583099
Probable space group: P 65 2 2
;
_chemical_formula_sum "Si O2"
_cell_formula_units_Z 48
_cell_length_a 26.108710
_cell_length_b 26.108710
_cell_length_c 5.129980
_cell_angle_alpha 90.000000
_cell_angle_beta 90.000000
_cell_angle_gamma 120.000000
_cell_volume 3028.427160
_symmetry_space_group_name_H-M "P 65 2 2"
_symmetry_group_IT_number 179
_symmetry_cell_setting 'hexagonal'
loop_
_space_group_symop_operation_xyz
x,y,z
x-y,x,5/6+z
-y,x-y,2/3+z
-x,-y,1/2+z
-x+y,-x,1/3+z
y,-x+y,1/6+z
x-y,-y,-z
-x,-x+y,1/3-z
y,x,2/3-z
-y,-x,1/6-z
-x+y,y,1/2-z
x,x-y,5/6-z
loop_
_atom_site_type_symbol
_atom_site_label
_atom_site_fract_x
_atom_site_fract_y
_atom_site_fract_z
Si Si1 0.692041 0.000000 0.000000
Si Si2 0.870272 0.554612 0.150221
Si Si3 0.381219 0.000000 0.000000
Si Si4 0.650143 0.419394 0.325314
Si Si5 0.243332 0.871056 0.487352
O O1 0.686456 0.936015 0.013678
O O2 0.654861 0.998685 0.749577
O O3 0.935310 0.560738 0.181607
O O4 0.817438 0.488052 0.146003
O O5 0.861995 0.593108 0.379803
O O6 0.870950 0.583919 0.875108
O O7 0.617928 0.382073 0.583334
O O8 0.706651 0.413302 0.250000
O O9 0.605952 0.394049 0.083334
O O10 0.179858 0.820143 0.583334
#
# Coordination Sequence:
#
# PCOD9583099 Si02
#       5
#     6  12   6  12  12
#     4   8  16  26  42  67  94 120 146 177 220 260
#     4  10  20  34  52  72  91 115 146 181 222 272
#     4   8  16  32  50  69  94 114 136 177 222 266
#     4  12  24  38  52  68  89 116 148 185 226 266
#     4  10  17  29  48  70  93 119 150 184 219 264
#
# _framework density 15.849812999999999
#
# number of rings (size 3 to 8) (size 9 to 14) (size 15 to 20)
#    0.000    2.000    0.000    5.250    0.000    0.000 
#    0.000    1.250    0.000    0.000    0.000    0.000 
#    0.000    0.000    0.000    0.000    0.000   15.000 
#
# Total GULP energy -267323.802031 kJ/mol
# GULP energy per Si atom -5569.245876 kJ/mol
# Density = 1.581374 g / cm^3
# Si number density = 15.849813 Si / 1000 Ang^3
#
#
#
# Elastic Constant Matrix: (Units=GPa)
#
#
# Indices 1 2 3 4 5 6 
#
# 1 59.6565 59.0183 0.8090 0.0000 0.0000 0.0000
# 2 59.0183 59.6565 0.8090 0.0000 0.0000 0.0000
# 3 0.8090 0.8090 91.1750 0.0000 0.0000 0.0000
# 4 0.0000 0.0000 0.0000 14.6756 0.0000 0.0000
# 5 0.0000 0.0000 0.0000 0.0000 14.6756 0.0000
# 6 0.0000 0.0000 0.0000 0.0000 0.0000 0.3191
#
#
#
# Elastic Compliance Matrix: (Units=1/GPa)
#
#
# Indices 1 2 3 4 5 6 
#
# 1 0.787652 -0.779225 -0.000075 0.000000 0.000000 0.000001
# 2 -0.779225 0.787652 -0.000075 0.000000 0.000000 -0.000001
# 3 -0.000075 -0.000075 0.010969 0.000000 0.000000 0.000000
# 4 0.000000 0.000000 0.000000 0.068140 0.000000 0.000000
# 5 0.000000 0.000000 0.000000 0.000000 0.068140 0.000000
# 6 0.000001 -0.000001 0.000000 0.000000 0.000000 3.133752
#
#
# Mechanical properties :
#
#
# Convention : Reuss Voigt Hill
#
# Bulk Modulus (GPa) = 36.33066 36.86228 36.59647
# Shear Modulus (GPa) = 0.77830 15.92417 8.35124
#
# Velocity S-wave (km/s) = 0.70151 3.17313 2.29792
# Velocity P-wave (km/s) = 4.86084 6.06075 5.49365
#
# Compressibility (1/GPa) = 0.02752496
#
# Stress axis : x y z
#
# Youngs Moduli (GPa) = 1.26960 1.26960 91.16399
#
# Poissons Ratio (x) = 0.98930 0.00682
# Poissons Ratio (y) = 0.98930 0.00682
# Poissons Ratio (z) = 0.00009 0.00009
#
# Static dielectric constant tensor:
#      x y z
#    x 1.578800 0.000000 0.000000 
#    y 0.000000 1.578800 0.000000 
#    z 0.000000 0.000000 1.533990 
# 
# From -- ./inp_files/1093.got.cif
#   From: 2010.05.17/outbox.cif.g08.bks.cpg/sg179_1_cif.got.tgz:1093.got - 2010.05.20 11:37:33.
