data_PCOD9583289
_publ_section_title
;
Structure prediction by ZEFSAII (Michael W. Deem and Ramdas Pophale) SiO2 
 PCOD9583289
Probable space group: P 65 2 2
;
_chemical_formula_sum "Si O2"
_cell_formula_units_Z 48
_cell_length_a 14.272918
_cell_length_b 14.272918
_cell_length_c 11.519907
_cell_angle_alpha 90.000000
_cell_angle_beta 90.000000
_cell_angle_gamma 120.000000
_cell_volume 2032.381094
_symmetry_space_group_name_H-M "P 65 2 2"
_symmetry_group_IT_number 179
_symmetry_cell_setting 'hexagonal'
loop_
_space_group_symop_operation_xyz
x,y,z
x-y,x,5/6+z
-y,x-y,2/3+z
-x,-y,1/2+z
-x+y,-x,1/3+z
y,-x+y,1/6+z
x-y,-y,-z
-x,-x+y,1/3-z
y,x,2/3-z
-y,-x,1/6-z
-x+y,y,1/2-z
x,x-y,5/6-z
loop_
_atom_site_type_symbol
_atom_site_label
_atom_site_fract_x
_atom_site_fract_y
_atom_site_fract_z
Si Si1 0.255913 0.511825 0.750000
Si Si2 0.418449 0.364022 0.049898
Si Si3 0.590799 0.771431 0.106507
Si Si4 0.595645 0.297823 0.416667
Si Si5 0.936346 0.105518 0.921302
O O1 0.130689 0.440018 0.774363
O O2 0.321290 0.586831 0.859691
O O3 0.528003 0.471998 0.083334
O O4 0.402609 0.273754 0.150027
O O5 0.332043 0.400755 0.016519
O O6 0.707079 0.825789 0.044066
O O7 0.486681 0.721687 0.022408
O O8 0.902670 0.061726 0.790003
O O9 0.878540 0.000000 0.000000
#
# Coordination Sequence:
#
# PCOD9583289 Si02
#       5
#     6  12  12   6  12
#     4  12  26  52  67 108 157 190 252 310 384 452
#     4  12  28  49  75 113 151 199 250 318 376 461
#     4  12  26  46  78 111 148 198 259 302 390 447
#     4  12  24  48  77 106 147 198 246 316 374 460
#     4  10  20  40  69 107 148 191 250 315 366 448
#
# _framework density 23.617618
#
# number of rings (size 3 to 8) (size 9 to 14) (size 15 to 20)
#    0.000    0.500    6.250    1.500    5.250    1.000 
#    0.000    5.000    0.000    0.000    0.000    0.000 
#    0.000    0.000    0.000    0.000    0.000    0.000 
#
# Total GULP energy -267265.121531 kJ/mol
# GULP energy per Si atom -5568.023365 kJ/mol
# Density = 2.356386 g / cm^3
# Si number density = 23.617618 Si / 1000 Ang^3
#
#
#
# Elastic Constant Matrix: (Units=GPa)
#
#
# Indices 1 2 3 4 5 6 
#
# 1 109.7587 28.8378 20.5040 0.0000 0.0000 0.0000
# 2 28.8378 109.7587 20.5040 0.0000 0.0000 0.0000
# 3 20.5040 20.5040 73.3854 0.0000 0.0000 0.0000
# 4 0.0000 0.0000 0.0000 27.3847 0.0000 0.0000
# 5 0.0000 0.0000 0.0000 0.0000 27.3847 0.0000
# 6 0.0000 0.0000 0.0000 0.0000 0.0000 40.4605
#
#
#
# Elastic Compliance Matrix: (Units=1/GPa)
#
#
# Indices 1 2 3 4 5 6 
#
# 1 0.010112 -0.002246 -0.002198 0.000000 0.000000 0.000000
# 2 -0.002246 0.010112 -0.002198 0.000000 0.000000 0.000000
# 3 -0.002198 -0.002198 0.014855 0.000000 0.000000 0.000000
# 4 0.000000 0.000000 0.000000 0.036517 0.000000 0.000000
# 5 0.000000 0.000000 0.000000 0.000000 0.036517 0.000000
# 6 0.000000 0.000000 0.000000 0.000000 0.000000 0.024715
#
#
# Mechanical properties :
#
#
# Convention : Reuss Voigt Hill
#
# Bulk Modulus (GPa) = 45.88181 48.06602 46.97392
# Shear Modulus (GPa) = 32.59991 33.91645 33.25818
#
# Velocity S-wave (km/s) = 3.71930 3.79366 3.75666
# Velocity P-wave (km/s) = 6.15738 6.29167 6.22489
#
# Compressibility (1/GPa) = 0.02179513
#
# Stress axis : x y z
#
# Youngs Moduli (GPa) = 98.89654 98.89654 67.31865
#
# Poissons Ratio (x) = 0.22214 0.14794
# Poissons Ratio (y) = 0.22214 0.14794
# Poissons Ratio (z) = 0.21734 0.21734
#
# Static dielectric constant tensor:
#      x y z
#    x 1.865860 0.000000 0.000000 
#    y 0.000000 1.865860 0.000000 
#    z 0.000000 0.000000 2.083610 
# 
# From -- ./inp_files/4342.got.cif
#   From: 2010.05.17/outbox.cif.g08.bks.cpg/sg179_3_cif.got.tgz:4342.got - 2010.05.20 11:37:33.
