data_PCOD9583395
_publ_section_title
;
Structure prediction by ZEFSAII (Michael W. Deem and Ramdas Pophale) SiO2 
 PCOD9583395
Probable space group: P 65 2 2
;
_chemical_formula_sum "Si O2"
_cell_formula_units_Z 36
_cell_length_a 10.463609
_cell_length_b 10.463609
_cell_length_c 14.811418
_cell_angle_alpha 90.000000
_cell_angle_beta 90.000000
_cell_angle_gamma 120.000000
_cell_volume 1404.398237
_symmetry_space_group_name_H-M "P 65 2 2"
_symmetry_group_IT_number 179
_symmetry_cell_setting 'hexagonal'
loop_
_space_group_symop_operation_xyz
x,y,z
x-y,x,5/6+z
-y,x-y,2/3+z
-x,-y,1/2+z
-x+y,-x,1/3+z
y,-x+y,1/6+z
x-y,-y,-z
-x,-x+y,1/3-z
y,x,2/3-z
-y,-x,1/6-z
-x+y,y,1/2-z
x,x-y,5/6-z
loop_
_atom_site_type_symbol
_atom_site_label
_atom_site_fract_x
_atom_site_fract_y
_atom_site_fract_z
Si Si1 0.152768 0.948920 0.362958
Si Si2 0.449732 0.479872 0.479457
Si Si3 0.251265 0.502530 0.750000
Si Si4 0.702792 0.405583 0.750000
O O1 0.271043 0.892039 0.370138
O O2 0.001995 0.843526 0.423134
O O3 0.204239 0.102120 0.416667
O O4 0.488893 0.511108 0.583334
O O5 0.554888 0.635015 0.427114
O O6 0.499370 0.367993 0.445756
O O7 0.303244 0.606912 0.663850
#
# Coordination Sequence:
#
# PCOD9583395 Si02
#       4
#    12  12   6   6
#     4  10  22  42  75 110 146 207 274 336 398 491
#     4  12  25  45  75 113 162 208 275 332 429 499
#     4  12  26  43  72 112 153 208 270 334 414 506
#     4  12  24  45  74 108 153 214 262 336 410 508
#
# _framework density 25.633756000000002
#
# number of rings (size 3 to 8) (size 9 to 14) (size 15 to 20)
#    0.000    0.667    5.000    3.000    4.667    0.000 
#    0.000    0.000   18.333    0.000    0.000    0.000 
#    0.000    0.000    0.000    0.000    0.000    0.000 
#
# Total GULP energy -200578.286264 kJ/mol
# GULP energy per Si atom -5571.619063 kJ/mol
# Density = 2.557541 g / cm^3
# Si number density = 25.633756 Si / 1000 Ang^3
#
#
#
# Elastic Constant Matrix: (Units=GPa)
#
#
# Indices 1 2 3 4 5 6 
#
# 1 78.6535 3.4913 13.8807 0.0000 0.0000 0.0000
# 2 3.4913 78.6535 13.8807 0.0000 0.0000 0.0000
# 3 13.8807 13.8807 141.6178 0.0000 0.0000 0.0000
# 4 0.0000 0.0000 0.0000 20.9619 0.0000 0.0000
# 5 0.0000 0.0000 0.0000 0.0000 20.9619 0.0000
# 6 0.0000 0.0000 0.0000 0.0000 0.0000 37.5811
#
#
#
# Elastic Compliance Matrix: (Units=1/GPa)
#
#
# Indices 1 2 3 4 5 6 
#
# 1 0.012948 -0.000357 -0.001234 0.000000 0.000000 0.000000
# 2 -0.000357 0.012948 -0.001234 0.000000 0.000000 0.000000
# 3 -0.001234 -0.001234 0.007303 0.000000 0.000000 0.000000
# 4 0.000000 0.000000 0.000000 0.047706 0.000000 0.000000
# 5 0.000000 0.000000 0.000000 0.000000 0.047706 0.000000
# 6 0.000000 0.000000 0.000000 0.000000 0.000000 0.026609
#
#
# Mechanical properties :
#
#
# Convention : Reuss Voigt Hill
#
# Bulk Modulus (GPa) = 36.29999 40.15893 38.22946
# Shear Modulus (GPa) = 29.40279 33.74577 31.57428
#
# Velocity S-wave (km/s) = 3.39046 3.63224 3.51343
# Velocity P-wave (km/s) = 5.43312 5.76986 5.60402
#
# Compressibility (1/GPa) = 0.02754821
#
# Stress axis : x y z
#
# Youngs Moduli (GPa) = 77.23428 77.23428 136.92670
#
# Poissons Ratio (x) = 0.02757 0.16898
# Poissons Ratio (y) = 0.02757 0.16898
# Poissons Ratio (z) = 0.09531 0.09531
#
# Static dielectric constant tensor:
#      x y z
#    x 3.417030 0.000000 0.000000 
#    y 0.000000 3.417030 0.000000 
#    z 0.000000 0.000000 2.250950 
# 
# From -- ./inp_files/5305.got.cif
#   From: 2010.05.17/outbox.cif.g08.bks.cpg/sg179_3_cif.got.tgz:5305.got - 2010.05.20 11:37:33.
