data_PCOD9583721
_publ_section_title
;
Structure prediction by ZEFSAII (Michael W. Deem and Ramdas Pophale) SiO2 
 PCOD9583721
Probable space group: P 62 2 2
;
_chemical_formula_sum "Si O2"
_cell_formula_units_Z 96
_cell_length_a 25.058908
_cell_length_b 25.058908
_cell_length_c 11.455546
_cell_angle_alpha 90.000000
_cell_angle_beta 90.000000
_cell_angle_gamma 120.000000
_cell_volume 6229.751289
_symmetry_space_group_name_H-M "P 62 2 2"
_symmetry_group_IT_number 180
_symmetry_cell_setting 'hexagonal'
loop_
_space_group_symop_operation_xyz
x,y,z
x-y,x,1/3+z
-y,x-y,2/3+z
-x,-y,z
-x+y,-x,1/3+z
y,-x+y,2/3+z
x-y,-y,-z
-x,-x+y,1/3-z
y,x,2/3-z
-y,-x,2/3-z
-x+y,y,-z
x,x-y,1/3-z
loop_
_atom_site_type_symbol
_atom_site_label
_atom_site_fract_x
_atom_site_fract_y
_atom_site_fract_z
Si Si1 0.411391 0.642748 0.159012
Si Si2 0.500192 0.386670 0.268451
Si Si3 0.248211 0.717614 0.460906
Si Si4 0.254493 0.857793 0.275236
Si Si5 0.468206 0.638094 0.911245
Si Si6 0.554141 0.566312 0.089725
Si Si7 0.675773 0.622614 0.248141
Si Si8 0.421902 0.059733 0.547531
O O1 0.403876 0.701938 0.166667
O O2 0.462013 0.647938 0.249369
O O3 0.345997 0.582212 0.180006
O O4 0.436834 0.633690 0.035431
O O5 0.548289 0.451712 0.333334
O O6 0.477405 0.395670 0.140665
O O7 0.438777 0.345631 0.341873
O O8 0.277653 0.722348 0.333334
O O9 0.187038 0.721075 0.438546
O O10 0.296130 0.777840 0.529725
O O11 0.187690 0.812311 0.333334
O O12 0.265359 0.903707 0.166418
O O13 0.302294 0.897670 0.376568
O O14 0.415886 0.584115 0.833334
O O15 0.529146 0.632665 0.883787
O O16 0.500000 0.500000 0.128114
O O17 0.618001 0.598656 0.160253
O O18 0.577607 0.553685 0.965499
O O19 0.672925 0.672925 0.333334
O O20 0.361038 0.000000 0.500000
#
# Coordination Sequence:
#
# PCOD9583721 Si02
#       8
#    12  12  12  12  12  12  12  12
#     4  12  28  35  49  71  88 119 160 201 244 303
#     4  11  21  34  51  66  93 118 150 191 242 302
#     4  11  21  38  54  64  86 122 160 197 238 309
#     4  10  19  37  56  73  91 128 164 188 236 311
#     4  12  24  39  51  67  93 121 154 200 257 312
#     4  10  20  32  47  72  89 110 147 182 239 299
#     4   9  19  32  51  72  95 121 150 199 241 288
#     4  11  23  34  52  73  99 118 146 200 250 301
#
# _framework density 15.409924
#
# number of rings (size 3 to 8) (size 9 to 14) (size 15 to 20)
#    0.000    1.250    5.000    1.875    8.750    0.000 
#    0.000    0.000    0.000    0.000    0.000    0.000 
#    0.000    0.000    0.000    0.000    0.000    0.000 
#
# Total GULP energy -534452.716491 kJ/mol
# GULP energy per Si atom -5567.215797 kJ/mol
# Density = 1.537485 g / cm^3
# Si number density = 15.409924 Si / 1000 Ang^3
#
#
#
# Elastic Constant Matrix: (Units=GPa)
#
#
# Indices 1 2 3 4 5 6 
#
# 1 58.8097 34.7973 27.0304 0.0000 0.0000 0.0000
# 2 34.7973 58.8097 27.0304 0.0000 0.0000 0.0000
# 3 27.0304 27.0304 70.4939 0.0000 0.0000 0.0000
# 4 0.0000 0.0000 0.0000 18.7294 0.0000 0.0000
# 5 0.0000 0.0000 0.0000 0.0000 18.7294 0.0000
# 6 0.0000 0.0000 0.0000 0.0000 0.0000 12.0062
#
#
#
# Elastic Compliance Matrix: (Units=1/GPa)
#
#
# Indices 1 2 3 4 5 6 
#
# 1 0.027683 -0.013962 -0.005261 0.000000 0.000000 0.000000
# 2 -0.013962 0.027683 -0.005261 0.000000 0.000000 0.000000
# 3 -0.005261 -0.005261 0.018221 0.000000 0.000000 0.000000
# 4 0.000000 0.000000 0.000000 0.053392 0.000000 0.000000
# 5 0.000000 0.000000 0.000000 0.000000 0.053392 0.000000
# 6 0.000000 0.000000 0.000000 0.000000 0.000000 0.083290
#
#
# Mechanical properties :
#
#
# Convention : Reuss Voigt Hill
#
# Bulk Modulus (GPa) = 40.62078 40.64774 40.63426
# Shear Modulus (GPa) = 15.58427 16.51004 16.04715
#
# Velocity S-wave (km/s) = 3.18357 3.27676 3.23050
# Velocity P-wave (km/s) = 6.31908 6.38366 6.35145
#
# Compressibility (1/GPa) = 0.02461794
#
# Stress axis : x y z
#
# Youngs Moduli (GPa) = 36.12284 36.12284 54.88305
#
# Poissons Ratio (x) = 0.50434 0.28877
# Poissons Ratio (y) = 0.50434 0.28877
# Poissons Ratio (z) = 0.19006 0.19006
#
# Static dielectric constant tensor:
#      x y z
#    x 1.512840 0.000000 0.000000 
#    y 0.000000 1.512840 0.000000 
#    z 0.000000 0.000000 1.652970 
# 
# From -- ./inp_files/5178.got.cif
#   From: 2010.05.17/outbox.cif.g08.bks.cpg/sg180_3_cif.got.tgz:5178.got - 2010.05.20 11:43:55.
