data_PCOD9583437
_publ_section_title
;
Structure prediction by ZEFSAII (Michael W. Deem and Ramdas Pophale) SiO2 
 PCOD9583437
Probable space group: P 65 2 2
;
_chemical_formula_sum "Si O2"
_cell_formula_units_Z 60
_cell_length_a 15.039489
_cell_length_b 15.039489
_cell_length_c 13.113699
_cell_angle_alpha 90.000000
_cell_angle_beta 90.000000
_cell_angle_gamma 120.000000
_cell_volume 2568.750972
_symmetry_space_group_name_H-M "P 65 2 2"
_symmetry_group_IT_number 179
_symmetry_cell_setting 'hexagonal'
loop_
_space_group_symop_operation_xyz
x,y,z
x-y,x,5/6+z
-y,x-y,2/3+z
-x,-y,1/2+z
-x+y,-x,1/3+z
y,-x+y,1/6+z
x-y,-y,-z
-x,-x+y,1/3-z
y,x,2/3-z
-y,-x,1/6-z
-x+y,y,1/2-z
x,x-y,5/6-z
loop_
_atom_site_type_symbol
_atom_site_label
_atom_site_fract_x
_atom_site_fract_y
_atom_site_fract_z
Si Si1 0.076793 0.709980 0.579521
Si Si2 0.471794 0.891464 0.631622
Si Si3 0.233777 0.528400 0.863597
Si Si4 0.113532 0.996613 0.805068
Si Si5 0.696407 0.671628 0.144066
O O1 0.185564 0.814437 0.583334
O O2 0.092535 0.611531 0.595663
O O3 0.000000 0.704971 0.666667
O O4 0.025438 0.691785 0.468309
O O5 0.446092 0.892184 0.750000
O O6 0.457923 0.783039 0.601558
O O7 0.592770 0.973363 0.621826
O O8 0.280049 0.560097 0.750000
O O9 0.189355 0.594678 0.916667
O O10 0.144321 0.410924 0.860828
O O11 0.124043 0.017901 0.683369
O O12 0.085910 0.085910 0.833334
O O13 0.218306 0.006382 0.844106
#
# Coordination Sequence:
#
# PCOD9583437 Si02
#       5
#    12  12  12  12  12
#     4  11  27  47  76 109 149 200 252 320 392 466
#     4  10  24  47  76 102 146 192 240 310 375 459
#     4  12  27  43  74 109 146 192 248 314 385 462
#     4  10  23  45  71 101 147 195 247 311 370 457
#     4  11  26  48  72 108 147 198 255 311 382 471
#
# _framework density 23.357655999999999
#
# number of rings (size 3 to 8) (size 9 to 14) (size 15 to 20)
#    0.000    1.200    0.000    4.200   16.800    0.000 
#    7.200    0.000    0.000    0.000    0.000    0.000 
#    0.000    0.000    0.000    0.000    0.000    0.000 
#
# Total GULP energy -335341.845309 kJ/mol
# GULP energy per Si atom -5589.030755 kJ/mol
# Density = 2.330449 g / cm^3
# Si number density = 23.357656 Si / 1000 Ang^3
#
#
#
# Elastic Constant Matrix: (Units=GPa)
#
#
# Indices 1 2 3 4 5 6 
#
# 1 117.1423 33.4009 33.0559 0.0000 0.0000 0.0000
# 2 33.4009 117.1423 33.0559 0.0000 0.0000 0.0000
# 3 33.0559 33.0559 68.3964 0.0000 0.0000 0.0000
# 4 0.0000 0.0000 0.0000 25.5868 0.0000 0.0000
# 5 0.0000 0.0000 0.0000 0.0000 25.5868 0.0000
# 6 0.0000 0.0000 0.0000 0.0000 0.0000 41.8707
#
#
#
# Elastic Compliance Matrix: (Units=1/GPa)
#
#
# Indices 1 2 3 4 5 6 
#
# 1 0.010187 -0.001755 -0.004075 0.000000 0.000000 0.000000
# 2 -0.001755 0.010187 -0.004075 0.000000 0.000000 0.000000
# 3 -0.004075 -0.004075 0.018560 0.000000 0.000000 0.000000
# 4 0.000000 0.000000 0.000000 0.039083 0.000000 0.000000
# 5 0.000000 0.000000 0.000000 0.000000 0.039083 0.000000
# 6 0.000000 0.000000 0.000000 0.000000 0.000000 0.023883
#
#
# Mechanical properties :
#
#
# Convention : Reuss Voigt Hill
#
# Bulk Modulus (GPa) = 52.29254 55.74512 54.01883
# Shear Modulus (GPa) = 29.91021 32.15341 31.03181
#
# Velocity S-wave (km/s) = 3.58233 3.71424 3.64888
# Velocity P-wave (km/s) = 6.28865 6.50475 6.39762
#
# Compressibility (1/GPa) = 0.01912319
#
# Stress axis : x y z
#
# Youngs Moduli (GPa) = 98.16513 98.16513 53.87973
#
# Poissons Ratio (x) = 0.17224 0.21958
# Poissons Ratio (y) = 0.17224 0.21958
# Poissons Ratio (z) = 0.40005 0.40005
#
# Static dielectric constant tensor:
#      x y z
#    x 1.869470 0.000000 0.000000 
#    y 0.000000 1.869470 0.000000 
#    z 0.000000 0.000000 2.281980 
# 
# From -- ./inp_files/5784.got.cif
#   From: 2010.05.17/outbox.cif.g08.bks.cpg/sg179_3_cif.got.tgz:5784.got - 2010.05.20 11:37:33.
