data_PCOD9583734
_publ_section_title
;
Structure prediction by ZEFSAII (Michael W. Deem and Ramdas Pophale) SiO2 
 PCOD9583734
Probable space group: P 62 2 2
;
_chemical_formula_sum "Si O2"
_cell_formula_units_Z 54
_cell_length_a 10.370962
_cell_length_b 10.370962
_cell_length_c 26.433974
_cell_angle_alpha 90.000000
_cell_angle_beta 90.000000
_cell_angle_gamma 120.000000
_cell_volume 2462.244501
_symmetry_space_group_name_H-M "P 62 2 2"
_symmetry_group_IT_number 180
_symmetry_cell_setting 'hexagonal'
loop_
_space_group_symop_operation_xyz
x,y,z
x-y,x,1/3+z
-y,x-y,2/3+z
-x,-y,z
-x+y,-x,1/3+z
y,-x+y,2/3+z
x-y,-y,-z
-x,-x+y,1/3-z
y,x,2/3-z
-y,-x,2/3-z
-x+y,y,-z
x,x-y,1/3-z
loop_
_atom_site_type_symbol
_atom_site_label
_atom_site_fract_x
_atom_site_fract_y
_atom_site_fract_z
Si Si1 0.741342 0.275802 0.954918
Si Si2 0.500000 0.500000 0.437104
Si Si3 0.158710 0.947402 0.690874
Si Si4 0.183336 0.031467 0.801845
Si Si5 0.479679 0.777701 0.808673
O O1 0.883964 0.271173 0.976476
O O2 0.782522 0.384775 0.906078
O O3 0.635338 0.109006 0.932460
O O4 0.652117 0.304233 0.000000
O O5 0.493410 0.379227 0.476730
O O6 0.000000 0.833141 0.666667
O O7 0.218282 0.109141 0.666667
O O8 0.120810 0.966567 0.747737
O O9 0.120369 0.120369 0.833334
O O10 0.352603 0.153036 0.791243
O O11 0.123753 0.876248 0.833334
O O12 0.385806 0.614195 0.833334
#
# Coordination Sequence:
#
# PCOD9583734 Si02
#       5
#    12   6  12  12  12
#     4  11  23  40  66 100 141 187 234 294 369 442
#     4  10  19  38  66  92 126 178 237 286 334 422
#     4  11  23  39  61  94 131 173 225 281 338 415
#     4  11  23  42  68  96 129 177 230 285 350 426
#     4  10  23  41  65  98 133 173 230 296 354 418
#
# _framework density 21.93121
#
# number of rings (size 3 to 8) (size 9 to 14) (size 15 to 20)
#    0.000    1.333    0.000    7.000    0.000    8.444 
#    0.000    0.000    0.000    0.000    0.000    0.000 
#    0.000    0.000    0.000    0.000    0.000    0.000 
#
# Total GULP energy -300909.271732 kJ/mol
# GULP energy per Si atom -5572.393921 kJ/mol
# Density = 2.188129 g / cm^3
# Si number density = 21.931210 Si / 1000 Ang^3
#
#
#
# Elastic Constant Matrix: (Units=GPa)
#
#
# Indices 1 2 3 4 5 6 
#
# 1 109.6170 38.3446 35.3032 0.0000 0.0000 0.0000
# 2 38.3446 109.6170 35.3032 0.0000 0.0000 0.0000
# 3 35.3032 35.3032 139.1162 0.0000 0.0000 0.0000
# 4 0.0000 0.0000 0.0000 75.7287 0.0000 0.0000
# 5 0.0000 0.0000 0.0000 0.0000 75.7287 0.0000
# 6 0.0000 0.0000 0.0000 0.0000 0.0000 35.6362
#
#
#
# Elastic Compliance Matrix: (Units=1/GPa)
#
#
# Indices 1 2 3 4 5 6 
#
# 1 0.010860 -0.003170 -0.001951 0.000000 0.000000 0.000000
# 2 -0.003170 0.010860 -0.001951 0.000000 0.000000 0.000000
# 3 -0.001951 -0.001951 0.008179 0.000000 0.000000 0.000000
# 4 0.000000 0.000000 0.000000 0.013205 0.000000 0.000000
# 5 0.000000 0.000000 0.000000 0.000000 0.013205 0.000000
# 6 0.000000 0.000000 0.000000 0.000000 0.000000 0.028061
#
#
# Mechanical properties :
#
#
# Convention : Reuss Voigt Hill
#
# Bulk Modulus (GPa) = 63.48216 64.02801 63.75508
# Shear Modulus (GPa) = 48.18451 54.04535 51.11493
#
# Velocity S-wave (km/s) = 4.69238 4.96957 4.83296
# Velocity P-wave (km/s) = 7.63982 7.88588 7.76382
#
# Compressibility (1/GPa) = 0.01575246
#
# Stress axis : x y z
#
# Youngs Moduli (GPa) = 92.07943 92.07943 122.26975
#
# Poissons Ratio (x) = 0.29194 0.23860
# Poissons Ratio (y) = 0.29194 0.23860
# Poissons Ratio (z) = 0.17968 0.17968
#
# Static dielectric constant tensor:
#      x y z
#    x 1.865180 0.000000 0.000000 
#    y 0.000000 1.865180 0.000000 
#    z 0.000000 0.000000 1.746580 
# 
# From -- ./inp_files/10056.got.cif
#   From: 2010.05.17/outbox.cif.g08.bks.cpg/sg180_6_cif.got.tgz:10056.got - 2010.05.20 11:43:55.
