data_PCOD9583539
_publ_section_title
;
Structure prediction by ZEFSAII (Michael W. Deem and Ramdas Pophale) SiO2 
 PCOD9583539
Probable space group: P 65 2 2
;
_chemical_formula_sum "Si O2"
_cell_formula_units_Z 48
_cell_length_a 18.595223
_cell_length_b 18.595223
_cell_length_c 7.578894
_cell_angle_alpha 90.000000
_cell_angle_beta 90.000000
_cell_angle_gamma 120.000000
_cell_volume 2269.547343
_symmetry_space_group_name_H-M "P 65 2 2"
_symmetry_group_IT_number 179
_symmetry_cell_setting 'hexagonal'
loop_
_space_group_symop_operation_xyz
x,y,z
x-y,x,5/6+z
-y,x-y,2/3+z
-x,-y,1/2+z
-x+y,-x,1/3+z
y,-x+y,1/6+z
x-y,-y,-z
-x,-x+y,1/3-z
y,x,2/3-z
-y,-x,1/6-z
-x+y,y,1/2-z
x,x-y,5/6-z
loop_
_atom_site_type_symbol
_atom_site_label
_atom_site_fract_x
_atom_site_fract_y
_atom_site_fract_z
Si Si1 0.162686 0.000000 0.000000
Si Si2 0.601405 0.398596 0.583334
Si Si3 0.094277 0.447944 0.203669
Si Si4 0.714301 0.778682 0.996844
Si Si5 0.780434 0.475345 0.428651
O O1 0.198086 0.968312 0.839113
O O2 0.152109 0.076055 0.916667
O O3 0.542116 0.399717 0.433815
O O4 0.697326 0.436130 0.544019
O O5 0.094180 0.383601 0.347383
O O6 0.000000 0.419174 0.166667
O O7 0.143639 0.448413 0.027962
O O8 0.742942 0.742942 0.833334
O O9 0.722282 0.861141 0.916667
O O10 0.748314 0.496627 0.250000
O O11 0.800149 0.400075 0.416667
#
# Coordination Sequence:
#
# PCOD9583539 Si02
#       5
#     6   6  12  12  12
#     4  12  26  46  82 116 144 196 250 302 382 444
#     4  12  22  42  72 100 142 180 248 316 368 424
#     4  11  27  46  65 103 150 195 242 313 372 448
#     4  11  23  47  71 101 152 190 242 303 370 454
#     4  12  22  42  74 102 137 186 251 312 382 436
#
# _framework density 21.149591000000001
#
# number of rings (size 3 to 8) (size 9 to 14) (size 15 to 20)
#    0.000    0.500    6.250    2.250    1.750    1.000 
#   20.250    0.000    0.000    0.000    0.000    0.000 
#    0.000    0.000    0.000    0.000    0.000    0.000 
#
# Total GULP energy -267921.553533 kJ/mol
# GULP energy per Si atom -5581.699032 kJ/mol
# Density = 2.110145 g / cm^3
# Si number density = 21.149591 Si / 1000 Ang^3
#
#
#
# Elastic Constant Matrix: (Units=GPa)
#
#
# Indices 1 2 3 4 5 6 
#
# 1 85.5741 48.7736 44.3210 0.0000 0.0000 0.0000
# 2 48.7736 85.5741 44.3210 0.0000 0.0000 0.0000
# 3 44.3210 44.3210 123.0624 0.0000 0.0000 0.0000
# 4 0.0000 0.0000 0.0000 30.5077 0.0000 0.0000
# 5 0.0000 0.0000 0.0000 0.0000 30.5077 0.0000
# 6 0.0000 0.0000 0.0000 0.0000 0.0000 18.4003
#
#
#
# Elastic Compliance Matrix: (Units=1/GPa)
#
#
# Indices 1 2 3 4 5 6 
#
# 1 0.018468 -0.008705 -0.003516 0.000000 0.000000 0.000000
# 2 -0.008705 0.018468 -0.003516 0.000000 0.000000 0.000000
# 3 -0.003516 -0.003516 0.010659 0.000000 0.000000 0.000000
# 4 0.000000 0.000000 0.000000 0.032779 0.000000 0.000000
# 5 0.000000 0.000000 0.000000 0.000000 0.032779 0.000000
# 6 0.000000 0.000000 0.000000 0.000000 0.000000 0.054347
#
#
# Mechanical properties :
#
#
# Convention : Reuss Voigt Hill
#
# Bulk Modulus (GPa) = 62.03330 63.22690 62.63010
# Shear Modulus (GPa) = 24.46797 26.33612 25.40204
#
# Velocity S-wave (km/s) = 3.40501 3.53261 3.46940
# Velocity P-wave (km/s) = 6.69726 6.82635 6.76211
#
# Compressibility (1/GPa) = 0.01612037
#
# Stress axis : x y z
#
# Youngs Moduli (GPa) = 54.14635 54.14635 93.81959
#
# Poissons Ratio (x) = 0.47135 0.32990
# Poissons Ratio (y) = 0.47135 0.32990
# Poissons Ratio (z) = 0.19039 0.19039
#
# Static dielectric constant tensor:
#      x y z
#    x 1.793150 0.000000 0.000000 
#    y 0.000000 1.793150 0.000000 
#    z 0.000000 0.000000 1.893740 
# 
# From -- ./inp_files/2696.got.cif
#   From: 2010.05.17/outbox.cif.g08.bks.cpg/sg179_2_cif.got.tgz:2696.got - 2010.05.20 11:37:33.
