data_PCOD9583467
_publ_section_title
;
Structure prediction by ZEFSAII (Michael W. Deem and Ramdas Pophale) SiO2 
 PCOD9583467
Probable space group: P 65 2 2
;
_chemical_formula_sum "Si O2"
_cell_formula_units_Z 42
_cell_length_a 9.268541
_cell_length_b 9.268541
_cell_length_c 24.110611
_cell_angle_alpha 90.000000
_cell_angle_beta 90.000000
_cell_angle_gamma 120.000000
_cell_volume 1793.748697
_symmetry_space_group_name_H-M "P 65 2 2"
_symmetry_group_IT_number 179
_symmetry_cell_setting 'hexagonal'
loop_
_space_group_symop_operation_xyz
x,y,z
x-y,x,5/6+z
-y,x-y,2/3+z
-x,-y,1/2+z
-x+y,-x,1/3+z
y,-x+y,1/6+z
x-y,-y,-z
-x,-x+y,1/3-z
y,x,2/3-z
-y,-x,1/6-z
-x+y,y,1/2-z
x,x-y,5/6-z
loop_
_atom_site_type_symbol
_atom_site_label
_atom_site_fract_x
_atom_site_fract_y
_atom_site_fract_z
Si Si1 0.154692 0.087144 0.125738
Si Si2 0.000000 0.469780 0.666667
Si Si3 0.819946 0.494544 0.059274
Si Si4 0.286741 0.462503 0.128260
O O1 0.340049 0.129557 0.143086
O O2 0.204693 0.273777 0.107848
O O3 0.000000 0.032222 0.166667
O O4 0.066605 0.933396 0.083334
O O5 0.082595 0.428651 0.616232
O O6 0.140034 0.638318 0.694530
O O7 0.632681 0.367320 0.083334
O O8 0.617868 0.128655 0.144907
O O9 0.414803 0.585198 0.083334
#
# Coordination Sequence:
#
# PCOD9583467 Si02
#       4
#    12   6  12  12
#     4  12  27  44  72 107 154 192 253 315 383 445
#     4  10  24  46  74 104 146 196 252 314 368 458
#     4  10  25  47  74 108 149 202 259 307 386 464
#     4  11  24  45  77 105 147 202 253 310 381 462
#
# _framework density 23.414650000000002
#
# number of rings (size 3 to 8) (size 9 to 14) (size 15 to 20)
#    0.000    1.143    1.429    2.571   10.000    1.143 
#    0.000    0.000    0.000    0.000    0.000    0.000 
#    0.000    0.000    0.000    0.000    0.000    0.000 
#
# Total GULP energy -234037.344450 kJ/mol
# GULP energy per Si atom -5572.317725 kJ/mol
# Density = 2.336136 g / cm^3
# Si number density = 23.414650 Si / 1000 Ang^3
#
#
#
# Elastic Constant Matrix: (Units=GPa)
#
#
# Indices 1 2 3 4 5 6 
#
# 1 113.0637 61.4435 34.0050 0.0000 0.0000 0.0000
# 2 61.4435 113.0637 34.0050 0.0000 0.0000 0.0000
# 3 34.0050 34.0050 80.0835 0.0000 0.0000 0.0000
# 4 0.0000 0.0000 0.0000 -21.7783 0.0000 0.0000
# 5 0.0000 0.0000 0.0000 0.0000 -21.7783 0.0000
# 6 0.0000 0.0000 0.0000 0.0000 0.0000 25.8101
#
#
#
# Elastic Compliance Matrix: (Units=1/GPa)
#
#
# Indices 1 2 3 4 5 6 
#
# 1 0.013120 -0.006253 -0.002916 0.000000 0.000000 0.000000
# 2 -0.006253 0.013120 -0.002916 0.000000 0.000000 0.000000
# 3 -0.002916 -0.002916 0.014963 0.000000 0.000000 0.000000
# 4 0.000000 0.000000 0.000000 -0.045917 0.000000 0.000000
# 5 0.000000 0.000000 0.000000 0.000000 -0.045917 0.000000
# 6 0.000000 0.000000 0.000000 0.000000 0.000000 0.038745
#
#
# Mechanical properties :
#
#
# Convention : Reuss Voigt Hill
#
# Bulk Modulus (GPa) = 58.70738 62.79090 60.74914
# Shear Modulus (GPa) = 278.41649 8.23452 143.32550
#
# Velocity S-wave (km/s) = 10.91628 1.87735 7.83229
# Velocity P-wave (km/s) = 13.56518 5.61911 10.38240
#
# Compressibility (1/GPa) = 0.01703363
#
# Stress axis : x y z
#
# Youngs Moduli (GPa) = 76.22235 76.22235 66.83080
#
# Poissons Ratio (x) = 0.47660 0.19486
# Poissons Ratio (y) = 0.47660 0.19486
# Poissons Ratio (z) = 0.22225 0.22225
#
# Static dielectric constant tensor:
#      x y z
#    x 1.982780 0.000000 0.000000 
#    y 0.000000 1.982780 0.000000 
#    z 0.000000 0.000000 1.975080 
# 
# From -- ./inp_files/9305.got.cif
#   From: 2010.05.17/outbox.cif.g08.bks.cpg/sg179_5_cif.got.tgz:9305.got - 2010.05.20 11:37:33.
