data_PCOD9583525
_publ_section_title
;
Structure prediction by ZEFSAII (Michael W. Deem and Ramdas Pophale) SiO2 
 PCOD9583525
Probable space group: P 65 2 2
;
_chemical_formula_sum "Si O2"
_cell_formula_units_Z 60
_cell_length_a 14.627612
_cell_length_b 14.627612
_cell_length_c 13.921679
_cell_angle_alpha 90.000000
_cell_angle_beta 90.000000
_cell_angle_gamma 120.000000
_cell_volume 2579.699453
_symmetry_space_group_name_H-M "P 65 2 2"
_symmetry_group_IT_number 179
_symmetry_cell_setting 'hexagonal'
loop_
_space_group_symop_operation_xyz
x,y,z
x-y,x,5/6+z
-y,x-y,2/3+z
-x,-y,1/2+z
-x+y,-x,1/3+z
y,-x+y,1/6+z
x-y,-y,-z
-x,-x+y,1/3-z
y,x,2/3-z
-y,-x,1/6-z
-x+y,y,1/2-z
x,x-y,5/6-z
loop_
_atom_site_type_symbol
_atom_site_label
_atom_site_fract_x
_atom_site_fract_y
_atom_site_fract_z
Si Si1 0.740379 0.667704 0.967438
Si Si2 0.143159 0.000000 0.500000
Si Si3 0.631096 0.262192 0.750000
Si Si4 0.629638 0.710421 0.128331
Si Si5 0.547107 0.876201 0.403893
Si Si6 0.000000 0.462949 0.166667
Si Si7 0.207470 0.603735 0.416667
O O1 0.819059 0.747271 0.888096
O O2 0.815016 0.624095 0.005645
O O3 0.627517 0.591178 0.916915
O O4 0.718502 0.727679 0.051294
O O5 0.114565 0.057283 0.416667
O O6 0.535182 0.183159 0.817949
O O7 0.720035 0.338505 0.825324
O O8 0.643383 0.635702 0.204070
O O9 0.520148 0.651139 0.070324
O O10 0.590894 0.795447 0.416667
O O11 0.484162 0.900081 0.488541
#
# Coordination Sequence:
#
# PCOD9583525 Si02
#       7
#    12   6   6  12  12   6   6
#     4  11  25  44  75 105 150 193 269 328 402 485
#     4  11  22  46  72 107 138 186 245 332 394 461
#     4  12  27  50  74 124 160 222 273 346 418 524
#     4  12  26  45  71 110 151 214 267 340 411 501
#     4  12  28  48  75 109 167 210 279 344 432 517
#     4  11  26  46  72 111 146 208 261 346 410 507
#     4  12  27  44  82 112 172 208 275 338 418 500
#
# _framework density 23.258524000000001
#
# number of rings (size 3 to 8) (size 9 to 14) (size 15 to 20)
#    0.000    0.400    3.000    5.400    8.400    1.600 
#    0.000    1.000    0.000    0.000    0.000    0.000 
#    0.000    0.000    0.000    0.000    0.000    0.000 
#
# Total GULP energy -334351.223877 kJ/mol
# GULP energy per Si atom -5572.520398 kJ/mol
# Density = 2.320559 g / cm^3
# Si number density = 23.258524 Si / 1000 Ang^3
#
#
#
# Elastic Constant Matrix: (Units=GPa)
#
#
# Indices 1 2 3 4 5 6 
#
# 1 159.2059 60.5872 60.9317 0.0000 0.0000 0.0000
# 2 60.5872 159.2059 60.9317 0.0000 0.0000 0.0000
# 3 60.9317 60.9317 98.9731 0.0000 0.0000 0.0000
# 4 0.0000 0.0000 0.0000 41.6598 0.0000 0.0000
# 5 0.0000 0.0000 0.0000 0.0000 41.6598 0.0000
# 6 0.0000 0.0000 0.0000 0.0000 0.0000 49.3093
#
#
#
# Elastic Compliance Matrix: (Units=1/GPa)
#
#
# Indices 1 2 3 4 5 6 
#
# 1 0.008524 -0.001616 -0.004253 0.000000 0.000000 0.000000
# 2 -0.001616 0.008524 -0.004253 0.000000 0.000000 0.000000
# 3 -0.004253 -0.004253 0.015340 0.000000 0.000000 0.000000
# 4 0.000000 0.000000 0.000000 0.024004 0.000000 0.000000
# 5 0.000000 0.000000 0.000000 0.000000 0.024004 0.000000
# 6 0.000000 0.000000 0.000000 0.000000 0.000000 0.020280
#
#
# Mechanical properties :
#
#
# Convention : Reuss Voigt Hill
#
# Bulk Modulus (GPa) = 82.34038 86.92065 84.63052
# Shear Modulus (GPa) = 40.01074 42.18808 41.09941
#
# Velocity S-wave (km/s) = 4.15210 4.26358 4.20821
# Velocity P-wave (km/s) = 7.64629 7.85431 7.75100
#
# Compressibility (1/GPa) = 0.01214471
#
# Stress axis : x y z
#
# Youngs Moduli (GPa) = 117.31847 117.31847 65.18978
#
# Poissons Ratio (x) = 0.18962 0.27722
# Poissons Ratio (y) = 0.18962 0.27722
# Poissons Ratio (z) = 0.49890 0.49890
#
# Static dielectric constant tensor:
#      x y z
#    x 1.424100 0.000000 0.000000 
#    y 0.000000 1.424100 0.000000 
#    z 0.000000 0.000000 1.945010 
# 
# From -- ./inp_files/5907.got.cif
#   From: 2010.05.17/outbox.cif.g08.bks.cpg/sg179_3_cif.got.tgz:5907.got - 2010.05.20 11:37:33.
