data_PCOD9583292
_publ_section_title
;
Structure prediction by ZEFSAII (Michael W. Deem and Ramdas Pophale) SiO2 
 PCOD9583292
Probable space group: P 65 2 2
;
_chemical_formula_sum "Si O2"
_cell_formula_units_Z 72
_cell_length_a 14.415138
_cell_length_b 14.415138
_cell_length_c 20.308598
_cell_angle_alpha 90.000000
_cell_angle_beta 90.000000
_cell_angle_gamma 120.000000
_cell_volume 3654.670128
_symmetry_space_group_name_H-M "P 65 2 2"
_symmetry_group_IT_number 179
_symmetry_cell_setting 'hexagonal'
loop_
_space_group_symop_operation_xyz
x,y,z
x-y,x,5/6+z
-y,x-y,2/3+z
-x,-y,1/2+z
-x+y,-x,1/3+z
y,-x+y,1/6+z
x-y,-y,-z
-x,-x+y,1/3-z
y,x,2/3-z
-y,-x,1/6-z
-x+y,y,1/2-z
x,x-y,5/6-z
loop_
_atom_site_type_symbol
_atom_site_label
_atom_site_fract_x
_atom_site_fract_y
_atom_site_fract_z
Si Si1 0.319073 0.404841 0.520285
Si Si2 0.802890 0.691856 0.393558
Si Si3 0.378418 0.756835 0.250000
Si Si4 0.417668 0.312362 0.300563
Si Si5 0.123271 0.876730 0.083334
Si Si6 0.500519 0.145992 0.306151
Si Si7 0.534210 0.140409 0.054762
O O1 0.205407 0.336378 0.555353
O O2 0.358970 0.528034 0.534512
O O3 0.311287 0.394768 0.442558
O O4 0.405681 0.376444 0.547866
O O5 0.811839 0.805530 0.410778
O O6 0.845265 0.692054 0.319763
O O7 0.679903 0.593733 0.394722
O O8 0.267333 0.685659 0.213225
O O9 0.319346 0.319346 0.333334
O O10 0.445963 0.219278 0.315130
O O11 0.523666 0.416927 0.328328
O O12 0.592743 0.185485 0.250000
O O13 0.546977 0.132502 0.375814
#
# Coordination Sequence:
#
# PCOD9583292 Si02
#       7
#    12  12   6  12   6  12  12
#     4  11  25  39  70  99 134 178 232 282 341 425
#     4  10  25  44  71 101 134 180 234 287 360 416
#     4  10  20  42  58  99 131 172 224 272 338 404
#     4  12  26  42  64  95 142 185 222 272 351 411
#     4  10  24  46  70  97 137 174 220 308 350 406
#     4  12  24  44  69  96 136 184 229 296 339 414
#     4  11  23  40  65  97 140 178 225 278 347 416
#
# _framework density 19.700821000000001
#
# number of rings (size 3 to 8) (size 9 to 14) (size 15 to 20)
#    0.000    1.000    4.167    2.000    7.000    2.667 
#    0.000    0.000    3.667    0.000    0.000    0.000 
#    0.000    0.000    0.000    0.000    0.000    0.000 
#
# Total GULP energy -401751.609225 kJ/mol
# GULP energy per Si atom -5579.883461 kJ/mol
# Density = 1.965598 g / cm^3
# Si number density = 19.700821 Si / 1000 Ang^3
#
#
#
# Elastic Constant Matrix: (Units=GPa)
#
#
# Indices 1 2 3 4 5 6 
#
# 1 106.2385 47.7657 27.1641 0.0000 0.0000 0.0000
# 2 47.7657 106.2385 27.1641 0.0000 0.0000 0.0000
# 3 27.1641 27.1641 135.6843 0.0000 0.0000 0.0000
# 4 0.0000 0.0000 0.0000 21.7766 0.0000 0.0000
# 5 0.0000 0.0000 0.0000 0.0000 21.7766 0.0000
# 6 0.0000 0.0000 0.0000 0.0000 0.0000 29.2364
#
#
#
# Elastic Compliance Matrix: (Units=1/GPa)
#
#
# Indices 1 2 3 4 5 6 
#
# 1 0.012044 -0.005058 -0.001399 0.000000 0.000000 0.000000
# 2 -0.005058 0.012044 -0.001399 0.000000 0.000000 0.000000
# 3 -0.001399 -0.001399 0.007930 0.000000 0.000000 0.000000
# 4 0.000000 0.000000 0.000000 0.045921 0.000000 0.000000
# 5 0.000000 0.000000 0.000000 0.000000 0.045921 0.000000
# 6 0.000000 0.000000 0.000000 0.000000 0.000000 0.034204
#
#
# Mechanical properties :
#
#
# Convention : Reuss Voigt Hill
#
# Bulk Modulus (GPa) = 61.31724 61.37212 61.34468
# Shear Modulus (GPa) = 27.90008 30.96241 29.43124
#
# Velocity S-wave (km/s) = 3.76731 3.96868 3.86931
# Velocity P-wave (km/s) = 7.07921 7.22636 7.15316
#
# Compressibility (1/GPa) = 0.01630863
#
# Stress axis : x y z
#
# Youngs Moduli (GPa) = 83.02636 83.02636 126.10159
#
# Poissons Ratio (x) = 0.41991 0.17639
# Poissons Ratio (y) = 0.41991 0.17639
# Poissons Ratio (z) = 0.11613 0.11613
#
# Static dielectric constant tensor:
#      x y z
#    x 1.724070 0.000000 0.000000 
#    y 0.000000 1.724070 0.000000 
#    z 0.000000 0.000000 1.691680 
# 
# From -- ./inp_files/6875.got.cif
#   From: 2010.05.17/outbox.cif.g08.bks.cpg/sg179_4_cif.got.tgz:6875.got - 2010.05.20 11:37:33.
