data_PCOD9583241
_publ_section_title
;
Structure prediction by ZEFSAII (Michael W. Deem and Ramdas Pophale) SiO2 
 PCOD9583241
Probable space group: P 65 2 2
;
_chemical_formula_sum "Si O2"
_cell_formula_units_Z 78
_cell_length_a 23.119860
_cell_length_b 23.119860
_cell_length_c 8.568034
_cell_angle_alpha 90.000000
_cell_angle_beta 90.000000
_cell_angle_gamma 120.000000
_cell_volume 3966.269431
_symmetry_space_group_name_H-M "P 65 2 2"
_symmetry_group_IT_number 179
_symmetry_cell_setting 'hexagonal'
loop_
_space_group_symop_operation_xyz
x,y,z
x-y,x,5/6+z
-y,x-y,2/3+z
-x,-y,1/2+z
-x+y,-x,1/3+z
y,-x+y,1/6+z
x-y,-y,-z
-x,-x+y,1/3-z
y,x,2/3-z
-y,-x,1/6-z
-x+y,y,1/2-z
x,x-y,5/6-z
loop_
_atom_site_type_symbol
_atom_site_label
_atom_site_fract_x
_atom_site_fract_y
_atom_site_fract_z
Si Si1 0.727065 0.208335 0.934366
Si Si2 0.077497 0.272424 0.156069
Si Si3 0.665636 0.592459 0.399693
Si Si4 0.069773 0.665740 0.587695
Si Si5 0.361661 0.828772 0.148888
Si Si6 0.354248 0.190124 0.738875
Si Si7 0.312502 0.687499 0.083334
O O1 0.697147 0.214261 0.773458
O O2 0.795398 0.210382 0.882204
O O3 0.744267 0.255734 0.083334
O O4 0.675003 0.133430 0.987044
O O5 0.128649 0.257297 0.250000
O O6 0.075387 0.336465 0.228242
O O7 0.000000 0.214208 0.166667
O O8 0.117494 0.297485 0.990031
O O9 0.623399 0.623399 0.333334
O O10 0.645759 0.571999 0.578379
O O11 0.654410 0.531854 0.285888
O O12 0.743408 0.651116 0.416686
O O13 0.000000 0.614753 0.666667
O O14 0.430110 0.860219 0.250000
O O15 0.354371 0.767556 0.048609
O O16 0.372985 0.186493 0.916667
O O17 0.339932 0.679863 0.250000
#
# Coordination Sequence:
#
# PCOD9583241 Si02
#       7
#    12  12  12  12  12  12   6
#     4  11  20  37  63  90 120 163 212 262 324 390
#     4  10  20  35  55  91 136 171 212 269 330 393
#     4  12  23  39  64  92 132 172 216 267 339 408
#     4  10  20  35  59  94 127 163 210 263 324 393
#     4  11  25  44  64  94 129 166 216 274 330 405
#     4  11  20  34  61  96 125 164 217 273 328 392
#     4  10  24  48  76 102 130 158 220 284 336 388
#
# _framework density 19.665835000000001
#
# number of rings (size 3 to 8) (size 9 to 14) (size 15 to 20)
#    0.000    1.231    4.615    2.769    4.308    2.462 
#    0.000    2.308    0.000    0.000    0.000    2.154 
#    0.000    0.000    0.000    0.000    0.000    0.000 
#
# Total GULP energy -434371.027151 kJ/mol
# GULP energy per Si atom -5568.859322 kJ/mol
# Density = 1.962107 g / cm^3
# Si number density = 19.665835 Si / 1000 Ang^3
#
#
#
# Elastic Constant Matrix: (Units=GPa)
#
#
# Indices 1 2 3 4 5 6 
#
# 1 74.1318 35.8758 34.7667 0.0000 0.0000 0.0000
# 2 35.8758 74.1318 34.7667 0.0000 0.0000 0.0000
# 3 34.7667 34.7667 118.3438 0.0000 0.0000 0.0000
# 4 0.0000 0.0000 0.0000 22.0692 0.0000 0.0000
# 5 0.0000 0.0000 0.0000 0.0000 22.0692 0.0000
# 6 0.0000 0.0000 0.0000 0.0000 0.0000 19.1280
#
#
#
# Elastic Compliance Matrix: (Units=1/GPa)
#
#
# Indices 1 2 3 4 5 6 
#
# 1 0.018651 -0.007488 -0.003279 0.000000 0.000000 0.000000
# 2 -0.007488 0.018651 -0.003279 0.000000 0.000000 0.000000
# 3 -0.003279 -0.003279 0.010377 0.000000 0.000000 0.000000
# 4 0.000000 0.000000 0.000000 0.045312 0.000000 0.000000
# 5 0.000000 0.000000 0.000000 0.000000 0.045312 0.000000
# 6 0.000000 0.000000 0.000000 0.000000 0.000000 0.052279
#
#
# Mechanical properties :
#
#
# Convention : Reuss Voigt Hill
#
# Bulk Modulus (GPa) = 51.05886 53.04730 52.05308
# Shear Modulus (GPa) = 22.20190 23.39983 22.80086
#
# Velocity S-wave (km/s) = 3.36364 3.45319 3.40871
# Velocity P-wave (km/s) = 6.41132 6.55227 6.48218
#
# Compressibility (1/GPa) = 0.01958524
#
# Stress axis : x y z
#
# Youngs Moduli (GPa) = 53.61523 53.61523 96.36861
#
# Poissons Ratio (x) = 0.40148 0.31604
# Poissons Ratio (y) = 0.40148 0.31604
# Poissons Ratio (z) = 0.17583 0.17583
#
# Static dielectric constant tensor:
#      x y z
#    x 1.736760 0.000000 0.000000 
#    y 0.000000 1.736760 0.000000 
#    z 0.000000 0.000000 1.721550 
# 
# From -- ./inp_files/3688.got.cif
#   From: 2010.05.17/outbox.cif.g08.bks.cpg/sg179_2_cif.got.tgz:3688.got - 2010.05.20 11:37:33.
