data_PCOD9583207
_publ_section_title
;
Structure prediction by ZEFSAII (Michael W. Deem and Ramdas Pophale) SiO2 
 PCOD9583207
Probable space group: P 65 2 2
;
_chemical_formula_sum "Si O2"
_cell_formula_units_Z 60
_cell_length_a 16.049020
_cell_length_b 16.049020
_cell_length_c 13.901732
_cell_angle_alpha 90.000000
_cell_angle_beta 90.000000
_cell_angle_gamma 120.000000
_cell_volume 3100.962969
_symmetry_space_group_name_H-M "P 65 2 2"
_symmetry_group_IT_number 179
_symmetry_cell_setting 'hexagonal'
loop_
_space_group_symop_operation_xyz
x,y,z
x-y,x,5/6+z
-y,x-y,2/3+z
-x,-y,1/2+z
-x+y,-x,1/3+z
y,-x+y,1/6+z
x-y,-y,-z
-x,-x+y,1/3-z
y,x,2/3-z
-y,-x,1/6-z
-x+y,y,1/2-z
x,x-y,5/6-z
loop_
_atom_site_type_symbol
_atom_site_label
_atom_site_fract_x
_atom_site_fract_y
_atom_site_fract_z
Si Si1 0.628708 0.078733 0.772623
Si Si2 0.859993 0.000000 0.000000
Si Si3 0.845095 0.180947 0.267913
Si Si4 0.768782 0.231219 0.083334
Si Si5 0.351260 0.319314 0.727488
Si Si6 0.922845 0.441526 0.080817
O O1 0.564404 0.128808 0.750000
O O2 0.719703 0.124138 0.842860
O O3 0.663934 0.056524 0.672731
O O4 0.550249 0.979166 0.824367
O O5 0.763609 0.930523 0.060354
O O6 0.940635 0.059366 0.083334
O O7 0.786912 0.181929 0.174856
O O8 0.778845 0.093936 0.338153
O O9 0.824350 0.344810 0.099892
O O10 0.309433 0.309433 0.833334
O O11 0.467525 0.375533 0.736010
O O12 0.000000 0.469522 0.166667
#
# Coordination Sequence:
#
# PCOD9583207 Si02
#       6
#    12   6  12   6  12  12
#     4  10  20  36  59  88 126 165 204 262 317 373
#     4  12  26  46  70 104 130 162 224 292 356 408
#     4  12  22  40  69  97 123 166 223 273 323 408
#     4  12  20  32  68 100 120 166 220 278 322 374
#     4  10  23  40  60  87 126 173 213 252 316 403
#     4  10  19  36  60  92 127 162 210 266 321 371
#
# _framework density 19.348828999999999
#
# number of rings (size 3 to 8) (size 9 to 14) (size 15 to 20)
#    0.000    1.200    5.000    2.400    0.000    0.800 
#    3.600    0.000    0.000    0.000    0.000    0.000 
#    0.000    0.000    0.000    0.000    0.000    0.000 
#
# Total GULP energy -334731.651995 kJ/mol
# GULP energy per Si atom -5578.860867 kJ/mol
# Density = 1.930479 g / cm^3
# Si number density = 19.348829 Si / 1000 Ang^3
#
#
#
# Elastic Constant Matrix: (Units=GPa)
#
#
# Indices 1 2 3 4 5 6 
#
# 1 69.7626 48.8673 46.0690 0.0000 0.0000 0.0000
# 2 48.8673 69.7626 46.0690 0.0000 0.0000 0.0000
# 3 46.0690 46.0690 156.0751 0.0000 0.0000 0.0000
# 4 0.0000 0.0000 0.0000 32.0510 0.0000 0.0000
# 5 0.0000 0.0000 0.0000 0.0000 32.0510 0.0000
# 6 0.0000 0.0000 0.0000 0.0000 0.0000 10.4477
#
#
#
# Elastic Compliance Matrix: (Units=1/GPa)
#
#
# Indices 1 2 3 4 5 6 
#
# 1 0.029397 -0.018460 -0.003228 0.000000 0.000000 0.000000
# 2 -0.018460 0.029397 -0.003228 0.000000 0.000000 0.000000
# 3 -0.003228 -0.003228 0.008313 0.000000 0.000000 0.000000
# 4 0.000000 0.000000 0.000000 0.031200 0.000000 0.000000
# 5 0.000000 0.000000 0.000000 0.000000 0.031200 0.000000
# 6 0.000000 0.000000 0.000000 0.000000 0.000000 0.095715
#
#
# Mechanical properties :
#
#
# Convention : Reuss Voigt Hill
#
# Bulk Modulus (GPa) = 57.89139 64.17899 61.03519
# Shear Modulus (GPa) = 17.80535 25.21630 21.51082
#
# Velocity S-wave (km/s) = 3.03682 3.61397 3.33789
# Velocity P-wave (km/s) = 6.50240 7.11729 6.81678
#
# Compressibility (1/GPa) = 0.01727372
#
# Stress axis : x y z
#
# Youngs Moduli (GPa) = 34.01683 34.01683 120.29408
#
# Poissons Ratio (x) = 0.62796 0.38834
# Poissons Ratio (y) = 0.62796 0.38834
# Poissons Ratio (z) = 0.10982 0.10982
#
# Static dielectric constant tensor:
#      x y z
#    x 1.680170 0.000000 0.000000 
#    y 0.000000 1.680170 0.000000 
#    z 0.000000 0.000000 1.729600 
# 
# From -- ./inp_files/5860.got.cif
#   From: 2010.05.17/outbox.cif.g08.bks.cpg/sg179_3_cif.got.tgz:5860.got - 2010.05.20 11:37:33.
