data_PCOD9583955
_publ_section_title
;
Structure prediction by ZEFSAII (Michael W. Deem and Ramdas Pophale) SiO2 
 PCOD9583955
Probable space group: P 62 2 2
;
_chemical_formula_sum "Si O2"
_cell_formula_units_Z 42
_cell_length_a 10.565039
_cell_length_b 10.565039
_cell_length_c 21.555945
_cell_angle_alpha 90.000000
_cell_angle_beta 90.000000
_cell_angle_gamma 120.000000
_cell_volume 2083.722627
_symmetry_space_group_name_H-M "P 62 2 2"
_symmetry_group_IT_number 180
_symmetry_cell_setting 'hexagonal'
loop_
_space_group_symop_operation_xyz
x,y,z
x-y,x,1/3+z
-y,x-y,2/3+z
-x,-y,z
-x+y,-x,1/3+z
y,-x+y,2/3+z
x-y,-y,-z
-x,-x+y,1/3-z
y,x,2/3-z
-y,-x,2/3-z
-x+y,y,-z
x,x-y,1/3-z
loop_
_atom_site_type_symbol
_atom_site_label
_atom_site_fract_x
_atom_site_fract_y
_atom_site_fract_z
Si Si1 0.264631 0.854332 0.538380
Si Si2 0.308759 0.691242 0.833334
Si Si3 0.067289 0.830994 0.001242
Si Si4 0.710934 0.040236 0.799898
O O1 0.314893 0.734133 0.549835
O O2 0.233582 0.907493 0.602879
O O3 0.119625 0.762666 0.495769
O O4 0.369256 0.000000 0.500000
O O5 0.360203 0.858400 0.815494
O O6 0.056890 0.741015 0.939833
O O7 0.916383 0.832765 0.000000
O O8 0.196099 0.000000 0.000000
O O9 0.869195 0.130806 0.833334
#
# Coordination Sequence:
#
# PCOD9583955 Si02
#       4
#    12   6  12  12
#     4  12  23  42  67  93 134 171 220 273 334 394
#     4  10  25  44  61  90 136 178 212 266 337 402
#     4  11  21  36  66 104 126 162 223 280 331 382
#     4  10  22  41  65  96 127 168 214 278 326 390
#
# _framework density 20.156231999999999
#
# number of rings (size 3 to 8) (size 9 to 14) (size 15 to 20)
#    0.857    0.286    5.714    1.286    0.000    1.714 
#    0.000   10.000    0.000    0.000    0.000    0.000 
#    0.000    0.000    0.000    0.000    0.000    0.000 
#
# Total GULP energy -233841.970173 kJ/mol
# GULP energy per Si atom -5567.665956 kJ/mol
# Density = 2.011036 g / cm^3
# Si number density = 20.156232 Si / 1000 Ang^3
#
#
#
# Elastic Constant Matrix: (Units=GPa)
#
#
# Indices 1 2 3 4 5 6 
#
# 1 107.4487 37.4890 35.1561 0.0000 0.0000 0.0000
# 2 37.4890 107.4487 35.1561 0.0000 0.0000 0.0000
# 3 35.1561 35.1561 150.0464 0.0000 0.0000 0.0000
# 4 0.0000 0.0000 0.0000 -2.2398 0.0000 0.0000
# 5 0.0000 0.0000 0.0000 0.0000 -2.2398 0.0000
# 6 0.0000 0.0000 0.0000 0.0000 0.0000 34.9798
#
#
#
# Elastic Compliance Matrix: (Units=1/GPa)
#
#
# Indices 1 2 3 4 5 6 
#
# 1 0.011039 -0.003255 -0.001824 0.000000 0.000000 0.000000
# 2 -0.003255 0.011039 -0.001824 0.000000 0.000000 0.000000
# 3 -0.001824 -0.001824 0.007519 0.000000 0.000000 0.000000
# 4 0.000000 0.000000 0.000000 -0.446473 0.000000 0.000000
# 5 0.000000 0.000000 0.000000 0.000000 -0.446473 0.000000
# 6 0.000000 0.000000 0.000000 0.000000 0.000000 0.028588
#
#
# Mechanical properties :
#
#
# Convention : Reuss Voigt Hill
#
# Bulk Modulus (GPa) = 63.32162 64.50517 63.91339
# Shear Modulus (GPa) = -6.12977 23.24290 8.55656
#
# Velocity S-wave (km/s) = -1.74578 3.39947 2.06260
# Velocity P-wave (km/s) = 5.23641 6.89062 6.11966
#
# Compressibility (1/GPa) = 0.01579239
#
# Stress axis : x y z
#
# Youngs Moduli (GPa) = 90.58686 90.58686 132.99146
#
# Poissons Ratio (x) = 0.29484 0.24256
# Poissons Ratio (y) = 0.29484 0.24256
# Poissons Ratio (z) = 0.16522 0.16522
#
# Static dielectric constant tensor:
#      x y z
#    x 1.939420 0.000000 0.000000 
#    y 0.000000 1.939420 0.000000 
#    z 0.000000 0.000000 1.750500 
# 
# From -- ./inp_files/8531.got.cif
#   From: 2010.05.17/outbox.cif.g08.bks.cpg/sg180_5_cif.got.tgz:8531.got - 2010.05.20 11:43:55.
