data_PCOD9583820
_publ_section_title
;
Structure prediction by ZEFSAII (Michael W. Deem and Ramdas Pophale) SiO2 
 PCOD9583820
Probable space group: P 62 2 2
;
_chemical_formula_sum "Si O2"
_cell_formula_units_Z 60
_cell_length_a 17.075195
_cell_length_b 17.075195
_cell_length_c 12.300766
_cell_angle_alpha 90.000000
_cell_angle_beta 90.000000
_cell_angle_gamma 120.000000
_cell_volume 3105.947659
_symmetry_space_group_name_H-M "P 62 2 2"
_symmetry_group_IT_number 180
_symmetry_cell_setting 'hexagonal'
loop_
_space_group_symop_operation_xyz
x,y,z
x-y,x,1/3+z
-y,x-y,2/3+z
-x,-y,z
-x+y,-x,1/3+z
y,-x+y,2/3+z
x-y,-y,-z
-x,-x+y,1/3-z
y,x,2/3-z
-y,-x,2/3-z
-x+y,y,-z
x,x-y,1/3-z
loop_
_atom_site_type_symbol
_atom_site_label
_atom_site_fract_x
_atom_site_fract_y
_atom_site_fract_z
Si Si1 0.620038 0.148339 0.709407
Si Si2 0.044758 0.639140 0.365052
Si Si3 0.664672 0.923939 0.919424
Si Si4 0.314040 0.797112 0.957652
Si Si5 0.088748 0.816618 0.231421
O O1 0.513660 0.116531 0.701228
O O2 0.662913 0.176040 0.830617
O O3 0.696401 0.243555 0.659542
O O4 0.617837 0.057121 0.668747
O O5 0.036976 0.668171 0.487904
O O6 0.077209 0.724398 0.285180
O O7 0.694487 0.862014 0.856206
O O8 0.580665 0.860669 0.994158
O O9 0.736067 0.000000 0.000000
O O10 0.411300 0.822600 0.000000
O O11 0.115768 0.884233 0.333334
O O12 0.000000 0.793949 0.166667
#
# Coordination Sequence:
#
# PCOD9583820 Si02
#       5
#    12  12  12  12  12
#     4  10  21  35  56  86 124 168 213 260 308 364
#     4  10  20  39  60  86 126 166 211 262 317 374
#     4  11  21  37  63  91 117 164 208 260 312 374
#     4  11  21  34  54  86 126 164 217 264 306 361
#     4  10  23  43  66  94 126 160 204 259 320 387
#
# _framework density 19.317775999999999
#
# number of rings (size 3 to 8) (size 9 to 14) (size 15 to 20)
#    0.000    1.600    4.000    1.200    0.000    2.800 
#    0.000    6.000    0.000    1.800    0.000    0.000 
#    0.000    0.000    0.000    0.000    0.000    0.000 
#
# Total GULP energy -334035.103781 kJ/mol
# GULP energy per Si atom -5567.251730 kJ/mol
# Density = 1.927381 g / cm^3
# Si number density = 19.317776 Si / 1000 Ang^3
#
#
#
# Elastic Constant Matrix: (Units=GPa)
#
#
# Indices 1 2 3 4 5 6 
#
# 1 81.5682 15.7104 28.1711 0.0000 0.0000 0.0000
# 2 15.7104 81.5682 28.1711 0.0000 0.0000 0.0000
# 3 28.1711 28.1711 61.5904 0.0000 0.0000 0.0000
# 4 0.0000 0.0000 0.0000 -234.8435 0.0000 0.0000
# 5 0.0000 0.0000 0.0000 0.0000 -234.8435 0.0000
# 6 0.0000 0.0000 0.0000 0.0000 0.0000 32.9289
#
#
#
# Elastic Compliance Matrix: (Units=1/GPa)
#
#
# Indices 1 2 3 4 5 6 
#
# 1 0.014584 -0.000600 -0.006396 0.000000 0.000000 0.000000
# 2 -0.000600 0.014584 -0.006396 0.000000 0.000000 0.000000
# 3 -0.006396 -0.006396 0.022088 0.000000 0.000000 0.000000
# 4 0.000000 0.000000 0.000000 -0.004258 0.000000 0.000000
# 5 0.000000 0.000000 0.000000 0.000000 -0.004258 0.000000
# 6 0.000000 0.000000 0.000000 0.000000 0.000000 0.030368
#
#
# Mechanical properties :
#
#
# Convention : Reuss Voigt Hill
#
# Bulk Modulus (GPa) = 40.86480 40.98131 40.92306
# Shear Modulus (GPa) = 46.27449 -77.17336 -15.44944
#
# Velocity S-wave (km/s) = 4.89963 -6.32741 -2.83106
# Velocity P-wave (km/s) = 7.29441 5.66755 3.24709
#
# Compressibility (1/GPa) = 0.02447094
#
# Stress axis : x y z
#
# Youngs Moduli (GPa) = 68.56667 68.56667 45.27416
#
# Poissons Ratio (x) = 0.04113 0.28959
# Poissons Ratio (y) = 0.04113 0.28959
# Poissons Ratio (z) = 0.43858 0.43858
#
# Static dielectric constant tensor:
#      x y z
#    x 1.710170 0.000000 0.000000 
#    y 0.000000 1.710170 0.000000 
#    z 0.000000 0.000000 1.632700 
# 
# From -- ./inp_files/4841.got.cif
#   From: 2010.05.17/outbox.cif.g08.bks.cpg/sg180_3_cif.got.tgz:4841.got - 2010.05.20 11:43:55.
