data_PCOD9583173
_publ_section_title
;
Structure prediction by ZEFSAII (Michael W. Deem and Ramdas Pophale) SiO2 
 PCOD9583173
Probable space group: P 65 2 2
;
_chemical_formula_sum "Si O2"
_cell_formula_units_Z 84
_cell_length_a 20.915264
_cell_length_b 20.915264
_cell_length_c 12.188376
_cell_angle_alpha 90.000000
_cell_angle_beta 90.000000
_cell_angle_gamma 120.000000
_cell_volume 4617.460368
_symmetry_space_group_name_H-M "P 65 2 2"
_symmetry_group_IT_number 179
_symmetry_cell_setting 'hexagonal'
loop_
_space_group_symop_operation_xyz
x,y,z
x-y,x,5/6+z
-y,x-y,2/3+z
-x,-y,1/2+z
-x+y,-x,1/3+z
y,-x+y,1/6+z
x-y,-y,-z
-x,-x+y,1/3-z
y,x,2/3-z
-y,-x,1/6-z
-x+y,y,1/2-z
x,x-y,5/6-z
loop_
_atom_site_type_symbol
_atom_site_label
_atom_site_fract_x
_atom_site_fract_y
_atom_site_fract_z
Si Si1 0.233542 0.948258 0.162474
Si Si2 0.460600 0.291766 0.657420
Si Si3 0.587651 0.462659 0.318978
Si Si4 0.232483 0.568477 0.004706
Si Si5 0.408222 0.475226 0.165421
Si Si6 0.919131 0.364368 0.439131
Si Si7 0.889872 0.699503 0.080259
O O1 0.298121 0.934077 0.203930
O O2 0.162042 0.897258 0.236606
O O3 0.258676 0.034476 0.155580
O O4 0.218545 0.917141 0.037762
O O5 0.489646 0.348721 0.759890
O O6 0.527184 0.276480 0.630391
O O7 0.444623 0.327034 0.550882
O O8 0.383283 0.223974 0.699502
O O9 0.596202 0.396043 0.268098
O O10 0.510240 0.424083 0.382120
O O11 0.595431 0.517474 0.220604
O O12 0.269782 0.634891 0.916667
O O13 0.159960 0.503087 0.943517
O O14 0.457202 0.542799 0.083334
O O15 0.434809 0.417353 0.143399
#
# Coordination Sequence:
#
# PCOD9583173 Si02
#       7
#    12  12  12  12  12  12  12
#     4  10  19  31  54  84 111 152 168 227 282 339
#     4  11  20  36  54  74 101 148 192 235 281 338
#     4  10  23  39  51  73 110 140 185 244 279 336
#     4  10  23  36  52  75  99 143 191 234 286 337
#     4  10  22  34  51  76 100 138 185 226 290 340
#     4  11  19  34  57  79 101 141 188 228 295 336
#     4  10  19  32  55  81 117 145 180 218 282 340
#
# _framework density 18.191818000000001
#
# number of rings (size 3 to 8) (size 9 to 14) (size 15 to 20)
#    0.000    1.714    4.286    1.286    0.000    8.000 
#    7.714    0.000    0.000    0.000    0.000    0.000 
#    0.000    0.000   53.429    0.000    0.000    0.000 
#
# Total GULP energy -468610.559039 kJ/mol
# GULP energy per Si atom -5578.697131 kJ/mol
# Density = 1.815041 g / cm^3
# Si number density = 18.191818 Si / 1000 Ang^3
#
#
#
# Elastic Constant Matrix: (Units=GPa)
#
#
# Indices 1 2 3 4 5 6 
#
# 1 70.8980 25.4955 11.8472 0.0000 0.0000 0.0000
# 2 25.4955 70.8980 11.8472 0.0000 0.0000 0.0000
# 3 11.8472 11.8472 43.9386 0.0000 0.0000 0.0000
# 4 0.0000 0.0000 0.0000 15.1980 0.0000 0.0000
# 5 0.0000 0.0000 0.0000 0.0000 15.1980 0.0000
# 6 0.0000 0.0000 0.0000 0.0000 0.0000 22.7013
#
#
#
# Elastic Compliance Matrix: (Units=1/GPa)
#
#
# Indices 1 2 3 4 5 6 
#
# 1 0.016568 -0.005457 -0.002996 0.000000 0.000000 0.000000
# 2 -0.005457 0.016568 -0.002996 0.000000 0.000000 0.000000
# 3 -0.002996 -0.002996 0.024375 0.000000 0.000000 0.000000
# 4 0.000000 0.000000 0.000000 0.065798 0.000000 0.000000
# 5 0.000000 0.000000 0.000000 0.000000 0.065798 0.000000
# 6 0.000000 0.000000 0.000000 0.000000 0.000000 0.044050
#
#
# Mechanical properties :
#
#
# Convention : Reuss Voigt Hill
#
# Bulk Modulus (GPa) = 28.89119 31.56825 30.22972
# Shear Modulus (GPa) = 18.68514 19.72242 19.20378
#
# Velocity S-wave (km/s) = 3.20834 3.29620 3.25257
# Velocity P-wave (km/s) = 5.44431 5.64599 5.54607
#
# Compressibility (1/GPa) = 0.03461262
#
# Stress axis : x y z
#
# Youngs Moduli (GPa) = 60.35779 60.35779 41.02644
#
# Poissons Ratio (x) = 0.32939 0.12290
# Poissons Ratio (y) = 0.32939 0.12290
# Poissons Ratio (z) = 0.18082 0.18082
#
# Static dielectric constant tensor:
#      x y z
#    x 1.653680 0.000000 0.000000 
#    y 0.000000 1.653680 0.000000 
#    z 0.000000 0.000000 1.636330 
# 
# From -- ./inp_files/4914.got.cif
#   From: 2010.05.17/outbox.cif.g08.bks.cpg/sg179_3_cif.got.tgz:4914.got - 2010.05.20 11:37:33.
