data_PCOD9583013
_publ_section_title
;
Structure prediction by ZEFSAII (Michael W. Deem and Ramdas Pophale) SiO2 
 PCOD9583013
Probable space group: P 61 2 2
;
_chemical_formula_sum "Si O2"
_cell_formula_units_Z 36
_cell_length_a 7.992545
_cell_length_b 7.992545
_cell_length_c 27.197994
_cell_angle_alpha 90.000000
_cell_angle_beta 90.000000
_cell_angle_gamma 120.000000
_cell_volume 1504.657609
_symmetry_space_group_name_H-M "P 61 2 2"
_symmetry_group_IT_number 178
_symmetry_cell_setting 'hexagonal'
loop_
_space_group_symop_operation_xyz
x,y,z
x-y,x,1/6+z
-y,x-y,1/3+z
-x,-y,1/2+z
-x+y,-x,2/3+z
y,-x+y,5/6+z
x-y,-y,-z
-x,-x+y,2/3-z
y,x,1/3-z
-y,-x,5/6-z
-x+y,y,1/2-z
x,x-y,1/6-z
loop_
_atom_site_type_symbol
_atom_site_label
_atom_site_fract_x
_atom_site_fract_y
_atom_site_fract_z
Si Si1 0.507472 0.887027 0.451350
Si Si2 0.658660 0.697867 0.924259
Si Si3 0.041387 0.368117 0.704614
O O1 0.486791 0.209767 0.536861
O O2 0.521133 0.998759 0.400299
O O3 0.608674 0.000000 0.500000
O O4 0.587051 0.744969 0.439454
O O5 0.427801 0.572200 0.916667
O O6 0.691994 0.681077 0.981734
O O7 0.175837 0.264995 0.569989
#
# Coordination Sequence:
#
# PCOD9583013 Si02
#       3
#    12  12  12
#     4  11  24  49  74 109 159 201 253 336 393 464
#     4  12  25  44  77 111 147 208 262 317 405 471
#     4  11  24  46  75 107 155 203 254 328 392 466
#
# _framework density 23.925706999999999
#
# number of rings (size 3 to 8) (size 9 to 14) (size 15 to 20)
#    0.000    0.667    6.667    2.000    0.000    1.333 
#    0.000    3.333    0.000    0.000    0.000    0.000 
#    0.000    0.000    0.000    0.000    0.000    0.000 
#
# Total GULP energy -200737.980629 kJ/mol
# GULP energy per Si atom -5576.055017 kJ/mol
# Density = 2.387125 g / cm^3
# Si number density = 23.925707 Si / 1000 Ang^3
#
#
#
# Elastic Constant Matrix: (Units=GPa)
#
#
# Indices 1 2 3 4 5 6 
#
# 1 111.5938 52.0974 11.9490 0.0000 0.0000 0.0000
# 2 52.0974 111.5938 11.9490 0.0000 0.0000 0.0000
# 3 11.9490 11.9490 103.4954 0.0000 0.0000 0.0000
# 4 0.0000 0.0000 0.0000 25.9512 0.0000 0.0000
# 5 0.0000 0.0000 0.0000 0.0000 25.9512 0.0000
# 6 0.0000 0.0000 0.0000 0.0000 0.0000 29.7482
#
#
#
# Elastic Compliance Matrix: (Units=1/GPa)
#
#
# Indices 1 2 3 4 5 6 
#
# 1 0.011511 -0.005297 -0.000717 0.000000 0.000000 0.000000
# 2 -0.005297 0.011511 -0.000717 0.000000 0.000000 0.000000
# 3 -0.000717 -0.000717 0.009828 0.000000 0.000000 0.000000
# 4 0.000000 0.000000 0.000000 0.038534 0.000000 0.000000
# 5 0.000000 0.000000 0.000000 0.000000 0.038534 0.000000
# 6 0.000000 0.000000 0.000000 0.000000 0.000000 0.033615
#
#
# Mechanical properties :
#
#
# Convention : Reuss Voigt Hill
#
# Bulk Modulus (GPa) = 51.58389 53.18594 52.38491
# Shear Modulus (GPa) = 30.58884 33.04262 31.81573
#
# Velocity S-wave (km/s) = 3.57948 3.72028 3.65056
# Velocity P-wave (km/s) = 6.22016 6.38215 6.30168
#
# Compressibility (1/GPa) = 0.01938590
#
# Stress axis : x y z
#
# Youngs Moduli (GPa) = 86.87513 86.87513 101.75091
#
# Poissons Ratio (x) = 0.46017 0.07300
# Poissons Ratio (y) = 0.46017 0.07300
# Poissons Ratio (z) = 0.06232 0.06232
#
# Static dielectric constant tensor:
#      x y z
#    x 2.002280 0.000000 0.000000 
#    y 0.000000 2.002280 0.000000 
#    z 0.000000 0.000000 2.034240 
# 
# From -- ./inp_files/5121.got.cif
#   From: 2010.05.17/outbox.cif.g08.bks.cpg/sg178_3_cif.got.tgz:5121.got - 2010.05.20 11:30:59.
