data_PCOD9583999
_publ_section_title
;
Structure prediction by ZEFSAII (Michael W. Deem and Ramdas Pophale) SiO2 
 PCOD9583999
Probable space group: P 62 2 2
;
_chemical_formula_sum "Si O2"
_cell_formula_units_Z 51
_cell_length_a 18.622199
_cell_length_b 18.622199
_cell_length_c 9.314244
_cell_angle_alpha 90.000000
_cell_angle_beta 90.000000
_cell_angle_gamma 120.000000
_cell_volume 2797.307237
_symmetry_space_group_name_H-M "P 62 2 2"
_symmetry_group_IT_number 180
_symmetry_cell_setting 'hexagonal'
loop_
_space_group_symop_operation_xyz
x,y,z
x-y,x,1/3+z
-y,x-y,2/3+z
-x,-y,z
-x+y,-x,1/3+z
y,-x+y,2/3+z
x-y,-y,-z
-x,-x+y,1/3-z
y,x,2/3-z
-y,-x,2/3-z
-x+y,y,-z
x,x-y,1/3-z
loop_
_atom_site_type_symbol
_atom_site_label
_atom_site_fract_x
_atom_site_fract_y
_atom_site_fract_z
Si Si1 0.802710 0.225877 0.485162
Si Si2 0.231450 0.626118 0.503189
Si Si3 0.000000 0.500000 0.166667
Si Si4 0.318687 0.234181 0.254129
Si Si5 0.546097 0.888156 0.312265
O O1 0.809969 0.190032 0.333334
O O2 0.793439 0.306573 0.456974
O O3 0.869356 0.244858 0.608028
O O4 0.721588 0.154443 0.559399
O O5 0.330320 0.660640 0.500000
O O6 0.204706 0.602353 0.666667
O O7 0.185046 0.539800 0.419610
O O8 0.048648 0.474047 0.276871
O O9 0.248726 0.248726 0.333334
O O10 0.295263 0.147632 0.166667
O O11 0.379997 0.304602 0.139088
#
# Coordination Sequence:
#
# PCOD9583999 Si02
#       5
#    12  12   3  12  12
#     4  11  23  38  59  86 117 164 211 265 313 365
#     4  12  20  35  56  79 112 159 217 266 311 353
#     4  12  28  36  54  88 116 168 220 268 304 356
#     4  10  23  44  65  89 124 164 204 257 319 394
#     4  11  24  39  53  81 122 159 216 265 311 370
#
# _framework density 18.231819000000002
#
# number of rings (size 3 to 8) (size 9 to 14) (size 15 to 20)
#    0.000    0.941    4.706    2.824    8.235    0.000 
#    0.000    0.000    0.000    0.000    0.000    0.000 
#    0.000    4.706    0.000    0.000    0.000    0.000 
#
# Total GULP energy -284249.388714 kJ/mol
# GULP energy per Si atom -5573.517426 kJ/mol
# Density = 1.819032 g / cm^3
# Si number density = 18.231819 Si / 1000 Ang^3
#
#
#
# Elastic Constant Matrix: (Units=GPa)
#
#
# Indices 1 2 3 4 5 6 
#
# 1 48.0377 49.2468 30.1116 0.0000 0.0000 0.0000
# 2 49.2468 48.0377 30.1116 0.0000 0.0000 0.0000
# 3 30.1116 30.1116 147.3967 0.0000 0.0000 0.0000
# 4 0.0000 0.0000 0.0000 -57.9306 0.0000 0.0000
# 5 0.0000 0.0000 0.0000 0.0000 -57.9306 0.0000
# 6 0.0000 0.0000 0.0000 0.0000 0.0000 -0.6045
#
#
#
# Elastic Compliance Matrix: (Units=1/GPa)
#
#
# Indices 1 2 3 4 5 6 
#
# 1 -0.407668 0.419435 -0.002404 0.000000 0.000000 0.000000
# 2 0.419435 -0.407668 -0.002404 0.000000 0.000000 0.000000
# 3 -0.002404 -0.002404 0.007767 0.000000 0.000000 0.000000
# 4 0.000000 0.000000 0.000000 -0.017262 0.000000 0.000000
# 5 0.000000 0.000000 0.000000 0.000000 -0.017262 0.000000
# 6 0.000000 0.000000 0.000000 0.000000 0.000000 -1.654205
#
#
# Mechanical properties :
#
#
# Convention : Reuss Voigt Hill
#
# Bulk Modulus (GPa) = 46.11394 51.37912 48.74653
# Shear Modulus (GPa) = -1.50678 -14.35966 -7.93322
#
# Velocity S-wave (km/s) = -0.91008 -2.80949 -2.08824
# Velocity P-wave (km/s) = 4.92379 4.20926 4.58048
#
# Compressibility (1/GPa) = 0.02168542
#
# Stress axis : x y z
#
# Youngs Moduli (GPa) = -2.45298 -2.45298 128.75643
#
# Poissons Ratio (x) = 1.02886 0.30952
# Poissons Ratio (y) = 1.02886 0.30952
# Poissons Ratio (z) = -0.00590 -0.00590
#
# Static dielectric constant tensor:
#      x y z
#    x 1.777430 0.000000 0.000000 
#    y 0.000000 1.777430 0.000000 
#    z 0.000000 0.000000 1.557880 
# 
# From -- ./inp_files/2758.got.cif
#   From: 2010.05.17/outbox.cif.g08.bks.cpg/sg180_2_cif.got.tgz:2758.got - 2010.05.20 11:43:55.
