data_PCOD9583384
_publ_section_title
;
Structure prediction by ZEFSAII (Michael W. Deem and Ramdas Pophale) SiO2 
 PCOD9583384
Probable space group: P 65 2 2
;
_chemical_formula_sum "Si O2"
_cell_formula_units_Z 72
_cell_length_a 16.101802
_cell_length_b 16.101802
_cell_length_c 16.178280
_cell_angle_alpha 90.000000
_cell_angle_beta 90.000000
_cell_angle_gamma 120.000000
_cell_volume 3632.552863
_symmetry_space_group_name_H-M "P 65 2 2"
_symmetry_group_IT_number 179
_symmetry_cell_setting 'hexagonal'
loop_
_space_group_symop_operation_xyz
x,y,z
x-y,x,5/6+z
-y,x-y,2/3+z
-x,-y,1/2+z
-x+y,-x,1/3+z
y,-x+y,1/6+z
x-y,-y,-z
-x,-x+y,1/3-z
y,x,2/3-z
-y,-x,1/6-z
-x+y,y,1/2-z
x,x-y,5/6-z
loop_
_atom_site_type_symbol
_atom_site_label
_atom_site_fract_x
_atom_site_fract_y
_atom_site_fract_z
Si Si1 0.329147 0.521595 0.908077
Si Si2 0.528363 0.000000 0.500000
Si Si3 0.061004 0.264478 0.085982
Si Si4 0.596089 0.192178 0.750000
Si Si5 0.077301 0.038651 0.416667
Si Si6 0.482689 0.741345 0.916667
Si Si7 0.151116 0.732714 0.419932
Si Si8 0.972889 0.395779 0.323034
O O1 0.369727 0.467023 0.851152
O O2 0.254438 0.553854 0.874429
O O3 0.419321 0.627362 0.921846
O O4 0.287597 0.467828 0.996208
O O5 0.464054 0.995055 0.422076
O O6 0.176132 0.310205 0.087873
O O7 0.048639 0.337884 0.029114
O O8 0.000000 0.260947 0.166667
O O9 0.008849 0.152082 0.067751
O O10 0.512385 0.121847 0.690390
O O11 0.019618 0.019618 0.333334
O O12 0.538727 0.771990 0.829384
O O13 0.061800 0.630975 0.447757
#
# Coordination Sequence:
#
# PCOD9583384 Si02
#       8
#    12   6  12   6   6   6  12  12
#     4  11  25  43  63  96 137 181 229 275 334 412
#     4  12  24  42  64  92 132 184 228 278 332 410
#     4  11  21  39  66 102 132 161 214 287 357 414
#     4  11  26  42  63  98 132 182 227 286 335 412
#     4  10  22  41  67 104 130 168 213 288 373 430
#     4  11  22  39  66 102 132 174 218 282 340 400
#     4  12  23  42  68  98 135 177 226 284 351 413
#     4  12  22  40  63  97 134 171 220 279 344 409
#
# _framework density 19.820772000000002
#
# number of rings (size 3 to 8) (size 9 to 14) (size 15 to 20)
#    0.000    0.667    4.167    5.500    0.000    1.333 
#    0.000    0.000    1.833    0.000    0.000    0.000 
#    0.000    0.000    0.000    0.000    0.000    0.000 
#
# Total GULP energy -401040.135961 kJ/mol
# GULP energy per Si atom -5570.001888 kJ/mol
# Density = 1.977566 g / cm^3
# Si number density = 19.820772 Si / 1000 Ang^3
#
#
#
# Elastic Constant Matrix: (Units=GPa)
#
#
# Indices 1 2 3 4 5 6 
#
# 1 77.8639 94.0175 42.1535 0.0000 0.0000 0.0000
# 2 94.0175 77.8639 42.1535 0.0000 0.0000 0.0000
# 3 42.1535 42.1535 68.6296 0.0000 0.0000 0.0000
# 4 0.0000 0.0000 0.0000 31.5303 0.0000 0.0000
# 5 0.0000 0.0000 0.0000 0.0000 31.5303 0.0000
# 6 0.0000 0.0000 0.0000 0.0000 0.0000 -8.0768
#
#
#
# Elastic Compliance Matrix: (Units=1/GPa)
#
#
# Indices 1 2 3 4 5 6 
#
# 1 -0.026789 0.035116 -0.005114 0.000000 0.000000 0.000000
# 2 0.035116 -0.026789 -0.005114 0.000000 0.000000 0.000000
# 3 -0.005114 -0.005114 0.020854 0.000000 0.000000 0.000000
# 4 0.000000 0.000000 0.000000 0.031716 0.000000 0.000000
# 5 0.000000 0.000000 0.000000 0.000000 0.031716 0.000000
# 6 0.000000 0.000000 0.000000 0.000000 0.000000 -0.123811
#
#
# Mechanical properties :
#
#
# Convention : Reuss Voigt Hill
#
# Bulk Modulus (GPa) = 58.65309 64.55627 61.60468
# Shear Modulus (GPa) = -36.44399 14.06561 -11.18919
#
# Velocity S-wave (km/s) = -4.29263 2.66680 -2.37854
# Velocity P-wave (km/s) = 2.25545 6.49023 4.85851
#
# Compressibility (1/GPa) = 0.01704940
#
# Stress axis : x y z
#
# Youngs Moduli (GPa) = -37.32812 -37.32812 47.95356
#
# Poissons Ratio (x) = 1.31081 0.24525
# Poissons Ratio (y) = 1.31081 0.24525
# Poissons Ratio (z) = -0.19091 -0.19091
#
# Static dielectric constant tensor:
#      x y z
#    x 1.750390 0.000000 0.000000 
#    y 0.000000 1.750390 0.000000 
#    z 0.000000 0.000000 1.719210 
# 
# From -- ./inp_files/6896.got.cif
#   From: 2010.05.17/outbox.cif.g08.bks.cpg/sg179_4_cif.got.tgz:6896.got - 2010.05.20 11:37:33.
