data_PCOD9583588
_publ_section_title
;
Structure prediction by ZEFSAII (Michael W. Deem and Ramdas Pophale) SiO2 
 PCOD9583588
Probable space group: P 65 2 2
;
_chemical_formula_sum "Si O2"
_cell_formula_units_Z 36
_cell_length_a 7.612552
_cell_length_b 7.612552
_cell_length_c 30.687595
_cell_angle_alpha 90.000000
_cell_angle_beta 90.000000
_cell_angle_gamma 120.000000
_cell_volume 1540.118119
_symmetry_space_group_name_H-M "P 65 2 2"
_symmetry_group_IT_number 179
_symmetry_cell_setting 'hexagonal'
loop_
_space_group_symop_operation_xyz
x,y,z
x-y,x,5/6+z
-y,x-y,2/3+z
-x,-y,1/2+z
-x+y,-x,1/3+z
y,-x+y,1/6+z
x-y,-y,-z
-x,-x+y,1/3-z
y,x,2/3-z
-y,-x,1/6-z
-x+y,y,1/2-z
x,x-y,5/6-z
loop_
_atom_site_type_symbol
_atom_site_label
_atom_site_fract_x
_atom_site_fract_y
_atom_site_fract_z
Si Si1 0.388797 0.732344 0.201111
Si Si2 0.000000 0.258836 0.666667
Si Si3 0.981106 0.962212 0.250000
Si Si4 0.035187 0.769551 0.521604
O O1 0.404943 0.809885 0.250000
O O2 0.195890 0.729739 0.179761
O O3 0.324834 0.497471 0.201576
O O4 0.599727 0.869467 0.176569
O O5 0.074587 0.182771 0.708318
O O6 0.203244 0.129284 0.231096
O O7 0.171128 0.000000 0.500000
#
# Coordination Sequence:
#
# PCOD9583588 Si02
#       4
#    12   6   6  12
#     4  12  28  52  82 123 164 223 287 355 447 520
#     4  12  28  50  86 122 172 228 292 362 442 534
#     4  12  26  48  80 116 166 220 284 358 428 512
#     4  12  26  51  78 115 166 217 276 353 425 520
#
# _framework density 23.374829999999999
#
# number of rings (size 3 to 8) (size 9 to 14) (size 15 to 20)
#    0.000    0.000    5.000    4.000    4.667    0.000 
#    3.000    0.000    0.000    0.000    0.000    0.000 
#    0.000    0.000    0.000    0.000    0.000    0.000 
#
# Total GULP energy -200726.565130 kJ/mol
# GULP energy per Si atom -5575.737920 kJ/mol
# Density = 2.332163 g / cm^3
# Si number density = 23.374830 Si / 1000 Ang^3
#
#
#
# Elastic Constant Matrix: (Units=GPa)
#
#
# Indices 1 2 3 4 5 6 
#
# 1 139.0838 38.9446 32.9134 0.0000 0.0000 0.0000
# 2 38.9446 139.0838 32.9134 0.0000 0.0000 0.0000
# 3 32.9134 32.9134 89.5479 0.0000 0.0000 0.0000
# 4 0.0000 0.0000 0.0000 37.2910 0.0000 0.0000
# 5 0.0000 0.0000 0.0000 0.0000 37.2910 0.0000
# 6 0.0000 0.0000 0.0000 0.0000 0.0000 50.0696
#
#
#
# Elastic Compliance Matrix: (Units=1/GPa)
#
#
# Indices 1 2 3 4 5 6 
#
# 1 0.008243 -0.001743 -0.002389 0.000000 0.000000 0.000000
# 2 -0.001743 0.008243 -0.002389 0.000000 0.000000 0.000000
# 3 -0.002389 -0.002389 0.012924 0.000000 0.000000 0.000000
# 4 0.000000 0.000000 0.000000 0.026816 0.000000 0.000000
# 5 0.000000 0.000000 0.000000 0.000000 0.026816 0.000000
# 6 0.000000 0.000000 0.000000 0.000000 0.000000 0.019972
#
#
# Mechanical properties :
#
#
# Convention : Reuss Voigt Hill
#
# Bulk Modulus (GPa) = 61.09657 64.13979 62.61818
# Shear Modulus (GPa) = 41.14783 42.45993 41.80388
#
# Velocity S-wave (km/s) = 4.20020 4.26664 4.23355
# Velocity P-wave (km/s) = 7.05101 7.19525 7.12349
#
# Compressibility (1/GPa) = 0.01636753
#
# Stress axis : x y z
#
# Youngs Moduli (GPa) = 121.31042 121.31042 77.37803
#
# Poissons Ratio (x) = 0.21142 0.18488
# Poissons Ratio (y) = 0.21142 0.18488
# Poissons Ratio (z) = 0.28984 0.28984
#
# Static dielectric constant tensor:
#      x y z
#    x 1.883880 0.000000 0.000000 
#    y 0.000000 1.883880 0.000000 
#    z 0.000000 0.000000 1.894750 
# 
# From -- ./inp_files/8626.got.cif
#   From: 2010.05.17/outbox.cif.g08.bks.cpg/sg179_5_cif.got.tgz:8626.got - 2010.05.20 11:37:33.
