data_PCOD9583628
_publ_section_title
;
Structure prediction by ZEFSAII (Michael W. Deem and Ramdas Pophale) SiO2 
 PCOD9583628
Probable space group: P 62 2 2
;
_chemical_formula_sum "Si O2"
_cell_formula_units_Z 66
_cell_length_a 14.015744
_cell_length_b 14.015744
_cell_length_c 25.610925
_cell_angle_alpha 90.000000
_cell_angle_beta 90.000000
_cell_angle_gamma 120.000000
_cell_volume 4357.006511
_symmetry_space_group_name_H-M "P 62 2 2"
_symmetry_group_IT_number 180
_symmetry_cell_setting 'hexagonal'
loop_
_space_group_symop_operation_xyz
x,y,z
x-y,x,1/3+z
-y,x-y,2/3+z
-x,-y,z
-x+y,-x,1/3+z
y,-x+y,2/3+z
x-y,-y,-z
-x,-x+y,1/3-z
y,x,2/3-z
-y,-x,2/3-z
-x+y,y,-z
x,x-y,1/3-z
loop_
_atom_site_type_symbol
_atom_site_label
_atom_site_fract_x
_atom_site_fract_y
_atom_site_fract_z
Si Si1 0.545148 0.668156 0.188833
Si Si2 0.344011 0.500876 0.035595
Si Si3 0.807570 0.334176 0.118218
Si Si4 0.877335 0.552617 0.845477
Si Si5 0.415539 0.676871 0.279168
Si Si6 0.500000 0.500000 0.710050
O O1 0.568798 0.784399 0.166667
O O2 0.432073 0.568701 0.164309
O O3 0.637673 0.636951 0.175506
O O4 0.512450 0.672113 0.248793
O O5 0.307259 0.443675 0.092036
O O6 0.428973 0.632023 0.045142
O O7 0.249213 0.498425 0.000000
O O8 0.399064 0.453675 0.996900
O O9 0.826678 0.413339 0.166667
O O10 0.774835 0.217050 0.144922
O O11 0.696418 0.310958 0.088420
O O12 0.909184 0.401671 0.079217
O O13 0.387124 0.612877 0.333334
#
# Coordination Sequence:
#
# PCOD9583628 Si02
#       6
#    12  12  12  12  12   6
#     4  10  18  29  48  71  96 141 179 201 243 303
#     4  11  19  32  49  73  99 133 168 212 254 297
#     4  11  19  32  47  70 101 135 163 205 258 303
#     4  10  19  32  48  69 102 137 174 209 247 308
#     4  10  17  31  47  64 102 133 167 205 243 293
#     4  12  21  28  52  74  96 134 169 208 258 302
#
# _framework density 15.148014999999999
#
# number of rings (size 3 to 8) (size 9 to 14) (size 15 to 20)
#    0.000    1.455    7.273    2.455    0.000    0.000 
#    0.000    7.273    0.000    0.000    0.000    0.000 
#    0.000   13.091    0.000    0.000    0.000    0.000 
#
# Total GULP energy -367431.843527 kJ/mol
# GULP energy per Si atom -5567.149144 kJ/mol
# Density = 1.511354 g / cm^3
# Si number density = 15.148015 Si / 1000 Ang^3
#
#
#
# Elastic Constant Matrix: (Units=GPa)
#
#
# Indices 1 2 3 4 5 6 
#
# 1 59.9401 32.3945 29.5477 0.0000 0.0000 0.0000
# 2 32.3945 59.9401 29.5477 0.0000 0.0000 0.0000
# 3 29.5477 29.5477 112.7338 0.0000 0.0000 0.0000
# 4 0.0000 0.0000 0.0000 3.8494 0.0000 0.0000
# 5 0.0000 0.0000 0.0000 0.0000 3.8494 0.0000
# 6 0.0000 0.0000 0.0000 0.0000 0.0000 13.7728
#
#
#
# Elastic Compliance Matrix: (Units=1/GPa)
#
#
# Indices 1 2 3 4 5 6 
#
# 1 0.024658 -0.011645 -0.003411 0.000000 0.000000 0.000000
# 2 -0.011645 0.024658 -0.003411 0.000000 0.000000 0.000000
# 3 -0.003411 -0.003411 0.010658 0.000000 0.000000 0.000000
# 4 0.000000 0.000000 0.000000 0.259779 0.000000 0.000000
# 5 0.000000 0.000000 0.000000 0.000000 0.259779 0.000000
# 6 0.000000 0.000000 0.000000 0.000000 0.000000 0.072607
#
#
# Mechanical properties :
#
#
# Convention : Reuss Voigt Hill
#
# Bulk Modulus (GPa) = 43.39981 46.17710 44.78846
# Shear Modulus (GPa) = 7.17614 13.70259 10.43937
#
# Velocity S-wave (km/s) = 2.17891 3.01089 2.62803
# Velocity P-wave (km/s) = 5.91970 6.52973 6.23218
#
# Compressibility (1/GPa) = 0.02304157
#
# Stress axis : x y z
#
# Youngs Moduli (GPa) = 40.55429 40.55429 93.82280
#
# Poissons Ratio (x) = 0.47226 0.32001
# Poissons Ratio (y) = 0.47226 0.32001
# Poissons Ratio (z) = 0.13832 0.13832
#
# Static dielectric constant tensor:
#      x y z
#    x 1.573040 0.000000 0.000000 
#    y 0.000000 1.573040 0.000000 
#    z 0.000000 0.000000 1.547600 
# 
# From -- ./inp_files/10171.got.cif
#   From: 2010.05.17/outbox.cif.g08.bks.cpg/sg180_6_cif.got.tgz:10171.got - 2010.05.20 11:43:55.
