data_PCOD9583581
_publ_section_title
;
Structure prediction by ZEFSAII (Michael W. Deem and Ramdas Pophale) SiO2 
 PCOD9583581
Probable space group: P 65 2 2
;
_chemical_formula_sum "Si O2"
_cell_formula_units_Z 42
_cell_length_a 8.042100
_cell_length_b 8.042100
_cell_length_c 27.804958
_cell_angle_alpha 90.000000
_cell_angle_beta 90.000000
_cell_angle_gamma 120.000000
_cell_volume 1557.370031
_symmetry_space_group_name_H-M "P 65 2 2"
_symmetry_group_IT_number 179
_symmetry_cell_setting 'hexagonal'
loop_
_space_group_symop_operation_xyz
x,y,z
x-y,x,5/6+z
-y,x-y,2/3+z
-x,-y,1/2+z
-x+y,-x,1/3+z
y,-x+y,1/6+z
x-y,-y,-z
-x,-x+y,1/3-z
y,x,2/3-z
-y,-x,1/6-z
-x+y,y,1/2-z
x,x-y,5/6-z
loop_
_atom_site_type_symbol
_atom_site_label
_atom_site_fract_x
_atom_site_fract_y
_atom_site_fract_z
Si Si1 0.064197 0.128393 0.750000
Si Si2 0.914677 0.690054 0.576651
Si Si3 0.000000 0.575915 0.666667
Si Si4 0.507540 0.015079 0.750000
Si Si5 0.474574 0.150753 0.851508
O O1 0.233125 0.272626 0.713985
O O2 0.090902 0.965933 0.777630
O O3 0.057905 0.718342 0.621051
O O4 0.706142 0.589269 0.602939
O O5 0.900705 0.527624 0.541153
O O6 0.840845 0.371922 0.645381
O O7 0.488678 0.125337 0.794899
#
# Coordination Sequence:
#
# PCOD9583581 Si02
#       5
#     6  12   6   6  12
#     4  12  29  55  88 120 184 238 295 389 466 546
#     4  12  29  51  83 127 166 230 304 362 459 549
#     4  12  24  52  82 118 178 222 292 388 432 556
#     4  12  29  49  86 118 168 230 293 367 448 552
#     4  12  28  58  81 127 180 237 300 379 466 545
#
# _framework density 26.968543
#
# number of rings (size 3 to 8) (size 9 to 14) (size 15 to 20)
#    0.000    0.000    5.714    1.714    8.000    2.286 
#    0.000    0.000    0.000    0.000    0.000    0.000 
#    0.000    0.000    0.000    0.000    0.000    0.000 
#
# Total GULP energy -234585.434446 kJ/mol
# GULP energy per Si atom -5585.367487 kJ/mol
# Density = 2.690716 g / cm^3
# Si number density = 26.968543 Si / 1000 Ang^3
#
#
#
# Elastic Constant Matrix: (Units=GPa)
#
#
# Indices 1 2 3 4 5 6 
#
# 1 141.8028 50.2516 48.2183 0.0000 0.0000 0.0000
# 2 50.2516 141.8028 48.2183 0.0000 0.0000 0.0000
# 3 48.2183 48.2183 182.7914 0.0000 0.0000 0.0000
# 4 0.0000 0.0000 0.0000 38.6552 0.0000 0.0000
# 5 0.0000 0.0000 0.0000 0.0000 38.6552 0.0000
# 6 0.0000 0.0000 0.0000 0.0000 0.0000 45.7756
#
#
#
# Elastic Compliance Matrix: (Units=1/GPa)
#
#
# Indices 1 2 3 4 5 6 
#
# 1 0.008462 -0.002461 -0.001583 0.000000 0.000000 0.000000
# 2 -0.002461 0.008462 -0.001583 0.000000 0.000000 0.000000
# 3 -0.001583 -0.001583 0.006306 0.000000 0.000000 0.000000
# 4 0.000000 0.000000 0.000000 0.025870 0.000000 0.000000
# 5 0.000000 0.000000 0.000000 0.000000 0.025870 0.000000
# 6 0.000000 0.000000 0.000000 0.000000 0.000000 0.021846
#
#
# Mechanical properties :
#
#
# Convention : Reuss Voigt Hill
#
# Bulk Modulus (GPa) = 83.49476 84.41927 83.95701
# Shear Modulus (GPa) = 44.61813 45.93110 45.27461
#
# Velocity S-wave (km/s) = 4.07191 4.13138 4.10175
# Velocity P-wave (km/s) = 7.28934 7.35721 7.32336
#
# Compressibility (1/GPa) = 0.01197680
#
# Stress axis : x y z
#
# Youngs Moduli (GPa) = 118.17053 118.17053 158.57949
#
# Poissons Ratio (x) = 0.29076 0.25107
# Poissons Ratio (y) = 0.29076 0.25107
# Poissons Ratio (z) = 0.18709 0.18709
#
# Static dielectric constant tensor:
#      x y z
#    x 2.277550 0.000000 0.000000 
#    y 0.000000 2.277550 0.000000 
#    z 0.000000 0.000000 2.107000 
# 
# From -- ./inp_files/9342.got.cif
#   From: 2010.05.17/outbox.cif.g08.bks.cpg/sg179_5_cif.got.tgz:9342.got - 2010.05.20 11:37:33.
