data_PCOD9583193
_publ_section_title
;
Structure prediction by ZEFSAII (Michael W. Deem and Ramdas Pophale) SiO2 
 PCOD9583193
Probable space group: P 65 2 2
;
_chemical_formula_sum "Si O2"
_cell_formula_units_Z 84
_cell_length_a 21.076288
_cell_length_b 21.076288
_cell_length_c 12.610186
_cell_angle_alpha 90.000000
_cell_angle_beta 90.000000
_cell_angle_gamma 120.000000
_cell_volume 4851.101628
_symmetry_space_group_name_H-M "P 65 2 2"
_symmetry_group_IT_number 179
_symmetry_cell_setting 'hexagonal'
loop_
_space_group_symop_operation_xyz
x,y,z
x-y,x,5/6+z
-y,x-y,2/3+z
-x,-y,1/2+z
-x+y,-x,1/3+z
y,-x+y,1/6+z
x-y,-y,-z
-x,-x+y,1/3-z
y,x,2/3-z
-y,-x,1/6-z
-x+y,y,1/2-z
x,x-y,5/6-z
loop_
_atom_site_type_symbol
_atom_site_label
_atom_site_fract_x
_atom_site_fract_y
_atom_site_fract_z
Si Si1 0.070094 0.640406 0.238504
Si Si2 0.886715 0.578024 0.545947
Si Si3 0.454105 0.851314 0.966705
Si Si4 0.051290 0.408260 0.348820
Si Si5 0.792334 0.575563 0.123192
Si Si6 0.718279 0.410994 0.125881
Si Si7 0.079657 0.778016 0.613326
O O1 0.107631 0.593991 0.193467
O O2 0.052055 0.624064 0.362220
O O3 0.123149 0.728336 0.235074
O O4 0.000000 0.616697 0.166667
O O5 0.848330 0.496231 0.594693
O O6 0.857261 0.597407 0.439626
O O7 0.884770 0.632539 0.633934
O O8 0.969696 0.596113 0.530414
O O9 0.518367 0.893645 0.881417
O O10 0.392737 0.769790 0.935340
O O11 0.069245 0.343475 0.321323
O O12 0.789694 0.579387 0.250000
O O13 0.757398 0.492166 0.082541
O O14 0.638499 0.361502 0.083334
O O15 0.708564 0.417127 0.250000
O O16 0.137877 0.862124 0.583334
O O17 0.000000 0.755901 0.666667
#
# Coordination Sequence:
#
# PCOD9583193 Si02
#       7
#    12  12  12  12  12  12  12
#     4  11  21  34  50  72 100 129 172 220 265 321
#     4  10  19  35  53  71 101 133 168 213 266 321
#     4  10  21  33  50  73  97 131 172 218 272 320
#     4  10  20  33  51  75 100 131 169 212 262 318
#     4  10  21  35  50  69  93 128 168 209 262 315
#     4  10  21  34  47  66  92 126 171 215 260 311
#     4   9  18  32  52  78 106 134 165 203 253 312
#
# _framework density 17.315655
#
# number of rings (size 3 to 8) (size 9 to 14) (size 15 to 20)
#    0.000    2.000    0.000    5.143    0.000    5.714 
#    0.000    5.714    0.000    0.000    0.000    0.000 
#    0.000   14.857    0.000    0.000    0.000    0.000 
#
# Total GULP energy -467649.499821 kJ/mol
# GULP energy per Si atom -5567.255950 kJ/mol
# Density = 1.727624 g / cm^3
# Si number density = 17.315655 Si / 1000 Ang^3
#
#
#
# Elastic Constant Matrix: (Units=GPa)
#
#
# Indices 1 2 3 4 5 6 
#
# 1 37.3039 29.0909 10.4890 0.0000 0.0000 0.0000
# 2 29.0909 37.3039 10.4890 0.0000 0.0000 0.0000
# 3 10.4890 10.4890 69.1417 0.0000 0.0000 0.0000
# 4 0.0000 0.0000 0.0000 19.6111 0.0000 0.0000
# 5 0.0000 0.0000 0.0000 0.0000 19.6111 0.0000
# 6 0.0000 0.0000 0.0000 0.0000 0.0000 4.1065
#
#
#
# Elastic Compliance Matrix: (Units=1/GPa)
#
#
# Indices 1 2 3 4 5 6 
#
# 1 0.068789 -0.052969 -0.002400 0.000000 0.000000 0.000000
# 2 -0.052969 0.068789 -0.002400 0.000000 0.000000 0.000000
# 3 -0.002400 -0.002400 0.015191 0.000000 0.000000 0.000000
# 4 0.000000 0.000000 0.000000 0.050992 0.000000 0.000000
# 5 0.000000 0.000000 0.000000 0.000000 0.050992 0.000000
# 6 0.000000 0.000000 0.000000 0.000000 0.000000 0.243517
#
#
# Mechanical properties :
#
#
# Convention : Reuss Voigt Hill
#
# Bulk Modulus (GPa) = 26.85933 27.09858 26.97896
# Shear Modulus (GPa) = 7.98445 14.91110 11.44777
#
# Velocity S-wave (km/s) = 2.14968 2.93769 2.57402
# Velocity P-wave (km/s) = 4.65905 5.21445 4.94455
#
# Compressibility (1/GPa) = 0.03723100
#
# Stress axis : x y z
#
# Youngs Moduli (GPa) = 14.53721 14.53721 65.82764
#
# Poissons Ratio (x) = 0.77003 0.15798
# Poissons Ratio (y) = 0.77003 0.15798
# Poissons Ratio (z) = 0.03489 0.03489
#
# Static dielectric constant tensor:
#      x y z
#    x 1.620310 0.000000 0.000000 
#    y 0.000000 1.620310 0.000000 
#    z 0.000000 0.000000 1.638170 
# 
# From -- ./inp_files/4937.got.cif
#   From: 2010.05.17/outbox.cif.g08.bks.cpg/sg179_3_cif.got.tgz:4937.got - 2010.05.20 11:37:33.
