data_PCOD9583382
_publ_section_title
;
Structure prediction by ZEFSAII (Michael W. Deem and Ramdas Pophale) SiO2 
 PCOD9583382
Probable space group: P 65 2 2
;
_chemical_formula_sum "Si O2"
_cell_formula_units_Z 60
_cell_length_a 14.143582
_cell_length_b 14.143582
_cell_length_c 15.593302
_cell_angle_alpha 90.000000
_cell_angle_beta 90.000000
_cell_angle_gamma 120.000000
_cell_volume 2701.391613
_symmetry_space_group_name_H-M "P 65 2 2"
_symmetry_group_IT_number 179
_symmetry_cell_setting 'hexagonal'
loop_
_space_group_symop_operation_xyz
x,y,z
x-y,x,5/6+z
-y,x-y,2/3+z
-x,-y,1/2+z
-x+y,-x,1/3+z
y,-x+y,1/6+z
x-y,-y,-z
-x,-x+y,1/3-z
y,x,2/3-z
-y,-x,1/6-z
-x+y,y,1/2-z
x,x-y,5/6-z
loop_
_atom_site_type_symbol
_atom_site_label
_atom_site_fract_x
_atom_site_fract_y
_atom_site_fract_z
Si Si1 0.000000 0.928519 0.666667
Si Si2 0.765504 0.061538 0.175378
Si Si3 0.399792 0.968812 0.814515
Si Si4 0.580418 0.882236 0.058266
Si Si5 0.288921 0.584552 0.499674
Si Si6 0.000000 0.470447 0.666667
O O1 0.993711 0.987421 0.750000
O O2 0.882884 0.815468 0.661305
O O3 0.692866 0.019760 0.262338
O O4 0.800965 0.188718 0.179043
O O5 0.689510 0.988107 0.096731
O O6 0.501752 0.003504 0.750000
O O7 0.360757 0.842166 0.834856
O O8 0.424484 0.016645 0.910838
O O9 0.510752 0.824986 0.142725
O O10 0.500963 0.903889 0.998946
O O11 0.349078 0.650923 0.583334
O O12 0.323210 0.661605 0.416667
#
# Coordination Sequence:
#
# PCOD9583382 Si02
#       6
#     6  12  12  12  12   6
#     4  12  25  46  77 106 144 186 256 333 395 448
#     4  11  23  42  67 106 141 184 244 328 379 447
#     4  10  22  41  62  99 147 178 234 302 369 447
#     4  11  24  38  69  98 143 180 238 305 379 445
#     4  10  22  41  63  93 133 181 226 282 354 445
#     4  12  23  38  67  98 132 196 224 291 375 462
#
# _framework density 22.210775000000002
#
# number of rings (size 3 to 8) (size 9 to 14) (size 15 to 20)
#    0.000    1.200    4.000    1.800    2.800    0.000 
#    0.000    1.000    0.000    0.000    0.000    0.000 
#    0.000    0.000    0.000    0.000    0.000    0.000 
#
# Total GULP energy -334528.414582 kJ/mol
# GULP energy per Si atom -5575.473576 kJ/mol
# Density = 2.216022 g / cm^3
# Si number density = 22.210775 Si / 1000 Ang^3
#
#
#
# Elastic Constant Matrix: (Units=GPa)
#
#
# Indices 1 2 3 4 5 6 
#
# 1 73.1049 24.2089 40.7733 0.0000 0.0000 0.0000
# 2 24.2089 73.1049 40.7733 0.0000 0.0000 0.0000
# 3 40.7733 40.7733 161.8828 0.0000 0.0000 0.0000
# 4 0.0000 0.0000 0.0000 40.0678 0.0000 0.0000
# 5 0.0000 0.0000 0.0000 0.0000 40.0678 0.0000
# 6 0.0000 0.0000 0.0000 0.0000 0.0000 24.4480
#
#
#
# Elastic Compliance Matrix: (Units=1/GPa)
#
#
# Indices 1 2 3 4 5 6 
#
# 1 0.016738 -0.003713 -0.003281 0.000000 0.000000 0.000000
# 2 -0.003713 0.016738 -0.003281 0.000000 0.000000 0.000000
# 3 -0.003281 -0.003281 0.007830 0.000000 0.000000 0.000000
# 4 0.000000 0.000000 0.000000 0.024958 0.000000 0.000000
# 5 0.000000 0.000000 0.000000 0.000000 0.024958 0.000000
# 6 0.000000 0.000000 0.000000 0.000000 0.000000 0.040903
#
#
# Mechanical properties :
#
#
# Convention : Reuss Voigt Hill
#
# Bulk Modulus (GPa) = 48.17511 57.73376 52.95443
# Shear Modulus (GPa) = 31.32963 34.40584 32.86773
#
# Velocity S-wave (km/s) = 3.75982 3.94008 3.85100
# Velocity P-wave (km/s) = 6.37066 6.83732 6.60811
#
# Compressibility (1/GPa) = 0.02075761
#
# Stress axis : x y z
#
# Youngs Moduli (GPa) = 59.74305 59.74305 127.71574
#
# Poissons Ratio (x) = 0.22184 0.41899
# Poissons Ratio (y) = 0.22184 0.41899
# Poissons Ratio (z) = 0.19599 0.19599
#
# Static dielectric constant tensor:
#      x y z
#    x 1.892010 0.000000 0.000000 
#    y 0.000000 1.892010 0.000000 
#    z 0.000000 0.000000 1.868700 
# 
# From -- ./inp_files/5858.got.cif
#   From: 2010.05.17/outbox.cif.g08.bks.cpg/sg179_3_cif.got.tgz:5858.got - 2010.05.20 11:37:33.
