data_PCOD9583558
_publ_section_title
;
Structure prediction by ZEFSAII (Michael W. Deem and Ramdas Pophale) SiO2 
 PCOD9583558
Probable space group: P 65 2 2
;
_chemical_formula_sum "Si O2"
_cell_formula_units_Z 72
_cell_length_a 11.369920
_cell_length_b 11.369920
_cell_length_c 30.723951
_cell_angle_alpha 90.000000
_cell_angle_beta 90.000000
_cell_angle_gamma 120.000000
_cell_volume 3439.715421
_symmetry_space_group_name_H-M "P 65 2 2"
_symmetry_group_IT_number 179
_symmetry_cell_setting 'hexagonal'
loop_
_space_group_symop_operation_xyz
x,y,z
x-y,x,5/6+z
-y,x-y,2/3+z
-x,-y,1/2+z
-x+y,-x,1/3+z
y,-x+y,1/6+z
x-y,-y,-z
-x,-x+y,1/3-z
y,x,2/3-z
-y,-x,1/6-z
-x+y,y,1/2-z
x,x-y,5/6-z
loop_
_atom_site_type_symbol
_atom_site_label
_atom_site_fract_x
_atom_site_fract_y
_atom_site_fract_z
Si Si1 0.293315 0.525113 0.942044
Si Si2 0.024181 0.048361 0.250000
Si Si3 0.000000 0.600967 0.666667
Si Si4 0.515887 0.546913 0.742643
Si Si5 0.994568 0.260101 0.406416
Si Si6 0.516753 0.223316 0.211966
Si Si7 0.698231 0.799312 0.975310
O O1 0.325471 0.662736 0.916667
O O2 0.391035 0.468380 0.927916
O O3 0.140568 0.411606 0.928883
O O4 0.323353 0.543736 0.994108
O O5 0.107960 0.969777 0.253851
O O6 0.056847 0.152991 0.290112
O O7 0.932954 0.502948 0.626680
O O8 0.115576 0.737647 0.644866
O O9 0.451211 0.622902 0.717823
O O10 0.669341 0.625813 0.722519
O O11 0.108124 0.361701 0.441217
O O12 0.054267 0.300025 0.357754
O O13 0.599137 0.198274 0.250000
#
# Coordination Sequence:
#
# PCOD9583558 Si02
#       7
#    12   6   6  12  12  12  12
#     4  12  29  47  70 102 146 185 237 299 362 422
#     4  12  20  36  70 102 136 172 226 294 348 412
#     4  12  20  36  70 102 136 162 228 302 344 400
#     4  12  25  42  69 102 134 183 234 289 355 412
#     4  12  23  42  68 100 140 187 233 289 354 426
#     4  12  26  46  76 101 140 191 242 290 355 433
#     4  12  17  37  66 107 128 164 229 293 339 405
#
# _framework density 20.931965000000002
#
# number of rings (size 3 to 8) (size 9 to 14) (size 15 to 20)
#    0.000    0.000    8.333    2.500    4.667    0.000 
#    1.500    0.000    3.667    0.000    0.000    0.000 
#    0.000    0.000    0.000    0.000    0.000    0.000 
#
# Total GULP energy -401807.314233 kJ/mol
# GULP energy per Si atom -5580.657142 kJ/mol
# Density = 2.088432 g / cm^3
# Si number density = 20.931965 Si / 1000 Ang^3
#
#
#
# Elastic Constant Matrix: (Units=GPa)
#
#
# Indices 1 2 3 4 5 6 
#
# 1 67.5357 6.4281 10.6068 0.0000 0.0000 0.0000
# 2 6.4281 67.5357 10.6068 0.0000 0.0000 0.0000
# 3 10.6068 10.6068 131.8710 0.0000 0.0000 0.0000
# 4 0.0000 0.0000 0.0000 15.3793 0.0000 0.0000
# 5 0.0000 0.0000 0.0000 0.0000 15.3792 0.0000
# 6 0.0000 0.0000 0.0000 0.0000 0.0000 30.5538
#
#
#
# Elastic Compliance Matrix: (Units=1/GPa)
#
#
# Indices 1 2 3 4 5 6 
#
# 1 0.015102 -0.001263 -0.001113 0.000000 0.000000 0.000000
# 2 -0.001263 0.015102 -0.001113 0.000000 0.000000 0.000000
# 3 -0.001113 -0.001113 0.007762 0.000000 0.000000 0.000000
# 4 0.000000 0.000000 0.000000 0.065023 0.000000 0.000000
# 5 0.000000 0.000000 0.000000 0.000000 0.065023 0.000000
# 6 0.000000 0.000000 0.000000 0.000000 0.000000 0.032729
#
#
# Mechanical properties :
#
#
# Convention : Reuss Voigt Hill
#
# Bulk Modulus (GPa) = 32.27013 35.80288 34.03651
# Shear Modulus (GPa) = 22.93074 28.21584 25.57329
#
# Velocity S-wave (km/s) = 3.31341 3.67547 3.49912
# Velocity P-wave (km/s) = 5.48529 5.92905 5.71148
#
# Compressibility (1/GPa) = 0.03098841
#
# Stress axis : x y z
#
# Youngs Moduli (GPa) = 66.21649 66.21649 128.82889
#
# Poissons Ratio (x) = 0.08360 0.14341
# Poissons Ratio (y) = 0.08360 0.14341
# Poissons Ratio (z) = 0.07371 0.07371
#
# Static dielectric constant tensor:
#      x y z
#    x 1.927310 0.000000 0.000000 
#    y 0.000000 1.927310 0.000000 
#    z 0.000000 0.000000 1.748310 
# 
# From -- ./inp_files/9608.got.cif
#   From: 2010.05.17/outbox.cif.g08.bks.cpg/sg179_5_cif.got.tgz:9608.got - 2010.05.20 11:37:33.
