data_PCOD9583621
_publ_section_title
;
Structure prediction by ZEFSAII (Michael W. Deem and Ramdas Pophale) SiO2 
 PCOD9583621
Probable space group: P 62 2 2
;
_chemical_formula_sum "Si O2"
_cell_formula_units_Z 54
_cell_length_a 24.832652
_cell_length_b 24.832652
_cell_length_c 5.023811
_cell_angle_alpha 90.000000
_cell_angle_beta 90.000000
_cell_angle_gamma 120.000000
_cell_volume 2682.934864
_symmetry_space_group_name_H-M "P 62 2 2"
_symmetry_group_IT_number 180
_symmetry_cell_setting 'hexagonal'
loop_
_space_group_symop_operation_xyz
x,y,z
x-y,x,1/3+z
-y,x-y,2/3+z
-x,-y,z
-x+y,-x,1/3+z
y,-x+y,2/3+z
x-y,-y,-z
-x,-x+y,1/3-z
y,x,2/3-z
-y,-x,2/3-z
-x+y,y,-z
x,x-y,1/3-z
loop_
_atom_site_type_symbol
_atom_site_label
_atom_site_fract_x
_atom_site_fract_y
_atom_site_fract_z
Si Si1 0.708298 0.081686 0.628666
Si Si2 0.602720 0.602720 0.333334
Si Si3 0.772771 0.701130 0.231171
Si Si4 0.894587 0.789173 0.500000
Si Si5 0.073127 0.593074 0.262286
Si Si6 0.891737 0.891737 0.833334
O O1 0.652243 0.018884 0.764687
O O2 0.750361 0.077228 0.396107
O O3 0.663933 0.106592 0.510658
O O4 0.750774 0.106929 0.891599
O O5 0.537984 0.596524 0.425350
O O6 0.741679 0.741679 0.333334
O O7 0.845217 0.746335 0.280029
O O8 0.874750 0.834679 0.638255
O O9 0.100718 0.550359 0.166667
O O10 0.000000 0.553527 0.166667
O O11 0.903924 0.951962 0.666667
#
# Coordination Sequence:
#
# PCOD9583621 Si02
#       6
#    12   6  12   6  12   6
#     4  11  21  34  57  78 111 151 185 230 286 332
#     4  10  16  33  46  80 110 164 189 242 282 320
#     4  12  23  41  60  86 109 141 186 239 301 382
#     4  12  32  45  74  90 116 142 190 252 332 422
#     4   9  17  27  43  74 109 150 196 231 265 300
#     4  12  28  55  72 102 116 144 177 244 356 464
#
# _framework density 20.127215
#
# number of rings (size 3 to 8) (size 9 to 14) (size 15 to 20)
#    0.000    1.111    3.333    5.333    6.222    9.333 
#    0.000    0.000    0.000    0.000    0.000    0.000 
#    0.000    0.000    0.000    0.000    0.000    0.000 
#
# Total GULP energy -300686.099629 kJ/mol
# GULP energy per Si atom -5568.261104 kJ/mol
# Density = 2.008140 g / cm^3
# Si number density = 20.127215 Si / 1000 Ang^3
#
#
#
# Elastic Constant Matrix: (Units=GPa)
#
#
# Indices 1 2 3 4 5 6 
#
# 1 85.1547 40.3991 40.8536 0.0000 0.0000 0.0000
# 2 40.3991 85.1547 40.8536 0.0000 0.0000 0.0000
# 3 40.8536 40.8536 152.8499 0.0000 0.0000 0.0000
# 4 0.0000 0.0000 0.0000 19.7275 0.0000 0.0000
# 5 0.0000 0.0000 0.0000 0.0000 19.7275 0.0000
# 6 0.0000 0.0000 0.0000 0.0000 0.0000 22.3778
#
#
#
# Elastic Compliance Matrix: (Units=1/GPa)
#
#
# Indices 1 2 3 4 5 6 
#
# 1 0.015993 -0.006351 -0.002577 0.000000 0.000000 0.000000
# 2 -0.006351 0.015993 -0.002577 0.000000 0.000000 0.000000
# 3 -0.002577 -0.002577 0.007920 0.000000 0.000000 0.000000
# 4 0.000000 0.000000 0.000000 0.050691 0.000000 0.000000
# 5 0.000000 0.000000 0.000000 0.000000 0.050691 0.000000
# 6 0.000000 0.000000 0.000000 0.000000 0.000000 0.044687
#
#
# Mechanical properties :
#
#
# Convention : Reuss Voigt Hill
#
# Bulk Modulus (GPa) = 59.18795 63.04134 61.11464
# Shear Modulus (GPa) = 23.29750 25.77011 24.53381
#
# Velocity S-wave (km/s) = 3.40591 3.58210 3.49512
# Velocity P-wave (km/s) = 6.70356 6.96405 6.83505
#
# Compressibility (1/GPa) = 0.01689533
#
# Stress axis : x y z
#
# Youngs Moduli (GPa) = 62.52865 62.52865 126.26339
#
# Poissons Ratio (x) = 0.39711 0.32539
# Poissons Ratio (y) = 0.39711 0.32539
# Poissons Ratio (z) = 0.16114 0.16114
#
# Static dielectric constant tensor:
#      x y z
#    x 1.811260 0.000000 0.000000 
#    y 0.000000 1.811260 0.000000 
#    z 0.000000 0.000000 2.007700 
# 
# From -- ./inp_files/1244.got.cif
#   From: 2010.05.17/outbox.cif.g08.bks.cpg/sg180_1_cif.got.tgz:1244.got - 2010.05.20 11:43:55.
