data_PCOD9583634
_publ_section_title
;
Structure prediction by ZEFSAII (Michael W. Deem and Ramdas Pophale) SiO2 
 PCOD9583634
Probable space group: P 62 2 2
;
_chemical_formula_sum "Si O2"
_cell_formula_units_Z 60
_cell_length_a 15.528861
_cell_length_b 15.528861
_cell_length_c 13.641253
_cell_angle_alpha 90.000000
_cell_angle_beta 90.000000
_cell_angle_gamma 120.000000
_cell_volume 2848.814037
_symmetry_space_group_name_H-M "P 62 2 2"
_symmetry_group_IT_number 180
_symmetry_cell_setting 'hexagonal'
loop_
_space_group_symop_operation_xyz
x,y,z
x-y,x,1/3+z
-y,x-y,2/3+z
-x,-y,z
-x+y,-x,1/3+z
y,-x+y,2/3+z
x-y,-y,-z
-x,-x+y,1/3-z
y,x,2/3-z
-y,-x,2/3-z
-x+y,y,-z
x,x-y,1/3-z
loop_
_atom_site_type_symbol
_atom_site_label
_atom_site_fract_x
_atom_site_fract_y
_atom_site_fract_z
Si Si1 0.732877 0.777274 0.631688
Si Si2 0.446060 0.341095 0.781941
Si Si3 0.273614 0.421517 0.202897
Si Si4 0.445226 0.880673 0.274140
Si Si5 0.172107 0.380443 0.388860
O O1 0.783491 0.891746 0.666667
O O2 0.638682 0.722838 0.703308
O O3 0.679409 0.754554 0.524659
O O4 0.790249 0.717336 0.649509
O O5 0.411897 0.411897 0.833334
O O6 0.443721 0.260120 0.853861
O O7 0.543210 0.392438 0.713992
O O8 0.367952 0.512912 0.149096
O O9 0.266559 0.406115 0.319839
O O10 0.525289 0.845519 0.267582
O O11 0.500000 0.000000 0.278708
O O12 0.177161 0.354322 0.500000
#
# Coordination Sequence:
#
# PCOD9583634 Si02
#       5
#    12  12  12  12  12
#     4   9  19  38  64  94 119 146 209 279 343 392
#     4  10  17  35  65  91 116 152 213 284 324 358
#     4  10  21  39  62  89 124 168 218 276 324 370
#     4  11  21  40  60  89 129 168 215 258 320 387
#     4  12  25  41  59  90 129 175 224 263 326 408
#
# _framework density 21.061395999999998
#
# number of rings (size 3 to 8) (size 9 to 14) (size 15 to 20)
#    0.000    1.600    6.000    1.800    0.000    4.400 
#    7.200    1.000    0.000    0.000    0.000    7.000 
#    0.000    0.000    0.000    0.000    0.000    0.000 
#
# Total GULP energy -334572.310659 kJ/mol
# GULP energy per Si atom -5576.205178 kJ/mol
# Density = 2.101346 g / cm^3
# Si number density = 21.061396 Si / 1000 Ang^3
#
#
#
# Elastic Constant Matrix: (Units=GPa)
#
#
# Indices 1 2 3 4 5 6 
#
# 1 42.3535 11.4451 9.3562 0.0000 0.0000 0.0000
# 2 11.4451 42.3535 9.3562 0.0000 0.0000 0.0000
# 3 9.3562 9.3562 92.9192 0.0000 0.0000 0.0000
# 4 0.0000 0.0000 0.0000 19.3364 0.0000 0.0000
# 5 0.0000 0.0000 0.0000 0.0000 19.3364 0.0000
# 6 0.0000 0.0000 0.0000 0.0000 0.0000 15.4542
#
#
#
# Elastic Compliance Matrix: (Units=1/GPa)
#
#
# Indices 1 2 3 4 5 6 
#
# 1 0.025808 -0.006546 -0.001940 0.000000 0.000000 0.000000
# 2 -0.006546 0.025808 -0.001940 0.000000 0.000000 0.000000
# 3 -0.001940 -0.001940 0.011153 0.000000 0.000000 0.000000
# 4 0.000000 0.000000 0.000000 0.051716 0.000000 0.000000
# 5 0.000000 0.000000 0.000000 0.000000 0.051716 0.000000
# 6 0.000000 0.000000 0.000000 0.000000 0.000000 0.064707
#
#
# Mechanical properties :
#
#
# Convention : Reuss Voigt Hill
#
# Bulk Modulus (GPa) = 23.85536 26.43789 25.14662
# Shear Modulus (GPa) = 18.81606 20.65665 19.73636
#
# Velocity S-wave (km/s) = 2.99221 3.13514 3.06451
# Velocity P-wave (km/s) = 4.82586 5.06809 4.94846
#
# Compressibility (1/GPa) = 0.04191931
#
# Stress axis : x y z
#
# Youngs Moduli (GPa) = 38.74762 38.74762 89.66488
#
# Poissons Ratio (x) = 0.25363 0.17391
# Poissons Ratio (y) = 0.25363 0.17391
# Poissons Ratio (z) = 0.07515 0.07515
#
# Static dielectric constant tensor:
#      x y z
#    x 1.823420 0.000000 0.000000 
#    y 0.000000 1.823420 0.000000 
#    z 0.000000 0.000000 1.887790 
# 
# From -- ./inp_files/4836.got.cif
#   From: 2010.05.17/outbox.cif.g08.bks.cpg/sg180_3_cif.got.tgz:4836.got - 2010.05.20 11:43:55.
