data_PCOD9583479
_publ_section_title
;
Structure prediction by ZEFSAII (Michael W. Deem and Ramdas Pophale) SiO2 
 PCOD9583479
Probable space group: P 65 2 2
;
_chemical_formula_sum "Si O2"
_cell_formula_units_Z 36
_cell_length_a 8.140948
_cell_length_b 8.140948
_cell_length_c 25.860643
_cell_angle_alpha 90.000000
_cell_angle_beta 90.000000
_cell_angle_gamma 120.000000
_cell_volume 1484.293932
_symmetry_space_group_name_H-M "P 65 2 2"
_symmetry_group_IT_number 179
_symmetry_cell_setting 'hexagonal'
loop_
_space_group_symop_operation_xyz
x,y,z
x-y,x,5/6+z
-y,x-y,2/3+z
-x,-y,1/2+z
-x+y,-x,1/3+z
y,-x+y,1/6+z
x-y,-y,-z
-x,-x+y,1/3-z
y,x,2/3-z
-y,-x,1/6-z
-x+y,y,1/2-z
x,x-y,5/6-z
loop_
_atom_site_type_symbol
_atom_site_label
_atom_site_fract_x
_atom_site_fract_y
_atom_site_fract_z
Si Si1 0.549116 0.545423 0.143120
Si Si2 0.660991 0.493992 0.296758
Si Si3 0.305314 0.039913 0.611195
O O1 0.504008 0.495993 0.083334
O O2 0.657547 0.441702 0.166125
O O3 0.677401 0.775801 0.141027
O O4 0.366924 0.440100 0.181578
O O5 0.617452 0.617452 0.333334
O O6 0.802675 0.605350 0.250000
O O7 0.471509 0.345220 0.266326
O O8 0.107804 0.892197 0.583334
#
# Coordination Sequence:
#
# PCOD9583479 Si02
#       3
#    12  12  12
#     4  11  26  47  79 113 152 208 259 319 403 458
#     4  10  25  46  76 108 156 201 258 317 399 459
#     4  11  28  48  81 113 158 204 264 322 390 474
#
# _framework density 24.253955000000001
#
# number of rings (size 3 to 8) (size 9 to 14) (size 15 to 20)
#    0.000    1.333    0.000    3.000   23.333    1.333 
#    0.000    0.000    0.000    6.000    0.000    0.000 
#    0.000    0.000    0.000    0.000    0.000    0.000 
#
# Total GULP energy -200481.327540 kJ/mol
# GULP energy per Si atom -5568.925765 kJ/mol
# Density = 2.419875 g / cm^3
# Si number density = 24.253955 Si / 1000 Ang^3
#
#
#
# Elastic Constant Matrix: (Units=GPa)
#
#
# Indices 1 2 3 4 5 6 
#
# 1 93.6246 48.8842 58.1222 0.0000 0.0000 0.0000
# 2 48.8842 93.6246 58.1222 0.0000 0.0000 0.0000
# 3 58.1222 58.1222 141.4406 0.0000 0.0000 0.0000
# 4 0.0000 0.0000 0.0000 12.5033 0.0000 0.0000
# 5 0.0000 0.0000 0.0000 0.0000 12.5033 0.0000
# 6 0.0000 0.0000 0.0000 0.0000 0.0000 22.3702
#
#
#
# Elastic Compliance Matrix: (Units=1/GPa)
#
#
# Indices 1 2 3 4 5 6 
#
# 1 0.016453 -0.005898 -0.004337 0.000000 0.000000 0.000000
# 2 -0.005898 0.016453 -0.004337 0.000000 0.000000 0.000000
# 3 -0.004337 -0.004337 0.010635 0.000000 0.000000 0.000000
# 4 0.000000 0.000000 0.000000 0.079979 0.000000 0.000000
# 5 0.000000 0.000000 0.000000 0.000000 0.079979 0.000000
# 6 0.000000 0.000000 0.000000 0.000000 0.000000 0.044702
#
#
# Mechanical properties :
#
#
# Convention : Reuss Voigt Hill
#
# Bulk Modulus (GPa) = 69.46640 73.21636 71.34138
# Shear Modulus (GPa) = 17.72137 20.37944 19.05041
#
# Velocity S-wave (km/s) = 2.70600 2.90186 2.80564
# Velocity P-wave (km/s) = 6.20215 6.44054 6.32247
#
# Compressibility (1/GPa) = 0.01439545
#
# Stress axis : x y z
#
# Youngs Moduli (GPa) = 60.77856 60.77856 94.03025
#
# Poissons Ratio (x) = 0.35847 0.40785
# Poissons Ratio (y) = 0.35847 0.40785
# Poissons Ratio (z) = 0.26362 0.26362
#
# Static dielectric constant tensor:
#      x y z
#    x 2.320530 0.000000 0.000000 
#    y 0.000000 2.320530 0.000000 
#    z 0.000000 0.000000 1.825520 
# 
# From -- ./inp_files/8522.got.cif
#   From: 2010.05.17/outbox.cif.g08.bks.cpg/sg179_5_cif.got.tgz:8522.got - 2010.05.20 11:37:33.
