data_PCOD9583601
_publ_section_title
;
Structure prediction by ZEFSAII (Michael W. Deem and Ramdas Pophale) SiO2 
 PCOD9583601
Probable space group: P 65 2 2
;
_chemical_formula_sum "Si O2"
_cell_formula_units_Z 84
_cell_length_a 18.000000
_cell_length_b 18.000000
_cell_length_c 15.000000
_cell_angle_alpha 90.000000
_cell_angle_beta 90.000000
_cell_angle_gamma 120.000000
_cell_volume 4208.883462
_symmetry_space_group_name_H-M "P 65 2 2"
_symmetry_group_IT_number 179
_symmetry_cell_setting 'hexagonal'
loop_
_space_group_symop_operation_xyz
x,y,z
x-y,x,5/6+z
-y,x-y,2/3+z
-x,-y,1/2+z
-x+y,-x,1/3+z
y,-x+y,1/6+z
x-y,-y,-z
-x,-x+y,1/3-z
y,x,2/3-z
-y,-x,1/6-z
-x+y,y,1/2-z
x,x-y,5/6-z
loop_
_atom_site_type_symbol
_atom_site_label
_atom_site_fract_x
_atom_site_fract_y
_atom_site_fract_z
Si Si1 0.884986 0.986658 0.643375
Si Si2 0.089740 0.502752 0.218944
Si Si3 0.896702 0.232189 0.151552
Si Si4 0.680023 0.813914 0.169914
Si Si5 0.614081 0.016626 0.391728
Si Si6 0.332704 0.601483 0.845999
Si Si7 0.164353 0.419534 0.840090
O O1 0.908708 0.928804 0.575368
O O2 0.782566 0.932625 0.656995
O O3 0.925620 0.074381 0.583334
O O4 0.112607 0.425102 0.222931
O O5 0.060510 0.554225 0.289179
O O6 0.173518 0.584232 0.176189
O O7 0.000000 0.453401 0.166667
O O8 0.847706 0.152295 0.083334
O O9 0.847482 0.191026 0.245750
O O10 0.000000 0.271278 0.166667
O O11 0.631466 0.710391 0.186993
O O12 0.649142 0.850852 0.251005
O O13 0.614906 0.000000 0.500000
O O14 0.578418 0.922572 0.347753
O O15 0.313517 0.627034 0.750000
O O16 0.348114 0.674057 0.916667
O O17 0.245580 0.511839 0.868132
O O18 0.198694 0.397387 0.750000
#
# Coordination Sequence:
#
# PCOD9583601 Si02
#       7
#    12  12  12  12  12  12  12
#     4  10  24  44  66 106 147 192 243 312 373 436
#     4  10  21  46  71  96 140 183 231 293 360 424
#     4  11  29  53  74  98 144 198 250 305 357 442
#     4  12  25  44  73 106 144 191 253 291 378 445
#     4  11  21  39  71 105 149 185 228 301 373 434
#     4  11  23  40  68 104 141 182 231 290 358 421
#     4  11  22  41  67 110 147 185 229 302 373 438
#
# _framework density 19.957787
#
# number of rings (size 3 to 8) (size 9 to 14) (size 15 to 20)
#    0.000    1.143    2.857    3.857    8.000    2.286 
#    5.143    0.714    0.000    0.000    0.000    0.000 
#    0.000    0.000    0.000    0.000    0.000    0.000 
#
# Total GULP energy -468234.233853 kJ/mol
# GULP energy per Si atom -5574.217070 kJ/mol
# Density = 1.991236 g / cm^3
# Si number density = 19.957787 Si / 1000 Ang^3
#
#
#
# Elastic Constant Matrix: (Units=GPa)
#
#
# Indices 1 2 3 4 5 6 
#
# 1 126.5615 46.3614 31.9602 0.0000 0.0000 0.0000
# 2 46.3614 126.5615 31.9602 0.0000 0.0000 0.0000
# 3 31.9602 31.9602 78.4978 0.0000 0.0000 0.0000
# 4 0.0000 0.0000 0.0000 28.2224 0.0000 0.0000
# 5 0.0000 0.0000 0.0000 0.0000 28.2224 0.0000
# 6 0.0000 0.0000 0.0000 0.0000 0.0000 40.1001
#
#
#
# Elastic Compliance Matrix: (Units=1/GPa)
#
#
# Indices 1 2 3 4 5 6 
#
# 1 0.009638 -0.002831 -0.002772 0.000000 0.000000 0.000000
# 2 -0.002831 0.009638 -0.002772 0.000000 0.000000 0.000000
# 3 -0.002772 -0.002772 0.014996 0.000000 0.000000 0.000000
# 4 0.000000 0.000000 0.000000 0.035433 0.000000 0.000000
# 5 0.000000 0.000000 0.000000 0.000000 0.035433 0.000000
# 6 0.000000 0.000000 0.000000 0.000000 0.000000 0.024938
#
#
# Mechanical properties :
#
#
# Convention : Reuss Voigt Hill
#
# Bulk Modulus (GPa) = 57.06298 61.35381 59.20840
# Shear Modulus (GPa) = 32.75144 34.06493 33.40819
#
# Velocity S-wave (km/s) = 4.05536 4.13588 4.09582
# Velocity P-wave (km/s) = 7.11209 7.32229 7.21796
#
# Compressibility (1/GPa) = 0.01752450
#
# Stress axis : x y z
#
# Youngs Moduli (GPa) = 103.75461 103.75461 66.68384
#
# Poissons Ratio (x) = 0.29370 0.18482
# Poissons Ratio (y) = 0.29370 0.18482
# Poissons Ratio (z) = 0.28757 0.28757
#
# Static dielectric constant tensor:
#      x y z
#    x 1.731100 0.000000 0.000000 
#    y 0.000000 1.731100 0.000000 
#    z 0.000000 0.000000 1.720750 
# 
# From -- ./inp_files/6132.got.cif
#   From: 2010.05.17/outbox.ucp.g08.bks.cvg/sg179_4_cif.got.tgz:6132.got - 2010.06.11 15:19:48.
