data_PCOD9583016
_publ_section_title
;
Structure prediction by ZEFSAII (Michael W. Deem and Ramdas Pophale) SiO2 
 PCOD9583016
Probable space group: P 61 2 2
;
_chemical_formula_sum "Si O2"
_cell_formula_units_Z 60
_cell_length_a 12.762265
_cell_length_b 12.762265
_cell_length_c 14.945496
_cell_angle_alpha 90.000000
_cell_angle_beta 90.000000
_cell_angle_gamma 120.000000
_cell_volume 2108.125593
_symmetry_space_group_name_H-M "P 61 2 2"
_symmetry_group_IT_number 178
_symmetry_cell_setting 'hexagonal'
loop_
_space_group_symop_operation_xyz
x,y,z
x-y,x,1/6+z
-y,x-y,1/3+z
-x,-y,1/2+z
-x+y,-x,2/3+z
y,-x+y,5/6+z
x-y,-y,-z
-x,-x+y,2/3-z
y,x,1/3-z
-y,-x,5/6-z
-x+y,y,1/2-z
x,x-y,1/6-z
loop_
_atom_site_type_symbol
_atom_site_label
_atom_site_fract_x
_atom_site_fract_y
_atom_site_fract_z
Si Si1 0.760655 0.880328 0.083334
Si Si2 0.110155 0.298069 0.022271
Si Si3 0.743616 0.529231 0.129648
Si Si4 0.148907 0.000000 0.000000
Si Si5 0.000000 0.478482 0.333334
Si Si6 0.340004 0.659997 0.416667
Si Si7 0.698198 0.115295 0.348224
O O1 0.661254 0.812449 0.158953
O O2 0.829417 0.016270 0.124919
O O3 0.170673 0.256884 0.099001
O O4 0.042025 0.337549 0.095131
O O5 0.195903 0.423646 0.971624
O O6 0.607192 0.489070 0.157069
O O7 0.752452 0.332723 0.990986
O O8 0.054503 0.945498 0.916667
O O9 0.016363 0.423473 0.242561
O O10 0.457144 0.683235 0.475714
O O11 0.812538 0.187463 0.416667
#
# Coordination Sequence:
#
# PCOD9583016 Si02
#       7
#     6  12  12   6   6   6  12
#     4  11  24  46  84 120 166 218 282 355 432 512
#     4  12  27  51  84 119 169 224 282 364 432 525
#     4  11  24  49  81 120 164 219 291 345 430 526
#     4  12  30  53  83 122 164 224 296 367 450 517
#     4  12  24  51  75 118 166 220 282 345 430 525
#     4  11  26  52  80 124 168 228 290 357 428 532
#     4  12  28  47  79 116 172 216 278 348 435 517
#
# _framework density 28.461300999999999
#
# number of rings (size 3 to 8) (size 9 to 14) (size 15 to 20)
#    0.000    0.400    4.000    3.000    1.400    4.800 
#    3.600    0.000    0.000    0.000    0.000    0.000 
#    0.000    1.600    0.000    0.000    0.000    0.000 
#
# Total GULP energy -334010.517344 kJ/mol
# GULP energy per Si atom -5566.841956 kJ/mol
# Density = 2.839652 g / cm^3
# Si number density = 28.461301 Si / 1000 Ang^3
#
#
#
# Elastic Constant Matrix: (Units=GPa)
#
#
# Indices 1 2 3 4 5 6 
#
# 1 122.7230 66.6596 87.4034 0.0000 0.0000 0.0000
# 2 66.6596 122.7230 87.4034 0.0000 0.0000 0.0000
# 3 87.4034 87.4034 229.8619 0.0000 0.0000 0.0000
# 4 0.0000 0.0000 0.0000 47.8874 0.0000 0.0000
# 5 0.0000 0.0000 0.0000 0.0000 47.8874 0.0000
# 6 0.0000 0.0000 0.0000 0.0000 0.0000 28.0317
#
#
#
# Elastic Compliance Matrix: (Units=1/GPa)
#
#
# Indices 1 2 3 4 5 6 
#
# 1 0.012986 -0.004851 -0.003094 0.000000 0.000000 0.000000
# 2 -0.004851 0.012986 -0.003094 0.000000 0.000000 0.000000
# 3 -0.003094 -0.003094 0.006703 0.000000 0.000000 0.000000
# 4 0.000000 0.000000 0.000000 0.020882 0.000000 0.000000
# 5 0.000000 0.000000 0.000000 0.000000 0.020882 0.000000
# 6 0.000000 0.000000 0.000000 0.000000 0.000000 0.035674
#
#
# Mechanical properties :
#
#
# Convention : Reuss Voigt Hill
#
# Bulk Modulus (GPa) = 94.33657 106.47117 100.40387
# Shear Modulus (GPa) = 36.83966 40.35073 38.59520
#
# Velocity S-wave (km/s) = 3.60165 3.76937 3.68647
# Velocity P-wave (km/s) = 7.10727 7.51229 7.31259
#
# Compressibility (1/GPa) = 0.01060034
#
# Stress axis : x y z
#
# Youngs Moduli (GPa) = 77.00377 77.00377 149.18547
#
# Poissons Ratio (x) = 0.37351 0.46152
# Poissons Ratio (y) = 0.37351 0.46152
# Poissons Ratio (z) = 0.23822 0.23822
#
# Static dielectric constant tensor:
#      x y z
#    x 2.442480 0.000000 0.000000 
#    y 0.000000 2.442480 0.000000 
#    z 0.000000 0.000000 2.452800 
# 
# From -- ./inp_files/5800.got.cif
#   From: 2010.05.17/outbox.cif.g08.bks.cpg/sg178_3_cif.got.tgz:5800.got - 2010.05.20 11:30:59.
