data_PCOD9583708
_publ_section_title
;
Structure prediction by ZEFSAII (Michael W. Deem and Ramdas Pophale) SiO2 
 PCOD9583708
Probable space group: P 62 2 2
;
_chemical_formula_sum "Si O2"
_cell_formula_units_Z 84
_cell_length_a 14.570102
_cell_length_b 14.570102
_cell_length_c 26.336588
_cell_angle_alpha 90.000000
_cell_angle_beta 90.000000
_cell_angle_gamma 120.000000
_cell_volume 4841.894538
_symmetry_space_group_name_H-M "P 62 2 2"
_symmetry_group_IT_number 180
_symmetry_cell_setting 'hexagonal'
loop_
_space_group_symop_operation_xyz
x,y,z
x-y,x,1/3+z
-y,x-y,2/3+z
-x,-y,z
-x+y,-x,1/3+z
y,-x+y,2/3+z
x-y,-y,-z
-x,-x+y,1/3-z
y,x,2/3-z
-y,-x,2/3-z
-x+y,y,-z
x,x-y,1/3-z
loop_
_atom_site_type_symbol
_atom_site_label
_atom_site_fract_x
_atom_site_fract_y
_atom_site_fract_z
Si Si1 0.257540 0.694325 0.472239
Si Si2 0.561020 0.635782 0.282153
Si Si3 0.937363 0.260254 0.317162
Si Si4 0.118561 0.535044 0.957449
Si Si5 0.939128 0.560958 0.114078
Si Si6 0.667375 0.130913 0.095784
Si Si7 0.750342 0.173214 0.660149
O O1 0.324835 0.649669 0.500000
O O2 0.198927 0.631349 0.422220
O O3 0.337862 0.816456 0.458131
O O4 0.174901 0.687301 0.514485
O O5 0.593644 0.593644 0.333334
O O6 0.440722 0.561862 0.261960
O O7 0.639386 0.630179 0.241180
O O8 0.576379 0.747479 0.297544
O O9 0.861101 0.138900 0.333334
O O10 0.890247 0.324196 0.347514
O O11 0.938522 0.294398 0.258764
O O12 0.061372 0.315262 0.329921
O O13 0.153220 0.633361 0.995286
O O14 0.000000 0.500000 0.939075
O O15 0.000000 0.500000 0.093549
O O16 0.000000 0.612641 0.166667
O O17 0.765889 0.206121 0.059833
#
# Coordination Sequence:
#
# PCOD9583708 Si02
#       7
#    12  12  12  12  12  12  12
#     4  12  23  33  52  83 116 154 192 231 279 348
#     4   9  18  35  57  83 109 142 191 241 286 347
#     4  11  22  37  56  77 112 154 190 239 294 346
#     4  10  23  37  52  76 114 155 188 232 289 352
#     4  11  21  37  54  80 116 149 195 236 280 348
#     4  10  20  33  55  83 111 148 187 239 290 336
#     4  10  19  35  57  79 105 143 196 235 284 346
#
# _framework density 17.348580999999999
#
# number of rings (size 3 to 8) (size 9 to 14) (size 15 to 20)
#    0.000    1.571    2.857    6.000    4.000    1.143 
#    0.000    0.000    0.000    3.857    0.000    0.000 
#    0.000    0.000    0.000    0.000    0.000    0.000 
#
# Total GULP energy -468520.450775 kJ/mol
# GULP energy per Si atom -5577.624414 kJ/mol
# Density = 1.730910 g / cm^3
# Si number density = 17.348581 Si / 1000 Ang^3
#
#
#
# Elastic Constant Matrix: (Units=GPa)
#
#
# Indices 1 2 3 4 5 6 
#
# 1 71.0418 22.5126 16.3761 0.0000 0.0000 0.0000
# 2 22.5126 71.0418 16.3761 0.0000 0.0000 0.0000
# 3 16.3761 16.3761 57.0840 0.0000 0.0000 0.0000
# 4 0.0000 0.0000 0.0000 21.8028 0.0000 0.0000
# 5 0.0000 0.0000 0.0000 0.0000 21.8028 0.0000
# 6 0.0000 0.0000 0.0000 0.0000 0.0000 24.2646
#
#
#
# Elastic Compliance Matrix: (Units=1/GPa)
#
#
# Indices 1 2 3 4 5 6 
#
# 1 0.016244 -0.004362 -0.003409 0.000000 0.000000 0.000000
# 2 -0.004362 0.016244 -0.003409 0.000000 0.000000 0.000000
# 3 -0.003409 -0.003409 0.019474 0.000000 0.000000 0.000000
# 4 0.000000 0.000000 0.000000 0.045866 0.000000 0.000000
# 5 0.000000 0.000000 0.000000 0.000000 0.045866 0.000000
# 6 0.000000 0.000000 0.000000 0.000000 0.000000 0.041212
#
#
# Mechanical properties :
#
#
# Convention : Reuss Voigt Hill
#
# Bulk Modulus (GPa) = 33.77986 34.41079 34.09533
# Shear Modulus (GPa) = 23.02741 23.16757 23.09749
#
# Velocity S-wave (km/s) = 3.64722 3.65830 3.65276
# Velocity P-wave (km/s) = 6.10326 6.14184 6.12258
#
# Compressibility (1/GPa) = 0.02960344
#
# Stress axis : x y z
#
# Youngs Moduli (GPa) = 61.56026 61.56026 51.35088
#
# Poissons Ratio (x) = 0.26852 0.17504
# Poissons Ratio (y) = 0.26852 0.17504
# Poissons Ratio (z) = 0.20985 0.20985
#
# Static dielectric constant tensor:
#      x y z
#    x 1.610140 0.000000 0.000000 
#    y 0.000000 1.610140 0.000000 
#    z 0.000000 0.000000 1.619180 
# 
# From -- ./inp_files/10276.got.cif
#   From: 2010.05.17/outbox.cif.g08.bks.cpg/sg180_6_cif.got.tgz:10276.got - 2010.05.20 11:43:55.
