data_PCOD9583078
_publ_section_title
;
Structure prediction by ZEFSAII (Michael W. Deem and Ramdas Pophale) SiO2 
 PCOD9583078
Probable space group: P 61 2 2
;
_chemical_formula_sum "Si O2"
_cell_formula_units_Z 42
_cell_length_a 8.448545
_cell_length_b 8.448545
_cell_length_c 28.918676
_cell_angle_alpha 90.000000
_cell_angle_beta 90.000000
_cell_angle_gamma 120.000000
_cell_volume 1787.610432
_symmetry_space_group_name_H-M "P 61 2 2"
_symmetry_group_IT_number 178
_symmetry_cell_setting 'hexagonal'
loop_
_space_group_symop_operation_xyz
x,y,z
x-y,x,1/6+z
-y,x-y,1/3+z
-x,-y,1/2+z
-x+y,-x,2/3+z
y,-x+y,5/6+z
x-y,-y,-z
-x,-x+y,2/3-z
y,x,1/3-z
-y,-x,5/6-z
-x+y,y,1/2-z
x,x-y,1/6-z
loop_
_atom_site_type_symbol
_atom_site_label
_atom_site_fract_x
_atom_site_fract_y
_atom_site_fract_z
Si Si1 0.905133 0.267312 0.583960
Si Si2 0.232505 0.944691 0.641494
Si Si3 0.000000 0.329875 0.833334
Si Si4 0.522161 0.583075 0.589066
O O1 0.951455 0.475728 0.583334
O O2 0.909284 0.211453 0.637022
O O3 0.051501 0.248732 0.552530
O O4 0.697257 0.135244 0.567914
O O5 0.405232 0.934394 0.621809
O O6 0.282107 0.153514 0.636627
O O7 0.112258 0.496040 0.868075
O O8 0.587329 0.793665 0.583334
#
# Coordination Sequence:
#
# PCOD9583078 Si02
#       4
#    12  12   6  12
#     4  12  28  49  82 115 158 203 263 326 390 474
#     4  12  27  51  77 116 155 205 261 322 397 466
#     4  12  28  50  78 106 160 204 254 322 388 460
#     4  12  30  48  77 114 154 205 258 321 393 470
#
# _framework density 23.495051
#
# number of rings (size 3 to 8) (size 9 to 14) (size 15 to 20)
#    0.000    0.000    2.857    5.143   16.000    0.000 
#    0.000    0.000    0.000    0.000    0.000    0.000 
#    0.000    0.000    0.000    0.000    0.000    0.000 
#
# Total GULP energy -235519.534022 kJ/mol
# GULP energy per Si atom -5607.607953 kJ/mol
# Density = 2.344158 g / cm^3
# Si number density = 23.495051 Si / 1000 Ang^3
#
#
#
# Elastic Constant Matrix: (Units=GPa)
#
#
# Indices 1 2 3 4 5 6 
#
# 1 92.1521 21.1309 38.2546 0.0000 0.0000 0.0000
# 2 21.1309 92.1521 38.2546 0.0000 0.0000 0.0000
# 3 38.2546 38.2546 151.2291 0.0000 0.0000 0.0000
# 4 0.0000 0.0000 0.0000 35.2706 0.0000 0.0000
# 5 0.0000 0.0000 0.0000 0.0000 35.2706 0.0000
# 6 0.0000 0.0000 0.0000 0.0000 0.0000 35.5106
#
#
#
# Elastic Compliance Matrix: (Units=1/GPa)
#
#
# Indices 1 2 3 4 5 6 
#
# 1 0.012363 -0.001717 -0.002693 0.000000 0.000000 0.000000
# 2 -0.001717 0.012363 -0.002693 0.000000 0.000000 0.000000
# 3 -0.002693 -0.002693 0.007975 0.000000 0.000000 0.000000
# 4 0.000000 0.000000 0.000000 0.028352 0.000000 0.000000
# 5 0.000000 0.000000 0.000000 0.000000 0.028352 0.000000
# 6 0.000000 0.000000 0.000000 0.000000 0.000000 0.028161
#
#
# Mechanical properties :
#
#
# Convention : Reuss Voigt Hill
#
# Bulk Modulus (GPa) = 54.06788 58.97930 56.52359
# Shear Modulus (GPa) = 36.24820 37.06992 36.65906
#
# Velocity S-wave (km/s) = 3.93211 3.97643 3.95433
# Velocity P-wave (km/s) = 6.60891 6.80000 6.70514
#
# Compressibility (1/GPa) = 0.01849527
#
# Stress axis : x y z
#
# Youngs Moduli (GPa) = 80.88457 80.88457 125.39262
#
# Poissons Ratio (x) = 0.13888 0.33769
# Poissons Ratio (y) = 0.13888 0.33769
# Poissons Ratio (z) = 0.21783 0.21783
#
# Static dielectric constant tensor:
#      x y z
#    x 1.859520 0.000000 0.000000 
#    y 0.000000 1.859520 0.000000 
#    z 0.000000 0.000000 1.926630 
# 
# From -- ./inp_files/9269.got.cif
#   From: 2010.05.17/outbox.cif.g08.bks.cpg/sg178_5_cif.got.tgz:9269.got - 2010.05.20 11:30:59.
