data_PCOD9583815
_publ_section_title
;
Structure prediction by ZEFSAII (Michael W. Deem and Ramdas Pophale) SiO2 
 PCOD9583815
Probable space group: P 62 2 2
;
_chemical_formula_sum "Si O2"
_cell_formula_units_Z 69
_cell_length_a 10.812250
_cell_length_b 10.812250
_cell_length_c 31.554291
_cell_angle_alpha 90.000000
_cell_angle_beta 90.000000
_cell_angle_gamma 120.000000
_cell_volume 3194.634782
_symmetry_space_group_name_H-M "P 62 2 2"
_symmetry_group_IT_number 180
_symmetry_cell_setting 'hexagonal'
loop_
_space_group_symop_operation_xyz
x,y,z
x-y,x,1/3+z
-y,x-y,2/3+z
-x,-y,z
-x+y,-x,1/3+z
y,-x+y,2/3+z
x-y,-y,-z
-x,-x+y,1/3-z
y,x,2/3-z
-y,-x,2/3-z
-x+y,y,-z
x,x-y,1/3-z
loop_
_atom_site_type_symbol
_atom_site_label
_atom_site_fract_x
_atom_site_fract_y
_atom_site_fract_z
Si Si1 0.000000 0.000000 0.333334
Si Si2 0.692948 0.846474 0.166667
Si Si3 0.085596 0.310975 0.360849
Si Si4 0.575334 0.401878 0.786550
Si Si5 0.215790 0.880099 0.597110
Si Si6 0.402108 0.070777 0.083534
Si Si7 0.191177 0.304038 0.102594
O O1 0.956871 0.856266 0.358566
O O2 0.602084 0.867477 0.129622
O O3 0.779523 0.780199 0.140849
O O4 0.075905 0.345247 0.312010
O O5 0.241053 0.421332 0.379473
O O6 0.975454 0.293433 0.397001
O O7 0.500000 0.500000 0.788847
O O8 0.616295 0.383706 0.833334
O O9 0.703018 0.505820 0.756426
O O10 0.464300 0.241564 0.775037
O O11 0.053524 0.758866 0.592856
O O12 0.230562 0.021218 0.574544
O O13 0.500000 0.000000 0.081733
#
# Coordination Sequence:
#
# PCOD9583815 Si02
#       7
#     3   6  12  12  12  12  12
#     4  12  16  36  58 102 132 152 196 286 352 376
#     4  10  24  41  66 102 128 169 224 286 344 393
#     4  11  20  35  66  95 131 166 210 282 348 396
#     4   9  19  35  57  88 126 169 206 254 323 397
#     4  11  20  36  65  96 126 168 213 276 340 403
#     4  11  24  42  62  91 131 177 224 268 332 416
#     4  10  20  38  64  98 132 161 215 283 346 402
#
# _framework density 21.598713
#
# number of rings (size 3 to 8) (size 9 to 14) (size 15 to 20)
#    0.000    1.565    3.478    1.043    0.000    6.261 
#    4.696    0.000   22.957    0.000    0.000    0.000 
#    0.000    0.000    0.000    0.000    0.000    0.000 
#
# Total GULP energy -384186.062816 kJ/mol
# GULP energy per Si atom -5567.913954 kJ/mol
# Density = 2.154955 g / cm^3
# Si number density = 21.598713 Si / 1000 Ang^3
#
#
#
# Elastic Constant Matrix: (Units=GPa)
#
#
# Indices 1 2 3 4 5 6 
#
# 1 48.7850 15.7609 13.4528 0.0000 0.0000 0.0000
# 2 15.7609 48.7850 13.4528 0.0000 0.0000 0.0000
# 3 13.4528 13.4528 91.5553 0.0000 0.0000 0.0000
# 4 0.0000 0.0000 0.0000 16.3975 0.0000 0.0000
# 5 0.0000 0.0000 0.0000 0.0000 16.3975 0.0000
# 6 0.0000 0.0000 0.0000 0.0000 0.0000 16.5120
#
#
#
# Elastic Compliance Matrix: (Units=1/GPa)
#
#
# Indices 1 2 3 4 5 6 
#
# 1 0.023392 -0.006889 -0.002425 0.000000 0.000000 0.000000
# 2 -0.006889 0.023392 -0.002425 0.000000 0.000000 0.000000
# 3 -0.002425 -0.002425 0.011635 0.000000 0.000000 0.000000
# 4 0.000000 0.000000 0.000000 0.060985 0.000000 0.000000
# 5 0.000000 0.000000 0.000000 0.000000 0.060985 0.000000
# 6 0.000000 0.000000 0.000000 0.000000 0.000000 0.060562
#
#
# Mechanical properties :
#
#
# Convention : Reuss Voigt Hill
#
# Bulk Modulus (GPa) = 28.61851 30.49536 29.55693
# Shear Modulus (GPa) = 18.11093 19.62531 18.86812
#
# Velocity S-wave (km/s) = 2.89886 3.01762 2.95884
# Velocity P-wave (km/s) = 4.94807 5.12749 5.03858
#
# Compressibility (1/GPa) = 0.03494242
#
# Stress axis : x y z
#
# Youngs Moduli (GPa) = 42.74904 42.74904 85.94757
#
# Poissons Ratio (x) = 0.29448 0.20842
# Poissons Ratio (y) = 0.29448 0.20842
# Poissons Ratio (z) = 0.10367 0.10367
#
# Static dielectric constant tensor:
#      x y z
#    x 1.618070 0.000000 0.000000 
#    y 0.000000 1.618070 0.000000 
#    z 0.000000 0.000000 1.683370 
# 
# From -- ./inp_files/12338.got.cif
#   From: 2010.05.17/outbox.cif.g08.bks.cpg/sg180_7_cif.got.tgz:12338.got - 2010.05.20 11:43:55.
