data_PCOD9583423
_publ_section_title
;
Structure prediction by ZEFSAII (Michael W. Deem and Ramdas Pophale) SiO2 
 PCOD9583423
Probable space group: P 65 2 2
;
_chemical_formula_sum "Si O2"
_cell_formula_units_Z 72
_cell_length_a 14.932923
_cell_length_b 14.932923
_cell_length_c 16.927377
_cell_angle_alpha 90.000000
_cell_angle_beta 90.000000
_cell_angle_gamma 120.000000
_cell_volume 3268.962585
_symmetry_space_group_name_H-M "P 65 2 2"
_symmetry_group_IT_number 179
_symmetry_cell_setting 'hexagonal'
loop_
_space_group_symop_operation_xyz
x,y,z
x-y,x,5/6+z
-y,x-y,2/3+z
-x,-y,1/2+z
-x+y,-x,1/3+z
y,-x+y,1/6+z
x-y,-y,-z
-x,-x+y,1/3-z
y,x,2/3-z
-y,-x,1/6-z
-x+y,y,1/2-z
x,x-y,5/6-z
loop_
_atom_site_type_symbol
_atom_site_label
_atom_site_fract_x
_atom_site_fract_y
_atom_site_fract_z
Si Si1 0.697414 0.790640 0.785175
Si Si2 0.346513 0.500370 0.268420
Si Si3 0.462480 0.297068 0.788606
Si Si4 0.815301 0.407651 0.416667
Si Si5 0.379572 0.976714 0.320582
Si Si6 0.699577 0.962180 0.680667
Si Si7 0.695305 0.847653 0.416667
O O1 0.789657 0.789657 0.833334
O O2 0.598478 0.727975 0.843701
O O3 0.664538 0.717408 0.709340
O O4 0.719552 0.898215 0.748797
O O5 0.274218 0.548436 0.250000
O O6 0.455480 0.583086 0.305026
O O7 0.377642 0.464488 0.188016
O O8 0.535306 0.247111 0.775056
O O9 0.390821 0.276026 0.711518
O O10 0.380728 0.242559 0.857728
O O11 0.889191 0.478260 0.487991
O O12 0.346842 0.979752 0.231254
O O13 0.800668 0.045499 0.632722
#
# Coordination Sequence:
#
# PCOD9583423 Si02
#       7
#    12  12  12   6  12  12   6
#     4  10  23  41  71 103 140 178 237 308 374 440
#     4  11  23  41  65 104 144 182 236 290 360 433
#     4  12  27  41  66 100 146 198 241 296 358 444
#     4  12  22  42  61 100 144 186 239 278 362 430
#     4  11  23  41  67  99 138 185 228 293 358 439
#     4  12  23  47  68  99 144 195 247 301 374 439
#     4  12  28  44  67 100 144 194 251 304 374 442
#
# _framework density 22.025335999999999
#
# number of rings (size 3 to 8) (size 9 to 14) (size 15 to 20)
#    0.000    0.667    5.833    1.500    2.333    2.667 
#    0.000    0.000    0.000    0.000    0.000   46.667 
#    0.000    0.000    0.000    0.000    0.000    0.000 
#
# Total GULP energy -402168.846194 kJ/mol
# GULP energy per Si atom -5585.678419 kJ/mol
# Density = 2.197521 g / cm^3
# Si number density = 22.025336 Si / 1000 Ang^3
#
#
#
# Elastic Constant Matrix: (Units=GPa)
#
#
# Indices 1 2 3 4 5 6 
#
# 1 99.6146 47.6311 31.2119 0.0000 0.0000 0.0000
# 2 47.6311 99.6146 31.2119 0.0000 0.0000 0.0000
# 3 31.2119 31.2119 99.0449 0.0000 0.0000 0.0000
# 4 0.0000 0.0000 0.0000 18.1153 0.0000 0.0000
# 5 0.0000 0.0000 0.0000 0.0000 18.1153 0.0000
# 6 0.0000 0.0000 0.0000 0.0000 0.0000 25.9918
#
#
#
# Elastic Compliance Matrix: (Units=1/GPa)
#
#
# Indices 1 2 3 4 5 6 
#
# 1 0.013538 -0.005699 -0.002470 0.000000 0.000000 0.000000
# 2 -0.005699 0.013538 -0.002470 0.000000 0.000000 0.000000
# 3 -0.002470 -0.002470 0.011653 0.000000 0.000000 0.000000
# 4 0.000000 0.000000 0.000000 0.055202 0.000000 0.000000
# 5 0.000000 0.000000 0.000000 0.000000 0.055202 0.000000
# 6 0.000000 0.000000 0.000000 0.000000 0.000000 0.038474
#
#
# Mechanical properties :
#
#
# Convention : Reuss Voigt Hill
#
# Bulk Modulus (GPa) = 57.30730 57.59820 57.45275
# Shear Modulus (GPa) = 23.28811 24.99242 24.14027
#
# Velocity S-wave (km/s) = 3.25519 3.37220 3.31421
# Velocity P-wave (km/s) = 6.34064 6.43195 6.38646
#
# Compressibility (1/GPa) = 0.01744978
#
# Stress axis : x y z
#
# Youngs Moduli (GPa) = 73.86765 73.86765 85.81278
#
# Poissons Ratio (x) = 0.42098 0.21197
# Poissons Ratio (y) = 0.42098 0.21197
# Poissons Ratio (z) = 0.18247 0.18247
#
# Static dielectric constant tensor:
#      x y z
#    x 1.882830 0.000000 0.000000 
#    y 0.000000 1.882830 0.000000 
#    z 0.000000 0.000000 1.813960 
# 
# From -- ./inp_files/6892.got.cif
#   From: 2010.05.17/outbox.cif.g08.bks.cpg/sg179_4_cif.got.tgz:6892.got - 2010.05.20 11:37:33.
