data_PCOD9583272
_publ_section_title
;
Structure prediction by ZEFSAII (Michael W. Deem and Ramdas Pophale) SiO2 
 PCOD9583272
Probable space group: P 65 2 2
;
_chemical_formula_sum "Si O2"
_cell_formula_units_Z 36
_cell_length_a 21.554806
_cell_length_b 21.554806
_cell_length_c 5.362656
_cell_angle_alpha 90.000000
_cell_angle_beta 90.000000
_cell_angle_gamma 120.000000
_cell_volume 2157.738485
_symmetry_space_group_name_H-M "P 65 2 2"
_symmetry_group_IT_number 179
_symmetry_cell_setting 'hexagonal'
loop_
_space_group_symop_operation_xyz
x,y,z
x-y,x,5/6+z
-y,x-y,2/3+z
-x,-y,1/2+z
-x+y,-x,1/3+z
y,-x+y,1/6+z
x-y,-y,-z
-x,-x+y,1/3-z
y,x,2/3-z
-y,-x,1/6-z
-x+y,y,1/2-z
x,x-y,5/6-z
loop_
_atom_site_type_symbol
_atom_site_label
_atom_site_fract_x
_atom_site_fract_y
_atom_site_fract_z
Si Si1 0.420339 0.242597 0.162983
Si Si2 0.602642 0.520101 0.909243
Si Si3 0.191034 0.595517 0.416667
Si Si4 0.280586 0.561172 0.750000
O O1 0.394599 0.197300 0.416667
O O2 0.423788 0.319069 0.149558
O O3 0.387821 0.193911 0.916667
O O4 0.505268 0.270383 0.132764
O O5 0.560203 0.560203 0.833334
O O6 0.620220 0.484912 0.672328
O O7 0.547324 0.452677 0.083334
O O8 0.242615 0.601943 0.641680
#
# Coordination Sequence:
#
# PCOD9583272 Si02
#       4
#    12  12   6   6
#     4  10  20  38  54  68  96 129 157 196 259 327
#     4  12  22  35  56  76  98 128 164 221 278 331
#     4  12  22  40  49  74 102 128 176 214 272 326
#     4  10  22  36  55  64  96 132 168 208 256 332
#
# _framework density 16.684134
#
# number of rings (size 3 to 8) (size 9 to 14) (size 15 to 20)
#    1.000    0.000    8.333    0.000    0.000    0.000 
#    3.000    3.333    0.000    0.000    0.000    0.000 
#    0.000    0.000    0.000    0.000    0.000    0.000 
#
# Total GULP energy -200546.484972 kJ/mol
# GULP energy per Si atom -5570.735694 kJ/mol
# Density = 1.664616 g / cm^3
# Si number density = 16.684134 Si / 1000 Ang^3
#
#
#
# Elastic Constant Matrix: (Units=GPa)
#
#
# Indices 1 2 3 4 5 6 
#
# 1 64.8767 22.7713 26.4355 0.0000 0.0000 0.0000
# 2 22.7713 64.8767 26.4355 0.0000 0.0000 0.0000
# 3 26.4355 26.4355 104.9897 0.0000 0.0000 0.0000
# 4 0.0000 0.0000 0.0000 18.1047 0.0000 0.0000
# 5 0.0000 0.0000 0.0000 0.0000 18.1047 0.0000
# 6 0.0000 0.0000 0.0000 0.0000 0.0000 21.0527
#
#
#
# Elastic Compliance Matrix: (Units=1/GPa)
#
#
# Indices 1 2 3 4 5 6 
#
# 1 0.018601 -0.005149 -0.003387 0.000000 0.000000 0.000000
# 2 -0.005149 0.018601 -0.003387 0.000000 0.000000 0.000000
# 3 -0.003387 -0.003387 0.011230 0.000000 0.000000 0.000000
# 4 0.000000 0.000000 0.000000 0.055234 0.000000 0.000000
# 5 0.000000 0.000000 0.000000 0.000000 0.055234 0.000000
# 6 0.000000 0.000000 0.000000 0.000000 0.000000 0.047500
#
#
# Mechanical properties :
#
#
# Convention : Reuss Voigt Hill
#
# Bulk Modulus (GPa) = 40.67255 42.89198 41.78226
# Shear Modulus (GPa) = 20.96933 22.05912 21.51423
#
# Velocity S-wave (km/s) = 3.54904 3.64010 3.59486
# Velocity P-wave (km/s) = 6.42068 6.59023 6.50601
#
# Compressibility (1/GPa) = 0.02458661
#
# Stress axis : x y z
#
# Youngs Moduli (GPa) = 53.75987 53.75987 89.04324
#
# Poissons Ratio (x) = 0.27679 0.30161
# Poissons Ratio (y) = 0.27679 0.30161
# Poissons Ratio (z) = 0.18210 0.18210
#
# Static dielectric constant tensor:
#      x y z
#    x 1.582500 0.000000 0.000000 
#    y 0.000000 1.582500 0.000000 
#    z 0.000000 0.000000 1.688010 
# 
# From -- ./inp_files/645.got.cif
#   From: 2010.05.17/outbox.cif.g08.bks.cpg/sg179_1_cif.got.tgz:645.got - 2010.05.20 11:37:33.
