data_PCOD9583150
_publ_section_title
;
Structure prediction by ZEFSAII (Michael W. Deem and Ramdas Pophale) SiO2 
 PCOD9583150
Probable space group: P 65 2 2
;
_chemical_formula_sum "Si O2"
_cell_formula_units_Z 48
_cell_length_a 14.421662
_cell_length_b 14.421662
_cell_length_c 12.442945
_cell_angle_alpha 90.000000
_cell_angle_beta 90.000000
_cell_angle_gamma 120.000000
_cell_volume 2241.219739
_symmetry_space_group_name_H-M "P 65 2 2"
_symmetry_group_IT_number 179
_symmetry_cell_setting 'hexagonal'
loop_
_space_group_symop_operation_xyz
x,y,z
x-y,x,5/6+z
-y,x-y,2/3+z
-x,-y,1/2+z
-x+y,-x,1/3+z
y,-x+y,1/6+z
x-y,-y,-z
-x,-x+y,1/3-z
y,x,2/3-z
-y,-x,1/6-z
-x+y,y,1/2-z
x,x-y,5/6-z
loop_
_atom_site_type_symbol
_atom_site_label
_atom_site_fract_x
_atom_site_fract_y
_atom_site_fract_z
Si Si1 0.000000 0.837164 0.666667
Si Si2 0.327387 0.482435 0.917261
Si Si3 0.258622 0.867572 0.394540
Si Si4 0.515459 0.445483 0.969237
Si Si5 0.726377 0.273624 0.083334
O O1 0.930950 0.861899 0.750000
O O2 0.922921 0.729920 0.599612
O O3 0.403821 0.444316 0.974286
O O4 0.359772 0.494423 0.790321
O O5 0.375941 0.604687 0.949426
O O6 0.205411 0.411502 0.955104
O O7 0.386453 0.951293 0.390773
O O8 0.256125 0.786313 0.484166
O O9 0.562742 0.437259 0.083334
#
# Coordination Sequence:
#
# PCOD9583150 Si02
#       5
#     6  12  12  12   6
#     4  12  28  50  78 100 124 186 270 328 374 426
#     4  10  22  37  61  98 139 181 226 281 337 425
#     4  11  22  40  69  97 134 185 235 284 361 432
#     4  10  22  38  61  97 145 179 226 275 345 446
#     4  10  18  36  62 100 138 178 216 268 346 438
#
# _framework density 21.416910000000001
#
# number of rings (size 3 to 8) (size 9 to 14) (size 15 to 20)
#    0.000    1.500    1.250    5.250    5.250    1.000 
#    0.000    2.500    0.000    0.000    0.000    0.000 
#    0.000    0.000    0.000    0.000    0.000    0.000 
#
# Total GULP energy -267864.425679 kJ/mol
# GULP energy per Si atom -5580.508868 kJ/mol
# Density = 2.136816 g / cm^3
# Si number density = 21.416910 Si / 1000 Ang^3
#
#
#
# Elastic Constant Matrix: (Units=GPa)
#
#
# Indices 1 2 3 4 5 6 
#
# 1 97.3903 48.7574 31.2081 0.0000 0.0000 0.0000
# 2 48.7574 97.3903 31.2081 0.0000 0.0000 0.0000
# 3 31.2081 31.2081 130.1062 0.0000 0.0000 0.0000
# 4 0.0000 0.0000 0.0000 28.7153 0.0000 0.0000
# 5 0.0000 0.0000 0.0000 0.0000 28.7153 0.0000
# 6 0.0000 0.0000 0.0000 0.0000 0.0000 24.3164
#
#
#
# Elastic Compliance Matrix: (Units=1/GPa)
#
#
# Indices 1 2 3 4 5 6 
#
# 1 0.014093 -0.006469 -0.001829 0.000000 0.000000 0.000000
# 2 -0.006469 0.014093 -0.001829 0.000000 0.000000 0.000000
# 3 -0.001829 -0.001829 0.008563 0.000000 0.000000 0.000000
# 4 0.000000 0.000000 0.000000 0.034825 0.000000 0.000000
# 5 0.000000 0.000000 0.000000 0.000000 0.034825 0.000000
# 6 0.000000 0.000000 0.000000 0.000000 0.000000 0.041124
#
#
# Mechanical properties :
#
#
# Convention : Reuss Voigt Hill
#
# Bulk Modulus (GPa) = 60.62224 60.80381 60.71302
# Shear Modulus (GPa) = 28.85600 30.59697 29.72649
#
# Velocity S-wave (km/s) = 3.67460 3.78383 3.72962
# Velocity P-wave (km/s) = 6.80961 6.89507 6.85248
#
# Compressibility (1/GPa) = 0.01649560
#
# Stress axis : x y z
#
# Youngs Moduli (GPa) = 70.95834 70.95834 116.77799
#
# Poissons Ratio (x) = 0.45906 0.21354
# Poissons Ratio (y) = 0.45906 0.21354
# Poissons Ratio (z) = 0.12975 0.12975
#
# Static dielectric constant tensor:
#      x y z
#    x 1.776050 0.000000 0.000000 
#    y 0.000000 1.776050 0.000000 
#    z 0.000000 0.000000 1.924440 
# 
# From -- ./inp_files/5584.got.cif
#   From: 2010.05.17/outbox.cif.g08.bks.cpg/sg179_3_cif.got.tgz:5584.got - 2010.05.20 11:37:33.
