data_PCOD9583092
_publ_section_title
;
Structure prediction by ZEFSAII (Michael W. Deem and Ramdas Pophale) SiO2 
 PCOD9583092
Probable space group: P 65 2 2
;
_chemical_formula_sum "Si O2"
_cell_formula_units_Z 84
_cell_length_a 17.474393
_cell_length_b 17.474393
_cell_length_c 16.703031
_cell_angle_alpha 90.000000
_cell_angle_beta 90.000000
_cell_angle_gamma 120.000000
_cell_volume 4417.027635
_symmetry_space_group_name_H-M "P 65 2 2"
_symmetry_group_IT_number 179
_symmetry_cell_setting 'hexagonal'
loop_
_space_group_symop_operation_xyz
x,y,z
x-y,x,5/6+z
-y,x-y,2/3+z
-x,-y,1/2+z
-x+y,-x,1/3+z
y,-x+y,1/6+z
x-y,-y,-z
-x,-x+y,1/3-z
y,x,2/3-z
-y,-x,1/6-z
-x+y,y,1/2-z
x,x-y,5/6-z
loop_
_atom_site_type_symbol
_atom_site_label
_atom_site_fract_x
_atom_site_fract_y
_atom_site_fract_z
Si Si1 0.942366 0.362074 0.471818
Si Si2 0.428269 0.137003 0.456326
Si Si3 0.702247 0.725929 0.011706
Si Si4 0.503795 0.064492 0.072661
Si Si5 0.814652 0.661350 0.947681
Si Si6 0.758605 0.211335 0.436698
Si Si7 0.227712 0.306446 0.774165
O O1 0.834832 0.314099 0.457466
O O2 0.950183 0.294322 0.533259
O O3 0.986087 0.355225 0.389316
O O4 0.002826 0.456539 0.515505
O O5 0.469466 0.234733 0.416667
O O6 0.344056 0.077392 0.401186
O O7 0.488223 0.092463 0.446289
O O8 0.397017 0.139481 0.546242
O O9 0.705845 0.797365 0.072351
O O10 0.791871 0.730663 0.986619
O O11 0.507032 0.159222 0.073376
O O12 0.444624 0.000000 0.000000
O O13 0.808059 0.598237 0.019620
O O14 0.767138 0.154595 0.508174
O O15 0.254525 0.254525 0.833334
O O16 0.126100 0.252199 0.750000
#
# Coordination Sequence:
#
# PCOD9583092 Si02
#       7
#    12  12  12  12  12  12  12
#     4  10  19  31  54  86 113 153 191 240 299 366
#     4  10  24  41  58  79 114 159 211 260 312 368
#     4  10  19  35  57  84 119 150 200 253 300 355
#     4  12  20  35  63  85 118 166 203 250 318 376
#     4  10  19  36  57  86 115 154 198 254 299 364
#     4  10  19  32  56  81 123 146 194 246 298 362
#     4  10  16  28  47  80 114 147 180 234 283 347
#
# _framework density 19.017313000000001
#
# number of rings (size 3 to 8) (size 9 to 14) (size 15 to 20)
#    0.000    1.714    4.286    1.286    0.000    0.571 
#    0.000    0.000   12.571    0.000    0.000    0.000 
#    0.000  490.286    0.000    0.000    0.000    0.000 
#
# Total GULP energy -467664.025174 kJ/mol
# GULP energy per Si atom -5567.428871 kJ/mol
# Density = 1.897403 g / cm^3
# Si number density = 19.017313 Si / 1000 Ang^3
#
#
#
# Elastic Constant Matrix: (Units=GPa)
#
#
# Indices 1 2 3 4 5 6 
#
# 1 73.2876 28.3472 11.2925 0.0000 0.0000 0.0000
# 2 28.3472 73.2876 11.2925 0.0000 0.0000 0.0000
# 3 11.2925 11.2925 93.7950 0.0000 0.0000 0.0000
# 4 0.0000 0.0000 0.0000 15.8074 0.0000 0.0000
# 5 0.0000 0.0000 0.0000 0.0000 15.8074 0.0000
# 6 0.0000 0.0000 0.0000 0.0000 0.0000 22.4702
#
#
#
# Elastic Compliance Matrix: (Units=1/GPa)
#
#
# Indices 1 2 3 4 5 6 
#
# 1 0.016181 -0.006071 -0.001217 0.000000 0.000000 0.000000
# 2 -0.006071 0.016181 -0.001217 0.000000 0.000000 0.000000
# 3 -0.001217 -0.001217 0.010955 0.000000 0.000000 0.000000
# 4 0.000000 0.000000 0.000000 0.063261 0.000000 0.000000
# 5 0.000000 0.000000 0.000000 0.000000 0.063261 0.000000
# 6 0.000000 0.000000 0.000000 0.000000 0.000000 0.044503
#
#
# Mechanical properties :
#
#
# Convention : Reuss Voigt Hill
#
# Bulk Modulus (GPa) = 38.01523 38.02608 38.02066
# Shear Modulus (GPa) = 20.82280 23.44619 22.13450
#
# Velocity S-wave (km/s) = 3.31258 3.51506 3.41532
# Velocity P-wave (km/s) = 5.88762 6.04261 5.96562
#
# Compressibility (1/GPa) = 0.02630525
#
# Stress axis : x y z
#
# Youngs Moduli (GPa) = 61.80216 61.80216 91.28562
#
# Poissons Ratio (x) = 0.37520 0.11111
# Poissons Ratio (y) = 0.37520 0.11111
# Poissons Ratio (z) = 0.07522 0.07522
#
# Static dielectric constant tensor:
#      x y z
#    x 1.711470 0.000000 0.000000 
#    y 0.000000 1.711470 0.000000 
#    z 0.000000 0.000000 1.658470 
# 
# From -- ./inp_files/6127.got.cif
#   From: 2010.05.17/outbox.cif.g08.bks.cpg/sg179_4_cif.got.tgz:6127.got - 2010.05.20 11:37:33.
