data_PCOD9583157
_publ_section_title
;
Structure prediction by ZEFSAII (Michael W. Deem and Ramdas Pophale) SiO2 
 PCOD9583157
Probable space group: P 65 2 2
;
_chemical_formula_sum "Si O2"
_cell_formula_units_Z 48
_cell_length_a 10.727418
_cell_length_b 10.727418
_cell_length_c 22.110907
_cell_angle_alpha 90.000000
_cell_angle_beta 90.000000
_cell_angle_gamma 120.000000
_cell_volume 2203.573782
_symmetry_space_group_name_H-M "P 65 2 2"
_symmetry_group_IT_number 179
_symmetry_cell_setting 'hexagonal'
loop_
_space_group_symop_operation_xyz
x,y,z
x-y,x,5/6+z
-y,x-y,2/3+z
-x,-y,1/2+z
-x+y,-x,1/3+z
y,-x+y,1/6+z
x-y,-y,-z
-x,-x+y,1/3-z
y,x,2/3-z
-y,-x,1/6-z
-x+y,y,1/2-z
x,x-y,5/6-z
loop_
_atom_site_type_symbol
_atom_site_label
_atom_site_fract_x
_atom_site_fract_y
_atom_site_fract_z
Si Si1 0.892334 0.592477 0.427520
Si Si2 0.148829 0.619219 0.192324
Si Si3 0.835816 0.673782 0.553420
Si Si4 0.661709 0.338292 0.583334
Si Si5 0.297871 0.000000 0.500000
O O1 0.924931 0.462466 0.416667
O O2 0.721425 0.520657 0.416162
O O3 0.915821 0.662218 0.494137
O O4 0.992592 0.722050 0.381917
O O5 0.271499 0.692832 0.142073
O O6 0.112268 0.454127 0.196778
O O7 0.000000 0.599123 0.166667
O O8 0.738060 0.507880 0.574840
O O9 0.939008 0.747506 0.610589
#
# Coordination Sequence:
#
# PCOD9583157 Si02
#       5
#    12  12  12   6   6
#     4  12  25  38  69 102 133 164 227 285 334 392
#     4   9  21  37  62  89 126 173 205 260 325 391
#     4  11  24  41  64 101 130 173 216 280 333 402
#     4  10  18  38  60  94 130 162 212 254 340 382
#     4   8  22  44  66  86 134 184 206 260 332 406
#
# _framework density 21.782795
#
# number of rings (size 3 to 8) (size 9 to 14) (size 15 to 20)
#    0.750    1.000    3.750    0.000    7.000    1.000 
#    0.000    0.000    8.250    0.000    0.000    0.000 
#    0.000    0.000    0.000    0.000    0.000    0.000 
#
# Total GULP energy -267511.112816 kJ/mol
# GULP energy per Si atom -5573.148184 kJ/mol
# Density = 2.173322 g / cm^3
# Si number density = 21.782795 Si / 1000 Ang^3
#
#
#
# Elastic Constant Matrix: (Units=GPa)
#
#
# Indices 1 2 3 4 5 6 
#
# 1 49.1888 4.6661 10.3472 0.0000 0.0000 0.0000
# 2 4.6661 49.1888 10.3472 0.0000 0.0000 0.0000
# 3 10.3472 10.3472 65.5711 0.0000 0.0000 0.0000
# 4 0.0000 0.0000 0.0000 25.0079 0.0000 0.0000
# 5 0.0000 0.0000 0.0000 0.0000 25.0079 0.0000
# 6 0.0000 0.0000 0.0000 0.0000 0.0000 22.2613
#
#
#
# Elastic Compliance Matrix: (Units=1/GPa)
#
#
# Indices 1 2 3 4 5 6 
#
# 1 0.021114 -0.001347 -0.003119 0.000000 0.000000 0.000000
# 2 -0.001347 0.021114 -0.003119 0.000000 0.000000 0.000000
# 3 -0.003119 -0.003119 0.016235 0.000000 0.000000 0.000000
# 4 0.000000 0.000000 0.000000 0.039987 0.000000 0.000000
# 5 0.000000 0.000000 0.000000 0.000000 0.039987 0.000000
# 6 0.000000 0.000000 0.000000 0.000000 0.000000 0.044921
#
#
# Mechanical properties :
#
#
# Convention : Reuss Voigt Hill
#
# Bulk Modulus (GPa) = 23.09893 23.85221 23.47557
# Shear Modulus (GPa) = 23.47865 23.69463 23.58664
#
# Velocity S-wave (km/s) = 3.28663 3.30171 3.29418
# Velocity P-wave (km/s) = 5.00298 5.05063 5.02686
#
# Compressibility (1/GPa) = 0.04329205
#
# Stress axis : x y z
#
# Youngs Moduli (GPa) = 47.36248 47.36248 61.59503
#
# Poissons Ratio (x) = 0.06378 0.19213
# Poissons Ratio (y) = 0.06378 0.19213
# Poissons Ratio (z) = 0.14774 0.14774
#
# Static dielectric constant tensor:
#      x y z
#    x 1.827170 0.000000 0.000000 
#    y 0.000000 1.827170 0.000000 
#    z 0.000000 0.000000 1.840100 
# 
# From -- ./inp_files/8113.got.cif
#   From: 2010.05.17/outbox.cif.g08.bks.cpg/sg179_5_cif.got.tgz:8113.got - 2010.05.20 11:37:33.
