data_PCOD9583923
_publ_section_title
;
Structure prediction by ZEFSAII (Michael W. Deem and Ramdas Pophale) SiO2 
 PCOD9583923
Probable space group: P 62 2 2
;
_chemical_formula_sum "Si O2"
_cell_formula_units_Z 54
_cell_length_a 10.594068
_cell_length_b 10.594068
_cell_length_c 27.550256
_cell_angle_alpha 90.000000
_cell_angle_beta 90.000000
_cell_angle_gamma 120.000000
_cell_volume 2677.822478
_symmetry_space_group_name_H-M "P 62 2 2"
_symmetry_group_IT_number 180
_symmetry_cell_setting 'hexagonal'
loop_
_space_group_symop_operation_xyz
x,y,z
x-y,x,1/3+z
-y,x-y,2/3+z
-x,-y,z
-x+y,-x,1/3+z
y,-x+y,2/3+z
x-y,-y,-z
-x,-x+y,1/3-z
y,x,2/3-z
-y,-x,2/3-z
-x+y,y,-z
x,x-y,1/3-z
loop_
_atom_site_type_symbol
_atom_site_label
_atom_site_fract_x
_atom_site_fract_y
_atom_site_fract_z
Si Si1 0.000000 0.000000 0.166667
Si Si2 0.500000 0.500000 0.333334
Si Si3 0.494811 0.244504 0.771781
Si Si4 0.500000 0.500000 0.833334
Si Si5 0.500000 0.500000 0.494954
Si Si6 0.199641 0.209151 0.080726
Si Si7 0.000000 0.000000 0.666667
Si Si8 0.286438 0.798054 0.918986
O O1 0.105093 0.130899 0.129593
O O2 0.469709 0.365366 0.299016
O O3 0.476104 0.365813 0.799892
O O4 0.655588 0.304674 0.749852
O O5 0.478272 0.117032 0.808277
O O6 0.357038 0.159513 0.736917
O O7 0.635339 0.536512 0.460264
O O8 0.365660 0.246587 0.084498
O O9 0.130083 0.098738 0.036253
#
# Coordination Sequence:
#
# PCOD9583923 Si02
#       8
#     3   3  12   3   6  12   3  12
#     4  10  22  36  64 100 128 170 224 266 338 396
#     4  10  26  42  64  90 120 174 228 276 318 382
#     4  12  23  40  67  99 137 168 217 282 348 403
#     4  12  26  42  60 116 144 162 216 290 374 390
#     4  11  20  39  68  99 128 174 214 280 332 423
#     4  11  22  42  66  96 133 179 224 281 336 412
#     4  10  26  44  60  96 140 182 232 286 346 406
#     4  11  22  41  67  92 128 172 229 269 330 413
#
# _framework density 20.16564
#
# number of rings (size 3 to 8) (size 9 to 14) (size 15 to 20)
#    0.000    0.889    4.444    2.667    0.000    2.667 
#    4.000    0.000    0.000    0.000    0.000    0.000 
#    0.000    0.000    0.000    0.000    0.000    0.000 
#
# Total GULP energy -301619.606932 kJ/mol
# GULP energy per Si atom -5585.548277 kJ/mol
# Density = 2.011974 g / cm^3
# Si number density = 20.165640 Si / 1000 Ang^3
#
#
#
# Elastic Constant Matrix: (Units=GPa)
#
#
# Indices 1 2 3 4 5 6 
#
# 1 130.1587 48.0662 36.1151 0.0000 0.0000 0.0000
# 2 48.0662 130.1587 36.1151 0.0000 0.0000 0.0000
# 3 36.1151 36.1151 89.5091 0.0000 0.0000 0.0000
# 4 0.0000 0.0000 0.0000 12.3238 0.0000 0.0000
# 5 0.0000 0.0000 0.0000 0.0000 12.3238 0.0000
# 6 0.0000 0.0000 0.0000 0.0000 0.0000 41.0462
#
#
#
# Elastic Compliance Matrix: (Units=1/GPa)
#
#
# Indices 1 2 3 4 5 6 
#
# 1 0.009445 -0.002737 -0.002706 0.000000 0.000000 0.000000
# 2 -0.002737 0.009445 -0.002706 0.000000 0.000000 0.000000
# 3 -0.002706 -0.002706 0.013356 0.000000 0.000000 0.000000
# 4 0.000000 0.000000 0.000000 0.081144 0.000000 0.000000
# 5 0.000000 0.000000 0.000000 0.000000 0.081144 0.000000
# 6 0.000000 0.000000 0.000000 0.000000 0.000000 0.024363
#
#
# Mechanical properties :
#
#
# Convention : Reuss Voigt Hill
#
# Bulk Modulus (GPa) = 62.71254 65.60212 64.15733
# Shear Modulus (GPa) = 20.78913 28.44076 24.61494
#
# Velocity S-wave (km/s) = 3.21428 3.75955 3.49755
# Velocity P-wave (km/s) = 6.70385 7.17272 6.94224
#
# Compressibility (1/GPa) = 0.01594577
#
# Stress axis : x y z
#
# Youngs Moduli (GPa) = 105.88098 105.88098 74.87251
#
# Poissons Ratio (x) = 0.28978 0.20264
# Poissons Ratio (y) = 0.28978 0.20264
# Poissons Ratio (z) = 0.28656 0.28656
#
# Static dielectric constant tensor:
#      x y z
#    x 1.727210 0.000000 0.000000 
#    y 0.000000 1.727210 0.000000 
#    z 0.000000 0.000000 1.730500 
# 
# From -- ./inp_files/10166.got.cif
#   From: 2010.05.17/outbox.cif.g08.bks.cpg/sg180_6_cif.got.tgz:10166.got - 2010.05.20 11:43:55.
