data_PCOD9583921
_publ_section_title
;
Structure prediction by ZEFSAII (Michael W. Deem and Ramdas Pophale) SiO2 
 PCOD9583921
Probable space group: P 62 2 2
;
_chemical_formula_sum "Si O2"
_cell_formula_units_Z 48
_cell_length_a 19.262630
_cell_length_b 19.262630
_cell_length_c 8.340383
_cell_angle_alpha 90.000000
_cell_angle_beta 90.000000
_cell_angle_gamma 120.000000
_cell_volume 2680.080208
_symmetry_space_group_name_H-M "P 62 2 2"
_symmetry_group_IT_number 180
_symmetry_cell_setting 'hexagonal'
loop_
_space_group_symop_operation_xyz
x,y,z
x-y,x,1/3+z
-y,x-y,2/3+z
-x,-y,z
-x+y,-x,1/3+z
y,-x+y,2/3+z
x-y,-y,-z
-x,-x+y,1/3-z
y,x,2/3-z
-y,-x,2/3-z
-x+y,y,-z
x,x-y,1/3-z
loop_
_atom_site_type_symbol
_atom_site_label
_atom_site_fract_x
_atom_site_fract_y
_atom_site_fract_z
Si Si1 0.136119 0.272237 0.500000
Si Si2 0.195639 0.646620 0.513556
Si Si3 0.225339 0.192829 0.659245
Si Si4 0.385672 0.771344 0.500000
Si Si5 0.913983 0.637747 0.750253
O O1 0.168414 0.214292 0.557292
O O2 0.130547 0.329065 0.634632
O O3 0.180982 0.590491 0.666667
O O4 0.289815 0.714438 0.520748
O O5 0.183836 0.605648 0.336878
O O6 0.139427 0.684665 0.541042
O O7 0.200077 0.100039 0.666667
O O8 0.311499 0.241826 0.578191
O O9 0.224804 0.224804 0.833334
O O10 0.000000 0.663624 0.666667
#
# Coordination Sequence:
#
# PCOD9583921 Si02
#       5
#     6  12  12   6  12
#     4  10  22  41  63  92 128 158 218 244 319 379
#     4  11  21  41  64  92 131 161 210 262 327 366
#     4  11  22  40  64  91 123 161 207 263 306 379
#     4  10  22  35  62 105 118 162 210 262 310 394
#     4  10  24  41  64  92 122 170 209 261 313 382
#
# _framework density 17.909911000000001
#
# number of rings (size 3 to 8) (size 9 to 14) (size 15 to 20)
#    0.000    1.500    5.000    0.000    7.000    0.500 
#    4.500    1.875    0.000    0.000    0.000    0.000 
#    0.000    0.000    0.000    0.000    0.000    0.000 
#
# Total GULP energy -267718.283526 kJ/mol
# GULP energy per Si atom -5577.464240 kJ/mol
# Density = 1.786915 g / cm^3
# Si number density = 17.909911 Si / 1000 Ang^3
#
#
#
# Elastic Constant Matrix: (Units=GPa)
#
#
# Indices 1 2 3 4 5 6 
#
# 1 25.1013 168.3438 69.8073 0.0000 0.0000 0.0000
# 2 168.3438 25.1013 69.8073 0.0000 0.0000 0.0000
# 3 69.8073 69.8073 166.5426 0.0000 0.0000 0.0000
# 4 0.0000 0.0000 0.0000 -30.1645 0.0000 0.0000
# 5 0.0000 0.0000 0.0000 0.0000 -30.1645 0.0000
# 6 0.0000 0.0000 0.0000 0.0000 0.0000 -71.6213
#
#
#
# Elastic Compliance Matrix: (Units=1/GPa)
#
#
# Indices 1 2 3 4 5 6 
#
# 1 0.000215 0.007196 -0.003107 0.000000 0.000000 0.000000
# 2 0.007196 0.000215 -0.003107 0.000000 0.000000 0.000000
# 3 -0.003107 -0.003107 0.008609 0.000000 0.000000 0.000000
# 4 0.000000 0.000000 0.000000 -0.033152 0.000000 0.000000
# 5 0.000000 0.000000 0.000000 0.000000 -0.033152 0.000000
# 6 0.000000 0.000000 0.000000 0.000000 0.000000 -0.013962
#
#
# Mechanical properties :
#
#
# Convention : Reuss Voigt Hill
#
# Bulk Modulus (GPa) = 90.86386 92.51801 91.69093
# Shear Modulus (GPa) = -71.91745 -32.47094 -52.19419
#
# Velocity S-wave (km/s) = -6.34368 -4.26257 -5.40425
# Velocity P-wave (km/s) = 1.67702 5.24820 3.51647
#
# Compressibility (1/GPa) = 0.01100548
#
# Stress axis : x y z
#
# Youngs Moduli (GPa) = 4647.22537 4647.22545 116.16083
#
# Poissons Ratio (x) = -33.44306 0.36086
# Poissons Ratio (y) = -33.44306 0.36086
# Poissons Ratio (z) = 14.43700 14.43700
#
# Static dielectric constant tensor:
#      x y z
#    x 1.644520 0.000000 0.000000 
#    y 0.000000 1.644520 0.000000 
#    z 0.000000 0.000000 1.620140 
# 
# From -- ./inp_files/2711.got.cif
#   From: 2010.05.17/outbox.cif.g08.bks.cpg/sg180_2_cif.got.tgz:2711.got - 2010.05.20 11:43:55.
