data_PCOD9583693
_publ_section_title
;
Structure prediction by ZEFSAII (Michael W. Deem and Ramdas Pophale) SiO2 
 PCOD9583693
Probable space group: P 62 2 2
;
_chemical_formula_sum "Si O2"
_cell_formula_units_Z 90
_cell_length_a 27.124250
_cell_length_b 27.124250
_cell_length_c 7.778579
_cell_angle_alpha 90.000000
_cell_angle_beta 90.000000
_cell_angle_gamma 120.000000
_cell_volume 4956.172066
_symmetry_space_group_name_H-M "P 62 2 2"
_symmetry_group_IT_number 180
_symmetry_cell_setting 'hexagonal'
loop_
_space_group_symop_operation_xyz
x,y,z
x-y,x,1/3+z
-y,x-y,2/3+z
-x,-y,z
-x+y,-x,1/3+z
y,-x+y,2/3+z
x-y,-y,-z
-x,-x+y,1/3-z
y,x,2/3-z
-y,-x,2/3-z
-x+y,y,-z
x,x-y,1/3-z
loop_
_atom_site_type_symbol
_atom_site_label
_atom_site_fract_x
_atom_site_fract_y
_atom_site_fract_z
Si Si1 0.940040 0.679247 0.656000
Si Si2 0.465434 0.124467 0.347847
Si Si3 0.542143 0.170640 0.858628
Si Si4 0.827672 0.654832 0.203888
Si Si5 0.720582 0.660617 0.740695
Si Si6 0.237375 0.476086 0.791340
Si Si7 0.933404 0.566453 0.693738
Si Si8 0.424435 0.848869 0.500000
O O1 0.888277 0.687109 0.709693
O O2 0.944171 0.661713 0.463236
O O3 0.934680 0.624300 0.758220
O O4 0.000000 0.736069 0.666667
O O5 0.406358 0.092206 0.453039
O O6 0.489822 0.192339 0.374842
O O7 0.453402 0.101555 0.153446
O O8 0.512979 0.113553 0.425029
O O9 0.516468 0.211105 0.912900
O O10 0.570015 0.183982 0.667621
O O11 0.586799 0.173598 0.000000
O O12 0.487643 0.106145 0.854391
O O13 0.893874 0.680253 0.236831
O O14 0.787728 0.589613 0.268360
O O15 0.826104 0.652208 0.000000
O O16 0.696229 0.696229 0.833334
O O17 0.237744 0.475488 0.000000
O O18 0.000000 0.585680 0.666667
#
# Coordination Sequence:
#
# PCOD9583693 Si02
#       8
#    12  12  12  12  12  12  12   6
#     4  10  19  33  54  79 113 152 191 241 285 339
#     4  10  22  40  61  86 110 157 188 241 304 367
#     4  12  24  42  64  87 119 153 191 247 311 363
#     4  10  19  32  55  83 106 149 193 232 296 344
#     4  10  21  35  54  83 117 144 194 242 285 355
#     4  10  20  38  66  84 111 145 195 246 292 371
#     4  10  22  40  59  84 122 153 190 240 293 363
#     4  12  24  40  61  86 116 146 198 238 304 374
#
# _framework density 18.159177
#
# number of rings (size 3 to 8) (size 9 to 14) (size 15 to 20)
#    0.000    1.600    4.000    1.200    0.000    4.000 
#    0.000    2.333    2.933    0.000    0.000    0.000 
#    0.000    0.000    0.000    0.000    0.000   18.000 
#
# Total GULP energy -501390.998226 kJ/mol
# GULP energy per Si atom -5571.011091 kJ/mol
# Density = 1.811785 g / cm^3
# Si number density = 18.159177 Si / 1000 Ang^3
#
#
#
# Elastic Constant Matrix: (Units=GPa)
#
#
# Indices 1 2 3 4 5 6 
#
# 1 107.6434 65.0599 24.3046 0.0000 0.0000 0.0000
# 2 65.0599 107.6434 24.3046 0.0000 0.0000 0.0000
# 3 24.3046 24.3046 62.4727 0.0000 0.0000 0.0000
# 4 0.0000 0.0000 0.0000 25.1219 0.0000 0.0000
# 5 0.0000 0.0000 0.0000 0.0000 25.1219 0.0000
# 6 0.0000 0.0000 0.0000 0.0000 0.0000 21.2917
#
#
#
# Elastic Compliance Matrix: (Units=1/GPa)
#
#
# Indices 1 2 3 4 5 6 
#
# 1 0.014993 -0.008491 -0.002530 0.000000 0.000000 0.000000
# 2 -0.008491 0.014993 -0.002530 0.000000 0.000000 0.000000
# 3 -0.002530 -0.002530 0.017975 0.000000 0.000000 0.000000
# 4 0.000000 0.000000 0.000000 0.039806 0.000000 0.000000
# 5 0.000000 0.000000 0.000000 0.000000 0.039806 0.000000
# 6 0.000000 0.000000 0.000000 0.000000 0.000000 0.046967
#
#
# Mechanical properties :
#
#
# Convention : Reuss Voigt Hill
#
# Bulk Modulus (GPa) = 47.93593 56.12197 52.02895
# Shear Modulus (GPa) = 23.97015 25.24645 24.60830
#
# Velocity S-wave (km/s) = 3.63712 3.73270 3.68522
# Velocity P-wave (km/s) = 6.64027 7.03918 6.84263
#
# Compressibility (1/GPa) = 0.02086118
#
# Stress axis : x y z
#
# Youngs Moduli (GPa) = 66.69875 66.69875 55.63188
#
# Poissons Ratio (x) = 0.56631 0.14073
# Poissons Ratio (y) = 0.56631 0.14073
# Poissons Ratio (z) = 0.16873 0.16873
#
# Static dielectric constant tensor:
#      x y z
#    x 1.653170 0.000000 0.000000 
#    y 0.000000 1.653170 0.000000 
#    z 0.000000 0.000000 1.626910 
# 
# From -- ./inp_files/3509.got.cif
#   From: 2010.05.17/outbox.cif.g08.bks.cpg/sg180_2_cif.got.tgz:3509.got - 2010.05.20 11:43:55.
