data_PCOD9583367
_publ_section_title
;
Structure prediction by ZEFSAII (Michael W. Deem and Ramdas Pophale) SiO2 
 PCOD9583367
Probable space group: P 65 2 2
;
_chemical_formula_sum "Si O2"
_cell_formula_units_Z 48
_cell_length_a 14.215595
_cell_length_b 14.215595
_cell_length_c 11.361353
_cell_angle_alpha 90.000000
_cell_angle_beta 90.000000
_cell_angle_gamma 120.000000
_cell_volume 1988.340549
_symmetry_space_group_name_H-M "P 65 2 2"
_symmetry_group_IT_number 179
_symmetry_cell_setting 'hexagonal'
loop_
_space_group_symop_operation_xyz
x,y,z
x-y,x,5/6+z
-y,x-y,2/3+z
-x,-y,1/2+z
-x+y,-x,1/3+z
y,-x+y,1/6+z
x-y,-y,-z
-x,-x+y,1/3-z
y,x,2/3-z
-y,-x,1/6-z
-x+y,y,1/2-z
x,x-y,5/6-z
loop_
_atom_site_type_symbol
_atom_site_label
_atom_site_fract_x
_atom_site_fract_y
_atom_site_fract_z
Si Si1 0.551623 0.266114 0.669531
Si Si2 0.818208 0.841126 0.514857
Si Si3 0.455052 0.927707 0.614657
Si Si4 0.640093 0.779429 0.026998
O O1 0.650155 0.349845 0.583334
O O2 0.608383 0.216765 0.750000
O O3 0.525632 0.351583 0.734494
O O4 0.436166 0.189825 0.605991
O O5 0.923217 0.849006 0.452868
O O6 0.763717 0.881859 0.416667
O O7 0.755452 0.718507 0.560217
O O8 0.485495 0.970989 0.750000
O O9 0.326929 0.880170 0.624934
O O10 0.501485 0.000000 0.500000
O O11 0.707456 0.853728 0.916667
#
# Coordination Sequence:
#
# PCOD9583367 Si02
#       4
#    12  12  12  12
#     4   9  18  39  64  94 138 191 240 294 367 453
#     4  10  24  45  67  97 135 178 237 306 385 460
#     4   9  19  37  61  97 140 189 248 305 366 448
#     4  10  22  39  67  97 133 183 243 301 362 464
#
# _framework density 24.140734999999999
#
# number of rings (size 3 to 8) (size 9 to 14) (size 15 to 20)
#    0.000    3.000    0.000    3.000    3.500    5.000 
#   18.000   10.000    0.000    0.000    0.000    0.000 
#    0.000    0.000    0.000    0.000    0.000    0.000 
#
# Total GULP energy -267473.071674 kJ/mol
# GULP energy per Si atom -5572.355660 kJ/mol
# Density = 2.408579 g / cm^3
# Si number density = 24.140735 Si / 1000 Ang^3
#
#
#
# Elastic Constant Matrix: (Units=GPa)
#
#
# Indices 1 2 3 4 5 6 
#
# 1 73.3592 22.3806 52.4878 0.0000 0.0000 0.0000
# 2 22.3806 73.3592 52.4878 0.0000 0.0000 0.0000
# 3 52.4878 52.4878 131.3213 0.0000 0.0000 0.0000
# 4 0.0000 0.0000 0.0000 36.0603 0.0000 0.0000
# 5 0.0000 0.0000 0.0000 0.0000 36.0603 0.0000
# 6 0.0000 0.0000 0.0000 0.0000 0.0000 25.4893
#
#
#
# Elastic Compliance Matrix: (Units=1/GPa)
#
#
# Indices 1 2 3 4 5 6 
#
# 1 0.019105 -0.000511 -0.007432 0.000000 0.000000 0.000000
# 2 -0.000511 0.019105 -0.007432 0.000000 0.000000 0.000000
# 3 -0.007432 -0.007432 0.013556 0.000000 0.000000 0.000000
# 4 0.000000 0.000000 0.000000 0.027731 0.000000 0.000000
# 5 0.000000 0.000000 0.000000 0.000000 0.027731 0.000000
# 6 0.000000 0.000000 0.000000 0.000000 0.000000 0.039232
#
#
# Mechanical properties :
#
#
# Convention : Reuss Voigt Hill
#
# Bulk Modulus (GPa) = 47.58253 59.19467 53.38860
# Shear Modulus (GPa) = 27.14226 29.56754 28.35490
#
# Velocity S-wave (km/s) = 3.35675 3.50351 3.43091
# Velocity P-wave (km/s) = 5.89720 6.39844 6.15292
#
# Compressibility (1/GPa) = 0.02101612
#
# Stress axis : x y z
#
# Youngs Moduli (GPa) = 52.34282 52.34282 73.77012
#
# Poissons Ratio (x) = 0.02676 0.54823
# Poissons Ratio (y) = 0.02676 0.54823
# Poissons Ratio (z) = 0.38899 0.38899
#
# Static dielectric constant tensor:
#      x y z
#    x 1.964040 0.000000 0.000000 
#    y 0.000000 1.964040 0.000000 
#    z 0.000000 0.000000 2.082340 
# 
# From -- ./inp_files/4229.got.cif
#   From: 2010.05.17/outbox.cif.g08.bks.cpg/sg179_3_cif.got.tgz:4229.got - 2010.05.20 11:37:33.
