data_PCOD9583478
_publ_section_title
;
Structure prediction by ZEFSAII (Michael W. Deem and Ramdas Pophale) SiO2 
 PCOD9583478
Probable space group: P 65 2 2
;
_chemical_formula_sum "Si O2"
_cell_formula_units_Z 54
_cell_length_a 12.887306
_cell_length_b 12.887306
_cell_length_c 17.172778
_cell_angle_alpha 90.000000
_cell_angle_beta 90.000000
_cell_angle_gamma 120.000000
_cell_volume 2469.991556
_symmetry_space_group_name_H-M "P 65 2 2"
_symmetry_group_IT_number 179
_symmetry_cell_setting 'hexagonal'
loop_
_space_group_symop_operation_xyz
x,y,z
x-y,x,5/6+z
-y,x-y,2/3+z
-x,-y,1/2+z
-x+y,-x,1/3+z
y,-x+y,1/6+z
x-y,-y,-z
-x,-x+y,1/3-z
y,x,2/3-z
-y,-x,1/6-z
-x+y,y,1/2-z
x,x-y,5/6-z
loop_
_atom_site_type_symbol
_atom_site_label
_atom_site_fract_x
_atom_site_fract_y
_atom_site_fract_z
Si Si1 0.204032 0.333175 0.875944
Si Si2 0.965209 0.930417 0.750000
Si Si3 0.677395 0.501688 0.642629
Si Si4 0.191441 0.268806 0.050624
Si Si5 0.430726 0.859127 0.518430
O O1 0.261039 0.261039 0.833334
O O2 0.288133 0.469354 0.848134
O O3 0.062915 0.259903 0.862052
O O4 0.206496 0.337477 0.970169
O O5 0.996655 0.996655 0.833334
O O6 0.822066 0.875888 0.743490
O O7 0.570304 0.429697 0.583334
O O8 0.359282 0.257251 0.545903
O O9 0.776941 0.461326 0.633011
O O10 0.622791 0.467695 0.728329
O O11 0.497673 0.000000 0.500000
#
# Coordination Sequence:
#
# PCOD9583478 Si02
#       5
#    12   6  12  12  12
#     4  11  24  45  71 105 138 189 243 301 366 436
#     4  12  26  42  68 108 152 196 238 306 388 458
#     4  11  25  47  68 102 140 186 247 293 364 447
#     4  12  25  42  71 106 147 185 240 302 372 448
#     4  10  25  46  71  99 138 185 240 303 361 435
#
# _framework density 21.862421000000001
#
# number of rings (size 3 to 8) (size 9 to 14) (size 15 to 20)
#    0.000    0.889    4.444    1.333    3.111    6.222 
#    4.000    0.000    0.000    0.000    0.000    0.000 
#    0.000    0.000    0.000    0.000    0.000    0.000 
#
# Total GULP energy -301270.910167 kJ/mol
# GULP energy per Si atom -5579.090929 kJ/mol
# Density = 2.181266 g / cm^3
# Si number density = 21.862421 Si / 1000 Ang^3
#
#
#
# Elastic Constant Matrix: (Units=GPa)
#
#
# Indices 1 2 3 4 5 6 
#
# 1 97.6603 37.4790 -0.6374 0.0000 0.0000 0.0000
# 2 37.4790 97.6603 -0.6374 0.0000 0.0000 0.0000
# 3 -0.6374 -0.6374 67.7613 0.0000 0.0000 0.0000
# 4 0.0000 0.0000 0.0000 27.4404 0.0000 0.0000
# 5 0.0000 0.0000 0.0000 0.0000 27.4404 0.0000
# 6 0.0000 0.0000 0.0000 0.0000 0.0000 30.0907
#
#
#
# Elastic Compliance Matrix: (Units=1/GPa)
#
#
# Indices 1 2 3 4 5 6 
#
# 1 0.012008 -0.004608 0.000070 0.000000 0.000000 0.000000
# 2 -0.004608 0.012008 0.000070 0.000000 0.000000 0.000000
# 3 0.000070 0.000070 0.014759 0.000000 0.000000 0.000000
# 4 0.000000 0.000000 0.000000 0.036443 0.000000 0.000000
# 5 0.000000 0.000000 0.000000 0.000000 0.036443 0.000000
# 6 0.000000 0.000000 0.000000 0.000000 0.000000 0.033233
#
#
# Mechanical properties :
#
#
# Convention : Reuss Voigt Hill
#
# Bulk Modulus (GPa) = 33.51396 37.27669 35.39532
# Shear Modulus (GPa) = 30.52920 32.11949 31.32435
#
# Velocity S-wave (km/s) = 3.74093 3.83713 3.78933
# Velocity P-wave (km/s) = 5.83285 6.05962 5.94732
#
# Compressibility (1/GPa) = 0.02983831
#
# Stress axis : x y z
#
# Youngs Moduli (GPa) = 83.27480 83.27480 67.75529
#
# Poissons Ratio (x) = 0.38373 -0.00472
# Poissons Ratio (y) = 0.38373 -0.00472
# Poissons Ratio (z) = -0.00580 -0.00580
#
# Static dielectric constant tensor:
#      x y z
#    x 1.808430 0.000000 0.000000 
#    y 0.000000 1.808430 0.000000 
#    z 0.000000 0.000000 1.827120 
# 
# From -- ./inp_files/7396.got.cif
#   From: 2010.05.17/outbox.cif.g08.bks.cpg/sg179_4_cif.got.tgz:7396.got - 2010.05.20 11:37:33.
