data_PCOD9583053
_publ_section_title
;
Structure prediction by ZEFSAII (Michael W. Deem and Ramdas Pophale) SiO2 
 PCOD9583053
Probable space group: P 61 2 2
;
_chemical_formula_sum "Si O2"
_cell_formula_units_Z 48
_cell_length_a 14.474279
_cell_length_b 14.474279
_cell_length_c 12.803594
_cell_angle_alpha 90.000000
_cell_angle_beta 90.000000
_cell_angle_gamma 120.000000
_cell_volume 2323.038488
_symmetry_space_group_name_H-M "P 61 2 2"
_symmetry_group_IT_number 178
_symmetry_cell_setting 'hexagonal'
loop_
_space_group_symop_operation_xyz
x,y,z
x-y,x,1/6+z
-y,x-y,1/3+z
-x,-y,1/2+z
-x+y,-x,2/3+z
y,-x+y,5/6+z
x-y,-y,-z
-x,-x+y,2/3-z
y,x,1/3-z
-y,-x,5/6-z
-x+y,y,1/2-z
x,x-y,1/6-z
loop_
_atom_site_type_symbol
_atom_site_label
_atom_site_fract_x
_atom_site_fract_y
_atom_site_fract_z
Si Si1 0.860761 0.556709 0.690631
Si Si2 0.197908 0.098954 0.583334
Si Si3 0.511529 0.000000 0.000000
Si Si4 0.035088 0.361000 0.645097
Si Si5 0.343264 0.656737 0.416667
Si Si6 0.170362 0.585181 0.583334
O O1 0.808236 0.616472 0.750000
O O2 0.921804 0.519478 0.771466
O O3 0.764023 0.447792 0.647032
O O4 0.927705 0.621800 0.589669
O O5 0.130677 0.130677 0.666667
O O6 0.277491 0.207829 0.518590
O O7 0.600138 0.031508 0.908721
O O8 0.110021 0.458317 0.567972
O O9 0.245677 0.635586 0.486484
#
# Coordination Sequence:
#
# PCOD9583053 Si02
#       6
#    12   6   6  12   6   6
#     4  12  26  43  69 109 154 193 241 300 375 461
#     4  12  31  54  84 102 136 194 271 330 380 432
#     4  12  22  48  70 104 154 192 236 302 374 462
#     4  12  26  47  76 108 145 198 247 308 374 455
#     4  12  24  38  66 106 150 194 232 280 356 446
#     4  12  25  40  70 110 156 194 233 280 354 458
#
# _framework density 20.662593000000001
#
# number of rings (size 3 to 8) (size 9 to 14) (size 15 to 20)
#    0.000    0.000    7.500    2.250    7.000    0.000 
#    2.250    0.000    0.000    0.000    0.000    0.000 
#    0.000    0.000    0.000    0.000    0.000    0.000 
#
# Total GULP energy -267694.991778 kJ/mol
# GULP energy per Si atom -5576.978995 kJ/mol
# Density = 2.061556 g / cm^3
# Si number density = 20.662593 Si / 1000 Ang^3
#
#
#
# Elastic Constant Matrix: (Units=GPa)
#
#
# Indices 1 2 3 4 5 6 
#
# 1 106.7599 61.6985 47.0660 0.0000 0.0000 0.0000
# 2 61.6985 106.7599 47.0660 0.0000 0.0000 0.0000
# 3 47.0660 47.0660 92.3862 0.0000 0.0000 0.0000
# 4 0.0000 0.0000 0.0000 44.2816 0.0000 0.0000
# 5 0.0000 0.0000 0.0000 0.0000 44.2816 0.0000
# 6 0.0000 0.0000 0.0000 0.0000 0.0000 22.5307
#
#
#
# Elastic Compliance Matrix: (Units=1/GPa)
#
#
# Indices 1 2 3 4 5 6 
#
# 1 0.015245 -0.006947 -0.004228 0.000000 0.000000 0.000000
# 2 -0.006947 0.015245 -0.004228 0.000000 0.000000 0.000000
# 3 -0.004228 -0.004228 0.015132 0.000000 0.000000 0.000000
# 4 0.000000 0.000000 0.000000 0.022583 0.000000 0.000000
# 5 0.000000 0.000000 0.000000 0.000000 0.022583 0.000000
# 6 0.000000 0.000000 0.000000 0.000000 0.000000 0.044384
#
#
# Mechanical properties :
#
#
# Convention : Reuss Voigt Hill
#
# Bulk Modulus (GPa) = 67.48517 68.61855 68.05186
# Shear Modulus (GPa) = 29.25433 32.22383 30.73908
#
# Velocity S-wave (km/s) = 3.76681 3.95337 3.86121
# Velocity P-wave (km/s) = 7.18679 7.35663 7.27220
#
# Compressibility (1/GPa) = 0.01481807
#
# Stress axis : x y z
#
# Youngs Moduli (GPa) = 65.59431 65.59431 66.08639
#
# Poissons Ratio (x) = 0.45566 0.27939
# Poissons Ratio (y) = 0.45566 0.27939
# Poissons Ratio (z) = 0.27731 0.27731
#
# Static dielectric constant tensor:
#      x y z
#    x 1.774640 0.000000 0.000000 
#    y 0.000000 1.774640 0.000000 
#    z 0.000000 0.000000 1.779160 
# 
# From -- ./inp_files/4259.got.cif
#   From: 2010.05.17/outbox.cif.g08.bks.cpg/sg178_3_cif.got.tgz:4259.got - 2010.05.20 11:30:59.
