data_PCOD9583166
_publ_section_title
;
Structure prediction by ZEFSAII (Michael W. Deem and Ramdas Pophale) SiO2 
 PCOD9583166
Probable space group: P 65 2 2
;
_chemical_formula_sum "Si O2"
_cell_formula_units_Z 78
_cell_length_a 20.700309
_cell_length_b 20.700309
_cell_length_c 15.951895
_cell_angle_alpha 90.000000
_cell_angle_beta 90.000000
_cell_angle_gamma 120.000000
_cell_volume 5919.657374
_symmetry_space_group_name_H-M "P 65 2 2"
_symmetry_group_IT_number 179
_symmetry_cell_setting 'hexagonal'
loop_
_space_group_symop_operation_xyz
x,y,z
x-y,x,5/6+z
-y,x-y,2/3+z
-x,-y,1/2+z
-x+y,-x,1/3+z
y,-x+y,1/6+z
x-y,-y,-z
-x,-x+y,1/3-z
y,x,2/3-z
-y,-x,1/6-z
-x+y,y,1/2-z
x,x-y,5/6-z
loop_
_atom_site_type_symbol
_atom_site_label
_atom_site_fract_x
_atom_site_fract_y
_atom_site_fract_z
Si Si1 0.612326 0.387675 0.083334
Si Si2 0.618810 0.558070 0.901225
Si Si3 0.222070 0.566220 0.633848
Si Si4 0.351426 0.845000 0.789347
Si Si5 0.426949 0.415725 0.078730
Si Si6 0.496913 0.776206 0.006771
Si Si7 0.481259 0.879339 0.388018
O O1 0.697787 0.421537 0.108621
O O2 0.578923 0.409065 0.161853
O O3 0.608694 0.608694 0.833334
O O4 0.686656 0.546352 0.873901
O O5 0.544427 0.475300 0.897130
O O6 0.621245 0.584774 0.996669
O O7 0.171888 0.527272 0.553139
O O8 0.233856 0.648413 0.655132
O O9 0.178631 0.516743 0.714145
O O10 0.422696 0.845391 0.750000
O O11 0.281414 0.778424 0.741033
O O12 0.363174 0.927307 0.775701
O O13 0.504051 0.495950 0.083334
O O14 0.448423 0.376006 0.005157
O O15 0.521810 0.760905 0.916667
#
# Coordination Sequence:
#
# PCOD9583166 Si02
#       7
#     6  12  12  12  12  12  12
#     4  12  18  36  40  62  90 104 136 172 234 268
#     4  10  19  30  47  58  79 106 134 168 212 259
#     4  11  21  28  46  61  83 107 131 174 218 272
#     4  11  20  31  45  61  81 102 136 177 216 256
#     4   9  19  33  43  58  79 104 136 170 205 263
#     4  11  20  31  43  65  81 102 136 172 219 267
#     4  10  21  30  44  59  78 111 136 167 209 276
#
# _framework density 13.176437999999999
#
# number of rings (size 3 to 8) (size 9 to 14) (size 15 to 20)
#    0.000    1.538    4.615    3.231   10.769    0.000 
#    0.000    0.000    0.000    0.000    0.000    0.000 
#    0.000    0.000    0.000    0.000    0.000    0.000 
#
# Total GULP energy -434499.724158 kJ/mol
# GULP energy per Si atom -5570.509284 kJ/mol
# Density = 1.314645 g / cm^3
# Si number density = 13.176438 Si / 1000 Ang^3
#
#
#
# Elastic Constant Matrix: (Units=GPa)
#
#
# Indices 1 2 3 4 5 6 
#
# 1 56.7793 38.1733 41.8273 0.0000 0.0000 0.0000
# 2 38.1733 56.7793 41.8273 0.0000 0.0000 0.0000
# 3 41.8273 41.8273 112.6628 0.0000 0.0000 0.0000
# 4 0.0000 0.0000 0.0000 19.7609 0.0000 0.0000
# 5 0.0000 0.0000 0.0000 0.0000 19.7609 0.0000
# 6 0.0000 0.0000 0.0000 0.0000 0.0000 9.3030
#
#
#
# Elastic Compliance Matrix: (Units=1/GPa)
#
#
# Indices 1 2 3 4 5 6 
#
# 1 0.034699 -0.019048 -0.005810 0.000000 0.000000 0.000000
# 2 -0.019048 0.034699 -0.005810 0.000000 0.000000 0.000000
# 3 -0.005810 -0.005810 0.013190 0.000000 0.000000 0.000000
# 4 0.000000 0.000000 0.000000 0.050605 0.000000 0.000000
# 5 0.000000 0.000000 0.000000 0.000000 0.050605 0.000000
# 6 0.000000 0.000000 0.000000 0.000000 0.000000 0.107493
#
#
# Mechanical properties :
#
#
# Convention : Reuss Voigt Hill
#
# Bulk Modulus (GPa) = 47.05907 52.20858 49.63383
# Shear Modulus (GPa) = 13.90006 16.72453 15.31230
#
# Velocity S-wave (km/s) = 3.25147 3.56655 3.41265
# Velocity P-wave (km/s) = 7.06316 7.52789 7.29922
#
# Compressibility (1/GPa) = 0.02124989
#
# Stress axis : x y z
#
# Youngs Moduli (GPa) = 28.81969 28.81969 75.81234
#
# Poissons Ratio (x) = 0.54895 0.44051
# Poissons Ratio (y) = 0.54895 0.44051
# Poissons Ratio (z) = 0.16746 0.16746
#
# Static dielectric constant tensor:
#      x y z
#    x 1.442310 0.000000 0.000000 
#    y 0.000000 1.442310 0.000000 
#    z 0.000000 0.000000 1.420730 
# 
# From -- ./inp_files/6171.got.cif
#   From: 2010.05.17/outbox.cif.g08.bks.cpg/sg179_4_cif.got.tgz:6171.got - 2010.05.20 11:37:33.
