data_PCOD9583022
_publ_section_title
;
Structure prediction by ZEFSAII (Michael W. Deem and Ramdas Pophale) SiO2 
 PCOD9583022
Probable space group: P 61 2 2
;
_chemical_formula_sum "Si O2"
_cell_formula_units_Z 72
_cell_length_a 14.843033
_cell_length_b 14.843033
_cell_length_c 16.322204
_cell_angle_alpha 90.000000
_cell_angle_beta 90.000000
_cell_angle_gamma 120.000000
_cell_volume 3114.259079
_symmetry_space_group_name_H-M "P 61 2 2"
_symmetry_group_IT_number 178
_symmetry_cell_setting 'hexagonal'
loop_
_space_group_symop_operation_xyz
x,y,z
x-y,x,1/6+z
-y,x-y,1/3+z
-x,-y,1/2+z
-x+y,-x,2/3+z
y,-x+y,5/6+z
x-y,-y,-z
-x,-x+y,2/3-z
y,x,1/3-z
-y,-x,5/6-z
-x+y,y,1/2-z
x,x-y,1/6-z
loop_
_atom_site_type_symbol
_atom_site_label
_atom_site_fract_x
_atom_site_fract_y
_atom_site_fract_z
Si Si1 0.025402 0.754560 0.742127
Si Si2 0.860183 0.534081 0.485004
Si Si3 0.225804 0.961007 0.739037
Si Si4 0.479631 0.014592 0.906433
Si Si5 0.389419 0.760277 0.347620
Si Si6 0.874498 0.684439 0.340020
O O1 0.123938 0.858965 0.708984
O O2 0.034949 0.651612 0.742854
O O3 0.000000 0.771068 0.833334
O O4 0.945721 0.730917 0.669508
O O5 0.946452 0.627348 0.539569
O O6 0.749402 0.477885 0.528653
O O7 0.850094 0.590014 0.402179
O O8 0.908132 0.460059 0.468043
O O9 0.246481 0.071356 0.706340
O O10 0.568675 0.118122 0.863301
O O11 0.504573 0.000000 0.000000
O O12 0.303214 0.696787 0.416667
O O13 0.367673 0.735345 0.250000
O O14 0.824650 0.649300 0.250000
O O15 0.000000 0.753585 0.333334
#
# Coordination Sequence:
#
# PCOD9583022 Si02
#       6
#    12  12  12  12  12  12
#     4  11  25  46  71 103 142 198 252 312 379 467
#     4  12  27  45  76 108 153 203 251 320 398 467
#     4  12  23  46  71 105 149 192 251 310 388 474
#     4  11  26  46  74 110 146 205 263 320 402 476
#     4  12  29  51  74 115 161 206 272 340 400 492
#     4  12  24  44  73 112 154 196 248 321 396 486
#
# _framework density 23.119463
#
# number of rings (size 3 to 8) (size 9 to 14) (size 15 to 20)
#    0.000    0.333    5.000    2.000    7.000    0.667 
#    0.000    5.000    0.000    0.000    0.000    0.000 
#    0.000    0.000    0.000    0.000    0.000    0.000 
#
# Total GULP energy -402197.914126 kJ/mol
# GULP energy per Si atom -5586.082141 kJ/mol
# Density = 2.306684 g / cm^3
# Si number density = 23.119463 Si / 1000 Ang^3
#
#
#
# Elastic Constant Matrix: (Units=GPa)
#
#
# Indices 1 2 3 4 5 6 
#
# 1 90.2376 32.2774 21.6895 0.0000 0.0000 0.0000
# 2 32.2774 90.2376 21.6895 0.0000 0.0000 0.0000
# 3 21.6895 21.6895 142.4086 0.0000 0.0000 0.0000
# 4 0.0000 0.0000 0.0000 27.4669 0.0000 0.0000
# 5 0.0000 0.0000 0.0000 0.0000 27.4669 0.0000
# 6 0.0000 0.0000 0.0000 0.0000 0.0000 28.9801
#
#
#
# Elastic Compliance Matrix: (Units=1/GPa)
#
#
# Indices 1 2 3 4 5 6 
#
# 1 0.012940 -0.004313 -0.001314 0.000000 0.000000 0.000000
# 2 -0.004313 0.012940 -0.001314 0.000000 0.000000 0.000000
# 3 -0.001314 -0.001314 0.007422 0.000000 0.000000 0.000000
# 4 0.000000 0.000000 0.000000 0.036407 0.000000 0.000000
# 5 0.000000 0.000000 0.000000 0.000000 0.036407 0.000000
# 6 0.000000 0.000000 0.000000 0.000000 0.000000 0.034506
#
#
# Mechanical properties :
#
#
# Convention : Reuss Voigt Hill
#
# Bulk Modulus (GPa) = 51.48986 52.68851 52.08919
# Shear Modulus (GPa) = 31.05977 33.26461 32.16219
#
# Velocity S-wave (km/s) = 3.66928 3.79729 3.73383
# Velocity P-wave (km/s) = 6.34595 6.48575 6.41623
#
# Compressibility (1/GPa) = 0.01942130
#
# Stress axis : x y z
#
# Youngs Moduli (GPa) = 77.27756 77.27756 134.72899
#
# Poissons Ratio (x) = 0.33329 0.17704
# Poissons Ratio (y) = 0.33329 0.17704
# Poissons Ratio (z) = 0.10154 0.10154
#
# Static dielectric constant tensor:
#      x y z
#    x 1.903230 0.000000 0.000000 
#    y 0.000000 1.903230 0.000000 
#    z 0.000000 0.000000 1.901240 
# 
# From -- ./inp_files/6809.got.cif
#   From: 2010.05.17/outbox.cif.g08.bks.cpg/sg178_4_cif.got.tgz:6809.got - 2010.05.20 11:30:59.
