data_PCOD9583759
_publ_section_title
;
Structure prediction by ZEFSAII (Michael W. Deem and Ramdas Pophale) SiO2 
 PCOD9583759
Probable space group: P 62 2 2
;
_chemical_formula_sum "Si O2"
_cell_formula_units_Z 60
_cell_length_a 25.079448
_cell_length_b 25.079448
_cell_length_c 5.667688
_cell_angle_alpha 90.000000
_cell_angle_beta 90.000000
_cell_angle_gamma 120.000000
_cell_volume 3087.255076
_symmetry_space_group_name_H-M "P 62 2 2"
_symmetry_group_IT_number 180
_symmetry_cell_setting 'hexagonal'
loop_
_space_group_symop_operation_xyz
x,y,z
x-y,x,1/3+z
-y,x-y,2/3+z
-x,-y,z
-x+y,-x,1/3+z
y,-x+y,2/3+z
x-y,-y,-z
-x,-x+y,1/3-z
y,x,2/3-z
-y,-x,2/3-z
-x+y,y,-z
x,x-y,1/3-z
loop_
_atom_site_type_symbol
_atom_site_label
_atom_site_fract_x
_atom_site_fract_y
_atom_site_fract_z
Si Si1 0.120026 0.060013 0.666667
Si Si2 0.484647 0.928113 0.253078
Si Si3 0.941009 0.763849 0.814481
Si Si4 0.000000 0.720729 0.166667
Si Si5 0.209524 0.368019 0.254946
Si Si6 0.939446 0.608399 0.528154
O O1 0.170201 0.116319 0.506651
O O2 0.080315 0.000000 0.500000
O O3 0.450588 0.901176 0.500000
O O4 0.543766 0.919067 0.258137
O O5 0.500000 0.000000 0.254598
O O6 0.451702 0.903404 0.000000
O O7 0.878683 0.706629 0.726736
O O8 0.000000 0.775719 0.666667
O O9 0.951678 0.737693 0.056095
O O10 0.961780 0.663854 0.341682
O O11 0.195982 0.391964 0.500000
O O12 0.281114 0.388083 0.285488
O O13 0.192375 0.384749 0.000000
O O14 0.000000 0.621806 0.666667
#
# Coordination Sequence:
#
# PCOD9583759 Si02
#       6
#     6  12  12   6  12  12
#     4  12  30  52  75  84 106 138 194 282 376 454
#     4  10  20  35  55  90 128 169 213 253 293 354
#     4  12  25  42  67  90 110 146 195 267 343 424
#     4  12  20  40  63  94 121 154 202 256 334 400
#     4  12  26  41  62  92 128 164 216 265 328 396
#     4  12  23  36  63  92 132 171 217 270 318 382
#
# _framework density 19.434739
#
# number of rings (size 3 to 8) (size 9 to 14) (size 15 to 20)
#    0.000    0.400    8.000    2.400    2.800    0.000 
#    0.000    2.500    0.000    0.000    0.000    0.000 
#    0.000    0.000    0.000    3.600    0.000    6.000 
#
# Total GULP energy -334634.986219 kJ/mol
# GULP energy per Si atom -5577.249770 kJ/mol
# Density = 1.939050 g / cm^3
# Si number density = 19.434739 Si / 1000 Ang^3
#
#
#
# Elastic Constant Matrix: (Units=GPa)
#
#
# Indices 1 2 3 4 5 6 
#
# 1 80.5380 41.5274 38.8751 0.0000 0.0000 0.0000
# 2 41.5274 80.5380 38.8751 0.0000 0.0000 0.0000
# 3 38.8751 38.8751 120.8704 0.0000 0.0000 0.0000
# 4 0.0000 0.0000 0.0000 36.4830 0.0000 0.0000
# 5 0.0000 0.0000 0.0000 0.0000 36.4830 0.0000
# 6 0.0000 0.0000 0.0000 0.0000 0.0000 19.5053
#
#
#
# Elastic Compliance Matrix: (Units=1/GPa)
#
#
# Indices 1 2 3 4 5 6 
#
# 1 0.017969 -0.007666 -0.003314 0.000000 0.000000 0.000000
# 2 -0.007666 0.017969 -0.003314 0.000000 0.000000 0.000000
# 3 -0.003314 -0.003314 0.010405 0.000000 0.000000 0.000000
# 4 0.000000 0.000000 0.000000 0.027410 0.000000 0.000000
# 5 0.000000 0.000000 0.000000 0.000000 0.027410 0.000000
# 6 0.000000 0.000000 0.000000 0.000000 0.000000 0.051268
#
#
# Mechanical properties :
#
#
# Convention : Reuss Voigt Hill
#
# Bulk Modulus (GPa) = 56.31887 57.83351 57.07619
# Shear Modulus (GPa) = 26.74728 29.33884 28.04306
#
# Velocity S-wave (km/s) = 3.71382 3.88958 3.80272
# Velocity P-wave (km/s) = 6.88704 7.07066 6.97945
#
# Compressibility (1/GPa) = 0.01775604
#
# Stress axis : x y z
#
# Youngs Moduli (GPa) = 55.65278 55.65278 96.10876
#
# Poissons Ratio (x) = 0.42661 0.31848
# Poissons Ratio (y) = 0.42661 0.31848
# Poissons Ratio (z) = 0.18442 0.18442
#
# Static dielectric constant tensor:
#      x y z
#    x 1.699800 0.000000 0.000000 
#    y 0.000000 1.699800 0.000000 
#    z 0.000000 0.000000 1.811470 
# 
# From -- ./inp_files/1477.got.cif
#   From: 2010.05.17/outbox.cif.g08.bks.cpg/sg180_1_cif.got.tgz:1477.got - 2010.05.20 11:43:55.
