data_PCOD9583648
_publ_section_title
;
Structure prediction by ZEFSAII (Michael W. Deem and Ramdas Pophale) SiO2 
 PCOD9583648
Probable space group: P 62 2 2
;
_chemical_formula_sum "Si O2"
_cell_formula_units_Z 54
_cell_length_a 24.490727
_cell_length_b 24.490727
_cell_length_c 5.777151
_cell_angle_alpha 90.000000
_cell_angle_beta 90.000000
_cell_angle_gamma 120.000000
_cell_volume 3000.873616
_symmetry_space_group_name_H-M "P 62 2 2"
_symmetry_group_IT_number 180
_symmetry_cell_setting 'hexagonal'
loop_
_space_group_symop_operation_xyz
x,y,z
x-y,x,1/3+z
-y,x-y,2/3+z
-x,-y,z
-x+y,-x,1/3+z
y,-x+y,2/3+z
x-y,-y,-z
-x,-x+y,1/3-z
y,x,2/3-z
-y,-x,2/3-z
-x+y,y,-z
x,x-y,1/3-z
loop_
_atom_site_type_symbol
_atom_site_label
_atom_site_fract_x
_atom_site_fract_y
_atom_site_fract_z
Si Si1 0.795528 0.104005 0.164555
Si Si2 0.102531 0.000000 0.500000
Si Si3 0.102991 0.205982 0.500000
Si Si4 0.716024 0.000000 0.500000
Si Si5 0.557574 0.073901 0.751810
Si Si6 0.065958 0.678356 0.802667
O O1 0.837434 0.162567 0.333334
O O2 0.767488 0.041052 0.316224
O O3 0.838349 0.093256 0.984267
O O4 0.738268 0.106521 0.031927
O O5 0.088947 0.044473 0.666667
O O6 0.160831 0.046067 0.336225
O O7 0.654490 0.949935 0.363404
O O8 0.549117 0.098233 0.500000
O O9 0.627308 0.083664 0.777051
O O10 0.500000 0.000000 0.751600
O O11 0.550025 0.100050 0.000000
O O12 0.000000 0.637533 0.666667
#
# Coordination Sequence:
#
# PCOD9583648 Si02
#       6
#    12   6   6   6  12  12
#     4  11  25  40  58  82 111 151 202 259 306 374
#     4  12  30  48  68  85 105 128 178 254 360 432
#     4  12  28  47  62  86 108 142 190 262 340 414
#     4  10  22  37  59  77 107 147 199 254 290 366
#     4  10  18  30  52  82 118 153 195 243 285 336
#     4  10  20  34  53  81 112 152 196 251 290 348
#
# _framework density 17.994759999999999
#
# number of rings (size 3 to 8) (size 9 to 14) (size 15 to 20)
#    0.000    1.333    2.222    4.000    3.111   19.111 
#    0.000    0.000    0.000    0.000    0.000    0.000 
#    0.000    0.000    0.000    0.000    0.000   26.667 
#
# Total GULP energy -301289.573963 kJ/mol
# GULP energy per Si atom -5579.436555 kJ/mol
# Density = 1.795380 g / cm^3
# Si number density = 17.994760 Si / 1000 Ang^3
#
#
#
# Elastic Constant Matrix: (Units=GPa)
#
#
# Indices 1 2 3 4 5 6 
#
# 1 95.3923 63.9207 68.3722 0.0000 0.0000 0.0000
# 2 63.9207 95.3923 68.3722 0.0000 0.0000 0.0000
# 3 68.3722 68.3722 168.8411 0.0000 0.0000 0.0000
# 4 0.0000 0.0000 0.0000 40.2147 0.0000 0.0000
# 5 0.0000 0.0000 0.0000 0.0000 40.2147 0.0000
# 6 0.0000 0.0000 0.0000 0.0000 0.0000 15.7358
#
#
#
# Elastic Compliance Matrix: (Units=1/GPa)
#
#
# Indices 1 2 3 4 5 6 
#
# 1 0.020698 -0.011077 -0.003896 0.000000 0.000000 0.000000
# 2 -0.011077 0.020698 -0.003896 0.000000 0.000000 0.000000
# 3 -0.003896 -0.003896 0.009078 0.000000 0.000000 0.000000
# 4 0.000000 0.000000 0.000000 0.024867 0.000000 0.000000
# 5 0.000000 0.000000 0.000000 0.000000 0.024867 0.000000
# 6 0.000000 0.000000 0.000000 0.000000 0.000000 0.063549
#
#
# Mechanical properties :
#
#
# Convention : Reuss Voigt Hill
#
# Bulk Modulus (GPa) = 78.51704 84.55065 81.53385
# Shear Modulus (GPa) = 24.30257 29.83040 27.06649
#
# Velocity S-wave (km/s) = 3.67895 4.07594 3.88252
# Velocity P-wave (km/s) = 7.85966 8.32101 8.09362
#
# Compressibility (1/GPa) = 0.01273609
#
# Stress axis : x y z
#
# Youngs Moduli (GPa) = 48.31413 48.31413 110.15459
#
# Poissons Ratio (x) = 0.53517 0.42917
# Poissons Ratio (y) = 0.53517 0.42917
# Poissons Ratio (z) = 0.18823 0.18823
#
# Static dielectric constant tensor:
#      x y z
#    x 1.635860 0.000000 0.000000 
#    y 0.000000 1.635860 0.000000 
#    z 0.000000 0.000000 1.445900 
# 
# From -- ./inp_files/1240.got.cif
#   From: 2010.05.17/outbox.cif.g08.bks.cpg/sg180_1_cif.got.tgz:1240.got - 2010.05.20 11:43:55.
