data_PCOD9583221
_publ_section_title
;
Structure prediction by ZEFSAII (Michael W. Deem and Ramdas Pophale) SiO2 
 PCOD9583221
Probable space group: P 65 2 2
;
_chemical_formula_sum "Si O2"
_cell_formula_units_Z 60
_cell_length_a 14.408101
_cell_length_b 14.408101
_cell_length_c 19.925199
_cell_angle_alpha 90.000000
_cell_angle_beta 90.000000
_cell_angle_gamma 120.000000
_cell_volume 3582.174909
_symmetry_space_group_name_H-M "P 65 2 2"
_symmetry_group_IT_number 179
_symmetry_cell_setting 'hexagonal'
loop_
_space_group_symop_operation_xyz
x,y,z
x-y,x,5/6+z
-y,x-y,2/3+z
-x,-y,1/2+z
-x+y,-x,1/3+z
y,-x+y,1/6+z
x-y,-y,-z
-x,-x+y,1/3-z
y,x,2/3-z
-y,-x,1/6-z
-x+y,y,1/2-z
x,x-y,5/6-z
loop_
_atom_site_type_symbol
_atom_site_label
_atom_site_fract_x
_atom_site_fract_y
_atom_site_fract_z
Si Si1 0.386555 0.110156 0.964353
Si Si2 0.278699 0.771748 0.767960
Si Si3 0.056325 0.494539 0.095361
Si Si4 0.394931 0.985906 0.711839
Si Si5 0.777020 0.502135 0.417461
O O1 0.346946 0.173473 0.916667
O O2 0.461171 0.076063 0.922464
O O3 0.464408 0.197103 0.020306
O O4 0.298444 0.000000 0.000000
O O5 0.377396 0.754792 0.750000
O O6 0.170949 0.667907 0.744846
O O7 0.281090 0.785073 0.847991
O O8 0.291046 0.877291 0.732700
O O9 0.000000 0.451478 0.166667
O O10 0.990320 0.420426 0.033322
O O11 0.490008 0.980016 0.750000
O O12 0.409698 0.098119 0.736998
O O13 0.769945 0.384973 0.416667
#
# Coordination Sequence:
#
# PCOD9583221 Si02
#       5
#    12  12  12  12  12
#     4  11  23  35  55  81 116 144 185 233 289 335
#     4  10  20  32  53  75 101 146 184 210 269 321
#     4  10  21  34  49  79 111 140 178 226 268 327
#     4   9  19  33  51  70 105 138 178 217 265 323
#     4  10  20  34  54  74 109 143 183 227 266 334
#
# _framework density 16.749600999999998
#
# number of rings (size 3 to 8) (size 9 to 14) (size 15 to 20)
#    0.000    2.000    0.000    5.400   14.000    0.800 
#    0.000    0.000    0.000    0.000    0.000    1.400 
#    0.000    0.000    0.000    0.000    0.000    0.000 
#
# Total GULP energy -334540.392647 kJ/mol
# GULP energy per Si atom -5575.673211 kJ/mol
# Density = 1.671148 g / cm^3
# Si number density = 16.749601 Si / 1000 Ang^3
#
#
#
# Elastic Constant Matrix: (Units=GPa)
#
#
# Indices 1 2 3 4 5 6 
#
# 1 45.7202 34.5714 29.4873 0.0000 0.0000 0.0000
# 2 34.5714 45.7202 29.4873 0.0000 0.0000 0.0000
# 3 29.4873 29.4873 81.9521 0.0000 0.0000 0.0000
# 4 0.0000 0.0000 0.0000 22.2853 0.0000 0.0000
# 5 0.0000 0.0000 0.0000 0.0000 22.2853 0.0000
# 6 0.0000 0.0000 0.0000 0.0000 0.0000 5.5744
#
#
#
# Elastic Compliance Matrix: (Units=1/GPa)
#
#
# Indices 1 2 3 4 5 6 
#
# 1 0.053312 -0.036384 -0.006091 0.000000 0.000000 0.000000
# 2 -0.036384 0.053312 -0.006091 0.000000 0.000000 0.000000
# 3 -0.006091 -0.006091 0.016586 0.000000 0.000000 0.000000
# 4 0.000000 0.000000 0.000000 0.044873 0.000000 0.000000
# 5 0.000000 0.000000 0.000000 0.000000 0.044873 0.000000
# 6 0.000000 0.000000 0.000000 0.000000 0.000000 0.179393
#
#
# Mechanical properties :
#
#
# Convention : Reuss Voigt Hill
#
# Bulk Modulus (GPa) = 38.34608 40.05383 39.19996
# Shear Modulus (GPa) = 10.03666 15.35208 12.69437
#
# Velocity S-wave (km/s) = 2.45055 3.03076 2.75597
# Velocity P-wave (km/s) = 5.56330 6.01769 5.79495
#
# Compressibility (1/GPa) = 0.02607828
#
# Stress axis : x y z
#
# Youngs Moduli (GPa) = 18.75733 18.75733 60.29351
#
# Poissons Ratio (x) = 0.68247 0.36725
# Poissons Ratio (y) = 0.68247 0.36725
# Poissons Ratio (z) = 0.11425 0.11425
#
# Static dielectric constant tensor:
#      x y z
#    x 1.597700 0.000000 0.000000 
#    y 0.000000 1.597700 0.000000 
#    z 0.000000 0.000000 1.604390 
# 
# From -- ./inp_files/7545.got.cif
#   From: 2010.05.17/outbox.cif.g08.bks.cpg/sg179_4_cif.got.tgz:7545.got - 2010.05.20 11:37:33.
