data_PCOD9583861
_publ_section_title
;
Structure prediction by ZEFSAII (Michael W. Deem and Ramdas Pophale) SiO2 
 PCOD9583861
Probable space group: P 62 2 2
;
_chemical_formula_sum "Si O2"
_cell_formula_units_Z 60
_cell_length_a 18.099088
_cell_length_b 18.099088
_cell_length_c 14.491020
_cell_angle_alpha 90.000000
_cell_angle_beta 90.000000
_cell_angle_gamma 120.000000
_cell_volume 4110.957347
_symmetry_space_group_name_H-M "P 62 2 2"
_symmetry_group_IT_number 180
_symmetry_cell_setting 'hexagonal'
loop_
_space_group_symop_operation_xyz
x,y,z
x-y,x,1/3+z
-y,x-y,2/3+z
-x,-y,z
-x+y,-x,1/3+z
y,-x+y,2/3+z
x-y,-y,-z
-x,-x+y,1/3-z
y,x,2/3-z
-y,-x,2/3-z
-x+y,y,-z
x,x-y,1/3-z
loop_
_atom_site_type_symbol
_atom_site_label
_atom_site_fract_x
_atom_site_fract_y
_atom_site_fract_z
Si Si1 0.440764 0.291801 0.618673
Si Si2 0.676371 0.506300 0.444582
Si Si3 0.565797 0.965520 0.258481
Si Si4 0.788588 0.312544 0.574894
Si Si5 0.565294 0.399435 0.935757
O O1 0.400518 0.200259 0.666667
O O2 0.390753 0.344254 0.617793
O O3 0.464956 0.282792 0.514459
O O4 0.528724 0.354603 0.674050
O O5 0.752860 0.505719 0.500000
O O6 0.650605 0.565744 0.501295
O O7 0.695099 0.525283 0.336553
O O8 0.596034 0.409914 0.444362
O O9 0.519502 0.897977 0.340943
O O10 0.500000 0.000000 0.239715
O O11 0.687127 0.255353 0.590206
O O12 0.566188 0.433813 0.833334
#
# Coordination Sequence:
#
# PCOD9583861 Si02
#       5
#    12  12  12  12  12
#     4  11  22  35  46  66  93 125 166 213 251 295
#     4  11  20  32  49  69  96 123 163 212 253 295
#     4  10  21  36  46  69  96 125 168 211 259 296
#     4  11  20  29  49  70  90 123 162 204 254 295
#     4  11  20  32  50  68  95 124 165 211 255 292
#
# _framework density 14.595141
#
# number of rings (size 3 to 8) (size 9 to 14) (size 15 to 20)
#    0.000    1.200    8.000    0.600    2.800    4.400 
#    0.000    0.000    0.000    0.000    0.000    0.000 
#    0.000    0.000    0.000    0.000    0.000   10.000 
#
# Total GULP energy -334749.347825 kJ/mol
# GULP energy per Si atom -5579.155797 kJ/mol
# Density = 1.456192 g / cm^3
# Si number density = 14.595141 Si / 1000 Ang^3
#
#
#
# Elastic Constant Matrix: (Units=GPa)
#
#
# Indices 1 2 3 4 5 6 
#
# 1 56.8453 16.2605 22.2234 0.0000 0.0000 0.0000
# 2 16.2605 56.8453 22.2234 0.0000 0.0000 0.0000
# 3 22.2234 22.2234 119.1877 0.0000 0.0000 0.0000
# 4 0.0000 0.0000 0.0000 14.7592 0.0000 0.0000
# 5 0.0000 0.0000 0.0000 0.0000 14.7592 0.0000
# 6 0.0000 0.0000 0.0000 0.0000 0.0000 20.2924
#
#
#
# Elastic Compliance Matrix: (Units=1/GPa)
#
#
# Indices 1 2 3 4 5 6 
#
# 1 0.020034 -0.004606 -0.002877 0.000000 0.000000 0.000000
# 2 -0.004606 0.020034 -0.002877 0.000000 0.000000 0.000000
# 3 -0.002877 -0.002877 0.009463 0.000000 0.000000 0.000000
# 4 0.000000 0.000000 0.000000 0.067754 0.000000 0.000000
# 5 0.000000 0.000000 0.000000 0.000000 0.067754 0.000000
# 6 0.000000 0.000000 0.000000 0.000000 0.000000 0.049280
#
#
# Mechanical properties :
#
#
# Convention : Reuss Voigt Hill
#
# Bulk Modulus (GPa) = 34.70793 39.36587 37.03690
# Shear Modulus (GPa) = 18.89351 21.44022 20.16687
#
# Velocity S-wave (km/s) = 3.60183 3.83691 3.72123
# Velocity P-wave (km/s) = 6.41324 6.83078 6.62530
#
# Compressibility (1/GPa) = 0.02881186
#
# Stress axis : x y z
#
# Youngs Moduli (GPa) = 49.91577 49.91577 105.67639
#
# Poissons Ratio (x) = 0.22991 0.30399
# Poissons Ratio (y) = 0.22991 0.30399
# Poissons Ratio (z) = 0.14359 0.14359
#
# Static dielectric constant tensor:
#      x y z
#    x 1.482080 0.000000 0.000000 
#    y 0.000000 1.482080 0.000000 
#    z 0.000000 0.000000 1.521770 
# 
# From -- ./inp_files/6253.got.cif
#   From: 2010.05.17/outbox.cif.g08.bks.cpg/sg180_4_cif.got.tgz:6253.got - 2010.05.20 11:43:55.
