data_PCOD9583597
_publ_section_title
;
Structure prediction by ZEFSAII (Michael W. Deem and Ramdas Pophale) SiO2 
 PCOD9583597
Probable space group: P 65 2 2
;
_chemical_formula_sum "Si O2"
_cell_formula_units_Z 84
_cell_length_a 15.000000
_cell_length_b 15.000000
_cell_length_c 24.000000
_cell_angle_alpha 90.000000
_cell_angle_beta 90.000000
_cell_angle_gamma 120.000000
_cell_volume 4676.537180
_symmetry_space_group_name_H-M "P 65 2 2"
_symmetry_group_IT_number 179
_symmetry_cell_setting 'hexagonal'
loop_
_space_group_symop_operation_xyz
x,y,z
x-y,x,5/6+z
-y,x-y,2/3+z
-x,-y,1/2+z
-x+y,-x,1/3+z
y,-x+y,1/6+z
x-y,-y,-z
-x,-x+y,1/3-z
y,x,2/3-z
-y,-x,1/6-z
-x+y,y,1/2-z
x,x-y,5/6-z
loop_
_atom_site_type_symbol
_atom_site_label
_atom_site_fract_x
_atom_site_fract_y
_atom_site_fract_z
Si Si1 0.100224 0.654634 0.420460
Si Si2 0.016210 0.537524 0.226049
Si Si3 0.527025 0.341077 0.959168
Si Si4 0.531192 0.267063 0.675289
Si Si5 0.938864 0.251167 0.483707
Si Si6 0.769608 0.107374 0.412133
Si Si7 0.825148 0.325917 0.040337
O O1 0.069588 0.534794 0.416667
O O2 0.202695 0.713495 0.382725
O O3 0.131463 0.693322 0.483373
O O4 0.011064 0.668682 0.392487
O O5 0.065484 0.661044 0.222322
O O6 0.083143 0.506461 0.263131
O O7 0.000000 0.487969 0.166667
O O8 0.908191 0.495808 0.253983
O O9 0.560053 0.280027 0.916667
O O10 0.615013 0.415394 0.001406
O O11 0.420111 0.270132 0.990408
O O12 0.431328 0.223978 0.714564
O O13 0.626177 0.378594 0.692101
O O14 0.870265 0.145488 0.450109
O O15 0.018675 0.267816 0.533759
O O16 0.766788 0.233213 0.083334
#
# Coordination Sequence:
#
# PCOD9583597 Si02
#       7
#    12  12  12  12  12  12  12
#     4   9  18  35  49  72 105 140 189 231 255 318
#     4  10  22  35  47  75 114 142 185 227 270 326
#     4  11  21  31  54  81 109 157 180 223 276 329
#     4   9  20  31  51  74 105 148 192 214 260 321
#     4  10  21  34  54  76 110 142 189 224 284 326
#     4   9  20  36  51  78 104 150 182 233 269 337
#     4  10  21  34  50  72 106 146 189 230 264 312
#
# _framework density 17.962008000000001
#
# number of rings (size 3 to 8) (size 9 to 14) (size 15 to 20)
#    0.000    2.286    0.000    4.714   12.000    0.000 
#    0.000    0.000    0.000    0.000    0.000    0.000 
#    0.000   22.857    0.000    0.000    0.000    0.000 
#
# Total GULP energy -468127.307677 kJ/mol
# GULP energy per Si atom -5572.944139 kJ/mol
# Density = 1.792113 g / cm^3
# Si number density = 17.962008 Si / 1000 Ang^3
#
#
#
# Elastic Constant Matrix: (Units=GPa)
#
#
# Indices 1 2 3 4 5 6 
#
# 1 -30.6688 74.8185 -0.8696 0.0000 0.0000 0.0000
# 2 74.8185 -30.6688 -0.8696 0.0000 0.0000 0.0000
# 3 -0.8696 -0.8696 64.4149 0.0000 0.0000 0.0000
# 4 0.0000 0.0000 0.0000 51.5683 0.0000 0.0000
# 5 0.0000 0.0000 0.0000 0.0000 51.5683 0.0000
# 6 0.0000 0.0000 0.0000 0.0000 0.0000 -52.7436
#
#
#
# Elastic Compliance Matrix: (Units=1/GPa)
#
#
# Indices 1 2 3 4 5 6 
#
# 1 0.006591 0.016071 0.000306 0.000000 0.000000 0.000000
# 2 0.016071 0.006591 0.000306 0.000000 0.000000 0.000000
# 3 0.000306 0.000306 0.015533 0.000000 0.000000 0.000000
# 4 0.000000 0.000000 0.000000 0.019392 0.000000 0.000000
# 5 0.000000 0.000000 0.000000 0.000000 0.019392 0.000000
# 6 0.000000 0.000000 0.000000 0.000000 0.000000 -0.018960
#
#
# Mechanical properties :
#
#
# Convention : Reuss Voigt Hill
#
# Bulk Modulus (GPa) = 16.10804 16.58179 16.34491
# Shear Modulus (GPa) = 139.40488 5.41179 72.40833
#
# Velocity S-wave (km/s) = 8.81927 1.73766 6.35606
# Velocity P-wave (km/s) = 10.61571 3.64384 7.93633
#
# Compressibility (1/GPa) = 0.06208081
#
# Stress axis : x y z
#
# Youngs Moduli (GPa) = 151.71719 151.71718 64.38066
#
# Poissons Ratio (x) = -2.43825 -0.01970
# Poissons Ratio (y) = -2.43825 -0.01970
# Poissons Ratio (z) = -0.04641 -0.04641
#
# Static dielectric constant tensor:
#      x y z
#    x 1.653960 0.000000 0.000000 
#    y 0.000000 1.653960 0.000000 
#    z 0.000000 0.000000 1.715750 
# 
# From -- ./inp_files/8337.got.cif
#   From: 2010.05.17/outbox.ucp.g08.bks.cvg/sg179_5_cif.got.tgz:8337.got - 2010.06.11 15:19:48.
