data_PCOD9583546
_publ_section_title
;
Structure prediction by ZEFSAII (Michael W. Deem and Ramdas Pophale) SiO2 
 PCOD9583546
Probable space group: P 65 2 2
;
_chemical_formula_sum "Si O2"
_cell_formula_units_Z 30
_cell_length_a 11.149682
_cell_length_b 11.149682
_cell_length_c 12.371446
_cell_angle_alpha 90.000000
_cell_angle_beta 90.000000
_cell_angle_gamma 120.000000
_cell_volume 1331.913613
_symmetry_space_group_name_H-M "P 65 2 2"
_symmetry_group_IT_number 179
_symmetry_cell_setting 'hexagonal'
loop_
_space_group_symop_operation_xyz
x,y,z
x-y,x,5/6+z
-y,x-y,2/3+z
-x,-y,1/2+z
-x+y,-x,1/3+z
y,-x+y,1/6+z
x-y,-y,-z
-x,-x+y,1/3-z
y,x,2/3-z
-y,-x,1/6-z
-x+y,y,1/2-z
x,x-y,5/6-z
loop_
_atom_site_type_symbol
_atom_site_label
_atom_site_fract_x
_atom_site_fract_y
_atom_site_fract_z
Si Si1 0.995797 0.605336 0.541986
Si Si2 0.149344 0.430228 0.500121
Si Si3 0.195504 0.000000 0.000000
O O1 0.830065 0.518248 0.517576
O O2 0.000000 0.648214 0.666667
O O3 0.087111 0.529331 0.530916
O O4 0.068702 0.715566 0.444349
O O5 0.106021 0.330356 0.601813
O O6 0.076756 0.923245 0.083334
#
# Coordination Sequence:
#
# PCOD9583546 Si02
#       3
#    12  12   6
#     4  11  24  47  72 114 160 210 270 350 417 503
#     4  11  24  46  75 110 156 212 273 333 428 495
#     4  12  24  50  74 102 146 210 274 344 414 518
#
# _framework density 22.523983999999999
#
# number of rings (size 3 to 8) (size 9 to 14) (size 15 to 20)
#    0.000    0.800    6.000    1.200    0.000    0.000 
#   39.600    0.000    0.000    0.000    0.000    0.000 
#    0.000    0.000    0.000    0.000    0.000    0.000 
#
# Total GULP energy -167040.079062 kJ/mol
# GULP energy per Si atom -5568.002635 kJ/mol
# Density = 2.247272 g / cm^3
# Si number density = 22.523984 Si / 1000 Ang^3
#
#
#
# Elastic Constant Matrix: (Units=GPa)
#
#
# Indices 1 2 3 4 5 6 
#
# 1 108.2329 33.3396 13.4188 0.0000 0.0000 0.0000
# 2 33.3396 108.2329 13.4188 0.0000 0.0000 0.0000
# 3 13.4188 13.4188 163.5314 0.0000 0.0000 0.0000
# 4 0.0000 0.0000 0.0000 42.5579 0.0000 0.0000
# 5 0.0000 0.0000 0.0000 0.0000 42.5579 0.0000
# 6 0.0000 0.0000 0.0000 0.0000 0.0000 37.4467
#
#
#
# Elastic Compliance Matrix: (Units=1/GPa)
#
#
# Indices 1 2 3 4 5 6 
#
# 1 0.010264 -0.003089 -0.000589 0.000000 0.000000 0.000000
# 2 -0.003089 0.010264 -0.000589 0.000000 0.000000 0.000000
# 3 -0.000589 -0.000589 0.006212 0.000000 0.000000 0.000000
# 4 0.000000 0.000000 0.000000 0.023497 0.000000 0.000000
# 5 0.000000 0.000000 0.000000 0.000000 0.023497 0.000000
# 6 0.000000 0.000000 0.000000 0.000000 0.000000 0.026705
#
#
# Mechanical properties :
#
#
# Convention : Reuss Voigt Hill
#
# Bulk Modulus (GPa) = 54.92440 55.59466 55.25953
# Shear Modulus (GPa) = 43.46323 45.83382 44.64853
#
# Velocity S-wave (km/s) = 4.39753 4.51587 4.45709
# Velocity P-wave (km/s) = 7.08676 7.20602 7.14664
#
# Compressibility (1/GPa) = 0.01820684
#
# Stress axis : x y z
#
# Youngs Moduli (GPa) = 97.43051 97.43051 160.98765
#
# Poissons Ratio (x) = 0.30092 0.09478
# Poissons Ratio (y) = 0.30092 0.09478
# Poissons Ratio (z) = 0.05736 0.05736
#
# Static dielectric constant tensor:
#      x y z
#    x 1.865600 0.000000 0.000000 
#    y 0.000000 1.865600 0.000000 
#    z 0.000000 0.000000 1.770090 
# 
# From -- ./inp_files/5188.got.cif
#   From: 2010.05.17/outbox.cif.g08.bks.cpg/sg179_3_cif.got.tgz:5188.got - 2010.05.20 11:37:33.
