data_PCOD9583143
_publ_section_title
;
Structure prediction by ZEFSAII (Michael W. Deem and Ramdas Pophale) SiO2 
 PCOD9583143
Probable space group: P 65 2 2
;
_chemical_formula_sum "Si O2"
_cell_formula_units_Z 54
_cell_length_a 17.607339
_cell_length_b 17.607339
_cell_length_c 13.746237
_cell_angle_alpha 90.000000
_cell_angle_beta 90.000000
_cell_angle_gamma 120.000000
_cell_volume 3690.641925
_symmetry_space_group_name_H-M "P 65 2 2"
_symmetry_group_IT_number 179
_symmetry_cell_setting 'hexagonal'
loop_
_space_group_symop_operation_xyz
x,y,z
x-y,x,5/6+z
-y,x-y,2/3+z
-x,-y,1/2+z
-x+y,-x,1/3+z
y,-x+y,1/6+z
x-y,-y,-z
-x,-x+y,1/3-z
y,x,2/3-z
-y,-x,1/6-z
-x+y,y,1/2-z
x,x-y,5/6-z
loop_
_atom_site_type_symbol
_atom_site_label
_atom_site_fract_x
_atom_site_fract_y
_atom_site_fract_z
Si Si1 0.000000 0.582484 0.166667
Si Si2 0.562425 0.042694 0.147987
Si Si3 0.143242 0.657537 0.809679
Si Si4 0.306141 0.762922 0.684529
Si Si5 0.676493 0.517388 0.201516
O O1 0.054259 0.553819 0.237765
O O2 0.072296 0.657194 0.096766
O O3 0.509027 0.018053 0.250000
O O4 0.648972 0.134181 0.162034
O O5 0.571356 0.959669 0.118034
O O6 0.215189 0.729608 0.740251
O O7 0.161295 0.575762 0.798338
O O8 0.154660 0.691782 0.920090
O O9 0.288366 0.711635 0.583334
O O10 0.375418 0.750836 0.750000
O O11 0.755180 0.510359 0.250000
#
# Coordination Sequence:
#
# PCOD9583143 Si02
#       5
#     6  12  12  12  12
#     4  10  18  34  48  60  92 122 152 196 246 286
#     4  10  19  34  46  62  89 124 154 195 246 291
#     4  10  20  33  46  65  92 117 157 200 239 277
#     4  11  24  32  48  69  90 121 163 209 243 284
#     4  10  20  29  47  66  86 119 155 198 239 277
#
# _framework density 14.631601
#
# number of rings (size 3 to 8) (size 9 to 14) (size 15 to 20)
#    0.000    1.778    4.444    3.333   12.444    0.000 
#    0.000    0.000    0.000    0.000    0.000    0.000 
#    0.000    0.000    0.000    0.000    0.000   33.333 
#
# Total GULP energy -301013.798313 kJ/mol
# GULP energy per Si atom -5574.329598 kJ/mol
# Density = 1.459830 g / cm^3
# Si number density = 14.631601 Si / 1000 Ang^3
#
#
#
# Elastic Constant Matrix: (Units=GPa)
#
#
# Indices 1 2 3 4 5 6 
#
# 1 73.8783 39.4126 33.1615 0.0000 0.0000 0.0000
# 2 39.4126 73.8783 33.1615 0.0000 0.0000 0.0000
# 3 33.1615 33.1615 100.2092 0.0000 0.0000 0.0000
# 4 0.0000 0.0000 0.0000 24.0616 0.0000 0.0000
# 5 0.0000 0.0000 0.0000 0.0000 24.0616 0.0000
# 6 0.0000 0.0000 0.0000 0.0000 0.0000 17.2329
#
#
#
# Elastic Compliance Matrix: (Units=1/GPa)
#
#
# Indices 1 2 3 4 5 6 
#
# 1 0.019981 -0.009033 -0.003623 0.000000 0.000000 0.000000
# 2 -0.009033 0.019981 -0.003623 0.000000 0.000000 0.000000
# 3 -0.003623 -0.003623 0.012377 0.000000 0.000000 0.000000
# 4 0.000000 0.000000 0.000000 0.041560 0.000000 0.000000
# 5 0.000000 0.000000 0.000000 0.000000 0.041560 0.000000
# 6 0.000000 0.000000 0.000000 0.000000 0.000000 0.058029
#
#
# Mechanical properties :
#
#
# Convention : Reuss Voigt Hill
#
# Bulk Modulus (GPa) = 50.55371 51.04857 50.80114
# Shear Modulus (GPa) = 21.49251 22.55324 22.02287
#
# Velocity S-wave (km/s) = 3.83679 3.93033 3.88385
# Velocity P-wave (km/s) = 7.36573 7.45397 7.40998
#
# Compressibility (1/GPa) = 0.01978094
#
# Stress axis : x y z
#
# Youngs Moduli (GPa) = 50.04746 50.04746 80.79573
#
# Poissons Ratio (x) = 0.45209 0.29271
# Poissons Ratio (y) = 0.45209 0.29271
# Poissons Ratio (z) = 0.18131 0.18131
#
# Static dielectric constant tensor:
#      x y z
#    x 1.488470 0.000000 0.000000 
#    y 0.000000 1.488470 0.000000 
#    z 0.000000 0.000000 1.570150 
# 
# From -- ./inp_files/4530.got.cif
#   From: 2010.05.17/outbox.cif.g08.bks.cpg/sg179_3_cif.got.tgz:4530.got - 2010.05.20 11:37:33.
