data_PCOD9583211
_publ_section_title
;
Structure prediction by ZEFSAII (Michael W. Deem and Ramdas Pophale) SiO2 
 PCOD9583211
Probable space group: P 65 2 2
;
_chemical_formula_sum "Si O2"
_cell_formula_units_Z 72
_cell_length_a 13.967986
_cell_length_b 13.967986
_cell_length_c 20.702107
_cell_angle_alpha 90.000000
_cell_angle_beta 90.000000
_cell_angle_gamma 120.000000
_cell_volume 3497.943278
_symmetry_space_group_name_H-M "P 65 2 2"
_symmetry_group_IT_number 179
_symmetry_cell_setting 'hexagonal'
loop_
_space_group_symop_operation_xyz
x,y,z
x-y,x,5/6+z
-y,x-y,2/3+z
-x,-y,1/2+z
-x+y,-x,1/3+z
y,-x+y,1/6+z
x-y,-y,-z
-x,-x+y,1/3-z
y,x,2/3-z
-y,-x,1/6-z
-x+y,y,1/2-z
x,x-y,5/6-z
loop_
_atom_site_type_symbol
_atom_site_label
_atom_site_fract_x
_atom_site_fract_y
_atom_site_fract_z
Si Si1 0.421022 0.530975 0.714194
Si Si2 0.420622 0.190737 0.784217
Si Si3 0.362735 0.366954 0.142995
Si Si4 0.627442 0.627442 0.333334
Si Si5 0.773206 0.265552 0.200541
Si Si6 0.658885 0.329443 0.416667
Si Si7 0.947751 0.689515 0.720298
O O1 0.301559 0.461987 0.682708
O O2 0.509647 0.544121 0.659594
O O3 0.419044 0.462318 0.776191
O O4 0.452282 0.652940 0.739235
O O5 0.362787 0.261069 0.803451
O O6 0.538354 0.269359 0.749805
O O7 0.357505 0.081269 0.740100
O O8 0.291567 0.424475 0.121482
O O9 0.323756 0.316154 0.215420
O O10 0.706626 0.289712 0.146423
O O11 0.890433 0.303011 0.164348
O O12 0.843863 0.687725 0.750000
O O13 0.000000 0.785010 0.666667
#
# Coordination Sequence:
#
# PCOD9583211 Si02
#       7
#    12  12  12   6  12   6  12
#     4  12  23  44  65  94 136 182 227 284 350 421
#     4  12  27  43  60  96 142 186 237 277 337 427
#     4  11  22  41  62 101 138 169 228 291 338 404
#     4  12  26  44  66  88 136 196 228 272 350 436
#     4  11  22  38  70  97 132 181 221 285 350 404
#     4  12  20  42  58  96 130 170 232 274 332 426
#     4  10  19  37  66 101 129 170 217 268 347 405
#
# _framework density 20.583524000000001
#
# number of rings (size 3 to 8) (size 9 to 14) (size 15 to 20)
#    0.000    0.667    7.500    2.500    0.000    1.333 
#    6.000    0.000    0.000    0.000    8.667    0.000 
#    0.000    0.000    0.000    0.000    0.000    0.000 
#
# Total GULP energy -401720.274364 kJ/mol
# GULP energy per Si atom -5579.448255 kJ/mol
# Density = 2.053667 g / cm^3
# Si number density = 20.583524 Si / 1000 Ang^3
#
#
#
# Elastic Constant Matrix: (Units=GPa)
#
#
# Indices 1 2 3 4 5 6 
#
# 1 106.7435 46.2303 49.0553 0.0000 0.0000 0.0000
# 2 46.2303 106.7435 49.0553 0.0000 0.0000 0.0000
# 3 49.0553 49.0553 122.4500 0.0000 0.0000 0.0000
# 4 0.0000 0.0000 0.0000 -53.0967 0.0000 0.0000
# 5 0.0000 0.0000 0.0000 0.0000 -53.0967 0.0000
# 6 0.0000 0.0000 0.0000 0.0000 0.0000 30.2566
#
#
#
# Elastic Compliance Matrix: (Units=1/GPa)
#
#
# Indices 1 2 3 4 5 6 
#
# 1 0.012661 -0.003864 -0.003524 0.000000 0.000000 0.000000
# 2 -0.003864 0.012661 -0.003524 0.000000 0.000000 0.000000
# 3 -0.003524 -0.003524 0.010990 0.000000 0.000000 0.000000
# 4 0.000000 0.000000 0.000000 -0.018834 0.000000 0.000000
# 5 0.000000 0.000000 0.000000 0.000000 -0.018834 0.000000
# 6 0.000000 0.000000 0.000000 0.000000 0.000000 0.033051
#
#
# Mechanical properties :
#
#
# Convention : Reuss Voigt Hill
#
# Bulk Modulus (GPa) = 69.02365 69.40210 69.21288
# Shear Modulus (GPa) = 85.68764 -2.41430 41.63667
#
# Velocity S-wave (km/s) = 6.45907 -1.08419 4.50245
# Velocity P-wave (km/s) = 9.44629 5.67655 7.79280
#
# Compressibility (1/GPa) = 0.01448779
#
# Stress axis : x y z
#
# Youngs Moduli (GPa) = 78.98027 78.98027 90.98803
#
# Poissons Ratio (x) = 0.30517 0.32068
# Poissons Ratio (y) = 0.30517 0.32068
# Poissons Ratio (z) = 0.27836 0.27836
#
# Static dielectric constant tensor:
#      x y z
#    x 2.570070 0.000000 0.000000 
#    y 0.000000 2.570070 0.000000 
#    z 0.000000 0.000000 4.418180 
# 
# From -- ./inp_files/7716.got.cif
#   From: 2010.05.17/outbox.cif.g08.bks.cpg/sg179_4_cif.got.tgz:7716.got - 2010.05.20 11:37:33.
