data_PCOD9583547
_publ_section_title
;
Structure prediction by ZEFSAII (Michael W. Deem and Ramdas Pophale) SiO2 
 PCOD9583547
Probable space group: P 65 2 2
;
_chemical_formula_sum "Si O2"
_cell_formula_units_Z 72
_cell_length_a 14.956888
_cell_length_b 14.956888
_cell_length_c 17.585979
_cell_angle_alpha 90.000000
_cell_angle_beta 90.000000
_cell_angle_gamma 120.000000
_cell_volume 3407.059085
_symmetry_space_group_name_H-M "P 65 2 2"
_symmetry_group_IT_number 179
_symmetry_cell_setting 'hexagonal'
loop_
_space_group_symop_operation_xyz
x,y,z
x-y,x,5/6+z
-y,x-y,2/3+z
-x,-y,1/2+z
-x+y,-x,1/3+z
y,-x+y,1/6+z
x-y,-y,-z
-x,-x+y,1/3-z
y,x,2/3-z
-y,-x,1/6-z
-x+y,y,1/2-z
x,x-y,5/6-z
loop_
_atom_site_type_symbol
_atom_site_label
_atom_site_fract_x
_atom_site_fract_y
_atom_site_fract_z
Si Si1 0.392082 0.000000 0.500000
Si Si2 0.957589 0.709712 0.247647
Si Si3 0.261109 0.226466 0.442786
Si Si4 0.463802 0.646899 0.156343
Si Si5 0.696859 0.900170 0.722686
Si Si6 0.388223 0.776446 0.250000
Si Si7 0.952123 0.502455 0.288720
O O1 0.358600 0.063098 0.444399
O O2 0.486665 0.065268 0.556180
O O3 0.841932 0.683863 0.250000
O O4 0.958380 0.603636 0.253553
O O5 0.000000 0.761040 0.166667
O O6 0.023069 0.777558 0.319393
O O7 0.220060 0.110030 0.416667
O O8 0.290025 0.246715 0.530938
O O9 0.177405 0.261022 0.430391
O O10 0.388985 0.611016 0.083334
O O11 0.577141 0.736477 0.132013
O O12 0.428862 0.699960 0.220998
O O13 0.479132 0.549095 0.178934
O O14 0.406187 0.858547 0.182446
#
# Coordination Sequence:
#
# PCOD9583547 Si02
#       7
#     6  12  12  12  12   6  12
#     4  12  24  44  74 100 142 194 244 302 372 438
#     4  11  25  46  73 103 141 194 241 293 368 447
#     4  12  24  45  71 110 143 191 247 303 372 444
#     4  11  26  48  73 106 145 193 247 310 372 454
#     4  11  25  45  76 103 151 193 246 304 375 440
#     4  12  28  44  78 108 144 194 250 304 378 450
#     4  11  26  47  71 105 147 188 243 310 370 438
#
# _framework density 21.132594000000001
#
# number of rings (size 3 to 8) (size 9 to 14) (size 15 to 20)
#    0.000    0.667    3.333    3.000   11.667    3.333 
#    3.000    5.000    0.000    0.000    0.000    0.000 
#    0.000    0.000    0.000    0.000    0.000    0.000 
#
# Total GULP energy -402384.648843 kJ/mol
# GULP energy per Si atom -5588.675678 kJ/mol
# Density = 2.108450 g / cm^3
# Si number density = 21.132594 Si / 1000 Ang^3
#
#
#
# Elastic Constant Matrix: (Units=GPa)
#
#
# Indices 1 2 3 4 5 6 
#
# 1 74.8439 33.4330 37.6897 0.0000 0.0000 0.0000
# 2 33.4330 74.8439 37.6897 0.0000 0.0000 0.0000
# 3 37.6897 37.6897 160.7943 0.0000 0.0000 0.0000
# 4 0.0000 0.0000 0.0000 38.1186 0.0000 0.0000
# 5 0.0000 0.0000 0.0000 0.0000 38.1186 0.0000
# 6 0.0000 0.0000 0.0000 0.0000 0.0000 20.7054
#
#
#
# Elastic Compliance Matrix: (Units=1/GPa)
#
#
# Indices 1 2 3 4 5 6 
#
# 1 0.017592 -0.006556 -0.002587 0.000000 0.000000 0.000000
# 2 -0.006556 0.017592 -0.002587 0.000000 0.000000 0.000000
# 3 -0.002587 -0.002587 0.007432 0.000000 0.000000 0.000000
# 4 0.000000 0.000000 0.000000 0.026234 0.000000 0.000000
# 5 0.000000 0.000000 0.000000 0.000000 0.026234 0.000000
# 6 0.000000 0.000000 0.000000 0.000000 0.000000 0.048296
#
#
# Mechanical properties :
#
#
# Convention : Reuss Voigt Hill
#
# Bulk Modulus (GPa) = 52.19971 58.67855 55.43913
# Shear Modulus (GPa) = 28.86401 32.83316 30.84859
#
# Velocity S-wave (km/s) = 3.69975 3.94594 3.82483
# Velocity P-wave (km/s) = 6.55786 6.97049 6.76732
#
# Compressibility (1/GPa) = 0.01915720
#
# Stress axis : x y z
#
# Youngs Moduli (GPa) = 56.84280 56.84280 134.55579
#
# Poissons Ratio (x) = 0.37265 0.34809
# Poissons Ratio (y) = 0.37265 0.34809
# Poissons Ratio (z) = 0.14705 0.14705
#
# Static dielectric constant tensor:
#      x y z
#    x 1.731250 0.000000 0.000000 
#    y 0.000000 1.731250 0.000000 
#    z 0.000000 0.000000 1.808500 
# 
# From -- ./inp_files/6885.got.cif
#   From: 2010.05.17/outbox.cif.g08.bks.cpg/sg179_4_cif.got.tgz:6885.got - 2010.05.20 11:37:33.
