data_PCOD9583725
_publ_section_title
;
Structure prediction by ZEFSAII (Michael W. Deem and Ramdas Pophale) SiO2 
 PCOD9583725
Probable space group: P 62 2 2
;
_chemical_formula_sum "Si O2"
_cell_formula_units_Z 69
_cell_length_a 19.736834
_cell_length_b 19.736834
_cell_length_c 10.101709
_cell_angle_alpha 90.000000
_cell_angle_beta 90.000000
_cell_angle_gamma 120.000000
_cell_volume 3407.849934
_symmetry_space_group_name_H-M "P 62 2 2"
_symmetry_group_IT_number 180
_symmetry_cell_setting 'hexagonal'
loop_
_space_group_symop_operation_xyz
x,y,z
x-y,x,1/3+z
-y,x-y,2/3+z
-x,-y,z
-x+y,-x,1/3+z
y,-x+y,2/3+z
x-y,-y,-z
-x,-x+y,1/3-z
y,x,2/3-z
-y,-x,2/3-z
-x+y,y,-z
x,x-y,1/3-z
loop_
_atom_site_type_symbol
_atom_site_label
_atom_site_fract_x
_atom_site_fract_y
_atom_site_fract_z
Si Si1 0.387350 0.140358 0.895069
Si Si2 0.765794 0.382897 0.166667
Si Si3 0.000000 0.500000 0.666667
Si Si4 0.128640 0.660349 0.313535
Si Si5 0.763178 0.309884 0.692916
Si Si6 0.610637 0.624036 0.146847
Si Si7 0.262676 0.919160 0.576669
O O1 0.435431 0.163863 0.756681
O O2 0.328749 0.174381 0.906079
O O3 0.454567 0.181829 0.004069
O O4 0.356306 0.048077 0.888778
O O5 0.818224 0.375829 0.280785
O O6 0.719196 0.417679 0.242651
O O7 0.042343 0.465704 0.571049
O O8 0.112540 0.691170 0.177889
O O9 0.044466 0.601995 0.375546
O O10 0.720497 0.279504 0.833334
O O11 0.805525 0.402763 0.666667
O O12 0.633187 0.698975 0.055588
O O13 0.281678 0.000000 0.500000
#
# Coordination Sequence:
#
# PCOD9583725 Si02
#       7
#    12   6   3  12  12  12  12
#     4  10  22  39  57  80 117 149 190 254 322 378
#     4  12  22  34  55  72 108 138 190 248 306 380
#     4  12  24  44  54  80 128 152 216 248 308 376
#     4   9  21  36  55  80 105 144 188 249 317 369
#     4  12  25  35  54  79 106 146 193 241 316 391
#     4   9  25  36  59  81 112 157 194 260 313 376
#     4  10  19  37  61  85 105 141 198 250 316 380
#
# _framework density 20.24737
#
# number of rings (size 3 to 8) (size 9 to 14) (size 15 to 20)
#    1.043    0.696    2.609    1.565    3.652    1.391 
#    0.000    0.000    0.000    0.000    0.000    0.000 
#    0.000    0.000    0.000    0.000    0.000    8.696 
#
# Total GULP energy -384366.744706 kJ/mol
# GULP energy per Si atom -5570.532532 kJ/mol
# Density = 2.020129 g / cm^3
# Si number density = 20.247370 Si / 1000 Ang^3
#
#
#
# Elastic Constant Matrix: (Units=GPa)
#
#
# Indices 1 2 3 4 5 6 
#
# 1 70.0078 45.6841 33.6779 0.0000 0.0000 0.0000
# 2 45.6841 70.0078 33.6779 0.0000 0.0000 0.0000
# 3 33.6779 33.6779 89.6616 0.0000 0.0000 0.0000
# 4 0.0000 0.0000 0.0000 28.9953 0.0000 0.0000
# 5 0.0000 0.0000 0.0000 0.0000 28.9953 0.0000
# 6 0.0000 0.0000 0.0000 0.0000 0.0000 12.1618
#
#
#
# Elastic Compliance Matrix: (Units=1/GPa)
#
#
# Indices 1 2 3 4 5 6 
#
# 1 0.026088 -0.015025 -0.004155 0.000000 0.000000 0.000000
# 2 -0.015025 0.026088 -0.004155 0.000000 0.000000 0.000000
# 3 -0.004155 -0.004155 0.014275 0.000000 0.000000 0.000000
# 4 0.000000 0.000000 0.000000 0.034488 0.000000 0.000000
# 5 0.000000 0.000000 0.000000 0.000000 0.034488 0.000000
# 6 0.000000 0.000000 0.000000 0.000000 0.000000 0.082224
#
#
# Mechanical properties :
#
#
# Convention : Reuss Voigt Hill
#
# Bulk Modulus (GPa) = 50.55860 50.63968 50.59914
# Shear Modulus (GPa) = 18.45600 21.80630 20.13115
#
# Velocity S-wave (km/s) = 3.02242 3.28532 3.15661
# Velocity P-wave (km/s) = 6.09957 6.28139 6.19115
#
# Compressibility (1/GPa) = 0.01977903
#
# Stress axis : x y z
#
# Youngs Moduli (GPa) = 38.33247 38.33247 70.05434
#
# Poissons Ratio (x) = 0.57593 0.29110
# Poissons Ratio (y) = 0.57593 0.29110
# Poissons Ratio (z) = 0.15928 0.15928
#
# Static dielectric constant tensor:
#      x y z
#    x 1.766580 0.000000 0.000000 
#    y 0.000000 1.766580 0.000000 
#    z 0.000000 0.000000 1.808440 
# 
# From -- ./inp_files/3272.got.cif
#   From: 2010.05.17/outbox.cif.g08.bks.cpg/sg180_2_cif.got.tgz:3272.got - 2010.05.20 11:43:55.
