data_PCOD9583069
_publ_section_title
;
Structure prediction by ZEFSAII (Michael W. Deem and Ramdas Pophale) SiO2 
 PCOD9583069
Probable space group: P 61 2 2
;
_chemical_formula_sum "Si O2"
_cell_formula_units_Z 36
_cell_length_a 7.692989
_cell_length_b 7.692989
_cell_length_c 27.044893
_cell_angle_alpha 90.000000
_cell_angle_beta 90.000000
_cell_angle_gamma 120.000000
_cell_volume 1386.136891
_symmetry_space_group_name_H-M "P 61 2 2"
_symmetry_group_IT_number 178
_symmetry_cell_setting 'hexagonal'
loop_
_space_group_symop_operation_xyz
x,y,z
x-y,x,1/6+z
-y,x-y,1/3+z
-x,-y,1/2+z
-x+y,-x,2/3+z
y,-x+y,5/6+z
x-y,-y,-z
-x,-x+y,2/3-z
y,x,1/3-z
-y,-x,5/6-z
-x+y,y,1/2-z
x,x-y,1/6-z
loop_
_atom_site_type_symbol
_atom_site_label
_atom_site_fract_x
_atom_site_fract_y
_atom_site_fract_z
Si Si1 0.590442 0.794305 0.228929
Si Si2 0.836639 0.459802 0.206906
Si Si3 0.182905 0.185324 0.295932
O O1 0.409476 0.818952 0.250000
O O2 0.531275 0.750053 0.170721
O O3 0.620825 0.639369 0.262658
O O4 0.806459 0.994432 0.226295
O O5 0.673233 0.346465 0.250000
O O6 0.924890 0.328355 0.183749
O O7 0.148228 0.296455 0.250000
O O8 0.000000 0.111735 0.333334
#
# Coordination Sequence:
#
# PCOD9583069 Si02
#       3
#    12  12  12
#     4  12  25  47  75 109 147 193 246 305 371 440
#     4  12  26  46  76 108 147 193 248 307 369 440
#     4  12  26  45  70 103 145 192 243 300 365 436
#
# _framework density 25.971461999999999
#
# number of rings (size 3 to 8) (size 9 to 14) (size 15 to 20)
#    0.000    0.000    0.000   12.000    0.000    5.333 
#    0.000    1.667    0.000    0.000    0.000    0.000 
#    0.000    0.000    0.000    0.000    0.000    0.000 
#
# Total GULP energy -201871.974935 kJ/mol
# GULP energy per Si atom -5607.554859 kJ/mol
# Density = 2.591235 g / cm^3
# Si number density = 25.971462 Si / 1000 Ang^3
#
#
#
# Elastic Constant Matrix: (Units=GPa)
#
#
# Indices 1 2 3 4 5 6 
#
# 1 121.8167 23.0895 54.1130 0.0000 0.0000 0.0000
# 2 23.0895 121.8167 54.1130 0.0000 0.0000 0.0000
# 3 54.1130 54.1130 181.9100 0.0000 0.0000 0.0000
# 4 0.0000 0.0000 0.0000 37.0612 0.0000 0.0000
# 5 0.0000 0.0000 0.0000 0.0000 37.0612 0.0000
# 6 0.0000 0.0000 0.0000 0.0000 0.0000 49.3636
#
#
#
# Elastic Compliance Matrix: (Units=1/GPa)
#
#
# Indices 1 2 3 4 5 6 
#
# 1 0.009501 -0.000628 -0.002639 0.000000 0.000000 0.000000
# 2 -0.000628 0.009501 -0.002639 0.000000 0.000000 0.000000
# 3 -0.002639 -0.002639 0.007067 0.000000 0.000000 0.000000
# 4 0.000000 0.000000 0.000000 0.026982 0.000000 0.000000
# 5 0.000000 0.000000 0.000000 0.000000 0.026982 0.000000
# 6 0.000000 0.000000 0.000000 0.000000 0.000000 0.020258
#
#
# Mechanical properties :
#
#
# Convention : Reuss Voigt Hill
#
# Bulk Modulus (GPa) = 70.15142 76.46384 73.30763
# Shear Modulus (GPa) = 42.78756 44.31238 43.54997
#
# Velocity S-wave (km/s) = 4.06332 4.13509 4.09937
# Velocity P-wave (km/s) = 7.00598 7.23215 7.11996
#
# Compressibility (1/GPa) = 0.01425488
#
# Stress axis : x y z
#
# Youngs Moduli (GPa) = 105.25708 105.25708 141.49460
#
# Poissons Ratio (x) = 0.06614 0.37344
# Poissons Ratio (y) = 0.06614 0.37344
# Poissons Ratio (z) = 0.27780 0.27780
#
# Static dielectric constant tensor:
#      x y z
#    x 2.037610 0.000000 0.000000 
#    y 0.000000 2.037610 0.000000 
#    z 0.000000 0.000000 2.060720 
# 
# From -- ./inp_files/8489.got.cif
#   From: 2010.05.17/outbox.cif.g08.bks.cpg/sg178_5_cif.got.tgz:8489.got - 2010.05.20 11:30:59.
