data_PCOD9583108
_publ_section_title
;
Structure prediction by ZEFSAII (Michael W. Deem and Ramdas Pophale) SiO2 
 PCOD9583108
Probable space group: P 65 2 2
;
_chemical_formula_sum "Si O2"
_cell_formula_units_Z 66
_cell_length_a 14.855918
_cell_length_b 14.855918
_cell_length_c 20.694246
_cell_angle_alpha 90.000000
_cell_angle_beta 90.000000
_cell_angle_gamma 120.000000
_cell_volume 3955.298151
_symmetry_space_group_name_H-M "P 65 2 2"
_symmetry_group_IT_number 179
_symmetry_cell_setting 'hexagonal'
loop_
_space_group_symop_operation_xyz
x,y,z
x-y,x,5/6+z
-y,x-y,2/3+z
-x,-y,1/2+z
-x+y,-x,1/3+z
y,-x+y,1/6+z
x-y,-y,-z
-x,-x+y,1/3-z
y,x,2/3-z
-y,-x,1/6-z
-x+y,y,1/2-z
x,x-y,5/6-z
loop_
_atom_site_type_symbol
_atom_site_label
_atom_site_fract_x
_atom_site_fract_y
_atom_site_fract_z
Si Si1 0.546399 0.280786 0.289219
Si Si2 0.522995 0.083784 0.893749
Si Si3 0.156466 0.450877 0.901339
Si Si4 0.668366 0.334183 0.416667
Si Si5 0.106515 0.350818 0.692661
Si Si6 0.395973 0.951327 0.697468
O O1 0.639829 0.279657 0.250000
O O2 0.523378 0.362387 0.253694
O O3 0.597389 0.328522 0.357984
O O4 0.455541 0.161652 0.299426
O O5 0.499672 0.126958 0.827121
O O6 0.439910 0.084088 0.944237
O O7 0.519854 0.978521 0.870451
O O8 0.253275 0.546605 0.936552
O O9 0.202995 0.387042 0.867731
O O10 0.053668 0.392172 0.945440
O O11 0.162634 0.325267 0.750000
O O12 0.000000 0.258799 0.666667
O O13 0.472330 0.944659 0.750000
#
# Coordination Sequence:
#
# PCOD9583108 Si02
#       6
#    12  12  12   6  12  12
#     4  11  19  30  47  69  99 139 184 213 251 305
#     4  10  17  32  45  67 105 135 172 213 248 301
#     4  10  17  32  45  68 100 135 173 210 251 300
#     4  12  18  28  50  72  94 146 180 202 256 304
#     4  10  21  34  51  74 106 140 167 211 269 318
#     4   9  19  30  45  69  96 135 182 215 247 301
#
# _framework density 16.68648
#
# number of rings (size 3 to 8) (size 9 to 14) (size 15 to 20)
#    0.000    1.818    6.364    0.545    2.545    0.000 
#    6.545    0.000    0.000    0.000    0.000    0.000 
#    2.727    0.000    0.000    0.000    0.000    0.000 
#
# Total GULP energy -367456.414111 kJ/mol
# GULP energy per Si atom -5567.521426 kJ/mol
# Density = 1.664850 g / cm^3
# Si number density = 16.686480 Si / 1000 Ang^3
#
#
#
# Elastic Constant Matrix: (Units=GPa)
#
#
# Indices 1 2 3 4 5 6 
#
# 1 56.2997 33.7376 17.9492 0.0000 0.0000 0.0000
# 2 33.7376 56.2997 17.9492 0.0000 0.0000 0.0000
# 3 17.9492 17.9492 36.5798 0.0000 0.0000 0.0000
# 4 0.0000 0.0000 0.0000 10.0539 0.0000 0.0000
# 5 0.0000 0.0000 0.0000 0.0000 10.0539 0.0000
# 6 0.0000 0.0000 0.0000 0.0000 0.0000 11.2811
#
#
#
# Elastic Compliance Matrix: (Units=1/GPa)
#
#
# Indices 1 2 3 4 5 6 
#
# 1 0.029065 -0.015257 -0.006775 0.000000 0.000000 0.000000
# 2 -0.015257 0.029065 -0.006775 0.000000 0.000000 0.000000
# 3 -0.006775 -0.006775 0.033987 0.000000 0.000000 0.000000
# 4 0.000000 0.000000 0.000000 0.099464 0.000000 0.000000
# 5 0.000000 0.000000 0.000000 0.000000 0.099464 0.000000
# 6 0.000000 0.000000 0.000000 0.000000 0.000000 0.088644
#
#
# Mechanical properties :
#
#
# Convention : Reuss Voigt Hill
#
# Bulk Modulus (GPa) = 28.98464 32.05013 30.51739
# Shear Modulus (GPa) = 11.14070 11.58065 11.36068
#
# Velocity S-wave (km/s) = 2.58669 2.63727 2.61211
# Velocity P-wave (km/s) = 5.13119 5.34065 5.23697
#
# Compressibility (1/GPa) = 0.03450103
#
# Stress axis : x y z
#
# Youngs Moduli (GPa) = 34.40575 34.40575 29.42336
#
# Poissons Ratio (x) = 0.52493 0.19935
# Poissons Ratio (y) = 0.52493 0.19935
# Poissons Ratio (z) = 0.23311 0.23311
#
# Static dielectric constant tensor:
#      x y z
#    x 1.586930 0.000000 0.000000 
#    y 0.000000 1.586930 0.000000 
#    z 0.000000 0.000000 1.621250 
# 
# From -- ./inp_files/8272.got.cif
#   From: 2010.05.17/outbox.cif.g08.bks.cpg/sg179_5_cif.got.tgz:8272.got - 2010.05.20 11:37:33.
