data_PCOD9583618
_publ_section_title
;
Structure prediction by ZEFSAII (Michael W. Deem and Ramdas Pophale) SiO2 
 PCOD9583618
Probable space group: P 62 2 2
;
_chemical_formula_sum "Si O2"
_cell_formula_units_Z 48
_cell_length_a 25.413244
_cell_length_b 25.413244
_cell_length_c 5.362703
_cell_angle_alpha 90.000000
_cell_angle_beta 90.000000
_cell_angle_gamma 120.000000
_cell_volume 2999.401398
_symmetry_space_group_name_H-M "P 62 2 2"
_symmetry_group_IT_number 180
_symmetry_cell_setting 'hexagonal'
loop_
_space_group_symop_operation_xyz
x,y,z
x-y,x,1/3+z
-y,x-y,2/3+z
-x,-y,z
-x+y,-x,1/3+z
y,-x+y,2/3+z
x-y,-y,-z
-x,-x+y,1/3-z
y,x,2/3-z
-y,-x,2/3-z
-x+y,y,-z
x,x-y,1/3-z
loop_
_atom_site_type_symbol
_atom_site_label
_atom_site_fract_x
_atom_site_fract_y
_atom_site_fract_z
Si Si1 0.587323 0.653389 0.402236
Si Si2 0.516112 0.284910 0.915344
Si Si3 0.828597 0.207364 0.585460
Si Si4 0.607841 0.097250 0.568750
O O1 0.642273 0.642273 0.333334
O O2 0.605500 0.723512 0.399926
O O3 0.559275 0.629639 0.676499
O O4 0.539390 0.617791 0.178003
O O5 0.541463 0.270732 0.666667
O O6 0.443477 0.235374 0.916918
O O7 0.519849 0.349312 0.900915
O O8 0.540611 0.270306 0.166667
O O9 0.826400 0.173601 0.333334
O O10 0.827268 0.172733 0.833334
O O11 0.540056 0.080111 0.500000
#
# Coordination Sequence:
#
# PCOD9583618 Si02
#       4
#    12  12  12  12
#     4  12  23  35  50  74  98 120 148 188 230 281
#     4  10  16  32  56  67  79 108 158 181 212 265
#     4  10  16  32  56  69  82 116 155 177 211 265
#     4  12  23  35  50  72  91 126 149 182 231 296
#
# _framework density 16.003193
#
# number of rings (size 3 to 8) (size 9 to 14) (size 15 to 20)
#    0.000    1.000   10.000    1.500    0.000    3.000 
#    0.000    0.000    0.000    1.500    0.000    0.000 
#    0.000    0.000    0.000    0.000    0.000    0.000 
#
# Total GULP energy -267640.163550 kJ/mol
# GULP energy per Si atom -5575.836741 kJ/mol
# Density = 1.596677 g / cm^3
# Si number density = 16.003193 Si / 1000 Ang^3
#
#
#
# Elastic Constant Matrix: (Units=GPa)
#
#
# Indices 1 2 3 4 5 6 
#
# 1 28.0155 20.9266 3.5623 0.0000 0.0000 0.0000
# 2 20.9266 28.0155 3.5623 0.0000 0.0000 0.0000
# 3 3.5623 3.5623 142.0030 0.0000 0.0000 0.0000
# 4 0.0000 0.0000 0.0000 15.2591 0.0000 0.0000
# 5 0.0000 0.0000 0.0000 0.0000 15.2591 0.0000
# 6 0.0000 0.0000 0.0000 0.0000 0.0000 3.5445
#
#
#
# Elastic Compliance Matrix: (Units=1/GPa)
#
#
# Indices 1 2 3 4 5 6 
#
# 1 0.080786 -0.060279 -0.000514 0.000000 0.000000 0.000000
# 2 -0.060279 0.080786 -0.000514 0.000000 0.000000 0.000000
# 3 -0.000514 -0.000514 0.007068 0.000000 0.000000 0.000000
# 4 0.000000 0.000000 0.000000 0.065535 0.000000 0.000000
# 5 0.000000 0.000000 0.000000 0.000000 0.065535 0.000000
# 6 0.000000 0.000000 0.000000 0.000000 0.000000 0.282131
#
#
# Mechanical properties :
#
#
# Convention : Reuss Voigt Hill
#
# Bulk Modulus (GPa) = 21.72754 28.23737 24.98246
# Shear Modulus (GPa) = 6.94639 18.14473 12.54556
#
# Velocity S-wave (km/s) = 2.08568 3.37088 2.80293
# Velocity P-wave (km/s) = 4.40529 5.73006 5.11078
#
# Compressibility (1/GPa) = 0.04602454
#
# Stress axis : x y z
#
# Youngs Moduli (GPa) = 12.37832 12.37832 141.48448
#
# Poissons Ratio (x) = 0.74616 0.07279
# Poissons Ratio (y) = 0.74616 0.07279
# Poissons Ratio (z) = 0.00637 0.00637
#
# Static dielectric constant tensor:
#      x y z
#    x 1.523260 0.000000 0.000000 
#    y 0.000000 1.523260 0.000000 
#    z 0.000000 0.000000 1.673970 
# 
# From -- ./inp_files/1113.got.cif
#   From: 2010.05.17/outbox.cif.g08.bks.cpg/sg180_1_cif.got.tgz:1113.got - 2010.05.20 11:43:55.
