data_PCOD9583805
_publ_section_title
;
Structure prediction by ZEFSAII (Michael W. Deem and Ramdas Pophale) SiO2 
 PCOD9583805
Probable space group: P 62 2 2
;
_chemical_formula_sum "Si O2"
_cell_formula_units_Z 39
_cell_length_a 8.157122
_cell_length_b 8.157122
_cell_length_c 33.007169
_cell_angle_alpha 90.000000
_cell_angle_beta 90.000000
_cell_angle_gamma 120.000000
_cell_volume 1902.010123
_symmetry_space_group_name_H-M "P 62 2 2"
_symmetry_group_IT_number 180
_symmetry_cell_setting 'hexagonal'
loop_
_space_group_symop_operation_xyz
x,y,z
x-y,x,1/3+z
-y,x-y,2/3+z
-x,-y,z
-x+y,-x,1/3+z
y,-x+y,2/3+z
x-y,-y,-z
-x,-x+y,1/3-z
y,x,2/3-z
-y,-x,2/3-z
-x+y,y,-z
x,x-y,1/3-z
loop_
_atom_site_type_symbol
_atom_site_label
_atom_site_fract_x
_atom_site_fract_y
_atom_site_fract_z
Si Si1 0.000000 0.000000 0.500000
Si Si2 0.281601 0.937991 0.624098
Si Si3 0.013230 0.322770 0.777312
Si Si4 0.668377 0.954008 0.284356
O O1 0.813634 0.857185 0.474377
O O2 0.173678 0.780816 0.590492
O O3 0.216072 0.875455 0.670281
O O4 0.500000 0.000000 0.622966
O O5 0.263604 0.123421 0.614989
O O6 0.000000 0.500000 0.794896
O O7 0.826566 0.185826 0.751723
O O8 0.500000 0.000000 0.282336
#
# Coordination Sequence:
#
# PCOD9583805 Si02
#       4
#     3  12  12  12
#     4  12  28  52  64  94 136 180 254 290 324 398
#     4  10  20  38  65 106 137 170 207 274 348 417
#     4  12  25  45  70  92 129 180 227 281 341 396
#     4  10  20  37  68 102 142 167 211 271 347 425
#
# _framework density 20.504621
#
# number of rings (size 3 to 8) (size 9 to 14) (size 15 to 20)
#    0.000    1.231    3.077    2.769    0.000    8.615 
#    5.538    0.000    0.000    0.000    0.000    0.000 
#    0.000    0.000    0.000    0.000    0.000    0.000 
#
# Total GULP energy -217917.229584 kJ/mol
# GULP energy per Si atom -5587.621271 kJ/mol
# Density = 2.045795 g / cm^3
# Si number density = 20.504621 Si / 1000 Ang^3
#
#
#
# Elastic Constant Matrix: (Units=GPa)
#
#
# Indices 1 2 3 4 5 6 
#
# 1 111.7245 30.3073 46.5178 0.0000 0.0000 0.0000
# 2 30.3073 111.7245 46.5178 0.0000 0.0000 0.0000
# 3 46.5178 46.5178 81.3739 0.0000 0.0000 0.0000
# 4 0.0000 0.0000 0.0000 42.7613 0.0000 0.0000
# 5 0.0000 0.0000 0.0000 0.0000 42.7613 0.0000
# 6 0.0000 0.0000 0.0000 0.0000 0.0000 40.7086
#
#
#
# Elastic Compliance Matrix: (Units=1/GPa)
#
#
# Indices 1 2 3 4 5 6 
#
# 1 0.011769 -0.000514 -0.006434 0.000000 0.000000 0.000000
# 2 -0.000514 0.011769 -0.006434 0.000000 0.000000 0.000000
# 3 -0.006434 -0.006434 0.019645 0.000000 0.000000 0.000000
# 4 0.000000 0.000000 0.000000 0.023386 0.000000 0.000000
# 5 0.000000 0.000000 0.000000 0.000000 0.023386 0.000000
# 6 0.000000 0.000000 0.000000 0.000000 0.000000 0.024565
#
#
# Mechanical properties :
#
#
# Convention : Reuss Voigt Hill
#
# Bulk Modulus (GPa) = 60.90447 61.27876 61.09162
# Shear Modulus (GPa) = 34.07025 37.34491 35.70758
#
# Velocity S-wave (km/s) = 4.08068 4.27229 4.17758
# Velocity P-wave (km/s) = 7.20902 7.36796 7.28892
#
# Compressibility (1/GPa) = 0.01641916
#
# Stress axis : x y z
#
# Youngs Moduli (GPa) = 84.97020 84.97020 50.90315
#
# Poissons Ratio (x) = 0.04364 0.32752
# Poissons Ratio (y) = 0.04364 0.32752
# Poissons Ratio (z) = 0.54671 0.54671
#
# Static dielectric constant tensor:
#      x y z
#    x 1.370250 0.000000 0.000000 
#    y 0.000000 1.370250 0.000000 
#    z 0.000000 0.000000 1.719690 
# 
# From -- ./inp_files/11826.got.cif
#   From: 2010.05.17/outbox.cif.g08.bks.cpg/sg180_6_cif.got.tgz:11826.got - 2010.05.20 11:43:55.
