data_PCOD9583308
_publ_section_title
;
Structure prediction by ZEFSAII (Michael W. Deem and Ramdas Pophale) SiO2 
 PCOD9583308
Probable space group: P 65 2 2
;
_chemical_formula_sum "Si O2"
_cell_formula_units_Z 84
_cell_length_a 18.028286
_cell_length_b 18.028286
_cell_length_c 14.493936
_cell_angle_alpha 90.000000
_cell_angle_beta 90.000000
_cell_angle_gamma 120.000000
_cell_volume 4079.677649
_symmetry_space_group_name_H-M "P 65 2 2"
_symmetry_group_IT_number 179
_symmetry_cell_setting 'hexagonal'
loop_
_space_group_symop_operation_xyz
x,y,z
x-y,x,5/6+z
-y,x-y,2/3+z
-x,-y,1/2+z
-x+y,-x,1/3+z
y,-x+y,1/6+z
x-y,-y,-z
-x,-x+y,1/3-z
y,x,2/3-z
-y,-x,1/6-z
-x+y,y,1/2-z
x,x-y,5/6-z
loop_
_atom_site_type_symbol
_atom_site_label
_atom_site_fract_x
_atom_site_fract_y
_atom_site_fract_z
Si Si1 0.348589 0.776863 0.162708
Si Si2 0.655601 0.736209 0.105948
Si Si3 0.170359 0.508676 0.139485
Si Si4 0.308272 0.205131 0.323808
Si Si5 0.350817 0.522259 0.155928
Si Si6 0.894435 0.619133 0.345145
Si Si7 0.752809 0.089526 0.481566
O O1 0.284927 0.715074 0.083334
O O2 0.366130 0.732260 0.250000
O O3 0.438156 0.838062 0.110386
O O4 0.309316 0.831628 0.207442
O O5 0.705920 0.838270 0.085809
O O6 0.576892 0.693378 0.036886
O O7 0.699958 0.678768 0.098151
O O8 0.627045 0.722136 0.213057
O O9 0.120801 0.404911 0.136632
O O10 0.271526 0.538748 0.142332
O O11 0.152728 0.535188 0.239387
O O12 0.244164 0.244164 0.333334
O O13 0.307772 0.153886 0.416667
O O14 0.422925 0.577076 0.083334
O O15 0.910386 0.608790 0.236323
O O16 0.843205 0.669804 0.345082
O O17 0.749658 0.000000 0.500000
#
# Coordination Sequence:
#
# PCOD9583308 Si02
#       7
#    12  12  12  12  12  12  12
#     4  12  28  41  65  93 133 186 232 288 342 402
#     4  10  22  38  68  95 130 174 216 276 347 400
#     4  10  23  43  59  93 129 179 231 279 336 404
#     4  11  24  45  70 101 133 174 223 279 348 422
#     4  10  21  37  62  87 129 172 231 273 337 401
#     4  10  22  42  62  94 135 166 233 270 339 408
#     4   9  19  38  63  91 121 171 215 271 323 403
#
# _framework density 20.589860999999999
#
# number of rings (size 3 to 8) (size 9 to 14) (size 15 to 20)
#    0.000    1.714    4.286    0.429   12.000    0.571 
#    2.571    0.000    0.000    0.857    0.000    0.000 
#    0.000    0.000    0.000    0.000    0.000    0.000 
#
# Total GULP energy -467933.148752 kJ/mol
# GULP energy per Si atom -5570.632723 kJ/mol
# Density = 2.054300 g / cm^3
# Si number density = 20.589861 Si / 1000 Ang^3
#
#
#
# Elastic Constant Matrix: (Units=GPa)
#
#
# Indices 1 2 3 4 5 6 
#
# 1 88.1362 70.4211 24.5381 0.0000 0.0000 0.0000
# 2 70.4211 88.1362 24.5381 0.0000 0.0000 0.0000
# 3 24.5381 24.5381 76.7071 0.0000 0.0000 0.0000
# 4 0.0000 0.0000 0.0000 22.2331 0.0000 0.0000
# 5 0.0000 0.0000 0.0000 0.0000 22.2331 0.0000
# 6 0.0000 0.0000 0.0000 0.0000 0.0000 8.8576
#
#
#
# Elastic Compliance Matrix: (Units=1/GPa)
#
#
# Indices 1 2 3 4 5 6 
#
# 1 0.031724 -0.024724 -0.002239 0.000000 0.000000 0.000000
# 2 -0.024724 0.031724 -0.002239 0.000000 0.000000 0.000000
# 3 -0.002239 -0.002239 0.014469 0.000000 0.000000 0.000000
# 4 0.000000 0.000000 0.000000 0.044978 0.000000 0.000000
# 5 0.000000 0.000000 0.000000 0.000000 0.044978 0.000000
# 6 0.000000 0.000000 0.000000 0.000000 0.000000 0.112897
#
#
# Mechanical properties :
#
#
# Convention : Reuss Voigt Hill
#
# Bulk Modulus (GPa) = 51.25002 54.66378 52.95690
# Shear Modulus (GPa) = 14.46419 19.56357 17.01388
#
# Velocity S-wave (km/s) = 2.65333 3.08580 2.87770
# Velocity P-wave (km/s) = 5.85934 6.26919 6.06773
#
# Compressibility (1/GPa) = 0.01951219
#
# Stress axis : x y z
#
# Youngs Moduli (GPa) = 31.52153 31.52153 69.11216
#
# Poissons Ratio (x) = 0.77935 0.15476
# Poissons Ratio (y) = 0.77935 0.15476
# Poissons Ratio (z) = 0.07058 0.07058
#
# Static dielectric constant tensor:
#      x y z
#    x 1.769060 0.000000 0.000000 
#    y 0.000000 1.769060 0.000000 
#    z 0.000000 0.000000 1.901640 
# 
# From -- ./inp_files/6115.got.cif
#   From: 2010.05.17/outbox.cif.g08.bks.cpg/sg179_4_cif.got.tgz:6115.got - 2010.05.20 11:37:33.
