data_PCOD9583126
_publ_section_title
;
Structure prediction by ZEFSAII (Michael W. Deem and Ramdas Pophale) SiO2 
 PCOD9583126
Probable space group: P 65 2 2
;
_chemical_formula_sum "Si O2"
_cell_formula_units_Z 60
_cell_length_a 10.425908
_cell_length_b 10.425908
_cell_length_c 27.495925
_cell_angle_alpha 90.000000
_cell_angle_beta 90.000000
_cell_angle_gamma 120.000000
_cell_volume 2588.372296
_symmetry_space_group_name_H-M "P 65 2 2"
_symmetry_group_IT_number 179
_symmetry_cell_setting 'hexagonal'
loop_
_space_group_symop_operation_xyz
x,y,z
x-y,x,5/6+z
-y,x-y,2/3+z
-x,-y,1/2+z
-x+y,-x,1/3+z
y,-x+y,1/6+z
x-y,-y,-z
-x,-x+y,1/3-z
y,x,2/3-z
-y,-x,1/6-z
-x+y,y,1/2-z
x,x-y,5/6-z
loop_
_atom_site_type_symbol
_atom_site_label
_atom_site_fract_x
_atom_site_fract_y
_atom_site_fract_z
Si Si1 0.571634 0.209707 0.820637
Si Si2 0.223175 0.903713 0.926196
Si Si3 0.634014 0.109540 0.327810
Si Si4 0.884933 0.762660 0.565159
Si Si5 0.569233 0.784617 0.416667
Si Si6 0.844112 0.000000 0.000000
O O1 0.461217 0.233266 0.786022
O O2 0.738243 0.345532 0.817745
O O3 0.533943 0.205710 0.876799
O O4 0.521462 0.034177 0.812762
O O5 0.289236 0.930714 0.871891
O O6 0.053690 0.859493 0.925626
O O7 0.325252 0.066932 0.946970
O O8 0.755449 0.151136 0.285848
O O9 0.946301 0.747286 0.617401
O O10 0.008050 0.859385 0.524016
#
# Coordination Sequence:
#
# PCOD9583126 Si02
#       6
#    12  12  12  12   6   6
#     4  10  22  38  62  89 124 163 208 257 313 382
#     4  10  19  34  62  90 117 155 202 265 314 360
#     4  10  21  39  58  88 121 160 213 250 314 384
#     4  10  19  31  56  89 120 149 202 254 319 367
#     4  10  20  36  60  92 120 148 206 264 302 370
#     4  10  18  30  54  86 122 148 188 262 324 354
#
# _framework density 23.180592999999998
#
# number of rings (size 3 to 8) (size 9 to 14) (size 15 to 20)
#    0.000    2.000    2.000    2.400    5.600    0.000 
#    7.200    0.000   26.400    0.000    0.000    0.000 
#    0.000    0.000    0.000    0.000    0.000    0.000 
#
# Total GULP energy -334162.607482 kJ/mol
# GULP energy per Si atom -5569.376791 kJ/mol
# Density = 2.312783 g / cm^3
# Si number density = 23.180593 Si / 1000 Ang^3
#
#
#
# Elastic Constant Matrix: (Units=GPa)
#
#
# Indices 1 2 3 4 5 6 
#
# 1 33.6054 3.9643 -7.7728 0.0000 0.0000 0.0000
# 2 3.9643 33.6054 -7.7728 0.0000 0.0000 0.0000
# 3 -7.7728 -7.7728 102.9381 0.0000 0.0000 0.0000
# 4 0.0000 0.0000 0.0000 20.0802 0.0000 0.0000
# 5 0.0000 0.0000 0.0000 0.0000 20.0802 0.0000
# 6 0.0000 0.0000 0.0000 0.0000 0.0000 14.8205
#
#
#
# Elastic Compliance Matrix: (Units=1/GPa)
#
#
# Indices 1 2 3 4 5 6 
#
# 1 0.030606 -0.003131 0.002075 0.000000 0.000000 0.000000
# 2 -0.003131 0.030606 0.002075 0.000000 0.000000 0.000000
# 3 0.002075 0.002075 0.010028 0.000000 0.000000 0.000000
# 4 0.000000 0.000000 0.000000 0.049800 0.000000 0.000000
# 5 0.000000 0.000000 0.000000 0.000000 0.049800 0.000000
# 6 0.000000 0.000000 0.000000 0.000000 0.000000 0.067474
#
#
# Mechanical properties :
#
#
# Convention : Reuss Voigt Hill
#
# Bulk Modulus (GPa) = 13.64668 16.33180 14.98924
# Shear Modulus (GPa) = 19.17886 23.11154 21.14520
#
# Velocity S-wave (km/s) = 2.87952 3.16099 3.02353
# Velocity P-wave (km/s) = 4.11769 4.51478 4.32080
#
# Compressibility (1/GPa) = 0.07327792
#
# Stress axis : x y z
#
# Youngs Moduli (GPa) = 32.67297 32.67297 99.72187
#
# Poissons Ratio (x) = 0.10229 -0.20689
# Poissons Ratio (y) = 0.10229 -0.20689
# Poissons Ratio (z) = -0.06779 -0.06779
#
# Static dielectric constant tensor:
#      x y z
#    x 1.968770 0.000000 0.000000 
#    y 0.000000 1.968770 0.000000 
#    z 0.000000 0.000000 1.911800 
# 
# From -- ./inp_files/9465.got.cif
#   From: 2010.05.17/outbox.cif.g08.bks.cpg/sg179_5_cif.got.tgz:9465.got - 2010.05.20 11:37:33.
