data_PCOD9583427
_publ_section_title
;
Structure prediction by ZEFSAII (Michael W. Deem and Ramdas Pophale) SiO2 
 PCOD9583427
Probable space group: P 65 2 2
;
_chemical_formula_sum "Si O2"
_cell_formula_units_Z 42
_cell_length_a 13.191857
_cell_length_b 13.191857
_cell_length_c 12.884926
_cell_angle_alpha 90.000000
_cell_angle_beta 90.000000
_cell_angle_gamma 120.000000
_cell_volume 1941.889128
_symmetry_space_group_name_H-M "P 65 2 2"
_symmetry_group_IT_number 179
_symmetry_cell_setting 'hexagonal'
loop_
_space_group_symop_operation_xyz
x,y,z
x-y,x,5/6+z
-y,x-y,2/3+z
-x,-y,1/2+z
-x+y,-x,1/3+z
y,-x+y,1/6+z
x-y,-y,-z
-x,-x+y,1/3-z
y,x,2/3-z
-y,-x,1/6-z
-x+y,y,1/2-z
x,x-y,5/6-z
loop_
_atom_site_type_symbol
_atom_site_label
_atom_site_fract_x
_atom_site_fract_y
_atom_site_fract_z
Si Si1 0.761105 0.761105 0.833334
Si Si2 0.668701 0.915190 0.788727
Si Si3 0.542839 0.319553 0.215079
Si Si4 0.694482 0.566135 0.172757
O O1 0.771202 0.882213 0.795816
O O2 0.707939 0.676621 0.734801
O O3 0.556399 0.788062 0.778191
O O4 0.676912 0.005952 0.702437
O O5 0.660795 0.321589 0.250000
O O6 0.580043 0.456465 0.224204
O O7 0.494880 0.286793 0.096607
O O8 0.802966 0.605932 0.250000
#
# Coordination Sequence:
#
# PCOD9583427 Si02
#       4
#     6  12  12  12
#     4  10  24  40  74 104 134 194 260 304 380 452
#     4  11  22  45  72 103 148 196 254 320 383 469
#     4  10  23  42  67 105 148 198 254 310 392 477
#     4  10  23  44  67 105 151 196 253 319 394 469
#
# _framework density 21.628423000000002
#
# number of rings (size 3 to 8) (size 9 to 14) (size 15 to 20)
#    0.000    1.714    2.857    0.000    4.000   10.286 
#    0.000    0.000   25.143    0.000    0.000    0.000 
#    0.000    0.000    0.000    0.000    0.000    0.000 
#
# Total GULP energy -233899.181884 kJ/mol
# GULP energy per Si atom -5569.028140 kJ/mol
# Density = 2.157920 g / cm^3
# Si number density = 21.628423 Si / 1000 Ang^3
#
#
#
# Elastic Constant Matrix: (Units=GPa)
#
#
# Indices 1 2 3 4 5 6 
#
# 1 141.2523 75.4793 50.0749 0.0000 0.0000 0.0000
# 2 75.4793 141.2523 50.0749 0.0000 0.0000 0.0000
# 3 50.0749 50.0749 55.5102 0.0000 0.0000 0.0000
# 4 0.0000 0.0000 0.0000 39.4367 0.0000 0.0000
# 5 0.0000 0.0000 0.0000 0.0000 39.4367 0.0000
# 6 0.0000 0.0000 0.0000 0.0000 0.0000 32.8865
#
#
#
# Elastic Compliance Matrix: (Units=1/GPa)
#
#
# Indices 1 2 3 4 5 6 
#
# 1 0.011558 -0.003646 -0.007137 0.000000 0.000000 0.000000
# 2 -0.003646 0.011558 -0.007137 0.000000 0.000000 0.000000
# 3 -0.007137 -0.007137 0.030892 0.000000 0.000000 0.000000
# 4 0.000000 0.000000 0.000000 0.025357 0.000000 0.000000
# 5 0.000000 0.000000 0.000000 0.000000 0.025357 0.000000
# 6 0.000000 0.000000 0.000000 0.000000 0.000000 0.030408
#
#
# Mechanical properties :
#
#
# Convention : Reuss Voigt Hill
#
# Bulk Modulus (GPa) = 55.04660 76.58585 65.81622
# Shear Modulus (GPa) = 28.24439 33.17770 30.71104
#
# Velocity S-wave (km/s) = 3.61763 3.92086 3.77230
# Velocity P-wave (km/s) = 6.55408 7.48226 7.03350
#
# Compressibility (1/GPa) = 0.01816643
#
# Stress axis : x y z
#
# Youngs Moduli (GPa) = 86.52037 86.52037 32.37105
#
# Poissons Ratio (x) = 0.31544 0.23105
# Poissons Ratio (y) = 0.31544 0.23105
# Poissons Ratio (z) = 0.61753 0.61753
#
# Static dielectric constant tensor:
#      x y z
#    x 1.862520 0.000000 0.000000 
#    y 0.000000 1.862520 0.000000 
#    z 0.000000 0.000000 1.875160 
# 
# From -- ./inp_files/5438.got.cif
#   From: 2010.05.17/outbox.cif.g08.bks.cpg/sg179_3_cif.got.tgz:5438.got - 2010.05.20 11:37:33.
