data_PCOD9583617
_publ_section_title
;
Structure prediction by ZEFSAII (Michael W. Deem and Ramdas Pophale) SiO2 
 PCOD9583617
Probable space group: P 62 2 2
;
_chemical_formula_sum "Si O2"
_cell_formula_units_Z 60
_cell_length_a 20.473990
_cell_length_b 20.473990
_cell_length_c 8.303124
_cell_angle_alpha 90.000000
_cell_angle_beta 90.000000
_cell_angle_gamma 120.000000
_cell_volume 3014.235144
_symmetry_space_group_name_H-M "P 62 2 2"
_symmetry_group_IT_number 180
_symmetry_cell_setting 'hexagonal'
loop_
_space_group_symop_operation_xyz
x,y,z
x-y,x,1/3+z
-y,x-y,2/3+z
-x,-y,z
-x+y,-x,1/3+z
y,-x+y,2/3+z
x-y,-y,-z
-x,-x+y,1/3-z
y,x,2/3-z
-y,-x,2/3-z
-x+y,y,-z
x,x-y,1/3-z
loop_
_atom_site_type_symbol
_atom_site_label
_atom_site_fract_x
_atom_site_fract_y
_atom_site_fract_z
Si Si1 0.145802 0.287457 0.321908
Si Si2 0.226844 0.773157 0.333334
Si Si3 0.442876 0.029761 0.317304
Si Si4 0.717002 0.057378 0.218050
Si Si5 0.221805 0.221805 0.833334
Si Si6 0.188896 0.727291 0.992352
O O1 0.128125 0.256250 0.500000
O O2 0.228531 0.308029 0.266864
O O3 0.080533 0.229712 0.203332
O O4 0.151809 0.370055 0.323656
O O5 0.262610 0.862019 0.296023
O O6 0.262332 0.768509 0.503586
O O7 0.476926 0.119464 0.310422
O O8 0.500000 0.000000 0.281310
O O9 0.412983 0.000000 0.500000
O O10 0.371753 0.991218 0.199293
O O11 0.741133 0.014737 0.344714
O O12 0.241296 0.758705 0.833334
#
# Coordination Sequence:
#
# PCOD9583617 Si02
#       6
#    12   6  12  12   6  12
#     4  10  21  32  51  79 112 160 193 233 307 367
#     4  10  16  32  52  76 114 160 192 231 318 378
#     4  11  20  34  60  90 127 161 210 271 331 389
#     4  11  17  33  52  81 120 150 192 248 305 378
#     4  12  16  32  53  78 114 148 195 228 284 372
#     4  10  19  34  54  83 116 162 207 245 313 399
#
# _framework density 19.905546999999999
#
# number of rings (size 3 to 8) (size 9 to 14) (size 15 to 20)
#    0.000    1.400    9.000    0.000    0.000    0.800 
#    3.600    0.000    0.000   22.800    0.000    5.600 
#    6.000    0.000    0.000   94.500    0.000    0.000 
#
# Total GULP energy -334701.782617 kJ/mol
# GULP energy per Si atom -5578.363044 kJ/mol
# Density = 1.986024 g / cm^3
# Si number density = 19.905547 Si / 1000 Ang^3
#
#
#
# Elastic Constant Matrix: (Units=GPa)
#
#
# Indices 1 2 3 4 5 6 
#
# 1 75.9849 38.2834 42.3051 0.0000 0.0000 0.0000
# 2 38.2834 75.9849 42.3051 0.0000 0.0000 0.0000
# 3 42.3051 42.3051 130.6204 0.0000 0.0000 0.0000
# 4 0.0000 0.0000 0.0000 15.9537 0.0000 0.0000
# 5 0.0000 0.0000 0.0000 0.0000 15.9537 0.0000
# 6 0.0000 0.0000 0.0000 0.0000 0.0000 18.8507
#
#
#
# Elastic Compliance Matrix: (Units=1/GPa)
#
#
# Indices 1 2 3 4 5 6 
#
# 1 0.019018 -0.007506 -0.003729 0.000000 0.000000 0.000000
# 2 -0.007506 0.019018 -0.003729 0.000000 0.000000 0.000000
# 3 -0.003729 -0.003729 0.010071 0.000000 0.000000 0.000000
# 4 0.000000 0.000000 0.000000 0.062681 0.000000 0.000000
# 5 0.000000 0.000000 0.000000 0.000000 0.062681 0.000000
# 6 0.000000 0.000000 0.000000 0.000000 0.000000 0.053048
#
#
# Mechanical properties :
#
#
# Convention : Reuss Voigt Hill
#
# Bulk Modulus (GPa) = 55.00220 58.70862 56.85541
# Shear Modulus (GPa) = 19.04728 20.79807 19.92267
#
# Velocity S-wave (km/s) = 3.09671 3.23590 3.16707
# Velocity P-wave (km/s) = 6.36221 6.59690 6.48062
#
# Compressibility (1/GPa) = 0.01818109
#
# Stress axis : x y z
#
# Youngs Moduli (GPa) = 52.58136 52.58136 99.29546
#
# Poissons Ratio (x) = 0.39468 0.37023
# Poissons Ratio (y) = 0.39468 0.37023
# Poissons Ratio (z) = 0.19605 0.19605
#
# Static dielectric constant tensor:
#      x y z
#    x 1.708060 0.000000 0.000000 
#    y 0.000000 1.708060 0.000000 
#    z 0.000000 0.000000 1.790020 
# 
# From -- ./inp_files/3127.got.cif
#   From: 2010.05.17/outbox.cif.g08.bks.cpg/sg180_2_cif.got.tgz:3127.got - 2010.05.20 11:43:55.
