data_PCOD9583612
_publ_section_title
;
Structure prediction by ZEFSAII (Michael W. Deem and Ramdas Pophale) SiO2 
 PCOD9583612
Probable space group: P 62 2 2
;
_chemical_formula_sum "Si O2"
_cell_formula_units_Z 48
_cell_length_a 11.325362
_cell_length_b 11.325362
_cell_length_c 25.338815
_cell_angle_alpha 90.000000
_cell_angle_beta 90.000000
_cell_angle_gamma 120.000000
_cell_volume 2814.628737
_symmetry_space_group_name_H-M "P 62 2 2"
_symmetry_group_IT_number 180
_symmetry_cell_setting 'hexagonal'
loop_
_space_group_symop_operation_xyz
x,y,z
x-y,x,1/3+z
-y,x-y,2/3+z
-x,-y,z
-x+y,-x,1/3+z
y,-x+y,2/3+z
x-y,-y,-z
-x,-x+y,1/3-z
y,x,2/3-z
-y,-x,2/3-z
-x+y,y,-z
x,x-y,1/3-z
loop_
_atom_site_type_symbol
_atom_site_label
_atom_site_fract_x
_atom_site_fract_y
_atom_site_fract_z
Si Si1 0.797590 0.595179 0.000000
Si Si2 0.000000 0.500000 0.475143
Si Si3 0.066886 0.664319 0.045214
Si Si4 0.246527 0.536013 0.792984
Si Si5 0.655672 0.448981 0.609095
O O1 0.680784 0.490637 0.040436
O O2 0.938946 0.681105 0.030411
O O3 0.104593 0.627169 0.510108
O O4 0.097423 0.473077 0.436760
O O5 0.154779 0.730561 0.097007
O O6 0.000000 0.500000 0.050629
O O7 0.166913 0.706899 0.994591
O O8 0.370239 0.629762 0.833334
O O9 0.256648 0.644078 0.748550
#
# Coordination Sequence:
#
# PCOD9583612 Si02
#       5
#     6   6  12  12  12
#     4  10  16  28  54  71 101 136 174 208 256 328
#     4  10  20  32  45  72 111 132 164 216 284 314
#     4  10  17  30  50  73 104 138 176 208 265 331
#     4  10  20  31  48  76 109 136 171 223 271 326
#     4  10  16  32  50  70 101 141 170 205 262 329
#
# _framework density 17.053757999999998
#
# number of rings (size 3 to 8) (size 9 to 14) (size 15 to 20)
#    0.000    2.000    8.750    0.000    0.000    0.500 
#    0.000    2.500    0.000    0.000    0.000    3.500 
#    7.500    0.000    0.000    0.000    0.000    0.000 
#
# Total GULP energy -267381.017745 kJ/mol
# GULP energy per Si atom -5570.437870 kJ/mol
# Density = 1.701494 g / cm^3
# Si number density = 17.053758 Si / 1000 Ang^3
#
#
#
# Elastic Constant Matrix: (Units=GPa)
#
#
# Indices 1 2 3 4 5 6 
#
# 1 60.9551 30.6420 42.2592 0.0000 0.0000 0.0000
# 2 30.6420 60.9551 42.2592 0.0000 0.0000 0.0000
# 3 42.2592 42.2592 97.5215 0.0000 0.0000 0.0000
# 4 0.0000 0.0000 0.0000 27.9267 0.0000 0.0000
# 5 0.0000 0.0000 0.0000 0.0000 27.9267 0.0000
# 6 0.0000 0.0000 0.0000 0.0000 0.0000 15.1566
#
#
#
# Elastic Compliance Matrix: (Units=1/GPa)
#
#
# Indices 1 2 3 4 5 6 
#
# 1 0.025590 -0.007399 -0.007883 0.000000 0.000000 0.000000
# 2 -0.007399 0.025590 -0.007883 0.000000 0.000000 0.000000
# 3 -0.007883 -0.007883 0.017086 0.000000 0.000000 0.000000
# 4 0.000000 0.000000 0.000000 0.035808 0.000000 0.000000
# 5 0.000000 0.000000 0.000000 0.000000 0.035808 0.000000
# 6 0.000000 0.000000 0.000000 0.000000 0.000000 0.065978
#
#
# Mechanical properties :
#
#
# Convention : Reuss Voigt Hill
#
# Bulk Modulus (GPa) = 45.58551 49.97250 47.77900
# Shear Modulus (GPa) = 19.26776 21.15341 20.21058
#
# Velocity S-wave (km/s) = 3.36493 3.52575 3.44628
# Velocity P-wave (km/s) = 6.47190 6.77798 6.62671
#
# Compressibility (1/GPa) = 0.02193680
#
# Stress axis : x y z
#
# Youngs Moduli (GPa) = 39.07787 39.07787 58.52806
#
# Poissons Ratio (x) = 0.28914 0.46136
# Poissons Ratio (y) = 0.28914 0.46136
# Poissons Ratio (z) = 0.30804 0.30804
#
# Static dielectric constant tensor:
#      x y z
#    x 1.591230 0.000000 0.000000 
#    y 0.000000 1.591230 0.000000 
#    z 0.000000 0.000000 1.626520 
# 
# From -- ./inp_files/9993.got.cif
#   From: 2010.05.17/outbox.cif.g08.bks.cpg/sg180_5_cif.got.tgz:9993.got - 2010.05.20 11:43:55.
