data_PCOD9583192
_publ_section_title
;
Structure prediction by ZEFSAII (Michael W. Deem and Ramdas Pophale) SiO2 
 PCOD9583192
Probable space group: P 65 2 2
;
_chemical_formula_sum "Si O2"
_cell_formula_units_Z 54
_cell_length_a 17.693523
_cell_length_b 17.693523
_cell_length_c 14.032292
_cell_angle_alpha 90.000000
_cell_angle_beta 90.000000
_cell_angle_gamma 120.000000
_cell_volume 3804.414909
_symmetry_space_group_name_H-M "P 65 2 2"
_symmetry_group_IT_number 179
_symmetry_cell_setting 'hexagonal'
loop_
_space_group_symop_operation_xyz
x,y,z
x-y,x,5/6+z
-y,x-y,2/3+z
-x,-y,1/2+z
-x+y,-x,1/3+z
y,-x+y,1/6+z
x-y,-y,-z
-x,-x+y,1/3-z
y,x,2/3-z
-y,-x,1/6-z
-x+y,y,1/2-z
x,x-y,5/6-z
loop_
_atom_site_type_symbol
_atom_site_label
_atom_site_fract_x
_atom_site_fract_y
_atom_site_fract_z
Si Si1 0.346582 0.844090 0.814600
Si Si2 0.731831 0.538732 0.853092
Si Si3 0.487927 0.030962 0.851383
Si Si4 0.398634 0.398634 0.333334
Si Si5 0.197884 0.643452 0.136054
O O1 0.413864 0.827727 0.750000
O O2 0.253733 0.802923 0.763352
O O3 0.394710 0.948408 0.827793
O O4 0.338056 0.804543 0.919285
O O5 0.769969 0.539937 0.750000
O O6 0.691116 0.602285 0.850895
O O7 0.648779 0.443093 0.871923
O O8 0.534286 0.068572 0.750000
O O9 0.490732 0.105750 0.917594
O O10 0.539997 0.991460 0.909766
O O11 0.276354 0.723647 0.083334
#
# Coordination Sequence:
#
# PCOD9583192 Si02
#       5
#    12  12  12   6  12
#     4  11  19  34  50  64  86 124 161 194 237 280
#     4  11  20  32  48  66  90 122 159 197 235 278
#     4  10  19  35  48  62  91 126 155 196 244 282
#     4  10  20  34  46  66  92 120 160 198 242 282
#     4  11  23  30  44  70  94 118 156 205 236 276
#
# _framework density 14.194035
#
# number of rings (size 3 to 8) (size 9 to 14) (size 15 to 20)
#    0.000    1.333    6.667    2.000    6.222    0.000 
#    0.000    0.000    0.000    0.000    0.000    0.000 
#    0.000    0.000    0.000    2.000    0.000    0.000 
#
# Total GULP energy -301206.666357 kJ/mol
# GULP energy per Si atom -5577.901229 kJ/mol
# Density = 1.416173 g / cm^3
# Si number density = 14.194035 Si / 1000 Ang^3
#
#
#
# Elastic Constant Matrix: (Units=GPa)
#
#
# Indices 1 2 3 4 5 6 
#
# 1 82.1488 38.0257 30.8804 0.0000 0.0000 0.0000
# 2 38.0257 82.1488 30.8804 0.0000 0.0000 0.0000
# 3 30.8804 30.8804 111.9537 0.0000 0.0000 0.0000
# 4 0.0000 0.0000 0.0000 22.2674 0.0000 0.0000
# 5 0.0000 0.0000 0.0000 0.0000 22.2674 0.0000
# 6 0.0000 0.0000 0.0000 0.0000 0.0000 22.0615
#
#
#
# Elastic Compliance Matrix: (Units=1/GPa)
#
#
# Indices 1 2 3 4 5 6 
#
# 1 0.016180 -0.006484 -0.002674 0.000000 0.000000 0.000000
# 2 -0.006484 0.016180 -0.002674 0.000000 0.000000 0.000000
# 3 -0.002674 -0.002674 0.010408 0.000000 0.000000 0.000000
# 4 0.000000 0.000000 0.000000 0.044909 0.000000 0.000000
# 5 0.000000 0.000000 0.000000 0.000000 0.044909 0.000000
# 6 0.000000 0.000000 0.000000 0.000000 0.000000 0.045328
#
#
# Mechanical properties :
#
#
# Convention : Reuss Voigt Hill
#
# Bulk Modulus (GPa) = 52.35204 52.86937 52.61071
# Shear Modulus (GPa) = 24.04481 25.08359 24.56420
#
# Velocity S-wave (km/s) = 4.12030 4.20836 4.16456
# Velocity P-wave (km/s) = 7.72004 7.80655 7.76341
#
# Compressibility (1/GPa) = 0.01910145
#
# Stress axis : x y z
#
# Youngs Moduli (GPa) = 61.80554 61.80554 96.08342
#
# Poissons Ratio (x) = 0.40075 0.25696
# Poissons Ratio (y) = 0.40075 0.25696
# Poissons Ratio (z) = 0.16529 0.16529
#
# Static dielectric constant tensor:
#      x y z
#    x 1.473480 0.000000 0.000000 
#    y 0.000000 1.473480 0.000000 
#    z 0.000000 0.000000 1.502380 
# 
# From -- ./inp_files/4527.got.cif
#   From: 2010.05.17/outbox.cif.g08.bks.cpg/sg179_3_cif.got.tgz:4527.got - 2010.05.20 11:37:33.
