data_PCOD9583765
_publ_section_title
;
Structure prediction by ZEFSAII (Michael W. Deem and Ramdas Pophale) SiO2 
 PCOD9583765
Probable space group: P 62 2 2
;
_chemical_formula_sum "Si O2"
_cell_formula_units_Z 54
_cell_length_a 16.311915
_cell_length_b 16.311915
_cell_length_c 11.687354
_cell_angle_alpha 90.000000
_cell_angle_beta 90.000000
_cell_angle_gamma 120.000000
_cell_volume 2693.126354
_symmetry_space_group_name_H-M "P 62 2 2"
_symmetry_group_IT_number 180
_symmetry_cell_setting 'hexagonal'
loop_
_space_group_symop_operation_xyz
x,y,z
x-y,x,1/3+z
-y,x-y,2/3+z
-x,-y,z
-x+y,-x,1/3+z
y,-x+y,2/3+z
x-y,-y,-z
-x,-x+y,1/3-z
y,x,2/3-z
-y,-x,2/3-z
-x+y,y,-z
x,x-y,1/3-z
loop_
_atom_site_type_symbol
_atom_site_label
_atom_site_fract_x
_atom_site_fract_y
_atom_site_fract_z
Si Si1 0.081385 0.775246 0.071411
Si Si2 0.910448 0.409985 0.479975
Si Si3 0.361505 0.829129 0.614879
Si Si4 0.919121 0.697721 0.901875
Si Si5 0.758306 0.379153 0.666667
O O1 0.131197 0.710752 0.066348
O O2 0.156226 0.878614 0.121696
O O3 0.000000 0.726732 0.166667
O O4 0.022733 0.768152 0.956112
O O5 0.897027 0.447486 0.359015
O O6 0.919663 0.318177 0.458912
O O7 0.822784 0.385493 0.560892
O O8 0.000000 0.500000 0.534031
O O9 0.406483 0.812966 0.500000
O O10 0.307012 0.731762 0.684189
O O11 0.841053 0.682105 0.000000
#
# Coordination Sequence:
#
# PCOD9583765 Si02
#       5
#    12  12  12  12   6
#     4  10  20  35  59  89 124 165 226 294 353 402
#     4  12  24  39  58  83 125 178 232 277 337 408
#     4  12  23  36  60  87 120 170 238 293 339 385
#     4  10  20  37  59  90 124 169 228 293 351 409
#     4  12  27  40  52  82 132 188 224 282 330 413
#
# _framework density 20.051044999999998
#
# number of rings (size 3 to 8) (size 9 to 14) (size 15 to 20)
#    0.000    0.889    4.444    5.000    1.556    0.000 
#    0.000    0.000    0.000    0.000    0.000    0.000 
#    0.000    0.000    0.000  200.000    0.000    0.000 
#
# Total GULP energy -301327.893614 kJ/mol
# GULP energy per Si atom -5580.146178 kJ/mol
# Density = 2.000541 g / cm^3
# Si number density = 20.051045 Si / 1000 Ang^3
#
#
#
# Elastic Constant Matrix: (Units=GPa)
#
#
# Indices 1 2 3 4 5 6 
#
# 1 96.6653 55.5351 30.9177 0.0000 0.0000 0.0000
# 2 55.5351 96.6653 30.9177 0.0000 0.0000 0.0000
# 3 30.9177 30.9177 74.1210 0.0000 0.0000 0.0000
# 4 0.0000 0.0000 0.0000 36.2125 0.0000 0.0000
# 5 0.0000 0.0000 0.0000 0.0000 36.2125 0.0000
# 6 0.0000 0.0000 0.0000 0.0000 0.0000 20.5651
#
#
#
# Elastic Compliance Matrix: (Units=1/GPa)
#
#
# Indices 1 2 3 4 5 6 
#
# 1 0.016112 -0.008201 -0.003300 0.000000 0.000000 0.000000
# 2 -0.008201 0.016112 -0.003300 0.000000 0.000000 0.000000
# 3 -0.003300 -0.003300 0.016244 0.000000 0.000000 0.000000
# 4 0.000000 0.000000 0.000000 0.027615 0.000000 0.000000
# 5 0.000000 0.000000 0.000000 0.000000 0.027615 0.000000
# 6 0.000000 0.000000 0.000000 0.000000 0.000000 0.048626
#
#
# Mechanical properties :
#
#
# Convention : Reuss Voigt Hill
#
# Bulk Modulus (GPa) = 53.00306 55.79918 54.40112
# Shear Modulus (GPa) = 26.56547 28.60344 27.58446
#
# Velocity S-wave (km/s) = 3.64386 3.78104 3.71308
# Velocity P-wave (km/s) = 6.64793 6.85206 6.75077
#
# Compressibility (1/GPa) = 0.01886683
#
# Stress axis : x y z
#
# Youngs Moduli (GPa) = 62.06567 62.06567 61.55986
#
# Poissons Ratio (x) = 0.50900 0.20314
# Poissons Ratio (y) = 0.50900 0.20314
# Poissons Ratio (z) = 0.20481 0.20481
#
# Static dielectric constant tensor:
#      x y z
#    x 1.650120 0.000000 0.000000 
#    y 0.000000 1.650120 0.000000 
#    z 0.000000 0.000000 1.818430 
# 
# From -- ./inp_files/4695.got.cif
#   From: 2010.05.17/outbox.cif.g08.bks.cpg/sg180_3_cif.got.tgz:4695.got - 2010.05.20 11:43:55.
