data_PCOD9583792
_publ_section_title
;
Structure prediction by ZEFSAII (Michael W. Deem and Ramdas Pophale) SiO2 
 PCOD9583792
Probable space group: P 62 2 2
;
_chemical_formula_sum "Si O2"
_cell_formula_units_Z 72
_cell_length_a 15.493043
_cell_length_b 15.493043
_cell_length_c 15.280896
_cell_angle_alpha 90.000000
_cell_angle_beta 90.000000
_cell_angle_gamma 120.000000
_cell_volume 3176.529582
_symmetry_space_group_name_H-M "P 62 2 2"
_symmetry_group_IT_number 180
_symmetry_cell_setting 'hexagonal'
loop_
_space_group_symop_operation_xyz
x,y,z
x-y,x,1/3+z
-y,x-y,2/3+z
-x,-y,z
-x+y,-x,1/3+z
y,-x+y,2/3+z
x-y,-y,-z
-x,-x+y,1/3-z
y,x,2/3-z
-y,-x,2/3-z
-x+y,y,-z
x,x-y,1/3-z
loop_
_atom_site_type_symbol
_atom_site_label
_atom_site_fract_x
_atom_site_fract_y
_atom_site_fract_z
Si Si1 0.651938 0.480438 0.750736
Si Si2 0.964173 0.662865 0.347367
Si Si3 0.398260 0.337741 0.219127
Si Si4 0.503521 0.659122 0.633331
Si Si5 0.524791 0.371725 0.429079
Si Si6 0.087380 0.211579 0.598908
O O1 0.585313 0.414688 0.833334
O O2 0.699402 0.598769 0.736422
O O3 0.569571 0.445087 0.675883
O O4 0.741675 0.459480 0.729695
O O5 0.936809 0.610238 0.445641
O O6 0.950224 0.757164 0.358720
O O7 0.077665 0.691391 0.336958
O O8 0.369316 0.419909 0.251046
O O9 0.514184 0.385013 0.248730
O O10 0.316969 0.229206 0.253064
O O11 0.472956 0.736478 0.666667
O O12 0.485999 0.650021 0.531943
O O13 0.086579 0.173158 0.500000
O O14 0.000000 0.145700 0.666667
#
# Coordination Sequence:
#
# PCOD9583792 Si02
#       6
#    12  12  12  12  12  12
#     4  12  23  35  57  86 123 166 224 268 321 409
#     4  10  22  39  61  84 124 169 210 278 348 404
#     4   9  19  38  62  85 127 167 219 272 343 399
#     4  11  22  40  56  82 120 168 216 265 342 405
#     4  10  20  37  56  86 125 169 213 280 327 398
#     4  10  21  40  67  99 129 171 227 280 353 430
#
# _framework density 22.666245
#
# number of rings (size 3 to 8) (size 9 to 14) (size 15 to 20)
#    0.000    1.667    3.333    1.500    0.000    4.667 
#    0.000    5.000    0.000    0.500    0.000    5.833 
#    0.000    0.000    0.000    0.000    0.000    0.667 
#
# Total GULP energy -401806.540949 kJ/mol
# GULP energy per Si atom -5580.646402 kJ/mol
# Density = 2.261466 g / cm^3
# Si number density = 22.666245 Si / 1000 Ang^3
#
#
#
# Elastic Constant Matrix: (Units=GPa)
#
#
# Indices 1 2 3 4 5 6 
#
# 1 73.2475 8.2431 32.1325 0.0000 0.0000 0.0000
# 2 8.2431 73.2475 32.1325 0.0000 0.0000 0.0000
# 3 32.1325 32.1325 79.3351 0.0000 0.0000 0.0000
# 4 0.0000 0.0000 0.0000 34.1339 0.0000 0.0000
# 5 0.0000 0.0000 0.0000 0.0000 34.1339 0.0000
# 6 0.0000 0.0000 0.0000 0.0000 0.0000 32.5022
#
#
#
# Elastic Compliance Matrix: (Units=1/GPa)
#
#
# Indices 1 2 3 4 5 6 
#
# 1 0.016707 0.001323 -0.007303 0.000000 0.000000 0.000000
# 2 0.001323 0.016707 -0.007303 0.000000 0.000000 0.000000
# 3 -0.007303 -0.007303 0.018520 0.000000 0.000000 0.000000
# 4 0.000000 0.000000 0.000000 0.029296 0.000000 0.000000
# 5 0.000000 0.000000 0.000000 0.000000 0.029296 0.000000
# 6 0.000000 0.000000 0.000000 0.000000 0.000000 0.030767
#
#
# Mechanical properties :
#
#
# Convention : Reuss Voigt Hill
#
# Bulk Modulus (GPa) = 39.41627 41.20513 40.31070
# Shear Modulus (GPa) = 28.35834 30.37546 29.36690
#
# Velocity S-wave (km/s) = 3.54096 3.66473 3.60338
# Velocity P-wave (km/s) = 5.84342 6.01046 5.92752
#
# Compressibility (1/GPa) = 0.02537024
#
# Stress axis : x y z
#
# Youngs Moduli (GPa) = 59.85519 59.85519 53.99483
#
# Poissons Ratio (x) = -0.07921 0.39431
# Poissons Ratio (y) = -0.07921 0.39431
# Poissons Ratio (z) = 0.43711 0.43711
#
# Static dielectric constant tensor:
#      x y z
#    x 1.830070 0.000000 0.000000 
#    y 0.000000 1.830070 0.000000 
#    z 0.000000 0.000000 1.465400 
# 
# From -- ./inp_files/7817.got.cif
#   From: 2010.05.17/outbox.cif.g08.bks.cpg/sg180_4_cif.got.tgz:7817.got - 2010.05.20 11:43:55.
