data_PCOD9583392
_publ_section_title
;
Structure prediction by ZEFSAII (Michael W. Deem and Ramdas Pophale) SiO2 
 PCOD9583392
Probable space group: P 65 2 2
;
_chemical_formula_sum "Si O2"
_cell_formula_units_Z 42
_cell_length_a 7.707121
_cell_length_b 7.707121
_cell_length_c 41.734934
_cell_angle_alpha 90.000000
_cell_angle_beta 90.000000
_cell_angle_gamma 120.000000
_cell_volume 2146.914343
_symmetry_space_group_name_H-M "P 65 2 2"
_symmetry_group_IT_number 179
_symmetry_cell_setting 'hexagonal'
loop_
_space_group_symop_operation_xyz
x,y,z
x-y,x,5/6+z
-y,x-y,2/3+z
-x,-y,1/2+z
-x+y,-x,1/3+z
y,-x+y,1/6+z
x-y,-y,-z
-x,-x+y,1/3-z
y,x,2/3-z
-y,-x,1/6-z
-x+y,y,1/2-z
x,x-y,5/6-z
loop_
_atom_site_type_symbol
_atom_site_label
_atom_site_fract_x
_atom_site_fract_y
_atom_site_fract_z
Si Si1 0.832575 0.784506 0.082789
Si Si2 0.339381 0.544229 0.964642
Si Si3 0.357930 0.129366 0.821049
Si Si4 0.671317 0.835659 0.916667
O O1 0.765924 0.726520 0.119267
O O2 0.760155 0.593714 0.060709
O O3 0.768603 0.942211 0.070170
O O4 0.076378 0.923623 0.083334
O O5 0.347885 0.386497 0.988543
O O6 0.535858 0.681004 0.943691
O O7 0.286358 0.694539 0.982766
O O8 0.234021 0.234021 0.833334
#
# Coordination Sequence:
#
# PCOD9583392 Si02
#       4
#    12  12  12   6
#     4  10  22  45  69  91 142 175 217 295 333 390
#     4  12  24  43  70  99 135 181 231 271 354 410
#     4  12  24  42  66 101 138 175 224 288 332 411
#     4  10  22  42  70  96 130 178 224 280 340 406
#
# _framework density 19.562961000000001
#
# number of rings (size 3 to 8) (size 9 to 14) (size 15 to 20)
#    0.857    0.000    5.714    1.714    0.000    2.286 
#    0.000    2.857    0.000    0.000    0.000    0.000 
#    0.000    0.000    0.000    0.000    0.000    0.000 
#
# Total GULP energy -234324.462572 kJ/mol
# GULP energy per Si atom -5579.153871 kJ/mol
# Density = 1.951843 g / cm^3
# Si number density = 19.562961 Si / 1000 Ang^3
#
#
#
# Elastic Constant Matrix: (Units=GPa)
#
#
# Indices 1 2 3 4 5 6 
#
# 1 114.2062 -6.0543 18.5716 0.0000 0.0000 0.0000
# 2 -6.0543 114.2062 18.5716 0.0000 0.0000 0.0000
# 3 18.5716 18.5716 81.0143 0.0000 0.0000 0.0000
# 4 0.0000 0.0000 0.0000 -56.5126 0.0000 0.0000
# 5 0.0000 0.0000 0.0000 0.0000 -56.5126 0.0000
# 6 0.0000 0.0000 0.0000 0.0000 0.0000 60.1302
#
#
#
# Elastic Compliance Matrix: (Units=1/GPa)
#
#
# Indices 1 2 3 4 5 6 
#
# 1 0.009176 0.000861 -0.002301 0.000000 0.000000 0.000000
# 2 0.000861 0.009176 -0.002301 0.000000 0.000000 0.000000
# 3 -0.002301 -0.002301 0.013398 0.000000 0.000000 0.000000
# 4 0.000000 0.000000 0.000000 -0.017695 0.000000 0.000000
# 5 0.000000 0.000000 0.000000 0.000000 -0.017695 0.000000
# 6 0.000000 0.000000 0.000000 0.000000 0.000000 0.016631
#
#
# Mechanical properties :
#
#
# Convention : Reuss Voigt Hill
#
# Bulk Modulus (GPa) = 41.20616 41.28940 41.24778
# Shear Modulus (GPa) = 175.06086 7.97685 91.51885
#
# Velocity S-wave (km/s) = 9.46996 2.02148 6.84713
# Velocity P-wave (km/s) = 11.86097 5.15754 9.14557
#
# Compressibility (1/GPa) = 0.02426821
#
# Stress axis : x y z
#
# Youngs Moduli (GPa) = 108.98179 108.98179 74.63610
#
# Poissons Ratio (x) = -0.09379 0.17172
# Poissons Ratio (y) = -0.09379 0.17172
# Poissons Ratio (z) = 0.25074 0.25074
#
# Static dielectric constant tensor:
#      x y z
#    x 1.691500 0.000000 0.000000 
#    y 0.000000 1.691500 0.000000 
#    z 0.000000 0.000000 1.680800 
# 
# From -- ./inp_files/9282.got.cif
#   From: 2010.05.17/outbox.cif.g08.bks.cpg/sg179_5_cif.got.tgz:9282.got - 2010.05.20 11:37:33.
