data_PCOD9583611
_publ_section_title
;
Structure prediction by ZEFSAII (Michael W. Deem and Ramdas Pophale) SiO2 
 PCOD9583611
Probable space group: P 62 2 2
;
_chemical_formula_sum "Si O2"
_cell_formula_units_Z 78
_cell_length_a 18.054128
_cell_length_b 18.054128
_cell_length_c 13.966402
_cell_angle_alpha 90.000000
_cell_angle_beta 90.000000
_cell_angle_gamma 120.000000
_cell_volume 3942.468249
_symmetry_space_group_name_H-M "P 62 2 2"
_symmetry_group_IT_number 180
_symmetry_cell_setting 'hexagonal'
loop_
_space_group_symop_operation_xyz
x,y,z
x-y,x,1/3+z
-y,x-y,2/3+z
-x,-y,z
-x+y,-x,1/3+z
y,-x+y,2/3+z
x-y,-y,-z
-x,-x+y,1/3-z
y,x,2/3-z
-y,-x,2/3-z
-x+y,y,-z
x,x-y,1/3-z
loop_
_atom_site_type_symbol
_atom_site_label
_atom_site_fract_x
_atom_site_fract_y
_atom_site_fract_z
Si Si1 0.547776 0.446371 0.948273
Si Si2 0.837885 0.498590 0.878911
Si Si3 0.466967 0.246701 0.945730
Si Si4 0.824198 0.117513 0.723446
Si Si5 0.493518 0.825926 0.115374
Si Si6 0.004908 0.330286 0.499801
Si Si7 0.791041 0.791041 0.333334
O O1 0.500000 0.500000 0.976825
O O2 0.551667 0.448334 0.833334
O O3 0.498022 0.344862 0.970283
O O4 0.635496 0.484170 0.009020
O O5 0.766137 0.515486 0.831118
O O6 0.830188 0.414723 0.828752
O O7 0.924809 0.582730 0.848989
O O8 0.370451 0.193997 0.985635
O O9 0.513914 0.205431 0.006366
O O10 0.846332 0.153669 0.833334
O O11 0.734100 0.032192 0.738318
O O12 0.911056 0.122543 0.686825
O O13 0.502566 0.751283 0.166667
O O14 0.579175 0.916320 0.132051
O O15 0.987689 0.258552 0.577994
#
# Coordination Sequence:
#
# PCOD9583611 Si02
#       7
#    12  12  12  12  12  12   6
#     4  11  26  47  64  78 107 160 222 274 328 405
#     4  12  24  35  61  87 111 155 213 267 336 401
#     4  12  21  38  57  84 115 144 199 271 332 392
#     4  10  17  30  53  76 120 156 189 251 318 390
#     4  12  19  35  53  81 119 154 193 253 334 398
#     4  11  18  33  55  78 119 162 205 260 324 409
#     4  10  16  28  47  82 114 156 200 247 322 396
#
# _framework density 19.784559999999999
#
# number of rings (size 3 to 8) (size 9 to 14) (size 15 to 20)
#    0.000    0.769    7.692    2.769    0.000    1.231 
#    2.769    3.846    0.000    0.000    0.000    0.000 
#    0.000    0.000    0.000    0.000    0.000   52.308 
#
# Total GULP energy -434595.504206 kJ/mol
# GULP energy per Si atom -5571.737233 kJ/mol
# Density = 1.973953 g / cm^3
# Si number density = 19.784560 Si / 1000 Ang^3
#
#
#
# Elastic Constant Matrix: (Units=GPa)
#
#
# Indices 1 2 3 4 5 6 
#
# 1 84.9195 34.3072 18.5181 0.0000 0.0000 0.0000
# 2 34.3072 84.9195 18.5181 0.0000 0.0000 0.0000
# 3 18.5181 18.5181 93.9459 0.0000 0.0000 0.0000
# 4 0.0000 0.0000 0.0000 27.0241 0.0000 0.0000
# 5 0.0000 0.0000 0.0000 0.0000 27.0241 0.0000
# 6 0.0000 0.0000 0.0000 0.0000 0.0000 25.3061
#
#
#
# Elastic Compliance Matrix: (Units=1/GPa)
#
#
# Indices 1 2 3 4 5 6 
#
# 1 0.014346 -0.005412 -0.001761 0.000000 0.000000 0.000000
# 2 -0.005412 0.014346 -0.001761 0.000000 0.000000 0.000000
# 3 -0.001761 -0.001761 0.011339 0.000000 0.000000 0.000000
# 4 0.000000 0.000000 0.000000 0.037004 0.000000 0.000000
# 5 0.000000 0.000000 0.000000 0.000000 0.037004 0.000000
# 6 0.000000 0.000000 0.000000 0.000000 0.000000 0.039516
#
#
# Mechanical properties :
#
#
# Convention : Reuss Voigt Hill
#
# Bulk Modulus (GPa) = 45.11992 45.16353 45.14172
# Shear Modulus (GPa) = 27.96247 28.70029 28.33138
#
# Velocity S-wave (km/s) = 3.76353 3.81286 3.78828
# Velocity P-wave (km/s) = 6.46070 6.50085 6.48081
#
# Compressibility (1/GPa) = 0.02216316
#
# Stress axis : x y z
#
# Youngs Moduli (GPa) = 69.70463 69.70463 88.19353
#
# Poissons Ratio (x) = 0.37723 0.15532
# Poissons Ratio (y) = 0.37723 0.15532
# Poissons Ratio (z) = 0.12276 0.12276
#
# Static dielectric constant tensor:
#      x y z
#    x 1.723210 0.000000 0.000000 
#    y 0.000000 1.723210 0.000000 
#    z 0.000000 0.000000 1.831190 
# 
# From -- ./inp_files/6428.got.cif
#   From: 2010.05.17/outbox.cif.g08.bks.cpg/sg180_4_cif.got.tgz:6428.got - 2010.05.20 11:43:55.
