data_PCOD9583475
_publ_section_title
;
Structure prediction by ZEFSAII (Michael W. Deem and Ramdas Pophale) SiO2 
 PCOD9583475
Probable space group: P 65 2 2
;
_chemical_formula_sum "Si O2"
_cell_formula_units_Z 42
_cell_length_a 9.587493
_cell_length_b 9.587493
_cell_length_c 18.520107
_cell_angle_alpha 90.000000
_cell_angle_beta 90.000000
_cell_angle_gamma 120.000000
_cell_volume 1474.294492
_symmetry_space_group_name_H-M "P 65 2 2"
_symmetry_group_IT_number 179
_symmetry_cell_setting 'hexagonal'
loop_
_space_group_symop_operation_xyz
x,y,z
x-y,x,5/6+z
-y,x-y,2/3+z
-x,-y,1/2+z
-x+y,-x,1/3+z
y,-x+y,1/6+z
x-y,-y,-z
-x,-x+y,1/3-z
y,x,2/3-z
-y,-x,1/6-z
-x+y,y,1/2-z
x,x-y,5/6-z
loop_
_atom_site_type_symbol
_atom_site_label
_atom_site_fract_x
_atom_site_fract_y
_atom_site_fract_z
Si Si1 0.285986 0.789533 0.951155
Si Si2 0.256278 0.316176 0.018346
Si Si3 0.046299 0.046299 0.333334
Si Si4 0.769027 0.590968 0.835396
O O1 0.226879 0.613440 0.916667
O O2 0.339897 0.897805 0.879444
O O3 0.427232 0.830824 0.008129
O O4 0.132002 0.789937 0.982049
O O5 0.269710 0.403553 0.094577
O O6 0.064177 0.207138 0.006535
O O7 0.991764 0.983527 0.250000
O O8 0.763287 0.763287 0.833334
O O9 0.789092 0.578183 0.750000
#
# Coordination Sequence:
#
# PCOD9583475 Si02
#       4
#    12  12   6  12
#     4  12  31  48  84 121 173 220 291 362 436 518
#     4  12  27  54  82 126 167 231 291 362 430 537
#     4  10  24  48  90 114 168 222 288 344 438 522
#     4  10  26  48  81 120 166 225 278 350 439 510
#
# _framework density 28.488201
#
# number of rings (size 3 to 8) (size 9 to 14) (size 15 to 20)
#    0.857    0.000    2.857    0.857   14.000    0.000 
#    0.000    0.000    0.000    0.000    0.000    0.000 
#    0.000    0.000    0.000    0.000    0.000    0.000 
#
# Total GULP energy -234373.624487 kJ/mol
# GULP energy per Si atom -5580.324393 kJ/mol
# Density = 2.842336 g / cm^3
# Si number density = 28.488201 Si / 1000 Ang^3
#
#
#
# Elastic Constant Matrix: (Units=GPa)
#
#
# Indices 1 2 3 4 5 6 
#
# 1 136.7086 43.5460 54.6987 0.0000 0.0000 0.0000
# 2 43.5460 136.7086 54.6987 0.0000 0.0000 0.0000
# 3 54.6987 54.6987 190.8876 0.0000 0.0000 0.0000
# 4 0.0000 0.0000 0.0000 45.0639 0.0000 0.0000
# 5 0.0000 0.0000 0.0000 0.0000 45.0639 0.0000
# 6 0.0000 0.0000 0.0000 0.0000 0.0000 46.5813
#
#
#
# Elastic Compliance Matrix: (Units=1/GPa)
#
#
# Indices 1 2 3 4 5 6 
#
# 1 0.008725 -0.002009 -0.001924 0.000000 0.000000 0.000000
# 2 -0.002009 0.008725 -0.001924 0.000000 0.000000 0.000000
# 3 -0.001924 -0.001924 0.006342 0.000000 0.000000 0.000000
# 4 0.000000 0.000000 0.000000 0.022191 0.000000 0.000000
# 5 0.000000 0.000000 0.000000 0.000000 0.022191 0.000000
# 6 0.000000 0.000000 0.000000 0.000000 0.000000 0.021468
#
#
# Mechanical properties :
#
#
# Convention : Reuss Voigt Hill
#
# Bulk Modulus (GPa) = 82.81345 85.57685 84.19515
# Shear Modulus (GPa) = 47.44683 48.09927 47.77305
#
# Velocity S-wave (km/s) = 4.08547 4.11346 4.09949
# Velocity P-wave (km/s) = 7.16849 7.25709 7.21293
#
# Compressibility (1/GPa) = 0.01207533
#
# Stress axis : x y z
#
# Youngs Moduli (GPa) = 114.61633 114.61633 157.69075
#
# Poissons Ratio (x) = 0.23028 0.30345
# Poissons Ratio (y) = 0.23028 0.30345
# Poissons Ratio (z) = 0.22056 0.22056
#
# Static dielectric constant tensor:
#      x y z
#    x 2.339880 0.000000 0.000000 
#    y 0.000000 2.339880 0.000000 
#    z 0.000000 0.000000 2.096000 
# 
# From -- ./inp_files/6444.got.cif
#   From: 2010.05.17/outbox.cif.g08.bks.cpg/sg179_4_cif.got.tgz:6444.got - 2010.05.20 11:37:33.
