data_PCOD9583918
_publ_section_title
;
Structure prediction by ZEFSAII (Michael W. Deem and Ramdas Pophale) SiO2 
 PCOD9583918
Probable space group: P 62 2 2
;
_chemical_formula_sum "Si O2"
_cell_formula_units_Z 48
_cell_length_a 17.733039
_cell_length_b 17.733039
_cell_length_c 8.405930
_cell_angle_alpha 90.000000
_cell_angle_beta 90.000000
_cell_angle_gamma 120.000000
_cell_volume 2289.194739
_symmetry_space_group_name_H-M "P 62 2 2"
_symmetry_group_IT_number 180
_symmetry_cell_setting 'hexagonal'
loop_
_space_group_symop_operation_xyz
x,y,z
x-y,x,1/3+z
-y,x-y,2/3+z
-x,-y,z
-x+y,-x,1/3+z
y,-x+y,2/3+z
x-y,-y,-z
-x,-x+y,1/3-z
y,x,2/3-z
-y,-x,2/3-z
-x+y,y,-z
x,x-y,1/3-z
loop_
_atom_site_type_symbol
_atom_site_label
_atom_site_fract_x
_atom_site_fract_y
_atom_site_fract_z
Si Si1 0.105500 0.894501 0.833334
Si Si2 0.828057 0.744602 0.162479
Si Si3 0.378264 0.804373 0.327688
Si Si4 0.576264 0.912696 0.920288
Si Si5 0.491088 0.245544 0.166667
O O1 0.130189 0.869309 0.663850
O O2 0.001273 0.840441 0.838718
O O3 0.727930 0.669645 0.173468
O O4 0.865665 0.731329 0.000000
O O5 0.281548 0.718453 0.333334
O O6 0.419973 0.839945 0.500000
O O7 0.371191 0.871208 0.209303
O O8 0.444016 0.775226 0.262572
O O9 0.558754 0.837061 0.048953
O O10 0.588754 0.000000 0.000000
#
# Coordination Sequence:
#
# PCOD9583918 Si02
#       5
#     6  12  12  12   6
#     4  10  21  44  67  99 146 192 243 304 360 438
#     4  11  23  43  72 105 146 193 253 298 372 442
#     4  12  23  46  77 109 138 187 247 298 361 443
#     4  12  26  45  73 108 152 192 240 305 378 444
#     4  12  25  44  76 101 146 192 235 304 374 427
#
# _framework density 20.968073
#
# number of rings (size 3 to 8) (size 9 to 14) (size 15 to 20)
#    0.000    0.500    6.250    3.000    0.000    2.000 
#    0.000   10.000    0.000    0.000    0.000    0.000 
#    0.000    0.000    0.000    0.000    0.000    0.000 
#
# Total GULP energy -267900.823082 kJ/mol
# GULP energy per Si atom -5581.267148 kJ/mol
# Density = 2.092035 g / cm^3
# Si number density = 20.968073 Si / 1000 Ang^3
#
#
#
# Elastic Constant Matrix: (Units=GPa)
#
#
# Indices 1 2 3 4 5 6 
#
# 1 108.5816 56.9155 59.2237 0.0000 0.0000 0.0000
# 2 56.9155 108.5816 59.2237 0.0000 0.0000 0.0000
# 3 59.2237 59.2237 183.8887 0.0000 0.0000 0.0000
# 4 0.0000 0.0000 0.0000 -22.2536 0.0000 0.0000
# 5 0.0000 0.0000 0.0000 0.0000 -22.2536 0.0000
# 6 0.0000 0.0000 0.0000 0.0000 0.0000 25.8331
#
#
#
# Elastic Compliance Matrix: (Units=1/GPa)
#
#
# Indices 1 2 3 4 5 6 
#
# 1 0.013604 -0.005751 -0.002529 0.000000 0.000000 0.000000
# 2 -0.005751 0.013604 -0.002529 0.000000 0.000000 0.000000
# 3 -0.002529 -0.002529 0.007067 0.000000 0.000000 0.000000
# 4 0.000000 0.000000 0.000000 -0.044937 0.000000 0.000000
# 5 0.000000 0.000000 0.000000 0.000000 -0.044937 0.000000
# 6 0.000000 0.000000 0.000000 0.000000 0.000000 0.038710
#
#
# Mechanical properties :
#
#
# Convention : Reuss Voigt Hill
#
# Bulk Modulus (GPa) = 79.01402 83.53085 81.27244
# Shear Modulus (GPa) = 558.75843 11.31113 285.03478
#
# Velocity S-wave (km/s) = 16.34194 2.32512 11.67187
# Velocity P-wave (km/s) = 19.84549 6.86527 14.84883
#
# Compressibility (1/GPa) = 0.01265598
#
# Stress axis : x y z
#
# Youngs Moduli (GPa) = 73.50935 73.50935 141.50190
#
# Poissons Ratio (x) = 0.42278 0.35785
# Poissons Ratio (y) = 0.42278 0.35785
# Poissons Ratio (z) = 0.18590 0.18590
#
# Static dielectric constant tensor:
#      x y z
#    x 1.787380 0.000000 0.000000 
#    y 0.000000 1.787380 0.000000 
#    z 0.000000 0.000000 1.745060 
# 
# From -- ./inp_files/2763.got.cif
#   From: 2010.05.17/outbox.cif.g08.bks.cpg/sg180_2_cif.got.tgz:2763.got - 2010.05.20 11:43:55.
