data_PCOD9583177
_publ_section_title
;
Structure prediction by ZEFSAII (Michael W. Deem and Ramdas Pophale) SiO2 
 PCOD9583177
Probable space group: P 65 2 2
;
_chemical_formula_sum "Si O2"
_cell_formula_units_Z 78
_cell_length_a 18.174439
_cell_length_b 18.174439
_cell_length_c 14.587918
_cell_angle_alpha 90.000000
_cell_angle_beta 90.000000
_cell_angle_gamma 120.000000
_cell_volume 4172.976831
_symmetry_space_group_name_H-M "P 65 2 2"
_symmetry_group_IT_number 179
_symmetry_cell_setting 'hexagonal'
loop_
_space_group_symop_operation_xyz
x,y,z
x-y,x,5/6+z
-y,x-y,2/3+z
-x,-y,1/2+z
-x+y,-x,1/3+z
y,-x+y,1/6+z
x-y,-y,-z
-x,-x+y,1/3-z
y,x,2/3-z
-y,-x,1/6-z
-x+y,y,1/2-z
x,x-y,5/6-z
loop_
_atom_site_type_symbol
_atom_site_label
_atom_site_fract_x
_atom_site_fract_y
_atom_site_fract_z
Si Si1 0.416500 0.130369 0.453626
Si Si2 0.105646 0.475021 0.874896
Si Si3 0.014511 0.304692 0.382773
Si Si4 0.899759 0.432457 0.658376
Si Si5 0.901946 0.000000 0.000000
Si Si6 0.883755 0.724979 0.572621
Si Si7 0.573767 0.277100 0.029309
O O1 0.452359 0.226180 0.416667
O O2 0.366628 0.065642 0.369914
O O3 0.487013 0.114510 0.499875
O O4 0.346708 0.117458 0.528592
O O5 0.077520 0.538760 0.916667
O O6 0.114979 0.498496 0.769460
O O7 0.203039 0.506637 0.901746
O O8 0.039554 0.379368 0.899928
O O9 0.085496 0.298670 0.443474
O O10 0.946062 0.211939 0.343087
O O11 0.821657 0.361671 0.718011
O O12 0.000000 0.471210 0.666667
O O13 0.932440 0.966220 0.916667
O O14 0.885397 0.073878 0.964082
O O15 0.660470 0.339531 0.083334
O O16 0.586256 0.293128 0.916667
#
# Coordination Sequence:
#
# PCOD9583177 Si02
#       7
#    12  12  12  12   6  12  12
#     4  10  19  32  55  86 119 147 181 240 307 364
#     4  10  21  37  55  78 109 150 198 242 291 357
#     4  11  21  34  55  88 119 152 192 240 306 372
#     4  11  21  35  55  78 112 151 187 237 299 360
#     4  12  20  36  62  94 130 162 206 246 312 378
#     4  11  19  33  57  89 125 153 186 246 308 369
#     4   9  20  39  60  79 106 150 204 250 295 351
#
# _framework density 18.691692
#
# number of rings (size 3 to 8) (size 9 to 14) (size 15 to 20)
#    0.000    1.538    3.077    3.692    0.000    1.231 
#    0.000    5.385    0.000    2.769    0.000    0.000 
#    0.000    0.000    0.000    0.000    0.000    0.000 
#
# Total GULP energy -434588.519625 kJ/mol
# GULP energy per Si atom -5571.647687 kJ/mol
# Density = 1.864915 g / cm^3
# Si number density = 18.691692 Si / 1000 Ang^3
#
#
#
# Elastic Constant Matrix: (Units=GPa)
#
#
# Indices 1 2 3 4 5 6 
#
# 1 122.4884 57.3636 23.5149 0.0000 0.0000 0.0000
# 2 57.3636 122.4884 23.5149 0.0000 0.0000 0.0000
# 3 23.5149 23.5149 26.1331 0.0000 0.0000 0.0000
# 4 0.0000 0.0000 0.0000 25.8240 0.0000 0.0000
# 5 0.0000 0.0000 0.0000 0.0000 25.8240 0.0000
# 6 0.0000 0.0000 0.0000 0.0000 0.0000 32.5624
#
#
#
# Elastic Compliance Matrix: (Units=1/GPa)
#
#
# Indices 1 2 3 4 5 6 
#
# 1 0.011313 -0.004042 -0.006542 0.000000 0.000000 0.000000
# 2 -0.004042 0.011313 -0.006542 0.000000 0.000000 0.000000
# 3 -0.006542 -0.006542 0.050040 0.000000 0.000000 0.000000
# 4 0.000000 0.000000 0.000000 0.038724 0.000000 0.000000
# 5 0.000000 0.000000 0.000000 0.000000 0.038724 0.000000
# 6 0.000000 0.000000 0.000000 0.000000 0.000000 0.030710
#
#
# Mechanical properties :
#
#
# Convention : Reuss Voigt Hill
#
# Bulk Modulus (GPa) = 26.03376 53.32185 39.67781
# Shear Modulus (GPa) = 21.94125 27.95652 24.94888
#
# Velocity S-wave (km/s) = 3.42987 3.87158 3.65740
# Velocity P-wave (km/s) = 5.44459 6.96954 6.25372
#
# Compressibility (1/GPa) = 0.03841166
#
# Stress axis : x y z
#
# Youngs Moduli (GPa) = 88.39364 88.39364 19.98414
#
# Poissons Ratio (x) = 0.35730 0.13075
# Poissons Ratio (y) = 0.35730 0.13075
# Poissons Ratio (z) = 0.57831 0.57831
#
# Static dielectric constant tensor:
#      x y z
#    x 1.710370 0.000000 0.000000 
#    y 0.000000 1.710370 0.000000 
#    z 0.000000 0.000000 1.677360 
# 
# From -- ./inp_files/6072.got.cif
#   From: 2010.05.17/outbox.cif.g08.bks.cpg/sg179_4_cif.got.tgz:6072.got - 2010.05.20 11:37:33.
