data_PCOD9583288
_publ_section_title
;
Structure prediction by ZEFSAII (Michael W. Deem and Ramdas Pophale) SiO2 
 PCOD9583288
Probable space group: P 65 2 2
;
_chemical_formula_sum "Si O2"
_cell_formula_units_Z 30
_cell_length_a 13.786807
_cell_length_b 13.786807
_cell_length_c 7.900175
_cell_angle_alpha 90.000000
_cell_angle_beta 90.000000
_cell_angle_gamma 120.000000
_cell_volume 1300.453223
_symmetry_space_group_name_H-M "P 65 2 2"
_symmetry_group_IT_number 179
_symmetry_cell_setting 'hexagonal'
loop_
_space_group_symop_operation_xyz
x,y,z
x-y,x,5/6+z
-y,x-y,2/3+z
-x,-y,1/2+z
-x+y,-x,1/3+z
y,-x+y,1/6+z
x-y,-y,-z
-x,-x+y,1/3-z
y,x,2/3-z
-y,-x,1/6-z
-x+y,y,1/2-z
x,x-y,5/6-z
loop_
_atom_site_type_symbol
_atom_site_label
_atom_site_fract_x
_atom_site_fract_y
_atom_site_fract_z
Si Si1 0.000000 0.790276 0.666667
Si Si2 0.833740 0.559959 0.567736
Si Si3 0.887990 0.390055 0.736245
O O1 0.061526 0.745238 0.794657
O O2 0.904360 0.808719 0.750000
O O3 0.785498 0.570996 0.750000
O O4 0.862811 0.463458 0.604141
O O5 0.734229 0.522872 0.436095
O O6 0.000000 0.397043 0.666667
O O7 0.906190 0.453095 0.916667
#
# Coordination Sequence:
#
# PCOD9583288 Si02
#       3
#     6  12  12
#     4  10  20  40  70  90 128 188 234 282 354 412
#     4   9  19  38  70  93 133 177 223 281 354 423
#     4  10  20  40  68 101 137 182 228 284 363 422
#
# _framework density 23.068881000000001
#
# number of rings (size 3 to 8) (size 9 to 14) (size 15 to 20)
#    0.000    2.400    2.000    0.000    0.000    0.000 
#    3.600   16.000    0.000    0.000    0.000    0.000 
#    0.000    0.000    0.000    0.000    0.000    0.000 
#
# Total GULP energy -167748.376631 kJ/mol
# GULP energy per Si atom -5591.612554 kJ/mol
# Density = 2.301638 g / cm^3
# Si number density = 23.068881 Si / 1000 Ang^3
#
#
#
# Elastic Constant Matrix: (Units=GPa)
#
#
# Indices 1 2 3 4 5 6 
#
# 1 169.5351 93.0419 49.2162 0.0000 0.0000 0.0000
# 2 93.0419 169.5351 49.2162 0.0000 0.0000 0.0000
# 3 49.2162 49.2162 110.7019 0.0000 0.0000 0.0000
# 4 0.0000 0.0000 0.0000 23.8524 0.0000 0.0000
# 5 0.0000 0.0000 0.0000 0.0000 23.8524 0.0000
# 6 0.0000 0.0000 0.0000 0.0000 0.0000 38.2466
#
#
#
# Elastic Compliance Matrix: (Units=1/GPa)
#
#
# Indices 1 2 3 4 5 6 
#
# 1 0.008822 -0.004251 -0.002032 0.000000 0.000000 0.000000
# 2 -0.004251 0.008822 -0.002032 0.000000 0.000000 0.000000
# 3 -0.002032 -0.002032 0.010840 0.000000 0.000000 0.000000
# 4 0.000000 0.000000 0.000000 0.041925 0.000000 0.000000
# 5 0.000000 0.000000 0.000000 0.000000 0.041925 0.000000
# 6 0.000000 0.000000 0.000000 0.000000 0.000000 0.026146
#
#
# Mechanical properties :
#
#
# Convention : Reuss Voigt Hill
#
# Bulk Modulus (GPa) = 84.36768 92.52455 88.44611
# Shear Modulus (GPa) = 31.43485 34.41013 32.92249
#
# Velocity S-wave (km/s) = 3.69542 3.86635 3.78185
# Velocity P-wave (km/s) = 7.40673 7.75413 7.58242
#
# Compressibility (1/GPa) = 0.01185288
#
# Stress axis : x y z
#
# Youngs Moduli (GPa) = 113.35868 113.35868 92.25221
#
# Poissons Ratio (x) = 0.48194 0.18744
# Poissons Ratio (y) = 0.48194 0.18744
# Poissons Ratio (z) = 0.23032 0.23032
#
# Static dielectric constant tensor:
#      x y z
#    x 1.881740 0.000000 0.000000 
#    y 0.000000 1.881740 0.000000 
#    z 0.000000 0.000000 1.914950 
# 
# From -- ./inp_files/1982.got.cif
#   From: 2010.05.17/outbox.cif.g08.bks.cpg/sg179_1_cif.got.tgz:1982.got - 2010.05.20 11:37:33.
