data_PCOD9583873
_publ_section_title
;
Structure prediction by ZEFSAII (Michael W. Deem and Ramdas Pophale) SiO2 
 PCOD9583873
Probable space group: P 62 2 2
;
_chemical_formula_sum "Si O2"
_cell_formula_units_Z 69
_cell_length_a 22.072271
_cell_length_b 22.072271
_cell_length_c 8.348414
_cell_angle_alpha 90.000000
_cell_angle_beta 90.000000
_cell_angle_gamma 120.000000
_cell_volume 3522.318703
_symmetry_space_group_name_H-M "P 62 2 2"
_symmetry_group_IT_number 180
_symmetry_cell_setting 'hexagonal'
loop_
_space_group_symop_operation_xyz
x,y,z
x-y,x,1/3+z
-y,x-y,2/3+z
-x,-y,z
-x+y,-x,1/3+z
y,-x+y,2/3+z
x-y,-y,-z
-x,-x+y,1/3-z
y,x,2/3-z
-y,-x,2/3-z
-x+y,y,-z
x,x-y,1/3-z
loop_
_atom_site_type_symbol
_atom_site_label
_atom_site_fract_x
_atom_site_fract_y
_atom_site_fract_z
Si Si1 0.222173 0.140636 0.337788
Si Si2 0.775921 0.087672 0.273891
Si Si3 0.890927 0.343185 0.267328
Si Si4 0.500000 0.500000 0.833334
Si Si5 0.566538 0.197512 0.845395
Si Si6 0.704173 0.478050 0.662609
Si Si7 0.000000 0.813490 0.166667
O O1 0.167570 0.167570 0.333334
O O2 0.291620 0.202998 0.422238
O O3 0.187655 0.069822 0.443916
O O4 0.237501 0.118751 0.166667
O O5 0.836064 0.163937 0.333334
O O6 0.703387 0.076133 0.341972
O O7 0.786255 0.027409 0.354341
O O8 0.946778 0.425265 0.247341
O O9 0.845523 0.341136 0.417905
O O10 0.839014 0.309924 0.111875
O O11 0.629189 0.211728 0.729090
O O12 0.581584 0.163167 0.000000
O O13 0.562158 0.263722 0.906941
O O14 0.753341 0.506682 0.500000
#
# Coordination Sequence:
#
# PCOD9583873 Si02
#       7
#    12  12  12   3  12  12   6
#     4  11  22  42  72 102 143 184 228 288 345 414
#     4  10  22  40  67  96 134 181 232 293 332 409
#     4  12  23  44  65  94 129 183 233 281 348 413
#     4  12  26  44  74  84 134 192 234 282 360 448
#     4  10  21  37  61 100 135 167 210 276 350 420
#     4  10  21  37  66  98 134 166 216 277 354 426
#     4  10  21  42  65 101 143 174 232 280 350 404
#
# _framework density 19.589368
#
# number of rings (size 3 to 8) (size 9 to 14) (size 15 to 20)
#    0.000    1.391    3.478    2.087    0.000    8.348 
#    0.000   16.522    0.000    0.000    0.000    0.000 
#    0.000    0.000    0.000    0.000    0.000    0.000 
#
# Total GULP energy -384403.834789 kJ/mol
# GULP energy per Si atom -5571.070069 kJ/mol
# Density = 1.954478 g / cm^3
# Si number density = 19.589368 Si / 1000 Ang^3
#
#
#
# Elastic Constant Matrix: (Units=GPa)
#
#
# Indices 1 2 3 4 5 6 
#
# 1 85.1514 41.9552 38.4182 0.0000 0.0000 0.0000
# 2 41.9552 85.1514 38.4182 0.0000 0.0000 0.0000
# 3 38.4182 38.4182 102.4308 0.0000 0.0000 0.0000
# 4 0.0000 0.0000 0.0000 -1.3638 0.0000 0.0000
# 5 0.0000 0.0000 0.0000 0.0000 -1.3638 0.0000
# 6 0.0000 0.0000 0.0000 0.0000 0.0000 21.5981
#
#
#
# Elastic Compliance Matrix: (Units=1/GPa)
#
#
# Indices 1 2 3 4 5 6 
#
# 1 0.016662 -0.006488 -0.003816 0.000000 0.000000 0.000000
# 2 -0.006488 0.016662 -0.003816 0.000000 0.000000 0.000000
# 3 -0.003816 -0.003816 0.012625 0.000000 0.000000 0.000000
# 4 0.000000 0.000000 0.000000 -0.733252 0.000000 0.000000
# 5 0.000000 0.000000 0.000000 0.000000 -0.733252 0.000000
# 6 0.000000 0.000000 0.000000 0.000000 0.000000 0.046300
#
#
# Mechanical properties :
#
#
# Convention : Reuss Voigt Hill
#
# Bulk Modulus (GPa) = 56.46649 56.70187 56.58418
# Shear Modulus (GPa) = -3.73103 14.03689 5.15293
#
# Velocity S-wave (km/s) = -1.38158 2.67976 1.62363
# Velocity P-wave (km/s) = 5.13251 6.21151 5.69761
#
# Compressibility (1/GPa) = 0.01770962
#
# Stress axis : x y z
#
# Youngs Moduli (GPa) = 60.01607 60.01607 79.20677
#
# Poissons Ratio (x) = 0.38938 0.30225
# Poissons Ratio (y) = 0.38938 0.30225
# Poissons Ratio (z) = 0.22902 0.22902
#
# Static dielectric constant tensor:
#      x y z
#    x 1.895170 0.000000 0.000000 
#    y 0.000000 1.895170 0.000000 
#    z 0.000000 0.000000 1.739010 
# 
# From -- ./inp_files/3278.got.cif
#   From: 2010.05.17/outbox.cif.g08.bks.cpg/sg180_2_cif.got.tgz:3278.got - 2010.05.20 11:43:55.
