data_PCOD9583497
_publ_section_title
;
Structure prediction by ZEFSAII (Michael W. Deem and Ramdas Pophale) SiO2 
 PCOD9583497
Probable space group: P 65 2 2
;
_chemical_formula_sum "Si O2"
_cell_formula_units_Z 72
_cell_length_a 14.320020
_cell_length_b 14.320020
_cell_length_c 19.834616
_cell_angle_alpha 90.000000
_cell_angle_beta 90.000000
_cell_angle_gamma 120.000000
_cell_volume 3522.424374
_symmetry_space_group_name_H-M "P 65 2 2"
_symmetry_group_IT_number 179
_symmetry_cell_setting 'hexagonal'
loop_
_space_group_symop_operation_xyz
x,y,z
x-y,x,5/6+z
-y,x-y,2/3+z
-x,-y,1/2+z
-x+y,-x,1/3+z
y,-x+y,1/6+z
x-y,-y,-z
-x,-x+y,1/3-z
y,x,2/3-z
-y,-x,1/6-z
-x+y,y,1/2-z
x,x-y,5/6-z
loop_
_atom_site_type_symbol
_atom_site_label
_atom_site_fract_x
_atom_site_fract_y
_atom_site_fract_z
Si Si1 0.113729 0.968457 0.155506
Si Si2 0.132224 0.566112 0.416667
Si Si3 0.419800 0.433731 0.707632
Si Si4 0.467504 0.701380 0.839289
Si Si5 0.807094 0.117655 0.403875
Si Si6 0.767623 0.472678 0.368759
Si Si7 0.435446 0.000000 0.500000
O O1 0.089756 0.910245 0.083334
O O2 0.123299 0.886171 0.204564
O O3 0.000000 0.964833 0.166667
O O4 0.224174 0.081965 0.157237
O O5 0.057665 0.480641 0.474303
O O6 0.211190 0.677484 0.455857
O O7 0.338409 0.316120 0.736906
O O8 0.352025 0.489571 0.685151
O O9 0.505811 0.497895 0.765769
O O10 0.476656 0.738328 0.916667
O O11 0.351751 0.588900 0.836390
O O12 0.561227 0.673951 0.825522
O O13 0.793059 0.220315 0.415581
O O14 0.770876 0.385438 0.416667
#
# Coordination Sequence:
#
# PCOD9583497 Si02
#       7
#    12   6  12  12  12  12   6
#     4   9  20  33  54  88 130 169 204 261 335 412
#     4  12  24  48  62  94 144 186 236 298 358 432
#     4  12  24  38  65  95 133 184 230 291 353 430
#     4  11  23  43  66  97 139 182 233 296 360 436
#     4  11  20  36  58  91 133 170 220 277 344 424
#     4  11  22  40  63  95 135 176 229 284 361 429
#     4  12  24  40  66 100 132 188 242 282 362 432
#
# _framework density 20.440467999999999
#
# number of rings (size 3 to 8) (size 9 to 14) (size 15 to 20)
#    0.000    1.000    5.833    2.000    3.500    0.000 
#    1.500    0.000    0.000    0.000    2.167    3.500 
#    0.000    0.000    0.000    0.000    0.000    0.000 
#
# Total GULP energy -401369.340937 kJ/mol
# GULP energy per Si atom -5574.574180 kJ/mol
# Density = 2.039394 g / cm^3
# Si number density = 20.440468 Si / 1000 Ang^3
#
#
#
# Elastic Constant Matrix: (Units=GPa)
#
#
# Indices 1 2 3 4 5 6 
#
# 1 78.6697 27.0973 20.6622 0.0000 0.0000 0.0000
# 2 27.0973 78.6697 20.6622 0.0000 0.0000 0.0000
# 3 20.6622 20.6622 92.2681 0.0000 0.0000 0.0000
# 4 0.0000 0.0000 0.0000 32.7539 0.0000 0.0000
# 5 0.0000 0.0000 0.0000 0.0000 32.7539 0.0000
# 6 0.0000 0.0000 0.0000 0.0000 0.0000 25.7862
#
#
#
# Elastic Compliance Matrix: (Units=1/GPa)
#
#
# Indices 1 2 3 4 5 6 
#
# 1 0.014876 -0.004514 -0.002320 0.000000 0.000000 0.000000
# 2 -0.004514 0.014876 -0.002320 0.000000 0.000000 0.000000
# 3 -0.002320 -0.002320 0.011877 0.000000 0.000000 0.000000
# 4 0.000000 0.000000 0.000000 0.030531 0.000000 0.000000
# 5 0.000000 0.000000 0.000000 0.000000 0.030531 0.000000
# 6 0.000000 0.000000 0.000000 0.000000 0.000000 0.038780
#
#
# Mechanical properties :
#
#
# Convention : Reuss Voigt Hill
#
# Bulk Modulus (GPa) = 42.88406 42.93897 42.91152
# Shear Modulus (GPa) = 29.84125 30.33788 30.08957
#
# Velocity S-wave (km/s) = 3.82502 3.85672 3.84090
# Velocity P-wave (km/s) = 6.36657 6.39412 6.38036
#
# Compressibility (1/GPa) = 0.02331869
#
# Stress axis : x y z
#
# Youngs Moduli (GPa) = 67.22350 67.22350 84.19514
#
# Poissons Ratio (x) = 0.30348 0.19536
# Poissons Ratio (y) = 0.30348 0.19536
# Poissons Ratio (z) = 0.15598 0.15598
#
# Static dielectric constant tensor:
#      x y z
#    x 1.781560 0.000000 0.000000 
#    y 0.000000 1.781560 0.000000 
#    z 0.000000 0.000000 1.759840 
# 
# From -- ./inp_files/7706.got.cif
#   From: 2010.05.17/outbox.cif.g08.bks.cpg/sg179_4_cif.got.tgz:7706.got - 2010.05.20 11:37:33.
