data_PCOD9583737
_publ_section_title
;
Structure prediction by ZEFSAII (Michael W. Deem and Ramdas Pophale) SiO2 
 PCOD9583737
Probable space group: P 62 2 2
;
_chemical_formula_sum "Si O2"
_cell_formula_units_Z 48
_cell_length_a 17.471449
_cell_length_b 17.471449
_cell_length_c 8.058876
_cell_angle_alpha 90.000000
_cell_angle_beta 90.000000
_cell_angle_gamma 120.000000
_cell_volume 2130.408836
_symmetry_space_group_name_H-M "P 62 2 2"
_symmetry_group_IT_number 180
_symmetry_cell_setting 'hexagonal'
loop_
_space_group_symop_operation_xyz
x,y,z
x-y,x,1/3+z
-y,x-y,2/3+z
-x,-y,z
-x+y,-x,1/3+z
y,-x+y,2/3+z
x-y,-y,-z
-x,-x+y,1/3-z
y,x,2/3-z
-y,-x,2/3-z
-x+y,y,-z
x,x-y,1/3-z
loop_
_atom_site_type_symbol
_atom_site_label
_atom_site_fract_x
_atom_site_fract_y
_atom_site_fract_z
Si Si1 0.523074 0.326877 0.795198
Si Si2 0.693442 0.944523 0.843949
Si Si3 0.224724 0.876367 0.663001
Si Si4 0.503859 0.411443 0.485598
O O1 0.627365 0.372635 0.833334
O O2 0.495159 0.247580 0.666667
O O3 0.527486 0.400474 0.670975
O O4 0.447557 0.293121 0.933757
O O5 0.591929 0.918807 0.881266
O O6 0.727752 0.018658 0.699654
O O7 0.692770 0.852305 0.856492
O O8 0.751685 0.000000 0.000000
O O9 0.176889 0.823112 0.833334
O O10 0.500000 0.500000 0.490280
O O11 0.571563 0.428438 0.333334
#
# Coordination Sequence:
#
# PCOD9583737 Si02
#       4
#    12  12  12  12
#     4  12  27  41  58  94 126 184 238 299 353 417
#     4  10  19  39  67  95 128 184 227 288 352 431
#     4  10  23  42  67  95 137 185 237 293 364 442
#     4  11  22  40  66  90 127 178 239 281 353 413
#
# _framework density 22.530888000000001
#
# number of rings (size 3 to 8) (size 9 to 14) (size 15 to 20)
#    0.000    1.250    5.000    1.500    3.500    5.500 
#    0.000    0.000    0.000    0.000    0.000    0.000 
#    0.000    0.000   93.500  244.250    0.000    0.000 
#
# Total GULP energy -267377.636294 kJ/mol
# GULP energy per Si atom -5570.367423 kJ/mol
# Density = 2.247961 g / cm^3
# Si number density = 22.530888 Si / 1000 Ang^3
#
#
#
# Elastic Constant Matrix: (Units=GPa)
#
#
# Indices 1 2 3 4 5 6 
#
# 1 93.7750 62.9941 35.0610 0.0000 0.0000 0.0000
# 2 62.9941 93.7750 35.0610 0.0000 0.0000 0.0000
# 3 35.0610 35.0610 119.6649 0.0000 0.0000 0.0000
# 4 0.0000 0.0000 0.0000 6.0335 0.0000 0.0000
# 5 0.0000 0.0000 0.0000 0.0000 6.0335 0.0000
# 6 0.0000 0.0000 0.0000 0.0000 0.0000 15.3904
#
#
#
# Elastic Compliance Matrix: (Units=1/GPa)
#
#
# Indices 1 2 3 4 5 6 
#
# 1 0.019914 -0.012573 -0.002151 0.000000 0.000000 0.000000
# 2 -0.012573 0.019914 -0.002151 0.000000 0.000000 0.000000
# 3 -0.002151 -0.002151 0.009617 0.000000 0.000000 0.000000
# 4 0.000000 0.000000 0.000000 0.165741 0.000000 0.000000
# 5 0.000000 0.000000 0.000000 0.000000 0.165741 0.000000
# 6 0.000000 0.000000 0.000000 0.000000 0.000000 0.064975
#
#
# Mechanical properties :
#
#
# Convention : Reuss Voigt Hill
#
# Bulk Modulus (GPa) = 63.71271 63.71634 63.71453
# Shear Modulus (GPa) = 10.31173 17.09807 13.70490
#
# Velocity S-wave (km/s) = 2.14165 2.75775 2.46899
# Velocity P-wave (km/s) = 5.86983 6.20332 6.03888
#
# Compressibility (1/GPa) = 0.01569545
#
# Stress axis : x y z
#
# Youngs Moduli (GPa) = 50.21520 50.21520 103.98224
#
# Poissons Ratio (x) = 0.63138 0.22365
# Poissons Ratio (y) = 0.63138 0.22365
# Poissons Ratio (z) = 0.10800 0.10800
#
# Static dielectric constant tensor:
#      x y z
#    x 1.969160 0.000000 0.000000 
#    y 0.000000 1.969160 0.000000 
#    z 0.000000 0.000000 2.509670 
# 
# From -- ./inp_files/2666.got.cif
#   From: 2010.05.17/outbox.cif.g08.bks.cpg/sg180_2_cif.got.tgz:2666.got - 2010.05.20 11:43:55.
