data_PCOD9583362
_publ_section_title
;
Structure prediction by ZEFSAII (Michael W. Deem and Ramdas Pophale) SiO2 
 PCOD9583362
Probable space group: P 65 2 2
;
_chemical_formula_sum "Si O2"
_cell_formula_units_Z 48
_cell_length_a 17.535608
_cell_length_b 17.535608
_cell_length_c 8.526246
_cell_angle_alpha 90.000000
_cell_angle_beta 90.000000
_cell_angle_gamma 120.000000
_cell_volume 2270.545177
_symmetry_space_group_name_H-M "P 65 2 2"
_symmetry_group_IT_number 179
_symmetry_cell_setting 'hexagonal'
loop_
_space_group_symop_operation_xyz
x,y,z
x-y,x,5/6+z
-y,x-y,2/3+z
-x,-y,1/2+z
-x+y,-x,1/3+z
y,-x+y,1/6+z
x-y,-y,-z
-x,-x+y,1/3-z
y,x,2/3-z
-y,-x,1/6-z
-x+y,y,1/2-z
x,x-y,5/6-z
loop_
_atom_site_type_symbol
_atom_site_label
_atom_site_fract_x
_atom_site_fract_y
_atom_site_fract_z
Si Si1 0.337058 0.493059 0.766058
Si Si2 0.250987 0.938496 0.873149
Si Si3 0.096833 0.475712 0.097978
Si Si4 0.699274 0.927065 0.101421
O O1 0.252142 0.504283 0.750000
O O2 0.307423 0.408711 0.879305
O O3 0.424454 0.580624 0.823495
O O4 0.364671 0.478401 0.590865
O O5 0.156516 0.859487 0.825136
O O6 0.299696 0.008153 0.736168
O O7 0.241107 0.000000 0.000000
O O8 0.110836 0.395411 0.151002
O O9 0.000000 0.446912 0.166667
O O10 0.780064 0.000000 0.000000
#
# Coordination Sequence:
#
# PCOD9583362 Si02
#       4
#    12  12  12  12
#     4  11  21  39  65  97 133 176 223 273 330 397
#     4  12  21  40  68  96 126 172 219 264 329 404
#     4  10  22  38  65  93 131 173 221 278 323 381
#     4  11  24  42  66  98 132 165 218 283 331 391
#
# _framework density 21.140297
#
# number of rings (size 3 to 8) (size 9 to 14) (size 15 to 20)
#    0.000    1.000    5.000    2.250    3.500    0.000 
#    0.000    0.000   22.000    7.500    0.000    0.000 
#    0.000    0.000    0.000    0.000    0.000    0.000 
#
# Total GULP energy -267260.893306 kJ/mol
# GULP energy per Si atom -5567.935277 kJ/mol
# Density = 2.109218 g / cm^3
# Si number density = 21.140297 Si / 1000 Ang^3
#
#
#
# Elastic Constant Matrix: (Units=GPa)
#
#
# Indices 1 2 3 4 5 6 
#
# 1 150.0903 94.5251 31.0201 0.0000 0.0000 0.0000
# 2 94.5251 150.0903 31.0201 0.0000 0.0000 0.0000
# 3 31.0201 31.0201 47.2831 0.0000 0.0000 0.0000
# 4 0.0000 0.0000 0.0000 31.4850 0.0000 0.0000
# 5 0.0000 0.0000 0.0000 0.0000 31.4850 0.0000
# 6 0.0000 0.0000 0.0000 0.0000 0.0000 27.7826
#
#
#
# Elastic Compliance Matrix: (Units=1/GPa)
#
#
# Indices 1 2 3 4 5 6 
#
# 1 0.011450 -0.006546 -0.003217 0.000000 0.000000 0.000000
# 2 -0.006546 0.011450 -0.003217 0.000000 0.000000 0.000000
# 3 -0.003217 -0.003217 0.025371 0.000000 0.000000 0.000000
# 4 0.000000 0.000000 0.000000 0.031761 0.000000 0.000000
# 5 0.000000 0.000000 0.000000 0.000000 0.031761 0.000000
# 6 0.000000 0.000000 0.000000 0.000000 0.000000 0.035994
#
#
# Mechanical properties :
#
#
# Convention : Reuss Voigt Hill
#
# Bulk Modulus (GPa) = 44.82392 73.39937 59.11165
# Shear Modulus (GPa) = 27.59595 30.87710 29.23653
#
# Velocity S-wave (km/s) = 3.61691 3.82590 3.72287
# Velocity P-wave (km/s) = 6.22028 7.36968 6.81924
#
# Compressibility (1/GPa) = 0.02230951
#
# Stress axis : x y z
#
# Youngs Moduli (GPa) = 87.33286 87.33286 39.41566
#
# Poissons Ratio (x) = 0.57172 0.12681
# Poissons Ratio (y) = 0.57172 0.12681
# Poissons Ratio (z) = 0.28098 0.28098
#
# Static dielectric constant tensor:
#      x y z
#    x 1.761490 0.000000 0.000000 
#    y 0.000000 1.761490 0.000000 
#    z 0.000000 0.000000 2.357850 
# 
# From -- ./inp_files/2596.got.cif
#   From: 2010.05.17/outbox.cif.g08.bks.cpg/sg179_2_cif.got.tgz:2596.got - 2010.05.20 11:37:33.
