data_PCOD9583421
_publ_section_title
;
Structure prediction by ZEFSAII (Michael W. Deem and Ramdas Pophale) SiO2 
 PCOD9583421
Probable space group: P 65 2 2
;
_chemical_formula_sum "Si O2"
_cell_formula_units_Z 48
_cell_length_a 15.372092
_cell_length_b 15.372092
_cell_length_c 11.271364
_cell_angle_alpha 90.000000
_cell_angle_beta 90.000000
_cell_angle_gamma 120.000000
_cell_volume 2306.604085
_symmetry_space_group_name_H-M "P 65 2 2"
_symmetry_group_IT_number 179
_symmetry_cell_setting 'hexagonal'
loop_
_space_group_symop_operation_xyz
x,y,z
x-y,x,5/6+z
-y,x-y,2/3+z
-x,-y,1/2+z
-x+y,-x,1/3+z
y,-x+y,1/6+z
x-y,-y,-z
-x,-x+y,1/3-z
y,x,2/3-z
-y,-x,1/6-z
-x+y,y,1/2-z
x,x-y,5/6-z
loop_
_atom_site_type_symbol
_atom_site_label
_atom_site_fract_x
_atom_site_fract_y
_atom_site_fract_z
Si Si1 0.173505 0.143160 0.520807
Si Si2 0.724405 0.260201 0.441569
Si Si3 0.904894 0.250999 0.488657
Si Si4 0.443004 0.962254 0.881099
O O1 0.140035 0.060142 0.621553
O O2 0.232793 0.250597 0.580879
O O3 0.226815 0.113408 0.416667
O O4 0.736685 0.263316 0.583334
O O5 0.718868 0.359434 0.416667
O O6 0.824848 0.259378 0.402852
O O7 0.631346 0.156858 0.397102
O O8 0.839816 0.160185 0.583334
O O9 0.970555 0.359305 0.548878
O O10 0.490045 0.980089 0.750000
O O11 0.511751 0.000000 0.000000
#
# Coordination Sequence:
#
# PCOD9583421 Si02
#       4
#    12  12  12  12
#     4  10  23  40  59  95 136 181 239 308 382 456
#     4  11  23  42  70 105 144 194 254 311 383 470
#     4  11  23  42  73  97 141 193 260 297 385 469
#     4  12  25  47  71 112 147 194 253 319 383 464
#
# _framework density 20.809813999999999
#
# number of rings (size 3 to 8) (size 9 to 14) (size 15 to 20)
#    0.000    1.000    5.000    3.000    0.000    5.000 
#    4.500    3.750    0.000    0.000    0.000    0.000 
#    0.000    0.000    0.000    0.000    0.000    0.000 
#
# Total GULP energy -267728.064288 kJ/mol
# GULP energy per Si atom -5577.668006 kJ/mol
# Density = 2.076245 g / cm^3
# Si number density = 20.809814 Si / 1000 Ang^3
#
#
#
# Elastic Constant Matrix: (Units=GPa)
#
#
# Indices 1 2 3 4 5 6 
#
# 1 92.7386 20.7039 36.9103 0.0000 0.0000 0.0000
# 2 20.7039 92.7386 36.9103 0.0000 0.0000 0.0000
# 3 36.9103 36.9103 122.6327 0.0000 0.0000 0.0000
# 4 0.0000 0.0000 0.0000 29.1678 0.0000 0.0000
# 5 0.0000 0.0000 0.0000 0.0000 29.1678 0.0000
# 6 0.0000 0.0000 0.0000 0.0000 0.0000 36.0174
#
#
#
# Elastic Compliance Matrix: (Units=1/GPa)
#
#
# Indices 1 2 3 4 5 6 
#
# 1 0.012422 -0.001460 -0.003299 0.000000 0.000000 0.000000
# 2 -0.001460 0.012422 -0.003299 0.000000 0.000000 0.000000
# 3 -0.003299 -0.003299 0.010141 0.000000 0.000000 0.000000
# 4 0.000000 0.000000 0.000000 0.034284 0.000000 0.000000
# 5 0.000000 0.000000 0.000000 0.000000 0.034284 0.000000
# 6 0.000000 0.000000 0.000000 0.000000 0.000000 0.027764
#
#
# Mechanical properties :
#
#
# Convention : Reuss Voigt Hill
#
# Bulk Modulus (GPa) = 53.00227 55.23986 54.12106
# Shear Modulus (GPa) = 32.52569 33.10962 32.81765
#
# Velocity S-wave (km/s) = 3.95777 3.99313 3.97549
# Velocity P-wave (km/s) = 6.81251 6.91830 6.86561
#
# Compressibility (1/GPa) = 0.01886712
#
# Stress axis : x y z
#
# Youngs Moduli (GPa) = 80.50148 80.50148 98.61395
#
# Poissons Ratio (x) = 0.11754 0.32537
# Poissons Ratio (y) = 0.11754 0.32537
# Poissons Ratio (z) = 0.26561 0.26561
#
# Static dielectric constant tensor:
#      x y z
#    x 1.800600 0.000000 0.000000 
#    y 0.000000 1.800600 0.000000 
#    z 0.000000 0.000000 1.828580 
# 
# From -- ./inp_files/4269.got.cif
#   From: 2010.05.17/outbox.cif.g08.bks.cpg/sg179_3_cif.got.tgz:4269.got - 2010.05.20 11:37:33.
