data_PCOD9583379
_publ_section_title
;
Structure prediction by ZEFSAII (Michael W. Deem and Ramdas Pophale) SiO2 
 PCOD9583379
Probable space group: P 65 2 2
;
_chemical_formula_sum "Si O2"
_cell_formula_units_Z 72
_cell_length_a 14.948365
_cell_length_b 14.948365
_cell_length_c 15.420629
_cell_angle_alpha 90.000000
_cell_angle_beta 90.000000
_cell_angle_gamma 120.000000
_cell_volume 2984.146278
_symmetry_space_group_name_H-M "P 65 2 2"
_symmetry_group_IT_number 179
_symmetry_cell_setting 'hexagonal'
loop_
_space_group_symop_operation_xyz
x,y,z
x-y,x,5/6+z
-y,x-y,2/3+z
-x,-y,1/2+z
-x+y,-x,1/3+z
y,-x+y,1/6+z
x-y,-y,-z
-x,-x+y,1/3-z
y,x,2/3-z
-y,-x,1/6-z
-x+y,y,1/2-z
x,x-y,5/6-z
loop_
_atom_site_type_symbol
_atom_site_label
_atom_site_fract_x
_atom_site_fract_y
_atom_site_fract_z
Si Si1 0.851873 0.000000 0.000000
Si Si2 0.480664 0.139695 0.705794
Si Si3 0.196082 0.830107 0.731039
Si Si4 0.490699 0.475692 0.740136
Si Si5 0.571159 0.219359 0.343388
Si Si6 0.034859 0.318469 0.824020
Si Si7 0.142319 0.071160 0.916667
O O1 0.937037 0.062964 0.083334
O O2 0.740739 0.907460 0.036253
O O3 0.594047 0.188094 0.750000
O O4 0.443697 0.175629 0.622239
O O5 0.394730 0.123998 0.776533
O O6 0.475796 0.036672 0.667245
O O7 0.275975 0.829020 0.661909
O O8 0.264342 0.932629 0.785437
O O9 0.526644 0.526644 0.833334
O O10 0.539790 0.407221 0.714066
O O11 0.367778 0.401442 0.740904
O O12 0.625625 0.251250 0.250000
O O13 0.606033 0.303017 0.416667
O O14 0.037062 0.222623 0.782798
O O15 0.080671 0.080671 0.833334
#
# Coordination Sequence:
#
# PCOD9583379 Si02
#       7
#     6  12  12  12  12  12   6
#     4  12  30  52  80 120 160 220 292 360 436 526
#     4  10  22  40  70 106 150 197 265 327 388 484
#     4  12  24  47  77 113 156 211 270 338 420 500
#     4  11  22  43  74 107 147 205 264 321 394 481
#     4  12  25  46  77 116 161 208 266 336 411 490
#     4  11  23  49  75 106 150 206 263 332 400 489
#     4  12  28  52  82 114 154 212 268 338 422 494
#
# _framework density 24.127502
#
# number of rings (size 3 to 8) (size 9 to 14) (size 15 to 20)
#    0.000    0.667    3.333    4.500    3.500    0.667 
#    6.000    0.000    9.167    0.000    0.000    0.000 
#    0.000    0.000    0.000    0.000    0.000    0.000 
#
# Total GULP energy -401357.411034 kJ/mol
# GULP energy per Si atom -5574.408487 kJ/mol
# Density = 2.407259 g / cm^3
# Si number density = 24.127502 Si / 1000 Ang^3
#
#
#
# Elastic Constant Matrix: (Units=GPa)
#
#
# Indices 1 2 3 4 5 6 
#
# 1 85.5018 56.8353 39.2015 0.0000 0.0000 0.0000
# 2 56.8353 85.5018 39.2015 0.0000 0.0000 0.0000
# 3 39.2015 39.2015 131.2590 0.0000 0.0000 0.0000
# 4 0.0000 0.0000 0.0000 24.2775 0.0000 0.0000
# 5 0.0000 0.0000 0.0000 0.0000 24.2775 0.0000
# 6 0.0000 0.0000 0.0000 0.0000 0.0000 14.3332
#
#
#
# Elastic Compliance Matrix: (Units=1/GPa)
#
#
# Indices 1 2 3 4 5 6 
#
# 1 0.021646 -0.013238 -0.002511 0.000000 0.000000 0.000000
# 2 -0.013238 0.021646 -0.002511 0.000000 0.000000 0.000000
# 3 -0.002511 -0.002511 0.009119 0.000000 0.000000 0.000000
# 4 0.000000 0.000000 0.000000 0.041190 0.000000 0.000000
# 5 0.000000 0.000000 0.000000 0.000000 0.041190 0.000000
# 6 0.000000 0.000000 0.000000 0.000000 0.000000 0.069768
#
#
# Mechanical properties :
#
#
# Convention : Reuss Voigt Hill
#
# Bulk Modulus (GPa) = 62.92912 63.63769 63.28340
# Shear Modulus (GPa) = 20.29404 23.71260 22.00332
#
# Velocity S-wave (km/s) = 2.90335 3.13837 3.02314
# Velocity P-wave (km/s) = 6.11374 6.29010 6.20254
#
# Compressibility (1/GPa) = 0.01589089
#
# Stress axis : x y z
#
# Youngs Moduli (GPa) = 46.19702 46.19702 109.66580
#
# Poissons Ratio (x) = 0.61153 0.27541
# Poissons Ratio (y) = 0.61153 0.27541
# Poissons Ratio (z) = 0.11602 0.11602
#
# Static dielectric constant tensor:
#      x y z
#    x 1.988100 0.000000 0.000000 
#    y 0.000000 1.988100 0.000000 
#    z 0.000000 0.000000 2.083810 
# 
# From -- ./inp_files/6867.got.cif
#   From: 2010.05.17/outbox.cif.g08.bks.cpg/sg179_4_cif.got.tgz:6867.got - 2010.05.20 11:37:33.
