data_PCOD9583186
_publ_section_title
;
Structure prediction by ZEFSAII (Michael W. Deem and Ramdas Pophale) SiO2 
 PCOD9583186
Probable space group: P 65 2 2
;
_chemical_formula_sum "Si O2"
_cell_formula_units_Z 36
_cell_length_a 21.092201
_cell_length_b 21.092201
_cell_length_c 5.051363
_cell_angle_alpha 90.000000
_cell_angle_beta 90.000000
_cell_angle_gamma 120.000000
_cell_volume 1946.180036
_symmetry_space_group_name_H-M "P 65 2 2"
_symmetry_group_IT_number 179
_symmetry_cell_setting 'hexagonal'
loop_
_space_group_symop_operation_xyz
x,y,z
x-y,x,5/6+z
-y,x-y,2/3+z
-x,-y,1/2+z
-x+y,-x,1/3+z
y,-x+y,1/6+z
x-y,-y,-z
-x,-x+y,1/3-z
y,x,2/3-z
-y,-x,1/6-z
-x+y,y,1/2-z
x,x-y,5/6-z
loop_
_atom_site_type_symbol
_atom_site_label
_atom_site_fract_x
_atom_site_fract_y
_atom_site_fract_z
Si Si1 0.558475 0.205257 0.491274
Si Si2 0.083401 0.693586 0.704846
Si Si3 0.780223 0.697620 0.365229
O O1 0.605929 0.211858 0.750000
O O2 0.565151 0.282576 0.416667
O O3 0.473481 0.144987 0.515451
O O4 0.591204 0.182407 0.250000
O O5 0.094021 0.755933 0.490032
O O6 0.000000 0.628155 0.666667
O O7 0.088227 0.724132 0.997848
O O8 0.763992 0.763992 0.333334
O O9 0.858526 0.717052 0.250000
#
# Coordination Sequence:
#
# PCOD9583186 Si02
#       3
#    12  12  12
#     4  12  24  38  56  77 107 144 183 223 267 326
#     4  10  22  38  58  82 107 138 179 230 278 317
#     4  10  19  34  56  83 112 142 179 221 269 321
#
# _framework density 18.497775000000001
#
# number of rings (size 3 to 8) (size 9 to 14) (size 15 to 20)
#    0.000    1.333    0.000    7.000    0.000    1.333 
#    0.000    0.000    0.000    0.000    0.000    7.000 
#    0.000    0.000    0.000    0.000    0.000    0.000 
#
# Total GULP energy -201086.164092 kJ/mol
# GULP energy per Si atom -5585.726780 kJ/mol
# Density = 1.845567 g / cm^3
# Si number density = 18.497775 Si / 1000 Ang^3
#
#
#
# Elastic Constant Matrix: (Units=GPa)
#
#
# Indices 1 2 3 4 5 6 
#
# 1 71.1855 86.5705 6.5195 0.0000 0.0000 0.0000
# 2 86.5705 71.1855 6.5195 0.0000 0.0000 0.0000
# 3 6.5195 6.5195 81.8291 0.0000 0.0000 0.0000
# 4 0.0000 0.0000 0.0000 25.4426 0.0000 0.0000
# 5 0.0000 0.0000 0.0000 0.0000 25.4426 0.0000
# 6 0.0000 0.0000 0.0000 0.0000 0.0000 -7.6925
#
#
#
# Elastic Compliance Matrix: (Units=1/GPa)
#
#
# Indices 1 2 3 4 5 6 
#
# 1 -0.029309 0.035690 -0.000508 0.000000 0.000000 0.000000
# 2 0.035690 -0.029309 -0.000508 0.000000 0.000000 0.000000
# 3 -0.000508 -0.000508 0.012302 0.000000 0.000000 0.000000
# 4 0.000000 0.000000 0.000000 0.039304 0.000000 0.000000
# 5 0.000000 0.000000 0.000000 0.000000 0.039304 0.000000
# 6 0.000000 0.000000 0.000000 0.000000 0.000000 -0.129997
#
#
# Mechanical properties :
#
#
# Convention : Reuss Voigt Hill
#
# Bulk Modulus (GPa) = 43.42175 47.04654 45.23415
# Shear Modulus (GPa) = -31.37270 16.94459 -7.21405
#
# Velocity S-wave (km/s) = -4.12275 3.02989 -1.97697
# Velocity P-wave (km/s) = 0.92857 6.14241 4.39269
#
# Compressibility (1/GPa) = 0.02302993
#
# Stress axis : x y z
#
# Youngs Moduli (GPa) = -34.11941 -34.11941 81.29022
#
# Poissons Ratio (x) = 1.21771 0.04133
# Poissons Ratio (y) = 1.21771 0.04133
# Poissons Ratio (z) = -0.01735 -0.01735
#
# Static dielectric constant tensor:
#      x y z
#    x 1.629450 0.000000 0.000000 
#    y 0.000000 1.629450 0.000000 
#    z 0.000000 0.000000 1.627940 
# 
# From -- ./inp_files/586.got.cif
#   From: 2010.05.17/outbox.cif.g08.bks.cpg/sg179_1_cif.got.tgz:586.got - 2010.05.20 11:37:33.
