data_PCOD9583645
_publ_section_title
;
Structure prediction by ZEFSAII (Michael W. Deem and Ramdas Pophale) SiO2 
 PCOD9583645
Probable space group: P 62 2 2
;
_chemical_formula_sum "Si O2"
_cell_formula_units_Z 78
_cell_length_a 26.747320
_cell_length_b 26.747320
_cell_length_c 9.611070
_cell_angle_alpha 90.000000
_cell_angle_beta 90.000000
_cell_angle_gamma 120.000000
_cell_volume 5954.741582
_symmetry_space_group_name_H-M "P 62 2 2"
_symmetry_group_IT_number 180
_symmetry_cell_setting 'hexagonal'
loop_
_space_group_symop_operation_xyz
x,y,z
x-y,x,1/3+z
-y,x-y,2/3+z
-x,-y,z
-x+y,-x,1/3+z
y,-x+y,2/3+z
x-y,-y,-z
-x,-x+y,1/3-z
y,x,2/3-z
-y,-x,2/3-z
-x+y,y,-z
x,x-y,1/3-z
loop_
_atom_site_type_symbol
_atom_site_label
_atom_site_fract_x
_atom_site_fract_y
_atom_site_fract_z
Si Si1 0.469086 0.147354 0.475982
Si Si2 0.600167 0.058100 0.713745
Si Si3 0.495118 0.389994 0.338380
Si Si4 0.237598 0.762403 0.333334
Si Si5 0.510912 0.584491 0.638563
Si Si6 0.334226 0.770128 0.120028
Si Si7 0.587909 0.347733 0.976074
O O1 0.434306 0.091922 0.378294
O O2 0.444637 0.181345 0.566662
O O3 0.493893 0.120872 0.588280
O O4 0.521070 0.192208 0.377564
O O5 0.619845 0.074642 0.874005
O O6 0.552099 0.078748 0.696527
O O7 0.560813 0.991841 0.668424
O O8 0.542236 0.457765 0.333334
O O9 0.469577 0.383523 0.490687
O O10 0.531640 0.357102 0.352476
O O11 0.287903 0.770972 0.226763
O O12 0.300767 0.711724 0.031180
O O13 0.381435 0.769655 0.224943
O O14 0.619247 0.380754 0.833334
#
# Coordination Sequence:
#
# PCOD9583645 Si02
#       7
#    12  12  12   6  12  12  12
#     4  11  19  31  47  58  78  96 127 145 181 222
#     4  10  20  29  45  68  78  91 119 155 187 226
#     4  10  19  32  43  57  81  99 110 148 196 225
#     4  10  20  32  46  56  74 108 118 152 185 208
#     4  10  18  30  48  63  79  97 115 148 194 227
#     4  11  20  32  43  55  75 103 130 155 185 209
#     4  11  18  30  42  56  73  99 131 163 177 209
#
# _framework density 13.098806
#
# number of rings (size 3 to 8) (size 9 to 14) (size 15 to 20)
#    0.000    1.538    4.615    4.154    0.000    4.308 
#    0.000    6.154    0.000    0.000    0.000    0.000 
#    0.000    0.000    0.000    0.000    0.000    0.000 
#
# Total GULP energy -434457.779370 kJ/mol
# GULP energy per Si atom -5569.971530 kJ/mol
# Density = 1.306899 g / cm^3
# Si number density = 13.098806 Si / 1000 Ang^3
#
#
#
# Elastic Constant Matrix: (Units=GPa)
#
#
# Indices 1 2 3 4 5 6 
#
# 1 29.7998 13.0797 13.4097 0.0000 0.0000 0.0000
# 2 13.0797 29.7998 13.4097 0.0000 0.0000 0.0000
# 3 13.4097 13.4097 51.5419 0.0000 0.0000 0.0000
# 4 0.0000 0.0000 0.0000 6.8717 0.0000 0.0000
# 5 0.0000 0.0000 0.0000 0.0000 6.8717 0.0000
# 6 0.0000 0.0000 0.0000 0.0000 0.0000 8.3601
#
#
#
# Elastic Compliance Matrix: (Units=1/GPa)
#
#
# Indices 1 2 3 4 5 6 
#
# 1 0.043831 -0.015977 -0.007247 0.000000 0.000000 0.000000
# 2 -0.015977 0.043831 -0.007247 0.000000 0.000000 0.000000
# 3 -0.007247 -0.007247 0.023172 0.000000 0.000000 0.000000
# 4 0.000000 0.000000 0.000000 0.145525 0.000000 0.000000
# 5 0.000000 0.000000 0.000000 0.000000 0.145525 0.000000
# 6 0.000000 0.000000 0.000000 0.000000 0.000000 0.119616
#
#
# Mechanical properties :
#
#
# Convention : Reuss Voigt Hill
#
# Bulk Modulus (GPa) = 20.04292 21.21554 20.62923
# Shear Modulus (GPa) = 8.34623 9.17018 8.75821
#
# Velocity S-wave (km/s) = 2.52697 2.64877 2.58859
# Velocity P-wave (km/s) = 4.88351 5.05829 4.97167
#
# Compressibility (1/GPa) = 0.04989293
#
# Stress axis : x y z
#
# Youngs Moduli (GPa) = 22.81496 22.81496 43.15466
#
# Poissons Ratio (x) = 0.36452 0.31273
# Poissons Ratio (y) = 0.36452 0.31273
# Poissons Ratio (z) = 0.16533 0.16533
#
# Static dielectric constant tensor:
#      x y z
#    x 1.449420 0.000000 0.000000 
#    y 0.000000 1.449420 0.000000 
#    z 0.000000 0.000000 1.531540 
# 
# From -- ./inp_files/3491.got.cif
#   From: 2010.05.17/outbox.cif.g08.bks.cpg/sg180_2_cif.got.tgz:3491.got - 2010.05.20 11:43:55.
