data_PCOD9583255
_publ_section_title
;
Structure prediction by ZEFSAII (Michael W. Deem and Ramdas Pophale) SiO2 
 PCOD9583255
Probable space group: P 65 2 2
;
_chemical_formula_sum "Si O2"
_cell_formula_units_Z 60
_cell_length_a 16.883972
_cell_length_b 16.883972
_cell_length_c 11.240798
_cell_angle_alpha 90.000000
_cell_angle_beta 90.000000
_cell_angle_gamma 120.000000
_cell_volume 2775.089676
_symmetry_space_group_name_H-M "P 65 2 2"
_symmetry_group_IT_number 179
_symmetry_cell_setting 'hexagonal'
loop_
_space_group_symop_operation_xyz
x,y,z
x-y,x,5/6+z
-y,x-y,2/3+z
-x,-y,1/2+z
-x+y,-x,1/3+z
y,-x+y,1/6+z
x-y,-y,-z
-x,-x+y,1/3-z
y,x,2/3-z
-y,-x,1/6-z
-x+y,y,1/2-z
x,x-y,5/6-z
loop_
_atom_site_type_symbol
_atom_site_label
_atom_site_fract_x
_atom_site_fract_y
_atom_site_fract_z
Si Si1 0.831161 0.883869 0.114274
Si Si2 0.044600 0.402770 0.525043
Si Si3 0.523060 0.000000 0.000000
Si Si4 0.208463 0.825871 0.719485
Si Si5 0.648989 0.524250 0.039825
Si Si6 0.000000 0.759697 0.166667
O O1 0.727968 0.853743 0.071739
O O2 0.819477 0.810817 0.217881
O O3 0.874509 0.982499 0.177957
O O4 0.099998 0.413282 0.407975
O O5 0.061896 0.492975 0.590347
O O6 0.939235 0.351196 0.480481
O O7 0.068219 0.340767 0.611780
O O8 0.599125 0.058912 0.905886
O O9 0.201493 0.798508 0.583334
O O10 0.187316 0.748179 0.817664
O O11 0.580502 0.419499 0.083334
#
# Coordination Sequence:
#
# PCOD9583255 Si02
#       6
#    12  12   6  12  12   6
#     4  11  24  41  59  84 121 169 222 267 310 360
#     4   9  19  35  59  88 116 150 192 242 298 359
#     4   9  18  36  60  83 110 146 188 233 288 358
#     4  11  22  38  62  90 120 154 196 252 311 369
#     4  10  20  36  60  90 118 151 194 242 302 372
#     4   9  18  36  58  83 114 156 206 253 302 354
#
# _framework density 21.620922
#
# number of rings (size 3 to 8) (size 9 to 14) (size 15 to 20)
#    0.000    2.000    0.000    4.200    0.000    4.000 
#    0.000   16.000    0.000   10.800    0.000    0.000 
#    0.000    0.000    0.000    0.000    0.000    0.000 
#
# Total GULP energy -334066.000299 kJ/mol
# GULP energy per Si atom -5567.766672 kJ/mol
# Density = 2.157171 g / cm^3
# Si number density = 21.620922 Si / 1000 Ang^3
#
#
#
# Elastic Constant Matrix: (Units=GPa)
#
#
# Indices 1 2 3 4 5 6 
#
# 1 67.9633 33.9988 10.2466 0.0000 0.0000 0.0000
# 2 33.9988 67.9633 10.2466 0.0000 0.0000 0.0000
# 3 10.2466 10.2466 78.7822 0.0000 0.0000 0.0000
# 4 0.0000 0.0000 0.0000 41.8275 0.0000 0.0000
# 5 0.0000 0.0000 0.0000 0.0000 41.8275 0.0000
# 6 0.0000 0.0000 0.0000 0.0000 0.0000 16.9822
#
#
#
# Elastic Compliance Matrix: (Units=1/GPa)
#
#
# Indices 1 2 3 4 5 6 
#
# 1 0.019757 -0.009686 -0.001310 0.000000 0.000000 0.000000
# 2 -0.009686 0.019757 -0.001310 0.000000 0.000000 0.000000
# 3 -0.001310 -0.001310 0.013034 0.000000 0.000000 0.000000
# 4 0.000000 0.000000 0.000000 0.023908 0.000000 0.000000
# 5 0.000000 0.000000 0.000000 0.000000 0.023908 0.000000
# 6 0.000000 0.000000 0.000000 0.000000 0.000000 0.058885
#
#
# Mechanical properties :
#
#
# Convention : Reuss Voigt Hill
#
# Bulk Modulus (GPa) = 35.79576 35.96585 35.88080
# Shear Modulus (GPa) = 25.88381 30.80858 28.34620
#
# Velocity S-wave (km/s) = 3.46376 3.77894 3.62478
# Velocity P-wave (km/s) = 5.70867 5.97590 5.84381
#
# Compressibility (1/GPa) = 0.02793627
#
# Stress axis : x y z
#
# Youngs Moduli (GPa) = 50.61577 50.61577 76.72272
#
# Poissons Ratio (x) = 0.49026 0.10049
# Poissons Ratio (y) = 0.49026 0.10049
# Poissons Ratio (z) = 0.06630 0.06630
#
# Static dielectric constant tensor:
#      x y z
#    x 1.818830 0.000000 0.000000 
#    y 0.000000 1.818830 0.000000 
#    z 0.000000 0.000000 1.855600 
# 
# From -- ./inp_files/4751.got.cif
#   From: 2010.05.17/outbox.cif.g08.bks.cpg/sg179_3_cif.got.tgz:4751.got - 2010.05.20 11:37:33.
