data_PCOD9583436
_publ_section_title
;
Structure prediction by ZEFSAII (Michael W. Deem and Ramdas Pophale) SiO2 
 PCOD9583436
Probable space group: P 65 2 2
;
_chemical_formula_sum "Si O2"
_cell_formula_units_Z 48
_cell_length_a 16.974394
_cell_length_b 16.974394
_cell_length_c 9.077176
_cell_angle_alpha 90.000000
_cell_angle_beta 90.000000
_cell_angle_gamma 120.000000
_cell_volume 2265.009068
_symmetry_space_group_name_H-M "P 65 2 2"
_symmetry_group_IT_number 179
_symmetry_cell_setting 'hexagonal'
loop_
_space_group_symop_operation_xyz
x,y,z
x-y,x,5/6+z
-y,x-y,2/3+z
-x,-y,1/2+z
-x+y,-x,1/3+z
y,-x+y,1/6+z
x-y,-y,-z
-x,-x+y,1/3-z
y,x,2/3-z
-y,-x,1/6-z
-x+y,y,1/2-z
x,x-y,5/6-z
loop_
_atom_site_type_symbol
_atom_site_label
_atom_site_fract_x
_atom_site_fract_y
_atom_site_fract_z
Si Si1 0.220517 0.371233 0.088749
Si Si2 0.788050 0.303894 0.432184
Si Si3 0.000759 0.419105 0.488239
Si Si4 0.823364 0.892711 0.195709
O O1 0.178469 0.356937 0.250000
O O2 0.317208 0.376642 0.073958
O O3 0.237160 0.467343 0.027972
O O4 0.151359 0.284138 0.991983
O O5 0.749246 0.250755 0.583334
O O6 0.756679 0.378340 0.416667
O O7 0.896944 0.358867 0.438901
O O8 0.036409 0.518205 0.416667
O O9 0.000000 0.421165 0.666667
O O10 0.869906 0.869438 0.061290
O O11 0.845859 0.845859 0.333334
#
# Coordination Sequence:
#
# PCOD9583436 Si02
#       4
#    12  12  12  12
#     4  12  27  44  71 105 145 187 246 301 363 443
#     4  11  26  46  72 103 143 188 238 302 370 441
#     4  11  25  45  72 101 140 186 239 295 367 438
#     4  10  23  45  70 102 146 195 240 296 359 431
#
# _framework density 21.191967999999999
#
# number of rings (size 3 to 8) (size 9 to 14) (size 15 to 20)
#    0.000    1.000    2.500    2.250   10.500    5.000 
#   13.500    0.000    0.000    0.000    0.000    0.000 
#    0.000    0.000    0.000    0.000    0.000    0.000 
#
# Total GULP energy -268459.135281 kJ/mol
# GULP energy per Si atom -5592.898652 kJ/mol
# Density = 2.114373 g / cm^3
# Si number density = 21.191968 Si / 1000 Ang^3
#
#
#
# Elastic Constant Matrix: (Units=GPa)
#
#
# Indices 1 2 3 4 5 6 
#
# 1 100.3119 15.7131 13.5173 0.0000 0.0000 0.0000
# 2 15.7131 100.3119 13.5173 0.0000 0.0000 0.0000
# 3 13.5173 13.5173 62.0063 0.0000 0.0000 0.0000
# 4 0.0000 0.0000 0.0000 42.7053 0.0000 0.0000
# 5 0.0000 0.0000 0.0000 0.0000 42.7053 0.0000
# 6 0.0000 0.0000 0.0000 0.0000 0.0000 42.2994
#
#
#
# Elastic Compliance Matrix: (Units=1/GPa)
#
#
# Indices 1 2 3 4 5 6 
#
# 1 0.010450 -0.001370 -0.001979 0.000000 0.000000 0.000000
# 2 -0.001370 0.010450 -0.001979 0.000000 0.000000 0.000000
# 3 -0.001979 -0.001979 0.016990 0.000000 0.000000 0.000000
# 4 0.000000 0.000000 0.000000 0.023416 0.000000 0.000000
# 5 0.000000 0.000000 0.000000 0.000000 0.023416 0.000000
# 6 0.000000 0.000000 0.000000 0.000000 0.000000 0.023641
#
#
# Mechanical properties :
#
#
# Convention : Reuss Voigt Hill
#
# Bulk Modulus (GPa) = 36.72047 38.68062 37.70054
# Shear Modulus (GPa) = 39.03188 40.20081 39.61635
#
# Velocity S-wave (km/s) = 4.29630 4.36016 4.32835
# Velocity P-wave (km/s) = 6.47890 6.60607 6.54279
#
# Compressibility (1/GPa) = 0.02723277
#
# Stress axis : x y z
#
# Youngs Moduli (GPa) = 95.69121 95.69121 58.85666
#
# Poissons Ratio (x) = 0.13112 0.11650
# Poissons Ratio (y) = 0.13112 0.11650
# Poissons Ratio (z) = 0.18942 0.18942
#
# Static dielectric constant tensor:
#      x y z
#    x 1.755310 0.000000 0.000000 
#    y 0.000000 1.755310 0.000000 
#    z 0.000000 0.000000 1.772270 
# 
# From -- ./inp_files/2615.got.cif
#   From: 2010.05.17/outbox.cif.g08.bks.cpg/sg179_2_cif.got.tgz:2615.got - 2010.05.20 11:37:33.
