data_PCOD9583864
_publ_section_title
;
Structure prediction by ZEFSAII (Michael W. Deem and Ramdas Pophale) SiO2 
 PCOD9583864
Probable space group: P 62 2 2
;
_chemical_formula_sum "Si O2"
_cell_formula_units_Z 48
_cell_length_a 11.506497
_cell_length_b 11.506497
_cell_length_c 19.392738
_cell_angle_alpha 90.000000
_cell_angle_beta 90.000000
_cell_angle_gamma 120.000000
_cell_volume 2223.596690
_symmetry_space_group_name_H-M "P 62 2 2"
_symmetry_group_IT_number 180
_symmetry_cell_setting 'hexagonal'
loop_
_space_group_symop_operation_xyz
x,y,z
x-y,x,1/3+z
-y,x-y,2/3+z
-x,-y,z
-x+y,-x,1/3+z
y,-x+y,2/3+z
x-y,-y,-z
-x,-x+y,1/3-z
y,x,2/3-z
-y,-x,2/3-z
-x+y,y,-z
x,x-y,1/3-z
loop_
_atom_site_type_symbol
_atom_site_label
_atom_site_fract_x
_atom_site_fract_y
_atom_site_fract_z
Si Si1 0.693493 0.774739 0.596914
Si Si2 0.380774 0.860474 0.920750
Si Si3 0.000000 0.500000 0.986870
Si Si4 0.711609 0.855805 0.166667
Si Si5 0.572002 0.220013 0.568340
O O1 0.733585 0.866793 0.666667
O O2 0.626255 0.617466 0.615491
O O3 0.804532 0.800315 0.540427
O O4 0.563588 0.774443 0.566710
O O5 0.251360 0.866494 0.892019
O O6 0.355699 0.713531 0.900956
O O7 0.500000 0.000000 0.889020
O O8 0.433180 0.866360 0.000000
O O9 0.134269 0.559718 0.031757
O O10 0.572690 0.145380 0.500000
#
# Coordination Sequence:
#
# PCOD9583864 Si02
#       5
#    12  12   6   6  12
#     4  10  22  38  61  96 135 180 234 286 354 432
#     4  11  23  36  57  96 136 176 225 287 355 421
#     4  10  21  36  58  88 131 182 214 288 344 406
#     4  12  22  38  66  93 139 186 222 294 370 408
#     4  11  20  36  58  92 131 169 228 280 345 421
#
# _framework density 21.586649000000001
#
# number of rings (size 3 to 8) (size 9 to 14) (size 15 to 20)
#    0.000    1.250    1.250    7.125    1.750    0.000 
#    0.000    0.000    0.000    0.000    0.000  157.500 
#    0.000    0.000    0.000    0.000    0.000    0.000 
#
# Total GULP energy -267298.077782 kJ/mol
# GULP energy per Si atom -5568.709954 kJ/mol
# Density = 2.153752 g / cm^3
# Si number density = 21.586649 Si / 1000 Ang^3
#
#
#
# Elastic Constant Matrix: (Units=GPa)
#
#
# Indices 1 2 3 4 5 6 
#
# 1 105.2595 62.3254 44.3486 0.0000 0.0000 0.0000
# 2 62.3254 105.2595 44.3486 0.0000 0.0000 0.0000
# 3 44.3486 44.3486 105.7302 0.0000 0.0000 0.0000
# 4 0.0000 0.0000 0.0000 46.8237 0.0000 0.0000
# 5 0.0000 0.0000 0.0000 0.0000 46.8237 0.0000
# 6 0.0000 0.0000 0.0000 0.0000 0.0000 21.4671
#
#
#
# Elastic Compliance Matrix: (Units=1/GPa)
#
#
# Indices 1 2 3 4 5 6 
#
# 1 0.015481 -0.007811 -0.003217 0.000000 0.000000 0.000000
# 2 -0.007811 0.015481 -0.003217 0.000000 0.000000 0.000000
# 3 -0.003217 -0.003217 0.012157 0.000000 0.000000 0.000000
# 4 0.000000 0.000000 0.000000 0.021357 0.000000 0.000000
# 5 0.000000 0.000000 0.000000 0.000000 0.021357 0.000000
# 6 0.000000 0.000000 0.000000 0.000000 0.000000 0.046583
#
#
# Mechanical properties :
#
#
# Convention : Reuss Voigt Hill
#
# Bulk Modulus (GPa) = 68.36168 68.69941 68.53055
# Shear Modulus (GPa) = 30.16030 34.03801 32.09916
#
# Velocity S-wave (km/s) = 3.74193 3.97521 3.86034
# Velocity P-wave (km/s) = 7.09977 7.27762 7.18924
#
# Compressibility (1/GPa) = 0.01462808
#
# Stress axis : x y z
#
# Youngs Moduli (GPa) = 64.59666 64.59666 82.25788
#
# Poissons Ratio (x) = 0.50455 0.26463
# Poissons Ratio (y) = 0.50455 0.26463
# Poissons Ratio (z) = 0.20782 0.20782
#
# Static dielectric constant tensor:
#      x y z
#    x 1.398550 0.000000 0.000000 
#    y 0.000000 1.398550 0.000000 
#    z 0.000000 0.000000 1.467570 
# 
# From -- ./inp_files/8723.got.cif
#   From: 2010.05.17/outbox.cif.g08.bks.cpg/sg180_5_cif.got.tgz:8723.got - 2010.05.20 11:43:55.
