data_PCOD9583045
_publ_section_title
;
Structure prediction by ZEFSAII (Michael W. Deem and Ramdas Pophale) SiO2 
 PCOD9583045
Probable space group: P 61 2 2
;
_chemical_formula_sum "Si O2"
_cell_formula_units_Z 66
_cell_length_a 14.349978
_cell_length_b 14.349978
_cell_length_c 17.885887
_cell_angle_alpha 90.000000
_cell_angle_beta 90.000000
_cell_angle_gamma 120.000000
_cell_volume 3189.654071
_symmetry_space_group_name_H-M "P 61 2 2"
_symmetry_group_IT_number 178
_symmetry_cell_setting 'hexagonal'
loop_
_space_group_symop_operation_xyz
x,y,z
x-y,x,1/6+z
-y,x-y,1/3+z
-x,-y,1/2+z
-x+y,-x,2/3+z
y,-x+y,5/6+z
x-y,-y,-z
-x,-x+y,2/3-z
y,x,1/3-z
-y,-x,5/6-z
-x+y,y,1/2-z
x,x-y,1/6-z
loop_
_atom_site_type_symbol
_atom_site_label
_atom_site_fract_x
_atom_site_fract_y
_atom_site_fract_z
Si Si1 0.750723 0.013041 0.858918
Si Si2 0.005429 0.548862 0.663686
Si Si3 0.964056 0.928111 0.250000
Si Si4 0.225568 0.850934 0.210327
Si Si5 0.652030 0.134704 0.937550
Si Si6 0.206239 0.629449 0.237175
O O1 0.840858 0.997642 0.900069
O O2 0.782660 0.098106 0.790440
O O3 0.701387 0.058249 0.919614
O O4 0.672473 0.889463 0.835700
O O5 0.025154 0.512577 0.583334
O O6 0.045975 0.675590 0.661666
O O7 0.085741 0.537778 0.719835
O O8 0.882568 0.462161 0.683761
O O9 0.982978 0.982978 0.166667
O O10 0.254126 0.755630 0.217918
O O11 0.744695 0.255306 0.916667
O O12 0.619064 0.140005 0.021176
O O13 0.304901 0.609801 0.250000
#
# Coordination Sequence:
#
# PCOD9583045 Si02
#       6
#    12  12   6  12  12  12
#     4  12  23  38  70 101 139 176 225 310 379 427
#     4  12  25  44  63  97 143 184 239 289 357 446
#     4  12  24  40  70 108 142 174 240 304 382 446
#     4  12  23  43  65 104 139 181 231 297 370 434
#     4  12  22  40  68  99 134 174 233 302 360 419
#     4  12  26  42  68 100 139 191 240 290 362 440
#
# _framework density 20.6919
#
# number of rings (size 3 to 8) (size 9 to 14) (size 15 to 20)
#    0.000    0.000    8.182    2.182    0.000    3.636 
#    0.000    0.000    2.000    0.000    0.000    0.000 
#    0.000    0.000    0.000    0.000    0.000    0.000 
#
# Total GULP energy -367971.120315 kJ/mol
# GULP energy per Si atom -5575.320005 kJ/mol
# Density = 2.064480 g / cm^3
# Si number density = 20.691900 Si / 1000 Ang^3
#
#
#
# Elastic Constant Matrix: (Units=GPa)
#
#
# Indices 1 2 3 4 5 6 
#
# 1 97.3761 33.7389 19.7297 0.0000 0.0000 0.0000
# 2 33.7389 97.3761 19.7297 0.0000 0.0000 0.0000
# 3 19.7297 19.7297 60.5188 0.0000 0.0000 0.0000
# 4 0.0000 0.0000 0.0000 28.5158 0.0000 0.0000
# 5 0.0000 0.0000 0.0000 0.0000 28.5158 0.0000
# 6 0.0000 0.0000 0.0000 0.0000 0.0000 31.8186
#
#
#
# Elastic Compliance Matrix: (Units=1/GPa)
#
#
# Indices 1 2 3 4 5 6 
#
# 1 0.012085 -0.003629 -0.002757 0.000000 0.000000 0.000000
# 2 -0.003629 0.012085 -0.002757 0.000000 0.000000 0.000000
# 3 -0.002757 -0.002757 0.018321 0.000000 0.000000 0.000000
# 4 0.000000 0.000000 0.000000 0.035068 0.000000 0.000000
# 5 0.000000 0.000000 0.000000 0.000000 0.035068 0.000000
# 6 0.000000 0.000000 0.000000 0.000000 0.000000 0.031428
#
#
# Mechanical properties :
#
#
# Convention : Reuss Voigt Hill
#
# Bulk Modulus (GPa) = 41.31065 44.62974 42.97020
# Shear Modulus (GPa) = 29.34086 29.90823 29.62455
#
# Velocity S-wave (km/s) = 3.76970 3.80598 3.78788
# Velocity P-wave (km/s) = 6.24144 6.39761 6.32001
#
# Compressibility (1/GPa) = 0.02420683
#
# Stress axis : x y z
#
# Youngs Moduli (GPa) = 82.74489 82.74489 54.58105
#
# Poissons Ratio (x) = 0.30026 0.15048
# Poissons Ratio (y) = 0.30026 0.15048
# Poissons Ratio (z) = 0.22812 0.22812
#
# Static dielectric constant tensor:
#      x y z
#    x 1.733570 0.000000 0.000000 
#    y 0.000000 1.733570 0.000000 
#    z 0.000000 0.000000 1.781810 
# 
# From -- ./inp_files/6713.got.cif
#   From: 2010.05.17/outbox.cif.g08.bks.cpg/sg178_4_cif.got.tgz:6713.got - 2010.05.20 11:30:59.
