data_PCOD9583564
_publ_section_title
;
Structure prediction by ZEFSAII (Michael W. Deem and Ramdas Pophale) SiO2 
 PCOD9583564
Probable space group: P 65 2 2
;
_chemical_formula_sum "Si O2"
_cell_formula_units_Z 54
_cell_length_a 12.101272
_cell_length_b 12.101272
_cell_length_c 20.343882
_cell_angle_alpha 90.000000
_cell_angle_beta 90.000000
_cell_angle_gamma 120.000000
_cell_volume 2580.040392
_symmetry_space_group_name_H-M "P 65 2 2"
_symmetry_group_IT_number 179
_symmetry_cell_setting 'hexagonal'
loop_
_space_group_symop_operation_xyz
x,y,z
x-y,x,5/6+z
-y,x-y,2/3+z
-x,-y,1/2+z
-x+y,-x,1/3+z
y,-x+y,1/6+z
x-y,-y,-z
-x,-x+y,1/3-z
y,x,2/3-z
-y,-x,1/6-z
-x+y,y,1/2-z
x,x-y,5/6-z
loop_
_atom_site_type_symbol
_atom_site_label
_atom_site_fract_x
_atom_site_fract_y
_atom_site_fract_z
Si Si1 0.328682 0.881410 0.867898
Si Si2 0.923727 0.315737 0.050186
Si Si3 0.455921 0.131498 0.796768
Si Si4 0.570572 0.776952 0.762777
Si Si5 0.612377 0.306189 0.916667
O O1 0.469801 0.912813 0.888691
O O2 0.222606 0.803994 0.922605
O O3 0.282200 0.790450 0.804398
O O4 0.341962 0.005369 0.830778
O O5 0.805121 0.194880 0.083334
O O6 0.057982 0.343405 0.080107
O O7 0.903187 0.272660 0.973638
O O8 0.553069 0.106138 0.750000
O O9 0.530344 0.203336 0.861871
O O10 0.436820 0.675711 0.794542
#
# Coordination Sequence:
#
# PCOD9583564 Si02
#       5
#    12  12  12  12   6
#     4  12  22  40  66  94 139 176 234 283 363 429
#     4  12  24  38  63 100 140 182 230 293 360 435
#     4  12  24  40  63 102 135 188 224 289 358 432
#     4  12  22  40  63  98 136 183 231 289 361 431
#     4  12  22  38  66 100 142 176 234 290 364 432
#
# _framework density 20.929905000000002
#
# number of rings (size 3 to 8) (size 9 to 14) (size 15 to 20)
#    0.000    0.000    6.667    5.333    0.000    0.889 
#    0.000    0.000    0.000    0.000   28.889    0.000 
#    0.000    0.000    0.000    0.000    0.000    0.000 
#
# Total GULP energy -300893.533289 kJ/mol
# GULP energy per Si atom -5572.102468 kJ/mol
# Density = 2.088227 g / cm^3
# Si number density = 20.929905 Si / 1000 Ang^3
#
#
#
# Elastic Constant Matrix: (Units=GPa)
#
#
# Indices 1 2 3 4 5 6 
#
# 1 93.9901 48.7444 29.6570 0.0000 0.0000 0.0000
# 2 48.7444 93.9901 29.6570 0.0000 0.0000 0.0000
# 3 29.6570 29.6570 62.4887 0.0000 0.0000 0.0000
# 4 0.0000 0.0000 0.0000 38.8963 0.0000 0.0000
# 5 0.0000 0.0000 0.0000 0.0000 38.8963 0.0000
# 6 0.0000 0.0000 0.0000 0.0000 0.0000 22.6228
#
#
#
# Elastic Compliance Matrix: (Units=1/GPa)
#
#
# Indices 1 2 3 4 5 6 
#
# 1 0.015414 -0.006687 -0.004142 0.000000 0.000000 0.000000
# 2 -0.006687 0.015414 -0.004142 0.000000 0.000000 0.000000
# 3 -0.004142 -0.004142 0.019934 0.000000 0.000000 0.000000
# 4 0.000000 0.000000 0.000000 0.025709 0.000000 0.000000
# 5 0.000000 0.000000 0.000000 0.000000 0.025709 0.000000
# 6 0.000000 0.000000 0.000000 0.000000 0.000000 0.044203
#
#
# Mechanical properties :
#
#
# Convention : Reuss Voigt Hill
#
# Bulk Modulus (GPa) = 48.02812 51.84287 49.93549
# Shear Modulus (GPa) = 27.28252 29.57710 28.42981
#
# Velocity S-wave (km/s) = 3.61434 3.76327 3.68956
# Velocity P-wave (km/s) = 6.35727 6.61108 6.48542
#
# Compressibility (1/GPa) = 0.02082114
#
# Stress axis : x y z
#
# Youngs Moduli (GPa) = 64.87446 64.87446 50.16458
#
# Poissons Ratio (x) = 0.43383 0.20778
# Poissons Ratio (y) = 0.43383 0.20778
# Poissons Ratio (z) = 0.26870 0.26870
#
# Static dielectric constant tensor:
#      x y z
#    x 1.841890 0.000000 0.000000 
#    y 0.000000 1.841890 0.000000 
#    z 0.000000 0.000000 1.901760 
# 
# From -- ./inp_files/7410.got.cif
#   From: 2010.05.17/outbox.cif.g08.bks.cpg/sg179_4_cif.got.tgz:7410.got - 2010.05.20 11:37:33.
