data_PCOD9583614
_publ_section_title
;
Structure prediction by ZEFSAII (Michael W. Deem and Ramdas Pophale) SiO2 
 PCOD9583614
Probable space group: P 62 2 2
;
_chemical_formula_sum "Si O2"
_cell_formula_units_Z 84
_cell_length_a 14.133640
_cell_length_b 14.133640
_cell_length_c 26.325695
_cell_angle_alpha 90.000000
_cell_angle_beta 90.000000
_cell_angle_gamma 120.000000
_cell_volume 4554.267412
_symmetry_space_group_name_H-M "P 62 2 2"
_symmetry_group_IT_number 180
_symmetry_cell_setting 'hexagonal'
loop_
_space_group_symop_operation_xyz
x,y,z
x-y,x,1/3+z
-y,x-y,2/3+z
-x,-y,z
-x+y,-x,1/3+z
y,-x+y,2/3+z
x-y,-y,-z
-x,-x+y,1/3-z
y,x,2/3-z
-y,-x,2/3-z
-x+y,y,-z
x,x-y,1/3-z
loop_
_atom_site_type_symbol
_atom_site_label
_atom_site_fract_x
_atom_site_fract_y
_atom_site_fract_z
Si Si1 0.626895 0.597227 0.277739
Si Si2 0.228609 0.695959 0.544734
Si Si3 0.450168 0.184565 0.764329
Si Si4 0.447200 0.129506 0.143535
Si Si5 0.123884 0.538889 0.083461
Si Si6 0.579620 0.353864 0.022232
Si Si7 0.578789 0.955462 0.253526
O O1 0.500000 0.500000 0.278209
O O2 0.649121 0.649121 0.333334
O O3 0.697042 0.543829 0.257359
O O4 0.624867 0.673230 0.233401
O O5 0.184313 0.710573 0.490698
O O6 0.206980 0.571704 0.542913
O O7 0.353571 0.788948 0.551954
O O8 0.439307 0.291056 0.756269
O O9 0.560481 0.219853 0.731340
O O10 0.363786 0.062745 0.745416
O O11 0.398269 0.199135 0.166667
O O12 0.451426 0.069639 0.194356
O O13 0.000000 0.500000 0.096557
O O14 0.152728 0.581541 0.025904
O O15 0.460814 0.302467 0.049593
O O16 0.648657 0.297314 0.000000
O O17 0.500000 0.000000 0.273110
#
# Coordination Sequence:
#
# PCOD9583614 Si02
#       7
#    12  12  12  12  12  12  12
#     4   9  19  36  47  71 109 140 173 235 290 335
#     4  11  20  33  51  69 103 147 178 221 277 334
#     4  10  18  33  52  67  95 145 185 219 266 319
#     4  11  19  29  52  77  95 130 193 227 267 334
#     4  11  23  35  48  78 115 143 189 230 276 341
#     4   9  19  32  49  71  98 134 178 229 269 315
#     4  10  16  31  51  68  94 131 178 228 269 318
#
# _framework density 18.444239
#
# number of rings (size 3 to 8) (size 9 to 14) (size 15 to 20)
#    0.000    1.857    4.286    3.000    2.000    2.286 
#   10.286    0.000    0.000    0.000    0.000    0.000 
#    0.000    2.286    0.000    1.429    0.571    0.000 
#
# Total GULP energy -467611.574738 kJ/mol
# GULP energy per Si atom -5566.804461 kJ/mol
# Density = 1.840226 g / cm^3
# Si number density = 18.444239 Si / 1000 Ang^3
#
#
#
# Elastic Constant Matrix: (Units=GPa)
#
#
# Indices 1 2 3 4 5 6 
#
# 1 82.0884 35.7160 24.6138 0.0000 0.0000 0.0000
# 2 35.7160 82.0884 24.6138 0.0000 0.0000 0.0000
# 3 24.6138 24.6138 123.6349 0.0000 0.0000 0.0000
# 4 0.0000 0.0000 0.0000 16.3591 0.0000 0.0000
# 5 0.0000 0.0000 0.0000 0.0000 16.3591 0.0000
# 6 0.0000 0.0000 0.0000 0.0000 0.0000 23.1862
#
#
#
# Elastic Compliance Matrix: (Units=1/GPa)
#
#
# Indices 1 2 3 4 5 6 
#
# 1 0.015412 -0.006153 -0.001843 0.000000 0.000000 0.000000
# 2 -0.006153 0.015412 -0.001843 0.000000 0.000000 0.000000
# 3 -0.001843 -0.001843 0.008822 0.000000 0.000000 0.000000
# 4 0.000000 0.000000 0.000000 0.061128 0.000000 0.000000
# 5 0.000000 0.000000 0.000000 0.000000 0.061128 0.000000
# 6 0.000000 0.000000 0.000000 0.000000 0.000000 0.043129
#
#
# Mechanical properties :
#
#
# Convention : Reuss Voigt Hill
#
# Bulk Modulus (GPa) = 50.08293 50.85544 50.46918
# Shear Modulus (GPa) = 21.61085 24.70543 23.15814
#
# Velocity S-wave (km/s) = 3.42670 3.66384 3.54725
# Velocity P-wave (km/s) = 6.54744 6.74764 6.64830
#
# Compressibility (1/GPa) = 0.01996688
#
# Stress axis : x y z
#
# Youngs Moduli (GPa) = 64.88568 64.88568 113.34939
#
# Poissons Ratio (x) = 0.39923 0.20894
# Poissons Ratio (y) = 0.39923 0.20894
# Poissons Ratio (z) = 0.11960 0.11960
#
# Static dielectric constant tensor:
#      x y z
#    x 1.734990 0.000000 0.000000 
#    y 0.000000 1.734990 0.000000 
#    z 0.000000 0.000000 1.714190 
# 
# From -- ./inp_files/11419.got.cif
#   From: 2010.05.17/outbox.cif.g08.bks.cpg/sg180_6_cif.got.tgz:11419.got - 2010.05.20 11:43:55.
