data_PCOD9583839
_publ_section_title
;
Structure prediction by ZEFSAII (Michael W. Deem and Ramdas Pophale) SiO2 
 PCOD9583839
Probable space group: P 62 2 2
;
_chemical_formula_sum "Si O2"
_cell_formula_units_Z 42
_cell_length_a 13.765888
_cell_length_b 13.765888
_cell_length_c 12.342771
_cell_angle_alpha 90.000000
_cell_angle_beta 90.000000
_cell_angle_gamma 120.000000
_cell_volume 2025.591037
_symmetry_space_group_name_H-M "P 62 2 2"
_symmetry_group_IT_number 180
_symmetry_cell_setting 'hexagonal'
loop_
_space_group_symop_operation_xyz
x,y,z
x-y,x,1/3+z
-y,x-y,2/3+z
-x,-y,z
-x+y,-x,1/3+z
y,-x+y,2/3+z
x-y,-y,-z
-x,-x+y,1/3-z
y,x,2/3-z
-y,-x,2/3-z
-x+y,y,-z
x,x-y,1/3-z
loop_
_atom_site_type_symbol
_atom_site_label
_atom_site_fract_x
_atom_site_fract_y
_atom_site_fract_z
Si Si1 0.903894 0.807787 0.000000
Si Si2 0.383841 0.343355 0.714798
Si Si3 0.428104 0.714052 0.666667
Si Si4 0.000000 0.000000 0.166667
Si Si5 0.343223 0.486304 0.532183
Si Si6 0.000000 0.500000 0.666667
O O1 0.775341 0.727825 0.970026
O O2 0.969930 0.891256 0.903154
O O3 0.385970 0.385970 0.833334
O O4 0.486602 0.319515 0.719655
O O5 0.378626 0.422812 0.621027
O O6 0.366293 0.605454 0.586942
O O7 0.212546 0.425091 0.500000
O O8 0.406823 0.490559 0.420296
#
# Coordination Sequence:
#
# PCOD9583839 Si02
#       6
#     6  12   6   3  12   3
#     4  10  22  41  67 102 137 187 235 305 354 446
#     4  11  25  45  70 105 141 188 245 301 363 444
#     4  11  25  49  70 104 142 195 244 296 370 442
#     4  10  20  42  64  94 142 186 240 282 374 426
#     4  12  28  47  78 109 147 202 242 317 379 449
#     4  12  26  56  64 116 154 186 266 310 380 454
#
# _framework density 20.734688999999999
#
# number of rings (size 3 to 8) (size 9 to 14) (size 15 to 20)
#    0.000    0.857    4.286    0.857   10.000    1.143 
#    0.000    0.000    0.000    0.000    0.000    0.000 
#    0.000    0.000    0.000    0.000    0.000    0.000 
#
# Total GULP energy -233897.229846 kJ/mol
# GULP energy per Si atom -5568.981663 kJ/mol
# Density = 2.068750 g / cm^3
# Si number density = 20.734689 Si / 1000 Ang^3
#
#
#
# Elastic Constant Matrix: (Units=GPa)
#
#
# Indices 1 2 3 4 5 6 
#
# 1 49.5743 84.9523 47.3778 0.0000 0.0000 0.0000
# 2 84.9523 49.5743 47.3778 0.0000 0.0000 0.0000
# 3 47.3778 47.3778 163.0856 0.0000 0.0000 0.0000
# 4 0.0000 0.0000 0.0000 -62.9200 0.0000 0.0000
# 5 0.0000 0.0000 0.0000 0.0000 -62.9200 0.0000
# 6 0.0000 0.0000 0.0000 0.0000 0.0000 -17.6890
#
#
#
# Elastic Compliance Matrix: (Units=1/GPa)
#
#
# Indices 1 2 3 4 5 6 
#
# 1 -0.009460 0.018806 -0.002715 0.000000 0.000000 0.000000
# 2 0.018806 -0.009460 -0.002715 0.000000 0.000000 0.000000
# 3 -0.002715 -0.002715 0.007709 0.000000 0.000000 0.000000
# 4 0.000000 0.000000 0.000000 -0.015893 0.000000 0.000000
# 5 0.000000 0.000000 0.000000 0.000000 -0.015893 0.000000
# 6 0.000000 0.000000 0.000000 0.000000 0.000000 -0.056532
#
#
# Mechanical properties :
#
#
# Convention : Reuss Voigt Hill
#
# Bulk Modulus (GPa) = 64.34698 69.07222 66.70960
# Shear Modulus (GPa) = -41.28770 -23.20405 -32.24588
#
# Velocity S-wave (km/s) = -4.46717 -3.34891 -3.94784
# Velocity P-wave (km/s) = 2.11976 4.29314 3.38559
#
# Compressibility (1/GPa) = 0.01554074
#
# Stress axis : x y z
#
# Youngs Moduli (GPa) = -105.70638 -105.70638 129.71447
#
# Poissons Ratio (x) = 1.98792 0.35218
# Poissons Ratio (y) = 1.98792 0.35218
# Poissons Ratio (z) = -0.28700 -0.28700
#
# Static dielectric constant tensor:
#      x y z
#    x 1.643930 0.000000 0.000000 
#    y 0.000000 1.643930 0.000000 
#    z 0.000000 0.000000 1.751610 
# 
# From -- ./inp_files/4314.got.cif
#   From: 2010.05.17/outbox.cif.g08.bks.cpg/sg180_3_cif.got.tgz:4314.got - 2010.05.20 11:43:55.
