data_PCOD9583067
_publ_section_title
;
Structure prediction by ZEFSAII (Michael W. Deem and Ramdas Pophale) SiO2 
 PCOD9583067
Probable space group: P 61 2 2
;
_chemical_formula_sum "Si O2"
_cell_formula_units_Z 36
_cell_length_a 6.845740
_cell_length_b 6.845740
_cell_length_c 30.607566
_cell_angle_alpha 90.000000
_cell_angle_beta 90.000000
_cell_angle_gamma 120.000000
_cell_volume 1242.224893
_symmetry_space_group_name_H-M "P 61 2 2"
_symmetry_group_IT_number 178
_symmetry_cell_setting 'hexagonal'
loop_
_space_group_symop_operation_xyz
x,y,z
x-y,x,1/6+z
-y,x-y,1/3+z
-x,-y,1/2+z
-x+y,-x,2/3+z
y,-x+y,5/6+z
x-y,-y,-z
-x,-x+y,2/3-z
y,x,1/3-z
-y,-x,5/6-z
-x+y,y,1/2-z
x,x-y,1/6-z
loop_
_atom_site_type_symbol
_atom_site_label
_atom_site_fract_x
_atom_site_fract_y
_atom_site_fract_z
Si Si1 0.142584 0.835546 0.160446
Si Si2 0.165788 0.384904 0.399511
Si Si3 0.324480 0.564055 0.630419
O O1 0.229457 0.949152 0.113250
O O2 0.244088 0.673789 0.172445
O O3 0.883334 0.663677 0.149354
O O4 0.219869 0.014207 0.200303
O O5 0.398204 0.601797 0.416667
O O6 0.001878 0.459909 0.377378
O O7 0.273669 0.636835 0.583334
#
# Coordination Sequence:
#
# PCOD9583067 Si02
#       3
#    12  12  12
#     4  12  24  58 100 141 202 266 337 423 508 608
#     4  12  29  57 100 149 204 266 342 426 510 618
#     4  12  27  57  99 143 204 265 337 418 512 613
#
# _framework density 28.980262
#
# number of rings (size 3 to 8) (size 9 to 14) (size 15 to 20)
#    0.000    0.000    6.667    2.000    0.000    1.333 
#    6.000    5.000    7.333    0.000    0.000    0.000 
#    0.000    0.000    0.000    0.000    0.000    0.000 
#
# Total GULP energy -202096.177355 kJ/mol
# GULP energy per Si atom -5613.782704 kJ/mol
# Density = 2.891430 g / cm^3
# Si number density = 28.980262 Si / 1000 Ang^3
#
#
#
# Elastic Constant Matrix: (Units=GPa)
#
#
# Indices 1 2 3 4 5 6 
#
# 1 231.1768 104.7064 90.1211 0.0000 0.0000 0.0000
# 2 104.7064 231.1768 90.1211 0.0000 0.0000 0.0000
# 3 90.1211 90.1211 278.6361 0.0000 0.0000 0.0000
# 4 0.0000 0.0000 0.0000 48.1400 0.0000 0.0000
# 5 0.0000 0.0000 0.0000 0.0000 48.1400 0.0000
# 6 0.0000 0.0000 0.0000 0.0000 0.0000 63.2352
#
#
#
# Elastic Compliance Matrix: (Units=1/GPa)
#
#
# Indices 1 2 3 4 5 6 
#
# 1 0.005755 -0.002152 -0.001165 0.000000 0.000000 0.000000
# 2 -0.002152 0.005755 -0.001165 0.000000 0.000000 0.000000
# 3 -0.001165 -0.001165 0.004343 0.000000 0.000000 0.000000
# 4 0.000000 0.000000 0.000000 0.020773 0.000000 0.000000
# 5 0.000000 0.000000 0.000000 0.000000 0.020773 0.000000
# 6 0.000000 0.000000 0.000000 0.000000 0.000000 0.015814
#
#
# Mechanical properties :
#
#
# Convention : Reuss Voigt Hill
#
# Bulk Modulus (GPa) = 145.20327 145.65413 145.42870
# Shear Modulus (GPa) = 59.19096 62.30581 60.74838
#
# Velocity S-wave (km/s) = 4.52426 4.64177 4.58339
# Velocity P-wave (km/s) = 8.80368 8.89365 8.84878
#
# Compressibility (1/GPa) = 0.00688690
#
# Stress axis : x y z
#
# Youngs Moduli (GPa) = 173.76997 173.76997 230.27514
#
# Poissons Ratio (x) = 0.37400 0.26831
# Poissons Ratio (y) = 0.37400 0.26831
# Poissons Ratio (z) = 0.20247 0.20247
#
# Static dielectric constant tensor:
#      x y z
#    x 2.323640 0.000000 0.000000 
#    y 0.000000 2.323640 0.000000 
#    z 0.000000 0.000000 2.362550 
# 
# From -- ./inp_files/9125.got.cif
#   From: 2010.05.17/outbox.cif.g08.bks.cpg/sg178_5_cif.got.tgz:9125.got - 2010.05.20 11:30:59.
