data_PCOD9583351
_publ_section_title
;
Structure prediction by ZEFSAII (Michael W. Deem and Ramdas Pophale) SiO2 
 PCOD9583351
Probable space group: P 65 2 2
;
_chemical_formula_sum "Si O2"
_cell_formula_units_Z 60
_cell_length_a 15.096769
_cell_length_b 15.096769
_cell_length_c 15.388387
_cell_angle_alpha 90.000000
_cell_angle_beta 90.000000
_cell_angle_gamma 120.000000
_cell_volume 3037.328401
_symmetry_space_group_name_H-M "P 65 2 2"
_symmetry_group_IT_number 179
_symmetry_cell_setting 'hexagonal'
loop_
_space_group_symop_operation_xyz
x,y,z
x-y,x,5/6+z
-y,x-y,2/3+z
-x,-y,1/2+z
-x+y,-x,1/3+z
y,-x+y,1/6+z
x-y,-y,-z
-x,-x+y,1/3-z
y,x,2/3-z
-y,-x,1/6-z
-x+y,y,1/2-z
x,x-y,5/6-z
loop_
_atom_site_type_symbol
_atom_site_label
_atom_site_fract_x
_atom_site_fract_y
_atom_site_fract_z
Si Si1 0.294917 0.705084 0.583334
Si Si2 0.530039 0.624419 0.514401
Si Si3 0.136073 0.257154 0.346512
Si Si4 0.052747 0.568678 0.572184
Si Si5 0.413596 0.706798 0.416667
Si Si6 0.940142 0.679320 0.487200
O O1 0.172803 0.644042 0.575894
O O2 0.342296 0.684188 0.498831
O O3 0.439172 0.560829 0.583334
O O4 0.555326 0.539262 0.477156
O O5 0.484561 0.658162 0.435756
O O6 0.616690 0.722732 0.565589
O O7 0.174411 0.174411 0.333334
O O8 0.153307 0.306613 0.250000
O O9 0.198885 0.325590 0.428975
O O10 0.017482 0.218275 0.364275
O O11 0.000000 0.543774 0.666667
O O12 0.005418 0.627773 0.520038
#
# Coordination Sequence:
#
# PCOD9583351 Si02
#       6
#     6  12  12  12   6  12
#     4  12  28  38  67  88 128 171 222 268 342 396
#     4  10  23  42  59  88 130 166 219 272 328 404
#     4   9  18  34  57  94 123 151 205 263 328 382
#     4  11  23  39  56  87 125 165 214 270 320 398
#     4  12  24  46  63  90 124 179 222 278 336 404
#     4  10  22  35  60  91 126 162 207 263 335 388
#
# _framework density 19.754203
#
# number of rings (size 3 to 8) (size 9 to 14) (size 15 to 20)
#    0.000    1.600    3.000    1.800   11.200    1.600 
#    0.000    0.000    0.000    0.000   54.600    0.000 
#    0.000    0.000    0.000    0.000    0.000    0.000 
#
# Total GULP energy -334419.673005 kJ/mol
# GULP energy per Si atom -5573.661217 kJ/mol
# Density = 1.970924 g / cm^3
# Si number density = 19.754203 Si / 1000 Ang^3
#
#
#
# Elastic Constant Matrix: (Units=GPa)
#
#
# Indices 1 2 3 4 5 6 
#
# 1 65.2778 35.0440 44.9237 0.0000 0.0000 0.0000
# 2 35.0440 65.2778 44.9237 0.0000 0.0000 0.0000
# 3 44.9237 44.9237 113.0063 0.0000 0.0000 0.0000
# 4 0.0000 0.0000 0.0000 34.2817 0.0000 0.0000
# 5 0.0000 0.0000 0.0000 0.0000 34.2817 0.0000
# 6 0.0000 0.0000 0.0000 0.0000 0.0000 15.1169
#
#
#
# Elastic Compliance Matrix: (Units=1/GPa)
#
#
# Indices 1 2 3 4 5 6 
#
# 1 0.024277 -0.008798 -0.006153 0.000000 0.000000 0.000000
# 2 -0.008798 0.024277 -0.006153 0.000000 0.000000 0.000000
# 3 -0.006153 -0.006153 0.013741 0.000000 0.000000 0.000000
# 4 0.000000 0.000000 0.000000 0.029170 0.000000 0.000000
# 5 0.000000 0.000000 0.000000 0.000000 0.029170 0.000000
# 6 0.000000 0.000000 0.000000 0.000000 0.000000 0.066151
#
#
# Mechanical properties :
#
#
# Convention : Reuss Voigt Hill
#
# Bulk Modulus (GPa) = 49.78682 54.81610 52.30146
# Shear Modulus (GPa) = 21.21405 24.64739 22.93072
#
# Velocity S-wave (km/s) = 3.28060 3.53612 3.41075
# Velocity P-wave (km/s) = 6.29346 6.66944 6.48418
#
# Compressibility (1/GPa) = 0.02008564
#
# Stress axis : x y z
#
# Youngs Moduli (GPa) = 41.19086 41.19086 72.77295
#
# Poissons Ratio (x) = 0.36241 0.44780
# Poissons Ratio (y) = 0.36241 0.44780
# Poissons Ratio (z) = 0.25346 0.25346
#
# Static dielectric constant tensor:
#      x y z
#    x 1.730290 0.000000 0.000000 
#    y 0.000000 1.730290 0.000000 
#    z 0.000000 0.000000 1.756290 
# 
# From -- ./inp_files/5854.got.cif
#   From: 2010.05.17/outbox.cif.g08.bks.cpg/sg179_3_cif.got.tgz:5854.got - 2010.05.20 11:37:33.
