data_PCOD9583260
_publ_section_title
;
Structure prediction by ZEFSAII (Michael W. Deem and Ramdas Pophale) SiO2 
 PCOD9583260
Probable space group: P 65 2 2
;
_chemical_formula_sum "Si O2"
_cell_formula_units_Z 54
_cell_length_a 16.388003
_cell_length_b 16.388003
_cell_length_c 11.205008
_cell_angle_alpha 90.000000
_cell_angle_beta 90.000000
_cell_angle_gamma 120.000000
_cell_volume 2606.122779
_symmetry_space_group_name_H-M "P 65 2 2"
_symmetry_group_IT_number 179
_symmetry_cell_setting 'hexagonal'
loop_
_space_group_symop_operation_xyz
x,y,z
x-y,x,5/6+z
-y,x-y,2/3+z
-x,-y,1/2+z
-x+y,-x,1/3+z
y,-x+y,1/6+z
x-y,-y,-z
-x,-x+y,1/3-z
y,x,2/3-z
-y,-x,1/6-z
-x+y,y,1/2-z
x,x-y,5/6-z
loop_
_atom_site_type_symbol
_atom_site_label
_atom_site_fract_x
_atom_site_fract_y
_atom_site_fract_z
Si Si1 0.401110 0.000000 0.000000
Si Si2 0.324637 0.532016 0.860338
Si Si3 0.173825 0.086913 0.916667
Si Si4 0.609517 0.826493 0.123196
Si Si5 0.269515 0.730486 0.583334
Si Si6 0.280765 0.000414 0.774733
O O1 0.395338 0.900260 0.010386
O O2 0.345913 0.996976 0.879617
O O3 0.279414 0.558828 0.750000
O O4 0.388638 0.621181 0.942179
O O5 0.236008 0.447318 0.927987
O O6 0.111970 0.111970 0.833334
O O7 0.234865 0.057574 0.834352
O O8 0.661064 0.935508 0.162653
O O9 0.684706 0.794007 0.084433
O O10 0.529861 0.792119 0.022696
#
# Coordination Sequence:
#
# PCOD9583260 Si02
#       6
#     6  12   6  12   6  12
#     4  10  20  36  68 104 122 152 220 292 344 394
#     4  11  21  41  68  95 125 168 226 292 342 399
#     4  12  20  36  67 102 132 166 215 276 332 400
#     4  11  24  41  65  98 131 179 218 282 345 421
#     4  12  28  44  57  86 140 186 229 270 350 410
#     4  11  20  38  68  98 129 163 218 279 344 399
#
# _framework density 20.720434999999998
#
# number of rings (size 3 to 8) (size 9 to 14) (size 15 to 20)
#    0.000    0.889    5.556    3.333    0.000    2.667 
#    0.000    3.333    0.000    0.000    0.000    0.000 
#    0.000    0.000    0.000    0.000    0.000    0.000 
#
# Total GULP energy -301428.533917 kJ/mol
# GULP energy per Si atom -5582.009887 kJ/mol
# Density = 2.067327 g / cm^3
# Si number density = 20.720435 Si / 1000 Ang^3
#
#
#
# Elastic Constant Matrix: (Units=GPa)
#
#
# Indices 1 2 3 4 5 6 
#
# 1 97.6274 27.0396 25.7419 0.0000 0.0000 0.0000
# 2 27.0396 97.6274 25.7419 0.0000 0.0000 0.0000
# 3 25.7419 25.7419 70.4125 0.0000 0.0000 0.0000
# 4 0.0000 0.0000 0.0000 36.2724 0.0000 0.0000
# 5 0.0000 0.0000 0.0000 0.0000 36.2724 0.0000
# 6 0.0000 0.0000 0.0000 0.0000 0.0000 35.2939
#
#
#
# Elastic Compliance Matrix: (Units=1/GPa)
#
#
# Indices 1 2 3 4 5 6 
#
# 1 0.011807 -0.002359 -0.003454 0.000000 0.000000 0.000000
# 2 -0.002359 0.011807 -0.003454 0.000000 0.000000 0.000000
# 3 -0.003454 -0.003454 0.016727 0.000000 0.000000 0.000000
# 4 0.000000 0.000000 0.000000 0.027569 0.000000 0.000000
# 5 0.000000 0.000000 0.000000 0.000000 0.027569 0.000000
# 6 0.000000 0.000000 0.000000 0.000000 0.000000 0.028333
#
#
# Mechanical properties :
#
#
# Convention : Reuss Voigt Hill
#
# Bulk Modulus (GPa) = 45.85662 46.96821 46.41241
# Shear Modulus (GPa) = 33.41850 34.04402 33.73126
#
# Velocity S-wave (km/s) = 4.02036 4.05781 4.03913
# Velocity P-wave (km/s) = 6.61288 6.68365 6.64836
#
# Compressibility (1/GPa) = 0.02180710
#
# Stress axis : x y z
#
# Youngs Moduli (GPa) = 84.69371 84.69371 59.78183
#
# Poissons Ratio (x) = 0.19983 0.20649
# Poissons Ratio (y) = 0.19983 0.20649
# Poissons Ratio (z) = 0.29253 0.29253
#
# Static dielectric constant tensor:
#      x y z
#    x 1.737080 0.000000 0.000000 
#    y 0.000000 1.737080 0.000000 
#    z 0.000000 0.000000 1.755690 
# 
# From -- ./inp_files/4583.got.cif
#   From: 2010.05.17/outbox.cif.g08.bks.cpg/sg179_3_cif.got.tgz:4583.got - 2010.05.20 11:37:33.
