data_PCOD9583195
_publ_section_title
;
Structure prediction by ZEFSAII (Michael W. Deem and Ramdas Pophale) SiO2 
 PCOD9583195
Probable space group: P 65 2 2
;
_chemical_formula_sum "Si O2"
_cell_formula_units_Z 66
_cell_length_a 26.983017
_cell_length_b 26.983017
_cell_length_c 5.592107
_cell_angle_alpha 90.000000
_cell_angle_beta 90.000000
_cell_angle_gamma 120.000000
_cell_volume 3526.039055
_symmetry_space_group_name_H-M "P 65 2 2"
_symmetry_group_IT_number 179
_symmetry_cell_setting 'hexagonal'
loop_
_space_group_symop_operation_xyz
x,y,z
x-y,x,5/6+z
-y,x-y,2/3+z
-x,-y,1/2+z
-x+y,-x,1/3+z
y,-x+y,1/6+z
x-y,-y,-z
-x,-x+y,1/3-z
y,x,2/3-z
-y,-x,1/6-z
-x+y,y,1/2-z
x,x-y,5/6-z
loop_
_atom_site_type_symbol
_atom_site_label
_atom_site_fract_x
_atom_site_fract_y
_atom_site_fract_z
Si Si1 0.935918 0.064083 0.083334
Si Si2 0.223825 0.157905 0.746987
Si Si3 0.619155 0.916809 0.184980
Si Si4 0.658364 0.914800 0.687638
Si Si5 0.780917 0.562561 0.999622
Si Si6 0.537430 0.573161 0.583518
O O1 0.892978 0.063653 0.279422
O O2 0.000000 0.089297 0.166667
O O3 0.198251 0.198251 0.833334
O O4 0.280608 0.200294 0.600687
O O5 0.242757 0.121379 0.916667
O O6 0.658836 0.939145 0.421592
O O7 0.599933 0.850204 0.167084
O O8 0.564481 0.923594 0.238002
O O9 0.643838 0.940347 0.920105
O O10 0.607409 0.848819 0.669636
O O11 0.764642 0.529283 0.750000
O O12 0.764847 0.529693 0.250000
O O13 0.559600 0.559600 0.333334
O O14 0.468977 0.531024 0.583334
O O15 0.557565 0.557565 0.833334
#
# Coordination Sequence:
#
# PCOD9583195 Si02
#       6
#     6  12  12  12  12  12
#     4  12  28  48  70  86 102 138 190 248 310 390
#     4  12  26  43  62  85 112 139 179 233 302 379
#     4  10  19  35  53  79 108 148 186 219 265 333
#     4  10  22  35  58  84 117 146 175 225 292 355
#     4   8  15  28  46  71 100 135 168 202 261 322
#     4  10  21  36  53  74 106 149 195 241 274 300
#
# _framework density 18.717887999999999
#
# number of rings (size 3 to 8) (size 9 to 14) (size 15 to 20)
#    0.000    1.818    1.818    2.727    6.364    2.909 
#    0.000    0.000    0.000    0.000    0.000    0.000 
#    0.000    0.000    0.000   44.182    0.000   12.182 
#
# Total GULP energy -367469.509621 kJ/mol
# GULP energy per Si atom -5567.719843 kJ/mol
# Density = 1.867529 g / cm^3
# Si number density = 18.717888 Si / 1000 Ang^3
#
#
#
# Elastic Constant Matrix: (Units=GPa)
#
#
# Indices 1 2 3 4 5 6 
#
# 1 27.6616 43.3990 24.0607 0.0000 0.0000 0.0000
# 2 43.3990 27.6616 24.0607 0.0000 0.0000 0.0000
# 3 24.0607 24.0607 160.3961 0.0000 0.0000 0.0000
# 4 0.0000 0.0000 0.0000 17.0556 0.0000 0.0000
# 5 0.0000 0.0000 0.0000 0.0000 17.0556 0.0000
# 6 0.0000 0.0000 0.0000 0.0000 0.0000 -7.8687
#
#
#
# Elastic Compliance Matrix: (Units=1/GPa)
#
#
# Indices 1 2 3 4 5 6 
#
# 1 -0.023940 0.039603 -0.002350 0.000000 0.000000 0.000000
# 2 0.039603 -0.023940 -0.002350 0.000000 0.000000 0.000000
# 3 -0.002350 -0.002350 0.006940 0.000000 0.000000 0.000000
# 4 0.000000 0.000000 0.000000 0.058632 0.000000 0.000000
# 5 0.000000 0.000000 0.000000 0.000000 0.058632 0.000000
# 6 0.000000 0.000000 0.000000 0.000000 0.000000 -0.127086
#
#
# Mechanical properties :
#
#
# Convention : Reuss Voigt Hill
#
# Bulk Modulus (GPa) = 34.64026 44.30667 39.47346
# Shear Modulus (GPa) = -45.06616 13.52845 -15.76886
#
# Velocity S-wave (km/s) = -4.91211 2.69133 -2.90565
# Velocity P-wave (km/s) = 3.69121 5.77753 3.14283
#
# Compressibility (1/GPa) = 0.02886814
#
# Stress axis : x y z
#
# Youngs Moduli (GPa) = -41.77159 -41.77159 144.10254
#
# Poissons Ratio (x) = 1.65430 0.33859
# Poissons Ratio (y) = 1.65430 0.33859
# Poissons Ratio (z) = -0.09815 -0.09815
#
# Static dielectric constant tensor:
#      x y z
#    x 1.607750 0.000000 0.000000 
#    y 0.000000 1.607750 0.000000 
#    z 0.000000 0.000000 1.887640 
# 
# From -- ./inp_files/1558.got.cif
#   From: 2010.05.17/outbox.cif.g08.bks.cpg/sg179_1_cif.got.tgz:1558.got - 2010.05.20 11:37:33.
