data_PCOD9583285
_publ_section_title
;
Structure prediction by ZEFSAII (Michael W. Deem and Ramdas Pophale) SiO2 
 PCOD9583285
Probable space group: P 65 2 2
;
_chemical_formula_sum "Si O2"
_cell_formula_units_Z 54
_cell_length_a 13.906277
_cell_length_b 13.906277
_cell_length_c 14.293732
_cell_angle_alpha 90.000000
_cell_angle_beta 90.000000
_cell_angle_gamma 120.000000
_cell_volume 2393.855979
_symmetry_space_group_name_H-M "P 65 2 2"
_symmetry_group_IT_number 179
_symmetry_cell_setting 'hexagonal'
loop_
_space_group_symop_operation_xyz
x,y,z
x-y,x,5/6+z
-y,x-y,2/3+z
-x,-y,1/2+z
-x+y,-x,1/3+z
y,-x+y,1/6+z
x-y,-y,-z
-x,-x+y,1/3-z
y,x,2/3-z
-y,-x,1/6-z
-x+y,y,1/2-z
x,x-y,5/6-z
loop_
_atom_site_type_symbol
_atom_site_label
_atom_site_fract_x
_atom_site_fract_y
_atom_site_fract_z
Si Si1 0.812996 0.664646 0.490862
Si Si2 0.494078 0.004261 0.359867
Si Si3 0.000000 0.352856 0.666667
Si Si4 0.425578 0.684752 0.177561
Si Si5 0.303001 0.051709 0.358221
O O1 0.754774 0.676427 0.397451
O O2 0.798071 0.541978 0.489188
O O3 0.748462 0.660431 0.584914
O O4 0.939776 0.754755 0.513080
O O5 0.486962 0.973923 0.250000
O O6 0.543166 0.943926 0.425911
O O7 0.592939 0.132826 0.366718
O O8 0.389828 0.015471 0.394833
O O9 0.344831 0.689662 0.250000
O O10 0.356969 0.643032 0.083334
O O11 0.303106 0.151553 0.416667
#
# Coordination Sequence:
#
# PCOD9583285 Si02
#       5
#    12  12   6  12  12
#     4  11  26  45  69 105 149 191 257 323 400 482
#     4  10  20  41  71 104 150 186 248 302 381 475
#     4  10  22  44  72 110 146 198 228 334 412 460
#     4  10  20  40  64 102 147 184 234 300 368 461
#     4  12  25  46  74 107 140 204 269 332 390 471
#
# _framework density 22.557749000000001
#
# number of rings (size 3 to 8) (size 9 to 14) (size 15 to 20)
#    0.000    1.333    6.667    1.333    3.111    3.556 
#    8.000    0.000    9.778    0.000    0.000    0.000 
#    0.000    0.000    0.000    0.000    0.000    0.000 
#
# Total GULP energy -301219.876676 kJ/mol
# GULP energy per Si atom -5578.145864 kJ/mol
# Density = 2.250641 g / cm^3
# Si number density = 22.557749 Si / 1000 Ang^3
#
#
#
# Elastic Constant Matrix: (Units=GPa)
#
#
# Indices 1 2 3 4 5 6 
#
# 1 83.7954 51.6677 43.7913 0.0000 0.0000 0.0000
# 2 51.6677 83.7954 43.7913 0.0000 0.0000 0.0000
# 3 43.7913 43.7913 128.3871 0.0000 0.0000 0.0000
# 4 0.0000 0.0000 0.0000 -15.3013 0.0000 0.0000
# 5 0.0000 0.0000 0.0000 0.0000 -15.3013 0.0000
# 6 0.0000 0.0000 0.0000 0.0000 0.0000 16.0638
#
#
#
# Elastic Compliance Matrix: (Units=1/GPa)
#
#
# Indices 1 2 3 4 5 6 
#
# 1 0.020298 -0.010828 -0.003230 0.000000 0.000000 0.000000
# 2 -0.010828 0.020298 -0.003230 0.000000 0.000000 0.000000
# 3 -0.003230 -0.003230 0.009993 0.000000 0.000000 0.000000
# 4 0.000000 0.000000 0.000000 -0.065354 0.000000 0.000000
# 5 0.000000 0.000000 0.000000 0.000000 -0.065354 0.000000
# 6 0.000000 0.000000 0.000000 0.000000 0.000000 0.062252
#
#
# Mechanical properties :
#
#
# Convention : Reuss Voigt Hill
#
# Bulk Modulus (GPa) = 62.45094 63.83093 63.14093
# Shear Modulus (GPa) = 226.78415 7.54072 117.16244
#
# Velocity S-wave (km/s) = 10.03759 1.83033 7.21468
# Velocity P-wave (km/s) = 12.73117 5.72930 9.87187
#
# Compressibility (1/GPa) = 0.01601257
#
# Stress axis : x y z
#
# Youngs Moduli (GPa) = 49.26535 49.26535 100.07422
#
# Poissons Ratio (x) = 0.53343 0.32327
# Poissons Ratio (y) = 0.53343 0.32327
# Poissons Ratio (z) = 0.15914 0.15914
#
# Static dielectric constant tensor:
#      x y z
#    x 1.919620 0.000000 0.000000 
#    y 0.000000 1.919620 0.000000 
#    z 0.000000 0.000000 1.815150 
# 
# From -- ./inp_files/5697.got.cif
#   From: 2010.05.17/outbox.cif.g08.bks.cpg/sg179_3_cif.got.tgz:5697.got - 2010.05.20 11:37:33.
