data_PCOD9583686
_publ_section_title
;
Structure prediction by ZEFSAII (Michael W. Deem and Ramdas Pophale) SiO2 
 PCOD9583686
Probable space group: P 62 2 2
;
_chemical_formula_sum "Si O2"
_cell_formula_units_Z 60
_cell_length_a 29.872971
_cell_length_b 29.872971
_cell_length_c 5.045923
_cell_angle_alpha 90.000000
_cell_angle_beta 90.000000
_cell_angle_gamma 120.000000
_cell_volume 3899.672045
_symmetry_space_group_name_H-M "P 62 2 2"
_symmetry_group_IT_number 180
_symmetry_cell_setting 'hexagonal'
loop_
_space_group_symop_operation_xyz
x,y,z
x-y,x,1/3+z
-y,x-y,2/3+z
-x,-y,z
-x+y,-x,1/3+z
y,-x+y,2/3+z
x-y,-y,-z
-x,-x+y,1/3-z
y,x,2/3-z
-y,-x,2/3-z
-x+y,y,-z
x,x-y,1/3-z
loop_
_atom_site_type_symbol
_atom_site_label
_atom_site_fract_x
_atom_site_fract_y
_atom_site_fract_z
Si Si1 0.493427 0.776879 0.417498
Si Si2 0.320309 0.379118 0.793726
Si Si3 0.601046 0.455006 0.575978
Si Si4 0.941124 0.382445 0.633632
Si Si5 0.838939 0.618114 0.244036
O O1 0.477508 0.738754 0.666667
O O2 0.469556 0.813604 0.371292
O O3 0.555597 0.813998 0.429599
O O4 0.481411 0.740706 0.166667
O O5 0.334758 0.334758 0.833334
O O6 0.339447 0.402184 0.503364
O O7 0.260450 0.361314 0.797763
O O8 0.355866 0.423990 0.010352
O O9 0.585635 0.414366 0.333334
O O10 0.603343 0.503027 0.413795
O O11 0.563382 0.436619 0.833334
O O12 0.000000 0.429400 0.666667
O O13 0.815074 0.630148 0.500000
O O14 0.816999 0.633997 0.000000
#
# Coordination Sequence:
#
# PCOD9583686 Si02
#       5
#    12  12  12  12  12
#     4  10  21  36  57  75  95 115 146 194 244 279
#     4  10  19  33  53  73 106 138 159 191 242 289
#     4  12  24  37  58  79 103 123 158 194 228 292
#     4  10  21  36  52  73 105 137 160 185 223 285
#     4  10  19  30  52  77  97 121 162 205 232 269
#
# _framework density 15.385909
#
# number of rings (size 3 to 8) (size 9 to 14) (size 15 to 20)
#    0.000    1.600    2.000    3.600    5.600    0.400 
#    0.000    1.000    0.000    6.000    0.000    0.000 
#    0.000    0.000    0.000    0.000    0.000    0.000 
#
# Total GULP energy -334518.578632 kJ/mol
# GULP energy per Si atom -5575.309644 kJ/mol
# Density = 1.535089 g / cm^3
# Si number density = 15.385909 Si / 1000 Ang^3
#
#
#
# Elastic Constant Matrix: (Units=GPa)
#
#
# Indices 1 2 3 4 5 6 
#
# 1 70.9570 45.1726 23.9929 0.0000 0.0000 0.0000
# 2 45.1726 70.9570 23.9929 0.0000 0.0000 0.0000
# 3 23.9929 23.9929 76.2696 0.0000 0.0000 0.0000
# 4 0.0000 0.0000 0.0000 -6.2726 0.0000 0.0000
# 5 0.0000 0.0000 0.0000 0.0000 -6.2726 0.0000
# 6 0.0000 0.0000 0.0000 0.0000 0.0000 12.8922
#
#
#
# Elastic Compliance Matrix: (Units=1/GPa)
#
#
# Indices 1 2 3 4 5 6 
#
# 1 0.024340 -0.014443 -0.003114 0.000000 0.000000 0.000000
# 2 -0.014443 0.024340 -0.003114 0.000000 0.000000 0.000000
# 3 -0.003114 -0.003114 0.015070 0.000000 0.000000 0.000000
# 4 0.000000 0.000000 0.000000 -0.159422 0.000000 0.000000
# 5 0.000000 0.000000 0.000000 0.000000 -0.159422 0.000000
# 6 0.000000 0.000000 0.000000 0.000000 0.000000 0.077566
#
#
# Mechanical properties :
#
#
# Convention : Reuss Voigt Hill
#
# Bulk Modulus (GPa) = 44.62054 44.94450 44.78252
# Shear Modulus (GPa) = -38.84480 8.40440 -15.22020
#
# Velocity S-wave (km/s) = -5.03009 2.33971 -3.14861
# Velocity P-wave (km/s) = 2.16145 6.04764 3.99387
#
# Compressibility (1/GPa) = 0.02241120
#
# Stress axis : x y z
#
# Youngs Moduli (GPa) = 41.08405 41.08405 66.35549
#
# Poissons Ratio (x) = 0.59336 0.20660
# Poissons Ratio (y) = 0.59336 0.20660
# Poissons Ratio (z) = 0.12792 0.12792
#
# Static dielectric constant tensor:
#      x y z
#    x 1.496300 0.000000 0.000000 
#    y 0.000000 1.496300 0.000000 
#    z 0.000000 0.000000 1.526150 
# 
# From -- ./inp_files/1468.got.cif
#   From: 2010.05.17/outbox.cif.g08.bks.cpg/sg180_1_cif.got.tgz:1468.got - 2010.05.20 11:43:55.
