data_PCOD9583538
_publ_section_title
;
Structure prediction by ZEFSAII (Michael W. Deem and Ramdas Pophale) SiO2 
 PCOD9583538
Probable space group: P 65 2 2
;
_chemical_formula_sum "Si O2"
_cell_formula_units_Z 48
_cell_length_a 13.452864
_cell_length_b 13.452864
_cell_length_c 13.904523
_cell_angle_alpha 90.000000
_cell_angle_beta 90.000000
_cell_angle_gamma 120.000000
_cell_volume 2179.296042
_symmetry_space_group_name_H-M "P 65 2 2"
_symmetry_group_IT_number 179
_symmetry_cell_setting 'hexagonal'
loop_
_space_group_symop_operation_xyz
x,y,z
x-y,x,5/6+z
-y,x-y,2/3+z
-x,-y,1/2+z
-x+y,-x,1/3+z
y,-x+y,1/6+z
x-y,-y,-z
-x,-x+y,1/3-z
y,x,2/3-z
-y,-x,1/6-z
-x+y,y,1/2-z
x,x-y,5/6-z
loop_
_atom_site_type_symbol
_atom_site_label
_atom_site_fract_x
_atom_site_fract_y
_atom_site_fract_z
Si Si1 0.791107 0.582213 0.750000
Si Si2 0.685253 0.720244 0.084725
Si Si3 0.449658 0.550343 0.583334
Si Si4 0.421549 0.864636 0.030080
Si Si5 0.663256 0.875134 0.548110
O O1 0.769083 0.665691 0.680406
O O2 0.678489 0.494978 0.810848
O O3 0.605021 0.585067 0.080810
O O4 0.803562 0.729431 0.122507
O O5 0.645466 0.768214 0.171781
O O6 0.421470 0.579262 0.477765
O O7 0.292713 0.828611 0.995281
O O8 0.490236 0.000000 0.000000
O O9 0.738407 0.000000 0.500000
#
# Coordination Sequence:
#
# PCOD9583538 Si02
#       5
#     6  12   6  12  12
#     4  12  26  45  74 114 154 190 249 324 398 458
#     4  12  24  42  74 103 148 195 245 311 388 453
#     4  12  22  43  70 104 144 186 247 308 380 468
#     4  11  23  45  71 103 144 193 250 311 385 458
#     4  11  24  44  72 100 141 199 254 309 374 464
#
# _framework density 22.025461
#
# number of rings (size 3 to 8) (size 9 to 14) (size 15 to 20)
#    0.000    0.500    7.500    2.250    0.000    1.000 
#    0.000    5.000   11.000    0.000    0.000    0.000 
#    0.000    0.000    0.000    0.000    0.000    0.000 
#
# Total GULP energy -267820.041563 kJ/mol
# GULP energy per Si atom -5579.584199 kJ/mol
# Density = 2.197533 g / cm^3
# Si number density = 22.025461 Si / 1000 Ang^3
#
#
#
# Elastic Constant Matrix: (Units=GPa)
#
#
# Indices 1 2 3 4 5 6 
#
# 1 80.8891 36.3030 32.6266 0.0000 0.0000 0.0000
# 2 36.3030 80.8891 32.6266 0.0000 0.0000 0.0000
# 3 32.6266 32.6266 167.1956 0.0000 0.0000 0.0000
# 4 0.0000 0.0000 0.0000 8.5085 0.0000 0.0000
# 5 0.0000 0.0000 0.0000 0.0000 8.5085 0.0000
# 6 0.0000 0.0000 0.0000 0.0000 0.0000 22.2930
#
#
#
# Elastic Compliance Matrix: (Units=1/GPa)
#
#
# Indices 1 2 3 4 5 6 
#
# 1 0.016001 -0.006428 -0.001868 0.000000 0.000000 0.000000
# 2 -0.006428 0.016001 -0.001868 0.000000 0.000000 0.000000
# 3 -0.001868 -0.001868 0.006710 0.000000 0.000000 0.000000
# 4 0.000000 0.000000 0.000000 0.117529 0.000000 0.000000
# 5 0.000000 0.000000 0.000000 0.000000 0.117529 0.000000
# 6 0.000000 0.000000 0.000000 0.000000 0.000000 0.044857
#
#
# Mechanical properties :
#
#
# Convention : Reuss Voigt Hill
#
# Bulk Modulus (GPa) = 54.39510 59.12067 56.75788
# Shear Modulus (GPa) = 14.48928 23.02320 18.75624
#
# Velocity S-wave (km/s) = 2.56763 3.23662 2.92133
# Velocity P-wave (km/s) = 5.79140 6.39279 6.09952
#
# Compressibility (1/GPa) = 0.01838401
#
# Stress axis : x y z
#
# Youngs Moduli (GPa) = 62.49670 62.49670 149.02895
#
# Poissons Ratio (x) = 0.40171 0.27840
# Poissons Ratio (y) = 0.40171 0.27840
# Poissons Ratio (z) = 0.11675 0.11675
#
# Static dielectric constant tensor:
#      x y z
#    x 1.876490 0.000000 0.000000 
#    y 0.000000 1.876490 0.000000 
#    z 0.000000 0.000000 1.976500 
# 
# From -- ./inp_files/4282.got.cif
#   From: 2010.05.17/outbox.cif.g08.bks.cpg/sg179_3_cif.got.tgz:4282.got - 2010.05.20 11:37:33.
