data_PCOD9583728
_publ_section_title
;
Structure prediction by ZEFSAII (Michael W. Deem and Ramdas Pophale) SiO2 
 PCOD9583728
Probable space group: P 62 2 2
;
_chemical_formula_sum "Si O2"
_cell_formula_units_Z 39
_cell_length_a 8.053670
_cell_length_b 8.053670
_cell_length_c 26.890780
_cell_angle_alpha 90.000000
_cell_angle_beta 90.000000
_cell_angle_gamma 120.000000
_cell_volume 1510.503348
_symmetry_space_group_name_H-M "P 62 2 2"
_symmetry_group_IT_number 180
_symmetry_cell_setting 'hexagonal'
loop_
_space_group_symop_operation_xyz
x,y,z
x-y,x,1/3+z
-y,x-y,2/3+z
-x,-y,z
-x+y,-x,1/3+z
y,-x+y,2/3+z
x-y,-y,-z
-x,-x+y,1/3-z
y,x,2/3-z
-y,-x,2/3-z
-x+y,y,-z
x,x-y,1/3-z
loop_
_atom_site_type_symbol
_atom_site_label
_atom_site_fract_x
_atom_site_fract_y
_atom_site_fract_z
Si Si1 0.500000 0.500000 0.333334
Si Si2 0.226919 0.786294 0.913857
Si Si3 0.784948 0.561889 0.059633
Si Si4 0.770072 0.906317 0.449686
O O1 0.442543 0.320063 0.299370
O O2 0.296254 0.631425 0.907384
O O3 0.000005 0.675623 0.923250
O O4 0.292603 0.975009 0.880052
O O5 0.007198 0.705006 0.073092
O O6 0.764112 0.528224 0.000000
O O7 0.750486 0.000000 0.500000
O O8 0.000000 0.000000 0.442273
#
# Coordination Sequence:
#
# PCOD9583728 Si02
#       4
#     3  12  12  12
#     4  12  20  36  54  96 130 156 216 294 348 420
#     4  10  21  34  59  92 123 166 215 276 348 409
#     4  10  19  37  61  91 123 162 220 284 339 415
#     4   9  19  38  61  87 128 179 225 272 344 433
#
# _framework density 25.819208
#
# number of rings (size 3 to 8) (size 9 to 14) (size 15 to 20)
#    0.000    2.154    1.538    1.846    0.000    4.308 
#    0.000   12.308    0.000    1.846    0.000    0.000 
#    0.000    0.000    0.000    0.000    0.000    0.000 
#
# Total GULP energy -217538.958618 kJ/mol
# GULP energy per Si atom -5577.922016 kJ/mol
# Density = 2.576044 g / cm^3
# Si number density = 25.819208 Si / 1000 Ang^3
#
#
#
# Elastic Constant Matrix: (Units=GPa)
#
#
# Indices 1 2 3 4 5 6 
#
# 1 106.7257 47.7677 17.4001 0.0000 0.0000 0.0000
# 2 47.7677 106.7257 17.4001 0.0000 0.0000 0.0000
# 3 17.4001 17.4001 78.8791 0.0000 0.0000 0.0000
# 4 0.0000 0.0000 0.0000 17.5621 0.0000 0.0000
# 5 0.0000 0.0000 0.0000 0.0000 17.5621 0.0000
# 6 0.0000 0.0000 0.0000 0.0000 0.0000 29.4790
#
#
#
# Elastic Compliance Matrix: (Units=1/GPa)
#
#
# Indices 1 2 3 4 5 6 
#
# 1 0.011886 -0.005075 -0.001502 0.000000 0.000000 0.000000
# 2 -0.005075 0.011886 -0.001502 0.000000 0.000000 0.000000
# 3 -0.001502 -0.001502 0.013341 0.000000 0.000000 0.000000
# 4 0.000000 0.000000 0.000000 0.056941 0.000000 0.000000
# 5 0.000000 0.000000 0.000000 0.000000 0.056941 0.000000
# 6 0.000000 0.000000 0.000000 0.000000 0.000000 0.033922
#
#
# Mechanical properties :
#
#
# Convention : Reuss Voigt Hill
#
# Bulk Modulus (GPa) = 47.72600 50.82958 49.27779
# Shear Modulus (GPa) = 24.03138 26.90482 25.46810
#
# Velocity S-wave (km/s) = 3.05414 3.23158 3.14411
# Velocity P-wave (km/s) = 5.56434 5.80117 5.68399
#
# Compressibility (1/GPa) = 0.02095294
#
# Stress axis : x y z
#
# Youngs Moduli (GPa) = 84.13109 84.13109 74.95971
#
# Poissons Ratio (x) = 0.42697 0.11263
# Poissons Ratio (y) = 0.42697 0.11263
# Poissons Ratio (z) = 0.12641 0.12641
#
# Static dielectric constant tensor:
#      x y z
#    x 2.165000 0.000000 0.000000 
#    y 0.000000 2.165000 0.000000 
#    z 0.000000 0.000000 2.024930 
# 
# From -- ./inp_files/11851.got.cif
#   From: 2010.05.17/outbox.cif.g08.bks.cpg/sg180_6_cif.got.tgz:11851.got - 2010.05.20 11:43:55.
