data_PCOD9583677
_publ_section_title
;
Structure prediction by ZEFSAII (Michael W. Deem and Ramdas Pophale) SiO2 
 PCOD9583677
Probable space group: P 62 2 2
;
_chemical_formula_sum "Si O2"
_cell_formula_units_Z 27
_cell_length_a 9.421077
_cell_length_b 9.421077
_cell_length_c 13.211507
_cell_angle_alpha 90.000000
_cell_angle_beta 90.000000
_cell_angle_gamma 120.000000
_cell_volume 1015.509750
_symmetry_space_group_name_H-M "P 62 2 2"
_symmetry_group_IT_number 180
_symmetry_cell_setting 'hexagonal'
loop_
_space_group_symop_operation_xyz
x,y,z
x-y,x,1/3+z
-y,x-y,2/3+z
-x,-y,z
-x+y,-x,1/3+z
y,-x+y,2/3+z
x-y,-y,-z
-x,-x+y,1/3-z
y,x,2/3-z
-y,-x,2/3-z
-x+y,y,-z
x,x-y,1/3-z
loop_
_atom_site_type_symbol
_atom_site_label
_atom_site_fract_x
_atom_site_fract_y
_atom_site_fract_z
Si Si1 0.000000 0.000000 0.333334
Si Si2 0.264406 0.132203 0.166667
Si Si3 0.195731 0.799450 0.525343
Si Si4 0.314786 0.685215 0.333334
O O1 0.149403 0.037680 0.262490
O O2 0.314723 0.313181 0.197932
O O3 0.238657 0.720949 0.431220
O O4 0.268700 0.772160 0.629746
O O5 0.282281 0.000000 0.500000
#
# Coordination Sequence:
#
# PCOD9583677 Si02
#       4
#     3   6  12   6
#     4  10  18  38  68 120 126 174 266 326 368 418
#     4  11  22  40  76 112 136 190 265 326 367 466
#     4  11  22  44  76 107 152 202 259 326 396 490
#     4  10  23  40  71 111 153 204 240 322 415 450
#
# _framework density 26.587634999999999
#
# number of rings (size 3 to 8) (size 9 to 14) (size 15 to 20)
#    0.000    1.333    4.444    4.000    0.000    0.000 
#    0.000    8.889    0.000    0.000    0.000    0.000 
#    0.000    0.000    0.000    0.000    0.000    0.000 
#
# Total GULP energy -150484.459644 kJ/mol
# GULP energy per Si atom -5573.498505 kJ/mol
# Density = 2.652712 g / cm^3
# Si number density = 26.587635 Si / 1000 Ang^3
#
#
#
# Elastic Constant Matrix: (Units=GPa)
#
#
# Indices 1 2 3 4 5 6 
#
# 1 137.5514 49.3710 42.1683 0.0000 0.0000 0.0000
# 2 49.3710 137.5514 42.1683 0.0000 0.0000 0.0000
# 3 42.1683 42.1683 126.5862 0.0000 0.0000 0.0000
# 4 0.0000 0.0000 0.0000 -25.4284 0.0000 0.0000
# 5 0.0000 0.0000 0.0000 0.0000 -25.4284 0.0000
# 6 0.0000 0.0000 0.0000 0.0000 0.0000 44.0902
#
#
#
# Elastic Compliance Matrix: (Units=1/GPa)
#
#
# Indices 1 2 3 4 5 6 
#
# 1 0.008818 -0.002522 -0.002097 0.000000 0.000000 0.000000
# 2 -0.002522 0.008818 -0.002097 0.000000 0.000000 0.000000
# 3 -0.002097 -0.002097 0.009297 0.000000 0.000000 0.000000
# 4 0.000000 0.000000 0.000000 -0.039326 0.000000 0.000000
# 5 0.000000 0.000000 0.000000 0.000000 -0.039326 0.000000
# 6 0.000000 0.000000 0.000000 0.000000 0.000000 0.022681
#
#
# Mechanical properties :
#
#
# Convention : Reuss Voigt Hill
#
# Bulk Modulus (GPa) = 74.07466 74.34490 74.20978
# Shear Modulus (GPa) = -450.28431 16.51210 -216.88611
#
# Velocity S-wave (km/s) = -13.02790 2.49478 -9.04163
# Velocity P-wave (km/s) = 14.08476 6.02673 9.00164
#
# Compressibility (1/GPa) = 0.01349989
#
# Stress axis : x y z
#
# Youngs Moduli (GPa) = 113.40122 113.40122 107.56053
#
# Poissons Ratio (x) = 0.28601 0.22559
# Poissons Ratio (y) = 0.28601 0.22559
# Poissons Ratio (z) = 0.23784 0.23784
#
# Static dielectric constant tensor:
#      x y z
#    x 2.325620 0.000000 0.000000 
#    y 0.000000 2.325620 0.000000 
#    z 0.000000 0.000000 2.023990 
# 
# From -- ./inp_files/3913.got.cif
#   From: 2010.05.17/outbox.cif.g08.bks.cpg/sg180_2_cif.got.tgz:3913.got - 2010.05.20 11:43:55.
