data_PCOD9583845
_publ_section_title
;
Structure prediction by ZEFSAII (Michael W. Deem and Ramdas Pophale) SiO2 
 PCOD9583845
Probable space group: P 62 2 2
;
_chemical_formula_sum "Si O2"
_cell_formula_units_Z 42
_cell_length_a 10.717021
_cell_length_b 10.717021
_cell_length_c 18.596409
_cell_angle_alpha 90.000000
_cell_angle_beta 90.000000
_cell_angle_gamma 120.000000
_cell_volume 1849.728058
_symmetry_space_group_name_H-M "P 62 2 2"
_symmetry_group_IT_number 180
_symmetry_cell_setting 'hexagonal'
loop_
_space_group_symop_operation_xyz
x,y,z
x-y,x,1/3+z
-y,x-y,2/3+z
-x,-y,z
-x+y,-x,1/3+z
y,-x+y,2/3+z
x-y,-y,-z
-x,-x+y,1/3-z
y,x,2/3-z
-y,-x,2/3-z
-x+y,y,-z
x,x-y,1/3-z
loop_
_atom_site_type_symbol
_atom_site_label
_atom_site_fract_x
_atom_site_fract_y
_atom_site_fract_z
Si Si1 0.171923 0.707080 0.617017
Si Si2 0.695330 0.390660 0.500000
Si Si3 0.066194 0.832127 0.499218
Si Si4 0.056620 0.653309 0.939277
O O1 0.137150 0.568575 0.666667
O O2 0.283357 0.703817 0.559830
O O3 0.067496 0.734067 0.565078
O O4 0.229790 0.838296 0.671780
O O5 0.651204 0.496381 0.539905
O O6 0.915673 0.831346 0.500000
O O7 0.062580 0.747184 0.427048
O O8 0.191343 0.000000 0.500000
O O9 0.000000 0.500000 0.975634
#
# Coordination Sequence:
#
# PCOD9583845 Si02
#       4
#    12   6  12  12
#     4  10  24  44  74 108 139 193 244 303 375 441
#     4  10  20  44  70 102 138 180 242 302 370 430
#     4  11  25  46  68 101 151 194 241 309 374 453
#     4  11  22  43  72 102 141 188 244 302 368 458
#
# _framework density 22.706040000000002
#
# number of rings (size 3 to 8) (size 9 to 14) (size 15 to 20)
#    0.000    1.429    4.286    0.000    0.000    4.571 
#   10.286    2.857    0.000    0.000    0.000    0.000 
#    0.000    0.000    0.000    0.000    0.000    0.000 
#
# Total GULP energy -234447.418243 kJ/mol
# GULP energy per Si atom -5582.081387 kJ/mol
# Density = 2.265436 g / cm^3
# Si number density = 22.706040 Si / 1000 Ang^3
#
#
#
# Elastic Constant Matrix: (Units=GPa)
#
#
# Indices 1 2 3 4 5 6 
#
# 1 93.4123 38.0360 48.6240 0.0000 0.0000 0.0000
# 2 38.0360 93.4123 48.6240 0.0000 0.0000 0.0000
# 3 48.6240 48.6240 130.5377 0.0000 0.0000 0.0000
# 4 0.0000 0.0000 0.0000 29.8846 0.0000 0.0000
# 5 0.0000 0.0000 0.0000 0.0000 29.8846 0.0000
# 6 0.0000 0.0000 0.0000 0.0000 0.0000 27.6881
#
#
#
# Elastic Compliance Matrix: (Units=1/GPa)
#
#
# Indices 1 2 3 4 5 6 
#
# 1 0.014280 -0.003778 -0.003912 0.000000 0.000000 0.000000
# 2 -0.003778 0.014280 -0.003912 0.000000 0.000000 0.000000
# 3 -0.003912 -0.003912 0.010575 0.000000 0.000000 0.000000
# 4 0.000000 0.000000 0.000000 0.033462 0.000000 0.000000
# 5 0.000000 0.000000 0.000000 0.000000 0.033462 0.000000
# 6 0.000000 0.000000 0.000000 0.000000 0.000000 0.036117
#
#
# Mechanical properties :
#
#
# Convention : Reuss Voigt Hill
#
# Bulk Modulus (GPa) = 62.77090 65.32561 64.04826
# Shear Modulus (GPa) = 29.29304 29.63003 29.46154
#
# Velocity S-wave (km/s) = 3.59569 3.61632 3.60602
# Velocity P-wave (km/s) = 6.70401 6.80218 6.75327
#
# Compressibility (1/GPa) = 0.01593095
#
# Stress axis : x y z
#
# Youngs Moduli (GPa) = 70.02854 70.02854 94.56464
#
# Poissons Ratio (x) = 0.26459 0.36991
# Poissons Ratio (y) = 0.26459 0.36991
# Poissons Ratio (z) = 0.27393 0.27393
#
# Static dielectric constant tensor:
#      x y z
#    x 1.887250 0.000000 0.000000 
#    y 0.000000 1.887250 0.000000 
#    z 0.000000 0.000000 1.846960 
# 
# From -- ./inp_files/7210.got.cif
#   From: 2010.05.17/outbox.cif.g08.bks.cpg/sg180_4_cif.got.tgz:7210.got - 2010.05.20 11:43:55.
