data_PCOD9583385
_publ_section_title
;
Structure prediction by ZEFSAII (Michael W. Deem and Ramdas Pophale) SiO2 
 PCOD9583385
Probable space group: P 65 2 2
;
_chemical_formula_sum "Si O2"
_cell_formula_units_Z 36
_cell_length_a 8.449838
_cell_length_b 8.449838
_cell_length_c 23.460486
_cell_angle_alpha 90.000000
_cell_angle_beta 90.000000
_cell_angle_gamma 120.000000
_cell_volume 1450.655877
_symmetry_space_group_name_H-M "P 65 2 2"
_symmetry_group_IT_number 179
_symmetry_cell_setting 'hexagonal'
loop_
_space_group_symop_operation_xyz
x,y,z
x-y,x,5/6+z
-y,x-y,2/3+z
-x,-y,1/2+z
-x+y,-x,1/3+z
y,-x+y,1/6+z
x-y,-y,-z
-x,-x+y,1/3-z
y,x,2/3-z
-y,-x,1/6-z
-x+y,y,1/2-z
x,x-y,5/6-z
loop_
_atom_site_type_symbol
_atom_site_label
_atom_site_fract_x
_atom_site_fract_y
_atom_site_fract_z
Si Si1 0.060404 0.887711 0.791884
Si Si2 0.589809 0.420355 0.966065
Si Si3 0.603072 0.869911 0.556300
O O1 0.121022 0.746138 0.809733
O O2 0.889481 0.778962 0.750000
O O3 0.233511 0.063141 0.763730
O O4 0.980346 0.980346 0.833334
O O5 0.644554 0.322277 0.916667
O O6 0.410116 0.417865 0.938753
O O7 0.552551 0.312618 0.025597
O O8 0.667271 0.000000 0.500000
#
# Coordination Sequence:
#
# PCOD9583385 Si02
#       3
#    12  12  12
#     4  11  24  42  65  97 139 184 231 288 353 420
#     4  10  22  41  69 100 135 180 236 292 353 423
#     4   9  19  41  66  95 133 176 229 296 351 409
#
# _framework density 24.816361000000001
#
# number of rings (size 3 to 8) (size 9 to 14) (size 15 to 20)
#    0.000    2.000    0.000    5.000    0.000    9.333 
#    0.000    5.000    0.000    0.000    0.000    0.000 
#    0.000    0.000    0.000    0.000    0.000    0.000 
#
# Total GULP energy -201075.407585 kJ/mol
# GULP energy per Si atom -5585.427988 kJ/mol
# Density = 2.475988 g / cm^3
# Si number density = 24.816361 Si / 1000 Ang^3
#
#
#
# Elastic Constant Matrix: (Units=GPa)
#
#
# Indices 1 2 3 4 5 6 
#
# 1 145.5772 71.3033 48.5845 0.0000 0.0000 0.0000
# 2 71.3033 145.5772 48.5845 0.0000 0.0000 0.0000
# 3 48.5845 48.5845 122.4825 0.0000 0.0000 0.0000
# 4 0.0000 0.0000 0.0000 32.9919 0.0000 0.0000
# 5 0.0000 0.0000 0.0000 0.0000 32.9919 0.0000
# 6 0.0000 0.0000 0.0000 0.0000 0.0000 37.1369
#
#
#
# Elastic Compliance Matrix: (Units=1/GPa)
#
#
# Indices 1 2 3 4 5 6 
#
# 1 0.009536 -0.003928 -0.002224 0.000000 0.000000 0.000000
# 2 -0.003928 0.009536 -0.002224 0.000000 0.000000 0.000000
# 3 -0.002224 -0.002224 0.009929 0.000000 0.000000 0.000000
# 4 0.000000 0.000000 0.000000 0.030311 0.000000 0.000000
# 5 0.000000 0.000000 0.000000 0.000000 0.030311 0.000000
# 6 0.000000 0.000000 0.000000 0.000000 0.000000 0.026927
#
#
# Mechanical properties :
#
#
# Convention : Reuss Voigt Hill
#
# Bulk Modulus (GPa) = 81.65439 83.39795 82.52617
# Shear Modulus (GPa) = 36.39434 36.96842 36.68138
#
# Velocity S-wave (km/s) = 3.83371 3.86382 3.84879
# Velocity P-wave (km/s) = 7.25061 7.32014 7.28546
#
# Compressibility (1/GPa) = 0.01224674
#
# Stress axis : x y z
#
# Youngs Moduli (GPa) = 104.87099 104.87099 100.71513
#
# Poissons Ratio (x) = 0.41195 0.22402
# Poissons Ratio (y) = 0.41195 0.22402
# Poissons Ratio (z) = 0.23326 0.23326
#
# Static dielectric constant tensor:
#      x y z
#    x 1.976040 0.000000 0.000000 
#    y 0.000000 1.976040 0.000000 
#    z 0.000000 0.000000 2.123630 
# 
# From -- ./inp_files/8553.got.cif
#   From: 2010.05.17/outbox.cif.g08.bks.cpg/sg179_5_cif.got.tgz:8553.got - 2010.05.20 11:37:33.
