data_PCOD9583140
_publ_section_title
;
Structure prediction by ZEFSAII (Michael W. Deem and Ramdas Pophale) SiO2 
 PCOD9583140
Probable space group: P 65 2 2
;
_chemical_formula_sum "Si O2"
_cell_formula_units_Z 96
_cell_length_a 16.993087
_cell_length_b 16.993087
_cell_length_c 21.856946
_cell_angle_alpha 90.000000
_cell_angle_beta 90.000000
_cell_angle_gamma 120.000000
_cell_volume 5465.937642
_symmetry_space_group_name_H-M "P 65 2 2"
_symmetry_group_IT_number 179
_symmetry_cell_setting 'hexagonal'
loop_
_space_group_symop_operation_xyz
x,y,z
x-y,x,5/6+z
-y,x-y,2/3+z
-x,-y,1/2+z
-x+y,-x,1/3+z
y,-x+y,1/6+z
x-y,-y,-z
-x,-x+y,1/3-z
y,x,2/3-z
-y,-x,1/6-z
-x+y,y,1/2-z
x,x-y,5/6-z
loop_
_atom_site_type_symbol
_atom_site_label
_atom_site_fract_x
_atom_site_fract_y
_atom_site_fract_z
Si Si1 0.553966 0.957241 0.938402
Si Si2 0.884519 0.393475 0.577446
Si Si3 0.547530 0.770306 0.254211
Si Si4 0.545204 0.930907 0.279884
Si Si5 0.902258 0.670538 0.197411
Si Si6 0.617557 0.388967 0.818914
Si Si7 0.457108 0.332585 0.636570
Si Si8 0.493433 0.661485 0.002568
O O1 0.460731 0.873177 0.963286
O O2 0.565691 0.904428 0.879839
O O3 0.534794 0.036395 0.916350
O O4 0.616533 0.000000 0.000000
O O5 0.871688 0.373631 0.506144
O O6 0.915551 0.325772 0.606511
O O7 0.793221 0.374871 0.611481
O O8 0.556611 0.864987 0.235241
O O9 0.618852 0.785818 0.307918
O O10 0.446090 0.699542 0.279020
O O11 0.566269 0.731759 0.193570
O O12 0.481956 0.963911 0.250000
O O13 0.635380 0.019037 0.299467
O O14 0.847678 0.695357 0.250000
O O15 0.000000 0.744594 0.166667
O O16 0.726244 0.437184 0.815872
O O17 0.464448 0.299506 0.569061
O O18 0.556044 0.418527 0.653085
#
# Coordination Sequence:
#
# PCOD9583140 Si02
#       8
#    12  12  12  12  12  12  12  12
#     4  10  18  33  55  71  95 138 180 235 285 344
#     4  10  19  36  51  75 104 141 187 239 282 337
#     4  11  24  35  56  76 103 143 195 240 274 345
#     4  12  22  34  53  74 104 143 195 232 280 348
#     4  11  21  37  57  81 110 149 190 233 286 344
#     4  10  21  32  52  75 100 129 186 237 284 326
#     4  11  23  39  49  69 108 147 180 235 300 335
#     4  11  21  35  49  68 103 143 175 241 305 326
#
# _framework density 17.563317999999999
#
# number of rings (size 3 to 8) (size 9 to 14) (size 15 to 20)
#    0.000    1.250    5.000    3.000    3.500    1.000 
#    0.000    0.000    0.000    0.000    0.000    0.000 
#    0.000    0.000    0.000   10.125    0.250    0.250 
#
# Total GULP energy -534810.896736 kJ/mol
# GULP energy per Si atom -5570.946841 kJ/mol
# Density = 1.752334 g / cm^3
# Si number density = 17.563318 Si / 1000 Ang^3
#
#
#
# Elastic Constant Matrix: (Units=GPa)
#
#
# Indices 1 2 3 4 5 6 
#
# 1 58.6494 47.2961 33.0229 0.0000 0.0000 0.0000
# 2 47.2961 58.6494 33.0229 0.0000 0.0000 0.0000
# 3 33.0229 33.0229 114.1332 0.0000 0.0000 0.0000
# 4 0.0000 0.0000 0.0000 20.6735 0.0000 0.0000
# 5 0.0000 0.0000 0.0000 0.0000 20.6735 0.0000
# 6 0.0000 0.0000 0.0000 0.0000 0.0000 5.6766
#
#
#
# Elastic Compliance Matrix: (Units=1/GPa)
#
#
# Indices 1 2 3 4 5 6 
#
# 1 0.049798 -0.038282 -0.003332 0.000000 0.000000 0.000000
# 2 -0.038282 0.049798 -0.003332 0.000000 0.000000 0.000000
# 3 -0.003332 -0.003332 0.010690 0.000000 0.000000 0.000000
# 4 0.000000 0.000000 0.000000 0.048371 0.000000 0.000000
# 5 0.000000 0.000000 0.000000 0.000000 0.048371 0.000000
# 6 0.000000 0.000000 0.000000 0.000000 0.000000 0.176161
#
#
# Mechanical properties :
#
#
# Convention : Reuss Voigt Hill
#
# Bulk Modulus (GPa) = 49.03455 50.90176 49.96815
# Shear Modulus (GPa) = 10.41929 17.27740 13.84834
#
# Velocity S-wave (km/s) = 2.43830 3.13983 2.81104
# Velocity P-wave (km/s) = 5.99219 6.49535 6.24884
#
# Compressibility (1/GPa) = 0.02039378
#
# Stress axis : x y z
#
# Youngs Moduli (GPa) = 20.08107 20.08107 93.54699
#
# Poissons Ratio (x) = 0.76875 0.31170
# Poissons Ratio (y) = 0.76875 0.31170
# Poissons Ratio (z) = 0.06691 0.06691
#
# Static dielectric constant tensor:
#      x y z
#    x 1.620740 0.000000 0.000000 
#    y 0.000000 1.620740 0.000000 
#    z 0.000000 0.000000 1.752910 
# 
# From -- ./inp_files/7795.got.cif
#   From: 2010.05.17/outbox.cif.g08.bks.cpg/sg179_4_cif.got.tgz:7795.got - 2010.05.20 11:37:33.
