data_PCOD9583760
_publ_section_title
;
Structure prediction by ZEFSAII (Michael W. Deem and Ramdas Pophale) SiO2 
 PCOD9583760
Probable space group: P 62 2 2
;
_chemical_formula_sum "Si O2"
_cell_formula_units_Z 60
_cell_length_a 15.863234
_cell_length_b 15.863234
_cell_length_c 11.007551
_cell_angle_alpha 90.000000
_cell_angle_beta 90.000000
_cell_angle_gamma 120.000000
_cell_volume 2398.859428
_symmetry_space_group_name_H-M "P 62 2 2"
_symmetry_group_IT_number 180
_symmetry_cell_setting 'hexagonal'
loop_
_space_group_symop_operation_xyz
x,y,z
x-y,x,1/3+z
-y,x-y,2/3+z
-x,-y,z
-x+y,-x,1/3+z
y,-x+y,2/3+z
x-y,-y,-z
-x,-x+y,1/3-z
y,x,2/3-z
-y,-x,2/3-z
-x+y,y,-z
x,x-y,1/3-z
loop_
_atom_site_type_symbol
_atom_site_label
_atom_site_fract_x
_atom_site_fract_y
_atom_site_fract_z
Si Si1 0.263238 0.075716 0.410281
Si Si2 0.696051 0.972272 0.834410
Si Si3 0.526093 0.662463 0.167160
Si Si4 0.473887 0.121917 0.434854
Si Si5 0.791966 0.484267 0.871410
O O1 0.267010 0.178404 0.419453
O O2 0.257424 0.029404 0.277389
O O3 0.365258 0.093694 0.473136
O O4 0.181188 0.000000 0.500000
O O5 0.676470 0.053684 0.896307
O O6 0.591511 0.885987 0.784175
O O7 0.535915 0.767958 0.166667
O O8 0.413862 0.584898 0.184099
O O9 0.538269 0.626281 0.034661
O O10 0.548755 0.097509 0.500000
O O11 0.522922 0.237643 0.439283
O O12 0.731631 0.463262 0.000000
#
# Coordination Sequence:
#
# PCOD9583760 Si02
#       5
#    12  12  12  12  12
#     4  10  20  36  63  94 134 181 234 297 363 425
#     4  10  22  40  59  95 138 189 234 301 366 436
#     4  11  24  38  60  90 136 188 238 291 357 431
#     4  10  20  35  55  93 132 180 227 284 348 427
#     4  11  20  35  62  94 135 180 234 293 356 430
#
# _framework density 25.011887000000002
#
# number of rings (size 3 to 8) (size 9 to 14) (size 15 to 20)
#    0.000    1.600    2.000    4.200    0.000    0.400 
#    0.000    9.000    0.000    7.800    0.000    8.400 
#    0.000    0.000    0.000    0.000    0.000    0.000 
#
# Total GULP energy -334570.979005 kJ/mol
# GULP energy per Si atom -5576.182983 kJ/mol
# Density = 2.495496 g / cm^3
# Si number density = 25.011887 Si / 1000 Ang^3
#
#
#
# Elastic Constant Matrix: (Units=GPa)
#
#
# Indices 1 2 3 4 5 6 
#
# 1 159.1691 107.2539 43.7631 0.0000 0.0000 0.0000
# 2 107.2539 159.1691 43.7631 0.0000 0.0000 0.0000
# 3 43.7631 43.7631 78.6439 0.0000 0.0000 0.0000
# 4 0.0000 0.0000 0.0000 32.8193 0.0000 0.0000
# 5 0.0000 0.0000 0.0000 0.0000 32.8193 0.0000
# 6 0.0000 0.0000 0.0000 0.0000 0.0000 25.9576
#
#
#
# Elastic Compliance Matrix: (Units=1/GPa)
#
#
# Indices 1 2 3 4 5 6 
#
# 1 0.011928 -0.007335 -0.002556 0.000000 0.000000 0.000000
# 2 -0.007335 0.011928 -0.002556 0.000000 0.000000 0.000000
# 3 -0.002556 -0.002556 0.015560 0.000000 0.000000 0.000000
# 4 0.000000 0.000000 0.000000 0.030470 0.000000 0.000000
# 5 0.000000 0.000000 0.000000 0.000000 0.030470 0.000000
# 6 0.000000 0.000000 0.000000 0.000000 0.000000 0.038524
#
#
# Mechanical properties :
#
#
# Convention : Reuss Voigt Hill
#
# Bulk Modulus (GPa) = 68.85803 87.39360 78.12581
# Shear Modulus (GPa) = 29.65366 31.79937 30.72652
#
# Velocity S-wave (km/s) = 3.44696 3.56950 3.50877
# Velocity P-wave (km/s) = 6.59029 7.21146 6.90786
#
# Compressibility (1/GPa) = 0.01452264
#
# Stress axis : x y z
#
# Youngs Moduli (GPa) = 83.83890 83.83890 64.26664
#
# Poissons Ratio (x) = 0.61492 0.16426
# Poissons Ratio (y) = 0.61492 0.16426
# Poissons Ratio (z) = 0.21429 0.21429
#
# Static dielectric constant tensor:
#      x y z
#    x 2.085260 0.000000 0.000000 
#    y 0.000000 2.085260 0.000000 
#    z 0.000000 0.000000 2.082800 
# 
# From -- ./inp_files/6076.got.cif
#   From: 2010.05.17/outbox.cif.g08.bks.cpg/sg180_4_cif.got.tgz:6076.got - 2010.05.20 11:43:55.
