data_PCOD9583543
_publ_section_title
;
Structure prediction by ZEFSAII (Michael W. Deem and Ramdas Pophale) SiO2 
 PCOD9583543
Probable space group: P 65 2 2
;
_chemical_formula_sum "Si O2"
_cell_formula_units_Z 66
_cell_length_a 14.422539
_cell_length_b 14.422539
_cell_length_c 16.955911
_cell_angle_alpha 90.000000
_cell_angle_beta 90.000000
_cell_angle_gamma 120.000000
_cell_volume 3054.465358
_symmetry_space_group_name_H-M "P 65 2 2"
_symmetry_group_IT_number 179
_symmetry_cell_setting 'hexagonal'
loop_
_space_group_symop_operation_xyz
x,y,z
x-y,x,5/6+z
-y,x-y,2/3+z
-x,-y,1/2+z
-x+y,-x,1/3+z
y,-x+y,1/6+z
x-y,-y,-z
-x,-x+y,1/3-z
y,x,2/3-z
-y,-x,1/6-z
-x+y,y,1/2-z
x,x-y,5/6-z
loop_
_atom_site_type_symbol
_atom_site_label
_atom_site_fract_x
_atom_site_fract_y
_atom_site_fract_z
Si Si1 0.603360 0.405480 0.778479
Si Si2 0.219251 0.903421 0.377579
Si Si3 0.255718 0.511436 0.750000
Si Si4 0.942684 0.885367 0.750000
Si Si5 0.595729 0.000000 0.000000
Si Si6 0.896002 0.345280 0.442231
Si Si7 0.338789 0.861207 0.800586
O O1 0.722014 0.444027 0.750000
O O2 0.584259 0.361709 0.866653
O O3 0.576222 0.498878 0.778803
O O4 0.523107 0.320056 0.715507
O O5 0.305841 0.932036 0.444662
O O6 0.278221 0.912819 0.294010
O O7 0.149222 0.774463 0.390409
O O8 0.173833 0.986864 0.392187
O O9 0.274539 0.445051 0.683189
O O10 0.943898 0.943898 0.833334
O O11 0.852385 0.426193 0.416667
O O12 0.012910 0.426645 0.475589
O O13 0.413541 0.827081 0.750000
#
# Coordination Sequence:
#
# PCOD9583543 Si02
#       7
#    12  12   6   6   6  12  12
#     4  12  26  41  69 103 147 198 254 320 397 514
#     4  12  25  48  75 115 150 204 266 347 415 500
#     4  12  24  44  65 100 150 198 237 308 398 498
#     4  12  28  54  85 116 160 214 299 374 440 510
#     4  12  26  42  74 108 148 194 268 322 416 486
#     4  11  24  44  70 102 149 198 248 315 400 498
#     4  11  24  45  73 106 150 190 252 322 407 491
#
# _framework density 21.607710999999998
#
# number of rings (size 3 to 8) (size 9 to 14) (size 15 to 20)
#    0.000    0.364    2.727    7.091    5.091    0.000 
#    0.000    3.636    0.000    0.000    0.000    0.000 
#    0.000    0.000    0.000    0.000    0.000    0.000 
#
# Total GULP energy -367733.975841 kJ/mol
# GULP energy per Si atom -5571.726907 kJ/mol
# Density = 2.155853 g / cm^3
# Si number density = 21.607711 Si / 1000 Ang^3
#
#
#
# Elastic Constant Matrix: (Units=GPa)
#
#
# Indices 1 2 3 4 5 6 
#
# 1 103.3514 41.7172 38.0819 0.0000 0.0000 0.0000
# 2 41.7172 103.3514 38.0819 0.0000 0.0000 0.0000
# 3 38.0819 38.0819 144.8326 0.0000 0.0000 0.0000
# 4 0.0000 0.0000 0.0000 36.2878 0.0000 0.0000
# 5 0.0000 0.0000 0.0000 0.0000 36.2878 0.0000
# 6 0.0000 0.0000 0.0000 0.0000 0.0000 30.8171
#
#
#
# Elastic Compliance Matrix: (Units=1/GPa)
#
#
# Indices 1 2 3 4 5 6 
#
# 1 0.012111 -0.004114 -0.002103 0.000000 0.000000 0.000000
# 2 -0.004114 0.012111 -0.002103 0.000000 0.000000 0.000000
# 3 -0.002103 -0.002103 0.008010 0.000000 0.000000 0.000000
# 4 0.000000 0.000000 0.000000 0.027557 0.000000 0.000000
# 5 0.000000 0.000000 0.000000 0.000000 0.027557 0.000000
# 6 0.000000 0.000000 0.000000 0.000000 0.000000 0.032450
#
#
# Mechanical properties :
#
#
# Convention : Reuss Voigt Hill
#
# Bulk Modulus (GPa) = 64.12822 65.25529 64.69176
# Shear Modulus (GPa) = 35.30243 36.25552 35.77898
#
# Velocity S-wave (km/s) = 4.04640 4.10066 4.07362
# Velocity P-wave (km/s) = 7.18150 7.25852 7.22011
#
# Compressibility (1/GPa) = 0.01559376
#
# Stress axis : x y z
#
# Youngs Moduli (GPa) = 82.56939 82.56939 124.83889
#
# Poissons Ratio (x) = 0.33967 0.26251
# Poissons Ratio (y) = 0.33967 0.26251
# Poissons Ratio (z) = 0.17363 0.17363
#
# Static dielectric constant tensor:
#      x y z
#    x 1.803560 0.000000 0.000000 
#    y 0.000000 1.803560 0.000000 
#    z 0.000000 0.000000 1.814560 
# 
# From -- ./inp_files/6764.got.cif
#   From: 2010.05.17/outbox.cif.g08.bks.cpg/sg179_4_cif.got.tgz:6764.got - 2010.05.20 11:37:33.
