data_PCOD9583807
_publ_section_title
;
Structure prediction by ZEFSAII (Michael W. Deem and Ramdas Pophale) SiO2 
 PCOD9583807
Probable space group: P 62 2 2
;
_chemical_formula_sum "Si O2"
_cell_formula_units_Z 72
_cell_length_a 15.062503
_cell_length_b 15.062503
_cell_length_c 16.940022
_cell_angle_alpha 90.000000
_cell_angle_beta 90.000000
_cell_angle_gamma 120.000000
_cell_volume 3328.425913
_symmetry_space_group_name_H-M "P 62 2 2"
_symmetry_group_IT_number 180
_symmetry_cell_setting 'hexagonal'
loop_
_space_group_symop_operation_xyz
x,y,z
x-y,x,1/3+z
-y,x-y,2/3+z
-x,-y,z
-x+y,-x,1/3+z
y,-x+y,2/3+z
x-y,-y,-z
-x,-x+y,1/3-z
y,x,2/3-z
-y,-x,2/3-z
-x+y,y,-z
x,x-y,1/3-z
loop_
_atom_site_type_symbol
_atom_site_label
_atom_site_fract_x
_atom_site_fract_y
_atom_site_fract_z
Si Si1 0.544226 0.109985 0.715630
Si Si2 0.830125 0.990903 0.874367
Si Si3 0.156184 0.276705 0.669444
Si Si4 0.739208 0.238227 0.030351
Si Si5 0.324870 0.084139 0.729316
Si Si6 0.819104 0.367801 0.792740
O O1 0.644540 0.197429 0.669479
O O2 0.446681 0.125567 0.729554
O O3 0.582158 0.101466 0.803624
O O4 0.500000 0.000000 0.674419
O O5 0.739070 0.935480 0.810614
O O6 0.824954 0.077649 0.929543
O O7 0.816829 0.904514 0.936564
O O8 0.939953 0.060048 0.833334
O O9 0.189204 0.380756 0.715426
O O10 0.262724 0.293260 0.638206
O O11 0.667880 0.164833 0.958780
O O12 0.667378 0.228627 0.102348
O O13 0.307359 0.153679 0.666667
O O14 0.734213 0.265788 0.833334
#
# Coordination Sequence:
#
# PCOD9583807 Si02
#       6
#    12  12  12  12  12  12
#     4  11  22  37  60  86 118 162 205 244 299 361
#     4   9  21  40  65  89 119 158 195 255 316 368
#     4  10  20  40  63  89 121 153 201 256 312 362
#     4  10  20  38  57  86 120 157 203 250 300 358
#     4  11  24  38  60  89 121 162 202 247 301 364
#     4   9  21  35  58  83 117 160 200 246 295 358
#
# _framework density 21.631845999999999
#
# number of rings (size 3 to 8) (size 9 to 14) (size 15 to 20)
#    0.000    2.000    1.667    1.000    7.000    2.667 
#    0.000   10.000    0.000    0.500    0.000    0.000 
#    0.000    0.000    0.000    0.000    0.000    0.000 
#
# Total GULP energy -400832.262753 kJ/mol
# GULP energy per Si atom -5567.114760 kJ/mol
# Density = 2.158261 g / cm^3
# Si number density = 21.631846 Si / 1000 Ang^3
#
#
#
# Elastic Constant Matrix: (Units=GPa)
#
#
# Indices 1 2 3 4 5 6 
#
# 1 53.9460 10.1517 21.7870 0.0000 0.0000 0.0000
# 2 10.1517 53.9460 21.7870 0.0000 0.0000 0.0000
# 3 21.7870 21.7870 42.1173 0.0000 0.0000 0.0000
# 4 0.0000 0.0000 0.0000 11.7715 0.0000 0.0000
# 5 0.0000 0.0000 0.0000 0.0000 11.7715 0.0000
# 6 0.0000 0.0000 0.0000 0.0000 0.0000 21.8971
#
#
#
# Elastic Compliance Matrix: (Units=1/GPa)
#
#
# Indices 1 2 3 4 5 6 
#
# 1 0.023449 0.000615 -0.012448 0.000000 0.000000 0.000000
# 2 0.000615 0.023449 -0.012448 0.000000 0.000000 0.000000
# 3 -0.012448 -0.012448 0.036622 0.000000 0.000000 0.000000
# 4 0.000000 0.000000 0.000000 0.084951 0.000000 0.000000
# 5 0.000000 0.000000 0.000000 0.000000 0.084951 0.000000
# 6 0.000000 0.000000 0.000000 0.000000 0.000000 0.045668
#
#
# Mechanical properties :
#
#
# Convention : Reuss Voigt Hill
#
# Bulk Modulus (GPa) = 28.60663 28.60676 28.60669
# Shear Modulus (GPa) = 13.91582 15.50692 14.71137
#
# Velocity S-wave (km/s) = 2.53909 2.68032 2.61066
# Velocity P-wave (km/s) = 4.67429 4.77828 4.72657
#
# Compressibility (1/GPa) = 0.03495694
#
# Stress axis : x y z
#
# Youngs Moduli (GPa) = 42.64635 42.64635 27.30634
#
# Poissons Ratio (x) = -0.02621 0.33990
# Poissons Ratio (y) = -0.02621 0.33990
# Poissons Ratio (z) = 0.53085 0.53085
#
# Static dielectric constant tensor:
#      x y z
#    x 1.796110 0.000000 0.000000 
#    y 0.000000 1.796110 0.000000 
#    z 0.000000 0.000000 1.791760 
# 
# From -- ./inp_files/7789.got.cif
#   From: 2010.05.17/outbox.cif.g08.bks.cpg/sg180_4_cif.got.tgz:7789.got - 2010.05.20 11:43:55.
