data_PCOD9583958
_publ_section_title
;
Structure prediction by ZEFSAII (Michael W. Deem and Ramdas Pophale) SiO2 
 PCOD9583958
Probable space group: P 62 2 2
;
_chemical_formula_sum "Si O2"
_cell_formula_units_Z 45
_cell_length_a 11.645327
_cell_length_b 11.645327
_cell_length_c 20.181452
_cell_angle_alpha 90.000000
_cell_angle_beta 90.000000
_cell_angle_gamma 120.000000
_cell_volume 2370.207767
_symmetry_space_group_name_H-M "P 62 2 2"
_symmetry_group_IT_number 180
_symmetry_cell_setting 'hexagonal'
loop_
_space_group_symop_operation_xyz
x,y,z
x-y,x,1/3+z
-y,x-y,2/3+z
-x,-y,z
-x+y,-x,1/3+z
y,-x+y,2/3+z
x-y,-y,-z
-x,-x+y,1/3-z
y,x,2/3-z
-y,-x,2/3-z
-x+y,y,-z
x,x-y,1/3-z
loop_
_atom_site_type_symbol
_atom_site_label
_atom_site_fract_x
_atom_site_fract_y
_atom_site_fract_z
Si Si1 0.000000 0.000000 0.500000
Si Si2 0.258891 0.025179 0.893812
Si Si3 0.584737 0.924986 0.758226
Si Si4 0.611712 0.781940 0.016421
Si Si5 0.701720 0.298281 0.333334
O O1 0.022382 0.899589 0.544694
O O2 0.343786 0.066259 0.826914
O O3 0.233189 0.883164 0.921285
O O4 0.327231 0.128415 0.952514
O O5 0.497286 0.777056 0.729592
O O6 0.500000 0.000000 0.767965
O O7 0.691212 0.016642 0.702669
O O8 0.456645 0.689886 0.000609
#
# Coordination Sequence:
#
# PCOD9583958 Si02
#       5
#     3  12  12  12   6
#     4  12  24  42  64  98 122 172 206 274 326 380
#     4  11  24  40  69  96 125 171 222 274 327 392
#     4  10  22  42  64  93 132 169 215 270 329 390
#     4  10  23  42  63  98 129 168 223 269 326 399
#     4  10  24  41  66  91 136 176 208 278 334 390
#
# _framework density 18.985678
#
# number of rings (size 3 to 8) (size 9 to 14) (size 15 to 20)
#    0.000    1.600    2.667    0.000    7.467    4.267 
#    0.000    0.000    0.000    0.000    0.000    0.000 
#    0.000    0.000    0.000    0.000    0.000    0.000 
#
# Total GULP energy -251023.068350 kJ/mol
# GULP energy per Si atom -5578.290408 kJ/mol
# Density = 1.894247 g / cm^3
# Si number density = 18.985678 Si / 1000 Ang^3
#
#
#
# Elastic Constant Matrix: (Units=GPa)
#
#
# Indices 1 2 3 4 5 6 
#
# 1 102.7769 50.5436 67.9975 0.0000 0.0000 0.0000
# 2 50.5436 102.7769 67.9975 0.0000 0.0000 0.0000
# 3 67.9975 67.9975 111.4626 0.0000 0.0000 0.0000
# 4 0.0000 0.0000 0.0000 42.2566 0.0000 0.0000
# 5 0.0000 0.0000 0.0000 0.0000 42.2566 0.0000
# 6 0.0000 0.0000 0.0000 0.0000 0.0000 26.1166
#
#
#
# Elastic Compliance Matrix: (Units=1/GPa)
#
#
# Indices 1 2 3 4 5 6 
#
# 1 0.016679 -0.002466 -0.008671 0.000000 0.000000 0.000000
# 2 -0.002466 0.016679 -0.008671 0.000000 0.000000 0.000000
# 3 -0.008671 -0.008671 0.019551 0.000000 0.000000 0.000000
# 4 0.000000 0.000000 0.000000 0.023665 0.000000 0.000000
# 5 0.000000 0.000000 0.000000 0.000000 0.023665 0.000000
# 6 0.000000 0.000000 0.000000 0.000000 0.000000 0.038290
#
#
# Mechanical properties :
#
#
# Convention : Reuss Voigt Hill
#
# Bulk Modulus (GPa) = 75.22064 76.67707 75.94885
# Shear Modulus (GPa) = 27.38606 30.82447 29.10526
#
# Velocity S-wave (km/s) = 3.80209 4.03372 3.91962
# Velocity P-wave (km/s) = 7.67986 7.88473 7.78297
#
# Compressibility (1/GPa) = 0.01329422
#
# Stress axis : x y z
#
# Youngs Moduli (GPa) = 59.95541 59.95541 51.14884
#
# Poissons Ratio (x) = 0.14784 0.44350
# Poissons Ratio (y) = 0.14784 0.44350
# Poissons Ratio (z) = 0.51986 0.51986
#
# Static dielectric constant tensor:
#      x y z
#    x 1.662560 0.000000 0.000000 
#    y 0.000000 1.662560 0.000000 
#    z 0.000000 0.000000 1.622670 
# 
# From -- ./inp_files/7406.got.cif
#   From: 2010.05.17/outbox.cif.g08.bks.cpg/sg180_4_cif.got.tgz:7406.got - 2010.05.20 11:43:55.
