data_PCOD9583889
_publ_section_title
;
Structure prediction by ZEFSAII (Michael W. Deem and Ramdas Pophale) SiO2 
 PCOD9583889
Probable space group: P 62 2 2
;
_chemical_formula_sum "Si O2"
_cell_formula_units_Z 84
_cell_length_a 20.837230
_cell_length_b 20.837230
_cell_length_c 10.352484
_cell_angle_alpha 90.000000
_cell_angle_beta 90.000000
_cell_angle_gamma 120.000000
_cell_volume 3892.737964
_symmetry_space_group_name_H-M "P 62 2 2"
_symmetry_group_IT_number 180
_symmetry_cell_setting 'hexagonal'
loop_
_space_group_symop_operation_xyz
x,y,z
x-y,x,1/3+z
-y,x-y,2/3+z
-x,-y,z
-x+y,-x,1/3+z
y,-x+y,2/3+z
x-y,-y,-z
-x,-x+y,1/3-z
y,x,2/3-z
-y,-x,2/3-z
-x+y,y,-z
x,x-y,1/3-z
loop_
_atom_site_type_symbol
_atom_site_label
_atom_site_fract_x
_atom_site_fract_y
_atom_site_fract_z
Si Si1 0.319366 0.097491 0.873532
Si Si2 0.931850 0.209911 0.834878
Si Si3 0.884786 0.505095 0.241408
Si Si4 0.339289 0.476604 0.234517
Si Si5 0.571480 0.294971 0.015020
Si Si6 0.498897 0.925054 0.159197
Si Si7 0.253430 0.337563 0.785387
O O1 0.397832 0.105245 0.833172
O O2 0.317845 0.171397 0.834806
O O3 0.248498 0.020779 0.830650
O O4 0.320058 0.090622 0.030592
O O5 0.879781 0.120220 0.833334
O O6 0.912912 0.241091 0.962741
O O7 0.911681 0.455841 0.166667
O O8 0.801899 0.447589 0.290746
O O9 0.930864 0.536770 0.372999
O O10 0.891797 0.578102 0.176159
O O11 0.291259 0.513908 0.269575
O O12 0.371663 0.469310 0.372645
O O13 0.410677 0.541037 0.163080
O O14 0.553364 0.276682 0.166667
O O15 0.655420 0.310839 0.000000
O O16 0.500000 0.000000 0.133709
O O17 0.283820 0.283820 0.833334
#
# Coordination Sequence:
#
# PCOD9583889 Si02
#       7
#    12  12  12  12  12  12  12
#     4  10  21  39  69  95 125 159 208 274 319 384
#     4   9  21  39  67  99 124 159 205 261 325 385
#     4  12  27  42  57  85 127 176 216 261 330 398
#     4  11  20  38  61  94 113 152 214 275 327 364
#     4  12  22  42  66  85 117 160 222 281 330 377
#     4  11  25  38  59  88 123 160 206 274 329 381
#     4  11  25  42  62  91 131 177 214 255 322 401
#
# _framework density 21.578643
#
# number of rings (size 3 to 8) (size 9 to 14) (size 15 to 20)
#    0.000    1.143    4.286    2.143    8.000    0.571 
#    0.000    0.000    0.000    0.429    0.000    4.000 
#    0.000    0.000    0.000    0.000    0.000    0.000 
#
# Total GULP energy -468886.789877 kJ/mol
# GULP energy per Si atom -5581.985594 kJ/mol
# Density = 2.152953 g / cm^3
# Si number density = 21.578643 Si / 1000 Ang^3
#
#
#
# Elastic Constant Matrix: (Units=GPa)
#
#
# Indices 1 2 3 4 5 6 
#
# 1 125.0017 79.6033 14.8224 0.0000 0.0000 0.0000
# 2 79.6033 125.0017 14.8224 0.0000 0.0000 0.0000
# 3 14.8224 14.8224 39.4059 0.0000 0.0000 0.0000
# 4 0.0000 0.0000 0.0000 18.1919 0.0000 0.0000
# 5 0.0000 0.0000 0.0000 0.0000 18.1919 0.0000
# 6 0.0000 0.0000 0.0000 0.0000 0.0000 22.6992
#
#
#
# Elastic Compliance Matrix: (Units=1/GPa)
#
#
# Indices 1 2 3 4 5 6 
#
# 1 0.013598 -0.008429 -0.001944 0.000000 0.000000 0.000000
# 2 -0.008429 0.013598 -0.001944 0.000000 0.000000 0.000000
# 3 -0.001944 -0.001944 0.026840 0.000000 0.000000 0.000000
# 4 0.000000 0.000000 0.000000 0.054969 0.000000 0.000000
# 5 0.000000 0.000000 0.000000 0.000000 0.054969 0.000000
# 6 0.000000 0.000000 0.000000 0.000000 0.000000 0.044054
#
#
# Mechanical properties :
#
#
# Convention : Reuss Voigt Hill
#
# Bulk Modulus (GPa) = 34.01296 56.43392 45.22344
# Shear Modulus (GPa) = 20.62152 23.82735 22.22444
#
# Velocity S-wave (km/s) = 3.09470 3.32657 3.21273
# Velocity P-wave (km/s) = 5.34473 6.40033 5.89620
#
# Compressibility (1/GPa) = 0.02940056
#
# Stress axis : x y z
#
# Youngs Moduli (GPa) = 73.53920 73.53920 37.25828
#
# Poissons Ratio (x) = 0.61986 0.07244
# Poissons Ratio (y) = 0.61986 0.07244
# Poissons Ratio (z) = 0.14299 0.14299
#
# Static dielectric constant tensor:
#      x y z
#    x 1.755280 0.000000 0.000000 
#    y 0.000000 1.755280 0.000000 
#    z 0.000000 0.000000 1.781280 
# 
# From -- ./inp_files/5040.got.cif
#   From: 2010.05.17/outbox.cif.g08.bks.cpg/sg180_3_cif.got.tgz:5040.got - 2010.05.20 11:43:55.
