data_PCOD9583462
_publ_section_title
;
Structure prediction by ZEFSAII (Michael W. Deem and Ramdas Pophale) SiO2 
 PCOD9583462
Probable space group: P 65 2 2
;
_chemical_formula_sum "Si O2"
_cell_formula_units_Z 48
_cell_length_a 14.916435
_cell_length_b 14.916435
_cell_length_c 11.300074
_cell_angle_alpha 90.000000
_cell_angle_beta 90.000000
_cell_angle_gamma 120.000000
_cell_volume 2177.418955
_symmetry_space_group_name_H-M "P 65 2 2"
_symmetry_group_IT_number 179
_symmetry_cell_setting 'hexagonal'
loop_
_space_group_symop_operation_xyz
x,y,z
x-y,x,5/6+z
-y,x-y,2/3+z
-x,-y,1/2+z
-x+y,-x,1/3+z
y,-x+y,1/6+z
x-y,-y,-z
-x,-x+y,1/3-z
y,x,2/3-z
-y,-x,1/6-z
-x+y,y,1/2-z
x,x-y,5/6-z
loop_
_atom_site_type_symbol
_atom_site_label
_atom_site_fract_x
_atom_site_fract_y
_atom_site_fract_z
Si Si1 0.467322 0.575765 0.830461
Si Si2 0.407588 0.592413 0.083334
Si Si3 0.186983 0.085720 0.600567
Si Si4 0.418821 0.236812 0.174670
Si Si5 0.476155 0.238078 0.916667
O O1 0.470851 0.470851 0.833334
O O2 0.556021 0.659471 0.745812
O O3 0.357214 0.549357 0.782008
O O4 0.475147 0.606086 0.966908
O O5 0.476028 0.708932 0.132755
O O6 0.124883 0.141196 0.552290
O O7 0.309419 0.165203 0.613264
O O8 0.167563 0.000000 0.500000
O O9 0.413064 0.236444 0.032577
#
# Coordination Sequence:
#
# PCOD9583462 Si02
#       5
#    12   6  12  12   6
#     4  11  24  39  68  96 138 186 238 294 360 438
#     4  10  25  40  62 106 134 180 238 280 369 450
#     4  10  24  45  72 106 142 183 254 310 377 437
#     4  11  23  42  70  97 146 187 240 303 369 445
#     4  10  25  44  60 100 144 188 240 296 371 444
#
# _framework density 22.044449
#
# number of rings (size 3 to 8) (size 9 to 14) (size 15 to 20)
#    0.000    1.500    0.000    3.000   14.000    6.000 
#    0.000    7.500    0.000    0.000    0.000    0.000 
#    0.000    0.000    0.000    0.000    0.000    0.000 
#
# Total GULP energy -267453.658674 kJ/mol
# GULP energy per Si atom -5571.951222 kJ/mol
# Density = 2.199427 g / cm^3
# Si number density = 22.044449 Si / 1000 Ang^3
#
#
#
# Elastic Constant Matrix: (Units=GPa)
#
#
# Indices 1 2 3 4 5 6 
#
# 1 83.6515 47.9346 29.7674 0.0000 0.0000 0.0000
# 2 47.9346 83.6515 29.7674 0.0000 0.0000 0.0000
# 3 29.7674 29.7674 119.5211 0.0000 0.0000 0.0000
# 4 0.0000 0.0000 0.0000 -2.1616 0.0000 0.0000
# 5 0.0000 0.0000 0.0000 0.0000 -2.1616 0.0000
# 6 0.0000 0.0000 0.0000 0.0000 0.0000 17.8585
#
#
#
# Elastic Compliance Matrix: (Units=1/GPa)
#
#
# Indices 1 2 3 4 5 6 
#
# 1 0.018281 -0.009717 -0.002133 0.000000 0.000000 0.000000
# 2 -0.009717 0.018281 -0.002133 0.000000 0.000000 0.000000
# 3 -0.002133 -0.002133 0.009429 0.000000 0.000000 0.000000
# 4 0.000000 0.000000 0.000000 -0.462613 0.000000 0.000000
# 5 0.000000 0.000000 0.000000 0.000000 -0.462613 0.000000
# 6 0.000000 0.000000 0.000000 0.000000 0.000000 0.055996
#
#
# Mechanical properties :
#
#
# Convention : Reuss Voigt Hill
#
# Bulk Modulus (GPa) = 55.47463 55.75146 55.61305
# Shear Modulus (GPa) = -6.33501 14.66402 4.16450
#
# Velocity S-wave (km/s) = -1.69705 2.58195 1.37595
# Velocity P-wave (km/s) = 4.62380 5.85098 5.27321
#
# Compressibility (1/GPa) = 0.01802626
#
# Stress axis : x y z
#
# Youngs Moduli (GPa) = 54.70067 54.70067 106.05316
#
# Poissons Ratio (x) = 0.53151 0.22622
# Poissons Ratio (y) = 0.53151 0.22622
# Poissons Ratio (z) = 0.11668 0.11668
#
# Static dielectric constant tensor:
#      x y z
#    x 1.832140 0.000000 0.000000 
#    y 0.000000 1.832140 0.000000 
#    z 0.000000 0.000000 1.914630 
# 
# From -- ./inp_files/4347.got.cif
#   From: 2010.05.17/outbox.cif.g08.bks.cpg/sg179_3_cif.got.tgz:4347.got - 2010.05.20 11:37:33.
