data_PCOD9583668
_publ_section_title
;
Structure prediction by ZEFSAII (Michael W. Deem and Ramdas Pophale) SiO2 
 PCOD9583668
Probable space group: P 62 2 2
;
_chemical_formula_sum "Si O2"
_cell_formula_units_Z 66
_cell_length_a 25.972141
_cell_length_b 25.972141
_cell_length_c 6.506086
_cell_angle_alpha 90.000000
_cell_angle_beta 90.000000
_cell_angle_gamma 120.000000
_cell_volume 3800.720517
_symmetry_space_group_name_H-M "P 62 2 2"
_symmetry_group_IT_number 180
_symmetry_cell_setting 'hexagonal'
loop_
_space_group_symop_operation_xyz
x,y,z
x-y,x,1/3+z
-y,x-y,2/3+z
-x,-y,z
-x+y,-x,1/3+z
y,-x+y,2/3+z
x-y,-y,-z
-x,-x+y,1/3-z
y,x,2/3-z
-y,-x,2/3-z
-x+y,y,-z
x,x-y,1/3-z
loop_
_atom_site_type_symbol
_atom_site_label
_atom_site_fract_x
_atom_site_fract_y
_atom_site_fract_z
Si Si1 0.290005 0.000000 0.500000
Si Si2 0.057805 0.378690 0.796756
Si Si3 0.817083 0.281374 0.980606
Si Si4 0.490295 0.622014 0.358093
Si Si5 0.222436 0.891926 0.777185
Si Si6 0.662357 0.435462 0.971978
O O1 0.343290 0.036508 0.659168
O O2 0.287059 0.049782 0.356702
O O3 0.096276 0.449149 0.820271
O O4 0.089297 0.351021 0.653802
O O5 0.000000 0.365357 0.666667
O O6 0.762475 0.237526 0.833334
O O7 0.855553 0.342627 0.855540
O O8 0.854782 0.248185 0.010587
O O9 0.793502 0.296886 0.182643
O O10 0.448622 0.551379 0.333334
O O11 0.449981 0.642522 0.481126
O O12 0.154259 0.845742 0.833334
O O13 0.605924 0.394077 0.833334
O O14 0.702905 0.405809 0.000000
#
# Coordination Sequence:
#
# PCOD9583668 Si02
#       6
#     6  12  12  12  12  12
#     4  10  18  36  54  75 116 132 164 218 255 304
#     4   9  20  36  55  77 102 136 166 213 269 310
#     4  10  19  35  51  69  92 118 163 211 261 324
#     4  11  21  35  54  68  94 123 163 215 263 327
#     4   9  19  33  55  82 102 134 173 211 257 304
#     4  12  24  34  49  70  92 124 162 205 274 342
#
# _framework density 17.365129
#
# number of rings (size 3 to 8) (size 9 to 14) (size 15 to 20)
#    0.000    1.818    3.636    1.091    0.000    2.545 
#    0.000    0.000    0.000    1.091    0.000    0.000 
#    0.000    0.000    0.000    0.000    0.000    0.000 
#
# Total GULP energy -368067.494192 kJ/mol
# GULP energy per Si atom -5576.780215 kJ/mol
# Density = 1.732560 g / cm^3
# Si number density = 17.365129 Si / 1000 Ang^3
#
#
#
# Elastic Constant Matrix: (Units=GPa)
#
#
# Indices 1 2 3 4 5 6 
#
# 1 70.0398 38.4121 22.9437 0.0000 0.0000 0.0000
# 2 38.4121 70.0398 22.9437 0.0000 0.0000 0.0000
# 3 22.9437 22.9437 56.4022 0.0000 0.0000 0.0000
# 4 0.0000 0.0000 0.0000 20.3643 0.0000 0.0000
# 5 0.0000 0.0000 0.0000 0.0000 20.3643 0.0000
# 6 0.0000 0.0000 0.0000 0.0000 0.0000 15.8138
#
#
#
# Elastic Compliance Matrix: (Units=1/GPa)
#
#
# Indices 1 2 3 4 5 6 
#
# 1 0.021378 -0.010240 -0.004531 0.000000 0.000000 0.000000
# 2 -0.010240 0.021378 -0.004531 0.000000 0.000000 0.000000
# 3 -0.004531 -0.004531 0.021416 0.000000 0.000000 0.000000
# 4 0.000000 0.000000 0.000000 0.049105 0.000000 0.000000
# 5 0.000000 0.000000 0.000000 0.000000 0.049105 0.000000
# 6 0.000000 0.000000 0.000000 0.000000 0.000000 0.063236
#
#
# Mechanical properties :
#
#
# Convention : Reuss Voigt Hill
#
# Bulk Modulus (GPa) = 39.11058 40.56451 39.83755
# Shear Modulus (GPa) = 18.33223 18.78732 18.55977
#
# Velocity S-wave (km/s) = 3.25267 3.29279 3.27279
# Velocity P-wave (km/s) = 6.05622 6.15363 6.10512
#
# Compressibility (1/GPa) = 0.02556853
#
# Stress axis : x y z
#
# Youngs Moduli (GPa) = 46.77758 46.77758 46.69442
#
# Poissons Ratio (x) = 0.47901 0.21156
# Poissons Ratio (y) = 0.47901 0.21156
# Poissons Ratio (z) = 0.21193 0.21193
#
# Static dielectric constant tensor:
#      x y z
#    x 1.609760 0.000000 0.000000 
#    y 0.000000 1.609760 0.000000 
#    z 0.000000 0.000000 1.610440 
# 
# From -- ./inp_files/1567.got.cif
#   From: 2010.05.17/outbox.cif.g08.bks.cpg/sg180_1_cif.got.tgz:1567.got - 2010.05.20 11:43:55.
