data_PCOD9583004
_publ_section_title
;
Structure prediction by ZEFSAII (Michael W. Deem and Ramdas Pophale) SiO2 
 PCOD9583004
Probable space group: P 61 2 2
;
_chemical_formula_sum "Si O2"
_cell_formula_units_Z 48
_cell_length_a 16.388246
_cell_length_b 16.388246
_cell_length_c 9.366836
_cell_angle_alpha 90.000000
_cell_angle_beta 90.000000
_cell_angle_gamma 120.000000
_cell_volume 2178.655169
_symmetry_space_group_name_H-M "P 61 2 2"
_symmetry_group_IT_number 178
_symmetry_cell_setting 'hexagonal'
loop_
_space_group_symop_operation_xyz
x,y,z
x-y,x,1/6+z
-y,x-y,1/3+z
-x,-y,1/2+z
-x+y,-x,2/3+z
y,-x+y,5/6+z
x-y,-y,-z
-x,-x+y,2/3-z
y,x,1/3-z
-y,-x,5/6-z
-x+y,y,1/2-z
x,x-y,1/6-z
loop_
_atom_site_type_symbol
_atom_site_label
_atom_site_fract_x
_atom_site_fract_y
_atom_site_fract_z
Si Si1 0.914736 0.677992 0.651630
Si Si2 0.169357 0.530318 0.225329
Si Si3 0.483571 0.404072 0.548291
Si Si4 0.204257 0.875237 0.274488
O O1 0.853850 0.707699 0.750000
O O2 0.905484 0.581719 0.712881
O O3 0.858737 0.651820 0.502074
O O4 0.022073 0.757091 0.628162
O O5 0.267449 0.534897 0.250000
O O6 0.150370 0.576622 0.361360
O O7 0.169739 0.584870 0.083334
O O8 0.423195 0.423195 0.666667
O O9 0.522558 0.477443 0.416667
O O10 0.423071 0.299380 0.487728
O O11 0.143074 0.856927 0.416667
#
# Coordination Sequence:
#
# PCOD9583004 Si02
#       4
#    12  12  12  12
#     4  11  24  44  68  95 129 172 220 270 329 396
#     4  11  24  40  60  92 133 177 222 267 322 385
#     4  12  24  40  64  93 130 173 219 271 324 389
#     4  12  24  42  68  98 129 168 219 274 331 390
#
# _framework density 22.031941
#
# number of rings (size 3 to 8) (size 9 to 14) (size 15 to 20)
#    0.000    0.500    0.000   11.250    0.000    4.000 
#    0.000    0.000    0.000    7.500    0.000    0.000 
#    0.000    0.000    0.000    0.000    0.000    0.000 
#
# Total GULP energy -268943.783374 kJ/mol
# GULP energy per Si atom -5602.995487 kJ/mol
# Density = 2.198180 g / cm^3
# Si number density = 22.031941 Si / 1000 Ang^3
#
#
#
# Elastic Constant Matrix: (Units=GPa)
#
#
# Indices 1 2 3 4 5 6 
#
# 1 86.4553 18.4086 14.3049 0.0000 0.0000 0.0000
# 2 18.4086 86.4553 14.3049 0.0000 0.0000 0.0000
# 3 14.3049 14.3049 102.7872 0.0000 0.0000 0.0000
# 4 0.0000 0.0000 0.0000 41.8533 0.0000 0.0000
# 5 0.0000 0.0000 0.0000 0.0000 41.8533 0.0000
# 6 0.0000 0.0000 0.0000 0.0000 0.0000 34.0234
#
#
#
# Elastic Compliance Matrix: (Units=1/GPa)
#
#
# Indices 1 2 3 4 5 6 
#
# 1 0.012304 -0.002392 -0.001380 0.000000 0.000000 0.000000
# 2 -0.002392 0.012304 -0.001380 0.000000 0.000000 0.000000
# 3 -0.001380 -0.001380 0.010113 0.000000 0.000000 0.000000
# 4 0.000000 0.000000 0.000000 0.023893 0.000000 0.000000
# 5 0.000000 0.000000 0.000000 0.000000 0.023893 0.000000
# 6 0.000000 0.000000 0.000000 0.000000 0.000000 0.029392
#
#
# Mechanical properties :
#
#
# Convention : Reuss Voigt Hill
#
# Bulk Modulus (GPa) = 40.95039 41.08162 41.01601
# Shear Modulus (GPa) = 38.36124 38.79131 38.57627
#
# Velocity S-wave (km/s) = 4.17725 4.20060 4.18895
# Velocity P-wave (km/s) = 6.47249 6.49720 6.48486
#
# Compressibility (1/GPa) = 0.02441979
#
# Stress axis : x y z
#
# Youngs Moduli (GPa) = 81.27332 81.27332 98.88439
#
# Poissons Ratio (x) = 0.19437 0.13641
# Poissons Ratio (y) = 0.19437 0.13641
# Poissons Ratio (z) = 0.11212 0.11212
#
# Static dielectric constant tensor:
#      x y z
#    x 1.794810 0.000000 0.000000 
#    y 0.000000 1.794810 0.000000 
#    z 0.000000 0.000000 1.844480 
# 
# From -- ./inp_files/2597.got.cif
#   From: 2010.05.17/outbox.cif.g08.bks.cpg/sg178_2_cif.got.tgz:2597.got - 2010.05.20 11:30:59.
