data_PCOD9583482
_publ_section_title
;
Structure prediction by ZEFSAII (Michael W. Deem and Ramdas Pophale) SiO2 
 PCOD9583482
Probable space group: P 65 2 2
;
_chemical_formula_sum "Si O2"
_cell_formula_units_Z 42
_cell_length_a 17.134837
_cell_length_b 17.134837
_cell_length_c 7.533538
_cell_angle_alpha 90.000000
_cell_angle_beta 90.000000
_cell_angle_gamma 120.000000
_cell_volume 1915.532698
_symmetry_space_group_name_H-M "P 65 2 2"
_symmetry_group_IT_number 179
_symmetry_cell_setting 'hexagonal'
loop_
_space_group_symop_operation_xyz
x,y,z
x-y,x,5/6+z
-y,x-y,2/3+z
-x,-y,1/2+z
-x+y,-x,1/3+z
y,-x+y,1/6+z
x-y,-y,-z
-x,-x+y,1/3-z
y,x,2/3-z
-y,-x,1/6-z
-x+y,y,1/2-z
x,x-y,5/6-z
loop_
_atom_site_type_symbol
_atom_site_label
_atom_site_fract_x
_atom_site_fract_y
_atom_site_fract_z
Si Si1 0.570661 0.570661 0.833334
Si Si2 0.826712 0.000000 0.500000
Si Si3 0.427780 0.572221 0.583334
Si Si4 0.700378 0.057700 0.336246
Si Si5 0.714232 0.474184 0.549703
O O1 0.477980 0.557618 0.750897
O O2 0.385134 0.357913 0.491721
O O3 0.837301 0.918651 0.416667
O O4 0.743889 0.957523 0.645010
O O5 0.461074 0.677529 0.596119
O O6 0.717331 0.156395 0.364049
O O7 0.641583 0.000000 0.500000
O O8 0.617200 0.382801 0.583334
O O9 0.750105 0.500210 0.750000
#
# Coordination Sequence:
#
# PCOD9583482 Si02
#       5
#     6   6   6  12  12
#     4  12  28  47  75 118 162 220 282 340 405 483
#     4  10  26  55  89 124 162 212 268 358 433 513
#     4  12  30  48  76 112 168 214 276 346 398 496
#     4  10  28  49  80 114 160 208 276 332 409 496
#     4  12  26  49  75 115 161 220 277 335 414 486
#
# _framework density 21.926017000000002
#
# number of rings (size 3 to 8) (size 9 to 14) (size 15 to 20)
#    0.857    0.000    4.286    0.000   12.000    0.000 
#    0.000    2.857    0.000    0.000    0.000    0.000 
#    0.000    0.000    0.000    0.000    0.000    0.000 
#
# Total GULP energy -234346.746546 kJ/mol
# GULP energy per Si atom -5579.684442 kJ/mol
# Density = 2.187611 g / cm^3
# Si number density = 21.926017 Si / 1000 Ang^3
#
#
#
# Elastic Constant Matrix: (Units=GPa)
#
#
# Indices 1 2 3 4 5 6 
#
# 1 191.2900 129.3102 76.3629 0.0000 0.0000 0.0000
# 2 129.3102 191.2900 76.3629 0.0000 0.0000 0.0000
# 3 76.3629 76.3629 141.3542 0.0000 0.0000 0.0000
# 4 0.0000 0.0000 0.0000 5.8078 0.0000 0.0000
# 5 0.0000 0.0000 0.0000 0.0000 5.8078 0.0000
# 6 0.0000 0.0000 0.0000 0.0000 0.0000 30.9899
#
#
#
# Elastic Compliance Matrix: (Units=1/GPa)
#
#
# Indices 1 2 3 4 5 6 
#
# 1 0.010167 -0.005967 -0.002269 0.000000 0.000000 0.000000
# 2 -0.005967 0.010167 -0.002269 0.000000 0.000000 0.000000
# 3 -0.002269 -0.002269 0.009526 0.000000 0.000000 0.000000
# 4 0.000000 0.000000 0.000000 0.172181 0.000000 0.000000
# 5 0.000000 0.000000 0.000000 0.000000 0.172181 0.000000
# 6 0.000000 0.000000 0.000000 0.000000 0.000000 0.032269
#
#
# Mechanical properties :
#
#
# Convention : Reuss Voigt Hill
#
# Bulk Modulus (GPa) = 112.99246 120.88957 116.94101
# Shear Modulus (GPa) = 11.61573 24.64765 18.13169
#
# Velocity S-wave (km/s) = 2.30417 3.35644 2.87879
# Velocity P-wave (km/s) = 7.66318 8.38307 8.03119
#
# Compressibility (1/GPa) = 0.00885015
#
# Stress axis : x y z
#
# Youngs Moduli (GPa) = 98.35588 98.35588 104.97683
#
# Poissons Ratio (x) = 0.58690 0.23819
# Poissons Ratio (y) = 0.58690 0.23819
# Poissons Ratio (z) = 0.22316 0.22316
#
# Static dielectric constant tensor:
#      x y z
#    x 1.900540 0.000000 0.000000 
#    y 0.000000 1.900540 0.000000 
#    z 0.000000 0.000000 1.874500 
# 
# From -- ./inp_files/2548.got.cif
#   From: 2010.05.17/outbox.cif.g08.bks.cpg/sg179_2_cif.got.tgz:2548.got - 2010.05.20 11:37:33.
