data_PCOD9583357
_publ_section_title
;
Structure prediction by ZEFSAII (Michael W. Deem and Ramdas Pophale) SiO2 
 PCOD9583357
Probable space group: P 65 2 2
;
_chemical_formula_sum "Si O2"
_cell_formula_units_Z 66
_cell_length_a 25.591958
_cell_length_b 25.591958
_cell_length_c 6.420723
_cell_angle_alpha 90.000000
_cell_angle_beta 90.000000
_cell_angle_gamma 120.000000
_cell_volume 3641.846146
_symmetry_space_group_name_H-M "P 65 2 2"
_symmetry_group_IT_number 179
_symmetry_cell_setting 'hexagonal'
loop_
_space_group_symop_operation_xyz
x,y,z
x-y,x,5/6+z
-y,x-y,2/3+z
-x,-y,1/2+z
-x+y,-x,1/3+z
y,-x+y,1/6+z
x-y,-y,-z
-x,-x+y,1/3-z
y,x,2/3-z
-y,-x,1/6-z
-x+y,y,1/2-z
x,x-y,5/6-z
loop_
_atom_site_type_symbol
_atom_site_label
_atom_site_fract_x
_atom_site_fract_y
_atom_site_fract_z
Si Si1 0.433455 0.662326 0.438553
Si Si2 0.816774 0.275579 0.252975
Si Si3 0.621041 0.943435 0.622542
Si Si4 0.783006 0.673379 0.128163
Si Si5 0.000000 0.288332 0.166667
Si Si6 0.137119 0.511382 0.415747
O O1 0.395349 0.604652 0.583334
O O2 0.398945 0.699473 0.416667
O O3 0.495282 0.706961 0.557949
O O4 0.448250 0.645844 0.214810
O O5 0.850758 0.240599 0.335239
O O6 0.768083 0.231918 0.083334
O O7 0.854291 0.340116 0.135970
O O8 0.656252 0.919057 0.485669
O O9 0.551072 0.897313 0.629468
O O10 0.627553 0.000000 0.500000
O O11 0.656090 0.964144 0.840630
O O12 0.846615 0.693229 0.250000
O O13 0.767697 0.715181 0.971491
O O14 0.106736 0.553368 0.416667
#
# Coordination Sequence:
#
# PCOD9583357 Si02
#       6
#    12  12  12  12   6  12
#     4  12  25  39  54  77 104 135 182 238 303 385
#     4  12  22  36  60  80 103 137 188 240 301 365
#     4  10  22  41  57  83 116 144 188 242 297 351
#     4  11  22  37  63  89 113 149 191 239 299 348
#     4  10  22  38  60  86 122 150 184 242 298 348
#     4  12  23  38  56  76 102 142 181 235 302 374
#
# _framework density 18.122675999999998
#
# number of rings (size 3 to 8) (size 9 to 14) (size 15 to 20)
#    0.000    0.727    7.273    1.636    0.000    1.455 
#    1.636    0.000    0.000    0.000    0.000    0.000 
#    0.000    0.000    0.000    0.000    0.000    0.000 
#
# Total GULP energy -367513.779738 kJ/mol
# GULP energy per Si atom -5568.390602 kJ/mol
# Density = 1.808143 g / cm^3
# Si number density = 18.122676 Si / 1000 Ang^3
#
#
#
# Elastic Constant Matrix: (Units=GPa)
#
#
# Indices 1 2 3 4 5 6 
#
# 1 37.1233 49.1650 30.4600 0.0000 0.0000 0.0000
# 2 49.1650 37.1233 30.4600 0.0000 0.0000 0.0000
# 3 30.4600 30.4600 87.7710 0.0000 0.0000 0.0000
# 4 0.0000 0.0000 0.0000 34.5288 0.0000 0.0000
# 5 0.0000 0.0000 0.0000 0.0000 34.5288 0.0000
# 6 0.0000 0.0000 0.0000 0.0000 0.0000 -6.0209
#
#
#
# Elastic Compliance Matrix: (Units=1/GPa)
#
#
# Indices 1 2 3 4 5 6 
#
# 1 -0.033847 0.049197 -0.005327 0.000000 0.000000 0.000000
# 2 0.049197 -0.033847 -0.005327 0.000000 0.000000 0.000000
# 3 -0.005327 -0.005327 0.015091 0.000000 0.000000 0.000000
# 4 0.000000 0.000000 0.000000 0.028961 0.000000 0.000000
# 5 0.000000 0.000000 0.000000 0.000000 0.028961 0.000000
# 6 0.000000 0.000000 0.000000 0.000000 0.000000 -0.166089
#
#
# Mechanical properties :
#
#
# Convention : Reuss Voigt Hill
#
# Bulk Modulus (GPa) = 40.84555 42.46525 41.65540
# Shear Modulus (GPa) = -21.76788 16.06950 -2.84919
#
# Velocity S-wave (km/s) = -3.46951 2.98099 -1.25522
# Velocity P-wave (km/s) = 2.55682 5.94402 4.57541
#
# Compressibility (1/GPa) = 0.02448247
#
# Stress axis : x y z
#
# Youngs Moduli (GPa) = -29.54442 -29.54442 66.26607
#
# Poissons Ratio (x) = 1.45351 0.35300
# Poissons Ratio (y) = 1.45351 0.35300
# Poissons Ratio (z) = -0.15738 -0.15738
#
# Static dielectric constant tensor:
#      x y z
#    x 1.684640 0.000000 0.000000 
#    y 0.000000 1.684640 0.000000 
#    z 0.000000 0.000000 1.676820 
# 
# From -- ./inp_files/1585.got.cif
#   From: 2010.05.17/outbox.cif.g08.bks.cpg/sg179_1_cif.got.tgz:1585.got - 2010.05.20 11:37:33.
