data_PCOD9583184
_publ_section_title
;
Structure prediction by ZEFSAII (Michael W. Deem and Ramdas Pophale) SiO2 
 PCOD9583184
Probable space group: P 65 2 2
;
_chemical_formula_sum "Si O2"
_cell_formula_units_Z 48
_cell_length_a 18.652198
_cell_length_b 18.652198
_cell_length_c 7.530398
_cell_angle_alpha 90.000000
_cell_angle_beta 90.000000
_cell_angle_gamma 120.000000
_cell_volume 2268.864689
_symmetry_space_group_name_H-M "P 65 2 2"
_symmetry_group_IT_number 179
_symmetry_cell_setting 'hexagonal'
loop_
_space_group_symop_operation_xyz
x,y,z
x-y,x,5/6+z
-y,x-y,2/3+z
-x,-y,1/2+z
-x+y,-x,1/3+z
y,-x+y,1/6+z
x-y,-y,-z
-x,-x+y,1/3-z
y,x,2/3-z
-y,-x,1/6-z
-x+y,y,1/2-z
x,x-y,5/6-z
loop_
_atom_site_type_symbol
_atom_site_label
_atom_site_fract_x
_atom_site_fract_y
_atom_site_fract_z
Si Si1 0.365041 0.634960 0.583334
Si Si2 0.636481 0.818241 0.916667
Si Si3 0.881979 0.833811 0.057347
Si Si4 0.001785 0.287927 0.455115
Si Si5 0.721435 0.561255 0.100920
O O1 0.335313 0.667657 0.416667
O O2 0.329771 0.537356 0.612276
O O3 0.676301 0.908802 0.807869
O O4 0.581331 0.757619 0.762046
O O5 0.858118 0.903844 0.087563
O O6 0.913402 0.826803 0.250000
O O7 0.800118 0.748635 0.020752
O O8 0.000000 0.267764 0.666667
O O9 0.940442 0.325794 0.452564
O O10 0.794803 0.589606 0.250000
#
# Coordination Sequence:
#
# PCOD9583184 Si02
#       5
#     6   6  12  12  12
#     4  10  23  46  78 110 144 180 230 300 384 475
#     4  12  25  40  70 100 138 194 238 300 354 443
#     4  10  19  34  49  73 114 170 223 286 339 392
#     4  12  22  42  64  94 136 189 244 299 359 427
#     4  11  23  43  71 102 141 186 237 296 376 447
#
# _framework density 21.155954999999999
#
# number of rings (size 3 to 8) (size 9 to 14) (size 15 to 20)
#    0.000    1.000    5.000    3.750    0.000    0.000 
#   11.250    2.500    2.750    0.000    0.000    0.000 
#    0.000    0.000    0.000    0.000    0.000    0.000 
#
# Total GULP energy -267234.690330 kJ/mol
# GULP energy per Si atom -5567.389382 kJ/mol
# Density = 2.110780 g / cm^3
# Si number density = 21.155955 Si / 1000 Ang^3
#
#
#
# Elastic Constant Matrix: (Units=GPa)
#
#
# Indices 1 2 3 4 5 6 
#
# 1 77.1078 22.1639 16.6615 0.0000 0.0000 0.0000
# 2 22.1639 77.1078 16.6615 0.0000 0.0000 0.0000
# 3 16.6615 16.6615 144.5366 0.0000 0.0000 0.0000
# 4 0.0000 0.0000 0.0000 25.7344 0.0000 0.0000
# 5 0.0000 0.0000 0.0000 0.0000 25.7344 0.0000
# 6 0.0000 0.0000 0.0000 0.0000 0.0000 27.4720
#
#
#
# Elastic Compliance Matrix: (Units=1/GPa)
#
#
# Indices 1 2 3 4 5 6 
#
# 1 0.014340 -0.003861 -0.001208 0.000000 0.000000 0.000000
# 2 -0.003861 0.014340 -0.001208 0.000000 0.000000 0.000000
# 3 -0.001208 -0.001208 0.007197 0.000000 0.000000 0.000000
# 4 0.000000 0.000000 0.000000 0.038859 0.000000 0.000000
# 5 0.000000 0.000000 0.000000 0.000000 0.038859 0.000000
# 6 0.000000 0.000000 0.000000 0.000000 0.000000 0.036401
#
#
# Mechanical properties :
#
#
# Convention : Reuss Voigt Hill
#
# Bulk Modulus (GPa) = 42.87604 45.52510 44.20057
# Shear Modulus (GPa) = 29.35618 32.00583 30.68100
#
# Velocity S-wave (km/s) = 3.72910 3.89376 3.81232
# Velocity P-wave (km/s) = 6.23316 6.46380 6.34953
#
# Compressibility (1/GPa) = 0.02332305
#
# Stress axis : x y z
#
# Youngs Moduli (GPa) = 69.73689 69.73689 138.94378
#
# Poissons Ratio (x) = 0.26924 0.16784
# Poissons Ratio (y) = 0.26924 0.16784
# Poissons Ratio (z) = 0.08424 0.08424
#
# Static dielectric constant tensor:
#      x y z
#    x 1.817000 0.000000 0.000000 
#    y 0.000000 1.817000 0.000000 
#    z 0.000000 0.000000 1.786930 
# 
# From -- ./inp_files/2761.got.cif
#   From: 2010.05.17/outbox.cif.g08.bks.cpg/sg179_2_cif.got.tgz:2761.got - 2010.05.20 11:37:33.
