data_PCOD9583463
_publ_section_title
;
Structure prediction by ZEFSAII (Michael W. Deem and Ramdas Pophale) SiO2 
 PCOD9583463
Probable space group: P 65 2 2
;
_chemical_formula_sum "Si O2"
_cell_formula_units_Z 72
_cell_length_a 12.065013
_cell_length_b 12.065013
_cell_length_c 25.148676
_cell_angle_alpha 90.000000
_cell_angle_beta 90.000000
_cell_angle_gamma 120.000000
_cell_volume 3170.307191
_symmetry_space_group_name_H-M "P 65 2 2"
_symmetry_group_IT_number 179
_symmetry_cell_setting 'hexagonal'
loop_
_space_group_symop_operation_xyz
x,y,z
x-y,x,5/6+z
-y,x-y,2/3+z
-x,-y,1/2+z
-x+y,-x,1/3+z
y,-x+y,1/6+z
x-y,-y,-z
-x,-x+y,1/3-z
y,x,2/3-z
-y,-x,1/6-z
-x+y,y,1/2-z
x,x-y,5/6-z
loop_
_atom_site_type_symbol
_atom_site_label
_atom_site_fract_x
_atom_site_fract_y
_atom_site_fract_z
Si Si1 0.104943 0.209885 0.250000
Si Si2 0.374118 0.230593 0.812253
Si Si3 0.290809 0.893181 0.659803
Si Si4 0.457683 0.728842 0.416667
Si Si5 0.162510 0.471275 0.034356
Si Si6 0.052778 0.254082 0.435299
Si Si7 0.340167 0.770848 0.883359
O O1 0.159740 0.311437 0.299117
O O2 0.164212 0.115836 0.242255
O O3 0.300059 0.300059 0.833334
O O4 0.457848 0.232644 0.863080
O O5 0.459139 0.305534 0.760235
O O6 0.271982 0.085959 0.794749
O O7 0.272482 0.947584 0.714812
O O8 0.378395 0.827528 0.662398
O O9 0.383602 0.013756 0.623506
O O10 0.364631 0.787805 0.412877
O O11 0.215075 0.372631 0.030279
O O12 0.208989 0.542014 0.978094
O O13 0.396855 0.698428 0.916667
#
# Coordination Sequence:
#
# PCOD9583463 Si02
#       7
#     6  12  12   6  12  12  12
#     4  10  24  45  74 103 144 190 248 300 366 436
#     4  12  29  47  73 108 151 199 249 310 385 459
#     4  11  23  44  71 105 142 187 243 305 365 441
#     4  12  26  49  70 107 146 198 248 312 380 454
#     4  11  25  43  71 102 140 187 244 301 368 443
#     4  11  26  46  74 107 144 193 247 309 373 445
#     4  12  24  47  72 105 147 195 245 306 377 447
#
# _framework density 22.710733999999999
#
# number of rings (size 3 to 8) (size 9 to 14) (size 15 to 20)
#    0.000    0.667    4.167    2.500    4.667    3.333 
#    1.500    0.000    0.000    0.000    0.000    0.000 
#    0.000    0.000    0.000    0.000    0.000    0.000 
#
# Total GULP energy -401240.195728 kJ/mol
# GULP energy per Si atom -5572.780496 kJ/mol
# Density = 2.265904 g / cm^3
# Si number density = 22.710734 Si / 1000 Ang^3
#
#
#
# Elastic Constant Matrix: (Units=GPa)
#
#
# Indices 1 2 3 4 5 6 
#
# 1 87.6718 29.0290 18.1996 0.0000 0.0000 0.0000
# 2 29.0290 87.6718 18.1996 0.0000 0.0000 0.0000
# 3 18.1996 18.1996 83.0034 0.0000 0.0000 0.0000
# 4 0.0000 0.0000 0.0000 31.1246 0.0000 0.0000
# 5 0.0000 0.0000 0.0000 0.0000 31.1246 0.0000
# 6 0.0000 0.0000 0.0000 0.0000 0.0000 29.3214
#
#
#
# Elastic Compliance Matrix: (Units=1/GPa)
#
#
# Indices 1 2 3 4 5 6 
#
# 1 0.013125 -0.003927 -0.002017 0.000000 0.000000 0.000000
# 2 -0.003927 0.013125 -0.002017 0.000000 0.000000 0.000000
# 3 -0.002017 -0.002017 0.012932 0.000000 0.000000 0.000000
# 4 0.000000 0.000000 0.000000 0.032129 0.000000 0.000000
# 5 0.000000 0.000000 0.000000 0.000000 0.032129 0.000000
# 6 0.000000 0.000000 0.000000 0.000000 0.000000 0.034105
#
#
# Mechanical properties :
#
#
# Convention : Reuss Voigt Hill
#
# Bulk Modulus (GPa) = 42.99056 43.24483 43.11769
# Shear Modulus (GPa) = 31.01345 31.17535 31.09440
#
# Velocity S-wave (km/s) = 3.69939 3.70904 3.70422
# Velocity P-wave (km/s) = 6.10066 6.11764 6.10916
#
# Compressibility (1/GPa) = 0.02326092
#
# Stress axis : x y z
#
# Youngs Moduli (GPa) = 76.18943 76.18943 77.32694
#
# Poissons Ratio (x) = 0.29921 0.15595
# Poissons Ratio (y) = 0.29921 0.15595
# Poissons Ratio (z) = 0.15366 0.15366
#
# Static dielectric constant tensor:
#      x y z
#    x 1.909200 0.000000 0.000000 
#    y 0.000000 1.909200 0.000000 
#    z 0.000000 0.000000 1.985350 
# 
# From -- ./inp_files/9600.got.cif
#   From: 2010.05.17/outbox.cif.g08.bks.cpg/sg179_5_cif.got.tgz:9600.got - 2010.05.20 11:37:33.
