data_PCOD9583202
_publ_section_title
;
Structure prediction by ZEFSAII (Michael W. Deem and Ramdas Pophale) SiO2 
 PCOD9583202
Probable space group: P 65 2 2
;
_chemical_formula_sum "Si O2"
_cell_formula_units_Z 66
_cell_length_a 16.525640
_cell_length_b 16.525640
_cell_length_c 16.368640
_cell_angle_alpha 90.000000
_cell_angle_beta 90.000000
_cell_angle_gamma 120.000000
_cell_volume 3871.326535
_symmetry_space_group_name_H-M "P 65 2 2"
_symmetry_group_IT_number 179
_symmetry_cell_setting 'hexagonal'
loop_
_space_group_symop_operation_xyz
x,y,z
x-y,x,5/6+z
-y,x-y,2/3+z
-x,-y,1/2+z
-x+y,-x,1/3+z
y,-x+y,1/6+z
x-y,-y,-z
-x,-x+y,1/3-z
y,x,2/3-z
-y,-x,1/6-z
-x+y,y,1/2-z
x,x-y,5/6-z
loop_
_atom_site_type_symbol
_atom_site_label
_atom_site_fract_x
_atom_site_fract_y
_atom_site_fract_z
Si Si1 0.252549 0.321558 0.911318
Si Si2 0.008409 0.567358 0.485162
Si Si3 0.461218 0.595322 0.265755
Si Si4 0.537988 0.157437 0.873335
Si Si5 0.930597 0.664082 0.378233
Si Si6 0.342113 0.684226 0.250000
O O1 0.281177 0.281177 0.833334
O O2 0.335138 0.429981 0.923354
O O3 0.154944 0.320645 0.902715
O O4 0.255763 0.262645 0.987641
O O5 0.047537 0.523769 0.416667
O O6 0.066677 0.575598 0.566062
O O7 0.905907 0.482778 0.503594
O O8 0.989211 0.646107 0.448585
O O9 0.458661 0.606899 0.363213
O O10 0.392561 0.626828 0.226898
O O11 0.431536 0.116612 0.843099
O O12 0.599821 0.254399 0.827609
#
# Coordination Sequence:
#
# PCOD9583202 Si02
#       6
#    12  12  12  12  12   6
#     4  12  21  35  61  89 118 152 200 256 326 379
#     4  10  19  36  54  75 116 163 202 238 295 357
#     4  12  22  34  54  81 118 172 206 255 287 352
#     4  11  19  36  53  78 115 165 208 245 300 345
#     4  11  22  37  58  85 120 155 191 253 321 380
#     4  12  24  34  52  86 124 162 220 250 290 342
#
# _framework density 17.04842
#
# number of rings (size 3 to 8) (size 9 to 14) (size 15 to 20)
#    0.000    0.727   10.000    1.636    0.000    1.455 
#    3.273    0.000    0.000    0.000    0.000    0.000 
#   10.909    0.000    0.000    0.000    0.000    0.000 
#
# Total GULP energy -367933.715102 kJ/mol
# GULP energy per Si atom -5574.753259 kJ/mol
# Density = 1.700962 g / cm^3
# Si number density = 17.048420 Si / 1000 Ang^3
#
#
#
# Elastic Constant Matrix: (Units=GPa)
#
#
# Indices 1 2 3 4 5 6 
#
# 1 89.2743 38.2052 34.7300 0.0000 0.0000 0.0000
# 2 38.2052 89.2743 34.7300 0.0000 0.0000 0.0000
# 3 34.7300 34.7300 72.8425 0.0000 0.0000 0.0000
# 4 0.0000 0.0000 0.0000 21.7434 0.0000 0.0000
# 5 0.0000 0.0000 0.0000 0.0000 21.7434 0.0000
# 6 0.0000 0.0000 0.0000 0.0000 0.0000 25.5345
#
#
#
# Elastic Compliance Matrix: (Units=1/GPa)
#
#
# Indices 1 2 3 4 5 6 
#
# 1 0.015089 -0.004492 -0.005053 0.000000 0.000000 0.000000
# 2 -0.004492 0.015089 -0.005053 0.000000 0.000000 0.000000
# 3 -0.005053 -0.005053 0.018546 0.000000 0.000000 0.000000
# 4 0.000000 0.000000 0.000000 0.045991 0.000000 0.000000
# 5 0.000000 0.000000 0.000000 0.000000 0.045991 0.000000
# 6 0.000000 0.000000 0.000000 0.000000 0.000000 0.039163
#
#
# Mechanical properties :
#
#
# Convention : Reuss Voigt Hill
#
# Bulk Modulus (GPa) = 51.20195 51.85795 51.52995
# Shear Modulus (GPa) = 23.19384 23.38599 23.28992
#
# Velocity S-wave (km/s) = 3.69245 3.70772 3.70009
# Velocity P-wave (km/s) = 6.94819 6.98668 6.96746
#
# Compressibility (1/GPa) = 0.01953051
#
# Stress axis : x y z
#
# Youngs Moduli (GPa) = 66.27173 66.27173 53.91908
#
# Poissons Ratio (x) = 0.29769 0.27244
# Poissons Ratio (y) = 0.29769 0.27244
# Poissons Ratio (z) = 0.33485 0.33485
#
# Static dielectric constant tensor:
#      x y z
#    x 1.603820 0.000000 0.000000 
#    y 0.000000 1.603820 0.000000 
#    z 0.000000 0.000000 1.783430 
# 
# From -- ./inp_files/6755.got.cif
#   From: 2010.05.17/outbox.cif.g08.bks.cpg/sg179_4_cif.got.tgz:6755.got - 2010.05.20 11:37:33.
