data_PCOD9583223
_publ_section_title
;
Structure prediction by ZEFSAII (Michael W. Deem and Ramdas Pophale) SiO2 
 PCOD9583223
Probable space group: P 65 2 2
;
_chemical_formula_sum "Si O2"
_cell_formula_units_Z 66
_cell_length_a 10.335581
_cell_length_b 10.335581
_cell_length_c 29.900339
_cell_angle_alpha 90.000000
_cell_angle_beta 90.000000
_cell_angle_gamma 120.000000
_cell_volume 2766.155139
_symmetry_space_group_name_H-M "P 65 2 2"
_symmetry_group_IT_number 179
_symmetry_cell_setting 'hexagonal'
loop_
_space_group_symop_operation_xyz
x,y,z
x-y,x,5/6+z
-y,x-y,2/3+z
-x,-y,1/2+z
-x+y,-x,1/3+z
y,-x+y,1/6+z
x-y,-y,-z
-x,-x+y,1/3-z
y,x,2/3-z
-y,-x,1/6-z
-x+y,y,1/2-z
x,x-y,5/6-z
loop_
_atom_site_type_symbol
_atom_site_label
_atom_site_fract_x
_atom_site_fract_y
_atom_site_fract_z
Si Si1 0.449551 0.890006 0.457678
Si Si2 0.180459 0.281930 0.991283
Si Si3 0.141016 0.858985 0.083334
Si Si4 0.347656 0.707002 0.854860
Si Si5 0.067700 0.609532 0.958965
Si Si6 0.368740 0.987584 0.628916
O O1 0.604306 0.900777 0.441686
O O2 0.340396 0.718829 0.473158
O O3 0.375343 0.932901 0.417357
O O4 0.485346 0.000000 0.500000
O O5 0.286769 0.284773 0.031230
O O6 0.029325 0.255608 0.013897
O O7 0.188911 0.181499 0.951967
O O8 0.258413 0.459135 0.977310
O O9 0.246125 0.548061 0.878365
O O10 0.508711 0.813174 0.874347
O O11 0.004264 0.502132 0.916667
O O12 0.037808 0.507793 0.002891
#
# Coordination Sequence:
#
# PCOD9583223 Si02
#       6
#    12  12   6  12  12  12
#     4  12  25  41  70 103 147 193 246 315 379 457
#     4  10  21  38  66  96 145 184 232 306 381 442
#     4  12  20  46  64 110 146 178 246 326 390 432
#     4  10  21  39  62  97 140 181 234 296 371 444
#     4  10  20  32  63  96 134 180 231 302 370 433
#     4  10  23  40  56 100 143 184 235 294 379 463
#
# _framework density 23.859831
#
# number of rings (size 3 to 8) (size 9 to 14) (size 15 to 20)
#    0.000    1.455    5.455    1.091    7.636    0.000 
#    0.000    0.000    0.000    3.273    0.000    0.000 
#    0.000    0.000    0.000    0.000    0.000    0.000 
#
# Total GULP energy -368475.048547 kJ/mol
# GULP energy per Si atom -5582.955281 kJ/mol
# Density = 2.380553 g / cm^3
# Si number density = 23.859831 Si / 1000 Ang^3
#
#
#
# Elastic Constant Matrix: (Units=GPa)
#
#
# Indices 1 2 3 4 5 6 
#
# 1 42.4168 56.1434 14.8429 0.0000 0.0000 0.0000
# 2 56.1434 42.4168 14.8429 0.0000 0.0000 0.0000
# 3 14.8429 14.8429 122.6515 0.0000 0.0000 0.0000
# 4 0.0000 0.0000 0.0000 28.3106 0.0000 0.0000
# 5 0.0000 0.0000 0.0000 0.0000 28.3106 0.0000
# 6 0.0000 0.0000 0.0000 0.0000 0.0000 -6.8633
#
#
#
# Elastic Compliance Matrix: (Units=1/GPa)
#
#
# Indices 1 2 3 4 5 6 
#
# 1 -0.031161 0.041691 -0.001274 0.000000 0.000000 0.000000
# 2 0.041691 -0.031161 -0.001274 0.000000 0.000000 0.000000
# 3 -0.001274 -0.001274 0.008462 0.000000 0.000000 0.000000
# 4 0.000000 0.000000 0.000000 0.035322 0.000000 0.000000
# 5 0.000000 0.000000 0.000000 0.000000 0.035322 0.000000
# 6 0.000000 0.000000 0.000000 0.000000 0.000000 -0.145702
#
#
# Mechanical properties :
#
#
# Convention : Reuss Voigt Hill
#
# Bulk Modulus (GPa) = 40.94299 42.12706 41.53503
# Shear Modulus (GPa) = -25.11807 18.06199 -3.52804
#
# Velocity S-wave (km/s) = -3.24811 2.75436 -1.21732
# Velocity P-wave (km/s) = 1.76921 5.27349 3.93318
#
# Compressibility (1/GPa) = 0.02442421
#
# Stress axis : x y z
#
# Youngs Moduli (GPa) = -32.09174 -32.09174 118.18089
#
# Poissons Ratio (x) = 1.33792 0.15060
# Poissons Ratio (y) = 1.33792 0.15060
# Poissons Ratio (z) = -0.04089 -0.04089
#
# Static dielectric constant tensor:
#      x y z
#    x 2.024780 0.000000 0.000000 
#    y 0.000000 2.024780 0.000000 
#    z 0.000000 0.000000 1.707870 
# 
# From -- ./inp_files/9494.got.cif
#   From: 2010.05.17/outbox.cif.g08.bks.cpg/sg179_5_cif.got.tgz:9494.got - 2010.05.20 11:37:33.
