data_PCOD9583322
_publ_section_title
;
Structure prediction by ZEFSAII (Michael W. Deem and Ramdas Pophale) SiO2 
 PCOD9583322
Probable space group: P 65 2 2
;
_chemical_formula_sum "Si O2"
_cell_formula_units_Z 66
_cell_length_a 15.245045
_cell_length_b 15.245045
_cell_length_c 17.082592
_cell_angle_alpha 90.000000
_cell_angle_beta 90.000000
_cell_angle_gamma 120.000000
_cell_volume 3438.284594
_symmetry_space_group_name_H-M "P 65 2 2"
_symmetry_group_IT_number 179
_symmetry_cell_setting 'hexagonal'
loop_
_space_group_symop_operation_xyz
x,y,z
x-y,x,5/6+z
-y,x-y,2/3+z
-x,-y,1/2+z
-x+y,-x,1/3+z
y,-x+y,1/6+z
x-y,-y,-z
-x,-x+y,1/3-z
y,x,2/3-z
-y,-x,1/6-z
-x+y,y,1/2-z
x,x-y,5/6-z
loop_
_atom_site_type_symbol
_atom_site_label
_atom_site_fract_x
_atom_site_fract_y
_atom_site_fract_z
Si Si1 0.082731 0.556930 0.506092
Si Si2 0.896996 0.295756 0.717809
Si Si3 0.325452 0.236580 0.480729
Si Si4 0.185533 0.337359 0.481079
Si Si5 0.253485 0.506970 0.750000
Si Si6 0.546200 0.159150 0.666512
O O1 0.120428 0.560214 0.416667
O O2 0.111294 0.493268 0.565301
O O3 0.106816 0.667967 0.532958
O O4 0.960546 0.494702 0.501621
O O5 0.888123 0.211916 0.779938
O O6 0.803941 0.242154 0.657603
O O7 0.000000 0.347955 0.666667
O O8 0.303608 0.151804 0.416667
O O9 0.243118 0.273330 0.479922
O O10 0.323783 0.194946 0.566844
O O11 0.276331 0.452967 0.488855
O O12 0.206850 0.577991 0.766398
O O13 0.599775 0.199549 0.750000
#
# Coordination Sequence:
#
# PCOD9583322 Si02
#       6
#    12  12  12  12   6  12
#     4  10  21  41  63  90 134 175 213 271 330 398
#     4  12  25  40  66  99 140 184 222 266 336 415
#     4  11  25  44  73  96 129 174 238 286 345 405
#     4  11  25  45  67  97 133 176 222 285 347 402
#     4  12  24  38  64  94 138 174 222 262 316 398
#     4  10  21  39  58  89 130 170 212 261 315 385
#
# _framework density 19.195618
#
# number of rings (size 3 to 8) (size 9 to 14) (size 15 to 20)
#    0.000    1.091    5.455    0.545    5.091    1.455 
#    0.000    0.000    0.000    4.364    0.000    0.000 
#    0.000    0.000    0.000    0.000    0.000    0.000 
#
# Total GULP energy -368735.024556 kJ/mol
# GULP energy per Si atom -5586.894311 kJ/mol
# Density = 1.915193 g / cm^3
# Si number density = 19.195618 Si / 1000 Ang^3
#
#
#
# Elastic Constant Matrix: (Units=GPa)
#
#
# Indices 1 2 3 4 5 6 
#
# 1 80.0031 51.7252 47.7327 0.0000 0.0000 0.0000
# 2 51.7252 80.0031 47.7327 0.0000 0.0000 0.0000
# 3 47.7327 47.7327 124.5203 0.0000 0.0000 0.0000
# 4 0.0000 0.0000 0.0000 21.6030 0.0000 0.0000
# 5 0.0000 0.0000 0.0000 0.0000 21.6030 0.0000
# 6 0.0000 0.0000 0.0000 0.0000 0.0000 14.1390
#
#
#
# Elastic Compliance Matrix: (Units=1/GPa)
#
#
# Indices 1 2 3 4 5 6 
#
# 1 0.022937 -0.012426 -0.004029 0.000000 0.000000 0.000000
# 2 -0.012426 0.022937 -0.004029 0.000000 0.000000 0.000000
# 3 -0.004029 -0.004029 0.011120 0.000000 0.000000 0.000000
# 4 0.000000 0.000000 0.000000 0.046290 0.000000 0.000000
# 5 0.000000 0.000000 0.000000 0.000000 0.046290 0.000000
# 6 0.000000 0.000000 0.000000 0.000000 0.000000 0.070727
#
#
# Mechanical properties :
#
#
# Convention : Reuss Voigt Hill
#
# Bulk Modulus (GPa) = 62.40070 64.32310 63.36190
# Shear Modulus (GPa) = 18.75380 20.62470 19.68925
#
# Velocity S-wave (km/s) = 3.12906 3.28143 3.20615
# Velocity P-wave (km/s) = 6.75523 6.92381 6.84004
#
# Compressibility (1/GPa) = 0.01602546
#
# Stress axis : x y z
#
# Youngs Moduli (GPa) = 43.59686 43.59686 89.92763
#
# Poissons Ratio (x) = 0.54173 0.36236
# Poissons Ratio (y) = 0.54173 0.36236
# Poissons Ratio (z) = 0.17567 0.17567
#
# Static dielectric constant tensor:
#      x y z
#    x 1.674890 0.000000 0.000000 
#    y 0.000000 1.674890 0.000000 
#    z 0.000000 0.000000 1.694920 
# 
# From -- ./inp_files/6701.got.cif
#   From: 2010.05.17/outbox.cif.g08.bks.cpg/sg179_4_cif.got.tgz:6701.got - 2010.05.20 11:37:33.
