data_PCOD9583981
_publ_section_title
;
Structure prediction by ZEFSAII (Michael W. Deem and Ramdas Pophale) SiO2 
 PCOD9583981
Probable space group: P 62 2 2
;
_chemical_formula_sum "Si O2"
_cell_formula_units_Z 45
_cell_length_a 10.910889
_cell_length_b 10.910889
_cell_length_c 19.219005
_cell_angle_alpha 90.000000
_cell_angle_beta 90.000000
_cell_angle_gamma 120.000000
_cell_volume 1981.444018
_symmetry_space_group_name_H-M "P 62 2 2"
_symmetry_group_IT_number 180
_symmetry_cell_setting 'hexagonal'
loop_
_space_group_symop_operation_xyz
x,y,z
x-y,x,1/3+z
-y,x-y,2/3+z
-x,-y,z
-x+y,-x,1/3+z
y,-x+y,2/3+z
x-y,-y,-z
-x,-x+y,1/3-z
y,x,2/3-z
-y,-x,2/3-z
-x+y,y,-z
x,x-y,1/3-z
loop_
_atom_site_type_symbol
_atom_site_label
_atom_site_fract_x
_atom_site_fract_y
_atom_site_fract_z
Si Si1 0.167336 0.729346 0.665470
Si Si2 0.229657 0.770344 0.333334
Si Si3 0.232509 0.969305 0.580690
Si Si4 0.373497 0.528094 0.554382
Si Si5 0.000000 0.000000 0.333334
O O1 0.188455 0.594228 0.666667
O O2 0.225102 0.821100 0.595996
O O3 0.247243 0.837278 0.729768
O O4 0.000000 0.664251 0.666667
O O5 0.349185 0.803029 0.277108
O O6 0.090946 0.725741 0.287900
O O7 0.098608 0.966440 0.617558
O O8 0.237607 0.000000 0.500000
O O9 0.500000 0.500000 0.527055
O O10 0.279649 0.559298 0.500000
#
# Coordination Sequence:
#
# PCOD9583981 Si02
#       5
#    12   6  12  12   3
#     4  11  25  47  75 111 157 202 267 331 404 503
#     4  11  26  47  69 114 149 188 270 328 383 498
#     4  11  24  44  77 107 154 205 262 325 411 461
#     4  12  28  48  75 111 158 210 269 337 416 498
#     4  10  22  48  66 114 158 204 264 330 370 498
#
# _framework density 22.710712000000001
#
# number of rings (size 3 to 8) (size 9 to 14) (size 15 to 20)
#    0.000    0.800    5.333    0.400    7.467    0.000 
#    0.000    1.333    0.000    0.000    0.000    0.000 
#    0.000    0.000    0.000    0.000    0.000    0.000 
#
# Total GULP energy -251454.805430 kJ/mol
# GULP energy per Si atom -5587.884565 kJ/mol
# Density = 2.265902 g / cm^3
# Si number density = 22.710712 Si / 1000 Ang^3
#
#
#
# Elastic Constant Matrix: (Units=GPa)
#
#
# Indices 1 2 3 4 5 6 
#
# 1 132.3999 65.4121 71.6521 0.0000 0.0000 0.0000
# 2 65.4121 132.3999 71.6521 0.0000 0.0000 0.0000
# 3 71.6521 71.6521 187.1196 0.0000 0.0000 0.0000
# 4 0.0000 0.0000 0.0000 -81.7469 0.0000 0.0000
# 5 0.0000 0.0000 0.0000 0.0000 -81.7469 0.0000
# 6 0.0000 0.0000 0.0000 0.0000 0.0000 33.4939
#
#
#
# Elastic Compliance Matrix: (Units=1/GPa)
#
#
# Indices 1 2 3 4 5 6 
#
# 1 0.010962 -0.003966 -0.002679 0.000000 0.000000 0.000000
# 2 -0.003966 0.010962 -0.002679 0.000000 0.000000 0.000000
# 3 -0.002679 -0.002679 0.007396 0.000000 0.000000 0.000000
# 4 0.000000 0.000000 0.000000 -0.012233 0.000000 0.000000
# 5 0.000000 0.000000 0.000000 0.000000 -0.012233 0.000000
# 6 0.000000 0.000000 0.000000 0.000000 0.000000 0.029856
#
#
# Mechanical properties :
#
#
# Convention : Reuss Voigt Hill
#
# Bulk Modulus (GPa) = 93.70163 96.59466 95.14814
# Shear Modulus (GPa) = 87.84938 -9.78644 39.03147
#
# Velocity S-wave (km/s) = 6.22623 -2.07811 4.15014
# Velocity P-wave (km/s) = 9.64553 6.07182 8.05925
#
# Compressibility (1/GPa) = 0.01067217
#
# Stress axis : x y z
#
# Youngs Moduli (GPa) = 91.22360 91.22360 135.21149
#
# Poissons Ratio (x) = 0.36180 0.36222
# Poissons Ratio (y) = 0.36180 0.36222
# Poissons Ratio (z) = 0.24438 0.24438
#
# Static dielectric constant tensor:
#      x y z
#    x 1.913280 0.000000 0.000000 
#    y 0.000000 1.913280 0.000000 
#    z 0.000000 0.000000 1.853850 
# 
# From -- ./inp_files/7399.got.cif
#   From: 2010.05.17/outbox.cif.g08.bks.cpg/sg180_4_cif.got.tgz:7399.got - 2010.05.20 11:43:55.
