data_PCOD9583116
_publ_section_title
;
Structure prediction by ZEFSAII (Michael W. Deem and Ramdas Pophale) SiO2 
 PCOD9583116
Probable space group: P 65 2 2
;
_chemical_formula_sum "Si O2"
_cell_formula_units_Z 60
_cell_length_a 31.008240
_cell_length_b 31.008240
_cell_length_c 5.204338
_cell_angle_alpha 90.000000
_cell_angle_beta 90.000000
_cell_angle_gamma 120.000000
_cell_volume 4333.615338
_symmetry_space_group_name_H-M "P 65 2 2"
_symmetry_group_IT_number 179
_symmetry_cell_setting 'hexagonal'
loop_
_space_group_symop_operation_xyz
x,y,z
x-y,x,5/6+z
-y,x-y,2/3+z
-x,-y,1/2+z
-x+y,-x,1/3+z
y,-x+y,1/6+z
x-y,-y,-z
-x,-x+y,1/3-z
y,x,2/3-z
-y,-x,1/6-z
-x+y,y,1/2-z
x,x-y,5/6-z
loop_
_atom_site_type_symbol
_atom_site_label
_atom_site_fract_x
_atom_site_fract_y
_atom_site_fract_z
Si Si1 0.558052 0.881164 0.978436
Si Si2 0.264779 0.940763 0.524490
Si Si3 0.826018 0.267420 0.660865
Si Si4 0.940982 0.499320 0.667260
Si Si5 0.114840 0.791283 0.157267
O O1 0.616923 0.920114 0.932718
O O2 0.539846 0.840686 0.748978
O O3 0.527400 0.909780 0.989328
O O4 0.554095 0.854636 0.248904
O O5 0.236594 0.916993 0.259059
O O6 0.294395 0.000000 0.500000
O O7 0.225198 0.920097 0.758933
O O8 0.768714 0.231287 0.583334
O O9 0.848496 0.230895 0.713657
O O10 0.930416 0.465208 0.416667
O O11 0.000000 0.539387 0.666667
O O12 0.930845 0.465423 0.916667
O O13 0.151115 0.848886 0.083334
#
# Coordination Sequence:
#
# PCOD9583116 Si02
#       5
#    12  12  12  12  12
#     4  10  18  29  44  60  82 110 135 166 206 242
#     4  10  18  27  41  60  79 101 137 178 207 233
#     4   9  17  28  43  62  81 103 130 160 200 250
#     4  10  20  32  44  59  82 114 149 175 197 234
#     4   9  17  28  40  55  78 106 132 161 206 251
#
# _framework density 13.845253
#
# number of rings (size 3 to 8) (size 9 to 14) (size 15 to 20)
#    0.000    2.400    0.000    3.600    0.000    4.800 
#    0.000    6.000    0.000    0.000    0.000    0.000 
#    0.000    0.000    0.000   75.600    0.000    0.000 
#
# Total GULP energy -334307.690211 kJ/mol
# GULP energy per Si atom -5571.794837 kJ/mol
# Density = 1.381374 g / cm^3
# Si number density = 13.845253 Si / 1000 Ang^3
#
#
#
# Elastic Constant Matrix: (Units=GPa)
#
#
# Indices 1 2 3 4 5 6 
#
# 1 44.0092 15.1574 -1.0092 0.0000 0.0000 0.0000
# 2 15.1574 44.0092 -1.0092 0.0000 0.0000 0.0000
# 3 -1.0092 -1.0092 57.1250 0.0000 0.0000 0.0000
# 4 0.0000 0.0000 0.0000 2.8042 0.0000 0.0000
# 5 0.0000 0.0000 0.0000 0.0000 2.8042 0.0000
# 6 0.0000 0.0000 0.0000 0.0000 0.0000 14.4259
#
#
#
# Elastic Compliance Matrix: (Units=1/GPa)
#
#
# Indices 1 2 3 4 5 6 
#
# 1 0.025786 -0.008874 0.000299 0.000000 0.000000 0.000000
# 2 -0.008874 0.025786 0.000299 0.000000 0.000000 0.000000
# 3 0.000299 0.000299 0.017516 0.000000 0.000000 0.000000
# 4 0.000000 0.000000 0.000000 0.356602 0.000000 0.000000
# 5 0.000000 0.000000 0.000000 0.000000 0.356602 0.000000
# 6 0.000000 0.000000 0.000000 0.000000 0.000000 0.069320
#
#
# Mechanical properties :
#
#
# Convention : Reuss Voigt Hill
#
# Bulk Modulus (GPa) = 19.03514 19.04679 19.04097
# Shear Modulus (GPa) = 5.64541 12.80718 9.22630
#
# Velocity S-wave (km/s) = 2.02147 3.04472 2.58425
# Velocity P-wave (km/s) = 4.38484 5.11343 4.76309
#
# Compressibility (1/GPa) = 0.05253443
#
# Stress axis : x y z
#
# Youngs Moduli (GPa) = 38.78114 38.78114 57.09055
#
# Poissons Ratio (x) = 0.34415 -0.01706
# Poissons Ratio (y) = 0.34415 -0.01706
# Poissons Ratio (z) = -0.01159 -0.01159
#
# Static dielectric constant tensor:
#      x y z
#    x 1.445630 0.000000 0.000000 
#    y 0.000000 1.445630 0.000000 
#    z 0.000000 0.000000 1.466670 
# 
# From -- ./inp_files/1474.got.cif
#   From: 2010.05.17/outbox.cif.g08.bks.cpg/sg179_1_cif.got.tgz:1474.got - 2010.05.20 11:37:33.
