data_PCOD9583355
_publ_section_title
;
Structure prediction by ZEFSAII (Michael W. Deem and Ramdas Pophale) SiO2 
 PCOD9583355
Probable space group: P 65 2 2
;
_chemical_formula_sum "Si O2"
_cell_formula_units_Z 60
_cell_length_a 17.594266
_cell_length_b 17.594266
_cell_length_c 11.844416
_cell_angle_alpha 90.000000
_cell_angle_beta 90.000000
_cell_angle_gamma 120.000000
_cell_volume 3175.313364
_symmetry_space_group_name_H-M "P 65 2 2"
_symmetry_group_IT_number 179
_symmetry_cell_setting 'hexagonal'
loop_
_space_group_symop_operation_xyz
x,y,z
x-y,x,5/6+z
-y,x-y,2/3+z
-x,-y,1/2+z
-x+y,-x,1/3+z
y,-x+y,1/6+z
x-y,-y,-z
-x,-x+y,1/3-z
y,x,2/3-z
-y,-x,1/6-z
-x+y,y,1/2-z
x,x-y,5/6-z
loop_
_atom_site_type_symbol
_atom_site_label
_atom_site_fract_x
_atom_site_fract_y
_atom_site_fract_z
Si Si1 0.143271 0.731562 0.353901
Si Si2 0.092921 0.370017 0.121764
Si Si3 0.962887 0.394088 0.432692
Si Si4 0.812602 0.347447 0.050895
Si Si5 0.502552 0.326937 0.865243
O O1 0.184708 0.827444 0.410406
O O2 0.183707 0.677973 0.421062
O O3 0.167135 0.738799 0.222172
O O4 0.040590 0.664720 0.367050
O O5 0.132730 0.439559 0.223118
O O6 0.000000 0.291241 0.166667
O O7 0.074763 0.418851 0.018306
O O8 0.995057 0.497529 0.416667
O O9 0.891629 0.360090 0.531695
O O10 0.711240 0.288761 0.083334
O O11 0.845405 0.437143 0.117541
O O12 0.546271 0.273136 0.916667
#
# Coordination Sequence:
#
# PCOD9583355 Si02
#       5
#    12  12  12  12  12
#     4  11  24  39  59  87 113 158 209 261 305 375
#     4  11  22  40  60  84 114 157 205 259 311 362
#     4  12  23  39  64  86 123 168 207 252 316 378
#     4  10  22  37  57  80 113 158 213 255 303 364
#     4  12  24  38  57  86 124 164 210 262 315 372
#
# _framework density 18.895772999999998
#
# number of rings (size 3 to 8) (size 9 to 14) (size 15 to 20)
#    0.000    0.800    6.000    2.400    0.000    4.000 
#    0.000    0.000    0.000    0.000    0.000    0.000 
#    0.000    0.000   13.600    0.000    0.000    0.000 
#
# Total GULP energy -334549.543886 kJ/mol
# GULP energy per Si atom -5575.825731 kJ/mol
# Density = 1.885277 g / cm^3
# Si number density = 18.895773 Si / 1000 Ang^3
#
#
#
# Elastic Constant Matrix: (Units=GPa)
#
#
# Indices 1 2 3 4 5 6 
#
# 1 72.0916 28.9866 12.6368 0.0000 0.0000 0.0000
# 2 28.9866 72.0916 12.6368 0.0000 0.0000 0.0000
# 3 12.6368 12.6368 102.1538 0.0000 0.0000 0.0000
# 4 0.0000 0.0000 0.0000 25.0043 0.0000 0.0000
# 5 0.0000 0.0000 0.0000 0.0000 25.0043 0.0000
# 6 0.0000 0.0000 0.0000 0.0000 0.0000 21.5525
#
#
#
# Elastic Compliance Matrix: (Units=1/GPa)
#
#
# Indices 1 2 3 4 5 6 
#
# 1 0.016704 -0.006495 -0.001263 0.000000 0.000000 0.000000
# 2 -0.006495 0.016704 -0.001263 0.000000 0.000000 0.000000
# 3 -0.001263 -0.001263 0.010102 0.000000 0.000000 0.000000
# 4 0.000000 0.000000 0.000000 0.039993 0.000000 0.000000
# 5 0.000000 0.000000 0.000000 0.000000 0.039993 0.000000
# 6 0.000000 0.000000 0.000000 0.000000 0.000000 0.046398
#
#
# Mechanical properties :
#
#
# Convention : Reuss Voigt Hill
#
# Bulk Modulus (GPa) = 39.26462 39.42859 39.34661
# Shear Modulus (GPa) = 25.45493 27.11732 26.28613
#
# Velocity S-wave (km/s) = 3.67430 3.79238 3.73381
# Velocity P-wave (km/s) = 6.23100 6.33150 6.28145
#
# Compressibility (1/GPa) = 0.02546822
#
# Stress axis : x y z
#
# Youngs Moduli (GPa) = 59.86540 59.86540 98.99404
#
# Poissons Ratio (x) = 0.38883 0.12502
# Poissons Ratio (y) = 0.38883 0.12502
# Poissons Ratio (z) = 0.07560 0.07560
#
# Static dielectric constant tensor:
#      x y z
#    x 1.689370 0.000000 0.000000 
#    y 0.000000 1.689370 0.000000 
#    z 0.000000 0.000000 1.703950 
# 
# From -- ./inp_files/4681.got.cif
#   From: 2010.05.17/outbox.cif.g08.bks.cpg/sg179_3_cif.got.tgz:4681.got - 2010.05.20 11:37:33.
