data_PCOD9583959
_publ_section_title
;
Structure prediction by ZEFSAII (Michael W. Deem and Ramdas Pophale) SiO2 
 PCOD9583959
Probable space group: P 62 2 2
;
_chemical_formula_sum "Si O2"
_cell_formula_units_Z 75
_cell_length_a 11.400263
_cell_length_b 11.400263
_cell_length_c 36.357777
_cell_angle_alpha 90.000000
_cell_angle_beta 90.000000
_cell_angle_gamma 120.000000
_cell_volume 4092.207945
_symmetry_space_group_name_H-M "P 62 2 2"
_symmetry_group_IT_number 180
_symmetry_cell_setting 'hexagonal'
loop_
_space_group_symop_operation_xyz
x,y,z
x-y,x,1/3+z
-y,x-y,2/3+z
-x,-y,z
-x+y,-x,1/3+z
y,-x+y,2/3+z
x-y,-y,-z
-x,-x+y,1/3-z
y,x,2/3-z
-y,-x,2/3-z
-x+y,y,-z
x,x-y,1/3-z
loop_
_atom_site_type_symbol
_atom_site_label
_atom_site_fract_x
_atom_site_fract_y
_atom_site_fract_z
Si Si1 0.616368 0.655235 0.577921
Si Si2 0.161080 0.443270 0.039048
Si Si3 0.000000 0.000000 0.000000
Si Si4 0.382628 0.039237 0.913208
Si Si5 0.335534 0.392525 0.499505
Si Si6 0.843756 0.282041 0.040715
Si Si7 0.857694 0.150436 0.966761
O O1 0.500000 0.500000 0.576588
O O2 0.561422 0.749167 0.594333
O O3 0.681827 0.688878 0.537276
O O4 0.721020 0.662317 0.608015
O O5 0.178017 0.591163 0.034659
O O6 0.003464 0.340528 0.046749
O O7 0.204296 0.408592 0.000000
O O8 0.134917 0.089757 0.023540
O O9 0.439338 0.193259 0.925400
O O10 0.500000 0.000000 0.915278
O O11 0.318766 0.001214 0.872506
O O12 0.268932 0.953754 0.943086
O O13 0.500000 0.500000 0.499200
O O14 0.219952 0.439904 0.500000
O O15 0.811641 0.193160 0.003755
#
# Coordination Sequence:
#
# PCOD9583959 Si02
#       7
#    12  12   3  12  12  12  12
#     4  11  23  39  66  91 121 166 213 261 321 378
#     4  11  23  40  64  92 128 164 213 262 318 395
#     4  12  24  40  62  90 128 180 196 248 314 412
#     4  11  25  40  62  92 129 164 210 270 323 382
#     4  10  22  42  66  94 128 171 227 274 324 390
#     4  11  24  40  61  94 129 166 206 264 325 383
#     4  12  22  39  61  90 128 166 208 251 323 383
#
# _framework density 18.327514000000001
#
# number of rings (size 3 to 8) (size 9 to 14) (size 15 to 20)
#    0.000    0.960    4.800    1.920    4.480    1.920 
#    0.000    0.800    0.000    3.840    0.000    0.000 
#    0.000    0.000    0.000    0.000    0.000    0.000 
#
# Total GULP energy -418390.372733 kJ/mol
# GULP energy per Si atom -5578.538303 kJ/mol
# Density = 1.828580 g / cm^3
# Si number density = 18.327514 Si / 1000 Ang^3
#
#
#
# Elastic Constant Matrix: (Units=GPa)
#
#
# Indices 1 2 3 4 5 6 
#
# 1 85.0319 32.0704 48.8772 0.0000 0.0000 0.0000
# 2 32.0704 85.0319 48.8772 0.0000 0.0000 0.0000
# 3 48.8772 48.8772 141.4250 0.0000 0.0000 0.0000
# 4 0.0000 0.0000 0.0000 23.1710 0.0000 0.0000
# 5 0.0000 0.0000 0.0000 0.0000 23.1710 0.0000
# 6 0.0000 0.0000 0.0000 0.0000 0.0000 26.4807
#
#
#
# Elastic Compliance Matrix: (Units=1/GPa)
#
#
# Indices 1 2 3 4 5 6 
#
# 1 0.015442 -0.003440 -0.004148 0.000000 0.000000 0.000000
# 2 -0.003440 0.015442 -0.004148 0.000000 0.000000 0.000000
# 3 -0.004148 -0.004148 0.009938 0.000000 0.000000 0.000000
# 4 0.000000 0.000000 0.000000 0.043157 0.000000 0.000000
# 5 0.000000 0.000000 0.000000 0.000000 0.043157 0.000000
# 6 0.000000 0.000000 0.000000 0.000000 0.000000 0.037763
#
#
# Mechanical properties :
#
#
# Convention : Reuss Voigt Hill
#
# Bulk Modulus (GPa) = 57.63561 63.45980 60.54771
# Shear Modulus (GPa) = 25.75262 26.67548 26.21405
#
# Velocity S-wave (km/s) = 3.75258 3.81923 3.78605
# Velocity P-wave (km/s) = 7.09166 7.35862 7.22637
#
# Compressibility (1/GPa) = 0.01735038
#
# Stress axis : x y z
#
# Youngs Moduli (GPa) = 64.75871 64.75871 100.62339
#
# Poissons Ratio (x) = 0.22275 0.41739
# Poissons Ratio (y) = 0.22275 0.41739
# Poissons Ratio (z) = 0.26862 0.26862
#
# Static dielectric constant tensor:
#      x y z
#    x 1.642230 0.000000 0.000000 
#    y 0.000000 1.642230 0.000000 
#    z 0.000000 0.000000 1.630940 
# 
# From -- ./inp_files/12372.got.cif
#   From: 2010.05.17/outbox.cif.g08.bks.cpg/sg180_7_cif.got.tgz:12372.got - 2010.05.20 11:43:55.
