data_PCOD9583098
_publ_section_title
;
Structure prediction by ZEFSAII (Michael W. Deem and Ramdas Pophale) SiO2 
 PCOD9583098
Probable space group: P 65 2 2
;
_chemical_formula_sum "Si O2"
_cell_formula_units_Z 78
_cell_length_a 22.523394
_cell_length_b 22.523394
_cell_length_c 14.936158
_cell_angle_alpha 90.000000
_cell_angle_beta 90.000000
_cell_angle_gamma 120.000000
_cell_volume 6562.014697
_symmetry_space_group_name_H-M "P 65 2 2"
_symmetry_group_IT_number 179
_symmetry_cell_setting 'hexagonal'
loop_
_space_group_symop_operation_xyz
x,y,z
x-y,x,5/6+z
-y,x-y,2/3+z
-x,-y,1/2+z
-x+y,-x,1/3+z
y,-x+y,1/6+z
x-y,-y,-z
-x,-x+y,1/3-z
y,x,2/3-z
-y,-x,1/6-z
-x+y,y,1/2-z
x,x-y,5/6-z
loop_
_atom_site_type_symbol
_atom_site_label
_atom_site_fract_x
_atom_site_fract_y
_atom_site_fract_z
Si Si1 0.550719 0.594001 0.574465
Si Si2 0.820231 0.500502 0.749892
Si Si3 0.462225 0.069286 0.556373
Si Si4 0.442986 0.785314 0.577737
Si Si5 0.617027 0.144399 0.601028
Si Si6 0.626670 0.111372 0.267373
Si Si7 0.622731 0.377270 0.083334
O O1 0.477671 0.522330 0.583334
O O2 0.563691 0.623326 0.675030
O O3 0.535831 0.637012 0.501156
O O4 0.606424 0.572979 0.545805
O O5 0.753537 0.507074 0.750000
O O6 0.868948 0.536118 0.665180
O O7 0.797057 0.419606 0.746867
O O8 0.862592 0.529623 0.841275
O O9 0.542529 0.090325 0.560828
O O10 0.421399 0.000000 0.500000
O O11 0.477664 0.812872 0.481001
O O12 0.494997 0.833044 0.654469
O O13 0.413462 0.704771 0.591189
O O14 0.607089 0.197244 0.663678
O O15 0.554007 0.108013 0.250000
#
# Coordination Sequence:
#
# PCOD9583098 Si02
#       7
#    12  12  12  12  12  12   6
#     4   9  16  30  42  56  70  83 121 159 184 211
#     4  10  19  28  39  60  76  97 121 146 184 230
#     4  10  17  29  45  57  70  92 122 153 186 216
#     4  10  22  28  41  53  75 103 116 144 185 239
#     4  10  21  29  42  58  68  96 121 156 181 220
#     4   9  18  28  41  56  71  90 118 155 183 219
#     4  12  20  34  38  54  84 100 128 138 188 256
#
# _framework density 11.886593
#
# number of rings (size 3 to 8) (size 9 to 14) (size 15 to 20)
#    0.000    2.154    4.615    0.462   10.769    1.231 
#    0.000    0.000    0.000    0.000    0.000    0.000 
#    0.000    0.000    0.000    0.000    0.000    0.000 
#
# Total GULP energy -434406.613082 kJ/mol
# GULP energy per Si atom -5569.315552 kJ/mol
# Density = 1.185954 g / cm^3
# Si number density = 11.886593 Si / 1000 Ang^3
#
#
#
# Elastic Constant Matrix: (Units=GPa)
#
#
# Indices 1 2 3 4 5 6 
#
# 1 43.4413 27.8594 31.0254 0.0000 0.0000 0.0000
# 2 27.8594 43.4413 31.0254 0.0000 0.0000 0.0000
# 3 31.0254 31.0254 93.1591 0.0000 0.0000 0.0000
# 4 0.0000 0.0000 0.0000 9.6434 0.0000 0.0000
# 5 0.0000 0.0000 0.0000 0.0000 9.6434 0.0000
# 6 0.0000 0.0000 0.0000 0.0000 0.0000 7.7909
#
#
#
# Elastic Compliance Matrix: (Units=1/GPa)
#
#
# Indices 1 2 3 4 5 6 
#
# 1 0.041963 -0.022214 -0.006577 0.000000 0.000000 0.000000
# 2 -0.022214 0.041963 -0.006577 0.000000 0.000000 0.000000
# 3 -0.006577 -0.006577 0.015115 0.000000 0.000000 0.000000
# 4 0.000000 0.000000 0.000000 0.103698 0.000000 0.000000
# 5 0.000000 0.000000 0.000000 0.000000 0.103698 0.000000
# 6 0.000000 0.000000 0.000000 0.000000 0.000000 0.128354
#
#
# Mechanical properties :
#
#
# Convention : Reuss Voigt Hill
#
# Bulk Modulus (GPa) = 35.32995 39.98469 37.65732
# Shear Modulus (GPa) = 9.70944 11.42431 10.56688
#
# Velocity S-wave (km/s) = 2.86114 3.10354 2.98480
# Velocity P-wave (km/s) = 6.37980 6.82306 6.60515
#
# Compressibility (1/GPa) = 0.02830460
#
# Stress axis : x y z
#
# Youngs Moduli (GPa) = 23.83050 23.83050 66.15868
#
# Poissons Ratio (x) = 0.52937 0.43513
# Poissons Ratio (y) = 0.52937 0.43513
# Poissons Ratio (z) = 0.15674 0.15674
#
# Static dielectric constant tensor:
#      x y z
#    x 1.371440 0.000000 0.000000 
#    y 0.000000 1.371440 0.000000 
#    z 0.000000 0.000000 1.432740 
# 
# From -- ./inp_files/6174.got.cif
#   From: 2010.05.17/outbox.cif.g08.bks.cpg/sg179_4_cif.got.tgz:6174.got - 2010.05.20 11:37:33.
