data_PCOD9583934
_publ_section_title
;
Structure prediction by ZEFSAII (Michael W. Deem and Ramdas Pophale) SiO2 
 PCOD9583934
Probable space group: P 62 2 2
;
_chemical_formula_sum "Si O2"
_cell_formula_units_Z 75
_cell_length_a 12.356623
_cell_length_b 12.356623
_cell_length_c 30.722416
_cell_angle_alpha 90.000000
_cell_angle_beta 90.000000
_cell_angle_gamma 120.000000
_cell_volume 4062.427190
_symmetry_space_group_name_H-M "P 62 2 2"
_symmetry_group_IT_number 180
_symmetry_cell_setting 'hexagonal'
loop_
_space_group_symop_operation_xyz
x,y,z
x-y,x,1/3+z
-y,x-y,2/3+z
-x,-y,z
-x+y,-x,1/3+z
y,-x+y,2/3+z
x-y,-y,-z
-x,-x+y,1/3-z
y,x,2/3-z
-y,-x,2/3-z
-x+y,y,-z
x,x-y,1/3-z
loop_
_atom_site_type_symbol
_atom_site_label
_atom_site_fract_x
_atom_site_fract_y
_atom_site_fract_z
Si Si1 0.622390 0.870173 0.478913
Si Si2 0.000000 0.500000 0.666667
Si Si3 0.730410 0.833772 0.388510
Si Si4 0.000000 0.000000 0.066155
Si Si5 0.662509 0.337492 0.833334
Si Si6 0.000537 0.805555 0.467524
Si Si7 0.117309 0.477714 0.437412
Si Si8 0.151380 0.754387 0.704254
O O1 0.675631 0.869746 0.430230
O O2 0.476373 0.765104 0.480625
O O3 0.709754 0.841793 0.510612
O O4 0.644245 0.000000 0.500000
O O5 0.094278 0.608355 0.698212
O O6 0.752746 0.716207 0.397528
O O7 0.649130 0.801333 0.344855
O O8 0.868746 0.939479 0.375698
O O9 0.894524 0.884929 0.094652
O O10 0.646075 0.230496 0.799018
O O11 0.914035 0.828069 0.500000
O O12 0.935678 0.658830 0.458343
O O13 0.175206 0.460315 0.392797
O O14 0.000000 0.500000 0.432703
#
# Coordination Sequence:
#
# PCOD9583934 Si02
#       8
#    12   3  12   6   6  12  12  12
#     4  12  23  43  65  99 134 169 215 265 333 394
#     4   8  20  40  72  94 116 160 220 270 316 378
#     4  10  22  38  67  94 133 163 213 274 320 381
#     4  12  19  35  66 100 128 166 206 268 326 373
#     4  12  29  40  68  93 128 178 212 278 320 389
#     4  12  20  37  63 100 129 167 202 265 330 372
#     4  12  25  44  64  92 134 168 222 262 324 391
#     4  10  23  42  62 100 124 174 219 268 320 388
#
# _framework density 18.461869
#
# number of rings (size 3 to 8) (size 9 to 14) (size 15 to 20)
#    0.000    0.960    7.200    0.480    4.480    1.280 
#    0.000    1.600    3.520    0.000    0.000    0.000 
#    0.000    0.000    0.000    0.000    0.000    0.000 
#
# Total GULP energy -417767.178746 kJ/mol
# GULP energy per Si atom -5570.229050 kJ/mol
# Density = 1.841985 g / cm^3
# Si number density = 18.461869 Si / 1000 Ang^3
#
#
#
# Elastic Constant Matrix: (Units=GPa)
#
#
# Indices 1 2 3 4 5 6 
#
# 1 120.7265 48.9466 42.9121 0.0000 0.0000 0.0000
# 2 48.9466 120.7265 42.9121 0.0000 0.0000 0.0000
# 3 42.9121 42.9121 88.1462 0.0000 0.0000 0.0000
# 4 0.0000 0.0000 0.0000 101.9031 0.0000 0.0000
# 5 0.0000 0.0000 0.0000 0.0000 101.9031 0.0000
# 6 0.0000 0.0000 0.0000 0.0000 0.0000 35.8900
#
#
#
# Elastic Compliance Matrix: (Units=1/GPa)
#
#
# Indices 1 2 3 4 5 6 
#
# 1 0.010875 -0.003056 -0.003807 0.000000 0.000000 0.000000
# 2 -0.003056 0.010875 -0.003807 0.000000 0.000000 0.000000
# 3 -0.003807 -0.003807 0.015051 0.000000 0.000000 0.000000
# 4 0.000000 0.000000 0.000000 0.009813 0.000000 0.000000
# 5 0.000000 0.000000 0.000000 0.000000 0.009813 0.000000
# 6 0.000000 0.000000 0.000000 0.000000 0.000000 0.027863
#
#
# Mechanical properties :
#
#
# Convention : Reuss Voigt Hill
#
# Bulk Modulus (GPa) = 64.67032 66.57121 65.62076
# Shear Modulus (GPa) = 45.13281 60.92779 53.03030
#
# Velocity S-wave (km/s) = 4.94970 5.75097 5.36531
# Velocity P-wave (km/s) = 8.23233 8.95741 8.60251
#
# Compressibility (1/GPa) = 0.01546304
#
# Stress axis : x y z
#
# Youngs Moduli (GPa) = 91.95145 91.95145 66.44034
#
# Poissons Ratio (x) = 0.28102 0.25291
# Poissons Ratio (y) = 0.28102 0.25291
# Poissons Ratio (z) = 0.35002 0.35002
#
# Static dielectric constant tensor:
#      x y z
#    x 1.652400 0.000000 0.000000 
#    y 0.000000 1.652400 0.000000 
#    z 0.000000 0.000000 1.657950 
# 
# From -- ./inp_files/12404.got.cif
#   From: 2010.05.17/outbox.cif.g08.bks.cpg/sg180_7_cif.got.tgz:12404.got - 2010.05.20 11:43:55.
