data_PCOD9583160
_publ_section_title
;
Structure prediction by ZEFSAII (Michael W. Deem and Ramdas Pophale) SiO2 
 PCOD9583160
Probable space group: P 65 2 2
;
_chemical_formula_sum "Si O2"
_cell_formula_units_Z 48
_cell_length_a 14.499262
_cell_length_b 14.499262
_cell_length_c 12.709095
_cell_angle_alpha 90.000000
_cell_angle_beta 90.000000
_cell_angle_gamma 120.000000
_cell_volume 2313.859864
_symmetry_space_group_name_H-M "P 65 2 2"
_symmetry_group_IT_number 179
_symmetry_cell_setting 'hexagonal'
loop_
_space_group_symop_operation_xyz
x,y,z
x-y,x,5/6+z
-y,x-y,2/3+z
-x,-y,1/2+z
-x+y,-x,1/3+z
y,-x+y,1/6+z
x-y,-y,-z
-x,-x+y,1/3-z
y,x,2/3-z
-y,-x,1/6-z
-x+y,y,1/2-z
x,x-y,5/6-z
loop_
_atom_site_type_symbol
_atom_site_label
_atom_site_fract_x
_atom_site_fract_y
_atom_site_fract_z
Si Si1 0.314805 0.004746 0.169983
Si Si2 0.645168 0.927192 0.897897
Si Si3 0.233192 0.766809 0.083334
Si Si4 0.833801 0.000000 0.500000
Si Si5 0.110373 0.579267 0.234218
O O1 0.271851 0.881961 0.137308
O O2 0.296349 0.011195 0.292258
O O3 0.441125 0.078436 0.155088
O O4 0.262506 0.049514 0.085835
O O5 0.671893 0.835947 0.916667
O O6 0.517102 0.876031 0.892593
O O7 0.681074 0.000000 0.000000
O O8 0.205218 0.670703 0.164629
O O9 0.927642 0.072359 0.583334
O O10 0.000000 0.522912 0.166667
#
# Coordination Sequence:
#
# PCOD9583160 Si02
#       5
#    12  12   6   6  12
#     4  11  20  41  72  97 127 181 234 291 350 413
#     4  11  27  44  61  98 145 184 217 276 363 426
#     4  10  18  38  76 100 120 178 238 282 336 412
#     4  12  24  42  74 102 132 174 242 304 350 412
#     4   9  19  40  65 100 132 168 225 286 343 405
#
# _framework density 20.744558999999999
#
# number of rings (size 3 to 8) (size 9 to 14) (size 15 to 20)
#    0.000    1.500    5.000    0.750    7.000    0.000 
#    4.500    3.750    0.000    0.000    3.250    0.000 
#    0.000    0.000    0.000    0.000    0.000    0.000 
#
# Total GULP energy -267443.102076 kJ/mol
# GULP energy per Si atom -5571.731293 kJ/mol
# Density = 2.069734 g / cm^3
# Si number density = 20.744559 Si / 1000 Ang^3
#
#
#
# Elastic Constant Matrix: (Units=GPa)
#
#
# Indices 1 2 3 4 5 6 
#
# 1 74.0084 29.2250 47.6840 0.0000 0.0000 0.0000
# 2 29.2250 74.0084 47.6840 0.0000 0.0000 0.0000
# 3 47.6840 47.6840 181.5397 0.0000 0.0000 0.0000
# 4 0.0000 0.0000 0.0000 30.3718 0.0000 0.0000
# 5 0.0000 0.0000 0.0000 0.0000 30.3718 0.0000
# 6 0.0000 0.0000 0.0000 0.0000 0.0000 22.3917
#
#
#
# Elastic Compliance Matrix: (Units=1/GPa)
#
#
# Indices 1 2 3 4 5 6 
#
# 1 0.017560 -0.004770 -0.003360 0.000000 0.000000 0.000000
# 2 -0.004770 0.017560 -0.003360 0.000000 0.000000 0.000000
# 3 -0.003360 -0.003360 0.007273 0.000000 0.000000 0.000000
# 4 0.000000 0.000000 0.000000 0.032925 0.000000 0.000000
# 5 0.000000 0.000000 0.000000 0.000000 0.032925 0.000000
# 6 0.000000 0.000000 0.000000 0.000000 0.000000 0.044659
#
#
# Mechanical properties :
#
#
# Convention : Reuss Voigt Hill
#
# Bulk Modulus (GPa) = 51.50442 64.30470 57.90456
# Shear Modulus (GPa) = 27.41936 30.29130 28.85533
#
# Velocity S-wave (km/s) = 3.63955 3.82541 3.73363
# Velocity P-wave (km/s) = 6.52254 7.11177 6.82352
#
# Compressibility (1/GPa) = 0.01941581
#
# Stress axis : x y z
#
# Youngs Moduli (GPa) = 56.94743 56.94743 137.48870
#
# Poissons Ratio (x) = 0.27162 0.46191
# Poissons Ratio (y) = 0.27162 0.46191
# Poissons Ratio (z) = 0.19132 0.19132
#
# Static dielectric constant tensor:
#      x y z
#    x 1.757450 0.000000 0.000000 
#    y 0.000000 1.757450 0.000000 
#    z 0.000000 0.000000 1.750640 
# 
# From -- ./inp_files/4287.got.cif
#   From: 2010.05.17/outbox.cif.g08.bks.cpg/sg179_3_cif.got.tgz:4287.got - 2010.05.20 11:37:33.
