data_PCOD9583326
_publ_section_title
;
Structure prediction by ZEFSAII (Michael W. Deem and Ramdas Pophale) SiO2 
 PCOD9583326
Probable space group: P 65 2 2
;
_chemical_formula_sum "Si O2"
_cell_formula_units_Z 66
_cell_length_a 15.287949
_cell_length_b 15.287949
_cell_length_c 17.159917
_cell_angle_alpha 90.000000
_cell_angle_beta 90.000000
_cell_angle_gamma 120.000000
_cell_volume 3473.315746
_symmetry_space_group_name_H-M "P 65 2 2"
_symmetry_group_IT_number 179
_symmetry_cell_setting 'hexagonal'
loop_
_space_group_symop_operation_xyz
x,y,z
x-y,x,5/6+z
-y,x-y,2/3+z
-x,-y,1/2+z
-x+y,-x,1/3+z
y,-x+y,1/6+z
x-y,-y,-z
-x,-x+y,1/3-z
y,x,2/3-z
-y,-x,1/6-z
-x+y,y,1/2-z
x,x-y,5/6-z
loop_
_atom_site_type_symbol
_atom_site_label
_atom_site_fract_x
_atom_site_fract_y
_atom_site_fract_z
Si Si1 0.232580 0.313524 0.192781
Si Si2 0.511783 0.563890 0.918347
Si Si3 0.750643 0.249358 0.583334
Si Si4 0.544632 0.389296 0.169371
Si Si5 0.293887 0.396881 0.883534
Si Si6 0.161544 0.344873 0.025858
O O1 0.137466 0.274932 0.250000
O O2 0.319017 0.422280 0.226489
O O3 0.201490 0.327610 0.106848
O O4 0.278153 0.238394 0.190554
O O5 0.550140 0.550140 0.833334
O O6 0.390863 0.500749 0.914289
O O7 0.544417 0.508674 0.982338
O O8 0.797178 0.366326 0.565084
O O9 0.805081 0.234622 0.657463
O O10 0.590829 0.409172 0.083334
O O11 0.460085 0.274801 0.184287
O O12 0.339792 0.339792 0.833334
O O13 0.221549 0.332254 0.953662
#
# Coordination Sequence:
#
# PCOD9583326 Si02
#       6
#    12  12   6  12  12  12
#     4  11  24  44  71  92 130 166 234 278 333 388
#     4  10  21  39  63  90 129 170 209 260 321 385
#     4  12  22  40  64  88 138 172 208 262 306 380
#     4  11  22  39  59  91 128 164 211 255 309 380
#     4  11  24  39  64  95 138 176 215 259 329 393
#     4  11  26  42  67  99 123 176 218 275 334 395
#
# _framework density 19.002015
#
# number of rings (size 3 to 8) (size 9 to 14) (size 15 to 20)
#    0.000    1.091    5.455    2.727    7.636    1.455 
#    0.000    0.000    0.000    4.364    0.000    0.000 
#    0.000    0.000    0.000    0.000    0.000    0.000 
#
# Total GULP energy -368581.233992 kJ/mol
# GULP energy per Si atom -5584.564151 kJ/mol
# Density = 1.895877 g / cm^3
# Si number density = 19.002015 Si / 1000 Ang^3
#
#
#
# Elastic Constant Matrix: (Units=GPa)
#
#
# Indices 1 2 3 4 5 6 
#
# 1 78.5097 37.7272 42.6177 0.0000 0.0000 0.0000
# 2 37.7272 78.5097 42.6177 0.0000 0.0000 0.0000
# 3 42.6177 42.6177 128.9448 0.0000 0.0000 0.0000
# 4 0.0000 0.0000 0.0000 29.1948 0.0000 0.0000
# 5 0.0000 0.0000 0.0000 0.0000 29.1948 0.0000
# 6 0.0000 0.0000 0.0000 0.0000 0.0000 20.3913
#
#
#
# Elastic Compliance Matrix: (Units=1/GPa)
#
#
# Indices 1 2 3 4 5 6 
#
# 1 0.017938 -0.006583 -0.003753 0.000000 0.000000 0.000000
# 2 -0.006583 0.017938 -0.003753 0.000000 0.000000 0.000000
# 3 -0.003753 -0.003753 0.010236 0.000000 0.000000 0.000000
# 4 0.000000 0.000000 0.000000 0.034253 0.000000 0.000000
# 5 0.000000 0.000000 0.000000 0.000000 0.034253 0.000000
# 6 0.000000 0.000000 0.000000 0.000000 0.000000 0.049041
#
#
# Mechanical properties :
#
#
# Convention : Reuss Voigt Hill
#
# Bulk Modulus (GPa) = 55.75886 59.09884 57.42885
# Shear Modulus (GPa) = 25.27645 26.62297 25.94971
#
# Velocity S-wave (km/s) = 3.65115 3.74713 3.69945
# Velocity P-wave (km/s) = 6.86890 7.06330 6.96678
#
# Compressibility (1/GPa) = 0.01793437
#
# Stress axis : x y z
#
# Youngs Moduli (GPa) = 55.74845 55.74845 97.69361
#
# Poissons Ratio (x) = 0.36697 0.36665
# Poissons Ratio (y) = 0.36697 0.36665
# Poissons Ratio (z) = 0.20922 0.20922
#
# Static dielectric constant tensor:
#      x y z
#    x 1.678630 0.000000 0.000000 
#    y 0.000000 1.678630 0.000000 
#    z 0.000000 0.000000 1.675340 
# 
# From -- ./inp_files/6715.got.cif
#   From: 2010.05.17/outbox.cif.g08.bks.cpg/sg179_4_cif.got.tgz:6715.got - 2010.05.20 11:37:33.
