data_PCOD9583399
_publ_section_title
;
Structure prediction by ZEFSAII (Michael W. Deem and Ramdas Pophale) SiO2 
 PCOD9583399
Probable space group: P 65 2 2
;
_chemical_formula_sum "Si O2"
_cell_formula_units_Z 54
_cell_length_a 11.366121
_cell_length_b 11.366121
_cell_length_c 19.479620
_cell_angle_alpha 90.000000
_cell_angle_beta 90.000000
_cell_angle_gamma 120.000000
_cell_volume 2179.393556
_symmetry_space_group_name_H-M "P 65 2 2"
_symmetry_group_IT_number 179
_symmetry_cell_setting 'hexagonal'
loop_
_space_group_symop_operation_xyz
x,y,z
x-y,x,5/6+z
-y,x-y,2/3+z
-x,-y,1/2+z
-x+y,-x,1/3+z
y,-x+y,1/6+z
x-y,-y,-z
-x,-x+y,1/3-z
y,x,2/3-z
-y,-x,1/6-z
-x+y,y,1/2-z
x,x-y,5/6-z
loop_
_atom_site_type_symbol
_atom_site_label
_atom_site_fract_x
_atom_site_fract_y
_atom_site_fract_z
Si Si1 0.590133 0.438774 0.752656
Si Si2 0.042494 0.618354 0.865796
Si Si3 0.287599 0.287599 0.333334
Si Si4 0.288492 0.162305 0.623108
Si Si5 0.262511 0.276316 0.759727
O O1 0.686710 0.373420 0.750000
O O2 0.586840 0.509542 0.681715
O O3 0.674878 0.563556 0.805967
O O4 0.427594 0.352155 0.767373
O O5 0.094726 0.547363 0.916667
O O6 0.152187 0.733797 0.816679
O O7 0.974649 0.680306 0.914810
O O8 0.186132 0.231841 0.398185
O O9 0.226884 0.175046 0.695327
O O10 0.209823 0.209823 0.833334
O O11 0.178788 0.357575 0.750000
#
# Coordination Sequence:
#
# PCOD9583399 Si02
#       5
#    12  12   6  12  12
#     4  11  22  43  74 115 166 217 286 367 446 540
#     4  11  23  44  73 113 155 209 280 356 442 527
#     4  10  22  44  74 116 154 212 292 372 444 522
#     4  11  24  45  76 106 161 213 279 362 439 552
#     4  12  27  49  76 113 174 228 288 362 467 563
#
# _framework density 24.777532999999998
#
# number of rings (size 3 to 8) (size 9 to 14) (size 15 to 20)
#    0.000    0.889    5.556    1.333    0.000    0.889 
#    4.000    5.556   24.444    0.000    0.000    0.000 
#    0.000    0.000    0.000    0.000    0.000    0.000 
#
# Total GULP energy -300998.185432 kJ/mol
# GULP energy per Si atom -5574.040471 kJ/mol
# Density = 2.472114 g / cm^3
# Si number density = 24.777533 Si / 1000 Ang^3
#
#
#
# Elastic Constant Matrix: (Units=GPa)
#
#
# Indices 1 2 3 4 5 6 
#
# 1 122.5098 71.6406 34.6907 0.0000 0.0000 0.0000
# 2 71.6406 122.5098 34.6907 0.0000 0.0000 0.0000
# 3 34.6907 34.6907 185.2488 0.0000 0.0000 0.0000
# 4 0.0000 0.0000 0.0000-1079.0697 0.0000 0.0000
# 5 0.0000 0.0000 0.0000 0.0000-1079.0697 0.0000
# 6 0.0000 0.0000 0.0000 0.0000 0.0000 25.4346
#
#
#
# Elastic Compliance Matrix: (Units=1/GPa)
#
#
# Indices 1 2 3 4 5 6 
#
# 1 0.012589 -0.007069 -0.001034 0.000000 0.000000 0.000000
# 2 -0.007069 0.012589 -0.001034 0.000000 0.000000 0.000000
# 3 -0.001034 -0.001034 0.005785 0.000000 0.000000 0.000000
# 4 0.000000 0.000000 0.000000 -0.000927 0.000000 0.000000
# 5 0.000000 0.000000 0.000000 0.000000 -0.000927 0.000000
# 6 0.000000 0.000000 0.000000 0.000000 0.000000 0.039316
#
#
# Mechanical properties :
#
#
# Convention : Reuss Voigt Hill
#
# Bulk Modulus (GPa) = 78.79880 79.14583 78.97231
# Shear Modulus (GPa) = 54.98745 -407.25787 -176.13521
#
# Velocity S-wave (km/s) = 4.71600 -12.83443 -8.44044
# Velocity P-wave (km/s) = 7.84384 13.69738 7.94017
#
# Compressibility (1/GPa) = 0.01269055
#
# Stress axis : x y z
#
# Youngs Moduli (GPa) = 79.43352 79.43352 172.85172
#
# Poissons Ratio (x) = 0.56152 0.17868
# Poissons Ratio (y) = 0.56152 0.17868
# Poissons Ratio (z) = 0.08211 0.08211
#
# Static dielectric constant tensor:
#      x y z
#    x 2.035550 0.000000 0.000000 
#    y 0.000000 2.035550 0.000000 
#    z 0.000000 0.000000 1.912540 
# 
# From -- ./inp_files/7399.got.cif
#   From: 2010.05.17/outbox.cif.g08.bks.cpg/sg179_4_cif.got.tgz:7399.got - 2010.05.20 11:37:33.
