data_PCOD9583871
_publ_section_title
;
Structure prediction by ZEFSAII (Michael W. Deem and Ramdas Pophale) SiO2 
 PCOD9583871
Probable space group: P 62 2 2
;
_chemical_formula_sum "Si O2"
_cell_formula_units_Z 84
_cell_length_a 18.296872
_cell_length_b 18.296872
_cell_length_c 13.781579
_cell_angle_alpha 90.000000
_cell_angle_beta 90.000000
_cell_angle_gamma 120.000000
_cell_volume 3995.612015
_symmetry_space_group_name_H-M "P 62 2 2"
_symmetry_group_IT_number 180
_symmetry_cell_setting 'hexagonal'
loop_
_space_group_symop_operation_xyz
x,y,z
x-y,x,1/3+z
-y,x-y,2/3+z
-x,-y,z
-x+y,-x,1/3+z
y,-x+y,2/3+z
x-y,-y,-z
-x,-x+y,1/3-z
y,x,2/3-z
-y,-x,2/3-z
-x+y,y,-z
x,x-y,1/3-z
loop_
_atom_site_type_symbol
_atom_site_label
_atom_site_fract_x
_atom_site_fract_y
_atom_site_fract_z
Si Si1 0.025696 0.282276 0.011709
Si Si2 0.154525 0.683591 0.807297
Si Si3 0.126715 0.699853 0.587184
Si Si4 0.122144 0.840409 0.141107
Si Si5 0.577447 0.588384 0.578518
Si Si6 0.269900 0.667056 0.561681
Si Si7 0.979055 0.108958 0.436149
O O1 0.101345 0.298461 0.084050
O O2 0.939362 0.236694 0.073044
O O3 0.008335 0.208087 0.934265
O O4 0.045441 0.373288 0.975296
O O5 0.221635 0.778365 0.833334
O O6 0.116000 0.677919 0.700808
O O7 0.082439 0.648650 0.885142
O O8 0.204215 0.631349 0.810739
O O9 0.120817 0.781887 0.559651
O O10 0.221436 0.718579 0.566447
O O11 0.065175 0.620506 0.520754
O O12 0.089898 0.907805 0.148431
O O13 0.500000 0.500000 0.614695
O O14 0.353917 0.707834 0.500000
O O15 0.291013 0.645506 0.666667
O O16 0.946355 0.053646 0.333334
O O17 0.054170 0.108339 0.500000
#
# Coordination Sequence:
#
# PCOD9583871 Si02
#       7
#    12  12  12  12  12  12  12
#     4  10  23  44  66  92 131 171 220 275 329 402
#     4  10  21  37  59  88 125 158 206 267 322 381
#     4  11  21  38  63  88 124 170 213 255 335 395
#     4  10  22  45  66  91 130 175 215 278 334 397
#     4  12  23  39  63  97 130 170 218 269 333 401
#     4   9  19  37  56  86 124 161 206 267 321 376
#     4  10  22  44  72 102 138 177 229 283 348 413
#
# _framework density 21.023060999999998
#
# number of rings (size 3 to 8) (size 9 to 14) (size 15 to 20)
#    0.000    1.714    2.857    1.286    0.000    2.857 
#    5.143   12.143    0.000    0.857    0.000    0.000 
#    0.000    0.000    0.000    0.000    0.000    0.000 
#
# Total GULP energy -468174.165941 kJ/mol
# GULP energy per Si atom -5573.501975 kJ/mol
# Density = 2.097521 g / cm^3
# Si number density = 21.023061 Si / 1000 Ang^3
#
#
#
# Elastic Constant Matrix: (Units=GPa)
#
#
# Indices 1 2 3 4 5 6 
#
# 1 -135.2469 234.4264 16.2094 0.0000 0.0000 0.0000
# 2 234.4264 -135.2469 16.2094 0.0000 0.0000 0.0000
# 3 16.2094 16.2094 34.7575 0.0000 0.0000 0.0000
# 4 0.0000 0.0000 0.0000 45.3783 0.0000 0.0000
# 5 0.0000 0.0000 0.0000 0.0000 45.3783 0.0000
# 6 0.0000 0.0000 0.0000 0.0000 0.0000 -184.8366
#
#
#
# Elastic Compliance Matrix: (Units=1/GPa)
#
#
# Indices 1 2 3 4 5 6 
#
# 1 0.004596 0.007301 -0.005548 0.000000 0.000000 0.000000
# 2 0.007301 0.004596 -0.005548 0.000000 0.000000 0.000000
# 3 -0.005548 -0.005548 0.033945 0.000000 0.000000 0.000000
# 4 0.000000 0.000000 0.000000 0.022037 0.000000 0.000000
# 5 0.000000 0.000000 0.000000 0.000000 0.022037 0.000000
# 6 0.000000 0.000000 0.000000 0.000000 0.000000 -0.005410
#
#
# Mechanical properties :
#
#
# Convention : Reuss Voigt Hill
#
# Bulk Modulus (GPa) = 28.13240 33.10601 30.61921
# Shear Modulus (GPa) = 49.38808 -52.32145 -1.46668
#
# Velocity S-wave (km/s) = 4.85215 -4.99416 -0.83616
# Velocity P-wave (km/s) = 6.69342 4.18018 3.69648
#
# Compressibility (1/GPa) = 0.03554620
#
# Stress axis : x y z
#
# Youngs Moduli (GPa) = 217.60262 217.60262 29.45917
#
# Poissons Ratio (x) = -1.58863 0.16344
# Poissons Ratio (y) = -1.58863 0.16344
# Poissons Ratio (z) = 1.20723 1.20723
#
# Static dielectric constant tensor:
#      x y z
#    x 1.802650 0.000000 0.000000 
#    y 0.000000 1.802650 0.000000 
#    z 0.000000 0.000000 1.800610 
# 
# From -- ./inp_files/6498.got.cif
#   From: 2010.05.17/outbox.cif.g08.bks.cpg/sg180_4_cif.got.tgz:6498.got - 2010.05.20 11:43:55.
