data_PCOD9583124
_publ_section_title
;
Structure prediction by ZEFSAII (Michael W. Deem and Ramdas Pophale) SiO2 
 PCOD9583124
Probable space group: P 65 2 2
;
_chemical_formula_sum "Si O2"
_cell_formula_units_Z 60
_cell_length_a 18.846562
_cell_length_b 18.846562
_cell_length_c 12.214799
_cell_angle_alpha 90.000000
_cell_angle_beta 90.000000
_cell_angle_gamma 120.000000
_cell_volume 3757.346365
_symmetry_space_group_name_H-M "P 65 2 2"
_symmetry_group_IT_number 179
_symmetry_cell_setting 'hexagonal'
loop_
_space_group_symop_operation_xyz
x,y,z
x-y,x,5/6+z
-y,x-y,2/3+z
-x,-y,1/2+z
-x+y,-x,1/3+z
y,-x+y,1/6+z
x-y,-y,-z
-x,-x+y,1/3-z
y,x,2/3-z
-y,-x,1/6-z
-x+y,y,1/2-z
x,x-y,5/6-z
loop_
_atom_site_type_symbol
_atom_site_label
_atom_site_fract_x
_atom_site_fract_y
_atom_site_fract_z
Si Si1 0.756861 0.680031 0.267538
Si Si2 0.412640 0.034170 0.765683
Si Si3 0.353785 0.881466 0.904796
Si Si4 0.582587 0.297176 0.175081
Si Si5 0.467458 0.892540 0.087225
O O1 0.752171 0.752171 0.333334
O O2 0.846170 0.692339 0.250000
O O3 0.708601 0.653159 0.151036
O O4 0.701093 0.603076 0.347730
O O5 0.442718 0.053315 0.640702
O O6 0.497192 0.089253 0.834703
O O7 0.379554 0.940722 0.800633
O O8 0.299911 0.786453 0.876924
O O9 0.437695 0.902891 0.968241
O O10 0.637067 0.274134 0.250000
O O11 0.551029 0.350801 0.237573
O O12 0.642326 0.357675 0.083334
#
# Coordination Sequence:
#
# PCOD9583124 Si02
#       5
#    12  12  12  12  12
#     4   9  17  29  47  68  92 122 156 188 234 289
#     4   9  18  30  46  63  84 122 157 200 235 282
#     4  10  21  32  44  69  89 121 169 200 240 298
#     4  12  22  32  46  67  92 123 158 205 256 291
#     4  10  18  30  48  60  84 120 155 195 248 285
#
# _framework density 15.968717
#
# number of rings (size 3 to 8) (size 9 to 14) (size 15 to 20)
#    0.000    2.000    4.000    3.000    5.600    0.000 
#    0.000    0.000    0.000    0.000    0.000    0.000 
#    0.000    0.000    0.000   61.200    0.000    0.400 
#
# Total GULP energy -334169.800794 kJ/mol
# GULP energy per Si atom -5569.496680 kJ/mol
# Density = 1.593237 g / cm^3
# Si number density = 15.968717 Si / 1000 Ang^3
#
#
#
# Elastic Constant Matrix: (Units=GPa)
#
#
# Indices 1 2 3 4 5 6 
#
# 1 77.0348 23.8390 15.8787 0.0000 0.0000 0.0000
# 2 23.8390 77.0348 15.8787 0.0000 0.0000 0.0000
# 3 15.8787 15.8787 25.3064 0.0000 0.0000 0.0000
# 4 0.0000 0.0000 0.0000 16.2231 0.0000 0.0000
# 5 0.0000 0.0000 0.0000 0.0000 16.2231 0.0000
# 6 0.0000 0.0000 0.0000 0.0000 0.0000 26.5979
#
#
#
# Elastic Compliance Matrix: (Units=1/GPa)
#
#
# Indices 1 2 3 4 5 6 
#
# 1 0.015576 -0.003222 -0.007751 0.000000 0.000000 0.000000
# 2 -0.003222 0.015576 -0.007751 0.000000 0.000000 0.000000
# 3 -0.007751 -0.007751 0.049243 0.000000 0.000000 0.000000
# 4 0.000000 0.000000 0.000000 0.061641 0.000000 0.000000
# 5 0.000000 0.000000 0.000000 0.000000 0.061641 0.000000
# 6 0.000000 0.000000 0.000000 0.000000 0.000000 0.037597
#
#
# Mechanical properties :
#
#
# Convention : Reuss Voigt Hill
#
# Bulk Modulus (GPa) = 23.28574 32.28542 27.78558
# Shear Modulus (GPa) = 17.06259 20.06077 18.56168
#
# Velocity S-wave (km/s) = 3.27234 3.54821 3.41306
# Velocity P-wave (km/s) = 5.37507 6.08673 5.74193
#
# Compressibility (1/GPa) = 0.04294473
#
# Stress axis : x y z
#
# Youngs Moduli (GPa) = 64.20095 64.20095 20.30748
#
# Poissons Ratio (x) = 0.20688 0.15741
# Poissons Ratio (y) = 0.20688 0.15741
# Poissons Ratio (z) = 0.49765 0.49765
#
# Static dielectric constant tensor:
#      x y z
#    x 1.560970 0.000000 0.000000 
#    y 0.000000 1.560970 0.000000 
#    z 0.000000 0.000000 1.571120 
# 
# From -- ./inp_files/4690.got.cif
#   From: 2010.05.17/outbox.cif.g08.bks.cpg/sg179_3_cif.got.tgz:4690.got - 2010.05.20 11:37:33.
